=
 OpenBabel11052411123D

 60 64  0  0  1  0  0  0  0  0999 V2000
  161.3570  207.2200  149.6210 N   0  0  0  0  0  0  0  0  0  0  0  0
  161.3690  209.0130  151.2730 C   0  0  0  0  0  2  0  0  0  0  0  0
  161.3030  205.7720  152.8160 C   0  0  0  0  0  3  0  0  0  0  0  0
  161.5510  207.1190  153.0510 C   0  0  0  0  0  0  0  0  0  0  0  0
  161.1640  208.6770  149.7690 C   0  0  1  0  0  3  0  0  0  0  0  0
  161.3580  205.5460  151.4800 N   0  0  0  0  0  0  0  0  0  0  0  0
  160.8920  204.3360  150.8620 C   0  0  0  0  0  0  0  0  0  0  0  0
  160.4240  204.3520  149.6920 O   0  0  0  0  0  0  0  0  0  0  0  0
  160.9100  203.1130  151.6050 N   0  0  0  0  0  2  0  0  0  0  0  0
  161.7770  207.7000  151.8280 C   0  0  0  0  0  0  0  0  0  0  0  0
  161.6970  206.7270  150.9100 C   0  0  0  0  0  0  0  0  0  0  0  0
  159.7490  206.0920  144.8940 C   0  0  0  0  0  2  0  0  0  0  0  0
  162.9800  205.5950  146.7870 C   0  0  0  0  0  2  0  0  0  0  0  0
  162.9170  206.0940  148.1370 C   0  0  0  0  0  2  0  0  0  0  0  0
  160.7640  206.0900  145.9570 C   0  0  1  0  0  3  0  0  0  0  0  0
  161.6950  206.5930  148.3720 C   0  0  0  0  0  0  0  0  0  0  0  0
  161.0350  205.6650  144.9980 C   0  0  0  0  0  0  0  0  0  0  0  0
  161.6640  205.8890  146.2970 C   0  0  0  0  0  2  0  0  0  0  0  0
  160.7200  206.5550  147.2480 C   0  0  0  0  0  3  0  0  0  0  0  0
  161.6730  205.0540  143.8730 O   0  0  0  0  0  0  0  0  0  0  0  0
  161.5840  205.5760  142.5560 C   0  0  0  0  0  1  0  0  0  0  0  0
  161.4290  207.8040  154.3050 C   0  0  0  0  0  0  0  0  0  0  0  0
  161.2870  208.3670  155.3620 C   0  0  0  0  0  0  0  0  0  0  0  0
  161.0930  208.9950  156.5650 O   0  0  0  0  0  0  0  0  0  0  0  0
  160.4580  212.1330  155.1350 C   0  0  0  0  0  2  0  0  0  0  0  0
  159.1020  210.1990  157.0960 C   0  0  0  0  0  3  0  0  0  0  0  0
  160.3790  210.1930  156.6870 C   0  0  0  0  0  0  0  0  0  0  0  0
  159.2640  212.9970  155.5380 C   0  0  2  0  0  3  0  0  0  0  0  0
  158.0480  212.1440  155.9300 C   0  0  1  0  0  3  0  0  0  0  0  0
  158.2840  211.4410  157.2600 C   0  0  0  0  0  2  0  0  0  0  0  0
  161.0890  211.4660  156.3490 C   0  0  0  0  0  2  0  0  0  0  0  0
  156.9190  212.9550  156.0640 O   0  0  0  0  0  1  0  0  0  0  0  0
  158.9250  213.9180  154.3740 C   0  0  0  0  0  2  0  0  0  0  0  0
  158.3690  213.1170  153.2050 C   0  0  0  0  0  2  0  0  0  0  0  0
  159.2710  213.2060  152.0190 C   0  0  0  0  0  0  0  0  0  0  0  0
  159.7170  212.1540  151.4870 O   0  0  0  0  0  1  0  0  0  0  0  0
  159.5920  214.4460  151.4800 O   0  0  0  0  0  0  0  0  0  0  0  0
  160.4480  201.8590  151.0340 C   0  0  0  0  0  2  0  0  0  0  0  0
  161.3120  201.5000  149.8400 C   0  0  0  0  0  2  0  0  0  0  0  0
  161.2740  201.4530  147.3480 C   0  0  0  0  0  1  0  0  0  0  0  0
  160.4510  201.2670  148.6160 C   0  0  0  0  0  2  0  0  0  0  0  0
  162.0860  209.4460  148.9220 N   0  0  0  0  0  2  0  0  0  0  0  0
  162.1740  210.8350  149.3680 C   0  0  0  0  0  2  0  0  0  0  0  0
  161.3920  211.7300  148.4210 C   0  0  0  0  0  2  0  0  0  0  0  0
  162.3110  212.7240  147.7810 C   0  0  0  0  0  0  0  0  0  0  0  0
  163.5160  212.5160  147.7760 O   0  0  0  0  0  0  0  0  0  0  0  0
  161.7710  213.9210  147.0500 C   0  0  0  0  0  2  0  0  0  0  0  0
  162.6260  214.2890  145.8430 C   0  0  0  0  0  2  0  0  0  0  0  0
  161.8420  214.1090  144.5480 C   0  0  0  0  0  2  0  0  0  0  0  0
  161.4980  212.7400  144.3570 O   0  0  0  0  0  0  0  0  0  0  0  0
  159.3420  212.1170  143.8030 O   0  0  0  0  0  0  0  0  0  0  0  0
  160.5320  212.3230  143.4350 C   0  0  0  0  0  0  0  0  0  0  0  0
  161.6010  211.7160  139.3650 C   0  0  0  0  0  3  0  0  0  0  0  0
  159.5010  210.5150  139.0380 N   0  0  0  0  0  1  0  0  0  0  0  0
  162.4670  212.4160  140.2070 C   0  0  0  0  0  0  0  0  0  0  0  0
  160.0730  211.4480  141.1860 N   0  0  0  0  0  0  0  0  0  0  0  0
  163.6740  212.9000  139.7160 O   0  0  0  0  0  1  0  0  0  0  0  0
  160.3940  211.2350  139.8800 C   0  0  0  0  0  0  0  0  0  0  0  0
  160.9040  212.1280  142.0270 C   0  0  0  0  0  0  0  0  0  0  0  0
  162.1200  212.6260  141.5420 C   0  0  0  0  0  3  0  0  0  0  0  0
  1  5  1  0  0  0  0
  1 11  1  0  0  0  0
  2 10  1  0  0  0  0
  3  4  2  0  0  0  0
  4 22  1  0  0  0  0
  5 42  1  6  0  0  0
  5  2  1  0  0  0  0
  6  3  1  0  0  0  0
  7  6  1  0  0  0  0
  7  9  1  0  0  0  0
  8  7  2  0  0  0  0
 10  4  1  0  0  0  0
 11  6  1  0  0  0  0
 11 10  2  0  0  0  0
 12 17  2  0  0  0  0
 13 14  1  0  0  0  0
 14 16  1  0  0  0  0
 15 17  1  6  0  0  0
 15 18  1  0  0  0  0
 15 19  1  0  0  0  0
 16  1  1  0  0  0  0
 18 13  1  0  0  0  0
 19 16  2  0  0  0  0
 20 17  1  0  0  0  0
 21 20  1  0  0  0  0
 22 23  3  0  0  0  0
 23 24  1  0  0  0  0
 24 27  1  0  0  0  0
 25 28  1  0  0  0  0
 25 31  1  0  0  0  0
 26 30  1  0  0  0  0
 27 26  2  0  0  0  0
 28 33  1  6  0  0  0
 28 29  1  0  0  0  0
 29 32  1  1  0  0  0
 29 30  1  0  0  0  0
 31 27  1  0  0  0  0
 34 33  1  0  0  0  0
 35 34  1  0  0  0  0
 36 35  1  0  0  0  0
 37 35  2  0  0  0  0
 38  9  1  0  0  0  0
 39 38  1  0  0  0  0
 40 41  1  0  0  0  0
 41 39  1  0  0  0  0
 42 43  1  0  0  0  0
 44 43  1  0  0  0  0
 45 44  1  0  0  0  0
 46 45  2  0  0  0  0
 47 45  1  0  0  0  0
 48 47  1  0  0  0  0
 49 48  1  0  0  0  0
 50 49  1  0  0  0  0
 52 51  2  0  0  0  0
 52 50  1  0  0  0  0
 53 58  2  0  0  0  0
 53 55  1  0  0  0  0
 54 58  1  0  0  0  0
 55 60  2  0  0  0  0
 56 59  2  0  0  0  0
 57 55  1  0  0  0  0
 58 56  1  0  0  0  0
 59 52  1  0  0  0  0
 60 59  1  0  0  0  0
M  END
>  <MODEL>
1

>  <REMARK>
 VINA RESULT:      -6.1      0.000      0.000
  Name = 
  21 active torsions:
  status: ('A' for Active; 'I' for Inactive)
    1  A    between atoms: C_1  and  C_32
    2  A    between atoms: C_1  and  C_58
    3  A    between atoms: O_4  and  C_51
    4  A    between atoms: N_5  and  C_15
    5  A    between atoms: N_5  and  C_31
    6  A    between atoms: C_6  and  C_12
    7  A    between atoms: N_7  and  C_42
    8  A    between atoms: O_13  and  C_37
    9  A    between atoms: O_13  and  C_38
   10  A    between atoms: C_14  and  C_59
   11  A    between atoms: C_16  and  O_39
   12  A    between atoms: C_23  and  O_39
   13  A    between atoms: C_24  and  C_33
   14  A    between atoms: C_27  and  C_41
   15  A    between atoms: N_28  and  C_56
   16  A    between atoms: C_31  and  C_58
   17  A    between atoms: C_32  and  C_44
   18  A    between atoms: C_33  and  C_41
   19  A    between atoms: C_37  and  C_53
   20  A    between atoms: C_38  and  C_44
   21  A    between atoms: C_56  and  C_59
                            x       y       z     vdW  Elec       q    Type
                         _______ _______ _______ _____ _____    ______ ____

>  <TORSDO>
F 21

$$$$
=
 OpenBabel11052411123D

 60 64  0  0  1  0  0  0  0  0999 V2000
  161.1930  210.4480  150.9490 N   0  0  0  0  0  0  0  0  0  0  0  0
  162.1560  210.4960  148.7100 C   0  0  0  0  0  2  0  0  0  0  0  0
  160.3530  213.5090  149.4580 C   0  0  0  0  0  3  0  0  0  0  0  0
  161.2840  212.9470  148.5920 C   0  0  0  0  0  0  0  0  0  0  0  0
  161.8110  209.5850  149.9210 C   0  0  1  0  0  3  0  0  0  0  0  0
  160.2860  212.7490  150.5780 N   0  0  0  0  0  0  0  0  0  0  0  0
  159.2470  212.8780  151.5620 C   0  0  0  0  0  0  0  0  0  0  0  0
  158.8670  211.8790  152.2290 O   0  0  0  0  0  0  0  0  0  0  0  0
  158.6010  214.1420  151.7430 N   0  0  0  0  0  2  0  0  0  0  0  0
  161.7930  211.8400  149.2230 C   0  0  0  0  0  0  0  0  0  0  0  0
  161.2090  211.7690  150.4270 C   0  0  0  0  0  0  0  0  0  0  0  0
  160.2420  206.7430  154.3510 C   0  0  0  0  0  2  0  0  0  0  0  0
  161.4540  210.3130  154.5850 C   0  0  0  0  0  2  0  0  0  0  0  0
  161.5460  210.9550  153.2990 C   0  0  0  0  0  2  0  0  0  0  0  0
  160.6540  208.1090  153.9980 C   0  0  1  0  0  3  0  0  0  0  0  0
  161.1490  210.1020  152.3440 C   0  0  0  0  0  0  0  0  0  0  0  0
  160.6700  207.8300  155.0450 C   0  0  0  0  0  0  0  0  0  0  0  0
  160.9780  209.0060  154.2340 C   0  0  0  0  0  2  0  0  0  0  0  0
  160.7420  208.7380  152.7810 C   0  0  0  0  0  3  0  0  0  0  0  0
  160.7950  207.7600  156.4670 O   0  0  0  0  0  0  0  0  0  0  0  0
  160.1460  206.7710  157.2530 C   0  0  0  0  0  1  0  0  0  0  0  0
  161.5420  213.3450  147.2380 C   0  0  0  0  0  0  0  0  0  0  0  0
  161.7210  213.6990  146.1000 C   0  0  0  0  0  0  0  0  0  0  0  0
  161.8950  214.1180  144.8060 O   0  0  0  0  0  0  0  0  0  0  0  0
  159.4460  213.1550  142.4880 C   0  0  0  0  0  2  0  0  0  0  0  0
  162.5070  213.1290  142.7220 C   0  0  0  0  0  3  0  0  0  0  0  0
  161.6100  213.3040  143.7030 C   0  0  0  0  0  0  0  0  0  0  0  0
  159.7800  212.4060  141.1990 C   0  0  2  0  0  3  0  0  0  0  0  0
  161.1540  212.8070  140.6440 C   0  0  1  0  0  3  0  0  0  0  0  0
  162.2740  212.2660  141.5220 C   0  0  0  0  0  2  0  0  0  0  0  0
  160.2720  212.6350  143.6560 C   0  0  0  0  0  2  0  0  0  0  0  0
  161.3210  212.2850  139.3590 O   0  0  0  0  0  1  0  0  0  0  0  0
  158.6820  212.6890  140.1830 C   0  0  0  0  0  2  0  0  0  0  0  0
  157.7060  213.7230  140.7280 C   0  0  0  0  0  2  0  0  0  0  0  0
  156.4970  213.8270  139.8590 C   0  0  0  0  0  0  0  0  0  0  0  0
  155.3500  213.8730  140.3790 O   0  0  0  0  0  1  0  0  0  0  0  0
  156.6370  213.9070  138.4780 O   0  0  0  0  0  0  0  0  0  0  0  0
  157.5420  214.3330  152.7190 C   0  0  0  0  0  2  0  0  0  0  0  0
  157.8410  213.5070  153.9560 C   0  0  0  0  0  2  0  0  0  0  0  0
  155.8840  212.6040  155.2090 C   0  0  0  0  0  1  0  0  0  0  0  0
  156.8210  213.7920  155.0400 C   0  0  0  0  0  2  0  0  0  0  0  0
  163.0070  208.8940  150.4250 N   0  0  0  0  0  2  0  0  0  0  0  0
  162.9220  207.4550  150.1840 C   0  0  0  0  0  2  0  0  0  0  0  0
  162.5210  206.7420  151.4640 C   0  0  0  0  0  2  0  0  0  0  0  0
  161.6980  205.5340  151.1410 C   0  0  0  0  0  0  0  0  0  0  0  0
  162.1370  204.4200  151.3890 O   0  0  0  0  0  0  0  0  0  0  0  0
  160.2960  205.6680  150.6160 C   0  0  0  0  0  2  0  0  0  0  0  0
  160.1700  205.1650  149.1830 C   0  0  0  0  0  2  0  0  0  0  0  0
  160.8320  206.1330  148.2080 C   0  0  0  0  0  2  0  0  0  0  0  0
  161.7110  205.4360  147.3320 O   0  0  0  0  0  0  0  0  0  0  0  0
  160.9540  204.7000  145.2750 O   0  0  0  0  0  0  0  0  0  0  0  0
  161.2760  204.4270  146.4660 C   0  0  0  0  0  0  0  0  0  0  0  0
  161.0880  200.4190  147.8680 C   0  0  0  0  0  3  0  0  0  0  0  0
  161.1880  201.2600  150.1570 N   0  0  0  0  0  1  0  0  0  0  0  0
  161.0690  200.6680  146.4950 C   0  0  0  0  0  0  0  0  0  0  0  0
  161.2150  202.7710  148.2790 N   0  0  0  0  0  0  0  0  0  0  0  0
  161.0000  199.6110  145.5960 O   0  0  0  0  0  1  0  0  0  0  0  0
  161.1630  201.4970  148.7550 C   0  0  0  0  0  0  0  0  0  0  0  0
  161.1980  203.0400  146.9430 C   0  0  0  0  0  0  0  0  0  0  0  0
  161.1220  201.9830  146.0270 C   0  0  0  0  0  3  0  0  0  0  0  0
  1 16  1  0  0  0  0
  2 10  1  0  0  0  0
  2  5  1  0  0  0  0
  3  6  1  0  0  0  0
  4 10  1  0  0  0  0
  4  3  2  0  0  0  0
  5 42  1  1  0  0  0
  5  1  1  0  0  0  0
  6  7  1  0  0  0  0
  7  9  1  0  0  0  0
  7  8  2  0  0  0  0
  9 38  1  0  0  0  0
 10 11  2  0  0  0  0
 11  6  1  0  0  0  0
 11  1  1  0  0  0  0
 12 17  2  0  0  0  0
 14 13  1  0  0  0  0
 15 18  1  0  0  0  0
 15 17  1  6  0  0  0
 16 19  2  0  0  0  0
 16 14  1  0  0  0  0
 17 20  1  0  0  0  0
 18 13  1  0  0  0  0
 19 15  1  0  0  0  0
 20 21  1  0  0  0  0
 22  4  1  0  0  0  0
 23 22  3  0  0  0  0
 24 23  1  0  0  0  0
 25 31  1  0  0  0  0
 26 27  2  0  0  0  0
 27 24  1  0  0  0  0
 28 33  1  6  0  0  0
 28 25  1  0  0  0  0
 29 32  1  6  0  0  0
 29 28  1  0  0  0  0
 29 30  1  0  0  0  0
 30 26  1  0  0  0  0
 31 27  1  0  0  0  0
 33 34  1  0  0  0  0
 35 36  1  0  0  0  0
 35 34  1  0  0  0  0
 37 35  2  0  0  0  0
 38 39  1  0  0  0  0
 39 41  1  0  0  0  0
 41 40  1  0  0  0  0
 43 42  1  0  0  0  0
 43 44  1  0  0  0  0
 45 46  2  0  0  0  0
 45 44  1  0  0  0  0
 47 45  1  0  0  0  0
 48 47  1  0  0  0  0
 49 48  1  0  0  0  0
 50 49  1  0  0  0  0
 51 52  2  0  0  0  0
 52 59  1  0  0  0  0
 52 50  1  0  0  0  0
 53 58  1  0  0  0  0
 55 53  2  0  0  0  0
 56 58  2  0  0  0  0
 57 55  1  0  0  0  0
 58 54  1  0  0  0  0
 59 56  1  0  0  0  0
 60 55  1  0  0  0  0
 60 59  2  0  0  0  0
M  END
>  <MODEL>
2

>  <REMARK>
 VINA RESULT:      -4.8      2.792     10.924
  Name = 
  21 active torsions:
  status: ('A' for Active; 'I' for Inactive)
    1  A    between atoms: C_1  and  C_32
    2  A    between atoms: C_1  and  C_58
    3  A    between atoms: O_4  and  C_51
    4  A    between atoms: N_5  and  C_15
    5  A    between atoms: N_5  and  C_31
    6  A    between atoms: C_6  and  C_12
    7  A    between atoms: N_7  and  C_42
    8  A    between atoms: O_13  and  C_37
    9  A    between atoms: O_13  and  C_38
   10  A    between atoms: C_14  and  C_59
   11  A    between atoms: C_16  and  O_39
   12  A    between atoms: C_23  and  O_39
   13  A    between atoms: C_24  and  C_33
   14  A    between atoms: C_27  and  C_41
   15  A    between atoms: N_28  and  C_56
   16  A    between atoms: C_31  and  C_58
   17  A    between atoms: C_32  and  C_44
   18  A    between atoms: C_33  and  C_41
   19  A    between atoms: C_37  and  C_53
   20  A    between atoms: C_38  and  C_44
   21  A    between atoms: C_56  and  C_59
                            x       y       z     vdW  Elec       q    Type
                         _______ _______ _______ _____ _____    ______ ____

>  <TORSDO>
F 21

$$$$
=
 OpenBabel11052411123D

 60 64  0  0  1  0  0  0  0  0999 V2000
  161.0320  205.2750  147.2960 N   0  0  0  0  0  0  0  0  0  0  0  0
  161.2530  207.4790  146.2770 C   0  0  0  0  0  2  0  0  0  0  0  0
  161.8630  207.5710  149.8140 C   0  0  0  0  0  3  0  0  0  0  0  0
  162.0260  208.2810  148.6310 C   0  0  0  0  0  0  0  0  0  0  0  0
  160.7380  206.0280  146.0590 C   0  0  1  0  0  3  0  0  0  0  0  0
  161.6270  206.2710  149.5120 N   0  0  0  0  0  0  0  0  0  0  0  0
  161.1500  205.3100  150.4670 C   0  0  0  0  0  0  0  0  0  0  0  0
  160.4230  204.3480  150.1000 O   0  0  0  0  0  0  0  0  0  0  0  0
  161.4580  205.4810  151.8530 N   0  0  0  0  0  2  0  0  0  0  0  0
  161.9040  207.3770  147.6050 C   0  0  0  0  0  0  0  0  0  0  0  0
  161.7080  206.1750  148.1630 C   0  0  0  0  0  0  0  0  0  0  0  0
  160.0890  200.9030  144.8050 C   0  0  0  0  0  2  0  0  0  0  0  0
  161.7480  201.7860  148.0820 C   0  0  0  0  0  2  0  0  0  0  0  0
  161.7490  203.2030  148.3420 C   0  0  0  0  0  2  0  0  0  0  0  0
  160.6140  201.6590  145.9510 C   0  0  1  0  0  3  0  0  0  0  0  0
  161.1290  203.8410  147.3390 C   0  0  0  0  0  0  0  0  0  0  0  0
  160.7330  200.5830  145.9570 C   0  0  0  0  0  0  0  0  0  0  0  0
  161.0740  201.7130  146.8170 C   0  0  0  0  0  2  0  0  0  0  0  0
  160.6190  203.0060  146.2170 C   0  0  0  0  0  3  0  0  0  0  0  0
  161.0350  199.2150  146.2450 O   0  0  0  0  0  0  0  0  0  0  0  0
  161.3330  198.2600  145.2370 C   0  0  0  0  0  1  0  0  0  0  0  0
  162.1340  209.7060  148.4960 C   0  0  0  0  0  0  0  0  0  0  0  0
  162.1850  210.9060  148.3970 C   0  0  0  0  0  0  0  0  0  0  0  0
  162.2100  212.2730  148.2960 O   0  0  0  0  0  0  0  0  0  0  0  0
  161.9170  213.4190  144.9950 C   0  0  0  0  0  2  0  0  0  0  0  0
  160.0780  212.8380  147.3840 C   0  0  0  0  0  3  0  0  0  0  0  0
  161.4120  212.9800  147.3890 C   0  0  0  0  0  0  0  0  0  0  0  0
  160.5960  213.9120  144.4080 C   0  0  2  0  0  3  0  0  0  0  0  0
  159.3930  213.1660  145.0010 C   0  0  1  0  0  3  0  0  0  0  0  0
  159.1650  213.5700  146.4520 C   0  0  0  0  0  2  0  0  0  0  0  0
  162.0950  213.9010  146.4280 C   0  0  0  0  0  2  0  0  0  0  0  0
  158.2360  213.4730  144.2810 O   0  0  0  0  0  1  0  0  0  0  0  0
  160.6490  213.7350  142.8960 C   0  0  0  0  0  2  0  0  0  0  0  0
  161.9690  213.1010  142.4810 C   0  0  0  0  0  2  0  0  0  0  0  0
  161.7390  211.8310  141.7300 C   0  0  0  0  0  0  0  0  0  0  0  0
  162.6340  211.3810  140.9660 O   0  0  0  0  0  0  0  0  0  0  0  0
  160.5520  211.1280  141.8990 O   0  0  0  0  0  1  0  0  0  0  0  0
  161.0000  204.5450  152.8650 C   0  0  0  0  0  2  0  0  0  0  0  0
  160.8130  205.2760  154.1810 C   0  0  0  0  0  2  0  0  0  0  0  0
  161.2110  207.5290  155.1700 C   0  0  0  0  0  1  0  0  0  0  0  0
  160.7150  206.7700  153.9470 C   0  0  0  0  0  2  0  0  0  0  0  0
  161.3590  205.4150  144.8770 N   0  0  0  0  0  2  0  0  0  0  0  0
  161.4480  206.3720  143.7760 C   0  0  0  0  0  2  0  0  0  0  0  0
  161.3660  205.6380  142.4480 C   0  0  0  0  0  2  0  0  0  0  0  0
  161.9870  206.4660  141.3660 C   0  0  0  0  0  0  0  0  0  0  0  0
  162.9670  206.0420  140.7690 O   0  0  0  0  0  0  0  0  0  0  0  0
  161.3660  207.7620  140.9260 C   0  0  0  0  0  2  0  0  0  0  0  0
  161.9100  208.2320  139.5830 C   0  0  0  0  0  2  0  0  0  0  0  0
  160.8700  208.0490  138.4830 C   0  0  0  0  0  2  0  0  0  0  0  0
  160.9550  209.1080  137.5340 O   0  0  0  0  0  0  0  0  0  0  0  0
  161.9850  211.1640  137.7680 O   0  0  0  0  0  0  0  0  0  0  0  0
  160.9470  210.4580  137.9030 C   0  0  0  0  0  0  0  0  0  0  0  0
  157.3790  212.1890  139.4320 C   0  0  0  0  0  3  0  0  0  0  0  0
  156.2360  210.0660  139.0510 N   0  0  0  0  0  1  0  0  0  0  0  0
  158.5420  212.9570  139.3670 C   0  0  0  0  0  0  0  0  0  0  0  0
  158.5720  210.3290  138.5170 N   0  0  0  0  0  0  0  0  0  0  0  0
  158.5280  214.2800  139.7910 O   0  0  0  0  0  1  0  0  0  0  0  0
  157.4150  210.8610  138.9960 C   0  0  0  0  0  0  0  0  0  0  0  0
  159.7210  211.0600  138.4440 C   0  0  0  0  0  0  0  0  0  0  0  0
  159.7200  212.3930  138.8740 C   0  0  0  0  0  3  0  0  0  0  0  0
  1 16  1  0  0  0  0
  1 11  1  0  0  0  0
  2 10  1  0  0  0  0
  4  3  2  0  0  0  0
  5 42  1  6  0  0  0
  5  2  1  0  0  0  0
  5  1  1  0  0  0  0
  6  3  1  0  0  0  0
  6  7  1  0  0  0  0
  7  9  1  0  0  0  0
  8  7  2  0  0  0  0
  9 38  1  0  0  0  0
 10 11  2  0  0  0  0
 10  4  1  0  0  0  0
 11  6  1  0  0  0  0
 12 17  2  0  0  0  0
 13 14  1  0  0  0  0
 15 17  1  6  0  0  0
 15 19  1  0  0  0  0
 15 18  1  0  0  0  0
 16 14  1  0  0  0  0
 17 20  1  0  0  0  0
 18 13  1  0  0  0  0
 19 16  2  0  0  0  0
 21 20  1  0  0  0  0
 22  4  1  0  0  0  0
 23 22  3  0  0  0  0
 24 23  1  0  0  0  0
 25 31  1  0  0  0  0
 26 27  2  0  0  0  0
 27 24  1  0  0  0  0
 28 33  1  6  0  0  0
 28 25  1  0  0  0  0
 28 29  1  0  0  0  0
 29 32  1  6  0  0  0
 29 30  1  0  0  0  0
 30 26  1  0  0  0  0
 31 27  1  0  0  0  0
 34 33  1  0  0  0  0
 35 37  1  0  0  0  0
 35 34  1  0  0  0  0
 36 35  2  0  0  0  0
 38 39  1  0  0  0  0
 41 39  1  0  0  0  0
 41 40  1  0  0  0  0
 43 42  1  0  0  0  0
 44 43  1  0  0  0  0
 45 44  1  0  0  0  0
 46 45  2  0  0  0  0
 47 45  1  0  0  0  0
 48 47  1  0  0  0  0
 49 48  1  0  0  0  0
 50 52  1  0  0  0  0
 50 49  1  0  0  0  0
 51 52  2  0  0  0  0
 52 59  1  0  0  0  0
 55 53  1  0  0  0  0
 55 57  1  0  0  0  0
 56 58  1  0  0  0  0
 58 54  1  0  0  0  0
 58 53  2  0  0  0  0
 59 56  2  0  0  0  0
 59 60  1  0  0  0  0
 60 55  2  0  0  0  0
M  END
>  <MODEL>
3

>  <REMARK>
 VINA RESULT:      -3.6      3.115      7.170
  Name = 
  21 active torsions:
  status: ('A' for Active; 'I' for Inactive)
    1  A    between atoms: C_1  and  C_32
    2  A    between atoms: C_1  and  C_58
    3  A    between atoms: O_4  and  C_51
    4  A    between atoms: N_5  and  C_15
    5  A    between atoms: N_5  and  C_31
    6  A    between atoms: C_6  and  C_12
    7  A    between atoms: N_7  and  C_42
    8  A    between atoms: O_13  and  C_37
    9  A    between atoms: O_13  and  C_38
   10  A    between atoms: C_14  and  C_59
   11  A    between atoms: C_16  and  O_39
   12  A    between atoms: C_23  and  O_39
   13  A    between atoms: C_24  and  C_33
   14  A    between atoms: C_27  and  C_41
   15  A    between atoms: N_28  and  C_56
   16  A    between atoms: C_31  and  C_58
   17  A    between atoms: C_32  and  C_44
   18  A    between atoms: C_33  and  C_41
   19  A    between atoms: C_37  and  C_53
   20  A    between atoms: C_38  and  C_44
   21  A    between atoms: C_56  and  C_59
                            x       y       z     vdW  Elec       q    Type
                         _______ _______ _______ _____ _____    ______ ____

>  <TORSDO>
F 21

$$$$
=
 OpenBabel11052411123D

 60 64  0  0  1  0  0  0  0  0999 V2000
  161.6670  206.0760  148.0690 N   0  0  0  0  0  0  0  0  0  0  0  0
  161.9810  207.4080  146.0520 C   0  0  0  0  0  2  0  0  0  0  0  0
  161.1600  203.9980  145.2890 C   0  0  0  0  0  3  0  0  0  0  0  0
  161.2310  205.2780  144.7550 C   0  0  0  0  0  0  0  0  0  0  0  0
  162.1970  207.3690  147.5910 C   0  0  1  0  0  3  0  0  0  0  0  0
  161.1390  204.0900  146.6420 N   0  0  0  0  0  0  0  0  0  0  0  0
  161.3380  202.9680  147.5160 C   0  0  0  0  0  0  0  0  0  0  0  0
  161.8720  203.1230  148.6470 O   0  0  0  0  0  0  0  0  0  0  0  0
  160.9770  201.6570  147.0730 N   0  0  0  0  0  2  0  0  0  0  0  0
  161.2320  206.1500  145.8150 C   0  0  0  0  0  0  0  0  0  0  0  0
  161.1340  205.4140  146.9300 C   0  0  0  0  0  0  0  0  0  0  0  0
  162.0260  207.7090  152.9070 C   0  0  0  0  0  2  0  0  0  0  0  0
  160.1410  204.9300  151.1780 C   0  0  0  0  0  2  0  0  0  0  0  0
  160.3970  204.8810  149.7610 C   0  0  0  0  0  2  0  0  0  0  0  0
  161.5120  206.7930  151.8790 C   0  0  1  0  0  3  0  0  0  0  0  0
  161.2700  205.8430  149.4310 C   0  0  0  0  0  0  0  0  0  0  0  0
  161.1730  206.6510  152.8990 C   0  0  0  0  0  0  0  0  0  0  0  0
  160.9560  206.0350  151.5920 C   0  0  0  0  0  2  0  0  0  0  0  0
  161.7490  206.7290  150.5290 C   0  0  0  0  0  3  0  0  0  0  0  0
  160.5580  206.2250  154.1170 O   0  0  0  0  0  0  0  0  0  0  0  0
  160.1530  207.1290  155.1350 C   0  0  0  0  0  1  0  0  0  0  0  0
  161.4320  205.6190  143.3760 C   0  0  0  0  0  0  0  0  0  0  0  0
  161.6380  205.8850  142.2180 C   0  0  0  0  0  0  0  0  0  0  0  0
  161.9020  206.1700  140.9040 O   0  0  0  0  0  0  0  0  0  0  0  0
  160.2790  208.4110  138.7480 C   0  0  0  0  0  2  0  0  0  0  0  0
  162.1430  208.5280  141.1840 C   0  0  0  0  0  3  0  0  0  0  0  0
  161.8890  207.4740  140.3950 C   0  0  0  0  0  0  0  0  0  0  0  0
  160.5030  209.9210  138.8080 C   0  0  2  0  0  3  0  0  0  0  0  0
  160.7820  210.4010  140.2390 C   0  0  1  0  0  3  0  0  0  0  0  0
  162.1580  209.9450  140.7060 C   0  0  0  0  0  2  0  0  0  0  0  0
  161.5860  207.6530  138.9400 C   0  0  0  0  0  2  0  0  0  0  0  0
  160.7480  211.7960  140.2910 O   0  0  0  0  0  1  0  0  0  0  0  0
  159.2700  210.6090  138.2380 C   0  0  0  0  0  2  0  0  0  0  0  0
  158.0050  210.0470  138.8710 C   0  0  0  0  0  2  0  0  0  0  0  0
  156.8190  210.8880  138.5340 C   0  0  0  0  0  0  0  0  0  0  0  0
  156.7600  211.4760  137.4220 O   0  0  0  0  0  0  0  0  0  0  0  0
  155.7650  210.9970  139.4340 O   0  0  0  0  0  1  0  0  0  0  0  0
  161.1570  200.4840  147.9100 C   0  0  0  0  0  2  0  0  0  0  0  0
  161.8020  199.3770  147.0970 C   0  0  0  0  0  2  0  0  0  0  0  0
  161.1710  197.9530  145.1510 C   0  0  0  0  0  1  0  0  0  0  0  0
  161.2600  199.3770  145.6820 C   0  0  0  0  0  2  0  0  0  0  0  0
  161.5460  208.5110  148.2480 N   0  0  0  0  0  2  0  0  0  0  0  0
  162.5220  209.5410  148.5990 C   0  0  0  0  0  2  0  0  0  0  0  0
  161.8250  210.6910  149.3060 C   0  0  0  0  0  2  0  0  0  0  0  0
  162.0830  211.9720  148.5760 C   0  0  0  0  0  0  0  0  0  0  0  0
  162.7840  211.9650  147.5740 O   0  0  0  0  0  0  0  0  0  0  0  0
  161.4090  213.2500  148.9880 C   0  0  0  0  0  2  0  0  0  0  0  0
  160.0480  213.4220  148.3250 C   0  0  0  0  0  2  0  0  0  0  0  0
  158.9700  213.7110  149.3640 C   0  0  0  0  0  2  0  0  0  0  0  0
  159.2130  212.9710  150.5560 O   0  0  0  0  0  0  0  0  0  0  0  0
  157.3490  213.7740  151.6630 O   0  0  0  0  0  0  0  0  0  0  0  0
  158.3940  213.0640  151.6860 C   0  0  0  0  0  0  0  0  0  0  0  0
  159.3960  210.9620  155.2410 C   0  0  0  0  0  3  0  0  0  0  0  0
  157.0410  211.0070  155.8810 N   0  0  0  0  0  1  0  0  0  0  0  0
  160.4010  211.2890  154.3300 C   0  0  0  0  0  0  0  0  0  0  0  0
  157.7820  211.9960  153.8110 N   0  0  0  0  0  0  0  0  0  0  0  0
  161.7190  210.9380  154.5920 O   0  0  0  0  0  1  0  0  0  0  0  0
  158.0770  211.3280  154.9600 C   0  0  0  0  0  0  0  0  0  0  0  0
  158.7470  212.3270  152.9060 C   0  0  0  0  0  0  0  0  0  0  0  0
  160.0790  211.9720  153.1560 C   0  0  0  0  0  3  0  0  0  0  0  0
  1 16  1  0  0  0  0
  2  5  1  0  0  0  0
  3  6  1  0  0  0  0
  4  3  2  0  0  0  0
  4 10  1  0  0  0  0
  5  1  1  0  0  0  0
  5 42  1  1  0  0  0
  6 11  1  0  0  0  0
  6  7  1  0  0  0  0
  7  8  2  0  0  0  0
  9  7  1  0  0  0  0
  9 38  1  0  0  0  0
 10  2  1  0  0  0  0
 10 11  2  0  0  0  0
 11  1  1  0  0  0  0
 13 18  1  0  0  0  0
 14 13  1  0  0  0  0
 15 17  1  6  0  0  0
 16 14  1  0  0  0  0
 16 19  2  0  0  0  0
 17 12  2  0  0  0  0
 17 20  1  0  0  0  0
 18 15  1  0  0  0  0
 19 15  1  0  0  0  0
 20 21  1  0  0  0  0
 22  4  1  0  0  0  0
 23 22  3  0  0  0  0
 24 23  1  0  0  0  0
 25 28  1  0  0  0  0
 25 31  1  0  0  0  0
 27 24  1  0  0  0  0
 27 26  2  0  0  0  0
 28 33  1  1  0  0  0
 28 29  1  0  0  0  0
 29 32  1  6  0  0  0
 29 30  1  0  0  0  0
 30 26  1  0  0  0  0
 31 27  1  0  0  0  0
 33 34  1  0  0  0  0
 35 34  1  0  0  0  0
 35 37  1  0  0  0  0
 36 35  2  0  0  0  0
 39 38  1  0  0  0  0
 40 41  1  0  0  0  0
 41 39  1  0  0  0  0
 42 43  1  0  0  0  0
 43 44  1  0  0  0  0
 45 47  1  0  0  0  0
 45 44  1  0  0  0  0
 46 45  2  0  0  0  0
 48 47  1  0  0  0  0
 48 49  1  0  0  0  0
 49 50  1  0  0  0  0
 50 52  1  0  0  0  0
 51 52  2  0  0  0  0
 52 59  1  0  0  0  0
 55 57  1  0  0  0  0
 55 53  2  0  0  0  0
 56 58  2  0  0  0  0
 58 53  1  0  0  0  0
 58 54  1  0  0  0  0
 59 60  2  0  0  0  0
 59 56  1  0  0  0  0
 60 55  1  0  0  0  0
M  END
>  <MODEL>
4

>  <REMARK>
 VINA RESULT:      -3.4      2.770     10.502
  Name = 
  21 active torsions:
  status: ('A' for Active; 'I' for Inactive)
    1  A    between atoms: C_1  and  C_32
    2  A    between atoms: C_1  and  C_58
    3  A    between atoms: O_4  and  C_51
    4  A    between atoms: N_5  and  C_15
    5  A    between atoms: N_5  and  C_31
    6  A    between atoms: C_6  and  C_12
    7  A    between atoms: N_7  and  C_42
    8  A    between atoms: O_13  and  C_37
    9  A    between atoms: O_13  and  C_38
   10  A    between atoms: C_14  and  C_59
   11  A    between atoms: C_16  and  O_39
   12  A    between atoms: C_23  and  O_39
   13  A    between atoms: C_24  and  C_33
   14  A    between atoms: C_27  and  C_41
   15  A    between atoms: N_28  and  C_56
   16  A    between atoms: C_31  and  C_58
   17  A    between atoms: C_32  and  C_44
   18  A    between atoms: C_33  and  C_41
   19  A    between atoms: C_37  and  C_53
   20  A    between atoms: C_38  and  C_44
   21  A    between atoms: C_56  and  C_59
                            x       y       z     vdW  Elec       q    Type
                         _______ _______ _______ _____ _____    ______ ____

>  <TORSDO>
F 21

$$$$
=
 OpenBabel11052411123D

 60 64  0  0  1  0  0  0  0  0999 V2000
  161.9380  206.2690  150.6570 N   0  0  0  0  0  0  0  0  0  0  0  0
  162.0930  208.6370  151.2120 C   0  0  0  0  0  2  0  0  0  0  0  0
  161.8540  208.1060  147.6700 C   0  0  0  0  0  3  0  0  0  0  0  0
  161.7340  209.0650  148.6690 C   0  0  0  0  0  0  0  0  0  0  0  0
  162.2670  207.1930  151.7610 C   0  0  1  0  0  3  0  0  0  0  0  0
  161.7790  206.8760  148.2350 N   0  0  0  0  0  0  0  0  0  0  0  0
  162.1300  205.6650  147.5470 C   0  0  0  0  0  0  0  0  0  0  0  0
  162.5990  204.6810  148.1790 O   0  0  0  0  0  0  0  0  0  0  0  0
  161.9980  205.6000  146.1240 N   0  0  0  0  0  2  0  0  0  0  0  0
  161.5640  208.3870  149.8500 C   0  0  0  0  0  0  0  0  0  0  0  0
  161.5530  207.0800  149.5560 C   0  0  0  0  0  0  0  0  0  0  0  0
  160.0260  202.0480  148.4810 C   0  0  0  0  0  2  0  0  0  0  0  0
  161.3100  202.9080  151.9280 C   0  0  0  0  0  2  0  0  0  0  0  0
  161.7390  204.2790  152.0360 C   0  0  0  0  0  2  0  0  0  0  0  0
  160.5730  202.7850  149.6290 C   0  0  1  0  0  3  0  0  0  0  0  0
  161.5440  204.9020  150.8650 C   0  0  0  0  0  0  0  0  0  0  0  0
  160.3240  201.7400  149.7710 C   0  0  0  0  0  0  0  0  0  0  0  0
  160.8720  202.8370  150.5630 C   0  0  0  0  0  2  0  0  0  0  0  0
  160.9810  204.0900  149.7510 C   0  0  0  0  0  3  0  0  0  0  0  0
  160.1000  200.4130  150.2540 O   0  0  0  0  0  0  0  0  0  0  0  0
  160.9890  199.7550  151.1440 C   0  0  0  0  0  1  0  0  0  0  0  0
  161.9180  210.4800  148.5220 C   0  0  0  0  0  0  0  0  0  0  0  0
  162.0630  211.6650  148.3590 C   0  0  0  0  0  0  0  0  0  0  0  0
  162.2180  213.0100  148.1400 O   0  0  0  0  0  0  0  0  0  0  0  0
  162.6190  213.8190  144.7520 C   0  0  0  0  0  2  0  0  0  0  0  0
  160.3390  213.6110  146.7960 C   0  0  0  0  0  3  0  0  0  0  0  0
  161.6570  213.6670  147.0390 C   0  0  0  0  0  0  0  0  0  0  0  0
  161.4710  214.3300  143.8840 C   0  0  2  0  0  3  0  0  0  0  0  0
  160.1230  213.7290  144.3080 C   0  0  1  0  0  3  0  0  0  0  0  0
  159.6720  214.2970  145.6470 C   0  0  0  0  0  2  0  0  0  0  0  0
  162.5760  214.4360  146.1430 C   0  0  0  0  0  2  0  0  0  0  0  0
  159.1450  214.0320  143.3580 O   0  0  0  0  0  1  0  0  0  0  0  0
  161.7810  213.9920  142.4320 C   0  0  0  0  0  2  0  0  0  0  0  0
  162.2470  212.5480  142.3090 C   0  0  0  0  0  2  0  0  0  0  0  0
  161.9590  212.0080  140.9480 C   0  0  0  0  0  0  0  0  0  0  0  0
  162.8580  212.0170  140.0650 O   0  0  0  0  0  0  0  0  0  0  0  0
  160.7110  211.4650  140.6640 O   0  0  0  0  0  1  0  0  0  0  0  0
  162.3410  204.4050  145.3730 C   0  0  0  0  0  2  0  0  0  0  0  0
  161.3570  203.2990  145.7070 C   0  0  0  0  0  2  0  0  0  0  0  0
  159.6720  201.8280  144.6090 C   0  0  0  0  0  1  0  0  0  0  0  0
  160.2640  203.2300  144.6610 C   0  0  0  0  0  2  0  0  0  0  0  0
  161.4210  206.9680  152.9420 N   0  0  0  0  0  2  0  0  0  0  0  0
  160.8950  208.2290  153.4590 C   0  0  0  0  0  2  0  0  0  0  0  0
  161.5100  208.5260  154.8160 C   0  0  0  0  0  2  0  0  0  0  0  0
  160.6670  209.5180  155.5550 C   0  0  0  0  0  0  0  0  0  0  0  0
  161.2060  210.4020  156.2060 O   0  0  0  0  0  0  0  0  0  0  0  0
  159.1700  209.5140  155.4250 C   0  0  0  0  0  2  0  0  0  0  0  0
  158.4800  209.8940  156.7300 C   0  0  0  0  0  2  0  0  0  0  0  0
  159.0160  211.2190  157.2600 C   0  0  0  0  0  2  0  0  0  0  0  0
  158.2740  212.3100  156.7250 O   0  0  0  0  0  0  0  0  0  0  0  0
  159.4520  214.2790  156.4430 O   0  0  0  0  0  0  0  0  0  0  0  0
  158.8520  213.2980  155.9210 C   0  0  0  0  0  0  0  0  0  0  0  0
  158.6440  213.0030  151.6850 C   0  0  0  0  0  3  0  0  0  0  0  0
  160.6210  211.5720  151.7310 N   0  0  0  0  0  1  0  0  0  0  0  0
  157.6940  213.7640  152.3690 C   0  0  0  0  0  0  0  0  0  0  0  0
  159.6820  212.4540  153.7680 N   0  0  0  0  0  0  0  0  0  0  0  0
  156.6960  214.4270  151.6650 O   0  0  0  0  0  1  0  0  0  0  0  0
  159.6420  212.3480  152.4120 C   0  0  0  0  0  0  0  0  0  0  0  0
  158.7650  213.1910  154.4580 C   0  0  0  0  0  0  0  0  0  0  0  0
  157.7510  213.8590  153.7600 C   0  0  0  0  0  3  0  0  0  0  0  0
  1 16  1  0  0  0  0
  1  5  1  0  0  0  0
  2  5  1  0  0  0  0
  3  6  1  0  0  0  0
  3  4  2  0  0  0  0
  4 10  1  0  0  0  0
  5 42  1  1  0  0  0
  6 11  1  0  0  0  0
  7  8  2  0  0  0  0
  7  6  1  0  0  0  0
  9  7  1  0  0  0  0
 10  2  1  0  0  0  0
 11 10  2  0  0  0  0
 11  1  1  0  0  0  0
 12 17  2  0  0  0  0
 13 14  1  0  0  0  0
 15 19  1  0  0  0  0
 15 17  1  6  0  0  0
 15 18  1  0  0  0  0
 16 14  1  0  0  0  0
 17 20  1  0  0  0  0
 18 13  1  0  0  0  0
 19 16  2  0  0  0  0
 20 21  1  0  0  0  0
 22  4  1  0  0  0  0
 23 22  3  0  0  0  0
 24 23  1  0  0  0  0
 25 31  1  0  0  0  0
 26 27  2  0  0  0  0
 27 24  1  0  0  0  0
 28 33  1  6  0  0  0
 28 29  1  0  0  0  0
 28 25  1  0  0  0  0
 29 32  1  6  0  0  0
 29 30  1  0  0  0  0
 30 26  1  0  0  0  0
 31 27  1  0  0  0  0
 34 33  1  0  0  0  0
 35 34  1  0  0  0  0
 36 35  2  0  0  0  0
 37 35  1  0  0  0  0
 38 39  1  0  0  0  0
 38  9  1  0  0  0  0
 40 41  1  0  0  0  0
 41 39  1  0  0  0  0
 42 43  1  0  0  0  0
 43 44  1  0  0  0  0
 44 45  1  0  0  0  0
 45 46  2  0  0  0  0
 47 45  1  0  0  0  0
 47 48  1  0  0  0  0
 48 49  1  0  0  0  0
 50 49  1  0  0  0  0
 52 51  2  0  0  0  0
 52 50  1  0  0  0  0
 53 55  2  0  0  0  0
 53 58  1  0  0  0  0
 54 58  1  0  0  0  0
 55 60  1  0  0  0  0
 56 59  1  0  0  0  0
 57 55  1  0  0  0  0
 58 56  2  0  0  0  0
 59 52  1  0  0  0  0
 60 59  2  0  0  0  0
M  END
>  <MODEL>
5

>  <REMARK>
 VINA RESULT:      -3.2      2.312      9.169
  Name = 
  21 active torsions:
  status: ('A' for Active; 'I' for Inactive)
    1  A    between atoms: C_1  and  C_32
    2  A    between atoms: C_1  and  C_58
    3  A    between atoms: O_4  and  C_51
    4  A    between atoms: N_5  and  C_15
    5  A    between atoms: N_5  and  C_31
    6  A    between atoms: C_6  and  C_12
    7  A    between atoms: N_7  and  C_42
    8  A    between atoms: O_13  and  C_37
    9  A    between atoms: O_13  and  C_38
   10  A    between atoms: C_14  and  C_59
   11  A    between atoms: C_16  and  O_39
   12  A    between atoms: C_23  and  O_39
   13  A    between atoms: C_24  and  C_33
   14  A    between atoms: C_27  and  C_41
   15  A    between atoms: N_28  and  C_56
   16  A    between atoms: C_31  and  C_58
   17  A    between atoms: C_32  and  C_44
   18  A    between atoms: C_33  and  C_41
   19  A    between atoms: C_37  and  C_53
   20  A    between atoms: C_38  and  C_44
   21  A    between atoms: C_56  and  C_59
                            x       y       z     vdW  Elec       q    Type
                         _______ _______ _______ _____ _____    ______ ____

>  <TORSDO>
F 21

$$$$
