=
 OpenBabel11052409303D

 67 73  0  0  1  0  0  0  0  0999 V2000
  161.7230  207.2340  149.8070 C   0  0  2  0  0  0  0  0  0  0  0  0
  163.8060  207.1360  151.0490 O   0  0  0  0  0  0  0  0  0  0  0  0
  160.3850  206.5560  151.5390 C   0  0  0  0  0  2  0  0  0  0  0  0
  162.5840  207.0030  151.0130 C   0  0  0  0  0  0  0  0  0  0  0  0
  161.7800  206.5170  152.1350 C   0  0  1  0  0  3  0  0  0  0  0  0
  160.3990  207.2520  150.3060 O   0  0  0  0  0  0  0  0  0  0  0  0
  162.9720  205.9880  148.0710 C   0  0  0  0  0  3  0  0  0  0  0  0
  160.6710  205.2580  148.4810 C   0  0  0  0  0  1  0  0  0  0  0  0
  161.8560  206.1240  148.7810 C   0  0  0  0  0  0  0  0  0  0  0  0
  163.1210  205.0210  147.0740 O   0  0  0  0  0  0  0  0  0  0  0  0
  162.1660  204.8630  146.0690 C   0  0  0  0  0  0  0  0  0  0  0  0
  161.7170  205.9510  145.3020 C   0  0  0  0  0  3  0  0  0  0  0  0
  160.7530  205.7720  144.3090 C   0  0  0  0  0  3  0  0  0  0  0  0
  160.2270  204.5060  144.0740 C   0  0  0  0  0  3  0  0  0  0  0  0
  161.6450  203.5930  145.8140 C   0  0  0  0  0  3  0  0  0  0  0  0
  160.6630  203.4100  144.8330 C   0  0  0  0  0  0  0  0  0  0  0  0
  160.1480  202.1240  144.6120 O   0  0  0  0  0  0  0  0  0  0  0  0
  159.8430  201.2340  145.6810 C   0  0  0  0  0  2  0  0  0  0  0  0
  160.7240  199.9910  145.6170 C   0  0  0  0  0  2  0  0  0  0  0  0
  161.2130  199.6420  146.8830 O   0  0  0  0  0  0  0  0  0  0  0  0
  161.5670  200.8680  147.4620 C   0  0  0  0  0  2  0  0  0  0  0  0
  162.1790  201.8010  149.6810 C   0  0  0  0  0  2  0  0  0  0  0  0
  161.3130  202.6870  150.5580 C   0  0  2  0  0  3  0  0  0  0  0  0
  161.2430  200.8580  148.9460 C   0  0  1  0  0  3  0  0  0  0  0  0
  161.7960  202.6840  151.8720 O   0  0  0  0  0  1  0  0  0  0  0  0
  158.9740  203.1400  150.5350 O   0  0  0  0  0  1  0  0  0  0  0  0
  159.8310  201.3560  149.2070 C   0  0  0  0  0  2  0  0  0  0  0  0
  159.9130  202.1110  150.5230 C   0  0  1  0  0  3  0  0  0  0  0  0
  161.8720  207.4600  153.3290 C   0  0  0  0  0  2  0  0  0  0  0  0
  161.3780  208.7760  152.9570 N   0  0  0  0  0  2  0  0  0  0  0  0
  160.1340  211.0420  152.6570 O   0  0  0  0  0  1  0  0  0  0  0  0
  159.8040  209.6670  154.5760 C   0  0  2  0  0  3  0  0  0  0  0  0
  161.2750  209.5520  154.1820 C   0  0  2  0  0  3  0  0  0  0  0  0
  160.5290  210.8630  153.9850 C   0  0  1  0  0  3  0  0  0  0  0  0
  159.6470  209.8960  156.0790 C   0  0  1  0  0  3  0  0  0  0  0  0
  160.8930  209.4670  156.8160 C   0  0  0  0  0  1  0  0  0  0  0  0
  156.9540  211.5130  155.5110 C   0  0  0  0  0  3  0  0  0  0  0  0
  159.5770  213.6240  157.0600 C   0  0  0  0  0  2  0  0  0  0  0  0
  158.2280  213.3300  156.4820 C   0  0  0  0  0  0  0  0  0  0  0  0
  158.1220  212.0060  156.1020 C   0  0  0  0  0  0  0  0  0  0  0  0
  155.9680  213.7230  155.7440 C   0  0  0  0  0  3  0  0  0  0  0  0
  161.3890  212.0060  157.2580 O   0  0  0  0  0  0  0  0  0  0  0  0
  159.3030  211.2820  156.4140 N   0  0  0  0  0  0  0  0  0  0  0  0
  155.8700  212.3810  155.3380 C   0  0  0  0  0  3  0  0  0  0  0  0
  160.1900  212.2500  156.9690 C   0  0  0  0  0  0  0  0  0  0  0  0
  157.1580  214.2070  156.3180 C   0  0  0  0  0  3  0  0  0  0  0  0
  161.9790  208.6010  149.1470 C   0  0  0  0  0  2  0  0  0  0  0  0
  162.3580  209.9510  150.3320 S   0  0  0  0  0  0  0  0  0  0  0  0
  161.4600  211.1840  149.3510 C   0  0  0  0  0  2  0  0  0  0  0  0
  162.4160  211.9080  148.4040 C   0  0  0  0  0  2  0  0  0  0  0  0
  161.1900  213.8440  149.2160 O   0  0  0  0  0  1  0  0  0  0  0  0
  162.0450  213.3820  148.2140 C   0  0  2  0  0  3  0  0  0  0  0  0
  161.5480  213.7280  146.7900 C   0  0  1  0  0  3  0  0  0  0  0  0
  162.2500  212.9760  145.8360 O   0  0  0  0  0  0  0  0  0  0  0  0
  162.3570  213.7660  144.6890 C   0  0  1  0  0  3  0  0  0  0  0  0
  163.7670  213.6250  144.1520 C   0  0  0  0  0  2  0  0  0  0  0  0
  162.6230  212.9030  143.4610 C   0  0  2  0  0  3  0  0  0  0  0  0
  161.7880  213.0420  141.0600 C   0  0  0  0  0  0  0  0  0  0  0  0
  161.6360  213.7740  140.0440 O   0  0  0  0  0  0  0  0  0  0  0  0
  162.2160  213.6530  142.2800 N   0  0  0  0  0  2  0  0  0  0  0  0
  161.5650  211.6260  140.9900 N   0  0  0  0  0  0  0  0  0  0  0  0
  162.0780  210.8930  140.0560 C   0  0  0  0  0  3  0  0  0  0  0  0
  161.4910  208.9850  138.6010 C   0  0  0  0  0  1  0  0  0  0  0  0
  161.7830  209.4320  140.0140 C   0  0  0  0  0  2  0  0  0  0  0  0
  160.0470  213.4930  146.6110 C   0  0  0  0  0  2  0  0  0  0  0  0
  158.5600  213.0270  144.4640 C   0  0  0  0  0  1  0  0  0  0  0  0
  159.4190  214.4530  145.2030 S   0  0  0  0  0  0  0  0  0  0  0  0
  1 47  1  6  0  0  0
  1  6  1  0  0  0  0
  1  4  1  0  0  0  0
  3  5  1  0  0  0  0
  4  2  2  0  0  0  0
  4  5  1  0  0  0  0
  5 29  1  1  0  0  0
  6  3  1  0  0  0  0
  7  9  2  0  0  0  0
  8  9  1  0  0  0  0
  9  1  1  0  0  0  0
 10  7  1  0  0  0  0
 11 10  1  0  0  0  0
 12 11  2  0  0  0  0
 13 12  1  0  0  0  0
 14 13  2  0  0  0  0
 14 16  1  0  0  0  0
 15 11  1  0  0  0  0
 16 15  2  0  0  0  0
 17 16  1  0  0  0  0
 17 18  1  0  0  0  0
 19 18  1  0  0  0  0
 19 20  1  0  0  0  0
 20 21  1  0  0  0  0
 22 23  1  0  0  0  0
 23 25  1  1  0  0  0
 24 21  1  6  0  0  0
 24 27  1  0  0  0  0
 24 22  1  0  0  0  0
 27 28  1  0  0  0  0
 28 26  1  6  0  0  0
 28 23  1  0  0  0  0
 30 29  1  0  0  0  0
 32 35  1  1  0  0  0
 33 30  1  6  0  0  0
 33 32  1  0  0  0  0
 34 31  1  6  0  0  0
 34 33  1  0  0  0  0
 34 32  1  0  0  0  0
 35 43  1  0  0  0  0
 35 36  1  1  0  0  0
 37 40  1  0  0  0  0
 39 38  1  0  0  0  0
 40 43  1  0  0  0  0
 40 39  2  0  0  0  0
 41 46  2  0  0  0  0
 43 45  1  0  0  0  0
 44 37  2  0  0  0  0
 44 41  1  0  0  0  0
 45 38  1  0  0  0  0
 45 42  2  0  0  0  0
 46 39  1  0  0  0  0
 47 48  1  0  0  0  0
 49 48  1  0  0  0  0
 50 49  1  0  0  0  0
 52 50  1  0  0  0  0
 52 51  1  1  0  0  0
 53 65  1  1  0  0  0
 53 52  1  0  0  0  0
 54 53  1  0  0  0  0
 55 54  1  1  0  0  0
 56 55  1  0  0  0  0
 57 60  1  6  0  0  0
 57 56  1  0  0  0  0
 57 55  1  0  0  0  0
 58 60  1  0  0  0  0
 59 58  2  0  0  0  0
 61 58  1  0  0  0  0
 62 61  2  0  0  0  0
 63 64  1  0  0  0  0
 64 62  1  0  0  0  0
 66 67  1  0  0  0  0
 67 65  1  0  0  0  0
M  END
>  <MODEL>
1

>  <REMARK>
 VINA RESULT:      -3.2      0.000      0.000
  Name = 
  27 active torsions:
  status: ('A' for Active; 'I' for Inactive)
    1  A    between atoms: N_1  and  C_20
    2  A    between atoms: C_2  and  C_42
    3  A    between atoms: C_2  and  S_61
    4  A    between atoms: O_3  and  C_19
    5  A    between atoms: O_3  and  C_42
    6  A    between atoms: C_6  and  C_22
    7  A    between atoms: C_6  and  C_60
    8  A    between atoms: C_7  and  O_48
    9  A    between atoms: O_11  and  C_37
   10  A    between atoms: O_11  and  C_67
   11  A    between atoms: C_14  and  O_48
   12  A    between atoms: C_15  and  S_21
   13  A    between atoms: C_15  and  C_50
   14  A    between atoms: C_17  and  C_67
   15  A    between atoms: S_21  and  C_22
   16  A    between atoms: N_26  and  C_49
   17  A    between atoms: N_26  and  C_55
   18  A    between atoms: N_28  and  C_53
   19  A    between atoms: O_32  and  C_63
   20  A    between atoms: O_32  and  C_64
   21  A    between atoms: N_35  and  C_47
   22  A    between atoms: C_37  and  C_63
   23  A    between atoms: C_39  and  C_47
   24  A    between atoms: C_40  and  C_42
   25  A    between atoms: C_40  and  C_50
   26  A    between atoms: C_45  and  C_66
   27  A    between atoms: C_49  and  C_54
                            x       y       z     vdW  Elec       q    Type
                         _______ _______ _______ _____ _____    ______ ____

>  <TORSDO>
F 27

$$$$
=
 OpenBabel11052409303D

 67 73  0  0  1  0  0  0  0  0999 V2000
  161.6660  205.5750  145.2270 C   0  0  2  0  0  0  0  0  0  0  0  0
  163.7080  205.3630  146.5210 O   0  0  0  0  0  0  0  0  0  0  0  0
  160.4400  206.5710  146.8860 C   0  0  0  0  0  2  0  0  0  0  0  0
  162.5380  205.7320  146.4360 C   0  0  0  0  0  0  0  0  0  0  0  0
  161.7840  206.3190  147.5440 C   0  0  1  0  0  3  0  0  0  0  0  0
  160.5400  206.3920  145.4850 O   0  0  0  0  0  0  0  0  0  0  0  0
  159.9150  203.8520  144.9250 C   0  0  0  0  0  3  0  0  0  0  0  0
  162.2200  203.0380  145.0700 C   0  0  0  0  0  1  0  0  0  0  0  0
  161.2090  204.1420  145.0260 C   0  0  0  0  0  0  0  0  0  0  0  0
  159.4420  202.5430  144.7990 O   0  0  0  0  0  0  0  0  0  0  0  0
  160.0870  201.4760  145.4240 C   0  0  0  0  0  0  0  0  0  0  0  0
  160.4930  200.3380  144.7080 C   0  0  0  0  0  3  0  0  0  0  0  0
  161.1280  199.2780  145.3560 C   0  0  0  0  0  3  0  0  0  0  0  0
  161.3620  199.3430  146.7250 C   0  0  0  0  0  3  0  0  0  0  0  0
  160.3420  201.5410  146.7960 C   0  0  0  0  0  3  0  0  0  0  0  0
  160.9600  200.4710  147.4550 C   0  0  0  0  0  0  0  0  0  0  0  0
  161.1870  200.5590  148.8380 O   0  0  0  0  0  0  0  0  0  0  0  0
  160.8840  201.7330  149.5840 C   0  0  0  0  0  2  0  0  0  0  0  0
  162.0160  202.0690  150.5480 C   0  0  0  0  0  2  0  0  0  0  0  0
  161.5260  202.5080  151.7840 O   0  0  0  0  0  0  0  0  0  0  0  0
  160.2860  203.0830  151.4750 C   0  0  0  0  0  2  0  0  0  0  0  0
  160.7480  204.8110  153.1980 C   0  0  0  0  0  2  0  0  0  0  0  0
  161.8530  205.8510  153.1610 C   0  0  2  0  0  3  0  0  0  0  0  0
  160.3150  204.5750  151.7630 C   0  0  1  0  0  3  0  0  0  0  0  0
  161.5710  206.8860  154.0610 O   0  0  0  0  0  1  0  0  0  0  0  0
  163.2170  206.6500  151.3790 O   0  0  0  0  0  1  0  0  0  0  0  0
  161.3270  205.2870  150.8810 C   0  0  0  0  0  2  0  0  0  0  0  0
  161.8990  206.3960  151.7480 C   0  0  1  0  0  3  0  0  0  0  0  0
  162.4050  207.6330  148.0010 C   0  0  0  0  0  2  0  0  0  0  0  0
  161.4090  208.4350  148.6930 N   0  0  0  0  0  2  0  0  0  0  0  0
  161.8950  210.9880  148.5610 O   0  0  0  0  0  1  0  0  0  0  0  0
  161.0990  209.9580  150.5580 C   0  0  2  0  0  3  0  0  0  0  0  0
  162.0480  208.9690  149.8840 C   0  0  2  0  0  3  0  0  0  0  0  0
  162.3060  210.4660  149.7900 C   0  0  1  0  0  3  0  0  0  0  0  0
  161.3930  210.0830  152.0530 C   0  0  1  0  0  3  0  0  0  0  0  0
  162.8410  210.4480  152.2810 C   0  0  0  0  0  1  0  0  0  0  0  0
  160.0780  209.9140  154.9560 C   0  0  0  0  0  3  0  0  0  0  0  0
  158.9620  212.8990  153.0640 C   0  0  0  0  0  2  0  0  0  0  0  0
  159.0240  211.9730  154.2380 C   0  0  0  0  0  0  0  0  0  0  0  0
  159.8850  210.9190  154.0030 C   0  0  0  0  0  0  0  0  0  0  0  0
  158.5470  211.0930  156.4300 C   0  0  0  0  0  3  0  0  0  0  0  0
  160.1680  212.5740  150.9710 O   0  0  0  0  0  0  0  0  0  0  0  0
  160.5090  211.0360  152.7330 N   0  0  0  0  0  0  0  0  0  0  0  0
  159.4050  210.0100  156.1790 C   0  0  0  0  0  3  0  0  0  0  0  0
  159.9450  212.2100  152.1530 C   0  0  0  0  0  0  0  0  0  0  0  0
  158.3470  212.0840  155.4520 C   0  0  0  0  0  3  0  0  0  0  0  0
  162.3280  206.1070  143.9430 C   0  0  0  0  0  2  0  0  0  0  0  0
  161.3480  205.8260  142.4160 S   0  0  0  0  0  0  0  0  0  0  0  0
  162.4000  206.9290  141.4330 C   0  0  0  0  0  2  0  0  0  0  0  0
  161.7050  207.2960  140.1220 C   0  0  0  0  0  2  0  0  0  0  0  0
  162.1260  209.5680  140.8810 O   0  0  0  0  0  1  0  0  0  0  0  0
  161.8880  208.7730  139.7580 C   0  0  2  0  0  3  0  0  0  0  0  0
  160.7740  209.3390  138.8440 C   0  0  1  0  0  3  0  0  0  0  0  0
  161.3040  210.3050  137.9760 O   0  0  0  0  0  0  0  0  0  0  0  0
  162.3910  210.8900  138.6290 C   0  0  1  0  0  3  0  0  0  0  0  0
  163.0140  211.9030  137.6890 C   0  0  0  0  0  2  0  0  0  0  0  0
  162.1550  212.3800  138.8460 C   0  0  2  0  0  3  0  0  0  0  0  0
  162.5150  213.2940  141.1950 C   0  0  0  0  0  0  0  0  0  0  0  0
  163.3290  213.8250  141.9990 O   0  0  0  0  0  0  0  0  0  0  0  0
  163.0110  212.8230  139.9390 N   0  0  0  0  0  2  0  0  0  0  0  0
  161.1210  213.1880  141.5180 N   0  0  0  0  0  0  0  0  0  0  0  0
  160.6650  213.4510  142.6990 C   0  0  0  0  0  3  0  0  0  0  0  0
  159.0000  212.5880  144.3070 C   0  0  0  0  0  1  0  0  0  0  0  0
  159.2110  213.2890  142.9860 C   0  0  0  0  0  2  0  0  0  0  0  0
  160.0720  208.2550  138.0240 C   0  0  0  0  0  2  0  0  0  0  0  0
  158.1580  209.8970  138.8490 C   0  0  0  0  0  1  0  0  0  0  0  0
  158.4900  208.8740  137.3790 S   0  0  0  0  0  0  0  0  0  0  0  0
  1 47  1  6  0  0  0
  1  6  1  0  0  0  0
  1  4  1  0  0  0  0
  3  5  1  0  0  0  0
  4  2  2  0  0  0  0
  4  5  1  0  0  0  0
  5 29  1  6  0  0  0
  6  3  1  0  0  0  0
  7  9  2  0  0  0  0
  9  8  1  0  0  0  0
  9  1  1  0  0  0  0
 10  7  1  0  0  0  0
 10 11  1  0  0  0  0
 11 15  1  0  0  0  0
 12 13  1  0  0  0  0
 12 11  2  0  0  0  0
 13 14  2  0  0  0  0
 14 16  1  0  0  0  0
 15 16  2  0  0  0  0
 16 17  1  0  0  0  0
 17 18  1  0  0  0  0
 18 19  1  0  0  0  0
 19 20  1  0  0  0  0
 21 20  1  0  0  0  0
 23 22  1  0  0  0  0
 23 25  1  1  0  0  0
 24 21  1  6  0  0  0
 24 22  1  0  0  0  0
 27 28  1  0  0  0  0
 27 24  1  0  0  0  0
 28 26  1  6  0  0  0
 28 23  1  0  0  0  0
 29 30  1  0  0  0  0
 32 35  1  1  0  0  0
 33 30  1  6  0  0  0
 33 32  1  0  0  0  0
 34 31  1  6  0  0  0
 34 33  1  0  0  0  0
 34 32  1  0  0  0  0
 35 36  1  6  0  0  0
 35 43  1  0  0  0  0
 37 44  1  0  0  0  0
 38 39  1  0  0  0  0
 39 46  2  0  0  0  0
 40 39  1  0  0  0  0
 40 37  2  0  0  0  0
 42 45  2  0  0  0  0
 43 40  1  0  0  0  0
 44 41  2  0  0  0  0
 45 43  1  0  0  0  0
 45 38  1  0  0  0  0
 46 41  1  0  0  0  0
 48 47  1  0  0  0  0
 49 48  1  0  0  0  0
 50 49  1  0  0  0  0
 52 50  1  0  0  0  0
 52 51  1  1  0  0  0
 53 65  1  6  0  0  0
 53 52  1  0  0  0  0
 54 53  1  0  0  0  0
 55 54  1  6  0  0  0
 55 57  1  0  0  0  0
 56 55  1  0  0  0  0
 56 57  1  0  0  0  0
 57 60  1  1  0  0  0
 58 61  1  0  0  0  0
 58 59  2  0  0  0  0
 60 58  1  0  0  0  0
 61 62  2  0  0  0  0
 62 64  1  0  0  0  0
 64 63  1  0  0  0  0
 67 65  1  0  0  0  0
 67 66  1  0  0  0  0
M  END
>  <MODEL>
2

>  <REMARK>
 VINA RESULT:      -2.7      2.507      5.565
  Name = 
  27 active torsions:
  status: ('A' for Active; 'I' for Inactive)
    1  A    between atoms: N_1  and  C_20
    2  A    between atoms: C_2  and  C_42
    3  A    between atoms: C_2  and  S_61
    4  A    between atoms: O_3  and  C_19
    5  A    between atoms: O_3  and  C_42
    6  A    between atoms: C_6  and  C_22
    7  A    between atoms: C_6  and  C_60
    8  A    between atoms: C_7  and  O_48
    9  A    between atoms: O_11  and  C_37
   10  A    between atoms: O_11  and  C_67
   11  A    between atoms: C_14  and  O_48
   12  A    between atoms: C_15  and  S_21
   13  A    between atoms: C_15  and  C_50
   14  A    between atoms: C_17  and  C_67
   15  A    between atoms: S_21  and  C_22
   16  A    between atoms: N_26  and  C_49
   17  A    between atoms: N_26  and  C_55
   18  A    between atoms: N_28  and  C_53
   19  A    between atoms: O_32  and  C_63
   20  A    between atoms: O_32  and  C_64
   21  A    between atoms: N_35  and  C_47
   22  A    between atoms: C_37  and  C_63
   23  A    between atoms: C_39  and  C_47
   24  A    between atoms: C_40  and  C_42
   25  A    between atoms: C_40  and  C_50
   26  A    between atoms: C_45  and  C_66
   27  A    between atoms: C_49  and  C_54
                            x       y       z     vdW  Elec       q    Type
                         _______ _______ _______ _____ _____    ______ ____

>  <TORSDO>
F 27

$$$$
=
 OpenBabel11052409303D

 67 73  0  0  1  0  0  0  0  0999 V2000
  160.9600  212.7600  146.7770 C   0  0  2  0  0  0  0  0  0  0  0  0
  158.8630  212.9600  147.9840 O   0  0  0  0  0  0  0  0  0  0  0  0
  162.0310  214.4530  147.8880 C   0  0  0  0  0  2  0  0  0  0  0  0
  160.0210  213.3300  147.7980 C   0  0  0  0  0  0  0  0  0  0  0  0
  160.6430  214.4530  148.5010 C   0  0  1  0  0  3  0  0  0  0  0  0
  162.2300  213.2760  147.1270 O   0  0  0  0  0  0  0  0  0  0  0  0
  161.0950  212.5360  144.3160 C   0  0  0  0  0  3  0  0  0  0  0  0
  159.8270  214.4530  145.1600 C   0  0  0  0  0  1  0  0  0  0  0  0
  160.6130  213.1960  145.3660 C   0  0  0  0  0  0  0  0  0  0  0  0
  160.8540  212.9330  142.9980 O   0  0  0  0  0  0  0  0  0  0  0  0
  161.1690  212.1020  141.9230 C   0  0  0  0  0  0  0  0  0  0  0  0
  162.5000  211.8560  141.5480 C   0  0  0  0  0  3  0  0  0  0  0  0
  162.7920  211.0290  140.4610 C   0  0  0  0  0  3  0  0  0  0  0  0
  161.7580  210.4440  139.7390 C   0  0  0  0  0  3  0  0  0  0  0  0
  160.1380  211.4960  141.2020 C   0  0  0  0  0  3  0  0  0  0  0  0
  160.4240  210.6830  140.0990 C   0  0  0  0  0  0  0  0  0  0  0  0
  159.3650  210.1010  139.3850 O   0  0  0  0  0  0  0  0  0  0  0  0
  158.9040  210.6290  138.1460 C   0  0  0  0  0  2  0  0  0  0  0  0
  158.1720  211.9500  138.3590 C   0  0  0  0  0  2  0  0  0  0  0  0
  156.7890  211.8040  138.1900 O   0  0  0  0  0  0  0  0  0  0  0  0
  156.4990  210.5750  138.7980 C   0  0  0  0  0  2  0  0  0  0  0  0
  154.6300  209.1560  139.6130 C   0  0  0  0  0  2  0  0  0  0  0  0
  153.3760  209.6330  140.3210 C   0  0  2  0  0  3  0  0  0  0  0  0
  155.0250  210.2450  138.6310 C   0  0  1  0  0  3  0  0  0  0  0  0
  152.3850  208.6450  140.2670 O   0  0  0  0  0  1  0  0  0  0  0  0
  152.3840  211.7910  140.5060 O   0  0  0  0  0  1  0  0  0  0  0  0
  154.1510  211.4480  138.9440 C   0  0  0  0  0  2  0  0  0  0  0  0
  152.9030  210.8750  139.5940 C   0  0  1  0  0  3  0  0  0  0  0  0
  160.7260  214.1890  150.0000 C   0  0  0  0  0  2  0  0  0  0  0  0
  159.8330  213.0980  150.3580 N   0  0  0  0  0  2  0  0  0  0  0  0
  158.9540  214.2440  152.5230 O   0  0  0  0  0  1  0  0  0  0  0  0
  159.2000  211.8780  152.3600 C   0  0  2  0  0  3  0  0  0  0  0  0
  160.3530  212.5100  151.5820 C   0  0  2  0  0  3  0  0  0  0  0  0
  159.8110  213.1860  152.8330 C   0  0  1  0  0  3  0  0  0  0  0  0
  159.6940  210.7590  153.2750 C   0  0  1  0  0  3  0  0  0  0  0  0
  161.2010  210.6570  153.2270 C   0  0  0  0  0  1  0  0  0  0  0  0
  156.9670  211.9890  154.3860 C   0  0  0  0  0  3  0  0  0  0  0  0
  159.2960  211.0210  157.1010 C   0  0  0  0  0  2  0  0  0  0  0  0
  158.0270  211.5640  156.5210 C   0  0  0  0  0  0  0  0  0  0  0  0
  158.0410  211.5090  155.1410 C   0  0  0  0  0  0  0  0  0  0  0  0
  155.8230  212.5360  156.4600 C   0  0  0  0  0  3  0  0  0  0  0  0
  161.1820  210.1990  155.7940 O   0  0  0  0  0  0  0  0  0  0  0  0
  159.2330  210.9060  154.6600 N   0  0  0  0  0  0  0  0  0  0  0  0
  155.8490  212.5000  155.0560 C   0  0  0  0  0  3  0  0  0  0  0  0
  160.0020  210.6290  155.8280 C   0  0  0  0  0  0  0  0  0  0  0  0
  156.9220  212.0690  157.2040 C   0  0  0  0  0  3  0  0  0  0  0  0
  161.0570  211.2250  146.8510 C   0  0  0  0  0  2  0  0  0  0  0  0
  162.2220  210.6040  148.1270 S   0  0  0  0  0  0  0  0  0  0  0  0
  160.9970  209.4550  148.8130 C   0  0  0  0  0  2  0  0  0  0  0  0
  161.6480  208.5460  149.8550 C   0  0  0  0  0  2  0  0  0  0  0  0
  163.2480  207.8200  148.1740 O   0  0  0  0  0  1  0  0  0  0  0  0
  162.4250  207.3900  149.2160 C   0  0  2  0  0  3  0  0  0  0  0  0
  161.5440  206.1780  148.8290 C   0  0  1  0  0  3  0  0  0  0  0  0
  160.6550  205.8730  149.8700 O   0  0  0  0  0  0  0  0  0  0  0  0
  160.2930  204.5330  149.7210 C   0  0  1  0  0  3  0  0  0  0  0  0
  161.4610  203.7970  149.0960 C   0  0  0  0  0  2  0  0  0  0  0  0
  161.1760  203.6340  150.5790 C   0  0  2  0  0  3  0  0  0  0  0  0
  160.2200  201.4140  149.7800 C   0  0  0  0  0  0  0  0  0  0  0  0
  159.4420  200.4540  150.0390 O   0  0  0  0  0  0  0  0  0  0  0  0
  160.4690  202.3810  150.8050 N   0  0  0  0  0  2  0  0  0  0  0  0
  160.8210  201.5490  148.4850 N   0  0  0  0  0  0  0  0  0  0  0  0
  160.1220  201.5450  147.3970 C   0  0  0  0  0  3  0  0  0  0  0  0
  160.2620  200.6310  145.1060 C   0  0  0  0  0  1  0  0  0  0  0  0
  160.8040  201.6540  146.0760 C   0  0  0  0  0  2  0  0  0  0  0  0
  160.7530  206.4060  147.5400 C   0  0  0  0  0  2  0  0  0  0  0  0
  160.6470  205.0360  145.2710 C   0  0  0  0  0  1  0  0  0  0  0  0
  161.8190  206.1630  146.0900 S   0  0  0  0  0  0  0  0  0  0  0  0
  1 47  1  1  0  0  0
  1  6  1  0  0  0  0
  1  4  1  0  0  0  0
  3  5  1  0  0  0  0
  4  2  2  0  0  0  0
  4  5  1  0  0  0  0
  5 29  1  1  0  0  0
  6  3  1  0  0  0  0
  7  9  2  0  0  0  0
  8  9  1  0  0  0  0
  9  1  1  0  0  0  0
 10  7  1  0  0  0  0
 11 10  1  0  0  0  0
 12 11  1  0  0  0  0
 13 12  2  0  0  0  0
 14 16  2  0  0  0  0
 14 13  1  0  0  0  0
 15 11  2  0  0  0  0
 16 15  1  0  0  0  0
 17 16  1  0  0  0  0
 18 19  1  0  0  0  0
 18 17  1  0  0  0  0
 20 19  1  0  0  0  0
 20 21  1  0  0  0  0
 22 23  1  0  0  0  0
 23 25  1  6  0  0  0
 24 21  1  1  0  0  0
 24 27  1  0  0  0  0
 24 22  1  0  0  0  0
 27 28  1  0  0  0  0
 28 23  1  0  0  0  0
 28 26  1  1  0  0  0
 29 30  1  0  0  0  0
 32 34  1  0  0  0  0
 32 35  1  1  0  0  0
 33 30  1  6  0  0  0
 33 32  1  0  0  0  0
 33 34  1  0  0  0  0
 34 31  1  6  0  0  0
 35 36  1  1  0  0  0
 35 43  1  0  0  0  0
 37 44  2  0  0  0  0
 37 40  1  0  0  0  0
 39 38  1  0  0  0  0
 39 46  1  0  0  0  0
 40 39  2  0  0  0  0
 41 46  2  0  0  0  0
 42 45  2  0  0  0  0
 43 40  1  0  0  0  0
 43 45  1  0  0  0  0
 44 41  1  0  0  0  0
 45 38  1  0  0  0  0
 47 48  1  0  0  0  0
 48 49  1  0  0  0  0
 49 50  1  0  0  0  0
 52 51  1  6  0  0  0
 52 50  1  0  0  0  0
 53 65  1  6  0  0  0
 53 52  1  0  0  0  0
 53 54  1  0  0  0  0
 55 54  1  1  0  0  0
 55 57  1  0  0  0  0
 56 55  1  0  0  0  0
 56 57  1  0  0  0  0
 57 60  1  6  0  0  0
 58 59  2  0  0  0  0
 58 60  1  0  0  0  0
 61 58  1  0  0  0  0
 62 61  2  0  0  0  0
 63 64  1  0  0  0  0
 64 62  1  0  0  0  0
 66 67  1  0  0  0  0
 67 65  1  0  0  0  0
M  END
>  <MODEL>
3

>  <REMARK>
 VINA RESULT:      -2.5      3.668      9.290
  Name = 
  27 active torsions:
  status: ('A' for Active; 'I' for Inactive)
    1  A    between atoms: N_1  and  C_20
    2  A    between atoms: C_2  and  C_42
    3  A    between atoms: C_2  and  S_61
    4  A    between atoms: O_3  and  C_19
    5  A    between atoms: O_3  and  C_42
    6  A    between atoms: C_6  and  C_22
    7  A    between atoms: C_6  and  C_60
    8  A    between atoms: C_7  and  O_48
    9  A    between atoms: O_11  and  C_37
   10  A    between atoms: O_11  and  C_67
   11  A    between atoms: C_14  and  O_48
   12  A    between atoms: C_15  and  S_21
   13  A    between atoms: C_15  and  C_50
   14  A    between atoms: C_17  and  C_67
   15  A    between atoms: S_21  and  C_22
   16  A    between atoms: N_26  and  C_49
   17  A    between atoms: N_26  and  C_55
   18  A    between atoms: N_28  and  C_53
   19  A    between atoms: O_32  and  C_63
   20  A    between atoms: O_32  and  C_64
   21  A    between atoms: N_35  and  C_47
   22  A    between atoms: C_37  and  C_63
   23  A    between atoms: C_39  and  C_47
   24  A    between atoms: C_40  and  C_42
   25  A    between atoms: C_40  and  C_50
   26  A    between atoms: C_45  and  C_66
   27  A    between atoms: C_49  and  C_54
                            x       y       z     vdW  Elec       q    Type
                         _______ _______ _______ _____ _____    ______ ____

>  <TORSDO>
F 27

$$$$
=
 OpenBabel11052409303D

 67 73  0  0  1  0  0  0  0  0999 V2000
  160.8400  212.5570  146.7000 C   0  0  2  0  0  0  0  0  0  0  0  0
  158.7100  212.4180  147.8560 O   0  0  0  0  0  0  0  0  0  0  0  0
  161.5630  214.4500  147.7700 C   0  0  0  0  0  2  0  0  0  0  0  0
  159.7880  212.9830  147.6800 C   0  0  0  0  0  0  0  0  0  0  0  0
  160.1810  214.2210  148.3540 C   0  0  1  0  0  3  0  0  0  0  0  0
  161.9880  213.3030  147.0560 O   0  0  0  0  0  0  0  0  0  0  0  0
  161.3600  212.7960  144.2930 C   0  0  0  0  0  3  0  0  0  0  0  0
  159.0910  213.4120  144.9750 C   0  0  0  0  0  1  0  0  0  0  0  0
  160.4590  212.8780  145.2670 C   0  0  0  0  0  0  0  0  0  0  0  0
  161.0740  213.1380  142.9680 O   0  0  0  0  0  0  0  0  0  0  0  0
  161.3340  212.2540  141.9200 C   0  0  0  0  0  0  0  0  0  0  0  0
  162.6400  212.0180  141.4610 C   0  0  0  0  0  3  0  0  0  0  0  0
  162.8750  211.1380  140.4040 C   0  0  0  0  0  3  0  0  0  0  0  0
  161.8090  210.4870  139.7950 C   0  0  0  0  0  3  0  0  0  0  0  0
  160.2700  211.5820  141.3140 C   0  0  0  0  0  3  0  0  0  0  0  0
  160.4980  210.7140  140.2390 C   0  0  0  0  0  0  0  0  0  0  0  0
  159.4060  210.0660  139.6400 O   0  0  0  0  0  0  0  0  0  0  0  0
  159.0450  210.2870  138.2810 C   0  0  0  0  0  2  0  0  0  0  0  0
  158.0010  211.3930  138.1720 C   0  0  0  0  0  2  0  0  0  0  0  0
  157.0170  211.0800  137.2250 O   0  0  0  0  0  0  0  0  0  0  0  0
  156.7540  209.7210  137.4430 C   0  0  0  0  0  2  0  0  0  0  0  0
  155.0390  208.9500  139.0670 C   0  0  0  0  0  2  0  0  0  0  0  0
  153.9590  209.8000  139.7110 C   0  0  2  0  0  3  0  0  0  0  0  0
  155.2670  209.5080  137.6730 C   0  0  1  0  0  3  0  0  0  0  0  0
  152.9500  208.9820  140.2340 O   0  0  0  0  0  1  0  0  0  0  0  0
  153.0820  211.9420  139.1490 O   0  0  0  0  0  1  0  0  0  0  0  0
  154.5030  210.8200  137.6010 C   0  0  0  0  0  2  0  0  0  0  0  0
  153.3890  210.6890  138.6250 C   0  0  1  0  0  3  0  0  0  0  0  0
  160.2690  214.0250  149.8630 C   0  0  0  0  0  2  0  0  0  0  0  0
  159.4530  212.8890  150.2610 N   0  0  0  0  0  2  0  0  0  0  0  0
  159.0410  214.4430  152.3070 O   0  0  0  0  0  1  0  0  0  0  0  0
  158.8740  212.0710  152.4720 C   0  0  2  0  0  3  0  0  0  0  0  0
  160.0130  212.3800  151.5020 C   0  0  2  0  0  3  0  0  0  0  0  0
  159.7440  213.2970  152.6860 C   0  0  1  0  0  3  0  0  0  0  0  0
  159.2840  211.0080  153.4910 C   0  0  1  0  0  3  0  0  0  0  0  0
  160.7860  210.9730  153.6480 C   0  0  0  0  0  1  0  0  0  0  0  0
  156.7620  212.8000  154.2770 C   0  0  0  0  0  3  0  0  0  0  0  0
  158.2970  211.1440  157.2160 C   0  0  0  0  0  2  0  0  0  0  0  0
  157.3080  212.0110  156.5000 C   0  0  0  0  0  0  0  0  0  0  0  0
  157.5490  212.0320  155.1410 C   0  0  0  0  0  0  0  0  0  0  0  0
  155.4330  213.4910  156.1910 C   0  0  0  0  0  3  0  0  0  0  0  0
  160.1420  209.9630  156.1460 O   0  0  0  0  0  0  0  0  0  0  0  0
  158.6350  211.1850  154.7950 N   0  0  0  0  0  0  0  0  0  0  0  0
  155.6930  213.5290  154.8110 C   0  0  0  0  0  3  0  0  0  0  0  0
  159.1050  210.6650  156.0370 C   0  0  0  0  0  0  0  0  0  0  0  0
  156.2480  212.7300  157.0490 C   0  0  0  0  0  3  0  0  0  0  0  0
  161.2060  211.0680  146.8330 C   0  0  0  0  0  2  0  0  0  0  0  0
  161.8560  210.5950  148.4840 S   0  0  0  0  0  0  0  0  0  0  0  0
  160.9600  209.0180  148.4820 C   0  0  0  0  0  2  0  0  0  0  0  0
  161.6200  208.0320  149.4470 C   0  0  0  0  0  2  0  0  0  0  0  0
  163.4740  208.0130  147.8730 O   0  0  0  0  0  1  0  0  0  0  0  0
  162.7540  207.2410  148.7870 C   0  0  2  0  0  3  0  0  0  0  0  0
  162.3140  205.8750  148.2080 C   0  0  1  0  0  3  0  0  0  0  0  0
  160.9890  205.5970  148.5760 O   0  0  0  0  0  0  0  0  0  0  0  0
  161.0410  204.8100  149.7290 C   0  0  1  0  0  3  0  0  0  0  0  0
  159.6360  204.7020  150.2880 C   0  0  0  0  0  2  0  0  0  0  0  0
  160.2430  203.5250  149.5450 C   0  0  2  0  0  3  0  0  0  0  0  0
  161.6290  202.8560  151.5730 C   0  0  0  0  0  0  0  0  0  0  0  0
  162.1340  201.9040  152.2290 O   0  0  0  0  0  0  0  0  0  0  0  0
  160.7320  202.5430  150.5040 N   0  0  0  0  0  2  0  0  0  0  0  0
  161.9650  204.2180  151.8710 N   0  0  0  0  0  0  0  0  0  0  0  0
  161.4510  204.8510  152.8760 C   0  0  0  0  0  3  0  0  0  0  0  0
  160.5800  207.0930  153.4380 C   0  0  0  0  0  1  0  0  0  0  0  0
  161.8100  206.2770  153.1170 C   0  0  0  0  0  2  0  0  0  0  0  0
  162.4380  205.8070  146.6850 C   0  0  0  0  0  2  0  0  0  0  0  0
  161.2250  205.0250  144.4580 C   0  0  0  0  0  1  0  0  0  0  0  0
  160.8160  206.0540  145.9050 S   0  0  0  0  0  0  0  0  0  0  0  0
  1 47  1  1  0  0  0
  1  6  1  0  0  0  0
  1  4  1  0  0  0  0
  3  5  1  0  0  0  0
  4  2  2  0  0  0  0
  4  5  1  0  0  0  0
  5 29  1  1  0  0  0
  6  3  1  0  0  0  0
  7  9  2  0  0  0  0
  8  9  1  0  0  0  0
  9  1  1  0  0  0  0
 10  7  1  0  0  0  0
 11 10  1  0  0  0  0
 12 11  1  0  0  0  0
 13 12  2  0  0  0  0
 14 16  2  0  0  0  0
 14 13  1  0  0  0  0
 15 11  2  0  0  0  0
 16 15  1  0  0  0  0
 17 16  1  0  0  0  0
 18 17  1  0  0  0  0
 19 18  1  0  0  0  0
 20 21  1  0  0  0  0
 20 19  1  0  0  0  0
 22 23  1  0  0  0  0
 23 25  1  6  0  0  0
 24 21  1  1  0  0  0
 24 22  1  0  0  0  0
 27 24  1  0  0  0  0
 27 28  1  0  0  0  0
 28 26  1  1  0  0  0
 28 23  1  0  0  0  0
 29 30  1  0  0  0  0
 32 34  1  0  0  0  0
 32 35  1  1  0  0  0
 33 30  1  6  0  0  0
 33 32  1  0  0  0  0
 33 34  1  0  0  0  0
 34 31  1  6  0  0  0
 35 36  1  1  0  0  0
 35 43  1  0  0  0  0
 37 44  2  0  0  0  0
 37 40  1  0  0  0  0
 39 46  1  0  0  0  0
 39 38  1  0  0  0  0
 40 39  2  0  0  0  0
 41 46  2  0  0  0  0
 43 40  1  0  0  0  0
 43 45  1  0  0  0  0
 44 41  1  0  0  0  0
 45 42  2  0  0  0  0
 45 38  1  0  0  0  0
 47 48  1  0  0  0  0
 49 48  1  0  0  0  0
 49 50  1  0  0  0  0
 52 51  1  6  0  0  0
 52 50  1  0  0  0  0
 53 65  1  6  0  0  0
 53 54  1  0  0  0  0
 53 52  1  0  0  0  0
 55 54  1  6  0  0  0
 55 56  1  0  0  0  0
 57 55  1  0  0  0  0
 57 56  1  0  0  0  0
 57 60  1  1  0  0  0
 58 61  1  0  0  0  0
 58 59  2  0  0  0  0
 60 58  1  0  0  0  0
 61 62  2  0  0  0  0
 62 64  1  0  0  0  0
 64 63  1  0  0  0  0
 66 67  1  0  0  0  0
 67 65  1  0  0  0  0
M  END
>  <MODEL>
4

>  <REMARK>
 VINA RESULT:      -2.0      3.518      9.527
  Name = 
  27 active torsions:
  status: ('A' for Active; 'I' for Inactive)
    1  A    between atoms: N_1  and  C_20
    2  A    between atoms: C_2  and  C_42
    3  A    between atoms: C_2  and  S_61
    4  A    between atoms: O_3  and  C_19
    5  A    between atoms: O_3  and  C_42
    6  A    between atoms: C_6  and  C_22
    7  A    between atoms: C_6  and  C_60
    8  A    between atoms: C_7  and  O_48
    9  A    between atoms: O_11  and  C_37
   10  A    between atoms: O_11  and  C_67
   11  A    between atoms: C_14  and  O_48
   12  A    between atoms: C_15  and  S_21
   13  A    between atoms: C_15  and  C_50
   14  A    between atoms: C_17  and  C_67
   15  A    between atoms: S_21  and  C_22
   16  A    between atoms: N_26  and  C_49
   17  A    between atoms: N_26  and  C_55
   18  A    between atoms: N_28  and  C_53
   19  A    between atoms: O_32  and  C_63
   20  A    between atoms: O_32  and  C_64
   21  A    between atoms: N_35  and  C_47
   22  A    between atoms: C_37  and  C_63
   23  A    between atoms: C_39  and  C_47
   24  A    between atoms: C_40  and  C_42
   25  A    between atoms: C_40  and  C_50
   26  A    between atoms: C_45  and  C_66
   27  A    between atoms: C_49  and  C_54
                            x       y       z     vdW  Elec       q    Type
                         _______ _______ _______ _____ _____    ______ ____

>  <TORSDO>
F 27

$$$$
=
 OpenBabel11052409303D

 67 73  0  0  1  0  0  0  0  0999 V2000
  161.4840  205.8670  146.3300 C   0  0  2  0  0  0  0  0  0  0  0  0
  159.8990  206.3970  144.5700 O   0  0  0  0  0  0  0  0  0  0  0  0
  163.1520  205.1490  144.9340 C   0  0  0  0  0  2  0  0  0  0  0  0
  161.0090  205.9950  144.9130 C   0  0  0  0  0  0  0  0  0  0  0  0
  162.0230  205.4990  143.9820 C   0  0  1  0  0  3  0  0  0  0  0  0
  162.8800  205.6610  146.2260 O   0  0  0  0  0  0  0  0  0  0  0  0
  160.4010  203.6430  146.3600 C   0  0  0  0  0  3  0  0  0  0  0  0
  160.6330  204.7620  148.5250 C   0  0  0  0  0  1  0  0  0  0  0  0
  160.8550  204.6870  147.0470 C   0  0  0  0  0  0  0  0  0  0  0  0
  159.7600  202.5600  146.9680 O   0  0  0  0  0  0  0  0  0  0  0  0
  160.4010  201.7940  147.9430 C   0  0  0  0  0  0  0  0  0  0  0  0
  161.4420  200.9100  147.6200 C   0  0  0  0  0  3  0  0  0  0  0  0
  162.0610  200.1460  148.6100 C   0  0  0  0  0  3  0  0  0  0  0  0
  161.6450  200.2570  149.9320 C   0  0  0  0  0  3  0  0  0  0  0  0
  160.0010  201.9130  149.2760 C   0  0  0  0  0  3  0  0  0  0  0  0
  160.6040  201.1340  150.2710 C   0  0  0  0  0  0  0  0  0  0  0  0
  160.1690  201.2640  151.5990 O   0  0  0  0  0  0  0  0  0  0  0  0
  159.9850  202.5330  152.2170 C   0  0  0  0  0  2  0  0  0  0  0  0
  160.8360  203.5970  151.5320 C   0  0  0  0  0  2  0  0  0  0  0  0
  161.5170  204.3900  152.4640 O   0  0  0  0  0  0  0  0  0  0  0  0
  161.7020  205.6110  151.8030 C   0  0  0  0  0  2  0  0  0  0  0  0
  161.6090  208.0510  152.2570 C   0  0  0  0  0  2  0  0  0  0  0  0
  160.8080  208.7360  153.3490 C   0  0  2  0  0  3  0  0  0  0  0  0
  162.0390  206.7020  152.8050 C   0  0  1  0  0  3  0  0  0  0  0  0
  161.2980  210.0300  153.5670 O   0  0  0  0  0  1  0  0  0  0  0  0
  159.7810  207.8950  155.3270 O   0  0  0  0  0  1  0  0  0  0  0  0
  161.2870  206.5040  154.1100 C   0  0  0  0  0  2  0  0  0  0  0  0
  160.9720  207.9060  154.6050 C   0  0  1  0  0  3  0  0  0  0  0  0
  162.4650  206.5890  143.0130 C   0  0  0  0  0  2  0  0  0  0  0  0
  161.7640  206.4370  141.7480 N   0  0  0  0  0  2  0  0  0  0  0  0
  162.3640  205.2710  139.5000 O   0  0  0  0  0  1  0  0  0  0  0  0
  161.5150  207.4970  139.5770 C   0  0  2  0  0  3  0  0  0  0  0  0
  162.4220  207.3140  140.7930 C   0  0  2  0  0  3  0  0  0  0  0  0
  162.7470  206.6140  139.4810 C   0  0  1  0  0  3  0  0  0  0  0  0
  161.8080  208.8110  138.8560 C   0  0  1  0  0  3  0  0  0  0  0  0
  161.8690  208.5970  137.3620 C   0  0  0  0  0  1  0  0  0  0  0  0
  162.3100  211.6500  140.2260 C   0  0  0  0  0  3  0  0  0  0  0  0
  158.7150  210.9830  139.6190 C   0  0  0  0  0  2  0  0  0  0  0  0
  159.8960  211.7780  140.0830 C   0  0  0  0  0  0  0  0  0  0  0  0
  161.0780  211.1050  139.8470 C   0  0  0  0  0  0  0  0  0  0  0  0
  161.1290  213.6120  141.0420 C   0  0  0  0  0  3  0  0  0  0  0  0
  158.8380  208.7580  138.6300 O   0  0  0  0  0  0  0  0  0  0  0  0
  160.8490  209.8710  139.1840 N   0  0  0  0  0  0  0  0  0  0  0  0
  162.3290  212.9160  140.8220 C   0  0  0  0  0  3  0  0  0  0  0  0
  159.4310  209.7790  139.0620 C   0  0  0  0  0  0  0  0  0  0  0  0
  159.8970  213.0390  140.6750 C   0  0  0  0  0  3  0  0  0  0  0  0
  161.2750  207.1570  147.1450 C   0  0  0  0  0  2  0  0  0  0  0  0
  162.6480  207.5500  148.2990 S   0  0  0  0  0  0  0  0  0  0  0  0
  161.7440  208.9370  149.0410 C   0  0  0  0  0  2  0  0  0  0  0  0
  161.8660  210.1810  148.1600 C   0  0  0  0  0  2  0  0  0  0  0  0
  162.4740  211.1530  150.3050 O   0  0  0  0  0  1  0  0  0  0  0  0
  162.1740  211.4420  148.9730 C   0  0  2  0  0  3  0  0  0  0  0  0
  161.1140  212.5610  148.8230 C   0  0  1  0  0  3  0  0  0  0  0  0
  161.2310  213.4830  149.8740 O   0  0  0  0  0  0  0  0  0  0  0  0
  159.9360  213.7890  150.2970 C   0  0  1  0  0  3  0  0  0  0  0  0
  159.2640  212.4990  150.7230 C   0  0  0  0  0  2  0  0  0  0  0  0
  159.7620  213.4720  151.7780 C   0  0  2  0  0  3  0  0  0  0  0  0
  157.6830  213.7580  153.2200 C   0  0  0  0  0  0  0  0  0  0  0  0
  156.6540  214.4530  153.4490 O   0  0  0  0  0  0  0  0  0  0  0  0
  158.6430  214.2570  152.2840 N   0  0  0  0  0  2  0  0  0  0  0  0
  157.8750  212.4890  153.8590 N   0  0  0  0  0  0  0  0  0  0  0  0
  158.3340  212.3860  155.0640 C   0  0  0  0  0  3  0  0  0  0  0  0
  159.1080  211.1570  157.0620 C   0  0  0  0  0  1  0  0  0  0  0  0
  158.5460  211.0390  155.6650 C   0  0  0  0  0  2  0  0  0  0  0  0
  161.2170  213.3010  147.4890 C   0  0  0  0  0  2  0  0  0  0  0  0
  160.1950  214.1190  145.1800 C   0  0  0  0  0  1  0  0  0  0  0  0
  159.5610  213.6240  146.8140 S   0  0  0  0  0  0  0  0  0  0  0  0
  1  9  1  0  0  0  0
  1 47  1  1  0  0  0
  2  4  2  0  0  0  0
  3  6  1  0  0  0  0
  4  1  1  0  0  0  0
  5 29  1  6  0  0  0
  5  4  1  0  0  0  0
  5  3  1  0  0  0  0
  6  1  1  0  0  0  0
  7 10  1  0  0  0  0
  7  9  2  0  0  0  0
  9  8  1  0  0  0  0
 10 11  1  0  0  0  0
 11 15  1  0  0  0  0
 12 11  2  0  0  0  0
 12 13  1  0  0  0  0
 13 14  2  0  0  0  0
 14 16  1  0  0  0  0
 15 16  2  0  0  0  0
 16 17  1  0  0  0  0
 17 18  1  0  0  0  0
 19 18  1  0  0  0  0
 19 20  1  0  0  0  0
 21 20  1  0  0  0  0
 22 24  1  0  0  0  0
 22 23  1  0  0  0  0
 23 25  1  1  0  0  0
 23 28  1  0  0  0  0
 24 21  1  6  0  0  0
 24 27  1  0  0  0  0
 27 28  1  0  0  0  0
 28 26  1  6  0  0  0
 30 29  1  0  0  0  0
 32 35  1  6  0  0  0
 32 33  1  0  0  0  0
 33 30  1  1  0  0  0
 34 31  1  1  0  0  0
 34 32  1  0  0  0  0
 34 33  1  0  0  0  0
 35 36  1  6  0  0  0
 35 43  1  0  0  0  0
 37 44  1  0  0  0  0
 38 39  1  0  0  0  0
 39 46  2  0  0  0  0
 40 39  1  0  0  0  0
 40 37  2  0  0  0  0
 42 45  2  0  0  0  0
 43 40  1  0  0  0  0
 44 41  2  0  0  0  0
 45 43  1  0  0  0  0
 45 38  1  0  0  0  0
 46 41  1  0  0  0  0
 47 48  1  0  0  0  0
 48 49  1  0  0  0  0
 50 52  1  0  0  0  0
 50 49  1  0  0  0  0
 52 51  1  1  0  0  0
 53 65  1  6  0  0  0
 53 52  1  0  0  0  0
 53 54  1  0  0  0  0
 55 54  1  1  0  0  0
 55 56  1  0  0  0  0
 55 57  1  0  0  0  0
 56 57  1  0  0  0  0
 57 60  1  6  0  0  0
 58 59  2  0  0  0  0
 58 61  1  0  0  0  0
 60 58  1  0  0  0  0
 61 62  2  0  0  0  0
 62 64  1  0  0  0  0
 64 63  1  0  0  0  0
 66 67  1  0  0  0  0
 67 65  1  0  0  0  0
M  END
>  <MODEL>
5

>  <REMARK>
 VINA RESULT:      -1.6      2.410     10.582
  Name = 
  27 active torsions:
  status: ('A' for Active; 'I' for Inactive)
    1  A    between atoms: N_1  and  C_20
    2  A    between atoms: C_2  and  C_42
    3  A    between atoms: C_2  and  S_61
    4  A    between atoms: O_3  and  C_19
    5  A    between atoms: O_3  and  C_42
    6  A    between atoms: C_6  and  C_22
    7  A    between atoms: C_6  and  C_60
    8  A    between atoms: C_7  and  O_48
    9  A    between atoms: O_11  and  C_37
   10  A    between atoms: O_11  and  C_67
   11  A    between atoms: C_14  and  O_48
   12  A    between atoms: C_15  and  S_21
   13  A    between atoms: C_15  and  C_50
   14  A    between atoms: C_17  and  C_67
   15  A    between atoms: S_21  and  C_22
   16  A    between atoms: N_26  and  C_49
   17  A    between atoms: N_26  and  C_55
   18  A    between atoms: N_28  and  C_53
   19  A    between atoms: O_32  and  C_63
   20  A    between atoms: O_32  and  C_64
   21  A    between atoms: N_35  and  C_47
   22  A    between atoms: C_37  and  C_63
   23  A    between atoms: C_39  and  C_47
   24  A    between atoms: C_40  and  C_42
   25  A    between atoms: C_40  and  C_50
   26  A    between atoms: C_45  and  C_66
   27  A    between atoms: C_49  and  C_54
                            x       y       z     vdW  Elec       q    Type
                         _______ _______ _______ _____ _____    ______ ____

>  <TORSDO>
F 27

$$$$
=
 OpenBabel11052409303D

 67 73  0  0  1  0  0  0  0  0999 V2000
  161.4750  207.6020  150.5500 C   0  0  2  0  0  0  0  0  0  0  0  0
  160.3650  208.4050  148.5470 O   0  0  0  0  0  0  0  0  0  0  0  0
  163.5630  207.4570  149.6180 C   0  0  0  0  0  2  0  0  0  0  0  0
  161.3920  208.0470  149.1200 C   0  0  0  0  0  0  0  0  0  0  0  0
  162.6940  207.9230  148.4640 C   0  0  1  0  0  3  0  0  0  0  0  0
  162.8600  207.5790  150.8410 O   0  0  0  0  0  0  0  0  0  0  0  0
  160.3350  205.5570  149.7490 C   0  0  0  0  0  3  0  0  0  0  0  0
  160.8470  205.6430  152.1420 C   0  0  0  0  0  1  0  0  0  0  0  0
  160.8970  206.2150  150.7590 C   0  0  0  0  0  0  0  0  0  0  0  0
  159.7360  204.3040  149.9030 O   0  0  0  0  0  0  0  0  0  0  0  0
  160.4970  203.1630  150.1580 C   0  0  0  0  0  0  0  0  0  0  0  0
  161.0200  202.8950  151.4330 C   0  0  0  0  0  3  0  0  0  0  0  0
  161.7880  201.7530  151.6620 C   0  0  0  0  0  3  0  0  0  0  0  0
  162.0420  200.8690  150.6200 C   0  0  0  0  0  3  0  0  0  0  0  0
  160.7430  202.2610  149.1210 C   0  0  0  0  0  3  0  0  0  0  0  0
  161.5300  201.1240  149.3390 C   0  0  0  0  0  0  0  0  0  0  0  0
  161.7730  200.2440  148.2730 O   0  0  0  0  0  0  0  0  0  0  0  0
  160.8520  200.0790  147.2000 C   0  0  0  0  0  2  0  0  0  0  0  0
  160.7570  201.3540  146.3680 C   0  0  0  0  0  2  0  0  0  0  0  0
  160.0790  201.1310  145.1620 O   0  0  0  0  0  0  0  0  0  0  0  0
  160.1180  202.3730  144.5150 C   0  0  0  0  0  2  0  0  0  0  0  0
  162.0380  203.8020  145.1780 C   0  0  0  0  0  2  0  0  0  0  0  0
  162.1130  205.3150  145.0830 C   0  0  2  0  0  3  0  0  0  0  0  0
  160.5920  203.4490  145.4770 C   0  0  1  0  0  3  0  0  0  0  0  0
  163.1430  205.7990  145.9000 O   0  0  0  0  0  1  0  0  0  0  0  0
  160.4230  206.9710  144.8100 O   0  0  0  0  0  1  0  0  0  0  0  0
  159.7900  204.7290  145.3120 C   0  0  0  0  0  2  0  0  0  0  0  0
  160.7810  205.8540  145.5610 C   0  0  1  0  0  3  0  0  0  0  0  0
  163.1820  209.2700  147.9440 C   0  0  0  0  0  2  0  0  0  0  0  0
  162.4600  210.3450  148.6070 N   0  0  0  0  0  2  0  0  0  0  0  0
  160.5670  211.9290  149.4310 O   0  0  0  0  0  1  0  0  0  0  0  0
  162.2350  212.6530  147.8890 C   0  0  2  0  0  3  0  0  0  0  0  0
  161.9150  211.1960  147.5620 C   0  0  2  0  0  3  0  0  0  0  0  0
  160.8230  212.1240  148.0720 C   0  0  1  0  0  3  0  0  0  0  0  0
  162.2650  213.5130  146.6270 C   0  0  1  0  0  3  0  0  0  0  0  0
  163.4440  213.1430  145.7580 C   0  0  0  0  0  1  0  0  0  0  0  0
  161.7890  212.5710  143.6140 C   0  0  0  0  0  3  0  0  0  0  0  0
  158.6940  213.8410  145.2100 C   0  0  0  0  0  2  0  0  0  0  0  0
  159.5200  213.2600  144.1040 C   0  0  0  0  0  0  0  0  0  0  0  0
  160.8310  213.0780  144.4980 C   0  0  0  0  0  0  0  0  0  0  0  0
  160.0510  212.3760  141.9260 C   0  0  0  0  0  3  0  0  0  0  0  0
  159.5480  214.4530  147.4090 O   0  0  0  0  0  0  0  0  0  0  0  0
  161.0180  213.4440  145.8570 N   0  0  0  0  0  0  0  0  0  0  0  0
  161.3890  212.2130  142.3220 C   0  0  0  0  0  3  0  0  0  0  0  0
  159.7460  213.9240  146.2860 C   0  0  0  0  0  0  0  0  0  0  0  0
  159.1050  212.9090  142.8210 C   0  0  0  0  0  3  0  0  0  0  0  0
  160.8240  208.6020  151.5220 C   0  0  0  0  0  2  0  0  0  0  0  0
  161.9540  209.9230  152.1140 S   0  0  0  0  0  0  0  0  0  0  0  0
  160.6600  210.7000  153.1210 C   0  0  0  0  0  2  0  0  0  0  0  0
  160.1360  211.9600  152.4320 C   0  0  0  0  0  2  0  0  0  0  0  0
  158.5820  213.7870  152.8340 O   0  0  0  0  0  1  0  0  0  0  0  0
  158.7880  212.4160  152.9990 C   0  0  2  0  0  3  0  0  0  0  0  0
  158.5180  211.9350  154.4450 C   0  0  1  0  0  3  0  0  0  0  0  0
  158.5510  213.0220  155.3310 O   0  0  0  0  0  0  0  0  0  0  0  0
  159.8650  213.1360  155.7910 C   0  0  1  0  0  3  0  0  0  0  0  0
  159.8180  213.5050  157.2610 C   0  0  0  0  0  2  0  0  0  0  0  0
  160.1600  212.0820  156.8530 C   0  0  2  0  0  3  0  0  0  0  0  0
  162.2460  210.6290  156.7170 C   0  0  0  0  0  0  0  0  0  0  0  0
  163.4780  210.5370  156.9750 O   0  0  0  0  0  0  0  0  0  0  0  0
  161.6030  211.8910  156.9170 N   0  0  0  0  0  2  0  0  0  0  0  0
  161.5000  209.4920  156.2590 N   0  0  0  0  0  0  0  0  0  0  0  0
  160.2620  209.3040  156.5840 C   0  0  0  0  0  3  0  0  0  0  0  0
  160.4750  207.1950  155.3140 C   0  0  0  0  0  1  0  0  0  0  0  0
  159.5480  208.0860  156.1070 C   0  0  0  0  0  2  0  0  0  0  0  0
  157.1800  211.2070  154.5890 C   0  0  0  0  0  2  0  0  0  0  0  0
  155.5150  213.2550  154.8650 C   0  0  0  0  0  1  0  0  0  0  0  0
  156.1990  211.9440  155.9290 S   0  0  0  0  0  0  0  0  0  0  0  0
  1  9  1  0  0  0  0
  1  6  1  0  0  0  0
  1 47  1  1  0  0  0
  2  4  2  0  0  0  0
  3  6  1  0  0  0  0
  4  1  1  0  0  0  0
  5 29  1  1  0  0  0
  5  4  1  0  0  0  0
  5  3  1  0  0  0  0
  7 10  1  0  0  0  0
  7  9  2  0  0  0  0
  9  8  1  0  0  0  0
 10 11  1  0  0  0  0
 11 12  1  0  0  0  0
 12 13  2  0  0  0  0
 14 13  1  0  0  0  0
 15 16  1  0  0  0  0
 15 11  2  0  0  0  0
 16 14  2  0  0  0  0
 17 16  1  0  0  0  0
 18 17  1  0  0  0  0
 19 18  1  0  0  0  0
 20 19  1  0  0  0  0
 21 20  1  0  0  0  0
 22 24  1  0  0  0  0
 23 22  1  0  0  0  0
 23 28  1  0  0  0  0
 23 25  1  1  0  0  0
 24 21  1  6  0  0  0
 27 24  1  0  0  0  0
 27 28  1  0  0  0  0
 28 26  1  6  0  0  0
 29 30  1  0  0  0  0
 32 35  1  6  0  0  0
 32 34  1  0  0  0  0
 33 32  1  0  0  0  0
 33 34  1  0  0  0  0
 33 30  1  1  0  0  0
 34 31  1  1  0  0  0
 35 36  1  6  0  0  0
 37 40  1  0  0  0  0
 38 45  1  0  0  0  0
 39 40  2  0  0  0  0
 39 38  1  0  0  0  0
 40 43  1  0  0  0  0
 41 44  1  0  0  0  0
 41 46  2  0  0  0  0
 43 45  1  0  0  0  0
 43 35  1  0  0  0  0
 44 37  2  0  0  0  0
 45 42  2  0  0  0  0
 46 39  1  0  0  0  0
 47 48  1  0  0  0  0
 48 49  1  0  0  0  0
 50 52  1  0  0  0  0
 50 49  1  0  0  0  0
 52 51  1  1  0  0  0
 52 53  1  0  0  0  0
 53 65  1  6  0  0  0
 53 54  1  0  0  0  0
 55 54  1  1  0  0  0
 55 57  1  0  0  0  0
 55 56  1  0  0  0  0
 57 60  1  6  0  0  0
 57 56  1  0  0  0  0
 58 60  1  0  0  0  0
 58 59  2  0  0  0  0
 61 62  2  0  0  0  0
 61 58  1  0  0  0  0
 63 64  1  0  0  0  0
 64 62  1  0  0  0  0
 65 67  1  0  0  0  0
 66 67  1  0  0  0  0
M  END
>  <MODEL>
6

>  <REMARK>
 VINA RESULT:      -0.7      2.366      9.135
  Name = 
  27 active torsions:
  status: ('A' for Active; 'I' for Inactive)
    1  A    between atoms: N_1  and  C_20
    2  A    between atoms: C_2  and  C_42
    3  A    between atoms: C_2  and  S_61
    4  A    between atoms: O_3  and  C_19
    5  A    between atoms: O_3  and  C_42
    6  A    between atoms: C_6  and  C_22
    7  A    between atoms: C_6  and  C_60
    8  A    between atoms: C_7  and  O_48
    9  A    between atoms: O_11  and  C_37
   10  A    between atoms: O_11  and  C_67
   11  A    between atoms: C_14  and  O_48
   12  A    between atoms: C_15  and  S_21
   13  A    between atoms: C_15  and  C_50
   14  A    between atoms: C_17  and  C_67
   15  A    between atoms: S_21  and  C_22
   16  A    between atoms: N_26  and  C_49
   17  A    between atoms: N_26  and  C_55
   18  A    between atoms: N_28  and  C_53
   19  A    between atoms: O_32  and  C_63
   20  A    between atoms: O_32  and  C_64
   21  A    between atoms: N_35  and  C_47
   22  A    between atoms: C_37  and  C_63
   23  A    between atoms: C_39  and  C_47
   24  A    between atoms: C_40  and  C_42
   25  A    between atoms: C_40  and  C_50
   26  A    between atoms: C_45  and  C_66
   27  A    between atoms: C_49  and  C_54
                            x       y       z     vdW  Elec       q    Type
                         _______ _______ _______ _____ _____    ______ ____

>  <TORSDO>
F 27

$$$$
