=
 OpenBabel11052410533D

 30 33  0  0  1  0  0  0  0  0999 V2000
  160.9140  205.7780  150.1660 C   0  0  0  0  0  0  0  0  0  0  0  0
  161.3190  204.8460  152.3690 C   0  0  0  0  0  3  0  0  0  0  0  0
  161.1660  205.9690  151.5440 C   0  0  0  0  0  0  0  0  0  0  0  0
  160.9860  203.3630  150.4810 C   0  0  0  0  0  0  0  0  0  0  0  0
  161.2310  203.5560  151.8440 C   0  0  0  0  0  3  0  0  0  0  0  0
  160.8260  204.4790  149.6500 C   0  0  0  0  0  3  0  0  0  0  0  0
  160.4510  206.6270  154.4430 C   0  0  0  0  0  3  0  0  0  0  0  0
  161.1260  208.8400  153.9680 C   0  0  0  0  0  0  0  0  0  0  0  0
  161.5650  209.8850  153.2460 C   0  0  0  0  0  0  0  0  0  0  0  0
  160.8490  209.2440  155.2150 C   0  0  0  0  0  0  0  0  0  0  0  0
  160.3610  208.3780  156.1380 N   0  0  0  0  0  0  0  0  0  0  0  0
  161.7570  208.4100  151.3610 C   0  0  0  0  0  3  0  0  0  0  0  0
  161.1140  210.6410  155.3550 N   0  0  0  0  0  0  0  0  0  0  0  0
  160.1590  207.0680  155.7670 C   0  0  0  0  0  3  0  0  0  0  0  0
  161.9010  209.7130  151.9040 C   0  0  0  0  0  3  0  0  0  0  0  0
  160.9560  207.5570  153.5090 C   0  0  0  0  0  0  0  0  0  0  0  0
  161.2810  207.3180  152.1490 C   0  0  0  0  0  0  0  0  0  0  0  0
  161.5450  211.0310  154.1780 C   0  0  0  0  0  3  0  0  0  0  0  0
  160.8920  202.0020  149.9260 C   0  0  0  0  0  0  0  0  0  0  0  0
  161.3270  201.7420  148.5870 N   0  0  0  0  0  2  0  0  0  0  0  0
  160.4250  201.0640  150.6300 O   0  0  0  0  0  0  0  0  0  0  0  0
  161.2880  200.4140  147.9910 C   0  0  0  0  0  2  0  0  0  0  0  0
  161.3350  200.5210  146.4770 C   0  0  0  0  0  2  0  0  0  0  0  0
  161.3840  202.7460  145.6170 O   0  0  0  0  0  1  0  0  0  0  0  0
  160.5260  201.7160  146.0090 C   0  0  1  0  0  3  0  0  0  0  0  0
  159.6650  201.3080  144.8340 C   0  0  0  0  0  1  0  0  0  0  0  0
  160.7010  206.9250  149.2310 C   0  0  0  0  0  2  0  0  0  0  0  0
  160.7580  206.4490  147.7880 C   0  0  0  0  0  2  0  0  0  0  0  0
  162.2530  205.9230  145.8630 C   0  0  0  0  0  1  0  0  0  0  0  0
  162.1950  206.3980  147.3040 C   0  0  0  0  0  2  0  0  0  0  0  0
  1  3  1  0  0  0  0
  3 17  1  0  0  0  0
  3  2  2  0  0  0  0
  4  5  2  0  0  0  0
  5  2  1  0  0  0  0
  6  1  2  0  0  0  0
  6  4  1  0  0  0  0
  7 14  2  0  0  0  0
  8 10  1  0  0  0  0
  9  8  2  0  0  0  0
  9 18  1  0  0  0  0
 10 13  1  0  0  0  0
 10 11  2  0  0  0  0
 12 15  2  0  0  0  0
 12 17  1  0  0  0  0
 14 11  1  0  0  0  0
 15  9  1  0  0  0  0
 16  8  1  0  0  0  0
 16  7  1  0  0  0  0
 17 16  2  0  0  0  0
 18 13  2  0  0  0  0
 19  4  1  0  0  0  0
 19 21  2  0  0  0  0
 20 19  1  0  0  0  0
 22 20  1  0  0  0  0
 23 22  1  0  0  0  0
 24 25  1  0  0  0  0
 25 26  1  6  0  0  0
 25 23  1  0  0  0  0
 27  1  1  0  0  0  0
 28 27  1  0  0  0  0
 29 30  1  0  0  0  0
 30 28  1  0  0  0  0
M  END
>  <MODEL>
1

>  <REMARK>
 VINA RESULT:      -9.4      0.000      0.000
  Name = 
  8 active torsions:
  status: ('A' for Active; 'I' for Inactive)
    1  A    between atoms: C_2  and  C_4
    2  A    between atoms: C_2  and  C_21
    3  A    between atoms: C_3  and  C_9
    4  A    between atoms: C_3  and  C_19
    5  A    between atoms: C_4  and  N_27
    6  A    between atoms: C_11  and  C_19
    7  A    between atoms: C_16  and  C_18
    8  A    between atoms: C_17  and  C_29
                            x       y       z     vdW  Elec       q    Type
                         _______ _______ _______ _____ _____    ______ ____

>  <TORSDO>
F 8

$$$$
=
 OpenBabel11052410533D

 30 33  0  0  1  0  0  0  0  0999 V2000
  161.1340  207.1140  150.9280 C   0  0  0  0  0  0  0  0  0  0  0  0
  161.2250  204.9350  151.9930 C   0  0  0  0  0  3  0  0  0  0  0  0
  161.2060  205.7060  150.8210 C   0  0  0  0  0  0  0  0  0  0  0  0
  161.0910  206.9340  153.3580 C   0  0  0  0  0  0  0  0  0  0  0  0
  161.1670  205.5430  153.2480 C   0  0  0  0  0  3  0  0  0  0  0  0
  161.0790  207.7120  152.1930 C   0  0  0  0  0  3  0  0  0  0  0  0
  160.8180  202.6960  150.4470 C   0  0  0  0  0  3  0  0  0  0  0  0
  161.0880  203.0840  148.1330 C   0  0  0  0  0  0  0  0  0  0  0  0
  161.3180  203.7660  146.9980 C   0  0  0  0  0  0  0  0  0  0  0  0
  160.9310  201.7840  147.8480 C   0  0  0  0  0  0  0  0  0  0  0  0
  160.7130  200.8740  148.8310 N   0  0  0  0  0  0  0  0  0  0  0  0
  161.4960  205.7620  148.3210 C   0  0  0  0  0  3  0  0  0  0  0  0
  161.0580  201.5650  146.4420 N   0  0  0  0  0  0  0  0  0  0  0  0
  160.6520  201.3160  150.1330 C   0  0  0  0  0  3  0  0  0  0  0  0
  161.5330  205.1420  147.0450 C   0  0  0  0  0  3  0  0  0  0  0  0
  161.0450  203.6140  149.3990 C   0  0  0  0  0  0  0  0  0  0  0  0
  161.2570  205.0120  149.5130 C   0  0  0  0  0  0  0  0  0  0  0  0
  161.2900  202.7500  145.9270 C   0  0  0  0  0  3  0  0  0  0  0  0
  161.0320  207.5750  154.6820 C   0  0  0  0  0  0  0  0  0  0  0  0
  161.5120  208.9130  154.8530 N   0  0  0  0  0  2  0  0  0  0  0  0
  160.5610  206.9440  155.6690 O   0  0  0  0  0  0  0  0  0  0  0  0
  161.4540  209.6130  156.1290 C   0  0  0  0  0  2  0  0  0  0  0  0
  161.0050  211.0480  155.9160 C   0  0  0  0  0  2  0  0  0  0  0  0
  158.6660  210.6200  155.7280 O   0  0  0  0  0  1  0  0  0  0  0  0
  159.7780  211.0870  155.0250 C   0  0  1  0  0  3  0  0  0  0  0  0
  159.5280  212.5120  154.5810 C   0  0  0  0  0  1  0  0  0  0  0  0
  161.1500  208.0040  149.7260 C   0  0  0  0  0  2  0  0  0  0  0  0
  161.9980  209.2370  149.9930 C   0  0  0  0  0  2  0  0  0  0  0  0
  162.0590  211.5390  149.0370 C   0  0  0  0  0  1  0  0  0  0  0  0
  162.1530  210.0570  148.7250 C   0  0  0  0  0  2  0  0  0  0  0  0
  1  6  1  0  0  0  0
  2  5  2  0  0  0  0
  3  1  2  0  0  0  0
  3  2  1  0  0  0  0
  4 19  1  0  0  0  0
  5  4  1  0  0  0  0
  6  4  2  0  0  0  0
  8 16  1  0  0  0  0
  9 15  1  0  0  0  0
  9  8  2  0  0  0  0
 10  8  1  0  0  0  0
 10 11  2  0  0  0  0
 11 14  1  0  0  0  0
 12 17  1  0  0  0  0
 13 10  1  0  0  0  0
 14  7  2  0  0  0  0
 15 12  2  0  0  0  0
 16 17  2  0  0  0  0
 16  7  1  0  0  0  0
 17  3  1  0  0  0  0
 18 13  2  0  0  0  0
 18  9  1  0  0  0  0
 19 20  1  0  0  0  0
 19 21  2  0  0  0  0
 20 22  1  0  0  0  0
 23 22  1  0  0  0  0
 25 26  1  1  0  0  0
 25 24  1  0  0  0  0
 25 23  1  0  0  0  0
 27 28  1  0  0  0  0
 27  1  1  0  0  0  0
 30 29  1  0  0  0  0
 30 28  1  0  0  0  0
M  END
>  <MODEL>
2

>  <REMARK>
 VINA RESULT:      -9.3      2.916      8.369
  Name = 
  8 active torsions:
  status: ('A' for Active; 'I' for Inactive)
    1  A    between atoms: C_2  and  C_4
    2  A    between atoms: C_2  and  C_21
    3  A    between atoms: C_3  and  C_9
    4  A    between atoms: C_3  and  C_19
    5  A    between atoms: C_4  and  N_27
    6  A    between atoms: C_11  and  C_19
    7  A    between atoms: C_16  and  C_18
    8  A    between atoms: C_17  and  C_29
                            x       y       z     vdW  Elec       q    Type
                         _______ _______ _______ _____ _____    ______ ____

>  <TORSDO>
F 8

$$$$
=
 OpenBabel11052410533D

 30 33  0  0  1  0  0  0  0  0999 V2000
  161.7870  207.3700  150.8030 C   0  0  0  0  0  0  0  0  0  0  0  0
  161.3180  207.2660  148.4240 C   0  0  0  0  0  3  0  0  0  0  0  0
  161.4460  206.6130  149.6580 C   0  0  0  0  0  0  0  0  0  0  0  0
  161.8670  209.3940  149.4490 C   0  0  0  0  0  0  0  0  0  0  0  0
  161.5260  208.6420  148.3200 C   0  0  0  0  0  3  0  0  0  0  0  0
  161.9910  208.7500  150.6870 C   0  0  0  0  0  3  0  0  0  0  0  0
  161.5070  204.7650  147.2220 C   0  0  0  0  0  3  0  0  0  0  0  0
  161.0980  202.9900  148.7250 C   0  0  0  0  0  0  0  0  0  0  0  0
  160.8490  202.3720  149.8920 C   0  0  0  0  0  0  0  0  0  0  0  0
  161.1050  202.0860  147.7350 C   0  0  0  0  0  0  0  0  0  0  0  0
  161.3080  202.4620  146.4470 N   0  0  0  0  0  0  0  0  0  0  0  0
  160.9710  204.5160  150.9680 C   0  0  0  0  0  3  0  0  0  0  0  0
  160.8490  200.7800  148.2530 N   0  0  0  0  0  0  0  0  0  0  0  0
  161.5130  203.7960  146.1770 C   0  0  0  0  0  3  0  0  0  0  0  0
  160.7750  203.1140  151.0700 C   0  0  0  0  0  3  0  0  0  0  0  0
  161.2920  204.3390  148.5500 C   0  0  0  0  0  0  0  0  0  0  0  0
  161.2270  205.1480  149.7130 C   0  0  0  0  0  0  0  0  0  0  0  0
  160.6950  200.9450  149.5470 C   0  0  0  0  0  3  0  0  0  0  0  0
  162.0860  210.8460  149.3390 C   0  0  0  0  0  0  0  0  0  0  0  0
  162.6530  211.3970  148.1450 N   0  0  0  0  0  2  0  0  0  0  0  0
  161.7770  211.6060  150.2990 O   0  0  0  0  0  0  0  0  0  0  0  0
  162.8670  212.8260  147.9620 C   0  0  0  0  0  2  0  0  0  0  0  0
  162.0120  213.3380  146.8170 C   0  0  0  0  0  2  0  0  0  0  0  0
  159.7510  213.1470  147.5520 O   0  0  0  0  0  1  0  0  0  0  0  0
  160.7160  212.5540  146.7360 C   0  0  1  0  0  3  0  0  0  0  0  0
  160.2250  212.5440  145.3050 C   0  0  0  0  0  1  0  0  0  0  0  0
  161.9030  206.7510  152.1590 C   0  0  0  0  0  2  0  0  0  0  0  0
  161.0110  207.4790  153.1510 C   0  0  0  0  0  2  0  0  0  0  0  0
  160.2740  207.4540  155.5330 C   0  0  0  0  0  1  0  0  0  0  0  0
  160.7490  206.6080  154.3660 C   0  0  0  0  0  2  0  0  0  0  0  0
  1 27  1  0  0  0  0
  2  3  1  0  0  0  0
  3 17  1  0  0  0  0
  3  1  2  0  0  0  0
  4  6  2  0  0  0  0
  5  2  2  0  0  0  0
  5  4  1  0  0  0  0
  6  1  1  0  0  0  0
  7 16  1  0  0  0  0
  8  9  1  0  0  0  0
  9 15  2  0  0  0  0
 10 13  1  0  0  0  0
 10  8  1  0  0  0  0
 11 10  2  0  0  0  0
 12 15  1  0  0  0  0
 13 18  2  0  0  0  0
 14 11  1  0  0  0  0
 14  7  2  0  0  0  0
 16  8  2  0  0  0  0
 16 17  1  0  0  0  0
 17 12  2  0  0  0  0
 18  9  1  0  0  0  0
 19  4  1  0  0  0  0
 19 21  2  0  0  0  0
 20 19  1  0  0  0  0
 22 20  1  0  0  0  0
 23 22  1  0  0  0  0
 25 26  1  6  0  0  0
 25 23  1  0  0  0  0
 25 24  1  0  0  0  0
 27 28  1  0  0  0  0
 28 30  1  0  0  0  0
 30 29  1  0  0  0  0
M  END
>  <MODEL>
3

>  <REMARK>
 VINA RESULT:      -9.1      3.928      8.552
  Name = 
  8 active torsions:
  status: ('A' for Active; 'I' for Inactive)
    1  A    between atoms: C_2  and  C_4
    2  A    between atoms: C_2  and  C_21
    3  A    between atoms: C_3  and  C_9
    4  A    between atoms: C_3  and  C_19
    5  A    between atoms: C_4  and  N_27
    6  A    between atoms: C_11  and  C_19
    7  A    between atoms: C_16  and  C_18
    8  A    between atoms: C_17  and  C_29
                            x       y       z     vdW  Elec       q    Type
                         _______ _______ _______ _____ _____    ______ ____

>  <TORSDO>
F 8

$$$$
=
 OpenBabel11052410533D

 30 33  0  0  1  0  0  0  0  0999 V2000
  160.9450  205.8120  150.9300 C   0  0  0  0  0  0  0  0  0  0  0  0
  161.3790  208.1070  150.2690 C   0  0  0  0  0  3  0  0  0  0  0  0
  161.1280  207.1700  151.2810 C   0  0  0  0  0  0  0  0  0  0  0  0
  161.2590  206.3720  148.5790 C   0  0  0  0  0  0  0  0  0  0  0  0
  161.4430  207.7130  148.9310 C   0  0  0  0  0  3  0  0  0  0  0  0
  161.0140  205.4280  149.5850 C   0  0  0  0  0  3  0  0  0  0  0  0
  160.6330  210.0730  152.1040 C   0  0  0  0  0  3  0  0  0  0  0  0
  160.7300  209.3160  154.3400 C   0  0  0  0  0  0  0  0  0  0  0  0
  160.8880  208.4610  155.3640 C   0  0  0  0  0  0  0  0  0  0  0  0
  160.5170  210.5500  154.8170 C   0  0  0  0  0  0  0  0  0  0  0  0
  160.3530  211.6050  153.9800 N   0  0  0  0  0  0  0  0  0  0  0  0
  161.2210  206.7100  153.7550 C   0  0  0  0  0  3  0  0  0  0  0  0
  160.5270  210.5380  156.2460 N   0  0  0  0  0  0  0  0  0  0  0  0
  160.4070  211.3810  152.6230 C   0  0  0  0  0  3  0  0  0  0  0  0
  161.1410  207.1130  155.1130 C   0  0  0  0  0  3  0  0  0  0  0  0
  160.8000  208.9990  153.0050 C   0  0  0  0  0  0  0  0  0  0  0  0
  161.0570  207.6410  152.6850 C   0  0  0  0  0  0  0  0  0  0  0  0
  160.7480  209.2880  156.5790 C   0  0  0  0  0  3  0  0  0  0  0  0
  161.3270  205.9560  147.1680 C   0  0  0  0  0  0  0  0  0  0  0  0
  162.1070  204.8150  146.7940 N   0  0  0  0  0  2  0  0  0  0  0  0
  160.7030  206.6080  146.2860 O   0  0  0  0  0  0  0  0  0  0  0  0
  162.1930  204.3350  145.4220 C   0  0  0  0  0  2  0  0  0  0  0  0
  160.9240  203.5890  145.0520 C   0  0  0  0  0  2  0  0  0  0  0  0
  160.7730  202.1760  146.9670 O   0  0  0  0  0  1  0  0  0  0  0  0
  160.9730  202.1700  145.5860 C   0  0  1  0  0  3  0  0  0  0  0  0
  159.8860  201.3490  144.9270 C   0  0  0  0  0  1  0  0  0  0  0  0
  160.7130  204.7500  151.9560 C   0  0  0  0  0  2  0  0  0  0  0  0
  161.6970  203.6070  151.7650 C   0  0  0  0  0  2  0  0  0  0  0  0
  160.8650  201.7490  150.3260 C   0  0  0  0  0  1  0  0  0  0  0  0
  160.9660  202.2770  151.7460 C   0  0  0  0  0  2  0  0  0  0  0  0
  1  3  1  0  0  0  0
  1 27  1  0  0  0  0
  2  3  2  0  0  0  0
  3 17  1  0  0  0  0
  4  5  2  0  0  0  0
  4  6  1  0  0  0  0
  5  2  1  0  0  0  0
  6  1  2  0  0  0  0
  7 14  2  0  0  0  0
  7 16  1  0  0  0  0
  8 10  1  0  0  0  0
  8  9  1  0  0  0  0
  9 18  1  0  0  0  0
 10 13  1  0  0  0  0
 11 10  2  0  0  0  0
 12 15  1  0  0  0  0
 13 18  2  0  0  0  0
 14 11  1  0  0  0  0
 15  9  2  0  0  0  0
 16  8  2  0  0  0  0
 17 16  1  0  0  0  0
 17 12  2  0  0  0  0
 19  4  1  0  0  0  0
 20 19  1  0  0  0  0
 21 19  2  0  0  0  0
 22 20  1  0  0  0  0
 23 22  1  0  0  0  0
 23 25  1  0  0  0  0
 25 26  1  6  0  0  0
 25 24  1  0  0  0  0
 28 27  1  0  0  0  0
 29 30  1  0  0  0  0
 30 28  1  0  0  0  0
M  END
>  <MODEL>
4

>  <REMARK>
 VINA RESULT:      -9.1      1.525      3.676
  Name = 
  8 active torsions:
  status: ('A' for Active; 'I' for Inactive)
    1  A    between atoms: C_2  and  C_4
    2  A    between atoms: C_2  and  C_21
    3  A    between atoms: C_3  and  C_9
    4  A    between atoms: C_3  and  C_19
    5  A    between atoms: C_4  and  N_27
    6  A    between atoms: C_11  and  C_19
    7  A    between atoms: C_16  and  C_18
    8  A    between atoms: C_17  and  C_29
                            x       y       z     vdW  Elec       q    Type
                         _______ _______ _______ _____ _____    ______ ____

>  <TORSDO>
F 8

$$$$
=
 OpenBabel11052410533D

 30 33  0  0  1  0  0  0  0  0999 V2000
  161.6410  208.0620  150.3130 C   0  0  0  0  0  0  0  0  0  0  0  0
  161.2310  205.9870  151.5030 C   0  0  0  0  0  3  0  0  0  0  0  0
  161.4740  206.6580  150.2960 C   0  0  0  0  0  0  0  0  0  0  0  0
  161.3120  208.0790  152.7270 C   0  0  0  0  0  0  0  0  0  0  0  0
  161.1510  206.6900  152.7060 C   0  0  0  0  0  3  0  0  0  0  0  0
  161.5600  208.7560  151.5260 C   0  0  0  0  0  3  0  0  0  0  0  0
  160.8280  203.6760  150.1020 C   0  0  0  0  0  3  0  0  0  0  0  0
  161.2720  203.8650  147.7900 C   0  0  0  0  0  0  0  0  0  0  0  0
  161.6330  204.4380  146.6300 C   0  0  0  0  0  0  0  0  0  0  0  0
  161.0110  202.5670  147.5840 C   0  0  0  0  0  0  0  0  0  0  0  0
  160.6500  201.7550  148.6100 N   0  0  0  0  0  0  0  0  0  0  0  0
  161.9180  206.5030  147.8220 C   0  0  0  0  0  3  0  0  0  0  0  0
  161.2020  202.2350  146.2080 N   0  0  0  0  0  0  0  0  0  0  0  0
  160.5520  202.2970  149.8720 C   0  0  0  0  0  3  0  0  0  0  0  0
  161.9730  205.7900  146.5960 C   0  0  0  0  0  3  0  0  0  0  0  0
  161.2020  204.4900  149.0110 C   0  0  0  0  0  0  0  0  0  0  0  0
  161.5370  205.8680  149.0430 C   0  0  0  0  0  0  0  0  0  0  0  0
  161.5740  203.3530  145.6300 C   0  0  0  0  0  3  0  0  0  0  0  0
  161.2280  208.8200  153.9970 C   0  0  0  0  0  0  0  0  0  0  0  0
  161.3620  210.2450  154.0050 N   0  0  0  0  0  2  0  0  0  0  0  0
  161.0420  208.1980  155.0800 O   0  0  0  0  0  0  0  0  0  0  0  0
  161.2590  211.0380  155.2220 C   0  0  0  0  0  2  0  0  0  0  0  0
  160.0580  211.9640  155.1400 C   0  0  0  0  0  2  0  0  0  0  0  0
  157.9080  211.1300  155.7480 O   0  0  0  0  0  1  0  0  0  0  0  0
  158.8290  211.1920  154.7010 C   0  0  1  0  0  3  0  0  0  0  0  0
  158.1950  211.8910  153.5180 C   0  0  0  0  0  1  0  0  0  0  0  0
  161.9410  208.8410  149.0720 C   0  0  0  0  0  2  0  0  0  0  0  0
  162.3310  210.2680  149.4260 C   0  0  0  0  0  2  0  0  0  0  0  0
  163.0090  212.2850  148.1270 C   0  0  0  0  0  1  0  0  0  0  0  0
  161.9480  211.2150  148.3020 C   0  0  0  0  0  2  0  0  0  0  0  0
  1  6  1  0  0  0  0
  2  5  2  0  0  0  0
  3  1  2  0  0  0  0
  3  2  1  0  0  0  0
  4 19  1  0  0  0  0
  5  4  1  0  0  0  0
  6  4  2  0  0  0  0
  8 16  1  0  0  0  0
  9  8  2  0  0  0  0
 10  8  1  0  0  0  0
 10 11  2  0  0  0  0
 11 14  1  0  0  0  0
 12 17  1  0  0  0  0
 13 10  1  0  0  0  0
 14  7  2  0  0  0  0
 15  9  1  0  0  0  0
 15 12  2  0  0  0  0
 16 17  2  0  0  0  0
 16  7  1  0  0  0  0
 17  3  1  0  0  0  0
 18 13  2  0  0  0  0
 18  9  1  0  0  0  0
 19 20  1  0  0  0  0
 19 21  2  0  0  0  0
 20 22  1  0  0  0  0
 23 22  1  0  0  0  0
 25 26  1  6  0  0  0
 25 23  1  0  0  0  0
 25 24  1  0  0  0  0
 27 28  1  0  0  0  0
 27  1  1  0  0  0  0
 29 30  1  0  0  0  0
 30 28  1  0  0  0  0
M  END
>  <MODEL>
5

>  <REMARK>
 VINA RESULT:      -8.8      3.216      8.426
  Name = 
  8 active torsions:
  status: ('A' for Active; 'I' for Inactive)
    1  A    between atoms: C_2  and  C_4
    2  A    between atoms: C_2  and  C_21
    3  A    between atoms: C_3  and  C_9
    4  A    between atoms: C_3  and  C_19
    5  A    between atoms: C_4  and  N_27
    6  A    between atoms: C_11  and  C_19
    7  A    between atoms: C_16  and  C_18
    8  A    between atoms: C_17  and  C_29
                            x       y       z     vdW  Elec       q    Type
                         _______ _______ _______ _____ _____    ______ ____

>  <TORSDO>
F 8

$$$$
=
 OpenBabel11052410533D

 30 33  0  0  1  0  0  0  0  0999 V2000
  161.1880  206.9740  150.8670 C   0  0  0  0  0  0  0  0  0  0  0  0
  161.2130  205.5570  152.8370 C   0  0  0  0  0  3  0  0  0  0  0  0
  161.2400  206.8410  152.2740 C   0  0  0  0  0  0  0  0  0  0  0  0
  161.0930  204.5500  150.6350 C   0  0  0  0  0  0  0  0  0  0  0  0
  161.1410  204.4230  152.0270 C   0  0  0  0  0  3  0  0  0  0  0  0
  161.1130  205.8290  150.0640 C   0  0  0  0  0  3  0  0  0  0  0  0
  160.3930  206.8240  155.2120 C   0  0  0  0  0  3  0  0  0  0  0  0
  161.0930  209.0790  155.2890 C   0  0  0  0  0  0  0  0  0  0  0  0
  161.5670  210.2560  154.8480 C   0  0  0  0  0  0  0  0  0  0  0  0
  160.7590  209.1890  156.5820 C   0  0  0  0  0  0  0  0  0  0  0  0
  160.2270  208.1390  157.2590 N   0  0  0  0  0  0  0  0  0  0  0  0
  161.8430  209.2510  152.6840 C   0  0  0  0  0  3  0  0  0  0  0  0
  161.0200  210.5120  157.0510 N   0  0  0  0  0  0  0  0  0  0  0  0
  160.0410  206.9520  156.5870 C   0  0  0  0  0  3  0  0  0  0  0  0
  161.9640  210.3930  153.5180 C   0  0  0  0  0  3  0  0  0  0  0  0
  160.9420  207.9370  154.5400 C   0  0  0  0  0  0  0  0  0  0  0  0
  161.3290  208.0130  153.1770 C   0  0  0  0  0  0  0  0  0  0  0  0
  161.5060  211.1570  156.0160 C   0  0  0  0  0  3  0  0  0  0  0  0
  161.0160  203.3530  149.7800 C   0  0  0  0  0  0  0  0  0  0  0  0
  161.1470  203.4770  148.3600 N   0  0  0  0  0  2  0  0  0  0  0  0
  160.8310  202.2170  150.2990 O   0  0  0  0  0  0  0  0  0  0  0  0
  161.1100  202.3310  147.4630 C   0  0  0  0  0  2  0  0  0  0  0  0
  161.2080  202.7950  146.0210 C   0  0  0  0  0  2  0  0  0  0  0  0
  162.9840  204.3460  145.6620 O   0  0  0  0  0  1  0  0  0  0  0  0
  161.6240  204.2520  145.9640 C   0  0  1  0  0  3  0  0  0  0  0  0
  160.8240  204.9610  144.8930 C   0  0  0  0  0  1  0  0  0  0  0  0
  161.1720  208.3090  150.1950 C   0  0  0  0  0  2  0  0  0  0  0  0
  161.9930  208.2670  148.9150 C   0  0  0  0  0  2  0  0  0  0  0  0
  161.9560  210.6840  149.5250 C   0  0  0  0  0  1  0  0  0  0  0  0
  162.3270  209.6740  148.4540 C   0  0  0  0  0  2  0  0  0  0  0  0
  1  3  1  0  0  0  0
  3  2  2  0  0  0  0
  3 17  1  0  0  0  0
  4  5  2  0  0  0  0
  5  2  1  0  0  0  0
  6  4  1  0  0  0  0
  6  1  2  0  0  0  0
  7 14  2  0  0  0  0
  8 10  1  0  0  0  0
  9  8  1  0  0  0  0
  9 18  1  0  0  0  0
 10 13  1  0  0  0  0
 10 11  2  0  0  0  0
 12 17  2  0  0  0  0
 12 15  1  0  0  0  0
 14 11  1  0  0  0  0
 15  9  2  0  0  0  0
 16  7  1  0  0  0  0
 16  8  2  0  0  0  0
 17 16  1  0  0  0  0
 18 13  2  0  0  0  0
 19 21  2  0  0  0  0
 19  4  1  0  0  0  0
 20 19  1  0  0  0  0
 22 20  1  0  0  0  0
 23 22  1  0  0  0  0
 24 25  1  0  0  0  0
 25 26  1  6  0  0  0
 25 23  1  0  0  0  0
 27  1  1  0  0  0  0
 28 27  1  0  0  0  0
 30 28  1  0  0  0  0
 30 29  1  0  0  0  0
M  END
>  <MODEL>
6

>  <REMARK>
 VINA RESULT:      -8.6      1.446      2.104
  Name = 
  8 active torsions:
  status: ('A' for Active; 'I' for Inactive)
    1  A    between atoms: C_2  and  C_4
    2  A    between atoms: C_2  and  C_21
    3  A    between atoms: C_3  and  C_9
    4  A    between atoms: C_3  and  C_19
    5  A    between atoms: C_4  and  N_27
    6  A    between atoms: C_11  and  C_19
    7  A    between atoms: C_16  and  C_18
    8  A    between atoms: C_17  and  C_29
                            x       y       z     vdW  Elec       q    Type
                         _______ _______ _______ _____ _____    ______ ____

>  <TORSDO>
F 8

$$$$
=
 OpenBabel11052410533D

 30 33  0  0  1  0  0  0  0  0999 V2000
  161.8120  208.3680  152.2720 C   0  0  0  0  0  0  0  0  0  0  0  0
  160.6470  207.1270  154.0030 C   0  0  0  0  0  3  0  0  0  0  0  0
  161.1690  208.3400  153.5320 C   0  0  0  0  0  0  0  0  0  0  0  0
  161.3980  205.9820  152.0020 C   0  0  0  0  0  0  0  0  0  0  0  0
  160.7600  205.9590  153.2460 C   0  0  0  0  0  3  0  0  0  0  0  0
  161.9170  207.1900  151.5210 C   0  0  0  0  0  3  0  0  0  0  0  0
  159.3550  210.7120  152.8770 C   0  0  0  0  0  3  0  0  0  0  0  0
  160.0940  211.6670  154.9070 C   0  0  0  0  0  0  0  0  0  0  0  0
  160.7900  211.7910  156.0490 C   0  0  0  0  0  0  0  0  0  0  0  0
  159.3360  212.7570  154.7260 C   0  0  0  0  0  0  0  0  0  0  0  0
  158.5540  212.8900  153.6240 N   0  0  0  0  0  0  0  0  0  0  0  0
  161.7810  209.6520  155.5930 C   0  0  0  0  0  3  0  0  0  0  0  0
  159.5220  213.6760  155.8040 N   0  0  0  0  0  0  0  0  0  0  0  0
  158.5530  211.8750  152.6940 C   0  0  0  0  0  3  0  0  0  0  0  0
  161.6690  210.7830  156.4430 C   0  0  0  0  0  3  0  0  0  0  0  0
  160.1570  210.6080  154.0340 C   0  0  0  0  0  0  0  0  0  0  0  0
  161.0350  209.5490  154.3790 C   0  0  0  0  0  0  0  0  0  0  0  0
  160.3930  213.1020  156.6010 C   0  0  0  0  0  3  0  0  0  0  0  0
  161.5160  204.7500  151.2030 C   0  0  0  0  0  0  0  0  0  0  0  0
  161.1570  204.7570  149.8170 N   0  0  0  0  0  2  0  0  0  0  0  0
  161.9300  203.6850  151.7410 O   0  0  0  0  0  0  0  0  0  0  0  0
  161.2790  203.5820  148.9660 C   0  0  0  0  0  2  0  0  0  0  0  0
  161.2190  203.9890  147.5040 C   0  0  0  0  0  2  0  0  0  0  0  0
  163.0170  205.1820  146.4880 O   0  0  0  0  0  1  0  0  0  0  0  0
  161.8940  205.3320  147.3040 C   0  0  1  0  0  3  0  0  0  0  0  0
  160.9220  206.2880  146.6470 C   0  0  0  0  0  1  0  0  0  0  0  0
  162.3580  209.6300  151.6870 C   0  0  0  0  0  2  0  0  0  0  0  0
  161.9650  209.7480  150.2230 C   0  0  0  0  0  2  0  0  0  0  0  0
  162.2070  211.3840  148.3580 C   0  0  0  0  0  1  0  0  0  0  0  0
  161.8490  211.2070  149.8220 C   0  0  0  0  0  2  0  0  0  0  0  0
  1  3  1  0  0  0  0
  3  2  2  0  0  0  0
  3 17  1  0  0  0  0
  4  5  2  0  0  0  0
  5  2  1  0  0  0  0
  6  4  1  0  0  0  0
  6  1  2  0  0  0  0
  7 16  1  0  0  0  0
  8  9  1  0  0  0  0
  9 15  2  0  0  0  0
  9 18  1  0  0  0  0
 10  8  1  0  0  0  0
 10 13  1  0  0  0  0
 11 10  2  0  0  0  0
 12 15  1  0  0  0  0
 13 18  2  0  0  0  0
 14  7  2  0  0  0  0
 14 11  1  0  0  0  0
 16 17  1  0  0  0  0
 16  8  2  0  0  0  0
 17 12  2  0  0  0  0
 19 21  2  0  0  0  0
 19  4  1  0  0  0  0
 20 19  1  0  0  0  0
 22 20  1  0  0  0  0
 23 22  1  0  0  0  0
 24 25  1  0  0  0  0
 25 26  1  6  0  0  0
 25 23  1  0  0  0  0
 27  1  1  0  0  0  0
 28 27  1  0  0  0  0
 29 30  1  0  0  0  0
 30 28  1  0  0  0  0
M  END
>  <MODEL>
7

>  <REMARK>
 VINA RESULT:      -8.4      2.285      3.986
  Name = 
  8 active torsions:
  status: ('A' for Active; 'I' for Inactive)
    1  A    between atoms: C_2  and  C_4
    2  A    between atoms: C_2  and  C_21
    3  A    between atoms: C_3  and  C_9
    4  A    between atoms: C_3  and  C_19
    5  A    between atoms: C_4  and  N_27
    6  A    between atoms: C_11  and  C_19
    7  A    between atoms: C_16  and  C_18
    8  A    between atoms: C_17  and  C_29
                            x       y       z     vdW  Elec       q    Type
                         _______ _______ _______ _____ _____    ______ ____

>  <TORSDO>
F 8

$$$$
=
 OpenBabel11052410533D

 30 33  0  0  1  0  0  0  0  0999 V2000
  161.2040  206.2640  151.5760 C   0  0  0  0  0  0  0  0  0  0  0  0
  161.2730  206.9590  149.2520 C   0  0  0  0  0  3  0  0  0  0  0  0
  161.1930  205.9310  150.2020 C   0  0  0  0  0  0  0  0  0  0  0  0
  161.3820  208.6270  151.0090 C   0  0  0  0  0  0  0  0  0  0  0  0
  161.3670  208.2940  149.6510 C   0  0  0  0  0  3  0  0  0  0  0  0
  161.2970  207.6070  151.9640 C   0  0  0  0  0  3  0  0  0  0  0  0
  161.4360  205.0820  147.2750 C   0  0  0  0  0  3  0  0  0  0  0  0
  161.1800  202.8610  148.0360 C   0  0  0  0  0  0  0  0  0  0  0  0
  160.9810  201.8510  148.8990 C   0  0  0  0  0  0  0  0  0  0  0  0
  161.2740  202.3720  146.7920 C   0  0  0  0  0  0  0  0  0  0  0  0
  161.4510  203.1970  145.7280 N   0  0  0  0  0  0  0  0  0  0  0  0
  160.9020  203.4730  150.6670 C   0  0  0  0  0  3  0  0  0  0  0  0
  161.1340  200.9510  146.8050 N   0  0  0  0  0  0  0  0  0  0  0  0
  161.5350  204.5520  145.9560 C   0  0  0  0  0  3  0  0  0  0  0  0
  160.8330  202.1160  150.2600 C   0  0  0  0  0  3  0  0  0  0  0  0
  161.2520  204.1950  148.3570 C   0  0  0  0  0  0  0  0  0  0  0  0
  161.1070  204.5300  149.7280 C   0  0  0  0  0  0  0  0  0  0  0  0
  160.9590  200.6320  148.0660 C   0  0  0  0  0  3  0  0  0  0  0  0
  161.4810  210.0350  151.4290 C   0  0  0  0  0  0  0  0  0  0  0  0
  160.3970  210.6500  152.1340 N   0  0  0  0  0  2  0  0  0  0  0  0
  162.5190  210.7030  151.1640 O   0  0  0  0  0  0  0  0  0  0  0  0
  160.4440  212.0280  152.6030 C   0  0  0  0  0  2  0  0  0  0  0  0
  159.4400  212.2310  153.7230 C   0  0  0  0  0  2  0  0  0  0  0  0
  160.2060  212.8470  155.8960 O   0  0  0  0  0  1  0  0  0  0  0  0
  160.0210  211.7580  155.0420 C   0  0  1  0  0  3  0  0  0  0  0  0
  159.0670  210.7740  155.6850 C   0  0  0  0  0  1  0  0  0  0  0  0
  161.0820  205.2270  152.6460 C   0  0  0  0  0  2  0  0  0  0  0  0
  161.5320  205.7920  153.9840 C   0  0  0  0  0  2  0  0  0  0  0  0
  160.8840  207.5660  155.6110 C   0  0  0  0  0  1  0  0  0  0  0  0
  160.3740  206.4770  154.6860 C   0  0  0  0  0  2  0  0  0  0  0  0
  1  6  1  0  0  0  0
  1 27  1  0  0  0  0
  2  5  2  0  0  0  0
  2  3  1  0  0  0  0
  3  1  2  0  0  0  0
  4 19  1  0  0  0  0
  4  6  2  0  0  0  0
  5  4  1  0  0  0  0
  7 16  1  0  0  0  0
  8 16  2  0  0  0  0
  8  9  1  0  0  0  0
  9 15  2  0  0  0  0
 10 13  1  0  0  0  0
 10  8  1  0  0  0  0
 11 14  1  0  0  0  0
 11 10  2  0  0  0  0
 13 18  2  0  0  0  0
 14  7  2  0  0  0  0
 15 12  1  0  0  0  0
 16 17  1  0  0  0  0
 17  3  1  0  0  0  0
 17 12  2  0  0  0  0
 18  9  1  0  0  0  0
 19 20  1  0  0  0  0
 20 22  1  0  0  0  0
 21 19  2  0  0  0  0
 22 23  1  0  0  0  0
 23 25  1  0  0  0  0
 25 26  1  1  0  0  0
 25 24  1  0  0  0  0
 27 28  1  0  0  0  0
 28 30  1  0  0  0  0
 30 29  1  0  0  0  0
M  END
>  <MODEL>
8

>  <REMARK>
 VINA RESULT:      -8.3      3.309      9.180
  Name = 
  8 active torsions:
  status: ('A' for Active; 'I' for Inactive)
    1  A    between atoms: C_2  and  C_4
    2  A    between atoms: C_2  and  C_21
    3  A    between atoms: C_3  and  C_9
    4  A    between atoms: C_3  and  C_19
    5  A    between atoms: C_4  and  N_27
    6  A    between atoms: C_11  and  C_19
    7  A    between atoms: C_16  and  C_18
    8  A    between atoms: C_17  and  C_29
                            x       y       z     vdW  Elec       q    Type
                         _______ _______ _______ _____ _____    ______ ____

>  <TORSDO>
F 8

$$$$
=
 OpenBabel11052410533D

 30 33  0  0  1  0  0  0  0  0999 V2000
  161.2160  204.5030  148.8740 C   0  0  0  0  0  0  0  0  0  0  0  0
  161.1940  206.8640  148.3140 C   0  0  0  0  0  3  0  0  0  0  0  0
  161.2060  205.8560  149.2870 C   0  0  0  0  0  0  0  0  0  0  0  0
  161.1930  205.2090  146.5420 C   0  0  0  0  0  0  0  0  0  0  0  0
  161.1870  206.5450  146.9550 C   0  0  0  0  0  3  0  0  0  0  0  0
  161.2110  204.1950  147.5080 C   0  0  0  0  0  3  0  0  0  0  0  0
  161.7330  208.6900  150.3030 C   0  0  0  0  0  3  0  0  0  0  0  0
  161.3730  207.8360  152.4760 C   0  0  0  0  0  0  0  0  0  0  0  0
  161.1290  206.9310  153.4380 C   0  0  0  0  0  0  0  0  0  0  0  0
  161.5850  209.0360  153.0350 C   0  0  0  0  0  0  0  0  0  0  0  0
  161.8810  210.1190  152.2740 N   0  0  0  0  0  0  0  0  0  0  0  0
  160.9300  205.2650  151.7200 C   0  0  0  0  0  3  0  0  0  0  0  0
  161.4770  208.9470  154.4570 N   0  0  0  0  0  0  0  0  0  0  0  0
  161.9560  209.9610  150.9080 C   0  0  0  0  0  3  0  0  0  0  0  0
  160.8960  205.5990  153.0990 C   0  0  0  0  0  3  0  0  0  0  0  0
  161.4280  207.5850  151.1260 C   0  0  0  0  0  0  0  0  0  0  0  0
  161.2000  206.2460  150.7170 C   0  0  0  0  0  0  0  0  0  0  0  0
  161.2030  207.6870  154.7040 C   0  0  0  0  0  3  0  0  0  0  0  0
  161.1870  204.8720  145.1080 C   0  0  0  0  0  0  0  0  0  0  0  0
  161.3240  205.9070  144.1290 N   0  0  0  0  0  2  0  0  0  0  0  0
  161.0560  203.6720  144.7420 O   0  0  0  0  0  0  0  0  0  0  0  0
  161.3560  205.6380  142.6980 C   0  0  0  0  0  2  0  0  0  0  0  0
  162.3310  206.5790  142.0120 C   0  0  0  0  0  2  0  0  0  0  0  0
  161.9380  208.2840  140.3920 O   0  0  0  0  0  1  0  0  0  0  0  0
  161.8470  206.9090  140.6130 C   0  0  1  0  0  3  0  0  0  0  0  0
  162.7050  206.1820  139.6010 C   0  0  0  0  0  1  0  0  0  0  0  0
  161.2690  203.3740  149.8520 C   0  0  0  0  0  2  0  0  0  0  0  0
  160.3360  202.2540  149.4180 C   0  0  0  0  0  2  0  0  0  0  0  0
  161.2340  200.5770  147.8060 C   0  0  0  0  0  1  0  0  0  0  0  0
  161.1040  200.9530  149.2710 C   0  0  0  0  0  2  0  0  0  0  0  0
  1  3  1  0  0  0  0
  1 27  1  0  0  0  0
  2  3  2  0  0  0  0
  3 17  1  0  0  0  0
  4  5  2  0  0  0  0
  4  6  1  0  0  0  0
  5  2  1  0  0  0  0
  6  1  2  0  0  0  0
  7 14  2  0  0  0  0
  7 16  1  0  0  0  0
  8 10  1  0  0  0  0
  8  9  1  0  0  0  0
  9 18  1  0  0  0  0
 10 13  1  0  0  0  0
 11 10  2  0  0  0  0
 12 15  1  0  0  0  0
 13 18  2  0  0  0  0
 14 11  1  0  0  0  0
 15  9  2  0  0  0  0
 16  8  2  0  0  0  0
 17 16  1  0  0  0  0
 17 12  2  0  0  0  0
 19  4  1  0  0  0  0
 20 19  1  0  0  0  0
 21 19  2  0  0  0  0
 22 20  1  0  0  0  0
 23 22  1  0  0  0  0
 24 25  1  0  0  0  0
 25 26  1  6  0  0  0
 25 23  1  0  0  0  0
 28 27  1  0  0  0  0
 29 30  1  0  0  0  0
 30 28  1  0  0  0  0
M  END
>  <MODEL>
9

>  <REMARK>
 VINA RESULT:      -7.8      2.769      4.961
  Name = 
  8 active torsions:
  status: ('A' for Active; 'I' for Inactive)
    1  A    between atoms: C_2  and  C_4
    2  A    between atoms: C_2  and  C_21
    3  A    between atoms: C_3  and  C_9
    4  A    between atoms: C_3  and  C_19
    5  A    between atoms: C_4  and  N_27
    6  A    between atoms: C_11  and  C_19
    7  A    between atoms: C_16  and  C_18
    8  A    between atoms: C_17  and  C_29
                            x       y       z     vdW  Elec       q    Type
                         _______ _______ _______ _____ _____    ______ ____

>  <TORSDO>
F 8

$$$$
