=
 OpenBabel11052411413D

 42 45  0  0  1  0  0  0  0  0999 V2000
  161.2330  206.9330  150.1320 C   0  0  1  0  0  3  0  0  0  0  0  0
  161.9070  208.2690  148.1670 C   0  0  0  0  0  3  0  0  0  0  0  0
  161.6760  209.3640  150.2920 N   0  0  0  0  0  0  0  0  0  0  0  0
  161.4430  207.1170  148.6510 C   0  0  0  0  0  3  0  0  0  0  0  0
  160.8340  208.2670  150.7790 C   0  0  2  0  0  3  0  0  0  0  0  0
  162.1430  209.4040  149.0760 C   0  0  0  0  0  0  0  0  0  0  0  0
  161.0530  208.0480  155.1180 C   0  0  0  0  0  0  0  0  0  0  0  0
  161.3390  207.0270  152.9060 C   0  0  0  0  0  3  0  0  0  0  0  0
  160.6030  209.2020  154.4590 C   0  0  0  0  0  0  0  0  0  0  0  0
  161.4190  206.9520  154.3120 C   0  0  0  0  0  3  0  0  0  0  0  0
  160.2090  210.3660  155.0010 N   0  0  0  0  0  0  0  0  0  0  0  0
  160.8910  208.2010  152.2770 C   0  0  0  0  0  0  0  0  0  0  0  0
  159.3950  212.5070  154.0110 C   0  0  0  0  0  1  0  0  0  0  0  0
  160.5260  209.2750  153.0970 C   0  0  0  0  0  0  0  0  0  0  0  0
  159.8960  211.1120  153.9110 C   0  0  0  0  0  0  0  0  0  0  0  0
  160.0760  210.4830  152.7210 N   0  0  0  0  0  2  0  0  0  0  0  0
  160.3490  207.2460  157.2490 O   0  0  0  0  0  0  0  0  0  0  0  0
  162.1600  208.6400  157.2600 O   0  0  0  0  0  1  0  0  0  0  0  0
  161.1580  207.9520  156.5870 C   0  0  0  0  0  0  0  0  0  0  0  0
  162.4710  211.6790  148.1980 C   0  0  0  0  0  3  0  0  0  0  0  0
  162.9100  210.5220  148.6000 N   0  0  0  0  0  0  0  0  0  0  0  0
  160.1650  214.2680  148.0550 C   0  0  0  0  0  2  0  0  0  0  0  0
  161.0250  212.0630  148.1290 C   0  0  1  0  0  3  0  0  0  0  0  0
  160.7930  213.2650  148.9910 C   0  0  0  0  0  2  0  0  0  0  0  0
  159.5110  211.9330  146.3060 F   0  0  0  0  0  0  0  0  0  0  0  0
  160.6830  212.5360  146.7300 C   0  0  1  0  0  3  0  0  0  0  0  0
  160.5190  213.9310  146.7390 O   0  0  0  0  0  0  0  0  0  0  0  0
  160.1720  205.8700  150.3940 C   0  0  0  0  0  2  0  0  0  0  0  0
  161.9140  204.2270  151.3030 C   0  0  0  0  0  1  0  0  0  0  0  0
  160.2450  203.5900  149.6160 N   0  0  0  0  0  0  0  0  0  0  0  0
  160.7620  204.4990  150.3920 C   0  0  0  0  0  0  0  0  0  0  0  0
  160.6530  202.2200  149.4760 C   0  0  0  0  0  0  0  0  0  0  0  0
  160.3870  201.3560  150.3540 O   0  0  0  0  0  0  0  0  0  0  0  0
  161.4080  201.8130  148.2580 C   0  0  0  0  0  2  0  0  0  0  0  0
  160.9380  202.6210  147.0510 C   0  0  2  0  0  3  0  0  0  0  0  0
  159.6130  201.8440  145.2040 O   0  0  0  0  0  1  0  0  0  0  0  0
  161.0830  200.2700  146.1950 C   0  0  0  0  0  1  0  0  0  0  0  0
  160.8640  201.7260  145.8140 C   0  0  2  0  0  3  0  0  0  0  0  0
  161.8950  203.7870  146.8070 C   0  0  0  0  0  2  0  0  0  0  0  0
  161.1770  204.9940  146.2230 C   0  0  0  0  0  2  0  0  0  0  0  0
  162.0030  205.6270  145.2100 N   0  0  0  0  0  2  0  0  0  0  0  0
  161.3690  205.3610  143.9330 C   0  0  0  0  0  1  0  0  0  0  0  0
  1 28  1  6  0  0  0
  1  5  1  0  0  0  0
  2  4  2  0  0  0  0
  2  6  1  0  0  0  0
  3  5  1  0  0  0  0
  4  1  1  0  0  0  0
  5 12  1  1  0  0  0
  6  3  2  0  0  0  0
  7 19  1  0  0  0  0
  8 10  1  0  0  0  0
  9 11  1  0  0  0  0
  9  7  1  0  0  0  0
 10  7  2  0  0  0  0
 12  8  2  0  0  0  0
 12 14  1  0  0  0  0
 14  9  2  0  0  0  0
 15 13  1  0  0  0  0
 15 11  2  0  0  0  0
 16 14  1  0  0  0  0
 16 15  1  0  0  0  0
 19 17  2  0  0  0  0
 19 18  1  0  0  0  0
 20 21  2  0  0  0  0
 21  6  1  0  0  0  0
 22 24  1  0  0  0  0
 23 20  1  6  0  0  0
 23 24  1  0  0  0  0
 26 25  1  1  0  0  0
 26 27  1  0  0  0  0
 26 23  1  0  0  0  0
 27 22  1  0  0  0  0
 30 31  2  0  0  0  0
 31 28  1  0  0  0  0
 31 29  1  0  0  0  0
 32 30  1  0  0  0  0
 32 33  2  0  0  0  0
 34 32  1  0  0  0  0
 35 39  1  6  0  0  0
 35 34  1  0  0  0  0
 36 38  1  0  0  0  0
 38 37  1  1  0  0  0
 38 35  1  0  0  0  0
 40 39  1  0  0  0  0
 41 40  1  0  0  0  0
 42 41  1  0  0  0  0
M  END
>  <MODEL>
1

>  <REMARK>
 VINA RESULT:      -7.6      0.000      0.000
  Name = 
  13 active torsions:
  status: ('A' for Active; 'I' for Inactive)
    1  A    between atoms: C_1  and  C_27
    2  A    between atoms: C_3  and  C_22
    3  A    between atoms: N_6  and  C_21
    4  A    between atoms: C_7  and  C_9
    5  A    between atoms: C_15  and  C_25
    6  A    between atoms: C_15  and  C_36
    7  A    between atoms: C_16  and  C_21
    8  A    between atoms: C_16  and  C_25
    9  A    between atoms: C_18  and  C_32
   10  A    between atoms: N_20  and  C_26
   11  A    between atoms: C_22  and  C_34
   12  A    between atoms: C_25  and  C_35
   13  A    between atoms: N_30  and  C_36
                            x       y       z     vdW  Elec       q    Type
                         _______ _______ _______ _____ _____    ______ ____

>  <TORSDO>
F 13

$$$$
=
 OpenBabel11052411413D

 42 45  0  0  1  0  0  0  0  0999 V2000
  160.7590  208.6490  152.0200 C   0  0  1  0  0  3  0  0  0  0  0  0
  161.1990  208.3680  154.4340 C   0  0  0  0  0  3  0  0  0  0  0  0
  161.8990  210.3960  153.3540 N   0  0  0  0  0  0  0  0  0  0  0  0
  160.8170  207.8230  153.2790 C   0  0  0  0  0  3  0  0  0  0  0  0
  161.8470  209.7320  152.0480 C   0  0  2  0  0  3  0  0  0  0  0  0
  161.6460  209.7720  154.4700 C   0  0  0  0  0  0  0  0  0  0  0  0
  161.2820  212.6350  148.8570 C   0  0  0  0  0  0  0  0  0  0  0  0
  162.4100  210.6630  149.7820 C   0  0  0  0  0  3  0  0  0  0  0  0
  160.5470  212.6980  150.0510 C   0  0  0  0  0  0  0  0  0  0  0  0
  162.2270  211.5960  148.7410 C   0  0  0  0  0  3  0  0  0  0  0  0
  159.5950  213.5810  150.3930 N   0  0  0  0  0  0  0  0  0  0  0  0
  161.6520  210.7480  150.9620 C   0  0  0  0  0  0  0  0  0  0  0  0
  158.1860  213.8490  152.4350 C   0  0  0  0  0  1  0  0  0  0  0  0
  160.7240  211.7930  151.0590 C   0  0  0  0  0  0  0  0  0  0  0  0
  159.2310  213.1620  151.6320 C   0  0  0  0  0  0  0  0  0  0  0  0
  159.8970  212.0680  152.0810 N   0  0  0  0  0  2  0  0  0  0  0  0
  161.9890  214.4410  147.4720 O   0  0  0  0  0  1  0  0  0  0  0  0
  159.9330  213.5660  146.9940 O   0  0  0  0  0  0  0  0  0  0  0  0
  161.0980  213.5930  147.7500 C   0  0  0  0  0  0  0  0  0  0  0  0
  161.0530  211.4050  156.2110 C   0  0  0  0  0  3  0  0  0  0  0  0
  161.7690  210.4250  155.7430 N   0  0  0  0  0  0  0  0  0  0  0  0
  157.6500  212.0700  156.0630 C   0  0  0  0  0  2  0  0  0  0  0  0
  159.9410  212.0780  155.4660 C   0  0  1  0  0  3  0  0  0  0  0  0
  158.7330  211.1940  155.4810 C   0  0  0  0  0  2  0  0  0  0  0  0
  159.3940  214.3830  155.3240 F   0  0  0  0  0  0  0  0  0  0  0  0
  159.5030  213.3240  156.2090 C   0  0  1  0  0  3  0  0  0  0  0  0
  158.2570  213.0880  156.8160 O   0  0  0  0  0  0  0  0  0  0  0  0
  160.9170  207.7610  150.7900 C   0  0  0  0  0  2  0  0  0  0  0  0
  162.8080  206.2760  151.6780 C   0  0  0  0  0  1  0  0  0  0  0  0
  160.6090  205.3840  151.0400 N   0  0  0  0  0  0  0  0  0  0  0  0
  161.4120  206.4020  151.1610 C   0  0  0  0  0  0  0  0  0  0  0  0
  160.8820  204.0080  151.3510 C   0  0  0  0  0  0  0  0  0  0  0  0
  160.5620  203.5040  152.4610 O   0  0  0  0  0  0  0  0  0  0  0  0
  161.5600  203.1590  150.3330 C   0  0  0  0  0  2  0  0  0  0  0  0
  160.8290  203.2530  148.9960 C   0  0  2  0  0  3  0  0  0  0  0  0
  161.0960  200.8800  149.2560 O   0  0  0  0  0  1  0  0  0  0  0  0
  160.7860  201.6780  147.0460 C   0  0  0  0  0  1  0  0  0  0  0  0
  160.4300  201.8580  148.5140 C   0  0  2  0  0  3  0  0  0  0  0  0
  161.7260  203.9350  147.9640 C   0  0  0  0  0  2  0  0  0  0  0  0
  161.1840  205.2950  147.5550 C   0  0  0  0  0  2  0  0  0  0  0  0
  161.5840  205.6050  146.1930 N   0  0  0  0  0  2  0  0  0  0  0  0
  160.4180  206.1650  145.5360 C   0  0  0  0  0  1  0  0  0  0  0  0
  1 28  1  6  0  0  0
  1  5  1  0  0  0  0
  1  4  1  0  0  0  0
  2  6  1  0  0  0  0
  3  6  2  0  0  0  0
  4  2  2  0  0  0  0
  5 12  1  6  0  0  0
  5  3  1  0  0  0  0
  6 21  1  0  0  0  0
  7  9  1  0  0  0  0
  8 12  2  0  0  0  0
  9 11  1  0  0  0  0
  9 14  2  0  0  0  0
 10  7  2  0  0  0  0
 10  8  1  0  0  0  0
 11 15  2  0  0  0  0
 12 14  1  0  0  0  0
 14 16  1  0  0  0  0
 15 16  1  0  0  0  0
 15 13  1  0  0  0  0
 17 19  1  0  0  0  0
 18 19  2  0  0  0  0
 19  7  1  0  0  0  0
 21 20  2  0  0  0  0
 22 27  1  0  0  0  0
 23 24  1  0  0  0  0
 23 26  1  0  0  0  0
 23 20  1  1  0  0  0
 24 22  1  0  0  0  0
 26 25  1  6  0  0  0
 26 27  1  0  0  0  0
 28 31  1  0  0  0  0
 30 31  2  0  0  0  0
 30 32  1  0  0  0  0
 31 29  1  0  0  0  0
 32 33  2  0  0  0  0
 34 32  1  0  0  0  0
 35 39  1  6  0  0  0
 35 34  1  0  0  0  0
 38 37  1  6  0  0  0
 38 35  1  0  0  0  0
 38 36  1  0  0  0  0
 40 39  1  0  0  0  0
 41 40  1  0  0  0  0
 42 41  1  0  0  0  0
M  END
>  <MODEL>
2

>  <REMARK>
 VINA RESULT:      -7.2      2.614      5.809
  Name = 
  13 active torsions:
  status: ('A' for Active; 'I' for Inactive)
    1  A    between atoms: C_1  and  C_27
    2  A    between atoms: C_3  and  C_22
    3  A    between atoms: N_6  and  C_21
    4  A    between atoms: C_7  and  C_9
    5  A    between atoms: C_15  and  C_25
    6  A    between atoms: C_15  and  C_36
    7  A    between atoms: C_16  and  C_21
    8  A    between atoms: C_16  and  C_25
    9  A    between atoms: C_18  and  C_32
   10  A    between atoms: N_20  and  C_26
   11  A    between atoms: C_22  and  C_34
   12  A    between atoms: C_25  and  C_35
   13  A    between atoms: N_30  and  C_36
                            x       y       z     vdW  Elec       q    Type
                         _______ _______ _______ _____ _____    ______ ____

>  <TORSDO>
F 13

$$$$
=
 OpenBabel11052411413D

 42 45  0  0  1  0  0  0  0  0999 V2000
  162.0550  209.1460  149.6990 C   0  0  1  0  0  3  0  0  0  0  0  0
  161.8610  209.5390  152.1290 C   0  0  0  0  0  3  0  0  0  0  0  0
  161.2760  207.3810  151.2520 N   0  0  0  0  0  0  0  0  0  0  0  0
  162.0460  210.0440  150.9100 C   0  0  0  0  0  3  0  0  0  0  0  0
  161.1070  207.9580  149.9150 C   0  0  2  0  0  3  0  0  0  0  0  0
  161.5810  208.1020  152.2940 C   0  0  0  0  0  0  0  0  0  0  0  0
  161.6920  204.9120  146.8650 C   0  0  0  0  0  0  0  0  0  0  0  0
  161.6060  207.2660  147.5510 C   0  0  0  0  0  3  0  0  0  0  0  0
  161.3680  204.5780  148.1890 C   0  0  0  0  0  0  0  0  0  0  0  0
  161.8040  206.2830  146.5600 C   0  0  0  0  0  3  0  0  0  0  0  0
  161.2130  203.3560  148.7210 N   0  0  0  0  0  0  0  0  0  0  0  0
  161.2910  206.8980  148.8710 C   0  0  0  0  0  0  0  0  0  0  0  0
  160.6560  202.5660  151.0220 C   0  0  0  0  0  1  0  0  0  0  0  0
  161.1770  205.5300  149.1490 C   0  0  0  0  0  0  0  0  0  0  0  0
  160.9220  203.6300  150.0180 C   0  0  0  0  0  0  0  0  0  0  0  0
  160.8890  204.9510  150.3270 N   0  0  0  0  0  2  0  0  0  0  0  0
  161.0190  203.0660  145.5160 O   0  0  0  0  0  1  0  0  0  0  0  0
  163.1270  203.8620  145.1330 O   0  0  0  0  0  0  0  0  0  0  0  0
  161.9160  203.9010  145.8130 C   0  0  0  0  0  0  0  0  0  0  0  0
  161.2420  208.0200  154.7300 C   0  0  0  0  0  3  0  0  0  0  0  0
  161.6760  207.5270  153.6070 N   0  0  0  0  0  0  0  0  0  0  0  0
  159.7330  210.2920  156.8760 C   0  0  0  0  0  2  0  0  0  0  0  0
  160.5590  209.3460  154.8680 C   0  0  1  0  0  3  0  0  0  0  0  0
  159.4380  209.2220  155.8530 C   0  0  0  0  0  2  0  0  0  0  0  0
  161.4730  211.5340  154.7860 F   0  0  0  0  0  0  0  0  0  0  0  0
  161.5020  210.3490  155.5010 C   0  0  1  0  0  3  0  0  0  0  0  0
  161.1040  210.5880  156.8270 O   0  0  0  0  0  0  0  0  0  0  0  0
  161.6610  209.9280  148.4510 C   0  0  0  0  0  2  0  0  0  0  0  0
  163.3020  211.8950  148.4320 C   0  0  0  0  0  1  0  0  0  0  0  0
  160.9090  212.1700  148.9150 N   0  0  0  0  0  0  0  0  0  0  0  0
  161.9100  211.3900  148.6240 C   0  0  0  0  0  0  0  0  0  0  0  0
  160.9320  213.5940  149.1090 C   0  0  0  0  0  0  0  0  0  0  0  0
  161.4490  214.3690  148.2620 O   0  0  0  0  0  0  0  0  0  0  0  0
  160.3260  214.1630  150.3450 C   0  0  0  0  0  2  0  0  0  0  0  0
  159.1010  213.3490  150.7560 C   0  0  2  0  0  3  0  0  0  0  0  0
  156.9290  214.1960  151.3350 O   0  0  0  0  0  1  0  0  0  0  0  0
  157.1500  213.2180  149.1870 C   0  0  0  0  0  1  0  0  0  0  0  0
  157.8250  214.0400  150.2750 C   0  0  2  0  0  3  0  0  0  0  0  0
  159.0770  213.1850  152.2740 C   0  0  0  0  0  2  0  0  0  0  0  0
  158.9430  211.7260  152.6830 C   0  0  0  0  0  2  0  0  0  0  0  0
  157.9210  211.5830  153.7050 N   0  0  0  0  0  2  0  0  0  0  0  0
  157.9340  212.8110  154.4780 C   0  0  0  0  0  1  0  0  0  0  0  0
  1 28  1  6  0  0  0
  1  5  1  0  0  0  0
  1  4  1  0  0  0  0
  2  6  1  0  0  0  0
  3  6  2  0  0  0  0
  4  2  2  0  0  0  0
  5 12  1  6  0  0  0
  5  3  1  0  0  0  0
  6 21  1  0  0  0  0
  7  9  1  0  0  0  0
  8 12  2  0  0  0  0
  9 11  1  0  0  0  0
  9 14  2  0  0  0  0
 10  7  2  0  0  0  0
 10  8  1  0  0  0  0
 11 15  2  0  0  0  0
 12 14  1  0  0  0  0
 14 16  1  0  0  0  0
 15 16  1  0  0  0  0
 15 13  1  0  0  0  0
 17 19  1  0  0  0  0
 18 19  2  0  0  0  0
 19  7  1  0  0  0  0
 21 20  2  0  0  0  0
 23 20  1  1  0  0  0
 23 26  1  0  0  0  0
 23 24  1  0  0  0  0
 24 22  1  0  0  0  0
 26 25  1  6  0  0  0
 26 27  1  0  0  0  0
 27 22  1  0  0  0  0
 28 31  1  0  0  0  0
 29 31  1  0  0  0  0
 30 32  1  0  0  0  0
 31 30  2  0  0  0  0
 32 34  1  0  0  0  0
 33 32  2  0  0  0  0
 35 34  1  1  0  0  0
 35 39  1  0  0  0  0
 38 37  1  6  0  0  0
 38 35  1  0  0  0  0
 38 36  1  0  0  0  0
 39 40  1  0  0  0  0
 40 41  1  0  0  0  0
 41 42  1  0  0  0  0
M  END
>  <MODEL>
3

>  <REMARK>
 VINA RESULT:      -6.5      2.452      9.227
  Name = 
  13 active torsions:
  status: ('A' for Active; 'I' for Inactive)
    1  A    between atoms: C_1  and  C_27
    2  A    between atoms: C_3  and  C_22
    3  A    between atoms: N_6  and  C_21
    4  A    between atoms: C_7  and  C_9
    5  A    between atoms: C_15  and  C_25
    6  A    between atoms: C_15  and  C_36
    7  A    between atoms: C_16  and  C_21
    8  A    between atoms: C_16  and  C_25
    9  A    between atoms: C_18  and  C_32
   10  A    between atoms: N_20  and  C_26
   11  A    between atoms: C_22  and  C_34
   12  A    between atoms: C_25  and  C_35
   13  A    between atoms: N_30  and  C_36
                            x       y       z     vdW  Elec       q    Type
                         _______ _______ _______ _____ _____    ______ ____

>  <TORSDO>
F 13

$$$$
=
 OpenBabel11052411413D

 42 45  0  0  1  0  0  0  0  0999 V2000
  161.1780  207.2020  151.8650 C   0  0  1  0  0  3  0  0  0  0  0  0
  160.8550  206.5130  154.2150 C   0  0  0  0  0  3  0  0  0  0  0  0
  161.1440  208.8450  153.7170 N   0  0  0  0  0  0  0  0  0  0  0  0
  161.0900  206.1600  152.9510 C   0  0  0  0  0  3  0  0  0  0  0  0
  161.7580  208.5070  152.4300 C   0  0  2  0  0  3  0  0  0  0  0  0
  160.7620  207.9390  154.5730 C   0  0  0  0  0  0  0  0  0  0  0  0
  161.3000  211.7790  149.6010 C   0  0  0  0  0  0  0  0  0  0  0  0
  162.2200  209.5880  150.2090 C   0  0  0  0  0  3  0  0  0  0  0  0
  160.7050  211.8130  150.8710 C   0  0  0  0  0  0  0  0  0  0  0  0
  162.0700  210.6420  149.2850 C   0  0  0  0  0  3  0  0  0  0  0  0
  159.9280  212.7730  151.3970 N   0  0  0  0  0  0  0  0  0  0  0  0
  161.6030  209.6490  151.4700 C   0  0  0  0  0  0  0  0  0  0  0  0
  158.7830  213.0090  153.6020 C   0  0  0  0  0  1  0  0  0  0  0  0
  160.8500  210.7910  151.7660 C   0  0  0  0  0  0  0  0  0  0  0  0
  159.6330  212.2780  152.6270 C   0  0  0  0  0  0  0  0  0  0  0  0
  160.1770  211.0640  152.8960 N   0  0  0  0  0  2  0  0  0  0  0  0
  160.1100  212.9490  147.9000 O   0  0  0  0  0  0  0  0  0  0  0  0
  162.1500  213.8140  148.4600 O   0  0  0  0  0  1  0  0  0  0  0  0
  161.1460  212.8650  148.6130 C   0  0  0  0  0  0  0  0  0  0  0  0
  160.3240  209.4340  156.4780 C   0  0  0  0  0  3  0  0  0  0  0  0
  160.2240  208.2940  155.8560 N   0  0  0  0  0  0  0  0  0  0  0  0
  162.0130  212.3620  157.2610 C   0  0  0  0  0  2  0  0  0  0  0  0
  161.0720  210.6230  155.9590 C   0  0  1  0  0  3  0  0  0  0  0  0
  160.6930  211.8300  156.7580 C   0  0  0  0  0  2  0  0  0  0  0  0
  163.2690  210.7580  155.0720 F   0  0  0  0  0  0  0  0  0  0  0  0
  162.5550  210.4530  156.2190 C   0  0  1  0  0  3  0  0  0  0  0  0
  162.9450  211.3120  157.2600 O   0  0  0  0  0  0  0  0  0  0  0  0
  162.0280  206.6940  150.7050 C   0  0  0  0  0  2  0  0  0  0  0  0
  160.3300  206.1890  148.8540 C   0  0  0  0  0  1  0  0  0  0  0  0
  161.5120  204.4230  150.0870 N   0  0  0  0  0  0  0  0  0  0  0  0
  161.2870  205.6890  149.8870 C   0  0  0  0  0  0  0  0  0  0  0  0
  160.9190  203.3060  149.4040 C   0  0  0  0  0  0  0  0  0  0  0  0
  159.7820  202.8640  149.7200 O   0  0  0  0  0  0  0  0  0  0  0  0
  161.6710  202.6590  148.2930 C   0  0  0  0  0  2  0  0  0  0  0  0
  160.9200  202.8330  146.9750 C   0  0  2  0  0  3  0  0  0  0  0  0
  161.3940  200.5060  146.6150 O   0  0  0  0  0  1  0  0  0  0  0  0
  160.0050  201.5670  145.0140 C   0  0  0  0  0  1  0  0  0  0  0  0
  160.4040  201.4820  146.4790 C   0  0  2  0  0  3  0  0  0  0  0  0
  161.8440  203.4630  145.9340 C   0  0  0  0  0  2  0  0  0  0  0  0
  162.1780  204.9070  146.2760 C   0  0  0  0  0  2  0  0  0  0  0  0
  161.8960  205.7680  145.1410 N   0  0  0  0  0  2  0  0  0  0  0  0
  160.4590  205.9720  145.1220 C   0  0  0  0  0  1  0  0  0  0  0  0
  1 28  1  6  0  0  0
  1  5  1  0  0  0  0
  1  4  1  0  0  0  0
  2  6  1  0  0  0  0
  3  6  2  0  0  0  0
  4  2  2  0  0  0  0
  5 12  1  6  0  0  0
  5  3  1  0  0  0  0
  6 21  1  0  0  0  0
  7  9  1  0  0  0  0
  8 12  2  0  0  0  0
  9 11  1  0  0  0  0
  9 14  2  0  0  0  0
 10  7  2  0  0  0  0
 10  8  1  0  0  0  0
 11 15  2  0  0  0  0
 12 14  1  0  0  0  0
 14 16  1  0  0  0  0
 15 16  1  0  0  0  0
 15 13  1  0  0  0  0
 17 19  2  0  0  0  0
 18 19  1  0  0  0  0
 19  7  1  0  0  0  0
 21 20  2  0  0  0  0
 23 26  1  0  0  0  0
 23 20  1  1  0  0  0
 23 24  1  0  0  0  0
 24 22  1  0  0  0  0
 26 25  1  6  0  0  0
 26 27  1  0  0  0  0
 27 22  1  0  0  0  0
 29 31  1  0  0  0  0
 31 30  2  0  0  0  0
 31 28  1  0  0  0  0
 32 33  2  0  0  0  0
 32 30  1  0  0  0  0
 34 32  1  0  0  0  0
 35 39  1  6  0  0  0
 35 34  1  0  0  0  0
 38 37  1  6  0  0  0
 38 36  1  0  0  0  0
 38 35  1  0  0  0  0
 39 40  1  0  0  0  0
 41 40  1  0  0  0  0
 42 41  1  0  0  0  0
M  END
>  <MODEL>
4

>  <REMARK>
 VINA RESULT:      -6.4      2.350      5.544
  Name = 
  13 active torsions:
  status: ('A' for Active; 'I' for Inactive)
    1  A    between atoms: C_1  and  C_27
    2  A    between atoms: C_3  and  C_22
    3  A    between atoms: N_6  and  C_21
    4  A    between atoms: C_7  and  C_9
    5  A    between atoms: C_15  and  C_25
    6  A    between atoms: C_15  and  C_36
    7  A    between atoms: C_16  and  C_21
    8  A    between atoms: C_16  and  C_25
    9  A    between atoms: C_18  and  C_32
   10  A    between atoms: N_20  and  C_26
   11  A    between atoms: C_22  and  C_34
   12  A    between atoms: C_25  and  C_35
   13  A    between atoms: N_30  and  C_36
                            x       y       z     vdW  Elec       q    Type
                         _______ _______ _______ _____ _____    ______ ____

>  <TORSDO>
F 13

$$$$
=
 OpenBabel11052411413D

 42 45  0  0  1  0  0  0  0  0999 V2000
  161.3740  207.8170  151.5610 C   0  0  1  0  0  3  0  0  0  0  0  0
  161.6990  209.9630  150.3820 C   0  0  0  0  0  3  0  0  0  0  0  0
  161.7710  207.9220  149.1190 N   0  0  0  0  0  0  0  0  0  0  0  0
  161.6060  209.3070  151.5380 C   0  0  0  0  0  3  0  0  0  0  0  0
  162.0380  207.1600  150.3420 C   0  0  2  0  0  3  0  0  0  0  0  0
  161.6550  209.2200  149.1100 C   0  0  0  0  0  0  0  0  0  0  0  0
  160.7220  203.0410  149.8720 C   0  0  0  0  0  0  0  0  0  0  0  0
  161.1370  205.0080  151.2770 C   0  0  0  0  0  3  0  0  0  0  0  0
  161.1980  203.7920  148.7870 C   0  0  0  0  0  0  0  0  0  0  0  0
  160.7020  203.6750  151.1300 C   0  0  0  0  0  3  0  0  0  0  0  0
  161.3060  203.4160  147.5020 N   0  0  0  0  0  0  0  0  0  0  0  0
  161.6010  205.7360  150.1680 C   0  0  0  0  0  0  0  0  0  0  0  0
  162.1080  204.5940  145.4530 C   0  0  0  0  0  1  0  0  0  0  0  0
  161.6180  205.0840  148.9290 C   0  0  0  0  0  0  0  0  0  0  0  0
  161.8080  204.5290  146.9070 C   0  0  0  0  0  0  0  0  0  0  0  0
  162.0150  205.5770  147.7440 N   0  0  0  0  0  2  0  0  0  0  0  0
  159.1010  201.3950  149.2850 O   0  0  0  0  0  0  0  0  0  0  0  0
  161.0750  200.5960  150.1150 O   0  0  0  0  0  1  0  0  0  0  0  0
  160.2500  201.6490  149.7390 C   0  0  0  0  0  0  0  0  0  0  0  0
  161.6150  211.2270  147.6890 C   0  0  0  0  0  3  0  0  0  0  0  0
  161.4600  209.9510  147.8900 N   0  0  0  0  0  0  0  0  0  0  0  0
  162.6900  214.4530  148.3840 C   0  0  0  0  0  2  0  0  0  0  0  0
  162.0160  212.2120  148.7440 C   0  0  1  0  0  3  0  0  0  0  0  0
  163.1670  213.0280  148.2440 C   0  0  0  0  0  2  0  0  0  0  0  0
  160.6700  213.3820  150.3100 F   0  0  0  0  0  0  0  0  0  0  0  0
  160.9060  213.2220  148.9550 C   0  0  1  0  0  3  0  0  0  0  0  0
  161.2870  214.4530  148.3940 O   0  0  0  0  0  0  0  0  0  0  0  0
  161.9070  207.2130  152.8550 C   0  0  0  0  0  2  0  0  0  0  0  0
  160.2730  206.8150  154.7880 C   0  0  0  0  0  1  0  0  0  0  0  0
  161.3670  208.9810  154.4010 N   0  0  0  0  0  0  0  0  0  0  0  0
  161.1770  207.7430  154.0450 C   0  0  0  0  0  0  0  0  0  0  0  0
  160.7770  209.6750  155.5130 C   0  0  0  0  0  0  0  0  0  0  0  0
  160.7540  209.1750  156.6680 O   0  0  0  0  0  0  0  0  0  0  0  0
  160.1810  211.0210  155.2870 C   0  0  0  0  0  2  0  0  0  0  0  0
  158.7070  210.8890  154.9090 C   0  0  2  0  0  3  0  0  0  0  0  0
  158.7730  211.1110  152.5180 O   0  0  0  0  0  1  0  0  0  0  0  0
  159.1460  213.0840  153.7800 C   0  0  0  0  0  1  0  0  0  0  0  0
  158.3950  211.7630  153.6940 C   0  0  2  0  0  3  0  0  0  0  0  0
  157.8320  211.2940  156.0940 C   0  0  0  0  0  2  0  0  0  0  0  0
  156.3530  211.2470  155.7460 C   0  0  0  0  0  2  0  0  0  0  0  0
  155.6570  212.3630  156.3620 N   0  0  0  0  0  2  0  0  0  0  0  0
  155.7160  213.4610  155.4140 C   0  0  0  0  0  1  0  0  0  0  0  0
  1 28  1  1  0  0  0
  2  4  2  0  0  0  0
  3  5  1  0  0  0  0
  4  1  1  0  0  0  0
  5 12  1  6  0  0  0
  5  1  1  0  0  0  0
  6  3  2  0  0  0  0
  6  2  1  0  0  0  0
  7 10  1  0  0  0  0
  9 14  1  0  0  0  0
  9  7  2  0  0  0  0
 10  8  2  0  0  0  0
 11  9  1  0  0  0  0
 12  8  1  0  0  0  0
 13 15  1  0  0  0  0
 14 12  2  0  0  0  0
 15 11  2  0  0  0  0
 15 16  1  0  0  0  0
 16 14  1  0  0  0  0
 17 19  2  0  0  0  0
 19  7  1  0  0  0  0
 19 18  1  0  0  0  0
 20 21  2  0  0  0  0
 21  6  1  0  0  0  0
 22 27  1  0  0  0  0
 23 20  1  6  0  0  0
 23 26  1  0  0  0  0
 24 22  1  0  0  0  0
 24 23  1  0  0  0  0
 26 25  1  1  0  0  0
 27 26  1  0  0  0  0
 28 31  1  0  0  0  0
 30 32  1  0  0  0  0
 31 30  2  0  0  0  0
 31 29  1  0  0  0  0
 32 33  2  0  0  0  0
 34 32  1  0  0  0  0
 35 34  1  1  0  0  0
 35 39  1  0  0  0  0
 36 38  1  0  0  0  0
 38 37  1  1  0  0  0
 38 35  1  0  0  0  0
 40 39  1  0  0  0  0
 40 41  1  0  0  0  0
 42 41  1  0  0  0  0
M  END
>  <MODEL>
5

>  <REMARK>
 VINA RESULT:      -6.2      2.167      8.206
  Name = 
  13 active torsions:
  status: ('A' for Active; 'I' for Inactive)
    1  A    between atoms: C_1  and  C_27
    2  A    between atoms: C_3  and  C_22
    3  A    between atoms: N_6  and  C_21
    4  A    between atoms: C_7  and  C_9
    5  A    between atoms: C_15  and  C_25
    6  A    between atoms: C_15  and  C_36
    7  A    between atoms: C_16  and  C_21
    8  A    between atoms: C_16  and  C_25
    9  A    between atoms: C_18  and  C_32
   10  A    between atoms: N_20  and  C_26
   11  A    between atoms: C_22  and  C_34
   12  A    between atoms: C_25  and  C_35
   13  A    between atoms: N_30  and  C_36
                            x       y       z     vdW  Elec       q    Type
                         _______ _______ _______ _____ _____    ______ ____

>  <TORSDO>
F 13

$$$$
=
 OpenBabel11052411413D

 42 45  0  0  1  0  0  0  0  0999 V2000
  161.3130  208.9160  152.2580 C   0  0  1  0  0  3  0  0  0  0  0  0
  162.4040  209.1370  150.0540 C   0  0  0  0  0  3  0  0  0  0  0  0
  161.1970  211.0120  150.9450 N   0  0  0  0  0  0  0  0  0  0  0  0
  162.0200  208.3460  151.0550 C   0  0  0  0  0  3  0  0  0  0  0  0
  160.4580  210.1230  151.8460 C   0  0  2  0  0  3  0  0  0  0  0  0
  162.0660  210.5710  150.0800 C   0  0  0  0  0  0  0  0  0  0  0  0
  158.9750  212.3240  155.2930 C   0  0  0  0  0  0  0  0  0  0  0  0
  158.6930  211.4850  153.0050 C   0  0  0  0  0  3  0  0  0  0  0  0
  160.2450  211.7260  155.2890 C   0  0  0  0  0  0  0  0  0  0  0  0
  158.2030  212.1940  154.1210 C   0  0  0  0  0  3  0  0  0  0  0  0
  161.1540  211.7060  156.2770 N   0  0  0  0  0  0  0  0  0  0  0  0
  159.9660  210.8910  153.0370 C   0  0  0  0  0  0  0  0  0  0  0  0
  163.4310  210.7020  156.4640 C   0  0  0  0  0  1  0  0  0  0  0  0
  160.7180  211.0390  154.2080 C   0  0  0  0  0  0  0  0  0  0  0  0
  162.1700  210.9900  155.7310 C   0  0  0  0  0  0  0  0  0  0  0  0
  161.9470  210.5610  154.4630 N   0  0  0  0  0  2  0  0  0  0  0  0
  158.8400  214.2220  156.7270 O   0  0  0  0  0  0  0  0  0  0  0  0
  157.4700  212.4730  157.2610 O   0  0  0  0  0  1  0  0  0  0  0  0
  158.4370  213.0590  156.4540 C   0  0  0  0  0  0  0  0  0  0  0  0
  162.1890  212.2190  148.2580 C   0  0  0  0  0  3  0  0  0  0  0  0
  162.7290  211.4530  149.1610 N   0  0  0  0  0  0  0  0  0  0  0  0
  159.4640  214.2890  147.6840 C   0  0  0  0  0  2  0  0  0  0  0  0
  160.7200  212.3040  147.9830 C   0  0  1  0  0  3  0  0  0  0  0  0
  160.1420  213.4570  148.7440 C   0  0  0  0  0  2  0  0  0  0  0  0
  159.5250  211.8280  145.9890 F   0  0  0  0  0  0  0  0  0  0  0  0
  160.4870  212.6630  146.5290 C   0  0  1  0  0  3  0  0  0  0  0  0
  160.0550  213.9970  146.4440 O   0  0  0  0  0  0  0  0  0  0  0  0
  160.4520  207.8500  152.9270 C   0  0  0  0  0  2  0  0  0  0  0  0
  162.3000  206.2060  153.5960 C   0  0  0  0  0  1  0  0  0  0  0  0
  160.5040  205.6150  152.0270 N   0  0  0  0  0  0  0  0  0  0  0  0
  161.0680  206.4960  152.8020 C   0  0  0  0  0  0  0  0  0  0  0  0
  160.9250  204.2630  151.7810 C   0  0  0  0  0  0  0  0  0  0  0  0
  160.7290  203.3450  152.6200 O   0  0  0  0  0  0  0  0  0  0  0  0
  161.6100  203.9450  150.4970 C   0  0  0  0  0  2  0  0  0  0  0  0
  160.5800  203.6560  149.4070 C   0  0  2  0  0  3  0  0  0  0  0  0
  161.2060  201.4550  150.1350 O   0  0  0  0  0  1  0  0  0  0  0  0
  160.9780  201.7760  147.7980 C   0  0  0  0  0  1  0  0  0  0  0  0
  160.4620  202.1490  149.1790 C   0  0  2  0  0  3  0  0  0  0  0  0
  160.9890  204.3590  148.1130 C   0  0  0  0  0  2  0  0  0  0  0  0
  161.4200  205.7950  148.3620 C   0  0  0  0  0  2  0  0  0  0  0  0
  161.9020  206.3950  147.1300 N   0  0  0  0  0  2  0  0  0  0  0  0
  160.8620  206.1970  146.1380 C   0  0  0  0  0  1  0  0  0  0  0  0
  1 28  1  6  0  0  0
  2  6  1  0  0  0  0
  2  4  2  0  0  0  0
  3  5  1  0  0  0  0
  4  1  1  0  0  0  0
  5  1  1  0  0  0  0
  5 12  1  1  0  0  0
  6  3  2  0  0  0  0
  7 19  1  0  0  0  0
  8 12  2  0  0  0  0
  8 10  1  0  0  0  0
  9  7  1  0  0  0  0
  9 11  1  0  0  0  0
 10  7  2  0  0  0  0
 12 14  1  0  0  0  0
 14 16  1  0  0  0  0
 14  9  2  0  0  0  0
 15 11  2  0  0  0  0
 15 13  1  0  0  0  0
 16 15  1  0  0  0  0
 19 17  2  0  0  0  0
 19 18  1  0  0  0  0
 20 21  2  0  0  0  0
 21  6  1  0  0  0  0
 22 24  1  0  0  0  0
 23 20  1  6  0  0  0
 23 24  1  0  0  0  0
 26 25  1  1  0  0  0
 26 23  1  0  0  0  0
 27 26  1  0  0  0  0
 27 22  1  0  0  0  0
 30 31  2  0  0  0  0
 31 28  1  0  0  0  0
 31 29  1  0  0  0  0
 32 30  1  0  0  0  0
 32 33  2  0  0  0  0
 34 32  1  0  0  0  0
 35 39  1  6  0  0  0
 35 34  1  0  0  0  0
 38 37  1  6  0  0  0
 38 35  1  0  0  0  0
 38 36  1  0  0  0  0
 39 40  1  0  0  0  0
 41 40  1  0  0  0  0
 42 41  1  0  0  0  0
M  END
>  <MODEL>
6

>  <REMARK>
 VINA RESULT:      -6.1      2.158      3.255
  Name = 
  13 active torsions:
  status: ('A' for Active; 'I' for Inactive)
    1  A    between atoms: C_1  and  C_27
    2  A    between atoms: C_3  and  C_22
    3  A    between atoms: N_6  and  C_21
    4  A    between atoms: C_7  and  C_9
    5  A    between atoms: C_15  and  C_25
    6  A    between atoms: C_15  and  C_36
    7  A    between atoms: C_16  and  C_21
    8  A    between atoms: C_16  and  C_25
    9  A    between atoms: C_18  and  C_32
   10  A    between atoms: N_20  and  C_26
   11  A    between atoms: C_22  and  C_34
   12  A    between atoms: C_25  and  C_35
   13  A    between atoms: N_30  and  C_36
                            x       y       z     vdW  Elec       q    Type
                         _______ _______ _______ _____ _____    ______ ____

>  <TORSDO>
F 13

$$$$
=
 OpenBabel11052411413D

 42 45  0  0  1  0  0  0  0  0999 V2000
  160.7960  208.8030  152.0460 C   0  0  1  0  0  3  0  0  0  0  0  0
  161.6120  210.9090  151.0470 C   0  0  0  0  0  3  0  0  0  0  0  0
  162.2990  208.8220  150.0780 N   0  0  0  0  0  0  0  0  0  0  0  0
  160.9920  210.2980  152.0570 C   0  0  0  0  0  3  0  0  0  0  0  0
  161.9660  208.1210  151.3220 C   0  0  2  0  0  3  0  0  0  0  0  0
  162.1840  210.1130  149.9470 C   0  0  0  0  0  0  0  0  0  0  0  0
  161.1070  203.9280  150.5480 C   0  0  0  0  0  0  0  0  0  0  0  0
  161.7140  205.7400  152.0860 C   0  0  0  0  0  3  0  0  0  0  0  0
  161.0920  204.8860  149.5230 C   0  0  0  0  0  0  0  0  0  0  0  0
  161.4290  204.3810  151.8430 C   0  0  0  0  0  3  0  0  0  0  0  0
  160.8110  204.7040  148.2230 N   0  0  0  0  0  0  0  0  0  0  0  0
  161.6820  206.6760  151.0380 C   0  0  0  0  0  0  0  0  0  0  0  0
  160.7220  206.2600  146.2740 C   0  0  0  0  0  1  0  0  0  0  0  0
  161.3660  206.2030  149.7590 C   0  0  0  0  0  0  0  0  0  0  0  0
  160.9360  205.9560  147.7130 C   0  0  0  0  0  0  0  0  0  0  0  0
  161.2760  206.9070  148.6190 N   0  0  0  0  0  2  0  0  0  0  0  0
  161.5230  201.5970  150.8180 O   0  0  0  0  0  1  0  0  0  0  0  0
  159.7010  202.1420  149.5510 O   0  0  0  0  0  0  0  0  0  0  0  0
  160.8000  202.5020  150.3210 C   0  0  0  0  0  0  0  0  0  0  0  0
  161.9100  211.6750  148.0660 C   0  0  0  0  0  3  0  0  0  0  0  0
  162.5800  210.7870  148.7420 N   0  0  0  0  0  0  0  0  0  0  0  0
  159.8430  214.4150  148.5750 C   0  0  0  0  0  2  0  0  0  0  0  0
  160.5370  212.1560  148.4200 C   0  0  1  0  0  3  0  0  0  0  0  0
  160.6510  213.3640  149.2970 C   0  0  0  0  0  2  0  0  0  0  0  0
  158.5490  212.1430  147.1250 F   0  0  0  0  0  0  0  0  0  0  0  0
  159.8320  212.6620  147.1780 C   0  0  1  0  0  3  0  0  0  0  0  0
  159.7710  214.0650  147.2170 O   0  0  0  0  0  0  0  0  0  0  0  0
  160.6620  208.2720  153.4690 C   0  0  0  0  0  2  0  0  0  0  0  0
  162.0330  210.0150  154.7540 C   0  0  0  0  0  1  0  0  0  0  0  0
  159.6060  209.7610  155.0430 N   0  0  0  0  0  0  0  0  0  0  0  0
  160.7110  209.3790  154.4700 C   0  0  0  0  0  0  0  0  0  0  0  0
  159.4350  210.8060  156.0140 C   0  0  0  0  0  0  0  0  0  0  0  0
  159.6230  210.6050  157.2430 O   0  0  0  0  0  0  0  0  0  0  0  0
  159.0270  212.1610  155.5500 C   0  0  0  0  0  2  0  0  0  0  0  0
  157.7440  212.5960  156.2540 C   0  0  2  0  0  3  0  0  0  0  0  0
  156.1810  211.6390  154.7020 O   0  0  0  0  0  1  0  0  0  0  0  0
  155.4670  211.8190  156.9560 C   0  0  0  0  0  1  0  0  0  0  0  0
  156.6390  211.5660  156.0200 C   0  0  2  0  0  3  0  0  0  0  0  0
  157.3120  213.9670  155.7370 C   0  0  0  0  0  2  0  0  0  0  0  0
  158.1980  214.4480  154.5990 C   0  0  0  0  0  2  0  0  0  0  0  0
  157.4550  214.4500  153.3520 N   0  0  0  0  0  2  0  0  0  0  0  0
  158.3350  213.8910  152.3430 C   0  0  0  0  0  1  0  0  0  0  0  0
  1  4  1  0  0  0  0
  1 28  1  1  0  0  0
  2  4  2  0  0  0  0
  3  5  1  0  0  0  0
  5 12  1  6  0  0  0
  5  1  1  0  0  0  0
  6  3  2  0  0  0  0
  6  2  1  0  0  0  0
  7 10  1  0  0  0  0
  9 14  1  0  0  0  0
  9  7  2  0  0  0  0
 10  8  2  0  0  0  0
 11  9  1  0  0  0  0
 12  8  1  0  0  0  0
 13 15  1  0  0  0  0
 14 12  2  0  0  0  0
 15 11  2  0  0  0  0
 15 16  1  0  0  0  0
 16 14  1  0  0  0  0
 18 19  2  0  0  0  0
 19  7  1  0  0  0  0
 19 17  1  0  0  0  0
 20 21  2  0  0  0  0
 21  6  1  0  0  0  0
 22 24  1  0  0  0  0
 23 20  1  6  0  0  0
 23 24  1  0  0  0  0
 26 25  1  1  0  0  0
 26 27  1  0  0  0  0
 26 23  1  0  0  0  0
 27 22  1  0  0  0  0
 28 31  1  0  0  0  0
 30 32  1  0  0  0  0
 31 29  1  0  0  0  0
 31 30  2  0  0  0  0
 32 33  2  0  0  0  0
 34 32  1  0  0  0  0
 35 34  1  6  0  0  0
 36 38  1  0  0  0  0
 38 35  1  0  0  0  0
 38 37  1  1  0  0  0
 39 35  1  0  0  0  0
 40 39  1  0  0  0  0
 41 40  1  0  0  0  0
 42 41  1  0  0  0  0
M  END
>  <MODEL>
7

>  <REMARK>
 VINA RESULT:      -6.0      2.176      8.269
  Name = 
  13 active torsions:
  status: ('A' for Active; 'I' for Inactive)
    1  A    between atoms: C_1  and  C_27
    2  A    between atoms: C_3  and  C_22
    3  A    between atoms: N_6  and  C_21
    4  A    between atoms: C_7  and  C_9
    5  A    between atoms: C_15  and  C_25
    6  A    between atoms: C_15  and  C_36
    7  A    between atoms: C_16  and  C_21
    8  A    between atoms: C_16  and  C_25
    9  A    between atoms: C_18  and  C_32
   10  A    between atoms: N_20  and  C_26
   11  A    between atoms: C_22  and  C_34
   12  A    between atoms: C_25  and  C_35
   13  A    between atoms: N_30  and  C_36
                            x       y       z     vdW  Elec       q    Type
                         _______ _______ _______ _____ _____    ______ ____

>  <TORSDO>
F 13

$$$$
=
 OpenBabel11052411413D

 42 45  0  0  1  0  0  0  0  0999 V2000
  161.0410  208.2880  153.5590 C   0  0  1  0  0  3  0  0  0  0  0  0
  160.3530  208.6560  155.9020 C   0  0  0  0  0  3  0  0  0  0  0  0
  160.7510  210.5620  154.4960 N   0  0  0  0  0  0  0  0  0  0  0  0
  160.7720  207.8090  154.9620 C   0  0  0  0  0  3  0  0  0  0  0  0
  161.5490  209.7370  153.5840 C   0  0  2  0  0  3  0  0  0  0  0  0
  160.2280  210.0910  155.5930 C   0  0  0  0  0  0  0  0  0  0  0  0
  161.5780  211.4550  149.5880 C   0  0  0  0  0  0  0  0  0  0  0  0
  162.3250  209.7580  151.1940 C   0  0  0  0  0  3  0  0  0  0  0  0
  160.8330  212.0260  150.6310 C   0  0  0  0  0  0  0  0  0  0  0  0
  162.3330  210.3050  149.8940 C   0  0  0  0  0  3  0  0  0  0  0  0
  160.0390  213.1070  150.5870 N   0  0  0  0  0  0  0  0  0  0  0  0
  161.5610  210.3480  152.2140 C   0  0  0  0  0  0  0  0  0  0  0  0
  158.6430  214.2560  152.3070 C   0  0  0  0  0  1  0  0  0  0  0  0
  160.8250  211.4940  151.8890 C   0  0  0  0  0  0  0  0  0  0  0  0
  159.5750  213.1880  151.8600 C   0  0  0  0  0  0  0  0  0  0  0  0
  160.0310  212.2190  152.6940 N   0  0  0  0  0  2  0  0  0  0  0  0
  160.5340  212.0650  147.5340 O   0  0  0  0  0  0  0  0  0  0  0  0
  162.7810  212.4640  147.6640 O   0  0  0  0  0  1  0  0  0  0  0  0
  161.5920  212.0030  148.2170 C   0  0  0  0  0  0  0  0  0  0  0  0
  158.3190  211.4450  156.3520 C   0  0  0  0  0  3  0  0  0  0  0  0
  159.5060  210.9330  156.5050 N   0  0  0  0  0  0  0  0  0  0  0  0
  155.2690  210.3810  155.0850 C   0  0  0  0  0  2  0  0  0  0  0  0
  157.4650  211.2650  155.1350 C   0  0  1  0  0  3  0  0  0  0  0  0
  156.7140  209.9750  155.2480 C   0  0  0  0  0  2  0  0  0  0  0  0
  156.3180  212.8880  153.8390 F   0  0  0  0  0  0  0  0  0  0  0  0
  156.3840  212.3260  155.1030 C   0  0  1  0  0  3  0  0  0  0  0  0
  155.1480  211.7380  155.4220 O   0  0  0  0  0  0  0  0  0  0  0  0
  162.0500  207.3770  152.8680 C   0  0  0  0  0  2  0  0  0  0  0  0
  160.7020  205.2080  152.6620 C   0  0  0  0  0  1  0  0  0  0  0  0
  161.3660  206.5470  150.7120 N   0  0  0  0  0  0  0  0  0  0  0  0
  161.3700  206.3700  152.0010 C   0  0  0  0  0  0  0  0  0  0  0  0
  160.7610  205.7100  149.7120 C   0  0  0  0  0  0  0  0  0  0  0  0
  159.8690  206.1440  148.9360 O   0  0  0  0  0  0  0  0  0  0  0  0
  161.2060  204.2930  149.5930 C   0  0  0  0  0  2  0  0  0  0  0  0
  161.1680  203.8490  148.1320 C   0  0  2  0  0  3  0  0  0  0  0  0
  160.8300  201.9060  146.7620 O   0  0  0  0  0  1  0  0  0  0  0  0
  160.2180  201.7160  149.0440 C   0  0  0  0  0  1  0  0  0  0  0  0
  161.1910  202.3230  148.0450 C   0  0  2  0  0  3  0  0  0  0  0  0
  162.3590  204.4430  147.3810 C   0  0  0  0  0  2  0  0  0  0  0  0
  161.9200  205.4560  146.3370 C   0  0  0  0  0  2  0  0  0  0  0  0
  162.2550  204.9820  145.0060 N   0  0  0  0  0  2  0  0  0  0  0  0
  161.2060  205.4530  144.1210 C   0  0  0  0  0  1  0  0  0  0  0  0
  1 28  1  1  0  0  0
  1  5  1  0  0  0  0
  1  4  1  0  0  0  0
  3  6  2  0  0  0  0
  4  2  2  0  0  0  0
  5 12  1  6  0  0  0
  5  3  1  0  0  0  0
  6  2  1  0  0  0  0
  6 21  1  0  0  0  0
  7 10  2  0  0  0  0
  7  9  1  0  0  0  0
  8 12  2  0  0  0  0
  9 14  2  0  0  0  0
 10  8  1  0  0  0  0
 11  9  1  0  0  0  0
 11 15  2  0  0  0  0
 14 12  1  0  0  0  0
 14 16  1  0  0  0  0
 15 13  1  0  0  0  0
 15 16  1  0  0  0  0
 17 19  2  0  0  0  0
 18 19  1  0  0  0  0
 19  7  1  0  0  0  0
 20 21  2  0  0  0  0
 22 24  1  0  0  0  0
 22 27  1  0  0  0  0
 23 24  1  0  0  0  0
 23 20  1  1  0  0  0
 26 25  1  6  0  0  0
 26 23  1  0  0  0  0
 26 27  1  0  0  0  0
 30 31  2  0  0  0  0
 31 29  1  0  0  0  0
 31 28  1  0  0  0  0
 32 30  1  0  0  0  0
 33 32  2  0  0  0  0
 34 32  1  0  0  0  0
 35 39  1  6  0  0  0
 35 34  1  0  0  0  0
 36 38  1  0  0  0  0
 38 35  1  0  0  0  0
 38 37  1  1  0  0  0
 40 39  1  0  0  0  0
 41 40  1  0  0  0  0
 42 41  1  0  0  0  0
M  END
>  <MODEL>
8

>  <REMARK>
 VINA RESULT:      -5.9      2.752      5.806
  Name = 
  13 active torsions:
  status: ('A' for Active; 'I' for Inactive)
    1  A    between atoms: C_1  and  C_27
    2  A    between atoms: C_3  and  C_22
    3  A    between atoms: N_6  and  C_21
    4  A    between atoms: C_7  and  C_9
    5  A    between atoms: C_15  and  C_25
    6  A    between atoms: C_15  and  C_36
    7  A    between atoms: C_16  and  C_21
    8  A    between atoms: C_16  and  C_25
    9  A    between atoms: C_18  and  C_32
   10  A    between atoms: N_20  and  C_26
   11  A    between atoms: C_22  and  C_34
   12  A    between atoms: C_25  and  C_35
   13  A    between atoms: N_30  and  C_36
                            x       y       z     vdW  Elec       q    Type
                         _______ _______ _______ _____ _____    ______ ____

>  <TORSDO>
F 13

$$$$
=
 OpenBabel11052411413D

 42 45  0  0  1  0  0  0  0  0999 V2000
  162.2850  208.7900  150.4780 C   0  0  1  0  0  3  0  0  0  0  0  0
  161.8180  210.2750  152.3960 C   0  0  0  0  0  3  0  0  0  0  0  0
  160.8240  208.0890  152.3510 N   0  0  0  0  0  0  0  0  0  0  0  0
  162.3240  210.1280  151.1710 C   0  0  0  0  0  3  0  0  0  0  0  0
  161.0310  208.0120  150.9020 C   0  0  2  0  0  3  0  0  0  0  0  0
  161.1400  209.1430  153.0510 C   0  0  0  0  0  0  0  0  0  0  0  0
  161.1640  203.8370  149.6860 C   0  0  0  0  0  0  0  0  0  0  0  0
  161.2690  205.5650  151.4240 C   0  0  0  0  0  3  0  0  0  0  0  0
  160.9950  204.8730  148.7540 C   0  0  0  0  0  0  0  0  0  0  0  0
  161.3050  204.2100  151.0380 C   0  0  0  0  0  3  0  0  0  0  0  0
  160.8330  204.7730  147.4250 N   0  0  0  0  0  0  0  0  0  0  0  0
  161.0890  206.5780  150.4670 C   0  0  0  0  0  0  0  0  0  0  0  0
  160.5120  206.4710  145.6250 C   0  0  0  0  0  1  0  0  0  0  0  0
  160.9580  206.1850  149.1290 C   0  0  0  0  0  0  0  0  0  0  0  0
  160.7080  206.0700  147.0420 C   0  0  0  0  0  0  0  0  0  0  0  0
  160.7780  206.9710  148.0540 N   0  0  0  0  0  2  0  0  0  0  0  0
  161.2140  202.0650  148.0940 O   0  0  0  0  0  0  0  0  0  0  0  0
  161.1990  201.4300  150.2890 O   0  0  0  0  0  1  0  0  0  0  0  0
  161.1930  202.4120  149.3060 C   0  0  0  0  0  0  0  0  0  0  0  0
  159.9950  209.9760  155.0620 C   0  0  0  0  0  3  0  0  0  0  0  0
  160.8680  209.2220  154.4580 N   0  0  0  0  0  0  0  0  0  0  0  0
  157.7020  212.5550  155.4260 C   0  0  0  0  0  2  0  0  0  0  0  0
  159.0980  210.9570  154.3740 C   0  0  1  0  0  3  0  0  0  0  0  0
  157.8180  211.0770  155.1420 C   0  0  0  0  0  2  0  0  0  0  0  0
  159.6500  212.9390  153.1900 F   0  0  0  0  0  0  0  0  0  0  0  0
  159.7040  212.3440  154.4390 C   0  0  1  0  0  3  0  0  0  0  0  0
  158.9850  213.1220  155.3630 O   0  0  0  0  0  0  0  0  0  0  0  0
  162.3190  208.9710  148.9650 C   0  0  0  0  0  2  0  0  0  0  0  0
  163.5220  211.2160  148.6890 C   0  0  0  0  0  1  0  0  0  0  0  0
  161.1390  210.9160  148.1700 N   0  0  0  0  0  0  0  0  0  0  0  0
  162.2660  210.4140  148.5880 C   0  0  0  0  0  0  0  0  0  0  0  0
  160.8810  212.2660  147.7500 C   0  0  0  0  0  0  0  0  0  0  0  0
  160.5590  213.1650  148.5720 O   0  0  0  0  0  0  0  0  0  0  0  0
  160.9990  212.6070  146.3050 C   0  0  0  0  0  2  0  0  0  0  0  0
  159.7120  212.2410  145.5700 C   0  0  2  0  0  3  0  0  0  0  0  0
  161.2990  212.4810  143.7830 O   0  0  0  0  0  1  0  0  0  0  0  0
  159.0970  213.2490  143.3590 C   0  0  0  0  0  1  0  0  0  0  0  0
  159.9580  212.2100  144.0610 C   0  0  2  0  0  3  0  0  0  0  0  0
  158.6190  213.2530  145.9090 C   0  0  0  0  0  2  0  0  0  0  0  0
  157.3620  212.5750  146.4290 C   0  0  0  0  0  2  0  0  0  0  0  0
  157.3490  212.5880  147.8820 N   0  0  0  0  0  2  0  0  0  0  0  0
  156.7060  213.8270  148.2790 C   0  0  0  0  0  1  0  0  0  0  0  0
  1 28  1  6  0  0  0
  1  5  1  0  0  0  0
  1  4  1  0  0  0  0
  2  6  1  0  0  0  0
  3  6  2  0  0  0  0
  4  2  2  0  0  0  0
  5 12  1  1  0  0  0
  5  3  1  0  0  0  0
  6 21  1  0  0  0  0
  7 10  1  0  0  0  0
  9 14  1  0  0  0  0
  9  7  2  0  0  0  0
 10  8  2  0  0  0  0
 11  9  1  0  0  0  0
 12  8  1  0  0  0  0
 13 15  1  0  0  0  0
 14 12  2  0  0  0  0
 15 11  2  0  0  0  0
 15 16  1  0  0  0  0
 16 14  1  0  0  0  0
 17 19  2  0  0  0  0
 19  7  1  0  0  0  0
 19 18  1  0  0  0  0
 21 20  2  0  0  0  0
 23 26  1  0  0  0  0
 23 20  1  1  0  0  0
 23 24  1  0  0  0  0
 24 22  1  0  0  0  0
 26 25  1  6  0  0  0
 26 27  1  0  0  0  0
 27 22  1  0  0  0  0
 30 31  2  0  0  0  0
 31 29  1  0  0  0  0
 31 28  1  0  0  0  0
 32 30  1  0  0  0  0
 32 33  2  0  0  0  0
 34 32  1  0  0  0  0
 35 39  1  6  0  0  0
 35 34  1  0  0  0  0
 36 38  1  0  0  0  0
 38 37  1  6  0  0  0
 38 35  1  0  0  0  0
 39 40  1  0  0  0  0
 40 41  1  0  0  0  0
 41 42  1  0  0  0  0
M  END
>  <MODEL>
9

>  <REMARK>
 VINA RESULT:      -5.9      2.507      7.976
  Name = 
  13 active torsions:
  status: ('A' for Active; 'I' for Inactive)
    1  A    between atoms: C_1  and  C_27
    2  A    between atoms: C_3  and  C_22
    3  A    between atoms: N_6  and  C_21
    4  A    between atoms: C_7  and  C_9
    5  A    between atoms: C_15  and  C_25
    6  A    between atoms: C_15  and  C_36
    7  A    between atoms: C_16  and  C_21
    8  A    between atoms: C_16  and  C_25
    9  A    between atoms: C_18  and  C_32
   10  A    between atoms: N_20  and  C_26
   11  A    between atoms: C_22  and  C_34
   12  A    between atoms: C_25  and  C_35
   13  A    between atoms: N_30  and  C_36
                            x       y       z     vdW  Elec       q    Type
                         _______ _______ _______ _____ _____    ______ ____

>  <TORSDO>
F 13

$$$$
