=
 OpenBabel11042422433D

 66 72  0  0  1  0  0  0  0  0999 V2000
  158.6710  213.4600  152.6460 N   0  0  0  0  0  2  0  0  0  0  0  0
  159.1100  213.3190  151.3020 C   0  0  0  0  0  0  0  0  0  0  0  0
  160.8680  211.7320  150.3720 C   0  0  0  0  0  0  0  0  0  0  0  0
  159.7190  214.4000  149.1440 C   0  0  0  0  0  3  0  0  0  0  0  0
  160.6520  213.5920  148.6190 C   0  0  0  0  0  0  0  0  0  0  0  0
  159.3760  211.3270  152.3730 C   0  0  0  0  0  0  0  0  0  0  0  0
  161.2830  212.4530  149.3220 C   0  0  0  0  0  3  0  0  0  0  0  0
  159.1310  214.3600  150.4850 C   0  0  0  0  0  3  0  0  0  0  0  0
  159.4940  211.8960  150.9810 C   0  0  1  0  0  3  0  0  0  0  0  0
  159.6760  210.1500  152.7180 O   0  0  0  0  0  0  0  0  0  0  0  0
  158.8780  212.2550  153.2660 O   0  0  0  0  0  0  0  0  0  0  0  0
  162.1280  209.7200  149.5500 C   0  0  0  0  0  2  0  0  0  0  0  0
  161.2550  207.2530  152.2680 C   0  0  0  0  0  0  0  0  0  0  0  0
  160.4580  205.1020  151.0220 C   0  0  0  0  0  3  0  0  0  0  0  0
  160.8440  206.1840  151.6350 C   0  0  0  0  0  0  0  0  0  0  0  0
  162.0460  208.2780  150.0200 C   0  0  1  0  0  3  0  0  0  0  0  0
  161.6020  210.5320  150.6420 N   0  0  0  0  0  0  0  0  0  0  0  0
  161.7300  210.3040  153.0240 N   0  0  0  0  0  2  0  0  0  0  0  0
  163.2960  207.5200  149.6070 C   0  0  0  0  0  1  0  0  0  0  0  0
  161.8400  208.4600  154.4170 C   0  0  1  0  0  3  0  0  0  0  0  0
  161.1680  207.2450  153.7730 C   0  0  0  0  0  2  0  0  0  0  0  0
  161.0870  209.6710  154.1060 N   0  0  0  0  0  2  0  0  0  0  0  0
  161.2490  209.7060  151.7830 C   0  0  2  0  0  3  0  0  0  0  0  0
  161.9490  208.3850  151.5390 C   0  0  1  0  0  3  0  0  0  0  0  0
  162.4010  203.5620  152.1190 O   0  0  0  0  0  0  0  0  0  0  0  0
  160.9640  203.4990  151.6460 P   0  0  1  0  0  0  0  0  0  0  0  0
  159.9640  203.0750  152.9440 O   0  0  0  0  0  1  0  0  0  0  0  0
  160.8020  202.2520  150.3340 C   0  0  0  0  0  2  0  0  0  0  0  0
  161.5780  202.6790  149.1020 C   0  0  0  0  0  2  0  0  0  0  0  0
  159.6080  201.7200  148.0870 O   0  0  0  0  0  1  0  0  0  0  0  0
  160.8040  202.4000  147.8060 C   0  0  1  0  0  0  0  0  0  0  0  0
  160.4920  203.7280  147.1220 C   0  0  0  0  0  2  0  0  0  0  0  0
  161.5230  204.1030  146.2480 O   0  0  0  0  0  0  0  0  0  0  0  0
  160.7080  206.2470  146.8480 O   0  0  0  0  0  0  0  0  0  0  0  0
  160.7520  205.6660  144.5770 O   0  0  0  0  0  1  0  0  0  0  0  0
  161.2600  205.4240  145.8520 C   0  0  2  0  0  0  0  0  0  0  0  0
  162.0550  206.4930  146.4830 C   0  0  0  0  0  2  0  0  0  0  0  0
  161.6740  201.5460  146.8710 C   0  0  0  0  0  2  0  0  0  0  0  0
  160.8570  200.7300  145.9200 C   0  0  0  0  0  0  0  0  0  0  0  0
  161.0270  199.3190  145.8670 N   0  0  0  0  0  1  0  0  0  0  0  0
  160.0960  201.3010  145.0940 O   0  0  0  0  0  0  0  0  0  0  0  0
  162.0320  208.1600  157.0680 C   0  0  0  0  0  3  0  0  0  0  0  0
  161.9340  208.2860  155.8690 C   0  0  0  0  0  0  0  0  0  0  0  0
  162.5630  214.3790  147.1160 C   0  0  0  0  0  3  0  0  0  0  0  0
  162.3010  213.3400  143.0920 O   0  0  0  0  0  0  0  0  0  0  0  0
  161.5560  214.1460  145.1450 N   0  0  0  0  0  0  0  0  0  0  0  0
  161.3900  213.9210  143.7440 C   0  0  0  0  0  0  0  0  0  0  0  0
  160.6460  213.8520  146.0860 C   0  0  0  0  0  3  0  0  0  0  0  0
  161.2480  213.9900  147.3230 C   0  0  0  0  0  0  0  0  0  0  0  0
  160.1960  214.3540  143.0790 N   0  0  0  0  0  2  0  0  0  0  0  0
  162.7190  214.4530  145.7450 C   0  0  0  0  0  3  0  0  0  0  0  0
  160.6340  212.9270  141.1360 C   0  0  0  0  0  3  0  0  0  0  0  0
  158.9230  212.5960  139.4560 C   0  0  0  0  0  3  0  0  0  0  0  0
  158.4970  214.0540  141.3330 C   0  0  0  0  0  3  0  0  0  0  0  0
  159.7770  213.7800  141.8400 C   0  0  0  0  0  0  0  0  0  0  0  0
  158.0720  213.4650  140.1430 C   0  0  0  0  0  3  0  0  0  0  0  0
  160.2080  212.3220  139.9490 C   0  0  0  0  0  0  0  0  0  0  0  0
  159.2410  210.0940  138.5250 O   0  0  0  0  0  0  0  0  0  0  0  0
  160.4940  210.2260  138.6290 C   0  0  0  0  0  0  0  0  0  0  0  0
  161.0580  211.3860  139.2680 N   0  0  0  0  0  0  0  0  0  0  0  0
  163.1170  211.1830  140.3120 O   0  0  0  0  0  1  0  0  0  0  0  0
  162.4590  211.5370  139.3160 N   0  0  0  0  0  2  0  0  0  0  0  0
  161.3810  209.1750  138.0400 C   0  0  0  0  0  2  0  0  0  0  0  0
  161.1350  207.8220  138.7020 C   0  0  0  0  0  2  0  0  0  0  0  0
  162.4540  206.2570  139.9360 O   0  0  0  0  0  1  0  0  0  0  0  0
  162.0900  207.6010  139.8630 C   0  0  0  0  0  2  0  0  0  0  0  0
  1 11  1  0  0  0  0
  2  1  1  0  0  0  0
  3 17  1  0  0  0  0
  4  8  1  0  0  0  0
  5  4  2  0  0  0  0
  5  7  1  0  0  0  0
  6 10  2  0  0  0  0
  6 11  1  0  0  0  0
  7  3  2  0  0  0  0
  8  2  2  0  0  0  0
  9  3  1  1  0  0  0
  9  2  1  0  0  0  0
  9  6  1  0  0  0  0
 12 16  1  0  0  0  0
 12 17  1  0  0  0  0
 13 21  1  0  0  0  0
 14 15  2  0  0  0  0
 14 26  1  0  0  0  0
 15 13  2  0  0  0  0
 16 19  1  1  0  0  0
 16 24  1  0  0  0  0
 17 23  1  0  0  0  0
 18 22  1  0  0  0  0
 20 43  1  1  0  0  0
 21 20  1  0  0  0  0
 22 20  1  0  0  0  0
 23 18  1  1  0  0  0
 24 23  1  0  0  0  0
 24 13  1  6  0  0  0
 26 25  2  1  0  0  0
 26 27  1  0  0  0  0
 28 26  1  0  0  0  0
 29 28  1  0  0  0  0
 31 30  1  1  0  0  0
 31 29  1  0  0  0  0
 32 31  1  0  0  0  0
 33 32  1  0  0  0  0
 36 35  1  6  0  0  0
 36 33  1  0  0  0  0
 36 37  1  0  0  0  0
 36 34  1  0  0  0  0
 37 34  1  0  0  0  0
 38 31  1  0  0  0  0
 39 38  1  0  0  0  0
 40 39  1  0  0  0  0
 41 39  2  0  0  0  0
 43 42  3  0  0  0  0
 44 49  1  0  0  0  0
 45 47  2  0  0  0  0
 46 51  1  0  0  0  0
 46 48  1  0  0  0  0
 47 46  1  0  0  0  0
 48 49  2  0  0  0  0
 49  5  1  0  0  0  0
 50 47  1  0  0  0  0
 51 44  2  0  0  0  0
 52 55  1  0  0  0  0
 53 57  1  0  0  0  0
 53 56  2  0  0  0  0
 54 55  2  0  0  0  0
 55 50  1  0  0  0  0
 56 54  1  0  0  0  0
 57 52  2  0  0  0  0
 58 59  2  0  0  0  0
 59 60  1  0  0  0  0
 60 62  1  0  0  0  0
 60 57  1  0  0  0  0
 62 61  1  0  0  0  0
 63 59  1  0  0  0  0
 63 64  1  0  0  0  0
 64 66  1  0  0  0  0
 66 65  1  0  0  0  0
M  END
>  <MODEL>
1

>  <REMARK>
 VINA RESULT:      -4.9      0.000      0.000
  Name = 
  18 active torsions:
  status: ('A' for Active; 'I' for Inactive)
    1  A    between atoms: C_5  and  P_37
    2  A    between atoms: C_9  and  N_26
    3  A    between atoms: O_10  and  C_19
    4  A    between atoms: O_10  and  C_38
    5  A    between atoms: C_13  and  C_58
    6  A    between atoms: C_25  and  C_30
    7  A    between atoms: C_25  and  C_53
    8  A    between atoms: C_30  and  P_37
    9  A    between atoms: C_32  and  C_35
   10  A    between atoms: C_36  and  N_59
   11  A    between atoms: C_38  and  C_53
   12  A    between atoms: C_42  and  C_49
   13  A    between atoms: C_42  and  C_57
   14  A    between atoms: C_43  and  C_44
   15  A    between atoms: C_43  and  C_53
   16  A    between atoms: C_45  and  C_57
   17  A    between atoms: N_50  and  N_62
   18  A    between atoms: N_50  and  C_64
                            x       y       z     vdW  Elec       q    Type
                         _______ _______ _______ _____ _____    ______ ____

>  <TORSDO>
F 18

$$$$
=
 OpenBabel11042422433D

 66 72  0  0  1  0  0  0  0  0999 V2000
  157.5700  211.7860  155.5740 N   0  0  0  0  0  2  0  0  0  0  0  0
  158.6380  211.2120  154.8320 C   0  0  0  0  0  0  0  0  0  0  0  0
  159.3050  211.6590  152.4180 C   0  0  0  0  0  0  0  0  0  0  0  0
  159.9900  209.1990  154.2690 C   0  0  0  0  0  3  0  0  0  0  0  0
  160.3610  209.3940  152.9950 C   0  0  0  0  0  0  0  0  0  0  0  0
  158.2060  213.2900  154.0070 C   0  0  0  0  0  0  0  0  0  0  0  0
  159.8600  210.4770  152.1190 C   0  0  0  0  0  3  0  0  0  0  0  0
  159.0340  209.9710  155.0650 C   0  0  0  0  0  3  0  0  0  0  0  0
  159.2160  212.1840  153.8340 C   0  0  1  0  0  3  0  0  0  0  0  0
  158.1530  214.3550  153.3300 O   0  0  0  0  0  0  0  0  0  0  0  0
  157.3160  213.0180  155.0280 O   0  0  0  0  0  0  0  0  0  0  0  0
  157.8480  213.0010  150.8720 C   0  0  0  0  0  2  0  0  0  0  0  0
  159.9980  212.9780  147.7720 C   0  0  0  0  0  0  0  0  0  0  0  0
  158.4080  212.2570  145.8310 C   0  0  0  0  0  3  0  0  0  0  0  0
  159.1970  212.6020  146.8080 C   0  0  0  0  0  0  0  0  0  0  0  0
  157.9670  213.1990  149.3710 C   0  0  1  0  0  3  0  0  0  0  0  0
  159.1680  212.5830  151.3310 N   0  0  0  0  0  0  0  0  0  0  0  0
  161.3810  213.1750  150.6270 N   0  0  0  0  0  2  0  0  0  0  0  0
  157.2040  214.4410  148.9430 C   0  0  0  0  0  1  0  0  0  0  0  0
  162.2610  213.7820  148.5760 C   0  0  1  0  0  3  0  0  0  0  0  0
  161.4540  213.1700  147.4290 C   0  0  0  0  0  2  0  0  0  0  0  0
  162.3630  212.8310  149.6780 N   0  0  0  0  0  2  0  0  0  0  0  0
  160.1190  212.5580  150.2340 C   0  0  2  0  0  3  0  0  0  0  0  0
  159.4660  213.3700  149.1350 C   0  0  1  0  0  3  0  0  0  0  0  0
  157.1770  213.5030  143.7620 O   0  0  0  0  0  0  0  0  0  0  0  0
  158.5480  213.0760  144.2430 P   0  0  1  0  0  0  0  0  0  0  0  0
  159.5320  214.4430  144.4150 O   0  0  0  0  0  1  0  0  0  0  0  0
  159.3000  211.9470  143.0340 C   0  0  0  0  0  2  0  0  0  0  0  0
  160.1520  212.7220  142.0470 C   0  0  0  0  0  2  0  0  0  0  0  0
  161.2740  210.7730  141.1660 O   0  0  0  0  0  1  0  0  0  0  0  0
  160.5010  211.8890  140.8050 C   0  0  1  0  0  0  0  0  0  0  0  0
  159.2070  211.4240  140.1430 C   0  0  0  0  0  2  0  0  0  0  0  0
  159.2490  211.6200  138.7530 O   0  0  0  0  0  0  0  0  0  0  0  0
  157.9460  212.6070  137.0370 O   0  0  0  0  0  0  0  0  0  0  0  0
  157.6140  213.3260  139.2430 O   0  0  0  0  0  1  0  0  0  0  0  0
  158.0820  212.3170  138.4050 C   0  0  2  0  0  0  0  0  0  0  0  0
  157.0930  211.6100  137.5700 C   0  0  0  0  0  2  0  0  0  0  0  0
  161.2870  212.7610  139.8150 C   0  0  0  0  0  2  0  0  0  0  0  0
  162.6170  212.1720  139.4680 C   0  0  0  0  0  0  0  0  0  0  0  0
  162.7050  210.8150  139.0490 N   0  0  0  0  0  1  0  0  0  0  0  0
  163.6680  212.8420  139.6480 O   0  0  0  0  0  0  0  0  0  0  0  0
  164.7060  214.4530  147.7220 C   0  0  0  0  0  3  0  0  0  0  0  0
  163.5990  214.1630  148.1150 C   0  0  0  0  0  0  0  0  0  0  0  0
  161.9840  207.4190  152.9990 C   0  0  0  0  0  3  0  0  0  0  0  0
  161.7000  204.7860  149.7860 O   0  0  0  0  0  0  0  0  0  0  0  0
  161.8230  206.8510  150.8520 N   0  0  0  0  0  0  0  0  0  0  0  0
  161.8280  206.0370  149.6790 C   0  0  0  0  0  0  0  0  0  0  0  0
  161.0820  207.9580  151.0210 C   0  0  0  0  0  3  0  0  0  0  0  0
  161.1660  208.3320  152.3490 C   0  0  0  0  0  0  0  0  0  0  0  0
  161.9790  206.6350  148.3850 N   0  0  0  0  0  2  0  0  0  0  0  0
  162.3630  206.5050  152.0340 C   0  0  0  0  0  3  0  0  0  0  0  0
  161.3310  204.5880  147.2040 C   0  0  0  0  0  3  0  0  0  0  0  0
  160.6300  204.6870  144.8890 C   0  0  0  0  0  3  0  0  0  0  0  0
  161.3230  206.7040  146.0210 C   0  0  0  0  0  3  0  0  0  0  0  0
  161.5480  205.9710  147.1960 C   0  0  0  0  0  0  0  0  0  0  0  0
  160.8670  206.0630  144.8690 C   0  0  0  0  0  3  0  0  0  0  0  0
  160.8600  203.9420  146.0570 C   0  0  0  0  0  0  0  0  0  0  0  0
  161.5790  202.2450  148.1850 O   0  0  0  0  0  0  0  0  0  0  0  0
  161.0350  201.7200  147.1730 C   0  0  0  0  0  0  0  0  0  0  0  0
  160.5630  202.5380  146.0870 N   0  0  0  0  0  0  0  0  0  0  0  0
  159.1490  202.5780  144.2510 O   0  0  0  0  0  1  0  0  0  0  0  0
  159.9050  201.9300  144.9980 N   0  0  0  0  0  2  0  0  0  0  0  0
  160.8520  200.2350  147.1420 C   0  0  0  0  0  2  0  0  0  0  0  0
  161.6960  199.6060  146.0360 C   0  0  0  0  0  2  0  0  0  0  0  0
  161.6540  197.9140  144.3490 O   0  0  0  0  0  1  0  0  0  0  0  0
  161.0930  198.2920  145.5690 C   0  0  0  0  0  2  0  0  0  0  0  0
  2  8  2  0  0  0  0
  2  1  1  0  0  0  0
  4  8  1  0  0  0  0
  5  4  2  0  0  0  0
  6 11  1  0  0  0  0
  7  3  2  0  0  0  0
  7  5  1  0  0  0  0
  9  3  1  6  0  0  0
  9  6  1  0  0  0  0
  9  2  1  0  0  0  0
 10  6  2  0  0  0  0
 11  1  1  0  0  0  0
 12 17  1  0  0  0  0
 14 15  2  0  0  0  0
 15 13  2  0  0  0  0
 16 19  1  1  0  0  0
 16 12  1  0  0  0  0
 17  3  1  0  0  0  0
 20 43  1  6  0  0  0
 20 22  1  0  0  0  0
 21 13  1  0  0  0  0
 21 20  1  0  0  0  0
 22 18  1  0  0  0  0
 23 18  1  1  0  0  0
 23 17  1  0  0  0  0
 24 13  1  6  0  0  0
 24 16  1  0  0  0  0
 24 23  1  0  0  0  0
 26 25  2  6  0  0  0
 26 27  1  0  0  0  0
 26 14  1  0  0  0  0
 28 26  1  0  0  0  0
 29 28  1  0  0  0  0
 31 30  1  1  0  0  0
 31 29  1  0  0  0  0
 32 31  1  0  0  0  0
 33 32  1  0  0  0  0
 34 37  1  0  0  0  0
 34 36  1  0  0  0  0
 36 33  1  0  0  0  0
 36 35  1  1  0  0  0
 37 36  1  0  0  0  0
 38 31  1  0  0  0  0
 39 41  2  0  0  0  0
 39 38  1  0  0  0  0
 40 39  1  0  0  0  0
 42 43  3  0  0  0  0
 46 48  1  0  0  0  0
 46 51  1  0  0  0  0
 47 45  2  0  0  0  0
 47 46  1  0  0  0  0
 48 49  2  0  0  0  0
 49  5  1  0  0  0  0
 49 44  1  0  0  0  0
 50 47  1  0  0  0  0
 51 44  2  0  0  0  0
 53 57  1  0  0  0  0
 54 55  2  0  0  0  0
 55 52  1  0  0  0  0
 55 50  1  0  0  0  0
 56 53  2  0  0  0  0
 56 54  1  0  0  0  0
 57 60  1  0  0  0  0
 57 52  2  0  0  0  0
 59 58  2  0  0  0  0
 60 59  1  0  0  0  0
 61 62  1  0  0  0  0
 62 60  1  0  0  0  0
 63 59  1  0  0  0  0
 64 63  1  0  0  0  0
 65 66  1  0  0  0  0
 66 64  1  0  0  0  0
M  END
>  <MODEL>
2

>  <REMARK>
 VINA RESULT:      -4.2      2.927      9.561
  Name = 
  18 active torsions:
  status: ('A' for Active; 'I' for Inactive)
    1  A    between atoms: C_5  and  P_37
    2  A    between atoms: C_9  and  N_26
    3  A    between atoms: O_10  and  C_19
    4  A    between atoms: O_10  and  C_38
    5  A    between atoms: C_13  and  C_58
    6  A    between atoms: C_25  and  C_30
    7  A    between atoms: C_25  and  C_53
    8  A    between atoms: C_30  and  P_37
    9  A    between atoms: C_32  and  C_35
   10  A    between atoms: C_36  and  N_59
   11  A    between atoms: C_38  and  C_53
   12  A    between atoms: C_42  and  C_49
   13  A    between atoms: C_42  and  C_57
   14  A    between atoms: C_43  and  C_44
   15  A    between atoms: C_43  and  C_53
   16  A    between atoms: C_45  and  C_57
   17  A    between atoms: N_50  and  N_62
   18  A    between atoms: N_50  and  C_64
                            x       y       z     vdW  Elec       q    Type
                         _______ _______ _______ _____ _____    ______ ____

>  <TORSDO>
F 18

$$$$
=
 OpenBabel11042422433D

 66 72  0  0  1  0  0  0  0  0999 V2000
  157.8980  211.4560  155.8110 N   0  0  0  0  0  2  0  0  0  0  0  0
  158.8540  210.6690  155.1130 C   0  0  0  0  0  0  0  0  0  0  0  0
  159.7490  210.9930  152.7540 C   0  0  0  0  0  0  0  0  0  0  0  0
  159.7540  208.4130  154.5670 C   0  0  0  0  0  3  0  0  0  0  0  0
  160.2360  208.5400  153.3220 C   0  0  0  0  0  0  0  0  0  0  0  0
  158.9480  212.8040  154.3260 C   0  0  0  0  0  0  0  0  0  0  0  0
  160.0430  209.7220  152.4520 C   0  0  0  0  0  3  0  0  0  0  0  0
  158.9480  209.3670  155.3320 C   0  0  0  0  0  3  0  0  0  0  0  0
  159.6940  211.5020  154.1770 C   0  0  1  0  0  3  0  0  0  0  0  0
  159.1750  213.8640  153.6790 O   0  0  0  0  0  0  0  0  0  0  0  0
  157.9590  212.7210  155.2880 O   0  0  0  0  0  0  0  0  0  0  0  0
  158.7790  212.8150  151.3210 C   0  0  0  0  0  2  0  0  0  0  0  0
  160.6020  212.1360  148.0880 C   0  0  0  0  0  0  0  0  0  0  0  0
  158.7530  212.0900  146.2460 C   0  0  0  0  0  3  0  0  0  0  0  0
  159.6670  212.1000  147.1730 C   0  0  0  0  0  0  0  0  0  0  0  0
  158.8760  213.0070  149.8170 C   0  0  1  0  0  3  0  0  0  0  0  0
  159.8880  211.9410  151.6890 N   0  0  0  0  0  0  0  0  0  0  0  0
  162.1240  211.7360  150.8500 N   0  0  0  0  0  2  0  0  0  0  0  0
  158.5810  214.4530  149.4530 C   0  0  0  0  0  1  0  0  0  0  0  0
  163.0450  212.0610  148.7530 C   0  0  1  0  0  3  0  0  0  0  0  0
  162.0100  211.8120  147.6540 C   0  0  0  0  0  2  0  0  0  0  0  0
  162.8650  211.0990  149.8360 N   0  0  0  0  0  2  0  0  0  0  0  0
  160.7050  211.6180  150.5320 C   0  0  2  0  0  3  0  0  0  0  0  0
  160.3210  212.6450  149.4860 C   0  0  1  0  0  3  0  0  0  0  0  0
  158.1590  214.0380  144.4580 O   0  0  0  0  0  0  0  0  0  0  0  0
  159.0860  212.8580  144.6610 P   0  0  1  0  0  0  0  0  0  0  0  0
  160.6910  213.3970  144.6370 O   0  0  0  0  0  1  0  0  0  0  0  0
  158.8420  211.6480  143.3280 C   0  0  0  0  0  2  0  0  0  0  0  0
  160.0990  211.5280  142.4870 C   0  0  0  0  0  2  0  0  0  0  0  0
  158.5020  212.2430  140.8230 O   0  0  0  0  0  1  0  0  0  0  0  0
  159.8490  211.8940  141.0170 C   0  0  1  0  0  0  0  0  0  0  0  0
  160.7440  213.0720  140.6430 C   0  0  0  0  0  2  0  0  0  0  0  0
  162.0640  212.6540  140.4140 O   0  0  0  0  0  0  0  0  0  0  0  0
  162.3300  214.4530  141.9340 O   0  0  0  0  0  0  0  0  0  0  0  0
  163.7460  214.3500  140.0690 O   0  0  0  0  0  1  0  0  0  0  0  0
  162.9030  213.6530  140.9310 C   0  0  2  0  0  0  0  0  0  0  0  0
  163.3210  213.5250  142.3390 C   0  0  0  0  0  2  0  0  0  0  0  0
  160.2030  210.6920  140.1290 C   0  0  0  0  0  2  0  0  0  0  0  0
  159.4380  210.6890  138.8440 C   0  0  0  0  0  0  0  0  0  0  0  0
  159.9210  211.4250  137.7270 N   0  0  0  0  0  1  0  0  0  0  0  0
  158.3140  210.1230  138.7820 O   0  0  0  0  0  0  0  0  0  0  0  0
  165.5340  211.8770  147.7900 C   0  0  0  0  0  3  0  0  0  0  0  0
  164.4030  211.9590  148.2110 C   0  0  0  0  0  0  0  0  0  0  0  0
  161.1120  206.1390  153.3310 C   0  0  0  0  0  3  0  0  0  0  0  0
  160.9180  204.0860  149.7130 O   0  0  0  0  0  0  0  0  0  0  0  0
  161.3730  205.8710  151.1360 N   0  0  0  0  0  0  0  0  0  0  0  0
  161.4460  205.2220  149.8660 C   0  0  0  0  0  0  0  0  0  0  0  0
  160.9890  207.1420  151.3320 C   0  0  0  0  0  3  0  0  0  0  0  0
  160.8210  207.3340  152.6910 C   0  0  0  0  0  0  0  0  0  0  0  0
  162.1170  205.8550  148.7690 N   0  0  0  0  0  2  0  0  0  0  0  0
  161.4390  205.2470  152.3260 C   0  0  0  0  0  3  0  0  0  0  0  0
  161.4100  204.2020  147.1040 C   0  0  0  0  0  3  0  0  0  0  0  0
  161.2320  204.8220  144.7700 C   0  0  0  0  0  3  0  0  0  0  0  0
  161.9900  206.4460  146.3900 C   0  0  0  0  0  3  0  0  0  0  0  0
  161.8440  205.4970  147.4130 C   0  0  0  0  0  0  0  0  0  0  0  0
  161.6870  206.1080  145.0710 C   0  0  0  0  0  3  0  0  0  0  0  0
  161.0910  203.8630  145.7850 C   0  0  0  0  0  0  0  0  0  0  0  0
  161.5370  201.5930  147.3900 O   0  0  0  0  0  0  0  0  0  0  0  0
  160.9110  201.4310  146.3050 C   0  0  0  0  0  0  0  0  0  0  0  0
  160.5720  202.5600  145.4780 N   0  0  0  0  0  0  0  0  0  0  0  0
  158.8310  203.0630  144.0340 O   0  0  0  0  0  1  0  0  0  0  0  0
  159.8200  202.3560  144.3030 N   0  0  0  0  0  2  0  0  0  0  0  0
  160.4910  200.0490  145.9140 C   0  0  0  0  0  2  0  0  0  0  0  0
  161.6910  199.1050  145.8830 C   0  0  0  0  0  2  0  0  0  0  0  0
  159.9170  197.5900  145.3630 O   0  0  0  0  0  1  0  0  0  0  0  0
  161.3030  197.7470  145.3230 C   0  0  0  0  0  2  0  0  0  0  0  0
  2  8  2  0  0  0  0
  2  1  1  0  0  0  0
  4  8  1  0  0  0  0
  5  4  2  0  0  0  0
  6 11  1  0  0  0  0
  7  3  2  0  0  0  0
  7  5  1  0  0  0  0
  9  3  1  6  0  0  0
  9  6  1  0  0  0  0
  9  2  1  0  0  0  0
 10  6  2  0  0  0  0
 11  1  1  0  0  0  0
 12 17  1  0  0  0  0
 14 15  2  0  0  0  0
 15 13  2  0  0  0  0
 16 19  1  1  0  0  0
 16 12  1  0  0  0  0
 17  3  1  0  0  0  0
 20 43  1  6  0  0  0
 20 22  1  0  0  0  0
 21 13  1  0  0  0  0
 21 20  1  0  0  0  0
 22 18  1  0  0  0  0
 23 18  1  1  0  0  0
 23 17  1  0  0  0  0
 24 13  1  6  0  0  0
 24 16  1  0  0  0  0
 24 23  1  0  0  0  0
 26 25  2  6  0  0  0
 26 14  1  0  0  0  0
 27 26  1  0  0  0  0
 28 26  1  0  0  0  0
 29 28  1  0  0  0  0
 31 30  1  6  0  0  0
 31 29  1  0  0  0  0
 32 31  1  0  0  0  0
 33 32  1  0  0  0  0
 33 36  1  0  0  0  0
 34 37  1  0  0  0  0
 36 35  1  6  0  0  0
 36 34  1  0  0  0  0
 36 37  1  0  0  0  0
 38 31  1  0  0  0  0
 39 38  1  0  0  0  0
 40 39  1  0  0  0  0
 41 39  2  0  0  0  0
 42 43  3  0  0  0  0
 45 47  2  0  0  0  0
 46 48  1  0  0  0  0
 46 51  1  0  0  0  0
 47 46  1  0  0  0  0
 48 49  2  0  0  0  0
 49  5  1  0  0  0  0
 49 44  1  0  0  0  0
 50 47  1  0  0  0  0
 51 44  2  0  0  0  0
 52 55  1  0  0  0  0
 53 56  2  0  0  0  0
 53 57  1  0  0  0  0
 54 55  2  0  0  0  0
 55 50  1  0  0  0  0
 56 54  1  0  0  0  0
 57 52  2  0  0  0  0
 59 58  2  0  0  0  0
 60 57  1  0  0  0  0
 60 59  1  0  0  0  0
 61 62  1  0  0  0  0
 62 60  1  0  0  0  0
 63 59  1  0  0  0  0
 64 63  1  0  0  0  0
 66 65  1  0  0  0  0
 66 64  1  0  0  0  0
M  END
>  <MODEL>
3

>  <REMARK>
 VINA RESULT:      -2.3      2.881      9.366
  Name = 
  18 active torsions:
  status: ('A' for Active; 'I' for Inactive)
    1  A    between atoms: C_5  and  P_37
    2  A    between atoms: C_9  and  N_26
    3  A    between atoms: O_10  and  C_19
    4  A    between atoms: O_10  and  C_38
    5  A    between atoms: C_13  and  C_58
    6  A    between atoms: C_25  and  C_30
    7  A    between atoms: C_25  and  C_53
    8  A    between atoms: C_30  and  P_37
    9  A    between atoms: C_32  and  C_35
   10  A    between atoms: C_36  and  N_59
   11  A    between atoms: C_38  and  C_53
   12  A    between atoms: C_42  and  C_49
   13  A    between atoms: C_42  and  C_57
   14  A    between atoms: C_43  and  C_44
   15  A    between atoms: C_43  and  C_53
   16  A    between atoms: C_45  and  C_57
   17  A    between atoms: N_50  and  N_62
   18  A    between atoms: N_50  and  C_64
                            x       y       z     vdW  Elec       q    Type
                         _______ _______ _______ _____ _____    ______ ____

>  <TORSDO>
F 18

$$$$
