=
 OpenBabel11042421223D

 39 44  0  0  1  0  0  0  0  0999 V2000
  159.5500  209.0170  152.4000 O   0  0  0  0  0  1  0  0  0  0  0  0
  157.5140  212.3960  155.0640 N   0  0  0  0  0  0  0  0  0  0  0  0
  154.8370  213.1200  157.2600 C   0  0  0  0  0  3  0  0  0  0  0  0
  161.1560  212.2160  151.5150 C   0  0  0  0  0  2  0  0  0  0  0  0
  158.7850  212.4120  152.9330 C   0  0  2  0  0  3  0  0  0  0  0  0
  156.4300  212.7570  155.7880 C   0  0  0  0  0  0  0  0  0  0  0  0
  156.7050  214.1490  152.0280 N   0  0  0  0  0  0  0  0  0  0  0  0
  158.8570  213.1270  151.6100 C   0  0  0  0  0  0  0  0  0  0  0  0
  156.6130  213.6990  153.2410 C   0  0  0  0  0  0  0  0  0  0  0  0
  155.5330  214.0360  154.0070 N   0  0  0  0  0  0  0  0  0  0  0  0
  159.8970  210.3170  152.7690 C   0  0  2  0  0  0  0  0  0  0  0  0
  158.6650  211.0360  152.6820 O   0  0  0  0  0  0  0  0  0  0  0  0
  161.9970  209.9300  151.3670 C   0  0  0  0  0  0  0  0  0  0  0  0
  155.4640  213.5540  155.2720 C   0  0  0  0  0  0  0  0  0  0  0  0
  160.9270  210.7990  151.8010 N   0  0  0  0  0  0  0  0  0  0  0  0
  163.0090  210.4170  150.6060 F   0  0  0  0  0  0  0  0  0  0  0  0
  157.8340  213.8780  151.1850 C   0  0  0  0  0  3  0  0  0  0  0  0
  154.4400  213.7870  156.2160 N   0  0  0  0  0  0  0  0  0  0  0  0
  157.6310  212.8630  153.7840 C   0  0  0  0  0  0  0  0  0  0  0  0
  162.0290  208.7180  151.7000 O   0  0  0  0  0  0  0  0  0  0  0  0
  160.0170  212.8230  150.7050 C   0  0  1  0  0  3  0  0  0  0  0  0
  156.1310  212.4310  157.0290 C   0  0  0  0  0  3  0  0  0  0  0  0
  161.1060  209.3490  156.3790 C   0  0  0  0  0  0  0  0  0  0  0  0
  161.0620  211.5300  154.6520 C   0  0  0  0  0  3  0  0  0  0  0  0
  161.6370  210.5720  156.7830 C   0  0  0  0  0  3  0  0  0  0  0  0
  160.6790  207.0190  156.8740 C   0  0  0  0  0  3  0  0  0  0  0  0
  160.0570  207.9340  154.7220 C   0  0  0  0  0  3  0  0  0  0  0  0
  160.5350  209.2040  155.0840 C   0  0  0  0  0  0  0  0  0  0  0  0
  160.1280  206.8520  155.6040 C   0  0  0  0  0  3  0  0  0  0  0  0
  161.6240  211.6570  155.9180 C   0  0  0  0  0  3  0  0  0  0  0  0
  161.1640  208.2660  157.2610 C   0  0  0  0  0  3  0  0  0  0  0  0
  160.4820  210.3300  154.2040 C   0  0  0  0  0  0  0  0  0  0  0  0
  160.5270  214.0780  150.0000 C   0  0  0  0  0  2  0  0  0  0  0  0
  160.7030  213.8220  148.5130 C   0  0  0  0  0  2  0  0  0  0  0  0
  162.0990  213.9880  148.1360 N   0  0  0  0  0  2  0  0  0  0  0  0
  162.6240  212.7140  147.6480 C   0  0  0  0  0  0  0  0  0  0  0  0
  163.8890  212.5210  148.1690 F   0  0  0  0  0  0  0  0  0  0  0  0
  161.8080  211.6720  148.0590 F   0  0  0  0  0  0  0  0  0  0  0  0
  162.7090  212.7240  146.2650 F   0  0  0  0  0  0  0  0  0  0  0  0
  2  6  1  0  0  0  0
  4 15  1  0  0  0  0
  5  8  1  6  0  0  0
  5 19  1  0  0  0  0
  6 22  2  0  0  0  0
  7  9  2  0  0  0  0
  9 19  1  0  0  0  0
  9 10  1  0  0  0  0
 10 14  2  0  0  0  0
 11  1  1  6  0  0  0
 11 32  1  0  0  0  0
 12 11  1  0  0  0  0
 12  5  1  0  0  0  0
 13 20  2  0  0  0  0
 13 15  1  0  0  0  0
 14  6  1  0  0  0  0
 14 18  1  0  0  0  0
 15 11  1  0  0  0  0
 16 13  1  0  0  0  0
 17  8  2  0  0  0  0
 17  7  1  0  0  0  0
 18  3  2  0  0  0  0
 19  2  2  0  0  0  0
 21 33  1  1  0  0  0
 21  4  1  0  0  0  0
 21  8  1  0  0  0  0
 22  3  1  0  0  0  0
 23 25  1  0  0  0  0
 23 31  1  0  0  0  0
 24 30  1  0  0  0  0
 26 31  2  0  0  0  0
 27 28  1  0  0  0  0
 27 29  2  0  0  0  0
 28 23  2  0  0  0  0
 29 26  1  0  0  0  0
 30 25  2  0  0  0  0
 32 24  2  0  0  0  0
 32 28  1  0  0  0  0
 34 33  1  0  0  0  0
 35 34  1  0  0  0  0
 36 38  1  0  0  0  0
 36 35  1  0  0  0  0
 36 37  1  0  0  0  0
 39 36  1  0  0  0  0
M  END
>  <MODEL>
1

>  <REMARK>
 VINA RESULT:      -4.4      0.000      0.000
  Name = 
  5 active torsions:
  status: ('A' for Active; 'I' for Inactive)
    1  A    between atoms: C_1  and  C_12
    2  A    between atoms: C_1  and  N_34
    3  A    between atoms: C_5  and  N_34
    4  A    between atoms: C_12  and  C_38
    5  A    between atoms: C_20  and  C_37
                            x       y       z     vdW  Elec       q    Type
                         _______ _______ _______ _____ _____    ______ ____

>  <TORSDO>
F 5

$$$$
=
 OpenBabel11042421223D

 39 44  0  0  1  0  0  0  0  0999 V2000
  161.3280  214.4530  150.3260 O   0  0  0  0  0  1  0  0  0  0  0  0
  157.9990  212.2630  152.9290 N   0  0  0  0  0  0  0  0  0  0  0  0
  155.8240  212.5860  155.7000 C   0  0  0  0  0  3  0  0  0  0  0  0
  161.2980  210.9130  149.2960 C   0  0  0  0  0  2  0  0  0  0  0  0
  159.9930  211.4880  151.6720 C   0  0  2  0  0  3  0  0  0  0  0  0
  157.2610  212.2860  154.0620 C   0  0  0  0  0  0  0  0  0  0  0  0
  160.5300  209.9490  154.0180 N   0  0  0  0  0  0  0  0  0  0  0  0
  161.0870  210.4540  151.7190 C   0  0  0  0  0  0  0  0  0  0  0  0
  159.4760  210.7050  154.0360 C   0  0  0  0  0  0  0  0  0  0  0  0
  158.7030  210.7610  155.1610 N   0  0  0  0  0  0  0  0  0  0  0  0
  160.6270  213.2530  150.2120 C   0  0  2  0  0  0  0  0  0  0  0  0
  160.5890  212.7520  151.5490 O   0  0  0  0  0  0  0  0  0  0  0  0
  161.9780  212.9100  148.0710 C   0  0  0  0  0  0  0  0  0  0  0  0
  157.6050  211.5560  155.1500 C   0  0  0  0  0  0  0  0  0  0  0  0
  161.3900  212.3730  149.2770 N   0  0  0  0  0  0  0  0  0  0  0  0
  162.5400  212.0820  147.1560 F   0  0  0  0  0  0  0  0  0  0  0  0
  161.3580  209.8010  152.8570 C   0  0  0  0  0  3  0  0  0  0  0  0
  156.6840  211.7480  156.2020 N   0  0  0  0  0  0  0  0  0  0  0  0
  159.1130  211.4700  152.8900 C   0  0  0  0  0  0  0  0  0  0  0  0
  161.9600  214.1440  147.8300 O   0  0  0  0  0  0  0  0  0  0  0  0
  161.9820  210.3170  150.5200 C   0  0  1  0  0  3  0  0  0  0  0  0
  156.1590  212.9650  154.3050 C   0  0  0  0  0  3  0  0  0  0  0  0
  157.4430  213.4770  147.9230 C   0  0  0  0  0  0  0  0  0  0  0  0
  158.2510  214.0510  150.5210 C   0  0  0  0  0  3  0  0  0  0  0  0
  156.5450  214.0430  148.8250 C   0  0  0  0  0  3  0  0  0  0  0  0
  157.8590  212.5770  145.7150 C   0  0  0  0  0  3  0  0  0  0  0  0
  159.6210  212.5810  147.3740 C   0  0  0  0  0  3  0  0  0  0  0  0
  158.7790  213.1910  148.3180 C   0  0  0  0  0  0  0  0  0  0  0  0
  159.1690  212.2750  146.0870 C   0  0  0  0  0  3  0  0  0  0  0  0
  156.9460  214.3190  150.1250 C   0  0  0  0  0  3  0  0  0  0  0  0
  156.9990  213.1790  146.6300 C   0  0  0  0  0  3  0  0  0  0  0  0
  159.2080  213.5120  149.6430 C   0  0  0  0  0  0  0  0  0  0  0  0
  162.3210  208.8560  150.2340 C   0  0  0  0  0  2  0  0  0  0  0  0
  161.8820  208.4710  148.8310 C   0  0  0  0  0  2  0  0  0  0  0  0
  162.3070  207.1120  148.5260 N   0  0  0  0  0  2  0  0  0  0  0  0
  161.1580  206.3380  148.0630 C   0  0  0  0  0  0  0  0  0  0  0  0
  160.8500  206.7190  146.7720 F   0  0  0  0  0  0  0  0  0  0  0  0
  161.4590  204.9850  148.0690 F   0  0  0  0  0  0  0  0  0  0  0  0
  160.0580  206.5750  148.8710 F   0  0  0  0  0  0  0  0  0  0  0  0
  2  6  1  0  0  0  0
  3 18  2  0  0  0  0
  4 21  1  0  0  0  0
  5 12  1  1  0  0  0
  5  8  1  0  0  0  0
  5 19  1  0  0  0  0
  6 22  2  0  0  0  0
  6 14  1  0  0  0  0
  7  9  2  0  0  0  0
  8 17  2  0  0  0  0
  9 10  1  0  0  0  0
 11  1  1  1  0  0  0
 11 12  1  0  0  0  0
 13 15  1  0  0  0  0
 14 10  2  0  0  0  0
 14 18  1  0  0  0  0
 15  4  1  0  0  0  0
 15 11  1  0  0  0  0
 16 13  1  0  0  0  0
 17  7  1  0  0  0  0
 19  2  2  0  0  0  0
 19  9  1  0  0  0  0
 20 13  2  0  0  0  0
 21 33  1  6  0  0  0
 21  8  1  0  0  0  0
 22  3  1  0  0  0  0
 23 28  1  0  0  0  0
 23 25  1  0  0  0  0
 25 30  2  0  0  0  0
 26 29  2  0  0  0  0
 26 31  1  0  0  0  0
 27 28  2  0  0  0  0
 28 32  1  0  0  0  0
 29 27  1  0  0  0  0
 30 24  1  0  0  0  0
 31 23  2  0  0  0  0
 32 11  1  0  0  0  0
 32 24  2  0  0  0  0
 34 33  1  0  0  0  0
 35 34  1  0  0  0  0
 36 38  1  0  0  0  0
 36 35  1  0  0  0  0
 36 39  1  0  0  0  0
 37 36  1  0  0  0  0
M  END
>  <MODEL>
2

>  <REMARK>
 VINA RESULT:      -4.2      3.003      6.271
  Name = 
  5 active torsions:
  status: ('A' for Active; 'I' for Inactive)
    1  A    between atoms: C_1  and  C_12
    2  A    between atoms: C_1  and  N_34
    3  A    between atoms: C_5  and  N_34
    4  A    between atoms: C_12  and  C_38
    5  A    between atoms: C_20  and  C_37
                            x       y       z     vdW  Elec       q    Type
                         _______ _______ _______ _____ _____    ______ ____

>  <TORSDO>
F 5

$$$$
=
 OpenBabel11042421223D

 39 44  0  0  1  0  0  0  0  0999 V2000
  161.5280  214.1440  149.7210 O   0  0  0  0  0  1  0  0  0  0  0  0
  159.3350  211.2300  152.7810 N   0  0  0  0  0  0  0  0  0  0  0  0
  158.1490  210.8860  156.0960 C   0  0  0  0  0  3  0  0  0  0  0  0
  161.3650  210.8200  148.1330 C   0  0  0  0  0  2  0  0  0  0  0  0
  160.8610  210.8790  150.8560 C   0  0  2  0  0  3  0  0  0  0  0  0
  159.0000  210.9990  154.0710 C   0  0  0  0  0  0  0  0  0  0  0  0
  162.2060  209.0680  152.6090 N   0  0  0  0  0  0  0  0  0  0  0  0
  161.9680  209.9760  150.3800 C   0  0  0  0  0  0  0  0  0  0  0  0
  161.1730  209.6920  153.0840 C   0  0  0  0  0  0  0  0  0  0  0  0
  160.8000  209.4920  154.3820 N   0  0  0  0  0  0  0  0  0  0  0  0
  160.8950  212.9050  149.6140 C   0  0  2  0  0  0  0  0  0  0  0  0
  161.3150  212.2050  150.7860 O   0  0  0  0  0  0  0  0  0  0  0  0
  161.5040  213.0440  147.1370 C   0  0  0  0  0  0  0  0  0  0  0  0
  159.7140  210.1540  154.8510 C   0  0  0  0  0  0  0  0  0  0  0  0
  161.3650  212.2680  148.3490 N   0  0  0  0  0  0  0  0  0  0  0  0
  161.7890  212.4310  145.9610 F   0  0  0  0  0  0  0  0  0  0  0  0
  162.6250  209.1900  151.2430 C   0  0  0  0  0  3  0  0  0  0  0  0
  159.1700  210.0810  156.1520 N   0  0  0  0  0  0  0  0  0  0  0  0
  160.4200  210.5790  152.2610 C   0  0  0  0  0  0  0  0  0  0  0  0
  161.3420  214.2900  147.1390 O   0  0  0  0  0  0  0  0  0  0  0  0
  162.4380  210.1230  148.9600 C   0  0  1  0  0  3  0  0  0  0  0  0
  157.9980  211.5090  154.7570 C   0  0  0  0  0  3  0  0  0  0  0  0
  157.1400  213.6810  150.4680 C   0  0  0  0  0  0  0  0  0  0  0  0
  158.7190  212.8510  148.3340 C   0  0  0  0  0  3  0  0  0  0  0  0
  156.5560  213.3960  149.2360 C   0  0  0  0  0  3  0  0  0  0  0  0
  156.8780  214.4510  152.7480 C   0  0  0  0  0  3  0  0  0  0  0  0
  159.0750  213.8930  151.9020 C   0  0  0  0  0  3  0  0  0  0  0  0
  158.5440  213.5480  150.6490 C   0  0  0  0  0  0  0  0  0  0  0  0
  158.2550  214.3410  152.9410 C   0  0  0  0  0  3  0  0  0  0  0  0
  157.3450  212.9920  148.1690 C   0  0  0  0  0  3  0  0  0  0  0  0
  156.3220  214.1200  151.5150 C   0  0  0  0  0  3  0  0  0  0  0  0
  159.3560  213.0920  149.5640 C   0  0  0  0  0  0  0  0  0  0  0  0
  162.7480  208.7680  148.3260 C   0  0  0  0  0  2  0  0  0  0  0  0
  161.4710  207.9660  148.1310 C   0  0  0  0  0  2  0  0  0  0  0  0
  161.7830  206.5500  147.9990 N   0  0  0  0  0  2  0  0  0  0  0  0
  160.6320  205.7590  148.4260 C   0  0  0  0  0  0  0  0  0  0  0  0
  160.4390  205.9410  149.7810 F   0  0  0  0  0  0  0  0  0  0  0  0
  159.4920  206.1720  147.7540 F   0  0  0  0  0  0  0  0  0  0  0  0
  160.8540  204.4130  148.1850 F   0  0  0  0  0  0  0  0  0  0  0  0
  2  6  1  0  0  0  0
  3 18  2  0  0  0  0
  4 15  1  0  0  0  0
  4 21  1  0  0  0  0
  5  8  1  1  0  0  0
  5 19  1  0  0  0  0
  6 22  2  0  0  0  0
  6 14  1  0  0  0  0
  7  9  2  0  0  0  0
  8 17  2  0  0  0  0
  9 10  1  0  0  0  0
 10 14  2  0  0  0  0
 11  1  1  1  0  0  0
 11 12  1  0  0  0  0
 12  5  1  0  0  0  0
 13 20  2  0  0  0  0
 13 15  1  0  0  0  0
 14 18  1  0  0  0  0
 15 11  1  0  0  0  0
 16 13  1  0  0  0  0
 17  7  1  0  0  0  0
 19  2  2  0  0  0  0
 19  9  1  0  0  0  0
 21 33  1  6  0  0  0
 21  8  1  0  0  0  0
 22  3  1  0  0  0  0
 23 28  1  0  0  0  0
 23 31  1  0  0  0  0
 24 32  1  0  0  0  0
 25 23  2  0  0  0  0
 26 29  1  0  0  0  0
 27 29  2  0  0  0  0
 28 27  1  0  0  0  0
 30 24  2  0  0  0  0
 30 25  1  0  0  0  0
 31 26  2  0  0  0  0
 32 11  1  0  0  0  0
 32 28  2  0  0  0  0
 34 33  1  0  0  0  0
 35 34  1  0  0  0  0
 35 36  1  0  0  0  0
 36 37  1  0  0  0  0
 38 36  1  0  0  0  0
 39 36  1  0  0  0  0
M  END
>  <MODEL>
3

>  <REMARK>
 VINA RESULT:      -3.8      3.127      6.336
  Name = 
  5 active torsions:
  status: ('A' for Active; 'I' for Inactive)
    1  A    between atoms: C_1  and  C_12
    2  A    between atoms: C_1  and  N_34
    3  A    between atoms: C_5  and  N_34
    4  A    between atoms: C_12  and  C_38
    5  A    between atoms: C_20  and  C_37
                            x       y       z     vdW  Elec       q    Type
                         _______ _______ _______ _____ _____    ______ ____

>  <TORSDO>
F 5

$$$$
=
 OpenBabel11042421223D

 39 44  0  0  1  0  0  0  0  0999 V2000
  158.4320  210.7790  152.3860 O   0  0  0  0  0  1  0  0  0  0  0  0
  161.1220  207.5030  150.2210 N   0  0  0  0  0  0  0  0  0  0  0  0
  161.2330  205.1310  147.5980 C   0  0  0  0  0  3  0  0  0  0  0  0
  161.3890  210.2190  154.5150 C   0  0  0  0  0  2  0  0  0  0  0  0
  160.9360  208.3110  152.5590 C   0  0  2  0  0  3  0  0  0  0  0  0
  161.1570  206.4860  149.3290 C   0  0  0  0  0  0  0  0  0  0  0  0
  160.9500  205.5330  153.2270 N   0  0  0  0  0  0  0  0  0  0  0  0
  161.0290  207.8290  153.9830 C   0  0  0  0  0  0  0  0  0  0  0  0
  161.0130  205.8380  151.9680 C   0  0  0  0  0  0  0  0  0  0  0  0
  161.0480  204.8440  151.0320 N   0  0  0  0  0  0  0  0  0  0  0  0
  159.7630  210.3770  152.4920 C   0  0  2  0  0  0  0  0  0  0  0  0
  159.6990  208.9540  152.3930 O   0  0  0  0  0  0  0  0  0  0  0  0
  159.9410  212.1710  154.3020 C   0  0  0  0  0  0  0  0  0  0  0  0
  161.1190  205.1910  149.7240 C   0  0  0  0  0  0  0  0  0  0  0  0
  160.2720  210.8520  153.8120 N   0  0  0  0  0  0  0  0  0  0  0  0
  160.5240  212.6500  155.4290 F   0  0  0  0  0  0  0  0  0  0  0  0
  160.9620  206.5220  154.2660 C   0  0  0  0  0  3  0  0  0  0  0  0
  161.1660  204.3200  148.6140 N   0  0  0  0  0  0  0  0  0  0  0  0
  161.0570  207.2010  151.5530 C   0  0  0  0  0  0  0  0  0  0  0  0
  159.1300  212.9100  153.6880 O   0  0  0  0  0  0  0  0  0  0  0  0
  161.0060  208.8570  155.0790 C   0  0  1  0  0  3  0  0  0  0  0  0
  161.2290  206.5550  148.0150 C   0  0  0  0  0  3  0  0  0  0  0  0
  161.1050  212.6400  149.5750 C   0  0  0  0  0  0  0  0  0  0  0  0
  161.8580  210.4280  151.0830 C   0  0  0  0  0  3  0  0  0  0  0  0
  162.3220  212.0080  149.3290 C   0  0  0  0  0  3  0  0  0  0  0  0
  159.5750  214.4440  149.0610 C   0  0  0  0  0  3  0  0  0  0  0  0
  159.0450  212.8690  150.8200 C   0  0  0  0  0  3  0  0  0  0  0  0
  160.2360  212.1610  150.5940 C   0  0  0  0  0  0  0  0  0  0  0  0
  158.7170  213.9980  150.0650 C   0  0  0  0  0  3  0  0  0  0  0  0
  162.7020  210.9110  150.0890 C   0  0  0  0  0  3  0  0  0  0  0  0
  160.7660  213.7640  148.8150 C   0  0  0  0  0  3  0  0  0  0  0  0
  160.6050  211.0060  151.3510 C   0  0  0  0  0  0  0  0  0  0  0  0
  161.9720  208.4990  156.2070 C   0  0  0  0  0  2  0  0  0  0  0  0
  162.2030  209.6980  157.1120 C   0  0  0  0  0  2  0  0  0  0  0  0
  163.6290  209.9490  157.2590 N   0  0  0  0  0  2  0  0  0  0  0  0
  163.9530  211.2550  156.6890 C   0  0  0  0  0  0  0  0  0  0  0  0
  162.9160  212.1290  156.9520 F   0  0  0  0  0  0  0  0  0  0  0  0
  165.1120  211.7530  157.2600 F   0  0  0  0  0  0  0  0  0  0  0  0
  164.1140  211.1560  155.3160 F   0  0  0  0  0  0  0  0  0  0  0  0
  2 19  2  0  0  0  0
  3 22  1  0  0  0  0
  3 18  2  0  0  0  0
  4 21  1  0  0  0  0
  5 19  1  6  0  0  0
  5  8  1  0  0  0  0
  6 14  1  0  0  0  0
  6  2  1  0  0  0  0
  7 17  1  0  0  0  0
  8 17  2  0  0  0  0
  8 21  1  0  0  0  0
  9  7  2  0  0  0  0
 10  9  1  0  0  0  0
 11  1  1  6  0  0  0
 11 15  1  0  0  0  0
 12 11  1  0  0  0  0
 12  5  1  0  0  0  0
 13 16  1  0  0  0  0
 14 10  2  0  0  0  0
 15 13  1  0  0  0  0
 15  4  1  0  0  0  0
 18 14  1  0  0  0  0
 19  9  1  0  0  0  0
 20 13  2  0  0  0  0
 21 33  1  1  0  0  0
 22  6  2  0  0  0  0
 23 28  1  0  0  0  0
 24 32  1  0  0  0  0
 25 23  2  0  0  0  0
 25 30  1  0  0  0  0
 26 29  1  0  0  0  0
 28 27  1  0  0  0  0
 28 32  2  0  0  0  0
 29 27  2  0  0  0  0
 30 24  2  0  0  0  0
 31 26  2  0  0  0  0
 31 23  1  0  0  0  0
 32 11  1  0  0  0  0
 33 34  1  0  0  0  0
 34 35  1  0  0  0  0
 36 37  1  0  0  0  0
 36 35  1  0  0  0  0
 36 38  1  0  0  0  0
 39 36  1  0  0  0  0
M  END
>  <MODEL>
4

>  <REMARK>
 VINA RESULT:      -3.7      3.733      8.190
  Name = 
  5 active torsions:
  status: ('A' for Active; 'I' for Inactive)
    1  A    between atoms: C_1  and  C_12
    2  A    between atoms: C_1  and  N_34
    3  A    between atoms: C_5  and  N_34
    4  A    between atoms: C_12  and  C_38
    5  A    between atoms: C_20  and  C_37
                            x       y       z     vdW  Elec       q    Type
                         _______ _______ _______ _____ _____    ______ ____

>  <TORSDO>
F 5

$$$$
=
 OpenBabel11042421223D

 39 44  0  0  1  0  0  0  0  0999 V2000
  159.4020  206.2030  149.3430 O   0  0  0  0  0  1  0  0  0  0  0  0
  160.9310  207.5700  153.6390 N   0  0  0  0  0  0  0  0  0  0  0  0
  160.0810  207.8120  157.0640 C   0  0  0  0  0  3  0  0  0  0  0  0
  162.5160  208.1100  148.8330 C   0  0  0  0  0  2  0  0  0  0  0  0
  161.3370  208.3730  151.3270 C   0  0  2  0  0  3  0  0  0  0  0  0
  160.5960  207.8170  154.9260 C   0  0  0  0  0  0  0  0  0  0  0  0
  160.9030  210.9650  152.4480 N   0  0  0  0  0  0  0  0  0  0  0  0
  161.5840  209.6360  150.5450 C   0  0  0  0  0  0  0  0  0  0  0  0
  160.8000  209.9500  153.2490 C   0  0  0  0  0  0  0  0  0  0  0  0
  160.4620  210.1520  154.5570 N   0  0  0  0  0  0  0  0  0  0  0  0
  160.6200  206.6510  149.8540 C   0  0  2  0  0  0  0  0  0  0  0  0
  160.2490  207.7030  150.7460 O   0  0  0  0  0  0  0  0  0  0  0  0
  161.4830  206.3730  147.4650 C   0  0  0  0  0  0  0  0  0  0  0  0
  160.3660  209.0740  155.3720 C   0  0  0  0  0  0  0  0  0  0  0  0
  161.4440  207.1220  148.7010 N   0  0  0  0  0  0  0  0  0  0  0  0
  162.3450  206.7250  146.4790 F   0  0  0  0  0  0  0  0  0  0  0  0
  161.3030  210.8330  151.0770 C   0  0  0  0  0  3  0  0  0  0  0  0
  160.0340  209.0730  156.7450 N   0  0  0  0  0  0  0  0  0  0  0  0
  161.0460  208.6270  152.7790 C   0  0  0  0  0  0  0  0  0  0  0  0
  160.7430  205.3730  147.2850 O   0  0  0  0  0  0  0  0  0  0  0  0
  161.9690  209.5080  149.0980 C   0  0  1  0  0  3  0  0  0  0  0  0
  160.4440  206.9530  155.9090 C   0  0  0  0  0  3  0  0  0  0  0  0
  161.8870  203.1410  151.0790 C   0  0  0  0  0  0  0  0  0  0  0  0
  162.3490  205.8500  151.5100 C   0  0  0  0  0  3  0  0  0  0  0  0
  162.8390  203.5480  152.0110 C   0  0  0  0  0  3  0  0  0  0  0  0
  160.7800  201.3300  149.9170 C   0  0  0  0  0  3  0  0  0  0  0  0
  160.2290  203.6260  149.3880 C   0  0  0  0  0  3  0  0  0  0  0  0
  161.1410  204.1020  150.3430 C   0  0  0  0  0  0  0  0  0  0  0  0
  160.0490  202.2570  149.1740 C   0  0  0  0  0  3  0  0  0  0  0  0
  163.0770  204.9000  152.2180 C   0  0  0  0  0  3  0  0  0  0  0  0
  161.6950  201.7720  150.8690 C   0  0  0  0  0  3  0  0  0  0  0  0
  161.3530  205.4960  150.5830 C   0  0  0  0  0  0  0  0  0  0  0  0
  163.0290  210.5350  148.7030 C   0  0  0  0  0  2  0  0  0  0  0  0
  162.3750  211.8410  148.2820 C   0  0  0  0  0  2  0  0  0  0  0  0
  161.1750  211.5740  147.5040 N   0  0  0  0  0  2  0  0  0  0  0  0
  160.2970  212.7410  147.5530 C   0  0  0  0  0  0  0  0  0  0  0  0
  160.8390  213.7440  146.7740 F   0  0  0  0  0  0  0  0  0  0  0  0
  159.0440  212.4180  147.0560 F   0  0  0  0  0  0  0  0  0  0  0  0
  160.1780  213.2020  148.8540 F   0  0  0  0  0  0  0  0  0  0  0  0
  2  6  1  0  0  0  0
  4 21  1  0  0  0  0
  5  8  1  6  0  0  0
  5 19  1  0  0  0  0
  6 14  1  0  0  0  0
  6 22  2  0  0  0  0
  7  9  2  0  0  0  0
  8 17  2  0  0  0  0
  9 10  1  0  0  0  0
 10 14  2  0  0  0  0
 11  1  1  6  0  0  0
 11 32  1  0  0  0  0
 11 12  1  0  0  0  0
 12  5  1  0  0  0  0
 13 15  1  0  0  0  0
 14 18  1  0  0  0  0
 15  4  1  0  0  0  0
 15 11  1  0  0  0  0
 16 13  1  0  0  0  0
 17  7  1  0  0  0  0
 18  3  2  0  0  0  0
 19  9  1  0  0  0  0
 19  2  2  0  0  0  0
 20 13  2  0  0  0  0
 21 33  1  1  0  0  0
 21  8  1  0  0  0  0
 22  3  1  0  0  0  0
 23 25  1  0  0  0  0
 24 30  1  0  0  0  0
 25 30  2  0  0  0  0
 26 31  2  0  0  0  0
 27 28  1  0  0  0  0
 28 32  1  0  0  0  0
 28 23  2  0  0  0  0
 29 27  2  0  0  0  0
 29 26  1  0  0  0  0
 31 23  1  0  0  0  0
 32 24  2  0  0  0  0
 34 33  1  0  0  0  0
 35 36  1  0  0  0  0
 35 34  1  0  0  0  0
 36 39  1  0  0  0  0
 37 36  1  0  0  0  0
 38 36  1  0  0  0  0
M  END
>  <MODEL>
5

>  <REMARK>
 VINA RESULT:      -3.1      4.060      5.941
  Name = 
  5 active torsions:
  status: ('A' for Active; 'I' for Inactive)
    1  A    between atoms: C_1  and  C_12
    2  A    between atoms: C_1  and  N_34
    3  A    between atoms: C_5  and  N_34
    4  A    between atoms: C_12  and  C_38
    5  A    between atoms: C_20  and  C_37
                            x       y       z     vdW  Elec       q    Type
                         _______ _______ _______ _____ _____    ______ ____

>  <TORSDO>
F 5

$$$$
=
 OpenBabel11042421223D

 39 44  0  0  1  0  0  0  0  0999 V2000
  163.3870  211.0790  151.1810 O   0  0  0  0  0  1  0  0  0  0  0  0
  160.5870  208.4150  153.9600 N   0  0  0  0  0  0  0  0  0  0  0  0
  160.0530  207.2590  157.2610 C   0  0  0  0  0  3  0  0  0  0  0  0
  161.1520  209.1660  148.9590 C   0  0  0  0  0  2  0  0  0  0  0  0
  161.2830  208.2860  151.5830 C   0  0  2  0  0  3  0  0  0  0  0  0
  160.4300  207.8330  155.1710 C   0  0  0  0  0  0  0  0  0  0  0  0
  161.7310  205.5220  152.1530 N   0  0  0  0  0  0  0  0  0  0  0  0
  161.6100  207.2870  150.5030 C   0  0  0  0  0  0  0  0  0  0  0  0
  161.3140  206.2670  153.1290 C   0  0  0  0  0  0  0  0  0  0  0  0
  161.1440  205.7220  154.3700 N   0  0  0  0  0  0  0  0  0  0  0  0
  162.1770  210.4100  151.0000 C   0  0  2  0  0  0  0  0  0  0  0  0
  162.3620  209.1770  151.6970 O   0  0  0  0  0  0  0  0  0  0  0  0
  162.2850  211.2990  148.6080 C   0  0  0  0  0  0  0  0  0  0  0  0
  160.7030  206.5220  155.3710 C   0  0  0  0  0  0  0  0  0  0  0  0
  161.9780  210.2300  149.5310 N   0  0  0  0  0  0  0  0  0  0  0  0
  161.9640  211.1810  147.2950 F   0  0  0  0  0  0  0  0  0  0  0  0
  161.8840  206.0140  150.8140 C   0  0  0  0  0  3  0  0  0  0  0  0
  160.4630  206.1520  156.7120 N   0  0  0  0  0  0  0  0  0  0  0  0
  161.0240  207.6460  152.9170 C   0  0  0  0  0  0  0  0  0  0  0  0
  162.8290  212.3620  148.9980 O   0  0  0  0  0  0  0  0  0  0  0  0
  161.8080  207.7980  149.1040 C   0  0  1  0  0  3  0  0  0  0  0  0
  160.0150  208.3840  156.2940 C   0  0  0  0  0  3  0  0  0  0  0  0
  159.6910  212.3010  153.3820 C   0  0  0  0  0  0  0  0  0  0  0  0
  160.1170  211.8330  150.6740 C   0  0  0  0  0  3  0  0  0  0  0  0
  158.8180  212.8330  152.4350 C   0  0  0  0  0  3  0  0  0  0  0  0
  160.3380  212.0920  155.7050 C   0  0  0  0  0  3  0  0  0  0  0  0
  161.6690  211.0440  153.9770 C   0  0  0  0  0  3  0  0  0  0  0  0
  160.8030  211.5130  152.9760 C   0  0  0  0  0  0  0  0  0  0  0  0
  161.4420  211.3290  155.3260 C   0  0  0  0  0  3  0  0  0  0  0  0
  159.0370  212.6080  151.0830 C   0  0  0  0  0  3  0  0  0  0  0  0
  159.4630  212.5740  154.7350 C   0  0  0  0  0  3  0  0  0  0  0  0
  161.0090  211.2440  151.5870 C   0  0  0  0  0  0  0  0  0  0  0  0
  161.2070  206.8510  148.0680 C   0  0  0  0  0  2  0  0  0  0  0  0
  162.2920  206.2910  147.1630 C   0  0  0  0  0  2  0  0  0  0  0  0
  161.7030  205.7420  145.9510 N   0  0  0  0  0  2  0  0  0  0  0  0
  162.0860  204.3390  145.8180 C   0  0  0  0  0  0  0  0  0  0  0  0
  162.0460  203.7420  147.0630 F   0  0  0  0  0  0  0  0  0  0  0  0
  161.2030  203.6790  144.9790 F   0  0  0  0  0  0  0  0  0  0  0  0
  163.3740  204.2350  145.3160 F   0  0  0  0  0  0  0  0  0  0  0  0
  2  6  1  0  0  0  0
  4 21  1  0  0  0  0
  4 15  1  0  0  0  0
  5  8  1  6  0  0  0
  5 12  1  0  0  0  0
  5 19  1  0  0  0  0
  6 14  1  0  0  0  0
  6 22  2  0  0  0  0
  7  9  2  0  0  0  0
  8 17  2  0  0  0  0
  9 10  1  0  0  0  0
 10 14  2  0  0  0  0
 11  1  1  1  0  0  0
 11 32  1  0  0  0  0
 11 12  1  0  0  0  0
 13 20  2  0  0  0  0
 13 15  1  0  0  0  0
 14 18  1  0  0  0  0
 15 11  1  0  0  0  0
 16 13  1  0  0  0  0
 17  7  1  0  0  0  0
 18  3  2  0  0  0  0
 19  9  1  0  0  0  0
 19  2  2  0  0  0  0
 21 33  1  6  0  0  0
 21  8  1  0  0  0  0
 22  3  1  0  0  0  0
 23 31  1  0  0  0  0
 24 30  2  0  0  0  0
 24 32  1  0  0  0  0
 25 23  2  0  0  0  0
 27 29  2  0  0  0  0
 28 23  1  0  0  0  0
 28 27  1  0  0  0  0
 29 26  1  0  0  0  0
 30 25  1  0  0  0  0
 31 26  2  0  0  0  0
 32 28  2  0  0  0  0
 34 33  1  0  0  0  0
 35 34  1  0  0  0  0
 36 35  1  0  0  0  0
 36 37  1  0  0  0  0
 38 36  1  0  0  0  0
 39 36  1  0  0  0  0
M  END
>  <MODEL>
6

>  <REMARK>
 VINA RESULT:      -3.0      3.925      6.484
  Name = 
  5 active torsions:
  status: ('A' for Active; 'I' for Inactive)
    1  A    between atoms: C_1  and  C_12
    2  A    between atoms: C_1  and  N_34
    3  A    between atoms: C_5  and  N_34
    4  A    between atoms: C_12  and  C_38
    5  A    between atoms: C_20  and  C_37
                            x       y       z     vdW  Elec       q    Type
                         _______ _______ _______ _____ _____    ______ ____

>  <TORSDO>
F 5

$$$$
=
 OpenBabel11042421223D

 39 44  0  0  1  0  0  0  0  0999 V2000
  163.4510  210.7100  150.5690 O   0  0  0  0  0  1  0  0  0  0  0  0
  160.2340  211.8780  153.8780 N   0  0  0  0  0  0  0  0  0  0  0  0
  159.5380  214.0310  156.5970 C   0  0  0  0  0  3  0  0  0  0  0  0
  160.8550  208.0920  150.5340 C   0  0  0  0  0  2  0  0  0  0  0  0
  160.8550  209.7580  152.7480 C   0  0  2  0  0  3  0  0  0  0  0  0
  159.9860  212.5760  155.0090 C   0  0  0  0  0  0  0  0  0  0  0  0
  160.7710  208.6530  155.3810 N   0  0  0  0  0  0  0  0  0  0  0  0
  160.9670  208.2770  152.9990 C   0  0  0  0  0  0  0  0  0  0  0  0
  160.5210  209.9200  155.2640 C   0  0  0  0  0  0  0  0  0  0  0  0
  160.2680  210.6650  156.3800 N   0  0  0  0  0  0  0  0  0  0  0  0
  162.1320  210.3390  150.8280 C   0  0  2  0  0  0  0  0  0  0  0  0
  162.0860  210.2130  152.2500 O   0  0  0  0  0  0  0  0  0  0  0  0
  162.3720  208.8390  148.7740 C   0  0  0  0  0  0  0  0  0  0  0  0
  160.0050  211.9860  156.2280 C   0  0  0  0  0  0  0  0  0  0  0  0
  161.8790  209.0510  150.1170 N   0  0  0  0  0  0  0  0  0  0  0  0
  162.0140  207.7290  148.0810 F   0  0  0  0  0  0  0  0  0  0  0  0
  160.9950  207.7990  154.2500 C   0  0  0  0  0  3  0  0  0  0  0  0
  159.7180  212.9200  157.2480 N   0  0  0  0  0  0  0  0  0  0  0  0
  160.4980  210.5390  153.9800 C   0  0  1  0  0  3  0  0  0  0  0  0
  163.1160  209.6810  148.2130 O   0  0  0  0  0  0  0  0  0  0  0  0
  161.2370  207.3790  151.8250 C   0  0  1  0  0  3  0  0  0  0  0  0
  159.7030  213.8570  155.1320 C   0  0  0  0  0  2  0  0  0  0  0  0
  160.3940  213.2060  148.7810 C   0  0  0  0  0  0  0  0  0  0  0  0
  159.9290  211.5650  150.9780 C   0  0  0  0  0  3  0  0  0  0  0  0
  159.2100  213.3260  149.5040 C   0  0  0  0  0  3  0  0  0  0  0  0
  161.7430  213.9090  146.8980 C   0  0  0  0  0  3  0  0  0  0  0  0
  162.5280  212.1490  148.3610 C   0  0  0  0  0  3  0  0  0  0  0  0
  161.3770  212.2490  149.1580 C   0  0  0  0  0  0  0  0  0  0  0  0
  162.7110  212.9660  147.2430 C   0  0  0  0  0  3  0  0  0  0  0  0
  158.9740  212.4990  150.5940 C   0  0  0  0  0  3  0  0  0  0  0  0
  160.5880  214.0290  147.6670 C   0  0  0  0  0  3  0  0  0  0  0  0
  161.1550  211.4240  150.3050 C   0  0  0  0  0  0  0  0  0  0  0  0
  160.4490  206.0750  151.9210 C   0  0  0  0  0  2  0  0  0  0  0  0
  161.3390  204.8880  151.5910 C   0  0  0  0  0  2  0  0  0  0  0  0
  161.9550  205.0680  150.2850 N   0  0  0  0  0  2  0  0  0  0  0  0
  161.1070  204.4590  149.2620 C   0  0  0  0  0  0  0  0  0  0  0  0
  160.2820  205.4280  148.7260 F   0  0  0  0  0  0  0  0  0  0  0  0
  161.8880  203.9270  148.2480 F   0  0  0  0  0  0  0  0  0  0  0  0
  160.3210  203.4620  149.8170 F   0  0  0  0  0  0  0  0  0  0  0  0
  2  6  2  0  0  0  0
  3 18  2  0  0  0  0
  4 21  1  0  0  0  0
  5 12  1  1  0  0  0
  5  8  1  0  0  0  0
  5 19  1  0  0  0  0
  6 22  1  0  0  0  0
  6 14  1  0  0  0  0
  8 17  2  0  0  0  0
  9  7  2  0  0  0  0
  9 10  1  0  0  0  0
 11  1  1  6  0  0  0
 11 12  1  0  0  0  0
 13 15  1  0  0  0  0
 14 10  2  0  0  0  0
 14 18  1  0  0  0  0
 15  4  1  0  0  0  0
 15 11  1  0  0  0  0
 16 13  1  0  0  0  0
 17  7  1  0  0  0  0
 19  2  1  1  0  0  0
 19  9  1  0  0  0  0
 20 13  2  0  0  0  0
 21 33  1  1  0  0  0
 21  8  1  0  0  0  0
 22  3  1  0  0  0  0
 23 28  1  0  0  0  0
 23 25  1  0  0  0  0
 25 30  2  0  0  0  0
 26 29  2  0  0  0  0
 26 31  1  0  0  0  0
 27 28  2  0  0  0  0
 28 32  1  0  0  0  0
 29 27  1  0  0  0  0
 30 24  1  0  0  0  0
 31 23  2  0  0  0  0
 32 11  1  0  0  0  0
 32 24  2  0  0  0  0
 34 33  1  0  0  0  0
 35 34  1  0  0  0  0
 36 39  1  0  0  0  0
 36 35  1  0  0  0  0
 37 36  1  0  0  0  0
 38 36  1  0  0  0  0
M  END
>  <MODEL>
7

>  <REMARK>
 VINA RESULT:      -1.8      3.212      6.687
  Name = 
  5 active torsions:
  status: ('A' for Active; 'I' for Inactive)
    1  A    between atoms: C_1  and  C_12
    2  A    between atoms: C_1  and  N_34
    3  A    between atoms: C_5  and  N_34
    4  A    between atoms: C_12  and  C_38
    5  A    between atoms: C_20  and  C_37
                            x       y       z     vdW  Elec       q    Type
                         _______ _______ _______ _____ _____    ______ ____

>  <TORSDO>
F 5

$$$$
=
 OpenBabel11042421223D

 39 44  0  0  1  0  0  0  0  0999 V2000
  163.1160  209.6370  152.7600 O   0  0  0  0  0  1  0  0  0  0  0  0
  161.4550  211.7050  148.8070 N   0  0  0  0  0  0  0  0  0  0  0  0
  162.3510  213.4800  145.8810 C   0  0  0  0  0  3  0  0  0  0  0  0
  159.4470  209.7980  153.0760 C   0  0  0  0  0  2  0  0  0  0  0  0
  160.5550  211.3890  151.0980 C   0  0  2  0  0  3  0  0  0  0  0  0
  161.7340  212.5090  147.7560 C   0  0  0  0  0  0  0  0  0  0  0  0
  159.8370  214.1470  150.8970 N   0  0  0  0  0  0  0  0  0  0  0  0
  159.7000  212.0720  152.1320 C   0  0  0  0  0  0  0  0  0  0  0  0
  160.4520  213.6210  149.8830 C   0  0  0  0  0  0  0  0  0  0  0  0
  160.7560  214.3970  148.8010 N   0  0  0  0  0  0  0  0  0  0  0  0
  161.8700  209.7030  152.1370 C   0  0  2  0  0  0  0  0  0  0  0  0
  161.7830  211.0580  151.6930 O   0  0  0  0  0  0  0  0  0  0  0  0
  161.0550  208.2650  154.0850 C   0  0  0  0  0  0  0  0  0  0  0  0
  161.3950  213.8200  147.7540 C   0  0  0  0  0  0  0  0  0  0  0  0
  160.8390  209.3530  153.1580 N   0  0  0  0  0  0  0  0  0  0  0  0
  160.0570  207.8590  154.9090 F   0  0  0  0  0  0  0  0  0  0  0  0
  159.4410  213.3830  152.0450 C   0  0  0  0  0  3  0  0  0  0  0  0
  161.7920  214.4450  146.5510 N   0  0  0  0  0  0  0  0  0  0  0  0
  160.8050  212.2400  149.8850 C   0  0  0  0  0  0  0  0  0  0  0  0
  162.1550  207.6590  154.1330 O   0  0  0  0  0  0  0  0  0  0  0  0
  159.3100  211.2900  153.3550 C   0  0  1  0  0  3  0  0  0  0  0  0
  162.3370  212.1970  146.6270 C   0  0  0  0  0  3  0  0  0  0  0  0
  161.4600  206.4880  149.9180 C   0  0  0  0  0  0  0  0  0  0  0  0
  162.0030  209.2040  149.6660 C   0  0  0  0  0  3  0  0  0  0  0  0
  161.6990  207.0390  148.6620 C   0  0  0  0  0  3  0  0  0  0  0  0
  160.8830  204.5480  151.2460 C   0  0  0  0  0  3  0  0  0  0  0  0
  161.2010  206.6960  152.3130 C   0  0  0  0  0  3  0  0  0  0  0  0
  161.4940  207.3050  151.0830 C   0  0  0  0  0  0  0  0  0  0  0  0
  160.8970  205.3350  152.3970 C   0  0  0  0  0  3  0  0  0  0  0  0
  161.9600  208.3960  148.5350 C   0  0  0  0  0  3  0  0  0  0  0  0
  161.1650  205.1240  150.0100 C   0  0  0  0  0  3  0  0  0  0  0  0
  161.8030  208.6950  150.9610 C   0  0  0  0  0  0  0  0  0  0  0  0
  157.8720  211.5840  153.7770 C   0  0  0  0  0  2  0  0  0  0  0  0
  157.8220  212.0250  155.2310 C   0  0  0  0  0  2  0  0  0  0  0  0
  157.1140  211.0370  156.0320 N   0  0  0  0  0  2  0  0  0  0  0  0
  155.6740  211.2490  155.9000 C   0  0  0  0  0  0  0  0  0  0  0  0
  155.1220  211.3800  157.1590 F   0  0  0  0  0  0  0  0  0  0  0  0
  155.4250  212.4070  155.1810 F   0  0  0  0  0  0  0  0  0  0  0  0
  155.0830  210.1690  155.2650 F   0  0  0  0  0  0  0  0  0  0  0  0
  2 19  2  0  0  0  0
  3 18  2  0  0  0  0
  3 22  1  0  0  0  0
  4 15  1  0  0  0  0
  4 21  1  0  0  0  0
  5 19  1  6  0  0  0
  5 12  1  0  0  0  0
  5  8  1  0  0  0  0
  6  2  1  0  0  0  0
  7 17  1  0  0  0  0
  8 21  1  0  0  0  0
  9 19  1  0  0  0  0
  9  7  2  0  0  0  0
 10  9  1  0  0  0  0
 11  1  1  1  0  0  0
 11 15  1  0  0  0  0
 12 11  1  0  0  0  0
 13 20  2  0  0  0  0
 13 16  1  0  0  0  0
 14  6  1  0  0  0  0
 14 10  2  0  0  0  0
 15 13  1  0  0  0  0
 17  8  2  0  0  0  0
 18 14  1  0  0  0  0
 21 33  1  6  0  0  0
 22  6  2  0  0  0  0
 23 31  1  0  0  0  0
 23 28  1  0  0  0  0
 24 32  1  0  0  0  0
 25 23  2  0  0  0  0
 26 29  1  0  0  0  0
 27 29  2  0  0  0  0
 28 27  1  0  0  0  0
 30 25  1  0  0  0  0
 30 24  2  0  0  0  0
 31 26  2  0  0  0  0
 32 28  2  0  0  0  0
 32 11  1  0  0  0  0
 33 34  1  0  0  0  0
 34 35  1  0  0  0  0
 36 35  1  0  0  0  0
 36 37  1  0  0  0  0
 38 36  1  0  0  0  0
 39 36  1  0  0  0  0
M  END
>  <MODEL>
8

>  <REMARK>
 VINA RESULT:      -1.5      3.580      7.222
  Name = 
  5 active torsions:
  status: ('A' for Active; 'I' for Inactive)
    1  A    between atoms: C_1  and  C_12
    2  A    between atoms: C_1  and  N_34
    3  A    between atoms: C_5  and  N_34
    4  A    between atoms: C_12  and  C_38
    5  A    between atoms: C_20  and  C_37
                            x       y       z     vdW  Elec       q    Type
                         _______ _______ _______ _____ _____    ______ ____

>  <TORSDO>
F 5

$$$$
=
 OpenBabel11042421223D

 39 44  0  0  1  0  0  0  0  0999 V2000
  159.7000  207.0900  152.6660 O   0  0  0  0  0  1  0  0  0  0  0  0
  158.7710  211.1780  154.9210 N   0  0  0  0  0  0  0  0  0  0  0  0
  156.3390  212.9750  156.7570 C   0  0  0  0  0  3  0  0  0  0  0  0
  162.4180  209.4360  151.8290 C   0  0  0  0  0  2  0  0  0  0  0  0
  160.1530  210.5690  152.9530 C   0  0  2  0  0  3  0  0  0  0  0  0
  157.8250  211.9550  155.4970 C   0  0  0  0  0  0  0  0  0  0  0  0
  158.9250  212.8430  151.7350 N   0  0  0  0  0  0  0  0  0  0  0  0
  160.5990  211.1010  151.6160 C   0  0  0  0  0  0  0  0  0  0  0  0
  158.5660  212.5570  152.9480 C   0  0  0  0  0  0  0  0  0  0  0  0
  157.6130  213.3130  153.5680 N   0  0  0  0  0  0  0  0  0  0  0  0
  160.4530  208.2110  153.0130 C   0  0  2  0  0  0  0  0  0  0  0  0
  159.5730  209.3060  152.7520 O   0  0  0  0  0  0  0  0  0  0  0  0
  162.3950  206.9970  151.8830 C   0  0  0  0  0  0  0  0  0  0  0  0
  157.2600  212.9940  154.8370 C   0  0  0  0  0  0  0  0  0  0  0  0
  161.6720  208.2190  152.1510 N   0  0  0  0  0  0  0  0  0  0  0  0
  163.5800  207.0340  151.2230 F   0  0  0  0  0  0  0  0  0  0  0  0
  159.9550  212.1250  151.0420 C   0  0  0  0  0  3  0  0  0  0  0  0
  156.3050  213.6490  155.6450 N   0  0  0  0  0  0  0  0  0  0  0  0
  159.1640  211.4650  153.6430 C   0  0  1  0  0  3  0  0  0  0  0  0
  161.9610  205.8830  152.2720 O   0  0  0  0  0  0  0  0  0  0  0  0
  161.6510  210.3340  150.8660 C   0  0  1  0  0  3  0  0  0  0  0  0
  157.3160  211.8590  156.7080 C   0  0  0  0  0  2  0  0  0  0  0  0
  162.0260  208.8890  156.5480 C   0  0  0  0  0  0  0  0  0  0  0  0
  160.3090  207.1070  155.2790 C   0  0  0  0  0  3  0  0  0  0  0  0
  161.4690  207.8290  157.2590 C   0  0  0  0  0  3  0  0  0  0  0  0
  163.4100  210.8750  156.5490 C   0  0  0  0  0  3  0  0  0  0  0  0
  162.2860  210.1820  154.5210 C   0  0  0  0  0  3  0  0  0  0  0  0
  161.7270  209.0690  155.1690 C   0  0  0  0  0  0  0  0  0  0  0  0
  163.1170  211.0770  155.2010 C   0  0  0  0  0  3  0  0  0  0  0  0
  160.6040  206.9460  156.6280 C   0  0  0  0  0  3  0  0  0  0  0  0
  162.8670  209.7820  157.2200 C   0  0  0  0  0  3  0  0  0  0  0  0
  160.8690  208.1380  154.5050 C   0  0  0  0  0  0  0  0  0  0  0  0
  162.6390  211.2680  150.1690 C   0  0  0  0  0  2  0  0  0  0  0  0
  162.5030  211.1590  148.6590 C   0  0  0  0  0  2  0  0  0  0  0  0
  162.9310  212.3970  148.0260 N   0  0  0  0  0  2  0  0  0  0  0  0
  161.7560  213.1740  147.6380 C   0  0  0  0  0  0  0  0  0  0  0  0
  161.6140  214.2380  148.5070 F   0  0  0  0  0  0  0  0  0  0  0  0
  161.9110  213.6660  146.3520 F   0  0  0  0  0  0  0  0  0  0  0  0
  160.6150  212.3900  147.7040 F   0  0  0  0  0  0  0  0  0  0  0  0
  2  6  2  0  0  0  0
  4 15  1  0  0  0  0
  5  8  1  6  0  0  0
  5 19  1  0  0  0  0
  6 22  1  0  0  0  0
  7  9  2  0  0  0  0
  9 10  1  0  0  0  0
 10 14  2  0  0  0  0
 11  1  1  6  0  0  0
 11 32  1  0  0  0  0
 12  5  1  0  0  0  0
 12 11  1  0  0  0  0
 13 15  1  0  0  0  0
 13 20  2  0  0  0  0
 14  6  1  0  0  0  0
 14 18  1  0  0  0  0
 15 11  1  0  0  0  0
 16 13  1  0  0  0  0
 17  8  2  0  0  0  0
 17  7  1  0  0  0  0
 18  3  2  0  0  0  0
 19  9  1  6  0  0  0
 19  2  1  0  0  0  0
 21 33  1  1  0  0  0
 21  8  1  0  0  0  0
 21  4  1  0  0  0  0
 22  3  1  0  0  0  0
 23 31  1  0  0  0  0
 23 25  1  0  0  0  0
 24 30  1  0  0  0  0
 26 31  2  0  0  0  0
 27 28  1  0  0  0  0
 27 29  2  0  0  0  0
 28 23  2  0  0  0  0
 29 26  1  0  0  0  0
 30 25  2  0  0  0  0
 32 28  1  0  0  0  0
 32 24  2  0  0  0  0
 34 33  1  0  0  0  0
 35 34  1  0  0  0  0
 36 39  1  0  0  0  0
 36 35  1  0  0  0  0
 36 37  1  0  0  0  0
 38 36  1  0  0  0  0
M  END
>  <MODEL>
9

>  <REMARK>
 VINA RESULT:      -1.5      1.673      2.771
  Name = 
  5 active torsions:
  status: ('A' for Active; 'I' for Inactive)
    1  A    between atoms: C_1  and  C_12
    2  A    between atoms: C_1  and  N_34
    3  A    between atoms: C_5  and  N_34
    4  A    between atoms: C_12  and  C_38
    5  A    between atoms: C_20  and  C_37
                            x       y       z     vdW  Elec       q    Type
                         _______ _______ _______ _____ _____    ______ ____

>  <TORSDO>
F 5

$$$$
