=
 OpenBabel11052411443D

 42 45  0  0  1  0  0  0  0  0999 V2000
  160.1420  212.7660  146.4700 C   0  0  1  0  0  3  0  0  0  0  0  0
  160.1770  212.1450  142.7060 C   0  0  0  0  0  3  0  0  0  0  0  0
  160.5400  212.7770  145.0230 C   0  0  0  0  0  0  0  0  0  0  0  0
  159.7730  212.1250  144.0440 C   0  0  0  0  0  3  0  0  0  0  0  0
  161.3480  212.8130  142.3390 C   0  0  0  0  0  0  0  0  0  0  0  0
  161.7470  212.8360  141.0090 O   0  0  0  0  0  1  0  0  0  0  0  0
  161.7160  213.4380  144.6490 C   0  0  0  0  0  3  0  0  0  0  0  0
  162.1170  213.4590  143.3090 C   0  0  0  0  0  3  0  0  0  0  0  0
  156.7480  212.9830  147.8540 O   0  0  0  0  0  0  0  0  0  0  0  0
  158.7000  212.6180  146.6470 N   0  0  0  0  0  2  0  0  0  0  0  0
  157.9950  213.1320  147.7810 C   0  0  0  0  0  0  0  0  0  0  0  0
  158.7170  213.8100  148.8950 C   0  0  0  0  0  2  0  0  0  0  0  0
  157.8580  213.8670  150.0770 N   0  0  0  0  0  2  0  0  0  0  0  0
  158.6380  213.7300  151.3140 C   0  0  0  0  0  0  0  0  0  0  0  0
  160.0110  214.3370  151.0690 C   0  0  0  0  0  1  0  0  0  0  0  0
  158.8450  212.2540  151.6410 C   0  0  0  0  0  1  0  0  0  0  0  0
  156.0340  214.0170  154.2430 C   0  0  0  0  0  2  0  0  0  0  0  0
  157.3720  214.3810  154.8450 C   0  0  0  0  0  2  0  0  0  0  0  0
  158.4210  213.9650  153.8460 C   0  0  0  0  0  2  0  0  0  0  0  0
  156.1130  214.3120  152.4490 S   0  0  0  0  0  0  0  0  0  0  0  0
  157.9380  214.4490  152.4890 C   0  0  2  0  0  3  0  0  0  0  0  0
  162.4570  213.1630  148.2570 N   0  0  0  0  0  2  0  0  0  0  0  0
  162.0000  211.9670  148.0670 C   0  0  0  0  0  0  0  0  0  0  0  0
  160.8660  211.7400  147.2170 N   0  0  0  0  0  2  0  0  0  0  0  0
  161.4760  209.8590  149.2250 C   0  0  2  0  0  3  0  0  0  0  0  0
  162.5800  210.8280  148.8400 C   0  0  2  0  0  3  0  0  0  0  0  0
  162.0340  210.8160  150.2550 C   0  0  0  0  0  2  0  0  0  0  0  0
  161.3180  207.7570  150.5420 C   0  0  2  0  0  3  0  0  0  0  0  0
  161.0360  206.4110  149.9620 C   0  0  0  0  0  2  0  0  0  0  0  0
  161.9960  207.7290  148.2470 O   0  0  0  0  0  0  0  0  0  0  0  0
  162.0670  208.4770  149.4410 C   0  0  1  0  0  3  0  0  0  0  0  0
  161.1050  206.6680  148.4790 C   0  0  1  0  0  3  0  0  0  0  0  0
  161.5820  205.4260  147.7490 C   0  0  0  0  0  2  0  0  0  0  0  0
  162.0350  205.7730  146.4480 O   0  0  0  0  0  0  0  0  0  0  0  0
  161.7410  203.7650  145.3440 O   0  0  0  0  0  1  0  0  0  0  0  0
  161.6850  205.0240  145.3250 C   0  0  0  0  0  0  0  0  0  0  0  0
  161.2670  205.6750  144.1720 O   0  0  0  0  0  0  0  0  0  0  0  0
  162.1360  207.6280  151.6670 O   0  0  0  0  0  0  0  0  0  0  0  0
  162.2810  209.6240  153.5900 O   0  0  0  0  0  1  0  0  0  0  0  0
  160.8980  207.2930  154.1310 O   0  0  0  0  0  1  0  0  0  0  0  0
  161.3090  208.4090  152.9260 P   0  0  0  0  0  0  0  0  0  0  0  0
  160.0450  209.0300  152.3760 O   0  0  0  0  0  0  0  0  0  0  0  0
  1 10  1  6  0  0  0
  1 24  1  0  0  0  0
  2  4  1  0  0  0  0
  3  1  1  0  0  0  0
  4  3  2  0  0  0  0
  5  2  2  0  0  0  0
  5  8  1  0  0  0  0
  6  5  1  0  0  0  0
  7  3  1  0  0  0  0
  8  7  2  0  0  0  0
 10 11  1  0  0  0  0
 11  9  2  0  0  0  0
 11 12  1  0  0  0  0
 12 13  1  0  0  0  0
 13 14  1  0  0  0  0
 14 16  1  0  0  0  0
 15 14  1  0  0  0  0
 17 18  1  0  0  0  0
 19 18  1  0  0  0  0
 20 21  1  0  0  0  0
 20 17  1  0  0  0  0
 21 14  1  6  0  0  0
 21 19  1  0  0  0  0
 23 22  2  0  0  0  0
 24 23  1  0  0  0  0
 25 31  1  0  0  0  0
 25 27  1  1  0  0  0
 26 23  1  6  0  0  0
 26 25  1  0  0  0  0
 26 27  1  0  0  0  0
 28 38  1  1  0  0  0
 29 28  1  0  0  0  0
 30 32  1  0  0  0  0
 31 30  1  6  0  0  0
 31 28  1  0  0  0  0
 32 33  1  6  0  0  0
 32 29  1  0  0  0  0
 34 33  1  0  0  0  0
 36 35  1  0  0  0  0
 36 34  1  0  0  0  0
 37 36  2  0  0  0  0
 38 41  1  0  0  0  0
 41 39  1  0  0  0  0
 41 40  1  0  0  0  0
 42 41  2  0  0  0  0
M  END
>  <MODEL>
1

>  <REMARK>
 VINA RESULT:      -5.8      0.000      0.000
  Name = 
  14 active torsions:
  status: ('A' for Active; 'I' for Inactive)
    1  A    between atoms: C_1  and  N_12
    2  A    between atoms: C_1  and  C_13
    3  A    between atoms: C_1  and  N_39
    4  A    between atoms: C_4  and  N_28
    5  A    between atoms: C_4  and  C_37
    6  A    between atoms: C_5  and  C_17
    7  A    between atoms: C_6  and  O_27
    8  A    between atoms: C_11  and  C_25
    9  A    between atoms: C_11  and  N_28
   10  A    between atoms: O_19  and  C_20
   11  A    between atoms: O_19  and  C_31
   12  A    between atoms: C_20  and  C_23
   13  A    between atoms: C_24  and  C_32
   14  A    between atoms: O_27  and  P_33
                            x       y       z     vdW  Elec       q    Type
                         _______ _______ _______ _____ _____    ______ ____

>  <TORSDO>
F 14

$$$$
=
 OpenBabel11052411443D

 42 45  0  0  1  0  0  0  0  0999 V2000
  160.2970  213.3420  148.3630 C   0  0  1  0  0  3  0  0  0  0  0  0
  159.5900  212.5510  144.6980 C   0  0  0  0  0  3  0  0  0  0  0  0
  160.2950  213.3980  146.8630 C   0  0  0  0  0  0  0  0  0  0  0  0
  159.5640  212.4790  146.0940 C   0  0  0  0  0  3  0  0  0  0  0  0
  160.3490  213.5390  144.0640 C   0  0  0  0  0  0  0  0  0  0  0  0
  160.3730  213.6130  142.6770 O   0  0  0  0  0  1  0  0  0  0  0  0
  161.0580  214.3800  146.2210 C   0  0  0  0  0  3  0  0  0  0  0  0
  161.0820  214.4520  144.8240 C   0  0  0  0  0  3  0  0  0  0  0  0
  157.5220  213.6870  150.7420 O   0  0  0  0  0  0  0  0  0  0  0  0
  158.9700  213.5690  148.9280 N   0  0  0  0  0  2  0  0  0  0  0  0
  158.6860  213.4570  150.3260 C   0  0  0  0  0  0  0  0  0  0  0  0
  159.7390  213.0360  151.2950 C   0  0  0  0  0  2  0  0  0  0  0  0
  159.3780  213.4830  152.6390 N   0  0  0  0  0  2  0  0  0  0  0  0
  159.0740  212.3470  153.5190 C   0  0  0  0  0  0  0  0  0  0  0  0
  159.2620  211.0710  152.7130 C   0  0  0  0  0  1  0  0  0  0  0  0
  157.6120  212.4000  153.9540 C   0  0  0  0  0  1  0  0  0  0  0  0
  160.3350  211.0200  156.9970 C   0  0  0  0  0  2  0  0  0  0  0  0
  161.5550  211.0600  156.1040 C   0  0  0  0  0  2  0  0  0  0  0  0
  161.0520  211.2440  154.6960 C   0  0  0  0  0  2  0  0  0  0  0  0
  159.1080  212.1940  156.3440 S   0  0  0  0  0  0  0  0  0  0  0  0
  160.0030  212.3420  154.7540 C   0  0  2  0  0  3  0  0  0  0  0  0
  163.0760  212.3990  148.0500 N   0  0  0  0  0  2  0  0  0  0  0  0
  162.2180  211.6520  148.6680 C   0  0  0  0  0  0  0  0  0  0  0  0
  160.8630  212.0860  148.8510 N   0  0  0  0  0  2  0  0  0  0  0  0
  161.7150  209.2590  148.9540 C   0  0  2  0  0  3  0  0  0  0  0  0
  162.6770  210.3810  149.3050 C   0  0  2  0  0  3  0  0  0  0  0  0
  161.6580  209.9020  150.3220 C   0  0  0  0  0  2  0  0  0  0  0  0
  161.7520  207.0340  150.0600 C   0  0  2  0  0  3  0  0  0  0  0  0
  161.6070  205.7300  149.3490 C   0  0  0  0  0  2  0  0  0  0  0  0
  162.4480  207.2940  147.7850 O   0  0  0  0  0  0  0  0  0  0  0  0
  162.4360  207.9260  149.0460 C   0  0  1  0  0  3  0  0  0  0  0  0
  161.6620  206.1350  147.8990 C   0  0  1  0  0  3  0  0  0  0  0  0
  162.2640  205.0220  147.0620 C   0  0  0  0  0  2  0  0  0  0  0  0
  161.3150  204.5670  146.1070 O   0  0  0  0  0  0  0  0  0  0  0  0
  161.5810  205.4120  143.9730 O   0  0  0  0  0  0  0  0  0  0  0  0
  160.9080  205.3650  145.0380 C   0  0  0  0  0  0  0  0  0  0  0  0
  159.7450  206.1140  145.1480 O   0  0  0  0  0  1  0  0  0  0  0  0
  162.5700  206.8750  151.1820 O   0  0  0  0  0  0  0  0  0  0  0  0
  160.6880  205.0780  152.1470 O   0  0  0  0  0  0  0  0  0  0  0  0
  160.4070  207.7760  152.6740 O   0  0  0  0  0  1  0  0  0  0  0  0
  161.5190  206.5170  152.4650 P   0  0  0  0  0  0  0  0  0  0  0  0
  162.3250  206.3550  153.7340 O   0  0  0  0  0  1  0  0  0  0  0  0
  1 24  1  6  0  0  0
  1 10  1  0  0  0  0
  2  4  1  0  0  0  0
  3  1  1  0  0  0  0
  4  3  2  0  0  0  0
  5  2  2  0  0  0  0
  5  8  1  0  0  0  0
  6  5  1  0  0  0  0
  7  3  1  0  0  0  0
  8  7  2  0  0  0  0
 10 11  1  0  0  0  0
 11  9  2  0  0  0  0
 11 12  1  0  0  0  0
 12 13  1  0  0  0  0
 13 14  1  0  0  0  0
 14 16  1  0  0  0  0
 15 14  1  0  0  0  0
 18 17  1  0  0  0  0
 19 21  1  0  0  0  0
 19 18  1  0  0  0  0
 20 17  1  0  0  0  0
 21 14  1  6  0  0  0
 21 20  1  0  0  0  0
 22 23  2  0  0  0  0
 23 24  1  0  0  0  0
 25 31  1  0  0  0  0
 25 26  1  0  0  0  0
 25 27  1  1  0  0  0
 26 23  1  6  0  0  0
 26 27  1  0  0  0  0
 28 38  1  1  0  0  0
 29 28  1  0  0  0  0
 30 32  1  0  0  0  0
 31 30  1  6  0  0  0
 31 28  1  0  0  0  0
 32 33  1  6  0  0  0
 32 29  1  0  0  0  0
 34 33  1  0  0  0  0
 35 36  2  0  0  0  0
 36 37  1  0  0  0  0
 36 34  1  0  0  0  0
 38 41  1  0  0  0  0
 39 41  2  0  0  0  0
 41 40  1  0  0  0  0
 41 42  1  0  0  0  0
M  END
>  <MODEL>
2

>  <REMARK>
 VINA RESULT:      -5.3      2.070      2.644
  Name = 
  14 active torsions:
  status: ('A' for Active; 'I' for Inactive)
    1  A    between atoms: C_1  and  N_12
    2  A    between atoms: C_1  and  C_13
    3  A    between atoms: C_1  and  N_39
    4  A    between atoms: C_4  and  N_28
    5  A    between atoms: C_4  and  C_37
    6  A    between atoms: C_5  and  C_17
    7  A    between atoms: C_6  and  O_27
    8  A    between atoms: C_11  and  C_25
    9  A    between atoms: C_11  and  N_28
   10  A    between atoms: O_19  and  C_20
   11  A    between atoms: O_19  and  C_31
   12  A    between atoms: C_20  and  C_23
   13  A    between atoms: C_24  and  C_32
   14  A    between atoms: O_27  and  P_33
                            x       y       z     vdW  Elec       q    Type
                         _______ _______ _______ _____ _____    ______ ____

>  <TORSDO>
F 14

$$$$
=
 OpenBabel11052411443D

 42 45  0  0  1  0  0  0  0  0999 V2000
  160.3220  209.2430  153.4110 C   0  0  1  0  0  3  0  0  0  0  0  0
  161.8120  210.3450  156.7470 C   0  0  0  0  0  3  0  0  0  0  0  0
  161.2560  209.8020  154.4450 C   0  0  0  0  0  0  0  0  0  0  0  0
  160.9250  209.8070  155.8090 C   0  0  0  0  0  3  0  0  0  0  0  0
  163.0310  210.8830  156.3260 C   0  0  0  0  0  0  0  0  0  0  0  0
  163.9140  211.4150  157.2570 O   0  0  0  0  0  1  0  0  0  0  0  0
  162.4750  210.3500  154.0300 C   0  0  0  0  0  3  0  0  0  0  0  0
  163.3620  210.8860  154.9690 C   0  0  0  0  0  3  0  0  0  0  0  0
  158.5470  212.2320  152.2300 O   0  0  0  0  0  0  0  0  0  0  0  0
  159.7680  210.2800  152.5450 N   0  0  0  0  0  2  0  0  0  0  0  0
  158.9730  211.3640  153.0340 C   0  0  0  0  0  0  0  0  0  0  0  0
  158.6090  211.4630  154.4770 C   0  0  0  0  0  2  0  0  0  0  0  0
  159.0070  212.7700  154.9970 N   0  0  0  0  0  2  0  0  0  0  0  0
  158.3580  213.0560  156.2830 C   0  0  0  0  0  0  0  0  0  0  0  0
  159.4090  213.6360  157.2170 C   0  0  0  0  0  1  0  0  0  0  0  0
  157.8520  211.7620  156.9130 C   0  0  0  0  0  1  0  0  0  0  0  0
  155.0010  214.3330  154.6860 C   0  0  0  0  0  2  0  0  0  0  0  0
  154.7950  214.3950  156.1830 C   0  0  0  0  0  2  0  0  0  0  0  0
  155.9220  213.6130  156.8060 C   0  0  0  0  0  2  0  0  0  0  0  0
  156.7870  214.4000  154.3500 S   0  0  0  0  0  0  0  0  0  0  0  0
  157.1930  214.0570  156.1020 C   0  0  2  0  0  3  0  0  0  0  0  0
  161.0480  206.5280  154.3110 N   0  0  0  0  0  2  0  0  0  0  0  0
  161.3160  206.8860  153.0970 C   0  0  0  0  0  0  0  0  0  0  0  0
  160.9630  208.1930  152.6220 N   0  0  0  0  0  2  0  0  0  0  0  0
  160.9190  205.6720  150.9930 C   0  0  2  0  0  3  0  0  0  0  0  0
  161.8850  205.8860  152.1450 C   0  0  2  0  0  3  0  0  0  0  0  0
  161.0150  204.6440  152.0990 C   0  0  0  0  0  2  0  0  0  0  0  0
  160.9750  203.9930  149.1620 C   0  0  2  0  0  3  0  0  0  0  0  0
  160.9190  204.3210  147.7070 C   0  0  0  0  0  2  0  0  0  0  0  0
  161.7890  206.2180  148.8230 O   0  0  0  0  0  0  0  0  0  0  0  0
  161.6820  205.1830  149.7750 C   0  0  1  0  0  3  0  0  0  0  0  0
  161.0410  205.8230  147.7010 C   0  0  1  0  0  3  0  0  0  0  0  0
  161.7300  206.2920  146.4330 C   0  0  0  0  0  2  0  0  0  0  0  0
  160.8030  206.3130  145.3560 O   0  0  0  0  0  0  0  0  0  0  0  0
  161.4870  205.3580  143.3670 O   0  0  0  0  0  0  0  0  0  0  0  0
  160.7670  205.2990  144.4000 C   0  0  0  0  0  0  0  0  0  0  0  0
  159.9280  204.2090  144.5890 O   0  0  0  0  0  1  0  0  0  0  0  0
  161.7330  202.8360  149.3580 O   0  0  0  0  0  0  0  0  0  0  0  0
  161.1230  200.1720  149.8420 O   0  0  0  0  0  1  0  0  0  0  0  0
  160.8540  201.2020  147.2920 O   0  0  0  0  0  0  0  0  0  0  0  0
  160.7120  201.5460  148.9430 P   0  0  0  0  0  0  0  0  0  0  0  0
  159.2820  201.9290  149.2480 O   0  0  0  0  0  1  0  0  0  0  0  0
  1 10  1  6  0  0  0
  1  3  1  0  0  0  0
  3  4  1  0  0  0  0
  4  2  2  0  0  0  0
  5  2  1  0  0  0  0
  5  6  1  0  0  0  0
  7  3  2  0  0  0  0
  7  8  1  0  0  0  0
  8  5  2  0  0  0  0
  9 11  2  0  0  0  0
 10 11  1  0  0  0  0
 11 12  1  0  0  0  0
 12 13  1  0  0  0  0
 13 14  1  0  0  0  0
 14 16  1  0  0  0  0
 14 15  1  0  0  0  0
 17 18  1  0  0  0  0
 18 19  1  0  0  0  0
 20 17  1  0  0  0  0
 20 21  1  0  0  0  0
 21 14  1  6  0  0  0
 21 19  1  0  0  0  0
 23 22  2  0  0  0  0
 24 23  1  0  0  0  0
 24  1  1  0  0  0  0
 25 27  1  1  0  0  0
 25 26  1  0  0  0  0
 26 23  1  1  0  0  0
 27 26  1  0  0  0  0
 28 38  1  6  0  0  0
 28 31  1  0  0  0  0
 29 28  1  0  0  0  0
 31 30  1  6  0  0  0
 31 25  1  0  0  0  0
 32 33  1  6  0  0  0
 32 29  1  0  0  0  0
 32 30  1  0  0  0  0
 34 33  1  0  0  0  0
 35 36  2  0  0  0  0
 36 37  1  0  0  0  0
 36 34  1  0  0  0  0
 40 41  2  0  0  0  0
 41 42  1  0  0  0  0
 41 38  1  0  0  0  0
 41 39  1  0  0  0  0
M  END
>  <MODEL>
3

>  <REMARK>
 VINA RESULT:      -4.9      4.728      7.225
  Name = 
  14 active torsions:
  status: ('A' for Active; 'I' for Inactive)
    1  A    between atoms: C_1  and  N_12
    2  A    between atoms: C_1  and  C_13
    3  A    between atoms: C_1  and  N_39
    4  A    between atoms: C_4  and  N_28
    5  A    between atoms: C_4  and  C_37
    6  A    between atoms: C_5  and  C_17
    7  A    between atoms: C_6  and  O_27
    8  A    between atoms: C_11  and  C_25
    9  A    between atoms: C_11  and  N_28
   10  A    between atoms: O_19  and  C_20
   11  A    between atoms: O_19  and  C_31
   12  A    between atoms: C_20  and  C_23
   13  A    between atoms: C_24  and  C_32
   14  A    between atoms: O_27  and  P_33
                            x       y       z     vdW  Elec       q    Type
                         _______ _______ _______ _____ _____    ______ ____

>  <TORSDO>
F 14

$$$$
=
 OpenBabel11052411443D

 42 45  0  0  1  0  0  0  0  0999 V2000
  160.9370  212.0030  150.5230 C   0  0  1  0  0  3  0  0  0  0  0  0
  160.9630  214.4380  147.5850 C   0  0  0  0  0  3  0  0  0  0  0  0
  161.2790  212.6720  149.2240 C   0  0  0  0  0  0  0  0  0  0  0  0
  160.6300  213.8450  148.8070 C   0  0  0  0  0  3  0  0  0  0  0  0
  161.9450  213.8610  146.7740 C   0  0  0  0  0  0  0  0  0  0  0  0
  162.2790  214.4520  145.5620 O   0  0  0  0  0  1  0  0  0  0  0  0
  162.2550  212.0960  148.4020 C   0  0  0  0  0  3  0  0  0  0  0  0
  162.5890  212.6910  147.1810 C   0  0  0  0  0  3  0  0  0  0  0  0
  157.9420  212.5900  152.5640 O   0  0  0  0  0  0  0  0  0  0  0  0
  159.5560  212.2500  150.9270 N   0  0  0  0  0  2  0  0  0  0  0  0
  159.1480  212.3560  152.2940 C   0  0  0  0  0  0  0  0  0  0  0  0
  160.1210  212.1570  153.4060 C   0  0  0  0  0  2  0  0  0  0  0  0
  159.5680  212.6980  154.6470 N   0  0  0  0  0  2  0  0  0  0  0  0
  159.7860  211.7820  155.7750 C   0  0  0  0  0  0  0  0  0  0  0  0
  158.4330  211.4840  156.4010 C   0  0  0  0  0  1  0  0  0  0  0  0
  160.6420  212.4600  156.8410 C   0  0  0  0  0  1  0  0  0  0  0  0
  161.8140  208.4540  156.2850 C   0  0  0  0  0  2  0  0  0  0  0  0
  160.5620  208.0620  155.5320 C   0  0  0  0  0  2  0  0  0  0  0  0
  159.6250  209.2400  155.6130 C   0  0  0  0  0  2  0  0  0  0  0  0
  162.1360  210.2190  155.9830 S   0  0  0  0  0  0  0  0  0  0  0  0
  160.4560  210.4720  155.3000 C   0  0  2  0  0  3  0  0  0  0  0  0
  162.7700  210.4910  152.2730 N   0  0  0  0  0  2  0  0  0  0  0  0
  162.1290  209.8680  151.3370 C   0  0  0  0  0  0  0  0  0  0  0  0
  161.2180  210.5690  150.4780 N   0  0  0  0  0  2  0  0  0  0  0  0
  161.6570  207.9190  149.9100 C   0  0  2  0  0  3  0  0  0  0  0  0
  162.2430  208.3830  151.2320 C   0  0  2  0  0  3  0  0  0  0  0  0
  160.8660  207.7480  151.1880 C   0  0  0  0  0  2  0  0  0  0  0  0
  161.4880  205.4470  150.1070 C   0  0  2  0  0  3  0  0  0  0  0  0
  161.2960  204.5150  148.9570 C   0  0  0  0  0  2  0  0  0  0  0  0
  162.3210  206.4730  148.1110 O   0  0  0  0  0  0  0  0  0  0  0  0
  162.2830  206.5920  149.5160 C   0  0  1  0  0  3  0  0  0  0  0  0
  161.4550  205.4230  147.7650 C   0  0  1  0  0  3  0  0  0  0  0  0
  162.0260  204.6530  146.5880 C   0  0  0  0  0  2  0  0  0  0  0  0
  162.0840  205.4910  145.4420 O   0  0  0  0  0  0  0  0  0  0  0  0
  160.1630  204.6410  144.4820 O   0  0  0  0  0  1  0  0  0  0  0  0
  161.2160  205.3220  144.3640 C   0  0  0  0  0  0  0  0  0  0  0  0
  161.5160  205.9150  143.1450 O   0  0  0  0  0  0  0  0  0  0  0  0
  162.2320  204.8190  151.1080 O   0  0  0  0  0  0  0  0  0  0  0  0
  160.8200  204.3740  153.4560 O   0  0  0  0  0  1  0  0  0  0  0  0
  161.8030  202.2300  152.0160 O   0  0  0  0  0  1  0  0  0  0  0  0
  161.1460  203.7850  151.9030 P   0  0  0  0  0  0  0  0  0  0  0  0
  159.8580  203.7220  151.1150 O   0  0  0  0  0  0  0  0  0  0  0  0
  1 24  1  6  0  0  0
  1 10  1  0  0  0  0
  2  4  1  0  0  0  0
  3  1  1  0  0  0  0
  4  3  2  0  0  0  0
  5  8  1  0  0  0  0
  5  2  2  0  0  0  0
  6  5  1  0  0  0  0
  7  3  1  0  0  0  0
  8  7  2  0  0  0  0
 10 11  1  0  0  0  0
 11  9  2  0  0  0  0
 11 12  1  0  0  0  0
 12 13  1  0  0  0  0
 13 14  1  0  0  0  0
 14 15  1  0  0  0  0
 14 16  1  0  0  0  0
 18 19  1  0  0  0  0
 18 17  1  0  0  0  0
 20 17  1  0  0  0  0
 21 19  1  0  0  0  0
 21 14  1  1  0  0  0
 21 20  1  0  0  0  0
 23 22  2  0  0  0  0
 24 23  1  0  0  0  0
 25 27  1  1  0  0  0
 25 26  1  0  0  0  0
 26 23  1  6  0  0  0
 27 26  1  0  0  0  0
 28 38  1  1  0  0  0
 29 28  1  0  0  0  0
 31 30  1  6  0  0  0
 31 25  1  0  0  0  0
 31 28  1  0  0  0  0
 32 33  1  6  0  0  0
 32 30  1  0  0  0  0
 32 29  1  0  0  0  0
 34 33  1  0  0  0  0
 36 35  1  0  0  0  0
 36 34  1  0  0  0  0
 37 36  2  0  0  0  0
 38 41  1  0  0  0  0
 41 40  1  0  0  0  0
 41 39  1  0  0  0  0
 42 41  2  0  0  0  0
M  END
>  <MODEL>
4

>  <REMARK>
 VINA RESULT:      -4.8      3.271      4.490
  Name = 
  14 active torsions:
  status: ('A' for Active; 'I' for Inactive)
    1  A    between atoms: C_1  and  N_12
    2  A    between atoms: C_1  and  C_13
    3  A    between atoms: C_1  and  N_39
    4  A    between atoms: C_4  and  N_28
    5  A    between atoms: C_4  and  C_37
    6  A    between atoms: C_5  and  C_17
    7  A    between atoms: C_6  and  O_27
    8  A    between atoms: C_11  and  C_25
    9  A    between atoms: C_11  and  N_28
   10  A    between atoms: O_19  and  C_20
   11  A    between atoms: O_19  and  C_31
   12  A    between atoms: C_20  and  C_23
   13  A    between atoms: C_24  and  C_32
   14  A    between atoms: O_27  and  P_33
                            x       y       z     vdW  Elec       q    Type
                         _______ _______ _______ _____ _____    ______ ____

>  <TORSDO>
F 14

$$$$
=
 OpenBabel11052411443D

 42 45  0  0  1  0  0  0  0  0999 V2000
  160.3330  213.3560  149.0440 C   0  0  1  0  0  3  0  0  0  0  0  0
  159.9880  212.1530  145.4400 C   0  0  0  0  0  3  0  0  0  0  0  0
  160.5210  213.2070  147.5620 C   0  0  0  0  0  0  0  0  0  0  0  0
  159.7810  212.2750  146.8170 C   0  0  0  0  0  3  0  0  0  0  0  0
  160.9350  212.9580  144.8010 C   0  0  0  0  0  0  0  0  0  0  0  0
  161.1380  212.8390  143.4330 O   0  0  0  0  0  1  0  0  0  0  0  0
  161.4730  214.0040  146.9170 C   0  0  0  0  0  3  0  0  0  0  0  0
  161.6780  213.8820  145.5390 C   0  0  0  0  0  3  0  0  0  0  0  0
  157.2490  213.8250  150.9810 O   0  0  0  0  0  0  0  0  0  0  0  0
  158.9410  213.6180  149.4020 N   0  0  0  0  0  2  0  0  0  0  0  0
  158.4580  213.5680  150.7480 C   0  0  0  0  0  0  0  0  0  0  0  0
  159.3540  213.1820  151.8750 C   0  0  0  0  0  2  0  0  0  0  0  0
  158.7020  212.1620  152.6950 N   0  0  0  0  0  2  0  0  0  0  0  0
  158.8870  212.4280  154.1280 C   0  0  0  0  0  0  0  0  0  0  0  0
  158.6550  213.9130  154.3600 C   0  0  0  0  0  1  0  0  0  0  0  0
  160.3250  212.1220  154.5360 C   0  0  0  0  0  1  0  0  0  0  0  0
  156.3670  211.8560  157.0890 C   0  0  0  0  0  2  0  0  0  0  0  0
  155.6420  211.4080  155.8400 C   0  0  0  0  0  2  0  0  0  0  0  0
  156.4450  211.9170  154.6710 C   0  0  0  0  0  2  0  0  0  0  0  0
  158.1570  211.7610  156.7790 S   0  0  0  0  0  0  0  0  0  0  0  0
  157.8990  211.5930  154.9750 C   0  0  2  0  0  3  0  0  0  0  0  0
  162.8210  211.8700  148.4920 N   0  0  0  0  0  2  0  0  0  0  0  0
  162.0570  211.4870  149.4640 C   0  0  0  0  0  0  0  0  0  0  0  0
  160.8470  212.1960  149.7690 N   0  0  0  0  0  2  0  0  0  0  0  0
  161.3610  209.3900  150.5480 C   0  0  2  0  0  3  0  0  0  0  0  0
  162.5020  210.3740  150.3530 C   0  0  2  0  0  3  0  0  0  0  0  0
  161.7040  210.3760  151.6440 C   0  0  0  0  0  2  0  0  0  0  0  0
  161.1620  207.4300  152.0630 C   0  0  2  0  0  3  0  0  0  0  0  0
  160.8520  206.0400  151.6160 C   0  0  0  0  0  2  0  0  0  0  0  0
  161.8360  207.1650  149.7810 O   0  0  0  0  0  0  0  0  0  0  0  0
  161.9240  208.0240  150.8970 C   0  0  1  0  0  3  0  0  0  0  0  0
  160.9240  206.1510  150.1150 C   0  0  1  0  0  3  0  0  0  0  0  0
  161.3740  204.8340  149.5090 C   0  0  0  0  0  2  0  0  0  0  0  0
  160.4420  203.8100  149.8260 O   0  0  0  0  0  0  0  0  0  0  0  0
  160.7060  201.5170  149.7400 O   0  0  0  0  0  0  0  0  0  0  0  0
  160.8450  202.5950  150.3780 C   0  0  0  0  0  0  0  0  0  0  0  0
  161.4090  202.5730  151.6460 O   0  0  0  0  0  1  0  0  0  0  0  0
  161.9780  207.3940  153.1960 O   0  0  0  0  0  0  0  0  0  0  0  0
  161.9210  208.6770  155.6560 O   0  0  0  0  0  1  0  0  0  0  0  0
  160.2370  206.5370  155.1820 O   0  0  0  0  0  1  0  0  0  0  0  0
  160.9910  207.8830  154.4860 P   0  0  0  0  0  0  0  0  0  0  0  0
  159.9320  208.8290  153.9670 O   0  0  0  0  0  0  0  0  0  0  0  0
  1 10  1  6  0  0  0
  1 24  1  0  0  0  0
  2  4  1  0  0  0  0
  3  1  1  0  0  0  0
  4  3  2  0  0  0  0
  5  2  2  0  0  0  0
  5  8  1  0  0  0  0
  6  5  1  0  0  0  0
  7  3  1  0  0  0  0
  8  7  2  0  0  0  0
 10 11  1  0  0  0  0
 11  9  2  0  0  0  0
 11 12  1  0  0  0  0
 12 13  1  0  0  0  0
 13 14  1  0  0  0  0
 14 15  1  0  0  0  0
 14 16  1  0  0  0  0
 18 17  1  0  0  0  0
 19 21  1  0  0  0  0
 19 18  1  0  0  0  0
 20 17  1  0  0  0  0
 21 14  1  6  0  0  0
 21 20  1  0  0  0  0
 22 23  2  0  0  0  0
 23 24  1  0  0  0  0
 25 31  1  0  0  0  0
 25 27  1  1  0  0  0
 26 23  1  6  0  0  0
 26 25  1  0  0  0  0
 26 27  1  0  0  0  0
 28 38  1  1  0  0  0
 29 28  1  0  0  0  0
 30 32  1  0  0  0  0
 31 30  1  6  0  0  0
 31 28  1  0  0  0  0
 32 33  1  6  0  0  0
 32 29  1  0  0  0  0
 33 34  1  0  0  0  0
 34 36  1  0  0  0  0
 35 36  2  0  0  0  0
 36 37  1  0  0  0  0
 38 41  1  0  0  0  0
 41 40  1  0  0  0  0
 41 39  1  0  0  0  0
 42 41  2  0  0  0  0
M  END
>  <MODEL>
5

>  <REMARK>
 VINA RESULT:      -4.4      2.384      3.097
  Name = 
  14 active torsions:
  status: ('A' for Active; 'I' for Inactive)
    1  A    between atoms: C_1  and  N_12
    2  A    between atoms: C_1  and  C_13
    3  A    between atoms: C_1  and  N_39
    4  A    between atoms: C_4  and  N_28
    5  A    between atoms: C_4  and  C_37
    6  A    between atoms: C_5  and  C_17
    7  A    between atoms: C_6  and  O_27
    8  A    between atoms: C_11  and  C_25
    9  A    between atoms: C_11  and  N_28
   10  A    between atoms: O_19  and  C_20
   11  A    between atoms: O_19  and  C_31
   12  A    between atoms: C_20  and  C_23
   13  A    between atoms: C_24  and  C_32
   14  A    between atoms: O_27  and  P_33
                            x       y       z     vdW  Elec       q    Type
                         _______ _______ _______ _____ _____    ______ ____

>  <TORSDO>
F 14

$$$$
=
 OpenBabel11052411443D

 42 45  0  0  1  0  0  0  0  0999 V2000
  161.2040  206.3700  150.2620 C   0  0  1  0  0  3  0  0  0  0  0  0
  160.4520  206.4170  146.5220 C   0  0  0  0  0  3  0  0  0  0  0  0
  161.3430  206.2310  148.7740 C   0  0  0  0  0  0  0  0  0  0  0  0
  160.2950  206.5690  147.9030 C   0  0  0  0  0  3  0  0  0  0  0  0
  161.6540  205.9270  146.0050 C   0  0  0  0  0  0  0  0  0  0  0  0
  161.8110  205.7790  144.6330 O   0  0  0  0  0  1  0  0  0  0  0  0
  162.5410  205.7330  148.2490 C   0  0  0  0  0  3  0  0  0  0  0  0
  162.6970  205.5840  146.8680 C   0  0  0  0  0  3  0  0  0  0  0  0
  162.6720  203.4890  152.0000 O   0  0  0  0  0  0  0  0  0  0  0  0
  162.1340  205.5100  150.9890 N   0  0  0  0  0  2  0  0  0  0  0  0
  161.8110  204.1770  151.3950 C   0  0  0  0  0  0  0  0  0  0  0  0
  160.4580  203.6020  151.1460 C   0  0  0  0  0  2  0  0  0  0  0  0
  160.2630  203.4040  149.7110 N   0  0  0  0  0  2  0  0  0  0  0  0
  160.4510  201.9970  149.3340 C   0  0  0  0  0  0  0  0  0  0  0  0
  159.0840  201.3300  149.3270 C   0  0  0  0  0  1  0  0  0  0  0  0
  161.3000  201.2830  150.3820 C   0  0  0  0  0  1  0  0  0  0  0  0
  160.7170  200.6810  145.6400 C   0  0  0  0  0  2  0  0  0  0  0  0
  160.8350  202.1850  145.5510 C   0  0  0  0  0  2  0  0  0  0  0  0
  160.4110  202.7310  146.8900 C   0  0  0  0  0  2  0  0  0  0  0  0
  161.2090  200.1650  147.3140 S   0  0  0  0  0  0  0  0  0  0  0  0
  161.1090  201.8830  147.9400 C   0  0  2  0  0  3  0  0  0  0  0  0
  160.8380  207.4500  152.9840 N   0  0  0  0  0  2  0  0  0  0  0  0
  161.1430  208.2560  152.0180 C   0  0  0  0  0  0  0  0  0  0  0  0
  161.3440  207.7620  150.6860 N   0  0  0  0  0  2  0  0  0  0  0  0
  160.7520  210.5670  151.2660 C   0  0  2  0  0  3  0  0  0  0  0  0
  161.4130  209.6940  152.3190 C   0  0  2  0  0  3  0  0  0  0  0  0
  162.2430  210.3190  151.2140 C   0  0  0  0  0  2  0  0  0  0  0  0
  159.9120  212.8540  150.7790 C   0  0  2  0  0  3  0  0  0  0  0  0
  158.7330  213.4840  151.4420 C   0  0  0  0  0  2  0  0  0  0  0  0
  159.5810  211.8480  152.9260 O   0  0  0  0  0  0  0  0  0  0  0  0
  160.4840  211.9440  151.8460 C   0  0  1  0  0  3  0  0  0  0  0  0
  158.4010  212.5010  152.5330 C   0  0  1  0  0  3  0  0  0  0  0  0
  157.7900  213.2180  153.7240 C   0  0  0  0  0  2  0  0  0  0  0  0
  156.5760  212.5840  154.1010 O   0  0  0  0  0  0  0  0  0  0  0  0
  155.5520  210.7320  155.0270 O   0  0  0  0  0  0  0  0  0  0  0  0
  156.5550  211.4930  154.9690 C   0  0  0  0  0  0  0  0  0  0  0  0
  157.6550  211.2410  155.7780 O   0  0  0  0  0  1  0  0  0  0  0  0
  160.8470  213.8360  150.4400 O   0  0  0  0  0  0  0  0  0  0  0  0
  161.0620  212.0860  148.2960 O   0  0  0  0  0  1  0  0  0  0  0  0
  162.5010  214.4450  148.2950 O   0  0  0  0  0  1  0  0  0  0  0  0
  161.0480  213.7140  148.7600 P   0  0  0  0  0  0  0  0  0  0  0  0
  159.8990  214.4160  148.0730 O   0  0  0  0  0  0  0  0  0  0  0  0
  1 24  1  6  0  0  0
  1 10  1  0  0  0  0
  2  4  1  0  0  0  0
  3  1  1  0  0  0  0
  4  3  2  0  0  0  0
  5  2  2  0  0  0  0
  5  8  1  0  0  0  0
  6  5  1  0  0  0  0
  7  3  1  0  0  0  0
  8  7  2  0  0  0  0
 10 11  1  0  0  0  0
 11  9  2  0  0  0  0
 12 11  1  0  0  0  0
 13 12  1  0  0  0  0
 14 13  1  0  0  0  0
 14 16  1  0  0  0  0
 15 14  1  0  0  0  0
 17 20  1  0  0  0  0
 18 17  1  0  0  0  0
 18 19  1  0  0  0  0
 19 21  1  0  0  0  0
 20 21  1  0  0  0  0
 21 14  1  1  0  0  0
 23 22  2  0  0  0  0
 24 23  1  0  0  0  0
 25 27  1  6  0  0  0
 25 31  1  0  0  0  0
 25 26  1  0  0  0  0
 26 23  1  6  0  0  0
 27 26  1  0  0  0  0
 28 38  1  1  0  0  0
 28 29  1  0  0  0  0
 28 31  1  0  0  0  0
 29 32  1  0  0  0  0
 31 30  1  1  0  0  0
 32 30  1  0  0  0  0
 32 33  1  1  0  0  0
 33 34  1  0  0  0  0
 34 36  1  0  0  0  0
 36 35  2  0  0  0  0
 36 37  1  0  0  0  0
 39 41  1  0  0  0  0
 40 41  1  0  0  0  0
 41 38  1  0  0  0  0
 42 41  2  0  0  0  0
M  END
>  <MODEL>
6

>  <REMARK>
 VINA RESULT:      -4.3      4.829      9.752
  Name = 
  14 active torsions:
  status: ('A' for Active; 'I' for Inactive)
    1  A    between atoms: C_1  and  N_12
    2  A    between atoms: C_1  and  C_13
    3  A    between atoms: C_1  and  N_39
    4  A    between atoms: C_4  and  N_28
    5  A    between atoms: C_4  and  C_37
    6  A    between atoms: C_5  and  C_17
    7  A    between atoms: C_6  and  O_27
    8  A    between atoms: C_11  and  C_25
    9  A    between atoms: C_11  and  N_28
   10  A    between atoms: O_19  and  C_20
   11  A    between atoms: O_19  and  C_31
   12  A    between atoms: C_20  and  C_23
   13  A    between atoms: C_24  and  C_32
   14  A    between atoms: O_27  and  P_33
                            x       y       z     vdW  Elec       q    Type
                         _______ _______ _______ _____ _____    ______ ____

>  <TORSDO>
F 14

$$$$
=
 OpenBabel11052411443D

 42 45  0  0  1  0  0  0  0  0999 V2000
  160.4790  211.8830  150.6880 C   0  0  1  0  0  3  0  0  0  0  0  0
  159.9110  212.1170  154.4540 C   0  0  0  0  0  3  0  0  0  0  0  0
  159.9630  212.3060  152.0330 C   0  0  0  0  0  0  0  0  0  0  0  0
  160.4200  211.7080  153.2180 C   0  0  0  0  0  3  0  0  0  0  0  0
  158.9420  213.1230  154.5130 C   0  0  0  0  0  0  0  0  0  0  0  0
  158.4390  213.5320  155.7410 O   0  0  0  0  0  1  0  0  0  0  0  0
  158.9860  213.3070  152.0990 C   0  0  0  0  0  3  0  0  0  0  0  0
  158.4800  213.7170  153.3360 C   0  0  0  0  0  3  0  0  0  0  0  0
  162.0760  214.4320  148.5830 O   0  0  0  0  0  0  0  0  0  0  0  0
  161.4490  212.8300  150.1450 N   0  0  0  0  0  2  0  0  0  0  0  0
  161.1990  213.6230  148.9810 C   0  0  0  0  0  0  0  0  0  0  0  0
  159.9310  213.4810  148.2090 C   0  0  0  0  0  2  0  0  0  0  0  0
  159.9140  214.4430  147.1090 N   0  0  0  0  0  2  0  0  0  0  0  0
  159.6820  213.7790  145.8190 C   0  0  0  0  0  0  0  0  0  0  0  0
  158.3310  214.2400  145.2940 C   0  0  0  0  0  1  0  0  0  0  0  0
  159.6040  212.2680  146.0160 C   0  0  0  0  0  1  0  0  0  0  0  0
  162.7050  212.9530  143.4470 C   0  0  0  0  0  2  0  0  0  0  0  0
  161.7220  213.7350  142.6050 C   0  0  0  0  0  2  0  0  0  0  0  0
  160.4300  213.7770  143.3790 C   0  0  0  0  0  2  0  0  0  0  0  0
  162.4100  213.3570  145.1960 S   0  0  0  0  0  0  0  0  0  0  0  0
  160.7980  214.1330  144.8090 C   0  0  2  0  0  3  0  0  0  0  0  0
  161.9560  210.4990  148.5410 N   0  0  0  0  0  2  0  0  0  0  0  0
  161.7380  209.8840  149.6590 C   0  0  0  0  0  0  0  0  0  0  0  0
  161.0370  210.5320  150.7290 N   0  0  0  0  0  2  0  0  0  0  0  0
  161.3850  207.4670  149.3520 C   0  0  2  0  0  3  0  0  0  0  0  0
  162.3310  208.5320  149.8800 C   0  0  2  0  0  3  0  0  0  0  0  0
  161.4740  207.7280  150.8390 C   0  0  0  0  0  2  0  0  0  0  0  0
  161.4410  204.9880  149.5050 C   0  0  2  0  0  3  0  0  0  0  0  0
  161.4510  204.0650  148.3320 C   0  0  0  0  0  2  0  0  0  0  0  0
  162.3540  206.1290  147.6090 O   0  0  0  0  0  0  0  0  0  0  0  0
  162.1720  206.2160  149.0050 C   0  0  1  0  0  3  0  0  0  0  0  0
  161.6320  205.0070  147.1700 C   0  0  1  0  0  3  0  0  0  0  0  0
  162.3850  204.3200  146.0450 C   0  0  0  0  0  2  0  0  0  0  0  0
  161.5810  204.2870  144.8740 O   0  0  0  0  0  0  0  0  0  0  0  0
  161.5800  205.8280  143.1530 O   0  0  0  0  0  0  0  0  0  0  0  0
  161.1210  205.4540  144.2660 C   0  0  0  0  0  0  0  0  0  0  0  0
  160.1420  206.2130  144.8940 O   0  0  0  0  0  1  0  0  0  0  0  0
  162.1460  204.4140  150.5660 O   0  0  0  0  0  0  0  0  0  0  0  0
  159.4260  204.3010  151.1040 O   0  0  0  0  0  0  0  0  0  0  0  0
  161.2080  204.8490  153.1440 O   0  0  0  0  0  1  0  0  0  0  0  0
  160.9720  203.9790  151.7110 P   0  0  0  0  0  0  0  0  0  0  0  0
  161.0920  202.5010  152.0050 O   0  0  0  0  0  1  0  0  0  0  0  0
  1 10  1  1  0  0  0
  1 24  1  0  0  0  0
  1  3  1  0  0  0  0
  2  5  1  0  0  0  0
  3  7  2  0  0  0  0
  3  4  1  0  0  0  0
  4  2  2  0  0  0  0
  5  6  1  0  0  0  0
  7  8  1  0  0  0  0
  8  5  2  0  0  0  0
  9 11  2  0  0  0  0
 11 10  1  0  0  0  0
 12 11  1  0  0  0  0
 13 12  1  0  0  0  0
 14 16  1  0  0  0  0
 14 13  1  0  0  0  0
 15 14  1  0  0  0  0
 17 20  1  0  0  0  0
 18 19  1  0  0  0  0
 18 17  1  0  0  0  0
 19 21  1  0  0  0  0
 21 20  1  0  0  0  0
 21 14  1  1  0  0  0
 22 23  2  0  0  0  0
 23 24  1  0  0  0  0
 25 26  1  0  0  0  0
 25 27  1  1  0  0  0
 26 23  1  6  0  0  0
 26 27  1  0  0  0  0
 28 38  1  1  0  0  0
 29 28  1  0  0  0  0
 31 30  1  6  0  0  0
 31 25  1  0  0  0  0
 31 28  1  0  0  0  0
 32 33  1  6  0  0  0
 32 30  1  0  0  0  0
 32 29  1  0  0  0  0
 34 33  1  0  0  0  0
 35 36  2  0  0  0  0
 36 34  1  0  0  0  0
 36 37  1  0  0  0  0
 38 41  1  0  0  0  0
 39 41  2  0  0  0  0
 41 42  1  0  0  0  0
 41 40  1  0  0  0  0
M  END
>  <MODEL>
7

>  <REMARK>
 VINA RESULT:      -4.3      2.865      6.661
  Name = 
  14 active torsions:
  status: ('A' for Active; 'I' for Inactive)
    1  A    between atoms: C_1  and  N_12
    2  A    between atoms: C_1  and  C_13
    3  A    between atoms: C_1  and  N_39
    4  A    between atoms: C_4  and  N_28
    5  A    between atoms: C_4  and  C_37
    6  A    between atoms: C_5  and  C_17
    7  A    between atoms: C_6  and  O_27
    8  A    between atoms: C_11  and  C_25
    9  A    between atoms: C_11  and  N_28
   10  A    between atoms: O_19  and  C_20
   11  A    between atoms: O_19  and  C_31
   12  A    between atoms: C_20  and  C_23
   13  A    between atoms: C_24  and  C_32
   14  A    between atoms: O_27  and  P_33
                            x       y       z     vdW  Elec       q    Type
                         _______ _______ _______ _____ _____    ______ ____

>  <TORSDO>
F 14

$$$$
=
 OpenBabel11052411443D

 42 45  0  0  1  0  0  0  0  0999 V2000
  161.7560  207.3910  150.1190 C   0  0  1  0  0  3  0  0  0  0  0  0
  160.6390  203.7860  150.6860 C   0  0  0  0  0  3  0  0  0  0  0  0
  161.4170  206.0860  150.7790 C   0  0  0  0  0  0  0  0  0  0  0  0
  160.9570  204.9850  150.0400 C   0  0  0  0  0  3  0  0  0  0  0  0
  160.7770  203.6830  152.0730 C   0  0  0  0  0  0  0  0  0  0  0  0
  160.4640  202.4920  152.7140 O   0  0  0  0  0  1  0  0  0  0  0  0
  161.5450  205.9770  152.1690 C   0  0  0  0  0  3  0  0  0  0  0  0
  161.2280  204.7770  152.8140 C   0  0  0  0  0  3  0  0  0  0  0  0
  160.3730  207.3480  146.7180 O   0  0  0  0  0  0  0  0  0  0  0  0
  160.9140  207.6590  148.9560 N   0  0  0  0  0  2  0  0  0  0  0  0
  161.1550  207.0860  147.6670 C   0  0  0  0  0  0  0  0  0  0  0  0
  162.3390  206.2130  147.4220 C   0  0  0  0  0  2  0  0  0  0  0  0
  161.9010  204.8300  147.2410 N   0  0  0  0  0  2  0  0  0  0  0  0
  162.2490  204.3280  145.9050 C   0  0  0  0  0  0  0  0  0  0  0  0
  163.7650  204.3230  145.7890 C   0  0  0  0  0  1  0  0  0  0  0  0
  161.7130  205.2750  144.8340 C   0  0  0  0  0  1  0  0  0  0  0  0
  159.8120  201.3310  146.6320 C   0  0  0  0  0  2  0  0  0  0  0  0
  159.7500  201.5580  145.1380 C   0  0  0  0  0  2  0  0  0  0  0  0
  160.4060  202.8900  144.8790 C   0  0  0  0  0  2  0  0  0  0  0  0
  161.3930  201.9890  147.2480 S   0  0  0  0  0  0  0  0  0  0  0  0
  161.6910  202.9020  145.6900 C   0  0  2  0  0  3  0  0  0  0  0  0
  162.1000  210.2600  149.5230 N   0  0  0  0  0  2  0  0  0  0  0  0
  161.8900  209.8870  150.7450 C   0  0  0  0  0  0  0  0  0  0  0  0
  161.7030  208.5010  151.0670 N   0  0  0  0  0  2  0  0  0  0  0  0
  160.3780  210.7190  152.5000 C   0  0  2  0  0  3  0  0  0  0  0  0
  161.7150  210.9200  151.8080 C   0  0  2  0  0  3  0  0  0  0  0  0
  160.5420  211.8250  151.4800 C   0  0  0  0  0  2  0  0  0  0  0  0
  159.0380  211.5770  154.4090 C   0  0  2  0  0  3  0  0  0  0  0  0
  159.0330  210.9820  155.7780 C   0  0  0  0  0  2  0  0  0  0  0  0
  161.0960  210.4090  154.7700 O   0  0  0  0  0  0  0  0  0  0  0  0
  160.4380  211.3030  153.9000 C   0  0  1  0  0  3  0  0  0  0  0  0
  160.1430  209.9660  155.7010 C   0  0  1  0  0  3  0  0  0  0  0  0
  160.7950  209.7920  157.0610 C   0  0  0  0  0  2  0  0  0  0  0  0
  161.3830  208.5030  157.1560 O   0  0  0  0  0  0  0  0  0  0  0  0
  159.8280  206.7950  157.1340 O   0  0  0  0  0  1  0  0  0  0  0  0
  160.7930  207.3820  156.5740 C   0  0  0  0  0  0  0  0  0  0  0  0
  161.2720  206.9070  155.3600 O   0  0  0  0  0  0  0  0  0  0  0  0
  158.8230  212.9550  154.4890 O   0  0  0  0  0  0  0  0  0  0  0  0
  156.7080  214.1730  153.1680 O   0  0  0  0  0  0  0  0  0  0  0  0
  156.6010  213.8290  155.9080 O   0  0  0  0  0  1  0  0  0  0  0  0
  157.1390  213.1570  154.4510 P   0  0  0  0  0  0  0  0  0  0  0  0
  156.4840  211.8080  154.2580 O   0  0  0  0  0  1  0  0  0  0  0  0
  1 10  1  6  0  0  0
  1  3  1  0  0  0  0
  1 24  1  0  0  0  0
  2  5  1  0  0  0  0
  3  7  2  0  0  0  0
  4  2  2  0  0  0  0
  4  3  1  0  0  0  0
  5  6  1  0  0  0  0
  5  8  2  0  0  0  0
  7  8  1  0  0  0  0
  9 11  2  0  0  0  0
 11 10  1  0  0  0  0
 12 11  1  0  0  0  0
 13 12  1  0  0  0  0
 14 13  1  0  0  0  0
 15 14  1  0  0  0  0
 16 14  1  0  0  0  0
 17 20  1  0  0  0  0
 18 17  1  0  0  0  0
 19 18  1  0  0  0  0
 19 21  1  0  0  0  0
 21 14  1  1  0  0  0
 21 20  1  0  0  0  0
 22 23  2  0  0  0  0
 23 24  1  0  0  0  0
 25 27  1  6  0  0  0
 25 31  1  0  0  0  0
 26 23  1  6  0  0  0
 26 25  1  0  0  0  0
 27 26  1  0  0  0  0
 28 38  1  1  0  0  0
 28 29  1  0  0  0  0
 30 32  1  0  0  0  0
 31 28  1  0  0  0  0
 31 30  1  1  0  0  0
 32 29  1  0  0  0  0
 32 33  1  1  0  0  0
 33 34  1  0  0  0  0
 36 35  1  0  0  0  0
 36 34  1  0  0  0  0
 37 36  2  0  0  0  0
 39 41  2  0  0  0  0
 41 38  1  0  0  0  0
 41 40  1  0  0  0  0
 42 41  1  0  0  0  0
M  END
>  <MODEL>
8

>  <REMARK>
 VINA RESULT:      -4.2      4.726      9.783
  Name = 
  14 active torsions:
  status: ('A' for Active; 'I' for Inactive)
    1  A    between atoms: C_1  and  N_12
    2  A    between atoms: C_1  and  C_13
    3  A    between atoms: C_1  and  N_39
    4  A    between atoms: C_4  and  N_28
    5  A    between atoms: C_4  and  C_37
    6  A    between atoms: C_5  and  C_17
    7  A    between atoms: C_6  and  O_27
    8  A    between atoms: C_11  and  C_25
    9  A    between atoms: C_11  and  N_28
   10  A    between atoms: O_19  and  C_20
   11  A    between atoms: O_19  and  C_31
   12  A    between atoms: C_20  and  C_23
   13  A    between atoms: C_24  and  C_32
   14  A    between atoms: O_27  and  P_33
                            x       y       z     vdW  Elec       q    Type
                         _______ _______ _______ _____ _____    ______ ____

>  <TORSDO>
F 14

$$$$
=
 OpenBabel11052411443D

 42 45  0  0  1  0  0  0  0  0999 V2000
  160.7860  207.0620  150.0860 C   0  0  1  0  0  3  0  0  0  0  0  0
  160.7200  206.3630  146.3360 C   0  0  0  0  0  3  0  0  0  0  0  0
  160.9730  206.4010  148.7510 C   0  0  0  0  0  0  0  0  0  0  0  0
  160.5410  207.0100  147.5620 C   0  0  0  0  0  3  0  0  0  0  0  0
  161.3280  205.1060  146.2910 C   0  0  0  0  0  0  0  0  0  0  0  0
  161.5090  204.4650  145.0730 O   0  0  0  0  0  1  0  0  0  0  0  0
  161.5740  205.1380  148.6990 C   0  0  0  0  0  3  0  0  0  0  0  0
  161.7540  204.4930  147.4720 C   0  0  0  0  0  3  0  0  0  0  0  0
  162.1290  206.1540  153.3800 O   0  0  0  0  0  0  0  0  0  0  0  0
  161.5020  206.3690  151.1530 N   0  0  0  0  0  2  0  0  0  0  0  0
  161.5040  206.8160  152.5120 C   0  0  0  0  0  0  0  0  0  0  0  0
  160.8090  208.0740  152.9100 C   0  0  0  0  0  2  0  0  0  0  0  0
  160.9700  208.2910  154.3470 N   0  0  0  0  0  2  0  0  0  0  0  0
  161.0940  209.7200  154.6630 C   0  0  0  0  0  0  0  0  0  0  0  0
  161.5540  210.4380  153.4030 C   0  0  0  0  0  1  0  0  0  0  0  0
  162.1690  209.9300  155.7250 C   0  0  0  0  0  1  0  0  0  0  0  0
  158.8210  212.3010  156.5660 C   0  0  0  0  0  2  0  0  0  0  0  0
  158.2620  212.2170  155.1630 C   0  0  0  0  0  2  0  0  0  0  0  0
  159.2950  211.5010  154.3310 C   0  0  0  0  0  2  0  0  0  0  0  0
  159.7340  210.7660  156.9130 S   0  0  0  0  0  0  0  0  0  0  0  0
  159.7420  210.2970  155.1440 C   0  0  2  0  0  3  0  0  0  0  0  0
  162.8990  208.2950  148.4360 N   0  0  0  0  0  2  0  0  0  0  0  0
  162.2040  209.0390  149.2370 C   0  0  0  0  0  0  0  0  0  0  0  0
  161.1590  208.4750  150.0420 N   0  0  0  0  0  2  0  0  0  0  0  0
  161.5780  211.1420  148.1200 C   0  0  2  0  0  3  0  0  0  0  0  0
  162.4100  210.5180  149.2280 C   0  0  2  0  0  3  0  0  0  0  0  0
  163.0680  210.9540  147.9320 C   0  0  0  0  0  2  0  0  0  0  0  0
  160.2400  213.1470  147.5170 C   0  0  2  0  0  3  0  0  0  0  0  0
  159.2630  213.8190  148.4230 C   0  0  0  0  0  2  0  0  0  0  0  0
  160.8310  212.6950  149.7920 O   0  0  0  0  0  0  0  0  0  0  0  0
  161.2860  212.5920  148.4610 C   0  0  1  0  0  3  0  0  0  0  0  0
  159.4940  213.1200  149.7370 C   0  0  1  0  0  3  0  0  0  0  0  0
  159.2050  214.0600  150.8940 C   0  0  0  0  0  2  0  0  0  0  0  0
  158.1980  213.5050  151.7290 O   0  0  0  0  0  0  0  0  0  0  0  0
  156.4620  214.3340  153.0070 O   0  0  0  0  0  1  0  0  0  0  0  0
  156.9470  214.1030  151.8660 C   0  0  0  0  0  0  0  0  0  0  0  0
  156.2260  214.4520  150.7320 O   0  0  0  0  0  0  0  0  0  0  0  0
  160.8220  214.0880  146.6640 O   0  0  0  0  0  0  0  0  0  0  0  0
  159.7240  212.0470  145.1370 O   0  0  0  0  0  1  0  0  0  0  0  0
  162.2440  213.0080  144.5370 O   0  0  0  0  0  1  0  0  0  0  0  0
  160.7060  213.4250  145.1060 P   0  0  0  0  0  0  0  0  0  0  0  0
  160.0960  214.4490  144.1770 O   0  0  0  0  0  0  0  0  0  0  0  0
  1 24  1  6  0  0  0
  1 10  1  0  0  0  0
  2  4  1  0  0  0  0
  3  1  1  0  0  0  0
  4  3  2  0  0  0  0
  5  2  2  0  0  0  0
  5  8  1  0  0  0  0
  6  5  1  0  0  0  0
  7  3  1  0  0  0  0
  8  7  2  0  0  0  0
 10 11  1  0  0  0  0
 11 12  1  0  0  0  0
 11  9  2  0  0  0  0
 12 13  1  0  0  0  0
 13 14  1  0  0  0  0
 14 16  1  0  0  0  0
 15 14  1  0  0  0  0
 17 20  1  0  0  0  0
 18 17  1  0  0  0  0
 19 21  1  0  0  0  0
 19 18  1  0  0  0  0
 21 14  1  6  0  0  0
 21 20  1  0  0  0  0
 22 23  2  0  0  0  0
 23 24  1  0  0  0  0
 25 27  1  6  0  0  0
 25 31  1  0  0  0  0
 25 26  1  0  0  0  0
 26 23  1  6  0  0  0
 27 26  1  0  0  0  0
 28 38  1  6  0  0  0
 28 29  1  0  0  0  0
 28 31  1  0  0  0  0
 29 32  1  0  0  0  0
 31 30  1  1  0  0  0
 32 30  1  0  0  0  0
 32 33  1  1  0  0  0
 33 34  1  0  0  0  0
 34 36  1  0  0  0  0
 36 35  1  0  0  0  0
 37 36  2  0  0  0  0
 40 41  1  0  0  0  0
 41 39  1  0  0  0  0
 41 38  1  0  0  0  0
 42 41  2  0  0  0  0
M  END
>  <MODEL>
9

>  <REMARK>
 VINA RESULT:      -4.1      3.606      7.691
  Name = 
  14 active torsions:
  status: ('A' for Active; 'I' for Inactive)
    1  A    between atoms: C_1  and  N_12
    2  A    between atoms: C_1  and  C_13
    3  A    between atoms: C_1  and  N_39
    4  A    between atoms: C_4  and  N_28
    5  A    between atoms: C_4  and  C_37
    6  A    between atoms: C_5  and  C_17
    7  A    between atoms: C_6  and  O_27
    8  A    between atoms: C_11  and  C_25
    9  A    between atoms: C_11  and  N_28
   10  A    between atoms: O_19  and  C_20
   11  A    between atoms: O_19  and  C_31
   12  A    between atoms: C_20  and  C_23
   13  A    between atoms: C_24  and  C_32
   14  A    between atoms: O_27  and  P_33
                            x       y       z     vdW  Elec       q    Type
                         _______ _______ _______ _____ _____    ______ ____

>  <TORSDO>
F 14

$$$$
