=
 OpenBabel11052410083D

 54 58  0  0  1  0  0  0  0  0999 V2000
  160.9300  207.3440  151.3470 C   0  0  1  0  0  3  0  0  0  0  0  0
  160.9930  206.1440  150.4460 C   0  0  0  0  0  0  0  0  0  0  0  0
  160.0450  202.4190  147.1990 N   0  0  0  0  0  2  0  0  0  0  0  0
  161.2060  203.8550  148.8210 C   0  0  0  0  0  0  0  0  0  0  0  0
  160.6900  202.4070  150.8000 C   0  0  0  0  0  3  0  0  0  0  0  0
  160.9020  203.7340  150.1940 C   0  0  0  0  0  0  0  0  0  0  0  0
  161.5800  201.2830  148.7610 C   0  0  0  0  0  2  0  0  0  0  0  0
  160.7910  204.8750  150.9920 C   0  0  0  0  0  3  0  0  0  0  0  0
  161.4360  205.1380  148.2760 C   0  0  0  0  0  0  0  0  0  0  0  0
  161.7680  205.3110  146.9370 O   0  0  0  0  0  1  0  0  0  0  0  0
  161.3650  202.5670  146.5620 C   0  0  0  0  0  2  0  0  0  0  0  0
  161.2560  202.5740  148.0160 C   0  0  1  0  0  0  0  0  0  0  0  0
  161.3340  206.2690  149.0920 C   0  0  0  0  0  3  0  0  0  0  0  0
  160.9640  201.2780  150.1360 C   0  0  0  0  0  3  0  0  0  0  0  0
  161.2200  206.9300  152.7560 C   0  0  0  0  0  0  0  0  0  0  0  0
  162.2190  206.2020  153.0160 O   0  0  0  0  0  0  0  0  0  0  0  0
  160.3250  207.3270  153.7950 N   0  0  0  0  0  2  0  0  0  0  0  0
  160.3720  206.5770  155.3920 S   0  0  0  0  0  0  0  0  0  0  0  0
  159.6450  209.0030  156.2850 C   0  0  0  0  0  3  0  0  0  0  0  0
  160.7440  211.2160  156.5150 C   0  0  0  0  0  0  0  0  0  0  0  0
  160.6690  208.1520  156.1850 C   0  0  0  0  0  0  0  0  0  0  0  0
  159.7000  210.2880  157.0460 C   0  0  0  0  0  2  0  0  0  0  0  0
  162.6070  209.5920  156.9020 C   0  0  0  0  0  3  0  0  0  0  0  0
  162.0130  208.4020  156.7490 C   0  0  0  0  0  3  0  0  0  0  0  0
  162.0420  210.9080  156.5400 C   0  0  0  0  0  3  0  0  0  0  0  0
  160.3440  212.5950  156.1060 C   0  0  0  0  0  2  0  0  0  0  0  0
  159.6740  213.3400  157.2530 C   0  0  0  0  0  2  0  0  0  0  0  0
  158.7840  214.4530  156.7170 C   0  0  0  0  0  2  0  0  0  0  0  0
  157.5740  213.8920  156.0500 C   0  0  0  0  0  0  0  0  0  0  0  0
  155.6260  212.5360  154.0630 C   0  0  0  0  0  3  0  0  0  0  0  0
  156.7050  212.9640  156.8320 C   0  0  0  0  0  2  0  0  0  0  0  0
  156.1470  213.7670  153.9960 C   0  0  0  0  0  3  0  0  0  0  0  0
  157.2650  214.2860  154.8090 C   0  0  0  0  0  3  0  0  0  0  0  0
  156.5860  211.6280  156.1800 C   0  0  0  0  0  3  0  0  0  0  0  0
  156.0630  211.4530  154.9650 C   0  0  0  0  0  3  0  0  0  0  0  0
  161.8150  208.5140  150.8740 C   0  0  2  0  0  3  0  0  0  0  0  0
  162.9800  209.8390  152.5850 C   0  0  0  0  0  3  0  0  0  0  0  0
  161.8570  209.6400  151.8790 C   0  0  0  0  0  0  0  0  0  0  0  0
  163.1270  210.8860  153.4850 O   0  0  0  0  0  1  0  0  0  0  0  0
  159.6800  210.0900  152.8080 O   0  0  0  0  0  1  0  0  0  0  0  0
  160.6990  210.4860  152.0130 N   0  0  0  0  0  0  0  0  0  0  0  0
  160.6100  211.8070  151.4020 C   0  0  0  0  0  2  0  0  0  0  0  0
  159.6260  212.6840  152.1630 C   0  0  0  0  0  2  0  0  0  0  0  0
  159.2560  213.9120  151.3500 C   0  0  2  0  0  3  0  0  0  0  0  0
  157.9210  213.6950  150.6590 C   0  0  0  0  0  1  0  0  0  0  0  0
  160.2410  214.1510  150.3920 O   0  0  0  0  0  0  0  0  0  0  0  0
  159.5360  214.3370  149.1980 C   0  0  0  0  0  2  0  0  0  0  0  0
  160.4190  213.9870  148.0090 C   0  0  1  0  0  3  0  0  0  0  0  0
  160.9740  212.7170  148.1720 O   0  0  0  0  0  1  0  0  0  0  0  0
  159.6380  214.0750  146.6950 C   0  0  0  0  0  2  0  0  0  0  0  0
  159.3080  212.7080  146.1060 C   0  0  0  0  0  2  0  0  0  0  0  0
  157.9010  212.6990  145.5430 C   0  0  0  0  0  1  0  0  0  0  0  0
  162.3290  209.9080  148.9980 O   0  0  0  0  0  1  0  0  0  0  0  0
  161.3720  209.0320  149.5080 C   0  0  0  0  0  2  0  0  0  0  0  0
  1 15  1  1  0  0  0
  2  8  1  0  0  0  0
  2  1  1  0  0  0  0
  3 12  1  0  0  0  0
  4  6  1  0  0  0  0
  6  5  1  0  0  0  0
  6  8  2  0  0  0  0
  7 14  1  0  0  0  0
  9  4  2  0  0  0  0
  9 13  1  0  0  0  0
 10  9  1  0  0  0  0
 11  3  1  0  0  0  0
 12 11  1  6  0  0  0
 12  7  1  0  0  0  0
 12  4  1  0  0  0  0
 13  2  2  0  0  0  0
 14  5  2  0  0  0  0
 15 16  2  0  0  0  0
 15 17  1  0  0  0  0
 17 18  1  0  0  0  0
 18 21  1  0  0  0  0
 19 22  1  0  0  0  0
 20 25  2  0  0  0  0
 20 22  1  0  0  0  0
 21 19  2  0  0  0  0
 21 24  1  0  0  0  0
 24 23  2  0  0  0  0
 25 23  1  0  0  0  0
 26 20  1  0  0  0  0
 26 27  1  0  0  0  0
 28 27  1  0  0  0  0
 29 28  1  0  0  0  0
 29 31  1  0  0  0  0
 30 35  1  0  0  0  0
 32 30  2  0  0  0  0
 32 33  1  0  0  0  0
 33 29  2  0  0  0  0
 34 31  1  0  0  0  0
 35 34  2  0  0  0  0
 36 54  1  6  0  0  0
 36  1  1  0  0  0  0
 36 38  1  0  0  0  0
 37 39  1  0  0  0  0
 38 41  1  0  0  0  0
 38 37  2  0  0  0  0
 41 40  1  0  0  0  0
 42 41  1  0  0  0  0
 42 43  1  0  0  0  0
 44 45  1  6  0  0  0
 44 43  1  0  0  0  0
 46 44  1  0  0  0  0
 47 46  1  0  0  0  0
 48 49  1  1  0  0  0
 48 47  1  0  0  0  0
 50 48  1  0  0  0  0
 51 50  1  0  0  0  0
 52 51  1  0  0  0  0
 53 54  1  0  0  0  0
M  END
>  <MODEL>
1

>  <REMARK>
 VINA RESULT:      -5.5      0.000      0.000
  Name = 
  20 active torsions:
  status: ('A' for Active; 'I' for Inactive)
    1  A    between atoms: C_1  and  C_24
    2  A    between atoms: C_2  and  C_35
    3  A    between atoms: C_3  and  C_11
    4  A    between atoms: C_3  and  C_38
    5  A    between atoms: C_8  and  C_53
    6  A    between atoms: C_9  and  N_33
    7  A    between atoms: C_9  and  C_43
    8  A    between atoms: C_11  and  C_12
    9  A    between atoms: C_13  and  S_29
   10  A    between atoms: C_15  and  C_43
   11  A    between atoms: C_15  and  O_50
   12  A    between atoms: C_17  and  N_33
   13  A    between atoms: C_17  and  C_34
   14  A    between atoms: C_19  and  C_24
   15  A    between atoms: C_23  and  C_35
   16  A    between atoms: C_23  and  C_53
   17  A    between atoms: C_24  and  C_34
   18  A    between atoms: S_29  and  N_51
   19  A    between atoms: C_34  and  C_52
   20  A    between atoms: C_38  and  O_50
                            x       y       z     vdW  Elec       q    Type
                         _______ _______ _______ _____ _____    ______ ____

>  <TORSDO>
F 20

$$$$
=
 OpenBabel11052410083D

 54 58  0  0  1  0  0  0  0  0999 V2000
  161.1060  207.6490  150.0180 C   0  0  1  0  0  3  0  0  0  0  0  0
  161.0270  207.9130  151.4950 C   0  0  0  0  0  0  0  0  0  0  0  0
  159.5660  208.6770  156.2480 N   0  0  0  0  0  2  0  0  0  0  0  0
  160.9890  208.4570  154.2570 C   0  0  0  0  0  0  0  0  0  0  0  0
  161.0580  210.9150  153.7690 C   0  0  0  0  0  3  0  0  0  0  0  0
  161.0330  209.5110  153.3190 C   0  0  0  0  0  0  0  0  0  0  0  0
  161.5010  210.2010  156.1160 C   0  0  0  0  0  2  0  0  0  0  0  0
  161.0440  209.2330  151.9490 C   0  0  0  0  0  3  0  0  0  0  0  0
  160.9980  207.1220  153.7950 C   0  0  0  0  0  0  0  0  0  0  0  0
  160.9870  206.0480  154.6770 O   0  0  0  0  0  1  0  0  0  0  0  0
  160.6820  207.8720  156.7770 C   0  0  0  0  0  2  0  0  0  0  0  0
  160.9260  208.8450  155.7180 C   0  0  1  0  0  0  0  0  0  0  0  0
  161.0230  206.8610  152.4210 C   0  0  0  0  0  3  0  0  0  0  0  0
  161.2360  211.2380  155.0560 C   0  0  0  0  0  3  0  0  0  0  0  0
  162.0280  208.6420  149.3800 C   0  0  0  0  0  0  0  0  0  0  0  0
  163.2700  208.4180  149.3240 O   0  0  0  0  0  0  0  0  0  0  0  0
  161.4910  209.8660  148.8790 N   0  0  0  0  0  2  0  0  0  0  0  0
  162.5310  211.2320  148.4700 S   0  0  0  0  0  0  0  0  0  0  0  0
  160.8310  213.0500  149.4780 C   0  0  0  0  0  3  0  0  0  0  0  0
  158.4310  213.6020  149.1720 C   0  0  0  0  0  0  0  0  0  0  0  0
  161.1330  212.3440  148.3850 C   0  0  0  0  0  0  0  0  0  0  0  0
  159.7900  214.1210  149.5170 C   0  0  0  0  0  2  0  0  0  0  0  0
  159.1410  212.7960  146.9130 C   0  0  0  0  0  3  0  0  0  0  0  0
  160.4280  212.4740  147.0930 C   0  0  0  0  0  3  0  0  0  0  0  0
  158.1540  213.0900  147.9710 C   0  0  0  0  0  3  0  0  0  0  0  0
  157.3100  213.8200  150.1340 C   0  0  0  0  0  2  0  0  0  0  0  0
  157.8290  214.0710  151.5420 C   0  0  0  0  0  2  0  0  0  0  0  0
  158.2730  212.7640  152.1870 C   0  0  0  0  0  2  0  0  0  0  0  0
  157.8790  212.7200  153.6240 C   0  0  0  0  0  0  0  0  0  0  0  0
  157.6640  212.0340  156.6350 C   0  0  0  0  0  3  0  0  0  0  0  0
  157.8150  214.0070  154.3770 C   0  0  0  0  0  2  0  0  0  0  0  0
  157.1880  211.3380  155.5960 C   0  0  0  0  0  3  0  0  0  0  0  0
  157.5290  211.5510  154.1750 C   0  0  0  0  0  3  0  0  0  0  0  0
  158.7310  214.0130  155.5530 C   0  0  0  0  0  3  0  0  0  0  0  0
  158.6210  213.1550  156.5690 C   0  0  0  0  0  3  0  0  0  0  0  0
  161.4660  206.1910  149.6730 C   0  0  2  0  0  3  0  0  0  0  0  0
  162.9030  205.2960  147.8920 C   0  0  0  0  0  3  0  0  0  0  0  0
  161.8220  206.0210  148.2160 C   0  0  0  0  0  0  0  0  0  0  0  0
  163.2700  205.0380  146.5780 O   0  0  0  0  0  1  0  0  0  0  0  0
  161.3010  207.8010  146.6770 O   0  0  0  0  0  1  0  0  0  0  0  0
  160.9610  206.6120  147.2230 N   0  0  0  0  0  0  0  0  0  0  0  0
  159.7760  205.9390  146.7040 C   0  0  0  0  0  2  0  0  0  0  0  0
  159.7870  205.9350  145.1820 C   0  0  0  0  0  2  0  0  0  0  0  0
  160.8900  205.0340  144.6520 C   0  0  2  0  0  3  0  0  0  0  0  0
  161.4340  205.5900  143.3480 C   0  0  0  0  0  1  0  0  0  0  0  0
  160.3820  203.7540  144.4360 O   0  0  0  0  0  0  0  0  0  0  0  0
  161.1110  202.9320  145.3030 C   0  0  0  0  0  2  0  0  0  0  0  0
  160.2500  201.7650  145.7640 C   0  0  1  0  0  3  0  0  0  0  0  0
  160.0270  200.8770  144.7100 O   0  0  0  0  0  1  0  0  0  0  0  0
  160.8870  201.0450  146.9560 C   0  0  0  0  0  2  0  0  0  0  0  0
  160.8160  201.8550  148.2460 C   0  0  0  0  0  2  0  0  0  0  0  0
  161.1940  200.9920  149.4330 C   0  0  0  0  0  1  0  0  0  0  0  0
  160.8640  204.1720  150.8080 O   0  0  0  0  0  1  0  0  0  0  0  0
  160.3450  205.2320  150.0660 C   0  0  0  0  0  2  0  0  0  0  0  0
  1 15  1  1  0  0  0
  1  2  1  0  0  0  0
  2  8  2  0  0  0  0
  2 13  1  0  0  0  0
  3 11  1  0  0  0  0
  4 12  1  0  0  0  0
  5 14  2  0  0  0  0
  6  5  1  0  0  0  0
  6  4  2  0  0  0  0
  8  6  1  0  0  0  0
  9  4  1  0  0  0  0
  9 10  1  0  0  0  0
 12  7  1  1  0  0  0
 12  3  1  0  0  0  0
 12 11  1  0  0  0  0
 13  9  2  0  0  0  0
 14  7  1  0  0  0  0
 16 15  2  0  0  0  0
 17 15  1  0  0  0  0
 18 17  1  0  0  0  0
 19 22  1  0  0  0  0
 20 22  1  0  0  0  0
 20 26  1  0  0  0  0
 21 18  1  0  0  0  0
 21 19  2  0  0  0  0
 23 24  2  0  0  0  0
 23 25  1  0  0  0  0
 24 21  1  0  0  0  0
 25 20  2  0  0  0  0
 26 27  1  0  0  0  0
 27 28  1  0  0  0  0
 28 29  1  0  0  0  0
 29 33  2  0  0  0  0
 29 31  1  0  0  0  0
 31 34  1  0  0  0  0
 32 30  2  0  0  0  0
 33 32  1  0  0  0  0
 34 35  2  0  0  0  0
 35 30  1  0  0  0  0
 36  1  1  0  0  0  0
 36 54  1  6  0  0  0
 37 38  2  0  0  0  0
 38 36  1  0  0  0  0
 39 37  1  0  0  0  0
 40 41  1  0  0  0  0
 41 38  1  0  0  0  0
 42 41  1  0  0  0  0
 43 42  1  0  0  0  0
 44 45  1  6  0  0  0
 44 43  1  0  0  0  0
 46 44  1  0  0  0  0
 46 47  1  0  0  0  0
 47 48  1  0  0  0  0
 48 49  1  6  0  0  0
 48 50  1  0  0  0  0
 50 51  1  0  0  0  0
 51 52  1  0  0  0  0
 54 53  1  0  0  0  0
M  END
>  <MODEL>
2

>  <REMARK>
 VINA RESULT:      -5.4      2.411      8.168
  Name = 
  20 active torsions:
  status: ('A' for Active; 'I' for Inactive)
    1  A    between atoms: C_1  and  C_24
    2  A    between atoms: C_2  and  C_35
    3  A    between atoms: C_3  and  C_11
    4  A    between atoms: C_3  and  C_38
    5  A    between atoms: C_8  and  C_53
    6  A    between atoms: C_9  and  N_33
    7  A    between atoms: C_9  and  C_43
    8  A    between atoms: C_11  and  C_12
    9  A    between atoms: C_13  and  S_29
   10  A    between atoms: C_15  and  C_43
   11  A    between atoms: C_15  and  O_50
   12  A    between atoms: C_17  and  N_33
   13  A    between atoms: C_17  and  C_34
   14  A    between atoms: C_19  and  C_24
   15  A    between atoms: C_23  and  C_35
   16  A    between atoms: C_23  and  C_53
   17  A    between atoms: C_24  and  C_34
   18  A    between atoms: S_29  and  N_51
   19  A    between atoms: C_34  and  C_52
   20  A    between atoms: C_38  and  O_50
                            x       y       z     vdW  Elec       q    Type
                         _______ _______ _______ _____ _____    ______ ____

>  <TORSDO>
F 20

$$$$
=
 OpenBabel11052410083D

 54 58  0  0  1  0  0  0  0  0999 V2000
  161.6690  208.6340  152.9800 C   0  0  1  0  0  3  0  0  0  0  0  0
  161.6160  207.8980  151.6720 C   0  0  0  0  0  0  0  0  0  0  0  0
  160.3870  206.0360  147.1620 N   0  0  0  0  0  2  0  0  0  0  0  0
  161.5930  206.4370  149.2650 C   0  0  0  0  0  0  0  0  0  0  0  0
  160.5870  204.4810  150.4670 C   0  0  0  0  0  3  0  0  0  0  0  0
  161.1120  205.8590  150.4600 C   0  0  0  0  0  0  0  0  0  0  0  0
  161.4900  204.0770  148.1790 C   0  0  0  0  0  2  0  0  0  0  0  0
  161.1190  206.5930  151.6490 C   0  0  0  0  0  3  0  0  0  0  0  0
  162.1190  207.7480  149.2970 C   0  0  0  0  0  0  0  0  0  0  0  0
  162.6340  208.3530  148.1560 O   0  0  0  0  0  1  0  0  0  0  0  0
  161.7780  206.1310  146.6850 C   0  0  0  0  0  2  0  0  0  0  0  0
  161.5010  205.5940  148.0120 C   0  0  1  0  0  0  0  0  0  0  0  0
  162.1320  208.4640  150.4990 C   0  0  0  0  0  3  0  0  0  0  0  0
  160.7250  203.6700  149.4110 C   0  0  0  0  0  3  0  0  0  0  0  0
  161.6540  210.1100  152.7270 C   0  0  0  0  0  0  0  0  0  0  0  0
  162.5780  210.8460  153.1740 O   0  0  0  0  0  0  0  0  0  0  0  0
  160.5570  210.6810  152.0140 N   0  0  0  0  0  2  0  0  0  0  0  0
  160.2660  212.4210  152.0050 S   0  0  0  0  0  0  0  0  0  0  0  0
  161.4050  211.8080  149.6520 C   0  0  0  0  0  3  0  0  0  0  0  0
  161.7430  212.9680  147.4850 C   0  0  0  0  0  0  0  0  0  0  0  0
  160.4120  212.4950  150.2250 C   0  0  0  0  0  0  0  0  0  0  0  0
  161.5670  211.6540  148.1750 C   0  0  0  0  0  2  0  0  0  0  0  0
  159.5520  213.8640  148.2940 C   0  0  0  0  0  3  0  0  0  0  0  0
  159.3900  213.2550  149.4760 C   0  0  0  0  0  3  0  0  0  0  0  0
  160.7900  213.9030  147.4900 C   0  0  0  0  0  3  0  0  0  0  0  0
  162.9440  213.1750  146.6210 C   0  0  0  0  0  2  0  0  0  0  0  0
  162.6110  214.0250  145.4040 C   0  0  0  0  0  2  0  0  0  0  0  0
  162.9670  213.2830  144.1220 C   0  0  0  0  0  2  0  0  0  0  0  0
  161.7380  212.9290  143.3540 C   0  0  0  0  0  0  0  0  0  0  0  0
  159.0860  213.0340  141.7620 C   0  0  0  0  0  3  0  0  0  0  0  0
  161.8800  212.0170  142.1810 C   0  0  0  0  0  2  0  0  0  0  0  0
  159.2600  213.1690  143.0820 C   0  0  0  0  0  3  0  0  0  0  0  0
  160.5480  213.3740  143.7740 C   0  0  0  0  0  3  0  0  0  0  0  0
  161.4030  212.6520  140.9190 C   0  0  0  0  0  3  0  0  0  0  0  0
  160.1460  213.0590  140.7360 C   0  0  0  0  0  3  0  0  0  0  0  0
  160.5850  208.1880  153.9800 C   0  0  2  0  0  3  0  0  0  0  0  0
  161.8680  208.5920  156.0370 C   0  0  0  0  0  3  0  0  0  0  0  0
  160.7540  208.8370  155.3320 C   0  0  0  0  0  0  0  0  0  0  0  0
  162.1330  209.1920  157.2610 O   0  0  0  0  0  1  0  0  0  0  0  0
  158.4270  209.4050  155.6030 O   0  0  0  0  0  1  0  0  0  0  0  0
  159.7250  209.7310  155.8000 N   0  0  0  0  0  0  0  0  0  0  0  0
  160.0140  210.9360  156.5690 C   0  0  0  0  0  2  0  0  0  0  0  0
  160.1160  212.1450  155.6500 C   0  0  0  0  0  2  0  0  0  0  0  0
  158.7860  212.8730  155.5650 C   0  0  2  0  0  3  0  0  0  0  0  0
  159.0060  214.3060  155.1140 C   0  0  0  0  0  1  0  0  0  0  0  0
  158.1730  212.8700  156.8180 O   0  0  0  0  0  0  0  0  0  0  0  0
  156.8090  213.0270  156.5450 C   0  0  0  0  0  2  0  0  0  0  0  0
  156.3180  211.8910  155.6590 C   0  0  1  0  0  3  0  0  0  0  0  0
  155.4760  211.0410  156.3790 O   0  0  0  0  0  1  0  0  0  0  0  0
  155.6120  212.4280  154.4120 C   0  0  0  0  0  2  0  0  0  0  0  0
  155.3670  213.9310  154.4680 C   0  0  0  0  0  2  0  0  0  0  0  0
  154.9320  214.4480  153.1110 C   0  0  0  0  0  1  0  0  0  0  0  0
  161.7560  206.2030  154.6250 O   0  0  0  0  0  1  0  0  0  0  0  0
  160.5440  206.6690  154.1170 C   0  0  0  0  0  2  0  0  0  0  0  0
  1 15  1  6  0  0  0
  1 36  1  0  0  0  0
  2  1  1  0  0  0  0
  3 12  1  0  0  0  0
  4  9  2  0  0  0  0
  4  6  1  0  0  0  0
  6  5  1  0  0  0  0
  6  8  2  0  0  0  0
  7 14  1  0  0  0  0
  8  2  1  0  0  0  0
  9 13  1  0  0  0  0
 10  9  1  0  0  0  0
 11  3  1  0  0  0  0
 12 11  1  6  0  0  0
 12  7  1  0  0  0  0
 12  4  1  0  0  0  0
 13  2  2  0  0  0  0
 14  5  2  0  0  0  0
 15 16  2  0  0  0  0
 17 15  1  0  0  0  0
 18 17  1  0  0  0  0
 19 21  2  0  0  0  0
 20 25  2  0  0  0  0
 20 22  1  0  0  0  0
 21 18  1  0  0  0  0
 22 19  1  0  0  0  0
 23 24  2  0  0  0  0
 24 21  1  0  0  0  0
 25 23  1  0  0  0  0
 26 20  1  0  0  0  0
 27 26  1  0  0  0  0
 28 27  1  0  0  0  0
 29 33  2  0  0  0  0
 29 28  1  0  0  0  0
 30 32  2  0  0  0  0
 31 29  1  0  0  0  0
 32 33  1  0  0  0  0
 34 31  1  0  0  0  0
 35 34  2  0  0  0  0
 35 30  1  0  0  0  0
 36 54  1  1  0  0  0
 36 38  1  0  0  0  0
 37 39  1  0  0  0  0
 38 41  1  0  0  0  0
 38 37  2  0  0  0  0
 40 41  1  0  0  0  0
 41 42  1  0  0  0  0
 43 42  1  0  0  0  0
 44 45  1  1  0  0  0
 44 43  1  0  0  0  0
 44 46  1  0  0  0  0
 47 46  1  0  0  0  0
 48 49  1  1  0  0  0
 48 47  1  0  0  0  0
 50 51  1  0  0  0  0
 50 48  1  0  0  0  0
 52 51  1  0  0  0  0
 54 53  1  0  0  0  0
M  END
>  <MODEL>
3

>  <REMARK>
 VINA RESULT:      -5.4      2.633      7.780
  Name = 
  20 active torsions:
  status: ('A' for Active; 'I' for Inactive)
    1  A    between atoms: C_1  and  C_24
    2  A    between atoms: C_2  and  C_35
    3  A    between atoms: C_3  and  C_11
    4  A    between atoms: C_3  and  C_38
    5  A    between atoms: C_8  and  C_53
    6  A    between atoms: C_9  and  N_33
    7  A    between atoms: C_9  and  C_43
    8  A    between atoms: C_11  and  C_12
    9  A    between atoms: C_13  and  S_29
   10  A    between atoms: C_15  and  C_43
   11  A    between atoms: C_15  and  O_50
   12  A    between atoms: C_17  and  N_33
   13  A    between atoms: C_17  and  C_34
   14  A    between atoms: C_19  and  C_24
   15  A    between atoms: C_23  and  C_35
   16  A    between atoms: C_23  and  C_53
   17  A    between atoms: C_24  and  C_34
   18  A    between atoms: S_29  and  N_51
   19  A    between atoms: C_34  and  C_52
   20  A    between atoms: C_38  and  O_50
                            x       y       z     vdW  Elec       q    Type
                         _______ _______ _______ _____ _____    ______ ____

>  <TORSDO>
F 20

$$$$
=
 OpenBabel11052410083D

 54 58  0  0  1  0  0  0  0  0999 V2000
  160.8230  209.3420  152.6450 C   0  0  1  0  0  3  0  0  0  0  0  0
  160.1650  210.3970  153.4880 C   0  0  0  0  0  0  0  0  0  0  0  0
  157.5980  212.9680  156.9680 N   0  0  0  0  0  2  0  0  0  0  0  0
  158.9360  212.4480  154.9740 C   0  0  0  0  0  0  0  0  0  0  0  0
  156.9810  212.4080  153.4070 C   0  0  0  0  0  3  0  0  0  0  0  0
  158.3010  211.9080  153.8360 C   0  0  0  0  0  0  0  0  0  0  0  0
  157.1560  214.3430  154.9680 C   0  0  0  0  0  2  0  0  0  0  0  0
  158.9120  210.8840  153.1080 C   0  0  0  0  0  3  0  0  0  0  0  0
  160.2140  211.9710  155.3420 C   0  0  0  0  0  0  0  0  0  0  0  0
  160.8980  212.4900  156.4350 O   0  0  0  0  0  1  0  0  0  0  0  0
  158.6300  214.0190  157.0300 C   0  0  0  0  0  2  0  0  0  0  0  0
  158.1820  213.5160  155.7370 C   0  0  1  0  0  0  0  0  0  0  0  0
  160.8190  210.9560  154.5940 C   0  0  0  0  0  3  0  0  0  0  0  0
  156.4330  213.5030  153.9470 C   0  0  0  0  0  3  0  0  0  0  0  0
  161.8590  209.9740  151.7680 C   0  0  0  0  0  0  0  0  0  0  0  0
  163.0690  210.0080  152.1290 O   0  0  0  0  0  0  0  0  0  0  0  0
  161.4540  210.5810  150.5420 N   0  0  0  0  0  2  0  0  0  0  0  0
  162.5220  211.6670  149.6500 S   0  0  0  0  0  0  0  0  0  0  0  0
  161.0250  211.7870  147.4240 C   0  0  0  0  0  3  0  0  0  0  0  0
  159.7460  213.5500  146.2350 C   0  0  0  0  0  0  0  0  0  0  0  0
  161.1670  212.2800  148.6580 C   0  0  0  0  0  0  0  0  0  0  0  0
  159.8640  212.0910  146.5350 C   0  0  0  0  0  2  0  0  0  0  0  0
  159.5210  214.1860  148.6440 C   0  0  0  0  0  3  0  0  0  0  0  0
  160.2360  213.2470  149.2770 C   0  0  0  0  0  3  0  0  0  0  0  0
  159.5130  214.4510  147.1910 C   0  0  0  0  0  3  0  0  0  0  0  0
  159.7150  213.9950  144.8100 C   0  0  0  0  0  2  0  0  0  0  0  0
  158.4280  213.5620  144.1230 C   0  0  0  0  0  2  0  0  0  0  0  0
  158.2310  214.3330  142.8240 C   0  0  0  0  0  2  0  0  0  0  0  0
  158.7430  213.5540  141.6610 C   0  0  0  0  0  0  0  0  0  0  0  0
  159.9200  212.7090  138.9250 C   0  0  0  0  0  3  0  0  0  0  0  0
  159.7640  212.4960  141.9160 C   0  0  0  0  0  2  0  0  0  0  0  0
  158.6790  213.1320  139.1920 C   0  0  0  0  0  3  0  0  0  0  0  0
  158.2260  213.7700  140.4450 C   0  0  0  0  0  3  0  0  0  0  0  0
  161.0260  212.7440  141.1610 C   0  0  0  0  0  3  0  0  0  0  0  0
  161.0830  212.7930  139.8290 C   0  0  0  0  0  3  0  0  0  0  0  0
  161.3740  208.1580  153.4630 C   0  0  2  0  0  3  0  0  0  0  0  0
  160.9700  205.7430  153.2460 C   0  0  0  0  0  3  0  0  0  0  0  0
  161.3960  206.8760  152.6670 C   0  0  0  0  0  0  0  0  0  0  0  0
  160.9000  204.5320  152.5710 O   0  0  0  0  0  1  0  0  0  0  0  0
  163.1560  207.0730  151.0320 O   0  0  0  0  0  1  0  0  0  0  0  0
  161.8390  206.9240  151.2960 N   0  0  0  0  0  0  0  0  0  0  0  0
  160.9380  206.7220  150.1680 C   0  0  0  0  0  2  0  0  0  0  0  0
  161.2490  205.4100  149.4620 C   0  0  0  0  0  2  0  0  0  0  0  0
  161.8900  205.6630  148.1080 C   0  0  2  0  0  3  0  0  0  0  0  0
  161.9970  207.1570  147.8550 C   0  0  0  0  0  1  0  0  0  0  0  0
  161.1140  205.0770  147.1090 O   0  0  0  0  0  0  0  0  0  0  0  0
  161.7670  203.8740  146.8150 C   0  0  0  0  0  2  0  0  0  0  0  0
  160.7640  202.7290  146.7840 C   0  0  1  0  0  3  0  0  0  0  0  0
  160.5670  202.2890  145.4740 O   0  0  0  0  0  1  0  0  0  0  0  0
  161.2150  201.5760  147.6830 C   0  0  0  0  0  2  0  0  0  0  0  0
  160.2710  201.3320  148.8550 C   0  0  0  0  0  2  0  0  0  0  0  0
  161.0140  201.4550  150.1690 C   0  0  0  0  0  1  0  0  0  0  0  0
  161.4820  207.8270  155.8310 O   0  0  0  0  0  1  0  0  0  0  0  0
  160.5970  207.9680  154.7620 C   0  0  0  0  0  2  0  0  0  0  0  0
  1 15  1  1  0  0  0
  1 36  1  0  0  0  0
  1  2  1  0  0  0  0
  2 13  1  0  0  0  0
  3 11  1  0  0  0  0
  4  9  1  0  0  0  0
  4 12  1  0  0  0  0
  5  6  1  0  0  0  0
  5 14  2  0  0  0  0
  6  4  2  0  0  0  0
  8  2  2  0  0  0  0
  8  6  1  0  0  0  0
  9 10  1  0  0  0  0
 12  7  1  6  0  0  0
 12  3  1  0  0  0  0
 12 11  1  0  0  0  0
 13  9  2  0  0  0  0
 14  7  1  0  0  0  0
 15 16  2  0  0  0  0
 17 15  1  0  0  0  0
 18 17  1  0  0  0  0
 19 21  2  0  0  0  0
 20 22  1  0  0  0  0
 20 25  2  0  0  0  0
 21 24  1  0  0  0  0
 21 18  1  0  0  0  0
 22 19  1  0  0  0  0
 23 24  2  0  0  0  0
 25 23  1  0  0  0  0
 26 20  1  0  0  0  0
 27 26  1  0  0  0  0
 28 27  1  0  0  0  0
 29 31  1  0  0  0  0
 29 28  1  0  0  0  0
 30 32  2  0  0  0  0
 30 35  1  0  0  0  0
 32 33  1  0  0  0  0
 33 29  2  0  0  0  0
 34 31  1  0  0  0  0
 35 34  2  0  0  0  0
 36 54  1  1  0  0  0
 38 37  2  0  0  0  0
 38 36  1  0  0  0  0
 39 37  1  0  0  0  0
 40 41  1  0  0  0  0
 41 38  1  0  0  0  0
 42 41  1  0  0  0  0
 43 42  1  0  0  0  0
 44 45  1  6  0  0  0
 44 43  1  0  0  0  0
 46 44  1  0  0  0  0
 47 46  1  0  0  0  0
 48 49  1  6  0  0  0
 48 47  1  0  0  0  0
 48 50  1  0  0  0  0
 50 51  1  0  0  0  0
 51 52  1  0  0  0  0
 54 53  1  0  0  0  0
M  END
>  <MODEL>
4

>  <REMARK>
 VINA RESULT:      -5.1      2.928     10.565
  Name = 
  20 active torsions:
  status: ('A' for Active; 'I' for Inactive)
    1  A    between atoms: C_1  and  C_24
    2  A    between atoms: C_2  and  C_35
    3  A    between atoms: C_3  and  C_11
    4  A    between atoms: C_3  and  C_38
    5  A    between atoms: C_8  and  C_53
    6  A    between atoms: C_9  and  N_33
    7  A    between atoms: C_9  and  C_43
    8  A    between atoms: C_11  and  C_12
    9  A    between atoms: C_13  and  S_29
   10  A    between atoms: C_15  and  C_43
   11  A    between atoms: C_15  and  O_50
   12  A    between atoms: C_17  and  N_33
   13  A    between atoms: C_17  and  C_34
   14  A    between atoms: C_19  and  C_24
   15  A    between atoms: C_23  and  C_35
   16  A    between atoms: C_23  and  C_53
   17  A    between atoms: C_24  and  C_34
   18  A    between atoms: S_29  and  N_51
   19  A    between atoms: C_34  and  C_52
   20  A    between atoms: C_38  and  O_50
                            x       y       z     vdW  Elec       q    Type
                         _______ _______ _______ _____ _____    ______ ____

>  <TORSDO>
F 20

$$$$
=
 OpenBabel11052410083D

 54 58  0  0  1  0  0  0  0  0999 V2000
  161.1960  207.8670  150.3440 C   0  0  1  0  0  3  0  0  0  0  0  0
  161.0490  208.5490  151.6740 C   0  0  0  0  0  0  0  0  0  0  0  0
  161.7710  210.9250  156.0500 N   0  0  0  0  0  2  0  0  0  0  0  0
  160.6680  209.7710  154.1820 C   0  0  0  0  0  0  0  0  0  0  0  0
  160.6860  207.5180  155.2790 C   0  0  0  0  0  3  0  0  0  0  0  0
  160.7730  208.3680  154.0760 C   0  0  0  0  0  0  0  0  0  0  0  0
  159.8860  209.4460  156.6400 C   0  0  0  0  0  2  0  0  0  0  0  0
  160.9700  207.7680  152.8300 C   0  0  0  0  0  3  0  0  0  0  0  0
  160.7230  210.5560  153.0080 C   0  0  0  0  0  0  0  0  0  0  0  0
  160.5940  211.9390  153.0520 O   0  0  0  0  0  1  0  0  0  0  0  0
  160.5830  211.7740  155.8460 C   0  0  0  0  0  2  0  0  0  0  0  0
  160.5090  210.3430  155.5740 C   0  0  1  0  0  0  0  0  0  0  0  0
  160.9060  209.9390  151.7660 C   0  0  0  0  0  3  0  0  0  0  0  0
  160.3160  208.0130  156.4660 C   0  0  0  0  0  3  0  0  0  0  0  0
  161.6590  208.8580  149.3210 C   0  0  0  0  0  0  0  0  0  0  0  0
  161.9560  208.4800  148.1530 O   0  0  0  0  0  0  0  0  0  0  0  0
  161.8050  210.2270  149.6970 N   0  0  0  0  0  2  0  0  0  0  0  0
  162.6960  211.3710  148.6900 S   0  0  0  0  0  0  0  0  0  0  0  0
  160.5400  212.8100  149.3910 C   0  0  0  0  0  3  0  0  0  0  0  0
  158.2420  213.1180  148.5050 C   0  0  0  0  0  0  0  0  0  0  0  0
  161.2140  212.3140  148.3510 C   0  0  0  0  0  0  0  0  0  0  0  0
  159.3730  213.7350  149.2630 C   0  0  0  0  0  2  0  0  0  0  0  0
  159.6190  212.7440  146.4500 C   0  0  0  0  0  3  0  0  0  0  0  0
  160.8510  212.5510  146.9380 C   0  0  0  0  0  3  0  0  0  0  0  0
  158.3620  212.7610  147.2250 C   0  0  0  0  0  3  0  0  0  0  0  0
  156.8930  213.0600  149.1410 C   0  0  0  0  0  2  0  0  0  0  0  0
  156.3730  214.4530  149.4650 C   0  0  0  0  0  2  0  0  0  0  0  0
  155.1870  214.3720  150.4170 C   0  0  0  0  0  2  0  0  0  0  0  0
  155.6440  214.3580  151.8360 C   0  0  0  0  0  0  0  0  0  0  0  0
  156.0980  213.6440  154.8140 C   0  0  0  0  0  3  0  0  0  0  0  0
  157.1090  214.4500  152.1040 C   0  0  0  0  0  2  0  0  0  0  0  0
  155.0360  214.2450  154.2630 C   0  0  0  0  0  3  0  0  0  0  0  0
  154.7370  214.3350  152.8200 C   0  0  0  0  0  3  0  0  0  0  0  0
  157.6140  213.2720  152.8670 C   0  0  0  0  0  3  0  0  0  0  0  0
  157.1820  212.9540  154.0890 C   0  0  0  0  0  3  0  0  0  0  0  0
  162.0770  206.6040  150.3950 C   0  0  2  0  0  3  0  0  0  0  0  0
  160.5710  204.8110  151.1390 C   0  0  0  0  0  3  0  0  0  0  0  0
  161.2850  205.3450  150.1380 C   0  0  0  0  0  0  0  0  0  0  0  0
  159.7680  203.6900  150.9760 O   0  0  0  0  0  1  0  0  0  0  0  0
  160.8600  203.5180  148.6250 O   0  0  0  0  0  1  0  0  0  0  0  0
  161.2960  204.7840  148.8100 N   0  0  0  0  0  0  0  0  0  0  0  0
  161.6690  205.5540  147.6300 C   0  0  0  0  0  2  0  0  0  0  0  0
  162.2240  204.6400  146.5470 C   0  0  0  0  0  2  0  0  0  0  0  0
  161.4870  204.8460  145.2350 C   0  0  2  0  0  3  0  0  0  0  0  0
  160.6740  206.1280  145.2910 C   0  0  0  0  0  1  0  0  0  0  0  0
  160.6350  203.7660  145.0050 O   0  0  0  0  0  0  0  0  0  0  0  0
  161.2700  202.6790  145.6170 C   0  0  0  0  0  2  0  0  0  0  0  0
  160.2750  201.5480  145.8360 C   0  0  1  0  0  3  0  0  0  0  0  0
  159.0620  201.8370  145.2090 O   0  0  0  0  0  1  0  0  0  0  0  0
  160.8380  200.2130  145.3420 C   0  0  0  0  0  2  0  0  0  0  0  0
  161.5570  199.4300  146.4350 C   0  0  0  0  0  2  0  0  0  0  0  0
  161.4560  200.1560  147.7610 C   0  0  0  0  0  1  0  0  0  0  0  0
  163.2310  205.1850  151.9380 O   0  0  0  0  0  1  0  0  0  0  0  0
  162.8300  206.5020  151.7180 C   0  0  0  0  0  2  0  0  0  0  0  0
  1 15  1  6  0  0  0
  1 36  1  0  0  0  0
  1  2  1  0  0  0  0
  2 13  2  0  0  0  0
  2  8  1  0  0  0  0
  4 12  1  0  0  0  0
  5 14  2  0  0  0  0
  6  4  1  0  0  0  0
  6  5  1  0  0  0  0
  8  6  2  0  0  0  0
  9 10  1  0  0  0  0
  9  4  2  0  0  0  0
 11  3  1  0  0  0  0
 12 11  1  6  0  0  0
 12  3  1  0  0  0  0
 12  7  1  0  0  0  0
 13  9  1  0  0  0  0
 14  7  1  0  0  0  0
 15 17  1  0  0  0  0
 16 15  2  0  0  0  0
 18 17  1  0  0  0  0
 20 26  1  0  0  0  0
 20 22  1  0  0  0  0
 21 18  1  0  0  0  0
 21 19  2  0  0  0  0
 22 19  1  0  0  0  0
 23 24  2  0  0  0  0
 23 25  1  0  0  0  0
 24 21  1  0  0  0  0
 25 20  2  0  0  0  0
 26 27  1  0  0  0  0
 27 28  1  0  0  0  0
 28 29  1  0  0  0  0
 29 31  1  0  0  0  0
 29 33  2  0  0  0  0
 31 34  1  0  0  0  0
 32 30  2  0  0  0  0
 33 32  1  0  0  0  0
 34 35  2  0  0  0  0
 35 30  1  0  0  0  0
 36 54  1  1  0  0  0
 38 36  1  0  0  0  0
 38 37  2  0  0  0  0
 39 37  1  0  0  0  0
 40 41  1  0  0  0  0
 41 38  1  0  0  0  0
 42 41  1  0  0  0  0
 43 42  1  0  0  0  0
 44 45  1  1  0  0  0
 44 43  1  0  0  0  0
 46 44  1  0  0  0  0
 46 47  1  0  0  0  0
 47 48  1  0  0  0  0
 48 49  1  6  0  0  0
 50 48  1  0  0  0  0
 50 51  1  0  0  0  0
 51 52  1  0  0  0  0
 54 53  1  0  0  0  0
M  END
>  <MODEL>
5

>  <REMARK>
 VINA RESULT:      -5.1      2.339      8.405
  Name = 
  20 active torsions:
  status: ('A' for Active; 'I' for Inactive)
    1  A    between atoms: C_1  and  C_24
    2  A    between atoms: C_2  and  C_35
    3  A    between atoms: C_3  and  C_11
    4  A    between atoms: C_3  and  C_38
    5  A    between atoms: C_8  and  C_53
    6  A    between atoms: C_9  and  N_33
    7  A    between atoms: C_9  and  C_43
    8  A    between atoms: C_11  and  C_12
    9  A    between atoms: C_13  and  S_29
   10  A    between atoms: C_15  and  C_43
   11  A    between atoms: C_15  and  O_50
   12  A    between atoms: C_17  and  N_33
   13  A    between atoms: C_17  and  C_34
   14  A    between atoms: C_19  and  C_24
   15  A    between atoms: C_23  and  C_35
   16  A    between atoms: C_23  and  C_53
   17  A    between atoms: C_24  and  C_34
   18  A    between atoms: S_29  and  N_51
   19  A    between atoms: C_34  and  C_52
   20  A    between atoms: C_38  and  O_50
                            x       y       z     vdW  Elec       q    Type
                         _______ _______ _______ _____ _____    ______ ____

>  <TORSDO>
F 20

$$$$
=
 OpenBabel11052410083D

 54 58  0  0  1  0  0  0  0  0999 V2000
  160.9660  206.6630  151.1500 C   0  0  1  0  0  3  0  0  0  0  0  0
  161.0920  207.4500  152.4220 C   0  0  0  0  0  0  0  0  0  0  0  0
  162.6610  209.6780  156.6520 N   0  0  0  0  0  2  0  0  0  0  0  0
  161.2080  208.9200  154.8210 C   0  0  0  0  0  0  0  0  0  0  0  0
  160.2970  206.9470  156.0700 C   0  0  0  0  0  3  0  0  0  0  0  0
  160.7360  207.5900  154.8170 C   0  0  0  0  0  0  0  0  0  0  0  0
  160.3310  209.1380  157.2590 C   0  0  0  0  0  2  0  0  0  0  0  0
  160.6880  206.8640  153.6250 C   0  0  0  0  0  3  0  0  0  0  0  0
  161.5910  209.5190  153.5990 C   0  0  0  0  0  0  0  0  0  0  0  0
  162.0340  210.8350  153.5430 O   0  0  0  0  0  1  0  0  0  0  0  0
  161.9220  210.9140  156.3380 C   0  0  0  0  0  2  0  0  0  0  0  0
  161.2770  209.6180  156.1620 C   0  0  1  0  0  0  0  0  0  0  0  0
  161.5240  208.7830  152.4130 C   0  0  0  0  0  3  0  0  0  0  0  0
  160.1440  207.6440  157.2020 C   0  0  0  0  0  3  0  0  0  0  0  0
  161.0880  207.5840  149.9760 C   0  0  0  0  0  0  0  0  0  0  0  0
  160.4740  207.3350  148.9000 O   0  0  0  0  0  0  0  0  0  0  0  0
  161.9440  208.7210  150.0710 N   0  0  0  0  0  2  0  0  0  0  0  0
  162.4410  209.6280  148.6410 S   0  0  0  0  0  0  0  0  0  0  0  0
  160.9970  211.0690  150.3860 C   0  0  0  0  0  3  0  0  0  0  0  0
  159.6360  213.1420  150.2830 C   0  0  0  0  0  0  0  0  0  0  0  0
  161.7730  211.1490  149.3020 C   0  0  0  0  0  0  0  0  0  0  0  0
  160.4880  212.2570  151.1350 C   0  0  0  0  0  2  0  0  0  0  0  0
  161.4550  213.5510  148.6160 C   0  0  0  0  0  3  0  0  0  0  0  0
  162.1680  212.4180  148.6570 C   0  0  0  0  0  3  0  0  0  0  0  0
  160.1210  213.7690  149.2100 C   0  0  0  0  0  3  0  0  0  0  0  0
  158.2530  213.4720  150.7420 C   0  0  0  0  0  2  0  0  0  0  0  0
  158.2690  214.1490  152.1050 C   0  0  0  0  0  2  0  0  0  0  0  0
  156.9100  214.0200  152.7800 C   0  0  0  0  0  2  0  0  0  0  0  0
  156.9940  213.1410  153.9810 C   0  0  0  0  0  0  0  0  0  0  0  0
  157.9990  211.4390  156.3640 C   0  0  0  0  0  3  0  0  0  0  0  0
  156.1610  213.4900  155.1690 C   0  0  0  0  0  2  0  0  0  0  0  0
  157.9890  211.1140  155.0660 C   0  0  0  0  0  3  0  0  0  0  0  0
  157.7500  212.0370  153.9380 C   0  0  0  0  0  3  0  0  0  0  0  0
  156.9900  213.7210  156.3860 C   0  0  0  0  0  3  0  0  0  0  0  0
  157.7690  212.7830  156.9280 C   0  0  0  0  0  3  0  0  0  0  0  0
  161.9300  205.4640  151.0710 C   0  0  2  0  0  3  0  0  0  0  0  0
  160.8120  203.6070  152.2290 C   0  0  0  0  0  3  0  0  0  0  0  0
  161.2000  204.1430  151.0630 C   0  0  0  0  0  0  0  0  0  0  0  0
  160.0840  202.4270  152.3110 O   0  0  0  0  0  1  0  0  0  0  0  0
  160.8210  204.2960  148.6880 O   0  0  0  0  0  1  0  0  0  0  0  0
  160.9120  203.5240  149.7940 N   0  0  0  0  0  0  0  0  0  0  0  0
  160.8050  202.0800  149.6250 C   0  0  0  0  0  2  0  0  0  0  0  0
  160.0140  201.7450  148.3690 C   0  0  0  0  0  2  0  0  0  0  0  0
  160.8680  200.9640  147.3850 C   0  0  2  0  0  3  0  0  0  0  0  0
  161.9340  200.1790  148.1290 C   0  0  0  0  0  1  0  0  0  0  0  0
  161.4790  201.8480  146.4960 O   0  0  0  0  0  0  0  0  0  0  0  0
  160.4520  202.2470  145.6310 C   0  0  0  0  0  2  0  0  0  0  0  0
  160.8610  203.5040  144.8780 C   0  0  1  0  0  3  0  0  0  0  0  0
  159.8270  204.4420  144.8970 O   0  0  0  0  0  1  0  0  0  0  0  0
  162.1470  204.1000  145.4540 C   0  0  0  0  0  2  0  0  0  0  0  0
  162.1310  205.6240  145.4920 C   0  0  0  0  0  2  0  0  0  0  0  0
  162.6900  206.1280  146.8070 C   0  0  0  0  0  1  0  0  0  0  0  0
  164.0830  206.2180  151.7970 O   0  0  0  0  0  1  0  0  0  0  0  0
  162.9580  205.5000  152.2000 C   0  0  0  0  0  2  0  0  0  0  0  0
  1 15  1  6  0  0  0
  1  2  1  0  0  0  0
  2  8  1  0  0  0  0
  4 12  1  0  0  0  0
  5 14  2  0  0  0  0
  6  4  1  0  0  0  0
  6  5  1  0  0  0  0
  8  6  2  0  0  0  0
  9  4  2  0  0  0  0
 10  9  1  0  0  0  0
 11  3  1  0  0  0  0
 12 11  1  6  0  0  0
 12  3  1  0  0  0  0
 12  7  1  0  0  0  0
 13  2  2  0  0  0  0
 13  9  1  0  0  0  0
 14  7  1  0  0  0  0
 15 17  1  0  0  0  0
 16 15  2  0  0  0  0
 18 21  1  0  0  0  0
 18 17  1  0  0  0  0
 19 22  1  0  0  0  0
 20 26  1  0  0  0  0
 20 22  1  0  0  0  0
 21 19  2  0  0  0  0
 23 24  2  0  0  0  0
 23 25  1  0  0  0  0
 24 21  1  0  0  0  0
 25 20  2  0  0  0  0
 26 27  1  0  0  0  0
 27 28  1  0  0  0  0
 28 29  1  0  0  0  0
 29 31  1  0  0  0  0
 30 35  1  0  0  0  0
 31 34  1  0  0  0  0
 32 30  2  0  0  0  0
 33 29  2  0  0  0  0
 33 32  1  0  0  0  0
 34 35  2  0  0  0  0
 36  1  1  0  0  0  0
 36 54  1  1  0  0  0
 37 39  1  0  0  0  0
 38 36  1  0  0  0  0
 38 37  2  0  0  0  0
 40 41  1  0  0  0  0
 41 38  1  0  0  0  0
 42 41  1  0  0  0  0
 43 42  1  0  0  0  0
 44 45  1  1  0  0  0
 44 43  1  0  0  0  0
 46 44  1  0  0  0  0
 47 46  1  0  0  0  0
 48 49  1  1  0  0  0
 48 50  1  0  0  0  0
 48 47  1  0  0  0  0
 50 51  1  0  0  0  0
 51 52  1  0  0  0  0
 53 54  1  0  0  0  0
M  END
>  <MODEL>
6

>  <REMARK>
 VINA RESULT:      -4.3      2.313      7.839
  Name = 
  20 active torsions:
  status: ('A' for Active; 'I' for Inactive)
    1  A    between atoms: C_1  and  C_24
    2  A    between atoms: C_2  and  C_35
    3  A    between atoms: C_3  and  C_11
    4  A    between atoms: C_3  and  C_38
    5  A    between atoms: C_8  and  C_53
    6  A    between atoms: C_9  and  N_33
    7  A    between atoms: C_9  and  C_43
    8  A    between atoms: C_11  and  C_12
    9  A    between atoms: C_13  and  S_29
   10  A    between atoms: C_15  and  C_43
   11  A    between atoms: C_15  and  O_50
   12  A    between atoms: C_17  and  N_33
   13  A    between atoms: C_17  and  C_34
   14  A    between atoms: C_19  and  C_24
   15  A    between atoms: C_23  and  C_35
   16  A    between atoms: C_23  and  C_53
   17  A    between atoms: C_24  and  C_34
   18  A    between atoms: S_29  and  N_51
   19  A    between atoms: C_34  and  C_52
   20  A    between atoms: C_38  and  O_50
                            x       y       z     vdW  Elec       q    Type
                         _______ _______ _______ _____ _____    ______ ____

>  <TORSDO>
F 20

$$$$
=
 OpenBabel11052410083D

 54 58  0  0  1  0  0  0  0  0999 V2000
  160.8540  209.2660  152.1490 C   0  0  1  0  0  3  0  0  0  0  0  0
  160.0170  210.1410  153.0370 C   0  0  0  0  0  0  0  0  0  0  0  0
  156.4990  212.0850  156.0640 N   0  0  0  0  0  2  0  0  0  0  0  0
  158.4990  211.8790  154.6520 C   0  0  0  0  0  0  0  0  0  0  0  0
  157.4160  212.8310  152.6020 C   0  0  0  0  0  3  0  0  0  0  0  0
  158.3600  211.9000  153.2480 C   0  0  0  0  0  0  0  0  0  0  0  0
  157.1120  214.0750  154.7410 C   0  0  0  0  0  2  0  0  0  0  0  0
  159.1100  211.0300  152.4530 C   0  0  0  0  0  3  0  0  0  0  0  0
  159.4360  210.9970  155.2380 C   0  0  0  0  0  0  0  0  0  0  0  0
  159.6340  210.9580  156.6130 O   0  0  0  0  0  1  0  0  0  0  0  0
  157.5120  212.7600  156.8960 C   0  0  0  0  0  2  0  0  0  0  0  0
  157.6120  212.8150  155.4420 C   0  0  1  0  0  0  0  0  0  0  0  0
  160.1890  210.1420  154.4270 C   0  0  0  0  0  3  0  0  0  0  0  0
  156.8120  213.8080  153.2890 C   0  0  0  0  0  3  0  0  0  0  0  0
  161.8720  210.1020  151.4370 C   0  0  0  0  0  0  0  0  0  0  0  0
  162.9200  210.4790  152.0330 O   0  0  0  0  0  0  0  0  0  0  0  0
  161.6210  210.5070  150.0920 N   0  0  0  0  0  2  0  0  0  0  0  0
  162.5610  211.7860  149.3200 S   0  0  0  0  0  0  0  0  0  0  0  0
  160.9590  211.8430  147.1660 C   0  0  0  0  0  3  0  0  0  0  0  0
  159.5670  213.5540  146.0290 C   0  0  0  0  0  0  0  0  0  0  0  0
  161.1410  212.3470  148.3890 C   0  0  0  0  0  0  0  0  0  0  0  0
  159.7480  212.1010  146.3300 C   0  0  0  0  0  2  0  0  0  0  0  0
  159.4330  214.1970  148.4430 C   0  0  0  0  0  3  0  0  0  0  0  0
  160.2080  213.2860  149.0460 C   0  0  0  0  0  3  0  0  0  0  0  0
  159.3480  214.4530  146.9910 C   0  0  0  0  0  3  0  0  0  0  0  0
  159.4550  213.9890  144.6050 C   0  0  0  0  0  2  0  0  0  0  0  0
  160.8180  214.0230  143.9270 C   0  0  0  0  0  2  0  0  0  0  0  0
  161.1870  212.6410  143.4040 C   0  0  0  0  0  2  0  0  0  0  0  0
  161.4530  212.6820  141.9370 C   0  0  0  0  0  0  0  0  0  0  0  0
  162.6410  213.2700  139.1400 C   0  0  0  0  0  3  0  0  0  0  0  0
  161.5330  211.3870  141.2000 C   0  0  0  0  0  2  0  0  0  0  0  0
  161.8710  214.0650  139.8920 C   0  0  0  0  0  3  0  0  0  0  0  0
  161.5410  213.8640  141.3170 C   0  0  0  0  0  3  0  0  0  0  0  0
  162.8530  211.2070  140.5280 C   0  0  0  0  0  3  0  0  0  0  0  0
  163.3090  212.0310  139.5830 C   0  0  0  0  0  3  0  0  0  0  0  0
  161.4760  208.0630  152.8830 C   0  0  2  0  0  3  0  0  0  0  0  0
  163.1840  206.3710  152.3710 C   0  0  0  0  0  3  0  0  0  0  0  0
  162.1450  207.0980  151.9340 C   0  0  0  0  0  0  0  0  0  0  0  0
  163.8190  205.4180  151.5870 O   0  0  0  0  0  1  0  0  0  0  0  0
  162.2730  207.5390  149.5680 O   0  0  0  0  0  1  0  0  0  0  0  0
  161.6150  206.9660  150.6010 N   0  0  0  0  0  0  0  0  0  0  0  0
  160.4430  206.1550  150.2930 C   0  0  0  0  0  2  0  0  0  0  0  0
  160.8380  204.7000  150.0820 C   0  0  0  0  0  2  0  0  0  0  0  0
  160.6900  204.3070  148.6220 C   0  0  2  0  0  3  0  0  0  0  0  0
  160.8110  202.8010  148.4740 C   0  0  0  0  0  1  0  0  0  0  0  0
  161.6860  204.9290  147.8700 O   0  0  0  0  0  0  0  0  0  0  0  0
  160.9930  205.6300  146.8760 C   0  0  0  0  0  2  0  0  0  0  0  0
  161.6100  205.3520  145.5130 C   0  0  1  0  0  3  0  0  0  0  0  0
  162.9090  204.8620  145.6560 O   0  0  0  0  0  1  0  0  0  0  0  0
  160.7480  204.3810  144.7030 C   0  0  0  0  0  2  0  0  0  0  0  0
  161.0050  202.9210  145.0580 C   0  0  0  0  0  2  0  0  0  0  0  0
  159.7970  202.0720  144.7140 C   0  0  0  0  0  1  0  0  0  0  0  0
  160.7280  205.9750  153.7820 O   0  0  0  0  0  1  0  0  0  0  0  0
  160.4430  207.3390  153.7430 C   0  0  0  0  0  2  0  0  0  0  0  0
  1 15  1  1  0  0  0
  1 36  1  0  0  0  0
  1  2  1  0  0  0  0
  2 13  1  0  0  0  0
  3 11  1  0  0  0  0
  4  9  1  0  0  0  0
  4 12  1  0  0  0  0
  5  6  1  0  0  0  0
  5 14  2  0  0  0  0
  6  4  2  0  0  0  0
  8  2  2  0  0  0  0
  8  6  1  0  0  0  0
  9 10  1  0  0  0  0
 12  7  1  6  0  0  0
 12  3  1  0  0  0  0
 12 11  1  0  0  0  0
 13  9  2  0  0  0  0
 14  7  1  0  0  0  0
 15 16  2  0  0  0  0
 17 15  1  0  0  0  0
 18 17  1  0  0  0  0
 19 21  2  0  0  0  0
 20 22  1  0  0  0  0
 20 25  2  0  0  0  0
 21 24  1  0  0  0  0
 21 18  1  0  0  0  0
 22 19  1  0  0  0  0
 23 24  2  0  0  0  0
 25 23  1  0  0  0  0
 26 20  1  0  0  0  0
 27 26  1  0  0  0  0
 28 27  1  0  0  0  0
 29 28  1  0  0  0  0
 30 35  1  0  0  0  0
 30 32  2  0  0  0  0
 31 29  1  0  0  0  0
 32 33  1  0  0  0  0
 33 29  2  0  0  0  0
 34 31  1  0  0  0  0
 35 34  2  0  0  0  0
 36 54  1  6  0  0  0
 38 37  2  0  0  0  0
 38 36  1  0  0  0  0
 39 37  1  0  0  0  0
 40 41  1  0  0  0  0
 41 38  1  0  0  0  0
 42 41  1  0  0  0  0
 43 42  1  0  0  0  0
 44 45  1  1  0  0  0
 44 43  1  0  0  0  0
 46 44  1  0  0  0  0
 47 46  1  0  0  0  0
 48 49  1  1  0  0  0
 48 47  1  0  0  0  0
 50 51  1  0  0  0  0
 50 48  1  0  0  0  0
 52 51  1  0  0  0  0
 54 53  1  0  0  0  0
M  END
>  <MODEL>
7

>  <REMARK>
 VINA RESULT:      -4.2      3.218     10.426
  Name = 
  20 active torsions:
  status: ('A' for Active; 'I' for Inactive)
    1  A    between atoms: C_1  and  C_24
    2  A    between atoms: C_2  and  C_35
    3  A    between atoms: C_3  and  C_11
    4  A    between atoms: C_3  and  C_38
    5  A    between atoms: C_8  and  C_53
    6  A    between atoms: C_9  and  N_33
    7  A    between atoms: C_9  and  C_43
    8  A    between atoms: C_11  and  C_12
    9  A    between atoms: C_13  and  S_29
   10  A    between atoms: C_15  and  C_43
   11  A    between atoms: C_15  and  O_50
   12  A    between atoms: C_17  and  N_33
   13  A    between atoms: C_17  and  C_34
   14  A    between atoms: C_19  and  C_24
   15  A    between atoms: C_23  and  C_35
   16  A    between atoms: C_23  and  C_53
   17  A    between atoms: C_24  and  C_34
   18  A    between atoms: S_29  and  N_51
   19  A    between atoms: C_34  and  C_52
   20  A    between atoms: C_38  and  O_50
                            x       y       z     vdW  Elec       q    Type
                         _______ _______ _______ _____ _____    ______ ____

>  <TORSDO>
F 20

$$$$
=
 OpenBabel11052410083D

 54 58  0  0  1  0  0  0  0  0999 V2000
  161.2250  208.1870  149.3840 C   0  0  1  0  0  3  0  0  0  0  0  0
  161.1810  208.5100  150.8500 C   0  0  0  0  0  0  0  0  0  0  0  0
  162.2470  209.5680  155.6520 N   0  0  0  0  0  2  0  0  0  0  0  0
  160.9860  209.0730  153.6020 C   0  0  0  0  0  0  0  0  0  0  0  0
  160.7460  206.6240  154.0820 C   0  0  0  0  0  3  0  0  0  0  0  0
  160.9180  207.7430  153.1350 C   0  0  0  0  0  0  0  0  0  0  0  0
  160.2050  208.2100  155.9270 C   0  0  0  0  0  2  0  0  0  0  0  0
  161.0240  207.4700  151.7690 C   0  0  0  0  0  3  0  0  0  0  0  0
  161.1190  210.1250  152.6680 C   0  0  0  0  0  0  0  0  0  0  0  0
  161.1590  211.4540  153.0710 O   0  0  0  0  0  1  0  0  0  0  0  0
  161.1680  210.5690  155.7270 C   0  0  0  0  0  2  0  0  0  0  0  0
  160.9170  209.2770  155.1000 C   0  0  1  0  0  0  0  0  0  0  0  0
  161.2090  209.8360  151.3030 C   0  0  0  0  0  3  0  0  0  0  0  0
  160.4550  206.8330  155.3710 C   0  0  0  0  0  3  0  0  0  0  0  0
  162.0610  209.2030  148.6710 C   0  0  0  0  0  0  0  0  0  0  0  0
  163.2620  208.9490  148.3720 O   0  0  0  0  0  0  0  0  0  0  0  0
  161.4990  210.4810  148.3750 N   0  0  0  0  0  2  0  0  0  0  0  0
  162.5080  211.8470  147.8950 S   0  0  0  0  0  0  0  0  0  0  0  0
  160.8440  213.3740  149.3460 C   0  0  0  0  0  3  0  0  0  0  0  0
  158.4750  214.0910  149.1650 C   0  0  0  0  0  0  0  0  0  0  0  0
  161.1540  212.9960  148.1030 C   0  0  0  0  0  0  0  0  0  0  0  0
  159.8400  214.4330  149.6690 C   0  0  0  0  0  2  0  0  0  0  0  0
  159.2240  213.9310  146.7830 C   0  0  0  0  0  3  0  0  0  0  0  0
  160.4940  213.5180  146.8890 C   0  0  0  0  0  3  0  0  0  0  0  0
  158.2170  213.9540  147.8630 C   0  0  0  0  0  3  0  0  0  0  0  0
  157.3330  214.0750  150.1270 C   0  0  0  0  0  2  0  0  0  0  0  0
  157.8200  214.1810  151.5650 C   0  0  0  0  0  2  0  0  0  0  0  0
  158.2560  212.8170  152.0820 C   0  0  0  0  0  2  0  0  0  0  0  0
  157.8640  212.6390  153.5100 C   0  0  0  0  0  0  0  0  0  0  0  0
  157.7610  211.8130  156.4910 C   0  0  0  0  0  3  0  0  0  0  0  0
  157.5250  213.8560  154.3040 C   0  0  0  0  0  2  0  0  0  0  0  0
  157.4520  211.0720  155.4200 C   0  0  0  0  0  3  0  0  0  0  0  0
  157.7570  211.4040  154.0140 C   0  0  0  0  0  3  0  0  0  0  0  0
  158.4070  214.0080  155.4970 C   0  0  0  0  0  3  0  0  0  0  0  0
  158.4670  213.1090  156.4800 C   0  0  0  0  0  3  0  0  0  0  0  0
  161.6620  206.7390  149.0880 C   0  0  2  0  0  3  0  0  0  0  0  0
  160.4270  206.8250  146.9650 C   0  0  0  0  0  3  0  0  0  0  0  0
  161.5040  206.3820  147.6300 C   0  0  0  0  0  0  0  0  0  0  0  0
  160.2310  206.5950  145.6100 O   0  0  0  0  0  1  0  0  0  0  0  0
  163.7900  205.6270  147.5120 O   0  0  0  0  0  1  0  0  0  0  0  0
  162.5410  205.6090  146.9940 N   0  0  0  0  0  0  0  0  0  0  0  0
  162.2860  204.7240  145.8640 C   0  0  0  0  0  2  0  0  0  0  0  0
  161.4020  203.5590  146.2840 C   0  0  0  0  0  2  0  0  0  0  0  0
  160.8050  202.8680  145.0710 C   0  0  2  0  0  3  0  0  0  0  0  0
  159.6450  203.6830  144.5260 C   0  0  0  0  0  1  0  0  0  0  0  0
  160.3520  201.6000  145.4330 O   0  0  0  0  0  0  0  0  0  0  0  0
  161.3290  201.1120  146.3100 C   0  0  0  0  0  2  0  0  0  0  0  0
  160.6760  200.5840  147.5790 C   0  0  1  0  0  3  0  0  0  0  0  0
  161.5760  199.7980  148.3000 O   0  0  0  0  0  1  0  0  0  0  0  0
  160.1390  201.7280  148.4420 C   0  0  0  0  0  2  0  0  0  0  0  0
  161.1430  202.2100  149.4830 C   0  0  0  0  0  2  0  0  0  0  0  0
  160.7780  201.6830  150.8560 C   0  0  0  0  0  1  0  0  0  0  0  0
  161.8250  204.9800  150.7030 O   0  0  0  0  0  1  0  0  0  0  0  0
  160.9150  205.7400  149.9670 C   0  0  0  0  0  2  0  0  0  0  0  0
  1 15  1  6  0  0  0
  1  2  1  0  0  0  0
  2 13  2  0  0  0  0
  2  8  1  0  0  0  0
  3 11  1  0  0  0  0
  4 12  1  0  0  0  0
  5 14  2  0  0  0  0
  6  4  1  0  0  0  0
  6  5  1  0  0  0  0
  8  6  2  0  0  0  0
  9 10  1  0  0  0  0
  9  4  2  0  0  0  0
 12  3  1  0  0  0  0
 12 11  1  1  0  0  0
 12  7  1  0  0  0  0
 13  9  1  0  0  0  0
 14  7  1  0  0  0  0
 16 15  2  0  0  0  0
 17 15  1  0  0  0  0
 18 21  1  0  0  0  0
 18 17  1  0  0  0  0
 19 22  1  0  0  0  0
 20 22  1  0  0  0  0
 20 26  1  0  0  0  0
 21 19  2  0  0  0  0
 23 24  2  0  0  0  0
 23 25  1  0  0  0  0
 24 21  1  0  0  0  0
 25 20  2  0  0  0  0
 26 27  1  0  0  0  0
 27 28  1  0  0  0  0
 28 29  1  0  0  0  0
 29 33  2  0  0  0  0
 29 31  1  0  0  0  0
 31 34  1  0  0  0  0
 32 30  2  0  0  0  0
 33 32  1  0  0  0  0
 34 35  2  0  0  0  0
 35 30  1  0  0  0  0
 36  1  1  0  0  0  0
 36 54  1  1  0  0  0
 37 38  2  0  0  0  0
 38 36  1  0  0  0  0
 39 37  1  0  0  0  0
 41 40  1  0  0  0  0
 41 38  1  0  0  0  0
 42 43  1  0  0  0  0
 42 41  1  0  0  0  0
 44 45  1  1  0  0  0
 44 46  1  0  0  0  0
 44 43  1  0  0  0  0
 46 47  1  0  0  0  0
 47 48  1  0  0  0  0
 48 49  1  1  0  0  0
 48 50  1  0  0  0  0
 50 51  1  0  0  0  0
 51 52  1  0  0  0  0
 54 53  1  0  0  0  0
M  END
>  <MODEL>
8

>  <REMARK>
 VINA RESULT:      -4.1      2.304      8.380
  Name = 
  20 active torsions:
  status: ('A' for Active; 'I' for Inactive)
    1  A    between atoms: C_1  and  C_24
    2  A    between atoms: C_2  and  C_35
    3  A    between atoms: C_3  and  C_11
    4  A    between atoms: C_3  and  C_38
    5  A    between atoms: C_8  and  C_53
    6  A    between atoms: C_9  and  N_33
    7  A    between atoms: C_9  and  C_43
    8  A    between atoms: C_11  and  C_12
    9  A    between atoms: C_13  and  S_29
   10  A    between atoms: C_15  and  C_43
   11  A    between atoms: C_15  and  O_50
   12  A    between atoms: C_17  and  N_33
   13  A    between atoms: C_17  and  C_34
   14  A    between atoms: C_19  and  C_24
   15  A    between atoms: C_23  and  C_35
   16  A    between atoms: C_23  and  C_53
   17  A    between atoms: C_24  and  C_34
   18  A    between atoms: S_29  and  N_51
   19  A    between atoms: C_34  and  C_52
   20  A    between atoms: C_38  and  O_50
                            x       y       z     vdW  Elec       q    Type
                         _______ _______ _______ _____ _____    ______ ____

>  <TORSDO>
F 20

$$$$
=
 OpenBabel11052410083D

 54 58  0  0  1  0  0  0  0  0999 V2000
  161.1460  207.3670  150.8450 C   0  0  1  0  0  3  0  0  0  0  0  0
  161.0690  206.0830  150.0700 C   0  0  0  0  0  0  0  0  0  0  0  0
  159.6150  202.0210  147.4810 N   0  0  0  0  0  2  0  0  0  0  0  0
  161.0320  203.6450  148.6620 C   0  0  0  0  0  0  0  0  0  0  0  0
  161.0300  202.3950  150.8340 C   0  0  0  0  0  3  0  0  0  0  0  0
  161.0410  203.6580  150.0730 C   0  0  0  0  0  0  0  0  0  0  0  0
  161.5060  201.0910  148.7640 C   0  0  0  0  0  2  0  0  0  0  0  0
  161.0520  204.8710  150.7650 C   0  0  0  0  0  3  0  0  0  0  0  0
  161.0750  204.8720  147.9610 C   0  0  0  0  0  0  0  0  0  0  0  0
  161.0980  204.9150  146.5720 O   0  0  0  0  0  1  0  0  0  0  0  0
  160.7560  202.1370  146.5560 C   0  0  0  0  0  2  0  0  0  0  0  0
  160.9660  202.2910  147.9910 C   0  0  1  0  0  0  0  0  0  0  0  0
  161.0990  206.0770  148.6690 C   0  0  0  0  0  3  0  0  0  0  0  0
  161.2060  201.2110  150.2350 C   0  0  0  0  0  3  0  0  0  0  0  0
  161.3130  207.0640  152.3020 C   0  0  0  0  0  0  0  0  0  0  0  0
  162.1680  206.2180  152.6860 O   0  0  0  0  0  0  0  0  0  0  0  0
  160.4610  207.7090  153.2480 N   0  0  0  0  0  2  0  0  0  0  0  0
  160.3260  207.1370  154.9120 S   0  0  0  0  0  0  0  0  0  0  0  0
  159.1780  209.3950  155.8030 C   0  0  0  0  0  3  0  0  0  0  0  0
  159.7020  211.8180  155.6980 C   0  0  0  0  0  0  0  0  0  0  0  0
  160.3500  208.8080  155.5490 C   0  0  0  0  0  0  0  0  0  0  0  0
  159.0390  210.7240  156.4710 C   0  0  0  0  0  2  0  0  0  0  0  0
  161.9550  210.7330  155.7960 C   0  0  0  0  0  3  0  0  0  0  0  0
  161.6640  209.4270  155.8240 C   0  0  0  0  0  3  0  0  0  0  0  0
  161.0190  211.8330  155.4840 C   0  0  0  0  0  3  0  0  0  0  0  0
  158.8990  213.0140  155.3050 C   0  0  0  0  0  2  0  0  0  0  0  0
  157.4190  212.8040  155.5880 C   0  0  0  0  0  2  0  0  0  0  0  0
  156.6890  212.3800  154.3200 C   0  0  0  0  0  2  0  0  0  0  0  0
  157.0450  213.2700  153.1790 C   0  0  0  0  0  0  0  0  0  0  0  0
  157.8110  214.3810  150.3930 C   0  0  0  0  0  3  0  0  0  0  0  0
  156.1770  214.4530  152.9100 C   0  0  0  0  0  2  0  0  0  0  0  0
  158.6040  213.7740  151.2830 C   0  0  0  0  0  3  0  0  0  0  0  0
  158.1600  213.0280  152.4790 C   0  0  0  0  0  3  0  0  0  0  0  0
  155.5940  214.4190  151.5380 C   0  0  0  0  0  3  0  0  0  0  0  0
  156.3370  214.4310  150.4290 C   0  0  0  0  0  3  0  0  0  0  0  0
  162.2120  208.3430  150.3120 C   0  0  2  0  0  3  0  0  0  0  0  0
  163.4460  209.7430  151.9100 C   0  0  0  0  0  3  0  0  0  0  0  0
  162.3390  209.5770  151.1720 C   0  0  0  0  0  0  0  0  0  0  0  0
  163.6730  210.8740  152.6830 O   0  0  0  0  0  1  0  0  0  0  0  0
  160.7060  210.9460  152.2970 O   0  0  0  0  0  1  0  0  0  0  0  0
  161.2790  210.5520  151.1380 N   0  0  0  0  0  0  0  0  0  0  0  0
  160.8520  211.2120  149.9100 C   0  0  0  0  0  2  0  0  0  0  0  0
  162.0200  211.9400  149.2600 C   0  0  0  0  0  2  0  0  0  0  0  0
  161.5280  213.0900  148.3980 C   0  0  2  0  0  3  0  0  0  0  0  0
  160.2470  212.6950  147.6850 C   0  0  0  0  0  1  0  0  0  0  0  0
  162.5030  213.4160  147.4560 O   0  0  0  0  0  0  0  0  0  0  0  0
  162.0930  212.7680  146.2850 C   0  0  0  0  0  2  0  0  0  0  0  0
  162.5160  213.5750  145.0650 C   0  0  1  0  0  3  0  0  0  0  0  0
  163.8470  213.3070  144.7410 O   0  0  0  0  0  1  0  0  0  0  0  0
  161.5980  213.2960  143.8730 C   0  0  0  0  0  2  0  0  0  0  0  0
  162.3630  212.9260  142.6070 C   0  0  0  0  0  2  0  0  0  0  0  0
  161.5690  211.9360  141.7790 C   0  0  0  0  0  1  0  0  0  0  0  0
  163.0940  208.5600  148.0970 O   0  0  0  0  0  1  0  0  0  0  0  0
  161.9390  208.7290  148.8600 C   0  0  0  0  0  2  0  0  0  0  0  0
  1 15  1  1  0  0  0
  2  8  1  0  0  0  0
  2  1  1  0  0  0  0
  3 12  1  0  0  0  0
  4  6  1  0  0  0  0
  6  8  2  0  0  0  0
  6  5  1  0  0  0  0
  7 14  1  0  0  0  0
  9  4  2  0  0  0  0
  9 13  1  0  0  0  0
 10  9  1  0  0  0  0
 11  3  1  0  0  0  0
 12 11  1  6  0  0  0
 12  4  1  0  0  0  0
 12  7  1  0  0  0  0
 13  2  2  0  0  0  0
 14  5  2  0  0  0  0
 15 16  2  0  0  0  0
 15 17  1  0  0  0  0
 17 18  1  0  0  0  0
 18 21  1  0  0  0  0
 19 22  1  0  0  0  0
 20 22  1  0  0  0  0
 21 19  2  0  0  0  0
 21 24  1  0  0  0  0
 23 24  2  0  0  0  0
 25 20  2  0  0  0  0
 25 23  1  0  0  0  0
 26 27  1  0  0  0  0
 26 20  1  0  0  0  0
 28 27  1  0  0  0  0
 29 28  1  0  0  0  0
 30 35  1  0  0  0  0
 30 32  2  0  0  0  0
 31 29  1  0  0  0  0
 32 33  1  0  0  0  0
 33 29  2  0  0  0  0
 34 31  1  0  0  0  0
 35 34  2  0  0  0  0
 36 54  1  6  0  0  0
 36  1  1  0  0  0  0
 36 38  1  0  0  0  0
 37 39  1  0  0  0  0
 38 37  2  0  0  0  0
 41 38  1  0  0  0  0
 41 40  1  0  0  0  0
 42 41  1  0  0  0  0
 43 42  1  0  0  0  0
 44 45  1  6  0  0  0
 44 43  1  0  0  0  0
 46 44  1  0  0  0  0
 47 46  1  0  0  0  0
 48 49  1  6  0  0  0
 48 47  1  0  0  0  0
 50 48  1  0  0  0  0
 51 50  1  0  0  0  0
 52 51  1  0  0  0  0
 53 54  1  0  0  0  0
M  END
>  <MODEL>
9

>  <REMARK>
 VINA RESULT:      -3.7      1.703      2.572
  Name = 
  20 active torsions:
  status: ('A' for Active; 'I' for Inactive)
    1  A    between atoms: C_1  and  C_24
    2  A    between atoms: C_2  and  C_35
    3  A    between atoms: C_3  and  C_11
    4  A    between atoms: C_3  and  C_38
    5  A    between atoms: C_8  and  C_53
    6  A    between atoms: C_9  and  N_33
    7  A    between atoms: C_9  and  C_43
    8  A    between atoms: C_11  and  C_12
    9  A    between atoms: C_13  and  S_29
   10  A    between atoms: C_15  and  C_43
   11  A    between atoms: C_15  and  O_50
   12  A    between atoms: C_17  and  N_33
   13  A    between atoms: C_17  and  C_34
   14  A    between atoms: C_19  and  C_24
   15  A    between atoms: C_23  and  C_35
   16  A    between atoms: C_23  and  C_53
   17  A    between atoms: C_24  and  C_34
   18  A    between atoms: S_29  and  N_51
   19  A    between atoms: C_34  and  C_52
   20  A    between atoms: C_38  and  O_50
                            x       y       z     vdW  Elec       q    Type
                         _______ _______ _______ _____ _____    ______ ____

>  <TORSDO>
F 20

$$$$
