=
 OpenBabel11052411283D

 57 62  0  0  1  0  0  0  0  0999 V2000
  162.7840  207.6180  150.6640 N   0  0  0  0  0  2  0  0  0  0  0  0
  161.1630  209.0660  151.5420 C   0  0  1  0  0  3  0  0  0  0  0  0
  160.7740  209.9280  152.6510 N   0  0  0  0  0  0  0  0  0  0  0  0
  162.1150  209.7860  150.6780 C   0  0  1  0  0  3  0  0  0  0  0  0
  160.4550  211.1700  152.3920 C   0  0  0  0  0  0  0  0  0  0  0  0
  162.6520  208.7500  149.8220 N   0  0  0  0  0  2  0  0  0  0  0  0
  160.7030  211.7060  151.0670 N   0  0  0  0  0  2  0  0  0  0  0  0
  161.3190  210.8910  150.0040 C   0  0  1  0  0  3  0  0  0  0  0  0
  161.9810  207.8600  151.8760 C   0  0  1  0  0  3  0  0  0  0  0  0
  161.8820  205.3610  152.0720 C   0  0  0  0  0  2  0  0  0  0  0  0
  160.2450  205.4480  150.3900 N   0  0  0  0  0  0  0  0  0  0  0  0
  161.3940  204.6910  150.7920 C   0  0  2  0  0  3  0  0  0  0  0  0
  161.0830  206.6580  152.1730 C   0  0  2  0  0  3  0  0  0  0  0  0
  160.0640  206.4950  151.1000 C   0  0  0  0  0  3  0  0  0  0  0  0
  160.9990  203.2480  151.0590 C   0  0  0  0  0  2  0  0  0  0  0  0
  160.3780  202.1180  148.1050 N   0  0  0  0  0  0  0  0  0  0  0  0
  161.0450  200.9550  150.1160 C   0  0  0  0  0  2  0  0  0  0  0  0
  161.5950  202.7250  148.6400 C   0  0  2  0  0  3  0  0  0  0  0  0
  160.0130  201.0250  149.0060 C   0  0  0  0  0  2  0  0  0  0  0  0
  161.7250  202.3020  150.1000 C   0  0  1  0  0  3  0  0  0  0  0  0
  161.3460  200.3590  146.8450 O   0  0  0  0  0  1  0  0  0  0  0  0
  160.6530  201.5720  146.7720 C   0  0  0  0  0  2  0  0  0  0  0  0
  161.5980  204.2400  148.3990 C   0  0  0  0  0  2  0  0  0  0  0  0
  160.5800  205.9630  146.9810 O   0  0  0  0  0  0  0  0  0  0  0  0
  161.0650  204.6500  147.0200 C   0  0  1  0  0  3  0  0  0  0  0  0
  161.9890  204.4280  145.8330 C   0  0  1  0  0  3  0  0  0  0  0  0
  161.4280  205.3830  144.8220 C   0  0  2  0  0  3  0  0  0  0  0  0
  160.4810  206.2720  145.6110 C   0  0  0  0  0  2  0  0  0  0  0  0
  160.7050  204.6760  143.8610 O   0  0  0  0  0  1  0  0  0  0  0  0
  163.4310  204.8250  146.1130 C   0  0  0  0  0  1  0  0  0  0  0  0
  158.9350  211.4420  154.3190 C   0  0  0  0  0  3  0  0  0  0  0  0
  159.3420  213.3090  152.9960 C   0  0  0  0  0  3  0  0  0  0  0  0
  157.8520  212.1960  154.2540 C   0  0  0  0  0  0  0  0  0  0  0  0
  158.0930  213.3670  153.4300 C   0  0  0  0  0  3  0  0  0  0  0  0
  160.0230  212.0770  153.5110 C   0  0  2  0  0  3  0  0  0  0  0  0
  156.0610  210.7430  154.7780 O   0  0  0  0  0  0  0  0  0  0  0  0
  156.5800  211.8820  154.9180 C   0  0  0  0  0  0  0  0  0  0  0  0
  155.9290  212.8560  155.7300 N   0  0  0  0  0  1  0  0  0  0  0  0
  162.2310  211.7500  149.1490 C   0  0  0  0  0  2  0  0  0  0  0  0
  161.4250  212.8200  148.4380 C   0  0  0  0  0  2  0  0  0  0  0  0
  160.8910  212.2600  147.1330 C   0  0  0  0  0  2  0  0  0  0  0  0
  160.7390  213.3600  146.0930 C   0  0  0  0  0  2  0  0  0  0  0  0
  162.2390  213.0280  144.2750 O   0  0  0  0  0  0  0  0  0  0  0  0
  160.0760  212.2170  143.9310 N   0  0  0  0  0  2  0  0  0  0  0  0
  161.0700  212.8760  144.7180 C   0  0  0  0  0  0  0  0  0  0  0  0
  160.3670  211.7010  142.6040 C   0  0  0  0  0  2  0  0  0  0  0  0
  159.7870  212.6420  141.5590 C   0  0  0  0  0  2  0  0  0  0  0  0
  160.3240  212.3680  140.1540 C   0  0  2  0  0  3  0  0  0  0  0  0
  159.2490  212.0440  139.1610 C   0  0  0  0  0  0  0  0  0  0  0  0
  159.4310  212.2890  137.8030 O   0  0  0  0  0  0  0  0  0  0  0  0
  158.1700  211.5380  139.5610 O   0  0  0  0  0  1  0  0  0  0  0  0
  161.5460  211.4340  140.1360 C   0  0  2  0  0  3  0  0  0  0  0  0
  162.8480  212.1200  139.8370 C   0  0  0  0  0  0  0  0  0  0  0  0
  163.1280  213.2000  140.4160 O   0  0  0  0  0  1  0  0  0  0  0  0
  163.7590  211.5580  138.9510 O   0  0  0  0  0  0  0  0  0  0  0  0
  161.3540  210.2200  139.4400 O   0  0  0  0  0  0  0  0  0  0  0  0
  161.9440  209.2680  140.1390 O   0  0  0  0  0  1  0  0  0  0  0  0
  2  9  1  0  0  0  0
  2  3  1  1  0  0  0
  4  6  1  6  0  0  0
  4  2  1  0  0  0  0
  5  3  2  0  0  0  0
  6  1  1  0  0  0  0
  7  5  1  0  0  0  0
  8 39  1  1  0  0  0
  8  4  1  0  0  0  0
  8  7  1  0  0  0  0
  9  1  1  6  0  0  0
  9 13  1  0  0  0  0
 10 13  1  0  0  0  0
 11 12  1  0  0  0  0
 11 14  2  0  0  0  0
 12 15  1  1  0  0  0
 12 10  1  0  0  0  0
 13 14  1  6  0  0  0
 16 18  1  0  0  0  0
 16 19  1  0  0  0  0
 18 23  1  1  0  0  0
 18 20  1  0  0  0  0
 19 17  1  0  0  0  0
 20 17  1  0  0  0  0
 20 15  1  1  0  0  0
 22 21  1  0  0  0  0
 22 16  1  0  0  0  0
 24 25  1  0  0  0  0
 25 23  1  1  0  0  0
 26 30  1  1  0  0  0
 26 25  1  0  0  0  0
 27 29  1  6  0  0  0
 27 28  1  0  0  0  0
 27 26  1  0  0  0  0
 28 24  1  0  0  0  0
 32 34  2  0  0  0  0
 32 35  1  0  0  0  0
 33 31  2  0  0  0  0
 33 37  1  0  0  0  0
 34 33  1  0  0  0  0
 35  5  1  6  0  0  0
 35 31  1  0  0  0  0
 36 37  2  0  0  0  0
 37 38  1  0  0  0  0
 40 39  1  0  0  0  0
 41 40  1  0  0  0  0
 42 41  1  0  0  0  0
 43 45  2  0  0  0  0
 44 45  1  0  0  0  0
 45 42  1  0  0  0  0
 46 44  1  0  0  0  0
 47 46  1  0  0  0  0
 48 47  1  1  0  0  0
 49 51  1  0  0  0  0
 49 48  1  0  0  0  0
 50 49  2  0  0  0  0
 52 56  1  6  0  0  0
 52 48  1  0  0  0  0
 53 52  1  0  0  0  0
 53 54  1  0  0  0  0
 55 53  2  0  0  0  0
 56 57  1  0  0  0  0
M  END
>  <MODEL>
1

>  <REMARK>
 VINA RESULT:      -6.5      0.000      0.000
  Name = 
  20 active torsions:
  status: ('A' for Active; 'I' for Inactive)
    1  A    between atoms: C_2  and  C_10
    2  A    between atoms: C_2  and  C_29
    3  A    between atoms: C_2  and  C_51
    4  A    between atoms: N_3  and  C_31
    5  A    between atoms: N_4  and  C_36
    6  A    between atoms: O_7  and  C_51
    7  A    between atoms: C_8  and  C_51
    8  A    between atoms: C_13  and  C_52
    9  A    between atoms: C_13  and  C_55
   10  A    between atoms: C_14  and  C_38
   11  A    between atoms: C_16  and  C_38
   12  A    between atoms: C_21  and  C_41
   13  A    between atoms: C_24  and  C_39
   14  A    between atoms: C_24  and  C_53
   15  A    between atoms: C_29  and  C_31
   16  A    between atoms: C_33  and  C_40
   17  A    between atoms: C_33  and  C_57
   18  A    between atoms: C_35  and  C_47
   19  A    between atoms: C_39  and  C_52
   20  A    between atoms: C_48  and  C_54
                            x       y       z     vdW  Elec       q    Type
                         _______ _______ _______ _____ _____    ______ ____

>  <TORSDO>
F 20

$$$$
=
 OpenBabel11052411283D

 57 62  0  0  1  0  0  0  0  0999 V2000
  162.5290  210.3370  149.9130 N   0  0  0  0  0  2  0  0  0  0  0  0
  161.0230  209.9570  151.6700 C   0  0  1  0  0  3  0  0  0  0  0  0
  160.8430  209.8190  153.1100 N   0  0  0  0  0  0  0  0  0  0  0  0
  161.0960  211.3880  151.3240 C   0  0  1  0  0  3  0  0  0  0  0  0
  159.9550  210.5770  153.7000 C   0  0  0  0  0  0  0  0  0  0  0  0
  161.5780  211.3860  149.9590 N   0  0  0  0  0  2  0  0  0  0  0  0
  159.3420  211.6640  152.9620 N   0  0  0  0  0  2  0  0  0  0  0  0
  159.7040  211.9480  151.5600 C   0  0  1  0  0  3  0  0  0  0  0  0
  162.3250  209.4900  151.1030 C   0  0  1  0  0  3  0  0  0  0  0  0
  163.0400  207.7700  149.4230 C   0  0  0  0  0  2  0  0  0  0  0  0
  160.7490  207.4040  149.0530 N   0  0  0  0  0  0  0  0  0  0  0  0
  161.9890  207.5320  148.3430 C   0  0  2  0  0  3  0  0  0  0  0  0
  162.2480  208.0150  150.7040 C   0  0  2  0  0  3  0  0  0  0  0  0
  160.8590  207.6600  150.2990 C   0  0  0  0  0  3  0  0  0  0  0  0
  162.2860  206.2520  147.5790 C   0  0  0  0  0  2  0  0  0  0  0  0
  161.6000  203.6610  145.7880 N   0  0  0  0  0  0  0  0  0  0  0  0
  160.7660  205.9260  145.6470 C   0  0  0  0  0  2  0  0  0  0  0  0
  161.0710  204.0700  147.0880 C   0  0  2  0  0  3  0  0  0  0  0  0
  161.4290  204.7970  144.8810 C   0  0  0  0  0  2  0  0  0  0  0  0
  160.9890  205.5940  147.1020 C   0  0  1  0  0  3  0  0  0  0  0  0
  160.4290  201.6700  146.3210 O   0  0  0  0  0  1  0  0  0  0  0  0
  160.8260  202.5230  145.2850 C   0  0  0  0  0  2  0  0  0  0  0  0
  161.8910  203.4530  148.2270 C   0  0  0  0  0  2  0  0  0  0  0  0
  160.1350  204.4010  149.6540 O   0  0  0  0  0  0  0  0  0  0  0  0
  161.4410  203.8960  149.6260 C   0  0  1  0  0  3  0  0  0  0  0  0
  161.6050  202.8870  150.7510 C   0  0  1  0  0  3  0  0  0  0  0  0
  160.6240  203.3940  151.7660 C   0  0  2  0  0  3  0  0  0  0  0  0
  159.7800  204.4110  151.0150 C   0  0  0  0  0  2  0  0  0  0  0  0
  161.3080  204.0350  152.7990 O   0  0  0  0  0  1  0  0  0  0  0  0
  161.1950  201.4760  150.3570 C   0  0  0  0  0  1  0  0  0  0  0  0
  158.3070  210.7590  155.5300 C   0  0  0  0  0  3  0  0  0  0  0  0
  160.4750  211.4790  155.9580 C   0  0  0  0  0  3  0  0  0  0  0  0
  158.2860  211.7930  156.3530 C   0  0  0  0  0  0  0  0  0  0  0  0
  159.6360  212.2530  156.6290 C   0  0  0  0  0  3  0  0  0  0  0  0
  159.7260  210.4390  155.1800 C   0  0  2  0  0  3  0  0  0  0  0  0
  156.0340  211.6900  157.0670 O   0  0  0  0  0  0  0  0  0  0  0  0
  157.0640  212.3950  156.9010 C   0  0  0  0  0  0  0  0  0  0  0  0
  157.0360  213.7740  157.2580 N   0  0  0  0  0  1  0  0  0  0  0  0
  159.6900  213.4450  151.3110 C   0  0  0  0  0  2  0  0  0  0  0  0
  158.9110  213.7580  150.0480 C   0  0  0  0  0  2  0  0  0  0  0  0
  159.8340  213.6460  148.8500 C   0  0  0  0  0  2  0  0  0  0  0  0
  159.0380  213.4330  147.5700 C   0  0  0  0  0  2  0  0  0  0  0  0
  161.1730  213.1290  146.5630 O   0  0  0  0  0  0  0  0  0  0  0  0
  159.3520  212.6920  145.1680 N   0  0  0  0  0  2  0  0  0  0  0  0
  159.9230  213.0910  146.4150 C   0  0  0  0  0  0  0  0  0  0  0  0
  160.1780  212.3190  144.0320 C   0  0  0  0  0  2  0  0  0  0  0  0
  159.4930  212.7550  142.7460 C   0  0  0  0  0  2  0  0  0  0  0  0
  160.0930  212.0980  141.5030 C   0  0  2  0  0  3  0  0  0  0  0  0
  161.5790  212.2690  141.4000 C   0  0  0  0  0  0  0  0  0  0  0  0
  162.3990  211.2050  141.0370 O   0  0  0  0  0  0  0  0  0  0  0  0
  162.0900  213.3920  141.6410 O   0  0  0  0  0  1  0  0  0  0  0  0
  159.3030  212.3870  140.2140 C   0  0  2  0  0  3  0  0  0  0  0  0
  158.8300  211.1610  139.4870 C   0  0  0  0  0  0  0  0  0  0  0  0
  159.6520  210.2530  139.2020 O   0  0  0  0  0  1  0  0  0  0  0  0
  157.4900  211.0050  139.1560 O   0  0  0  0  0  0  0  0  0  0  0  0
  159.8700  213.3760  139.3800 O   0  0  0  0  0  0  0  0  0  0  0  0
  159.1050  214.4490  139.4650 O   0  0  0  0  0  1  0  0  0  0  0  0
  1  6  1  0  0  0  0
  2  3  1  1  0  0  0
  3  5  2  0  0  0  0
  4  6  1  6  0  0  0
  4  8  1  0  0  0  0
  4  2  1  0  0  0  0
  7  5  1  0  0  0  0
  8 39  1  1  0  0  0
  8  7  1  0  0  0  0
  9  1  1  6  0  0  0
  9  2  1  0  0  0  0
 11 14  2  0  0  0  0
 12 15  1  1  0  0  0
 12 11  1  0  0  0  0
 12 10  1  0  0  0  0
 13 10  1  6  0  0  0
 13  9  1  0  0  0  0
 14 13  1  0  0  0  0
 16 18  1  0  0  0  0
 17 20  1  0  0  0  0
 18 20  1  0  0  0  0
 18 23  1  1  0  0  0
 19 17  1  0  0  0  0
 19 16  1  0  0  0  0
 20 15  1  6  0  0  0
 22 16  1  0  0  0  0
 22 21  1  0  0  0  0
 24 28  1  0  0  0  0
 25 23  1  6  0  0  0
 25 24  1  0  0  0  0
 25 26  1  0  0  0  0
 26 30  1  6  0  0  0
 26 27  1  0  0  0  0
 27 29  1  1  0  0  0
 28 27  1  0  0  0  0
 31 33  2  0  0  0  0
 32 34  2  0  0  0  0
 33 34  1  0  0  0  0
 33 37  1  0  0  0  0
 35  5  1  6  0  0  0
 35 31  1  0  0  0  0
 35 32  1  0  0  0  0
 37 36  2  0  0  0  0
 37 38  1  0  0  0  0
 40 39  1  0  0  0  0
 41 40  1  0  0  0  0
 42 41  1  0  0  0  0
 44 45  1  0  0  0  0
 45 43  2  0  0  0  0
 45 42  1  0  0  0  0
 46 44  1  0  0  0  0
 47 46  1  0  0  0  0
 48 47  1  1  0  0  0
 49 48  1  0  0  0  0
 49 51  1  0  0  0  0
 50 49  2  0  0  0  0
 52 56  1  6  0  0  0
 52 48  1  0  0  0  0
 53 52  1  0  0  0  0
 54 53  1  0  0  0  0
 55 53  2  0  0  0  0
 56 57  1  0  0  0  0
M  END
>  <MODEL>
2

>  <REMARK>
 VINA RESULT:      -6.3      1.947      3.658
  Name = 
  20 active torsions:
  status: ('A' for Active; 'I' for Inactive)
    1  A    between atoms: C_2  and  C_10
    2  A    between atoms: C_2  and  C_29
    3  A    between atoms: C_2  and  C_51
    4  A    between atoms: N_3  and  C_31
    5  A    between atoms: N_4  and  C_36
    6  A    between atoms: O_7  and  C_51
    7  A    between atoms: C_8  and  C_51
    8  A    between atoms: C_13  and  C_52
    9  A    between atoms: C_13  and  C_55
   10  A    between atoms: C_14  and  C_38
   11  A    between atoms: C_16  and  C_38
   12  A    between atoms: C_21  and  C_41
   13  A    between atoms: C_24  and  C_39
   14  A    between atoms: C_24  and  C_53
   15  A    between atoms: C_29  and  C_31
   16  A    between atoms: C_33  and  C_40
   17  A    between atoms: C_33  and  C_57
   18  A    between atoms: C_35  and  C_47
   19  A    between atoms: C_39  and  C_52
   20  A    between atoms: C_48  and  C_54
                            x       y       z     vdW  Elec       q    Type
                         _______ _______ _______ _____ _____    ______ ____

>  <TORSDO>
F 20

$$$$
=
 OpenBabel11052411283D

 57 62  0  0  1  0  0  0  0  0999 V2000
  162.8400  207.4910  150.5990 N   0  0  0  0  0  2  0  0  0  0  0  0
  161.2200  208.9670  151.4310 C   0  0  1  0  0  3  0  0  0  0  0  0
  160.8200  209.8460  152.5240 N   0  0  0  0  0  0  0  0  0  0  0  0
  162.1970  209.6670  150.5780 C   0  0  1  0  0  3  0  0  0  0  0  0
  160.5220  211.0880  152.2450 C   0  0  0  0  0  0  0  0  0  0  0  0
  162.7370  208.6150  149.7430 N   0  0  0  0  0  2  0  0  0  0  0  0
  160.8010  211.6080  150.9200 N   0  0  0  0  0  2  0  0  0  0  0  0
  161.4270  210.7740  149.8780 C   0  0  1  0  0  3  0  0  0  0  0  0
  162.0160  207.7550  151.7930 C   0  0  1  0  0  3  0  0  0  0  0  0
  161.8780  205.2580  151.9880 C   0  0  0  0  0  2  0  0  0  0  0  0
  160.2510  205.3710  150.2970 N   0  0  0  0  0  0  0  0  0  0  0  0
  161.3870  204.5960  150.7050 C   0  0  2  0  0  3  0  0  0  0  0  0
  161.0980  206.5680  152.0850 C   0  0  2  0  0  3  0  0  0  0  0  0
  160.0830  206.4200  151.0060 C   0  0  0  0  0  3  0  0  0  0  0  0
  160.9680  203.1590  150.9690 C   0  0  0  0  0  2  0  0  0  0  0  0
  160.2770  202.0910  148.0070 N   0  0  0  0  0  0  0  0  0  0  0  0
  160.9340  200.8800  149.9930 C   0  0  0  0  0  2  0  0  0  0  0  0
  161.5180  202.6540  148.5360 C   0  0  2  0  0  3  0  0  0  0  0  0
  159.8910  200.9960  148.8970 C   0  0  0  0  0  2  0  0  0  0  0  0
  161.6540  202.2060  149.9890 C   0  0  1  0  0  3  0  0  0  0  0  0
  161.3280  200.4150  146.7010 O   0  0  0  0  0  1  0  0  0  0  0  0
  160.5200  201.5570  146.6640 C   0  0  0  0  0  2  0  0  0  0  0  0
  161.5640  204.1710  148.3170 C   0  0  0  0  0  2  0  0  0  0  0  0
  160.6000  205.9340  146.9080 O   0  0  0  0  0  0  0  0  0  0  0  0
  161.0670  204.6140  146.9340 C   0  0  1  0  0  3  0  0  0  0  0  0
  162.0140  204.4010  145.7640 C   0  0  1  0  0  3  0  0  0  0  0  0
  161.4890  205.3820  144.7580 C   0  0  2  0  0  3  0  0  0  0  0  0
  160.5360  206.2690  145.5430 C   0  0  0  0  0  2  0  0  0  0  0  0
  160.7780  204.7020  143.7690 O   0  0  0  0  0  1  0  0  0  0  0  0
  163.4550  204.7730  146.0830 C   0  0  0  0  0  1  0  0  0  0  0  0
  158.9320  211.4220  154.1050 C   0  0  0  0  0  3  0  0  0  0  0  0
  159.4730  213.2720  152.8050 C   0  0  0  0  0  3  0  0  0  0  0  0
  157.8850  212.2210  153.9950 C   0  0  0  0  0  0  0  0  0  0  0  0
  158.2100  213.3810  153.1850 C   0  0  0  0  0  3  0  0  0  0  0  0
  160.0790  212.0120  153.3470 C   0  0  2  0  0  3  0  0  0  0  0  0
  155.5710  212.6360  154.2510 O   0  0  0  0  0  0  0  0  0  0  0  0
  156.5740  211.9600  154.6020 C   0  0  0  0  0  0  0  0  0  0  0  0
  156.4210  210.9370  155.5830 N   0  0  0  0  0  1  0  0  0  0  0  0
  162.3660  211.6140  149.0320 C   0  0  0  0  0  2  0  0  0  0  0  0
  161.6650  212.8770  148.5700 C   0  0  0  0  0  2  0  0  0  0  0  0
  160.7920  212.5550  147.3720 C   0  0  0  0  0  2  0  0  0  0  0  0
  161.1160  213.4730  146.2030 C   0  0  0  0  0  2  0  0  0  0  0  0
  159.9230  211.9570  144.8070 O   0  0  0  0  0  0  0  0  0  0  0  0
  159.9200  214.1780  144.0830 N   0  0  0  0  0  2  0  0  0  0  0  0
  160.2980  213.1460  144.9950 C   0  0  0  0  0  0  0  0  0  0  0  0
  159.0980  213.9070  142.9160 C   0  0  0  0  0  2  0  0  0  0  0  0
  159.9630  213.9580  141.6660 C   0  0  0  0  0  2  0  0  0  0  0  0
  160.0440  212.6120  140.9460 C   0  0  2  0  0  3  0  0  0  0  0  0
  161.2230  211.7860  141.3630 C   0  0  0  0  0  0  0  0  0  0  0  0
  161.3290  210.4490  140.9890 O   0  0  0  0  0  0  0  0  0  0  0  0
  162.1310  212.3100  142.0570 O   0  0  0  0  0  1  0  0  0  0  0  0
  159.8090  212.7130  139.4290 C   0  0  2  0  0  3  0  0  0  0  0  0
  158.6140  211.9540  138.9320 C   0  0  0  0  0  0  0  0  0  0  0  0
  158.6780  211.3430  137.8340 O   0  0  0  0  0  0  0  0  0  0  0  0
  157.4490  211.8910  139.6870 O   0  0  0  0  0  1  0  0  0  0  0  0
  160.9690  212.5560  138.6380 O   0  0  0  0  0  0  0  0  0  0  0  0
  161.3900  213.7630  138.3090 O   0  0  0  0  0  1  0  0  0  0  0  0
  2  9  1  0  0  0  0
  2  3  1  1  0  0  0
  4  6  1  6  0  0  0
  4  2  1  0  0  0  0
  5  3  2  0  0  0  0
  6  1  1  0  0  0  0
  7  5  1  0  0  0  0
  8 39  1  1  0  0  0
  8  4  1  0  0  0  0
  8  7  1  0  0  0  0
  9  1  1  6  0  0  0
  9 13  1  0  0  0  0
 10 13  1  0  0  0  0
 11 12  1  0  0  0  0
 11 14  2  0  0  0  0
 12 15  1  1  0  0  0
 12 10  1  0  0  0  0
 13 14  1  6  0  0  0
 16 18  1  0  0  0  0
 16 19  1  0  0  0  0
 18 23  1  1  0  0  0
 18 20  1  0  0  0  0
 19 17  1  0  0  0  0
 20 17  1  0  0  0  0
 20 15  1  1  0  0  0
 22 21  1  0  0  0  0
 22 16  1  0  0  0  0
 24 25  1  0  0  0  0
 25 23  1  1  0  0  0
 26 30  1  1  0  0  0
 26 25  1  0  0  0  0
 27 29  1  6  0  0  0
 27 28  1  0  0  0  0
 27 26  1  0  0  0  0
 28 24  1  0  0  0  0
 32 34  2  0  0  0  0
 32 35  1  0  0  0  0
 33 31  2  0  0  0  0
 33 37  1  0  0  0  0
 34 33  1  0  0  0  0
 35  5  1  6  0  0  0
 35 31  1  0  0  0  0
 36 37  2  0  0  0  0
 37 38  1  0  0  0  0
 40 39  1  0  0  0  0
 41 40  1  0  0  0  0
 42 41  1  0  0  0  0
 43 45  2  0  0  0  0
 44 45  1  0  0  0  0
 45 42  1  0  0  0  0
 46 44  1  0  0  0  0
 47 46  1  0  0  0  0
 48 49  1  0  0  0  0
 48 47  1  6  0  0  0
 49 51  1  0  0  0  0
 50 49  2  0  0  0  0
 52 56  1  6  0  0  0
 52 48  1  0  0  0  0
 53 52  1  0  0  0  0
 53 55  1  0  0  0  0
 54 53  2  0  0  0  0
 57 56  1  0  0  0  0
M  END
>  <MODEL>
3

>  <REMARK>
 VINA RESULT:      -6.2      0.944      1.887
  Name = 
  20 active torsions:
  status: ('A' for Active; 'I' for Inactive)
    1  A    between atoms: C_2  and  C_10
    2  A    between atoms: C_2  and  C_29
    3  A    between atoms: C_2  and  C_51
    4  A    between atoms: N_3  and  C_31
    5  A    between atoms: N_4  and  C_36
    6  A    between atoms: O_7  and  C_51
    7  A    between atoms: C_8  and  C_51
    8  A    between atoms: C_13  and  C_52
    9  A    between atoms: C_13  and  C_55
   10  A    between atoms: C_14  and  C_38
   11  A    between atoms: C_16  and  C_38
   12  A    between atoms: C_21  and  C_41
   13  A    between atoms: C_24  and  C_39
   14  A    between atoms: C_24  and  C_53
   15  A    between atoms: C_29  and  C_31
   16  A    between atoms: C_33  and  C_40
   17  A    between atoms: C_33  and  C_57
   18  A    between atoms: C_35  and  C_47
   19  A    between atoms: C_39  and  C_52
   20  A    between atoms: C_48  and  C_54
                            x       y       z     vdW  Elec       q    Type
                         _______ _______ _______ _____ _____    ______ ____

>  <TORSDO>
F 20

$$$$
=
 OpenBabel11052411283D

 57 62  0  0  1  0  0  0  0  0999 V2000
  162.3950  210.5220  150.5490 N   0  0  0  0  0  2  0  0  0  0  0  0
  160.8410  210.4410  152.3030 C   0  0  1  0  0  3  0  0  0  0  0  0
  160.6040  210.6260  153.7290 N   0  0  0  0  0  0  0  0  0  0  0  0
  160.8280  211.7540  151.6340 C   0  0  1  0  0  3  0  0  0  0  0  0
  159.6390  211.4270  154.1010 C   0  0  0  0  0  0  0  0  0  0  0  0
  161.3720  211.4750  150.3220 N   0  0  0  0  0  2  0  0  0  0  0  0
  158.9860  212.2620  153.1120 N   0  0  0  0  0  2  0  0  0  0  0  0
  159.3910  212.2420  151.6940 C   0  0  1  0  0  3  0  0  0  0  0  0
  162.1970  209.9600  151.8970 C   0  0  1  0  0  3  0  0  0  0  0  0
  162.6350  207.9540  150.4570 C   0  0  0  0  0  2  0  0  0  0  0  0
  160.4310  207.3080  150.9540 N   0  0  0  0  0  0  0  0  0  0  0  0
  161.3580  207.3690  149.8610 C   0  0  2  0  0  3  0  0  0  0  0  0
  162.2410  208.4320  151.8520 C   0  0  2  0  0  3  0  0  0  0  0  0
  160.8730  207.8680  152.0140 C   0  0  0  0  0  3  0  0  0  0  0  0
  161.6100  205.9730  149.3150 C   0  0  0  0  0  2  0  0  0  0  0  0
  162.2180  205.2100  146.2430 N   0  0  0  0  0  0  0  0  0  0  0  0
  160.7760  206.9100  147.1760 C   0  0  0  0  0  2  0  0  0  0  0  0
  161.2950  204.5980  147.1970 C   0  0  2  0  0  3  0  0  0  0  0  0
  161.9220  206.6420  146.2190 C   0  0  0  0  0  2  0  0  0  0  0  0
  160.7390  205.7070  148.0860 C   0  0  1  0  0  3  0  0  0  0  0  0
  160.6180  204.4740  144.6570 O   0  0  0  0  0  1  0  0  0  0  0  0
  161.9830  204.6470  144.9100 C   0  0  0  0  0  2  0  0  0  0  0  0
  161.9710  203.4430  147.9440 C   0  0  0  0  0  2  0  0  0  0  0  0
  161.6230  201.0530  148.3750 O   0  0  0  0  0  0  0  0  0  0  0  0
  161.0100  202.3120  148.3370 C   0  0  1  0  0  3  0  0  0  0  0  0
  160.2030  202.5080  149.6100 C   0  0  1  0  0  3  0  0  0  0  0  0
  159.8370  201.0970  149.9640 C   0  0  2  0  0  3  0  0  0  0  0  0
  160.7220  200.2330  149.0800 C   0  0  0  0  0  2  0  0  0  0  0  0
  158.4990  200.8660  149.6440 O   0  0  0  0  0  1  0  0  0  0  0  0
  161.0190  203.0890  150.7550 C   0  0  0  0  0  1  0  0  0  0  0  0
  157.9140  211.3340  155.8660 C   0  0  0  0  0  3  0  0  0  0  0  0
  159.4750  213.0540  155.9730 C   0  0  0  0  0  3  0  0  0  0  0  0
  157.3520  212.4270  156.3520 C   0  0  0  0  0  0  0  0  0  0  0  0
  158.3170  213.5100  156.4250 C   0  0  0  0  0  3  0  0  0  0  0  0
  159.3530  211.6160  155.5650 C   0  0  2  0  0  3  0  0  0  0  0  0
  155.3360  213.6270  156.6450 O   0  0  0  0  0  0  0  0  0  0  0  0
  155.9430  212.5290  156.7510 C   0  0  0  0  0  0  0  0  0  0  0  0
  155.2490  211.3890  157.2510 N   0  0  0  0  0  1  0  0  0  0  0  0
  159.2830  213.6350  151.1010 C   0  0  0  0  0  2  0  0  0  0  0  0
  158.6070  213.5760  149.7450 C   0  0  0  0  0  2  0  0  0  0  0  0
  159.5470  214.1320  148.6920 C   0  0  0  0  0  2  0  0  0  0  0  0
  158.8050  214.4000  147.3910 C   0  0  0  0  0  2  0  0  0  0  0  0
  160.0800  212.5870  146.5230 O   0  0  0  0  0  0  0  0  0  0  0  0
  158.9820  213.8800  144.9170 N   0  0  0  0  0  2  0  0  0  0  0  0
  159.3390  213.5730  146.2660 C   0  0  0  0  0  0  0  0  0  0  0  0
  159.4520  213.0800  143.7990 C   0  0  0  0  0  2  0  0  0  0  0  0
  158.6790  213.4620  142.5460 C   0  0  0  0  0  2  0  0  0  0  0  0
  159.5820  213.6380  141.3240 C   0  0  2  0  0  3  0  0  0  0  0  0
  158.8250  213.7170  140.0330 C   0  0  0  0  0  0  0  0  0  0  0  0
  157.6040  213.0670  139.8790 O   0  0  0  0  0  1  0  0  0  0  0  0
  159.2990  214.3830  139.0780 O   0  0  0  0  0  0  0  0  0  0  0  0
  160.8010  212.6980  141.3220 C   0  0  2  0  0  3  0  0  0  0  0  0
  162.1240  213.3960  141.4410 C   0  0  0  0  0  0  0  0  0  0  0  0
  162.3530  214.4170  140.7420 O   0  0  0  0  0  0  0  0  0  0  0  0
  163.0870  212.9460  142.3360 O   0  0  0  0  0  1  0  0  0  0  0  0
  160.7640  211.6830  140.3410 O   0  0  0  0  0  0  0  0  0  0  0  0
  161.5140  210.6870  140.7760 O   0  0  0  0  0  1  0  0  0  0  0  0
  2  3  1  1  0  0  0
  3  5  2  0  0  0  0
  4  6  1  6  0  0  0
  4  8  1  0  0  0  0
  4  2  1  0  0  0  0
  6  1  1  0  0  0  0
  7  5  1  0  0  0  0
  8 39  1  1  0  0  0
  8  7  1  0  0  0  0
  9  1  1  6  0  0  0
  9  2  1  0  0  0  0
 11 14  2  0  0  0  0
 12 15  1  1  0  0  0
 12 10  1  0  0  0  0
 12 11  1  0  0  0  0
 13 10  1  6  0  0  0
 13  9  1  0  0  0  0
 13 14  1  0  0  0  0
 16 18  1  0  0  0  0
 17 20  1  0  0  0  0
 18 23  1  1  0  0  0
 18 20  1  0  0  0  0
 19 16  1  0  0  0  0
 19 17  1  0  0  0  0
 20 15  1  1  0  0  0
 21 22  1  0  0  0  0
 22 16  1  0  0  0  0
 24 28  1  0  0  0  0
 25 23  1  1  0  0  0
 25 24  1  0  0  0  0
 25 26  1  0  0  0  0
 26 27  1  0  0  0  0
 26 30  1  1  0  0  0
 27 29  1  6  0  0  0
 28 27  1  0  0  0  0
 31 33  2  0  0  0  0
 32 34  2  0  0  0  0
 33 34  1  0  0  0  0
 33 37  1  0  0  0  0
 35  5  1  6  0  0  0
 35 31  1  0  0  0  0
 35 32  1  0  0  0  0
 36 37  2  0  0  0  0
 37 38  1  0  0  0  0
 40 39  1  0  0  0  0
 41 40  1  0  0  0  0
 42 41  1  0  0  0  0
 44 45  1  0  0  0  0
 45 43  2  0  0  0  0
 45 42  1  0  0  0  0
 46 44  1  0  0  0  0
 47 46  1  0  0  0  0
 48 47  1  1  0  0  0
 49 48  1  0  0  0  0
 50 49  1  0  0  0  0
 51 49  2  0  0  0  0
 52 56  1  6  0  0  0
 52 48  1  0  0  0  0
 52 53  1  0  0  0  0
 53 55  1  0  0  0  0
 54 53  2  0  0  0  0
 56 57  1  0  0  0  0
M  END
>  <MODEL>
4

>  <REMARK>
 VINA RESULT:      -6.1      1.914      3.422
  Name = 
  20 active torsions:
  status: ('A' for Active; 'I' for Inactive)
    1  A    between atoms: C_2  and  C_10
    2  A    between atoms: C_2  and  C_29
    3  A    between atoms: C_2  and  C_51
    4  A    between atoms: N_3  and  C_31
    5  A    between atoms: N_4  and  C_36
    6  A    between atoms: O_7  and  C_51
    7  A    between atoms: C_8  and  C_51
    8  A    between atoms: C_13  and  C_52
    9  A    between atoms: C_13  and  C_55
   10  A    between atoms: C_14  and  C_38
   11  A    between atoms: C_16  and  C_38
   12  A    between atoms: C_21  and  C_41
   13  A    between atoms: C_24  and  C_39
   14  A    between atoms: C_24  and  C_53
   15  A    between atoms: C_29  and  C_31
   16  A    between atoms: C_33  and  C_40
   17  A    between atoms: C_33  and  C_57
   18  A    between atoms: C_35  and  C_47
   19  A    between atoms: C_39  and  C_52
   20  A    between atoms: C_48  and  C_54
                            x       y       z     vdW  Elec       q    Type
                         _______ _______ _______ _____ _____    ______ ____

>  <TORSDO>
F 20

$$$$
=
 OpenBabel11052411283D

 57 62  0  0  1  0  0  0  0  0999 V2000
  162.8170  210.4760  149.8830 N   0  0  0  0  0  2  0  0  0  0  0  0
  161.1250  210.7130  151.4880 C   0  0  1  0  0  3  0  0  0  0  0  0
  160.7820  211.1260  152.8440 N   0  0  0  0  0  0  0  0  0  0  0  0
  161.2190  211.9050  150.6270 C   0  0  1  0  0  3  0  0  0  0  0  0
  159.8240  212.0020  153.0040 C   0  0  0  0  0  0  0  0  0  0  0  0
  161.8550  211.4100  149.4250 N   0  0  0  0  0  2  0  0  0  0  0  0
  159.2860  212.6890  151.8450 N   0  0  0  0  0  2  0  0  0  0  0  0
  159.8020  212.4360  150.4870 C   0  0  1  0  0  3  0  0  0  0  0  0
  162.4890  210.1380  151.2800 C   0  0  1  0  0  3  0  0  0  0  0  0
  161.6980  207.9480  150.3450 C   0  0  0  0  0  2  0  0  0  0  0  0
  160.5880  207.6510  152.3940 N   0  0  0  0  0  0  0  0  0  0  0  0
  160.3970  207.4730  150.9840 C   0  0  2  0  0  3  0  0  0  0  0  0
  162.4750  208.6210  151.4750 C   0  0  2  0  0  3  0  0  0  0  0  0
  161.6750  208.2600  152.6770 C   0  0  0  0  0  3  0  0  0  0  0  0
  160.1520  206.0060  150.6740 C   0  0  0  0  0  2  0  0  0  0  0  0
  160.7810  202.8830  151.1630 N   0  0  0  0  0  0  0  0  0  0  0  0
  161.5870  204.8420  152.3270 C   0  0  0  0  0  2  0  0  0  0  0  0
  161.3630  203.8170  150.2020 C   0  0  2  0  0  3  0  0  0  0  0  0
  160.9010  203.4980  152.4850 C   0  0  0  0  0  2  0  0  0  0  0  0
  161.4310  205.1900  150.8670 C   0  0  1  0  0  3  0  0  0  0  0  0
  161.2390  200.8600  150.0160 O   0  0  0  0  0  1  0  0  0  0  0  0
  161.5420  201.6300  151.1450 C   0  0  0  0  0  2  0  0  0  0  0  0
  160.5990  203.7770  148.8730 C   0  0  0  0  0  2  0  0  0  0  0  0
  160.9720  203.0620  146.5560 O   0  0  0  0  0  0  0  0  0  0  0  0
  161.5070  203.7760  147.6350 C   0  0  1  0  0  3  0  0  0  0  0  0
  161.9960  205.1280  147.1420 C   0  0  1  0  0  3  0  0  0  0  0  0
  162.3490  204.8270  145.7150 C   0  0  2  0  0  3  0  0  0  0  0  0
  161.7350  203.4640  145.4430 C   0  0  0  0  0  2  0  0  0  0  0  0
  163.7360  204.7420  145.5850 O   0  0  0  0  0  1  0  0  0  0  0  0
  160.9130  206.1960  147.1470 C   0  0  0  0  0  1  0  0  0  0  0  0
  158.3830  211.5130  154.9490 C   0  0  0  0  0  3  0  0  0  0  0  0
  158.7120  213.7440  154.3860 C   0  0  0  0  0  3  0  0  0  0  0  0
  157.2890  212.2100  155.2020 C   0  0  0  0  0  0  0  0  0  0  0  0
  157.4820  213.6070  154.8550 C   0  0  0  0  0  3  0  0  0  0  0  0
  159.4280  212.4260  154.3910 C   0  0  2  0  0  3  0  0  0  0  0  0
  155.4360  212.2430  156.6710 O   0  0  0  0  0  0  0  0  0  0  0  0
  156.0500  211.6430  155.7490 C   0  0  0  0  0  0  0  0  0  0  0  0
  155.5270  210.4200  155.2380 N   0  0  0  0  0  1  0  0  0  0  0  0
  159.7990  213.7210  149.6800 C   0  0  0  0  0  2  0  0  0  0  0  0
  159.1410  213.4910  148.3330 C   0  0  0  0  0  2  0  0  0  0  0  0
  160.2130  213.2430  147.2880 C   0  0  0  0  0  2  0  0  0  0  0  0
  159.8970  213.9900  146.0010 C   0  0  0  0  0  2  0  0  0  0  0  0
  158.7540  212.4050  144.6410 O   0  0  0  0  0  0  0  0  0  0  0  0
  160.9040  212.9610  143.9160 N   0  0  0  0  0  2  0  0  0  0  0  0
  159.8110  213.0660  144.8290 C   0  0  0  0  0  0  0  0  0  0  0  0
  160.8460  212.1000  142.7470 C   0  0  0  0  0  2  0  0  0  0  0  0
  161.8280  212.6040  141.7000 C   0  0  0  0  0  2  0  0  0  0  0  0
  162.1340  211.5620  140.6240 C   0  0  2  0  0  3  0  0  0  0  0  0
  163.0540  212.0660  139.5530 C   0  0  0  0  0  0  0  0  0  0  0  0
  163.2690  211.3330  138.3900 O   0  0  0  0  0  0  0  0  0  0  0  0
  163.6340  213.1710  139.7070 O   0  0  0  0  0  1  0  0  0  0  0  0
  160.8870  210.8100  140.1270 C   0  0  2  0  0  3  0  0  0  0  0  0
  161.1370  209.3810  139.7390 C   0  0  0  0  0  0  0  0  0  0  0  0
  160.3130  208.7860  138.9980 O   0  0  0  0  0  0  0  0  0  0  0  0
  162.2830  208.7200  140.1630 O   0  0  0  0  0  1  0  0  0  0  0  0
  160.0860  211.5300  139.2130 O   0  0  0  0  0  0  0  0  0  0  0  0
  160.2070  210.9440  138.0360 O   0  0  0  0  0  1  0  0  0  0  0  0
  2  3  1  1  0  0  0
  3  5  2  0  0  0  0
  4  6  1  6  0  0  0
  4  2  1  0  0  0  0
  6  1  1  0  0  0  0
  7  5  1  0  0  0  0
  8 39  1  6  0  0  0
  8  4  1  0  0  0  0
  8  7  1  0  0  0  0
  9  1  1  6  0  0  0
  9 13  1  0  0  0  0
  9  2  1  0  0  0  0
 10 12  1  0  0  0  0
 11 14  2  0  0  0  0
 12 15  1  1  0  0  0
 12 11  1  0  0  0  0
 13 10  1  6  0  0  0
 13 14  1  0  0  0  0
 16 19  1  0  0  0  0
 17 19  1  0  0  0  0
 18 23  1  6  0  0  0
 18 20  1  0  0  0  0
 18 16  1  0  0  0  0
 20 15  1  1  0  0  0
 20 17  1  0  0  0  0
 21 22  1  0  0  0  0
 22 16  1  0  0  0  0
 24 25  1  0  0  0  0
 25 23  1  1  0  0  0
 26 30  1  6  0  0  0
 26 25  1  0  0  0  0
 27 29  1  1  0  0  0
 27 26  1  0  0  0  0
 28 27  1  0  0  0  0
 28 24  1  0  0  0  0
 31 33  2  0  0  0  0
 32 35  1  0  0  0  0
 32 34  2  0  0  0  0
 33 37  1  0  0  0  0
 34 33  1  0  0  0  0
 35  5  1  6  0  0  0
 35 31  1  0  0  0  0
 37 36  2  0  0  0  0
 38 37  1  0  0  0  0
 40 39  1  0  0  0  0
 41 40  1  0  0  0  0
 42 41  1  0  0  0  0
 43 45  2  0  0  0  0
 44 45  1  0  0  0  0
 45 42  1  0  0  0  0
 46 44  1  0  0  0  0
 47 46  1  0  0  0  0
 48 47  1  6  0  0  0
 49 51  1  0  0  0  0
 49 48  1  0  0  0  0
 50 49  2  0  0  0  0
 52 56  1  6  0  0  0
 52 48  1  0  0  0  0
 53 52  1  0  0  0  0
 53 55  1  0  0  0  0
 54 53  2  0  0  0  0
 57 56  1  0  0  0  0
M  END
>  <MODEL>
5

>  <REMARK>
 VINA RESULT:      -6.0      1.698      2.730
  Name = 
  20 active torsions:
  status: ('A' for Active; 'I' for Inactive)
    1  A    between atoms: C_2  and  C_10
    2  A    between atoms: C_2  and  C_29
    3  A    between atoms: C_2  and  C_51
    4  A    between atoms: N_3  and  C_31
    5  A    between atoms: N_4  and  C_36
    6  A    between atoms: O_7  and  C_51
    7  A    between atoms: C_8  and  C_51
    8  A    between atoms: C_13  and  C_52
    9  A    between atoms: C_13  and  C_55
   10  A    between atoms: C_14  and  C_38
   11  A    between atoms: C_16  and  C_38
   12  A    between atoms: C_21  and  C_41
   13  A    between atoms: C_24  and  C_39
   14  A    between atoms: C_24  and  C_53
   15  A    between atoms: C_29  and  C_31
   16  A    between atoms: C_33  and  C_40
   17  A    between atoms: C_33  and  C_57
   18  A    between atoms: C_35  and  C_47
   19  A    between atoms: C_39  and  C_52
   20  A    between atoms: C_48  and  C_54
                            x       y       z     vdW  Elec       q    Type
                         _______ _______ _______ _____ _____    ______ ____

>  <TORSDO>
F 20

$$$$
=
 OpenBabel11052411283D

 57 62  0  0  1  0  0  0  0  0999 V2000
  162.9940  210.2360  149.1090 N   0  0  0  0  0  2  0  0  0  0  0  0
  161.2600  210.4610  150.6710 C   0  0  1  0  0  3  0  0  0  0  0  0
  160.8990  210.6940  152.0650 N   0  0  0  0  0  0  0  0  0  0  0  0
  161.5750  211.7500  150.0290 C   0  0  1  0  0  3  0  0  0  0  0  0
  160.0690  211.6670  152.3370 C   0  0  0  0  0  0  0  0  0  0  0  0
  162.2040  211.3660  148.7830 N   0  0  0  0  0  2  0  0  0  0  0  0
  159.7060  212.6070  151.2950 N   0  0  0  0  0  2  0  0  0  0  0  0
  160.2610  212.5050  149.9330 C   0  0  1  0  0  3  0  0  0  0  0  0
  162.5370  209.7280  150.4150 C   0  0  1  0  0  3  0  0  0  0  0  0
  163.1240  207.5980  149.2270 C   0  0  0  0  0  2  0  0  0  0  0  0
  160.8310  207.4140  148.7500 N   0  0  0  0  0  0  0  0  0  0  0  0
  162.1170  207.2360  148.1400 C   0  0  2  0  0  3  0  0  0  0  0  0
  162.2940  208.2190  150.3490 C   0  0  2  0  0  3  0  0  0  0  0  0
  160.8990  207.9380  149.9130 C   0  0  0  0  0  3  0  0  0  0  0  0
  162.2910  205.7900  147.7070 C   0  0  0  0  0  2  0  0  0  0  0  0
  161.3950  202.9880  146.3890 N   0  0  0  0  0  0  0  0  0  0  0  0
  160.8080  205.2560  145.7920 C   0  0  0  0  0  2  0  0  0  0  0  0
  160.8700  203.6830  147.5630 C   0  0  2  0  0  3  0  0  0  0  0  0
  161.3740  203.9450  145.2810 C   0  0  0  0  0  2  0  0  0  0  0  0
  160.9490  205.1830  147.2930 C   0  0  1  0  0  3  0  0  0  0  0  0
  160.0830  201.9090  144.7360 O   0  0  0  0  0  1  0  0  0  0  0  0
  160.5220  201.8570  146.0630 C   0  0  0  0  0  2  0  0  0  0  0  0
  161.5840  203.2130  148.8360 C   0  0  0  0  0  2  0  0  0  0  0  0
  160.0050  204.4240  150.2710 O   0  0  0  0  0  0  0  0  0  0  0  0
  161.3550  204.1270  150.0480 C   0  0  1  0  0  3  0  0  0  0  0  0
  161.9910  203.6990  151.3600 C   0  0  1  0  0  3  0  0  0  0  0  0
  161.1610  204.4440  152.3640 C   0  0  2  0  0  3  0  0  0  0  0  0
  159.9600  204.9430  151.5790 C   0  0  0  0  0  2  0  0  0  0  0  0
  161.8820  205.5350  152.8490 O   0  0  0  0  0  1  0  0  0  0  0  0
  161.8500  202.2090  151.6380 C   0  0  0  0  0  1  0  0  0  0  0  0
  158.2980  211.3450  154.0290 C   0  0  0  0  0  3  0  0  0  0  0  0
  159.4360  213.3730  154.0310 C   0  0  0  0  0  3  0  0  0  0  0  0
  157.4810  212.3230  154.3810 C   0  0  0  0  0  0  0  0  0  0  0  0
  158.1800  213.5960  154.3860 C   0  0  0  0  0  3  0  0  0  0  0  0
  159.6560  211.9150  153.7630 C   0  0  2  0  0  3  0  0  0  0  0  0
  155.2010  212.9320  154.2390 O   0  0  0  0  0  0  0  0  0  0  0  0
  156.0610  212.1420  154.7080 C   0  0  0  0  0  0  0  0  0  0  0  0
  155.6450  211.0690  155.5490 N   0  0  0  0  0  1  0  0  0  0  0  0
  160.4890  213.8890  149.3570 C   0  0  0  0  0  2  0  0  0  0  0  0
  159.7680  214.0300  148.0300 C   0  0  0  0  0  2  0  0  0  0  0  0
  160.7770  213.9490  146.9000 C   0  0  0  0  0  2  0  0  0  0  0  0
  160.1530  214.3880  145.5840 C   0  0  0  0  0  2  0  0  0  0  0  0
  160.0190  212.2440  144.5590 O   0  0  0  0  0  0  0  0  0  0  0  0
  161.1870  213.8530  143.3330 N   0  0  0  0  0  2  0  0  0  0  0  0
  160.4500  213.4250  144.4800 C   0  0  0  0  0  0  0  0  0  0  0  0
  161.4660  212.9570  142.2230 C   0  0  0  0  0  2  0  0  0  0  0  0
  160.5640  213.3100  141.0510 C   0  0  0  0  0  2  0  0  0  0  0  0
  160.8270  212.4410  139.8200 C   0  0  2  0  0  3  0  0  0  0  0  0
  159.5770  211.8700  139.2200 C   0  0  0  0  0  0  0  0  0  0  0  0
  158.5140  211.4720  140.0240 O   0  0  0  0  0  1  0  0  0  0  0  0
  159.4890  211.7530  137.9710 O   0  0  0  0  0  0  0  0  0  0  0  0
  161.9860  211.4470  140.0070 C   0  0  2  0  0  3  0  0  0  0  0  0
  163.0340  211.5050  138.9340 C   0  0  0  0  0  0  0  0  0  0  0  0
  162.6860  211.6300  137.7320 O   0  0  0  0  0  0  0  0  0  0  0  0
  164.3850  211.4530  139.2570 O   0  0  0  0  0  1  0  0  0  0  0  0
  161.5930  210.1390  140.3670 O   0  0  0  0  0  0  0  0  0  0  0  0
  161.9600  209.3330  139.3880 O   0  0  0  0  0  1  0  0  0  0  0  0
  2  3  1  1  0  0  0
  3  5  2  0  0  0  0
  4  6  1  6  0  0  0
  4  2  1  0  0  0  0
  6  1  1  0  0  0  0
  7  5  1  0  0  0  0
  8 39  1  1  0  0  0
  8  4  1  0  0  0  0
  8  7  1  0  0  0  0
  9  1  1  6  0  0  0
  9  2  1  0  0  0  0
 11 14  2  0  0  0  0
 12 15  1  1  0  0  0
 12 11  1  0  0  0  0
 12 10  1  0  0  0  0
 13 10  1  6  0  0  0
 13  9  1  0  0  0  0
 14 13  1  0  0  0  0
 16 18  1  0  0  0  0
 17 20  1  0  0  0  0
 18 23  1  1  0  0  0
 19 17  1  0  0  0  0
 19 16  1  0  0  0  0
 20 18  1  0  0  0  0
 20 15  1  6  0  0  0
 21 22  1  0  0  0  0
 22 16  1  0  0  0  0
 24 28  1  0  0  0  0
 25 23  1  6  0  0  0
 25 24  1  0  0  0  0
 25 26  1  0  0  0  0
 26 30  1  1  0  0  0
 26 27  1  0  0  0  0
 27 29  1  6  0  0  0
 28 27  1  0  0  0  0
 31 33  2  0  0  0  0
 32 34  2  0  0  0  0
 33 34  1  0  0  0  0
 33 37  1  0  0  0  0
 35  5  1  6  0  0  0
 35 31  1  0  0  0  0
 35 32  1  0  0  0  0
 36 37  2  0  0  0  0
 37 38  1  0  0  0  0
 40 39  1  0  0  0  0
 41 40  1  0  0  0  0
 42 41  1  0  0  0  0
 44 45  1  0  0  0  0
 45 43  2  0  0  0  0
 45 42  1  0  0  0  0
 46 44  1  0  0  0  0
 47 46  1  0  0  0  0
 48 52  1  0  0  0  0
 48 47  1  1  0  0  0
 49 48  1  0  0  0  0
 49 50  1  0  0  0  0
 51 49  2  0  0  0  0
 52 53  1  6  0  0  0
 52 56  1  0  0  0  0
 53 55  1  0  0  0  0
 54 53  2  0  0  0  0
 57 56  1  0  0  0  0
M  END
>  <MODEL>
6

>  <REMARK>
 VINA RESULT:      -5.3      1.740      3.080
  Name = 
  20 active torsions:
  status: ('A' for Active; 'I' for Inactive)
    1  A    between atoms: C_2  and  C_10
    2  A    between atoms: C_2  and  C_29
    3  A    between atoms: C_2  and  C_51
    4  A    between atoms: N_3  and  C_31
    5  A    between atoms: N_4  and  C_36
    6  A    between atoms: O_7  and  C_51
    7  A    between atoms: C_8  and  C_51
    8  A    between atoms: C_13  and  C_52
    9  A    between atoms: C_13  and  C_55
   10  A    between atoms: C_14  and  C_38
   11  A    between atoms: C_16  and  C_38
   12  A    between atoms: C_21  and  C_41
   13  A    between atoms: C_24  and  C_39
   14  A    between atoms: C_24  and  C_53
   15  A    between atoms: C_29  and  C_31
   16  A    between atoms: C_33  and  C_40
   17  A    between atoms: C_33  and  C_57
   18  A    between atoms: C_35  and  C_47
   19  A    between atoms: C_39  and  C_52
   20  A    between atoms: C_48  and  C_54
                            x       y       z     vdW  Elec       q    Type
                         _______ _______ _______ _____ _____    ______ ____

>  <TORSDO>
F 20

$$$$
=
 OpenBabel11052411283D

 57 62  0  0  1  0  0  0  0  0999 V2000
  162.6510  210.1350  149.9850 N   0  0  0  0  0  2  0  0  0  0  0  0
  161.1360  210.0100  151.7700 C   0  0  1  0  0  3  0  0  0  0  0  0
  160.9420  210.1070  153.2120 N   0  0  0  0  0  0  0  0  0  0  0  0
  161.1750  211.3650  151.1920 C   0  0  1  0  0  3  0  0  0  0  0  0
  160.0280  210.9270  153.6620 C   0  0  0  0  0  0  0  0  0  0  0  0
  161.6730  211.1510  149.8510 N   0  0  0  0  0  2  0  0  0  0  0  0
  159.3960  211.8600  152.7500 N   0  0  0  0  0  2  0  0  0  0  0  0
  159.7660  211.9190  151.3240 C   0  0  1  0  0  3  0  0  0  0  0  0
  162.4560  209.4910  151.2970 C   0  0  1  0  0  3  0  0  0  0  0  0
  161.9630  207.5860  149.7430 C   0  0  0  0  0  2  0  0  0  0  0  0
  160.3820  206.8960  151.3380 N   0  0  0  0  0  0  0  0  0  0  0  0
  160.5520  207.0330  149.9200 C   0  0  2  0  0  3  0  0  0  0  0  0
  162.4210  207.9700  151.1470 C   0  0  2  0  0  3  0  0  0  0  0  0
  161.3520  207.3880  152.0060 C   0  0  0  0  0  3  0  0  0  0  0  0
  160.4170  205.6780  149.2470 C   0  0  0  0  0  2  0  0  0  0  0  0
  160.6030  202.5540  150.0200 N   0  0  0  0  0  0  0  0  0  0  0  0
  161.4710  204.5010  151.1590 C   0  0  0  0  0  2  0  0  0  0  0  0
  161.4150  203.3410  149.0940 C   0  0  2  0  0  3  0  0  0  0  0  0
  160.6160  203.2570  151.3040 C   0  0  0  0  0  2  0  0  0  0  0  0
  161.5550  204.7460  149.6720 C   0  0  1  0  0  3  0  0  0  0  0  0
  161.3400  200.5620  148.9680 O   0  0  0  0  0  1  0  0  0  0  0  0
  161.2070  201.2290  150.1910 C   0  0  0  0  0  2  0  0  0  0  0  0
  160.8370  203.2760  147.6750 C   0  0  0  0  0  2  0  0  0  0  0  0
  162.5690  204.6010  146.5510 O   0  0  0  0  0  0  0  0  0  0  0  0
  161.1960  204.4880  146.8040 C   0  0  1  0  0  3  0  0  0  0  0  0
  160.4370  204.6410  145.4950 C   0  0  1  0  0  3  0  0  0  0  0  0
  161.3600  205.5210  144.7050 C   0  0  2  0  0  3  0  0  0  0  0  0
  162.6660  205.5110  145.4820 C   0  0  0  0  0  2  0  0  0  0  0  0
  160.8520  206.8200  144.6710 O   0  0  0  0  0  1  0  0  0  0  0  0
  160.2690  203.3300  144.7420 C   0  0  0  0  0  1  0  0  0  0  0  0
  158.3200  211.0220  155.4430 C   0  0  0  0  0  3  0  0  0  0  0  0
  160.2030  212.3640  155.6840 C   0  0  0  0  0  3  0  0  0  0  0  0
  157.9950  212.1550  156.0410 C   0  0  0  0  0  0  0  0  0  0  0  0
  159.1640  213.0030  156.1980 C   0  0  0  0  0  3  0  0  0  0  0  0
  159.7860  211.0290  155.1430 C   0  0  2  0  0  3  0  0  0  0  0  0
  155.8950  211.6310  156.9930 O   0  0  0  0  0  0  0  0  0  0  0  0
  156.6380  212.5060  156.4750 C   0  0  0  0  0  0  0  0  0  0  0  0
  156.1520  213.8380  156.3260 N   0  0  0  0  0  1  0  0  0  0  0  0
  159.7160  213.3530  150.8300 C   0  0  0  0  0  2  0  0  0  0  0  0
  159.0800  213.4110  149.4550 C   0  0  0  0  0  2  0  0  0  0  0  0
  159.8430  214.3970  148.5910 C   0  0  0  0  0  2  0  0  0  0  0  0
  159.4080  214.2940  147.1370 C   0  0  0  0  0  2  0  0  0  0  0  0
  161.7440  214.3420  146.6790 O   0  0  0  0  0  0  0  0  0  0  0  0
  160.3700  214.2040  144.7950 N   0  0  0  0  0  2  0  0  0  0  0  0
  160.5770  214.2930  146.2050 C   0  0  0  0  0  0  0  0  0  0  0  0
  161.4810  214.1670  143.8580 C   0  0  0  0  0  2  0  0  0  0  0  0
  160.9680  214.4530  142.4550 C   0  0  0  0  0  2  0  0  0  0  0  0
  161.3890  213.3870  141.4420 C   0  0  2  0  0  3  0  0  0  0  0  0
  162.5960  213.7750  140.6410 C   0  0  0  0  0  0  0  0  0  0  0  0
  162.6310  213.5850  139.2630 O   0  0  0  0  0  0  0  0  0  0  0  0
  163.5870  214.2830  141.2240 O   0  0  0  0  0  1  0  0  0  0  0  0
  160.2140  212.8120  140.6330 C   0  0  2  0  0  3  0  0  0  0  0  0
  160.3530  211.3590  140.2820 C   0  0  0  0  0  0  0  0  0  0  0  0
  159.5090  210.8210  139.5200 O   0  0  0  0  0  0  0  0  0  0  0  0
  161.4200  210.6110  140.7640 O   0  0  0  0  0  1  0  0  0  0  0  0
  159.7710  213.6280  139.5690 O   0  0  0  0  0  0  0  0  0  0  0  0
  158.6220  214.1660  139.9350 O   0  0  0  0  0  1  0  0  0  0  0  0
  2  3  1  1  0  0  0
  3  5  2  0  0  0  0
  4  6  1  6  0  0  0
  4  8  1  0  0  0  0
  4  2  1  0  0  0  0
  6  1  1  0  0  0  0
  7  5  1  0  0  0  0
  8 39  1  1  0  0  0
  8  7  1  0  0  0  0
  9  1  1  6  0  0  0
  9  2  1  0  0  0  0
 10 12  1  0  0  0  0
 11 14  2  0  0  0  0
 12 15  1  6  0  0  0
 12 11  1  0  0  0  0
 13 10  1  6  0  0  0
 13  9  1  0  0  0  0
 13 14  1  0  0  0  0
 16 22  1  0  0  0  0
 16 19  1  0  0  0  0
 17 19  1  0  0  0  0
 18 23  1  6  0  0  0
 18 20  1  0  0  0  0
 18 16  1  0  0  0  0
 20 15  1  6  0  0  0
 20 17  1  0  0  0  0
 21 22  1  0  0  0  0
 24 25  1  0  0  0  0
 25 23  1  6  0  0  0
 26 30  1  6  0  0  0
 26 25  1  0  0  0  0
 27 29  1  1  0  0  0
 27 28  1  0  0  0  0
 27 26  1  0  0  0  0
 28 24  1  0  0  0  0
 31 33  2  0  0  0  0
 32 34  2  0  0  0  0
 33 34  1  0  0  0  0
 33 37  1  0  0  0  0
 35  5  1  6  0  0  0
 35 31  1  0  0  0  0
 35 32  1  0  0  0  0
 37 36  2  0  0  0  0
 38 37  1  0  0  0  0
 40 39  1  0  0  0  0
 41 40  1  0  0  0  0
 42 41  1  0  0  0  0
 44 45  1  0  0  0  0
 45 43  2  0  0  0  0
 45 42  1  0  0  0  0
 46 44  1  0  0  0  0
 47 46  1  0  0  0  0
 48 47  1  6  0  0  0
 49 51  1  0  0  0  0
 49 48  1  0  0  0  0
 50 49  2  0  0  0  0
 52 56  1  6  0  0  0
 52 48  1  0  0  0  0
 53 52  1  0  0  0  0
 53 55  1  0  0  0  0
 54 53  2  0  0  0  0
 56 57  1  0  0  0  0
M  END
>  <MODEL>
7

>  <REMARK>
 VINA RESULT:      -4.9      1.683      2.714
  Name = 
  20 active torsions:
  status: ('A' for Active; 'I' for Inactive)
    1  A    between atoms: C_2  and  C_10
    2  A    between atoms: C_2  and  C_29
    3  A    between atoms: C_2  and  C_51
    4  A    between atoms: N_3  and  C_31
    5  A    between atoms: N_4  and  C_36
    6  A    between atoms: O_7  and  C_51
    7  A    between atoms: C_8  and  C_51
    8  A    between atoms: C_13  and  C_52
    9  A    between atoms: C_13  and  C_55
   10  A    between atoms: C_14  and  C_38
   11  A    between atoms: C_16  and  C_38
   12  A    between atoms: C_21  and  C_41
   13  A    between atoms: C_24  and  C_39
   14  A    between atoms: C_24  and  C_53
   15  A    between atoms: C_29  and  C_31
   16  A    between atoms: C_33  and  C_40
   17  A    between atoms: C_33  and  C_57
   18  A    between atoms: C_35  and  C_47
   19  A    between atoms: C_39  and  C_52
   20  A    between atoms: C_48  and  C_54
                            x       y       z     vdW  Elec       q    Type
                         _______ _______ _______ _____ _____    ______ ____

>  <TORSDO>
F 20

$$$$
=
 OpenBabel11052411283D

 57 62  0  0  1  0  0  0  0  0999 V2000
  162.8740  209.8700  150.7540 N   0  0  0  0  0  2  0  0  0  0  0  0
  160.9720  211.0140  151.5110 C   0  0  1  0  0  3  0  0  0  0  0  0
  160.4400  212.0300  152.4110 N   0  0  0  0  0  0  0  0  0  0  0  0
  161.5600  211.6710  150.3290 C   0  0  1  0  0  3  0  0  0  0  0  0
  159.7230  212.9980  151.9010 C   0  0  0  0  0  0  0  0  0  0  0  0
  162.3100  210.6130  149.6880 N   0  0  0  0  0  2  0  0  0  0  0  0
  159.6590  213.1550  150.4610 N   0  0  0  0  0  2  0  0  0  0  0  0
  160.3950  212.2580  149.5510 C   0  0  1  0  0  3  0  0  0  0  0  0
  162.1570  210.2380  151.9890 C   0  0  1  0  0  3  0  0  0  0  0  0
  162.1400  207.7300  151.9870 C   0  0  0  0  0  2  0  0  0  0  0  0
  159.7980  207.9000  152.0500 N   0  0  0  0  0  0  0  0  0  0  0  0
  160.8470  207.1520  151.4210 C   0  0  2  0  0  3  0  0  0  0  0  0
  161.7170  208.9850  152.7470 C   0  0  2  0  0  3  0  0  0  0  0  0
  160.2320  208.8760  152.7500 C   0  0  0  0  0  3  0  0  0  0  0  0
  160.7190  205.6790  151.7710 C   0  0  0  0  0  2  0  0  0  0  0  0
  160.6920  203.2050  149.7050 N   0  0  0  0  0  0  0  0  0  0  0  0
  161.9390  203.5200  151.7510 C   0  0  0  0  0  2  0  0  0  0  0  0
  161.4210  204.4700  149.6440 C   0  0  2  0  0  3  0  0  0  0  0  0
  160.9900  202.6020  151.0040 C   0  0  0  0  0  2  0  0  0  0  0  0
  161.8030  204.8590  151.0690 C   0  0  1  0  0  3  0  0  0  0  0  0
  160.1080  201.7170  147.9540 O   0  0  0  0  0  1  0  0  0  0  0  0
  161.1700  202.3170  148.6420 C   0  0  0  0  0  2  0  0  0  0  0  0
  160.6150  205.5250  148.8760 C   0  0  0  0  0  2  0  0  0  0  0  0
  160.0480  206.3920  146.6520 O   0  0  0  0  0  0  0  0  0  0  0  0
  160.6220  205.3250  147.3540 C   0  0  1  0  0  3  0  0  0  0  0  0
  161.9560  204.9730  146.7150 C   0  0  1  0  0  3  0  0  0  0  0  0
  161.7330  205.3820  145.2890 C   0  0  2  0  0  3  0  0  0  0  0  0
  160.4590  206.2100  145.3180 C   0  0  0  0  0  2  0  0  0  0  0  0
  161.5280  204.2480  144.5030 O   0  0  0  0  0  1  0  0  0  0  0  0
  163.1190  205.7850  147.2660 C   0  0  0  0  0  1  0  0  0  0  0  0
  158.9190  213.4970  154.1820 C   0  0  0  0  0  3  0  0  0  0  0  0
  157.7430  214.4160  152.4000 C   0  0  0  0  0  3  0  0  0  0  0  0
  157.6310  213.5580  154.4720 C   0  0  0  0  0  0  0  0  0  0  0  0
  156.8840  214.1300  153.3660 C   0  0  0  0  0  3  0  0  0  0  0  0
  159.1370  214.0460  152.8070 C   0  0  2  0  0  3  0  0  0  0  0  0
  157.7040  212.3550  156.5070 O   0  0  0  0  0  0  0  0  0  0  0  0
  157.0410  213.0980  155.7360 C   0  0  0  0  0  0  0  0  0  0  0  0
  155.7230  213.4940  156.1050 N   0  0  0  0  0  1  0  0  0  0  0  0
  160.9010  213.0340  148.3500 C   0  0  0  0  0  2  0  0  0  0  0  0
  160.3230  212.4570  147.0720 C   0  0  0  0  0  2  0  0  0  0  0  0
  161.1280  212.9560  145.8880 C   0  0  0  0  0  2  0  0  0  0  0  0
  160.2620  213.7920  144.9570 C   0  0  0  0  0  2  0  0  0  0  0  0
  162.0210  214.4520  143.4950 O   0  0  0  0  0  0  0  0  0  0  0  0
  160.1870  213.4560  142.4470 N   0  0  0  0  0  2  0  0  0  0  0  0
  160.8770  213.9340  143.6020 C   0  0  0  0  0  0  0  0  0  0  0  0
  160.7650  213.5440  141.1170 C   0  0  0  0  0  2  0  0  0  0  0  0
  159.8260  212.8920  140.1140 C   0  0  0  0  0  2  0  0  0  0  0  0
  160.5690  212.1260  139.0180 C   0  0  2  0  0  3  0  0  0  0  0  0
  159.8060  210.9450  138.4990 C   0  0  0  0  0  0  0  0  0  0  0  0
  158.6870  210.4630  139.1720 O   0  0  0  0  0  1  0  0  0  0  0  0
  160.1800  210.3850  137.4380 O   0  0  0  0  0  0  0  0  0  0  0  0
  162.0490  211.8660  139.3480 C   0  0  2  0  0  3  0  0  0  0  0  0
  163.0180  212.6840  138.5450 C   0  0  0  0  0  0  0  0  0  0  0  0
  162.5900  213.4200  137.6180 O   0  0  0  0  0  0  0  0  0  0  0  0
  164.3770  212.6630  138.8340 O   0  0  0  0  0  1  0  0  0  0  0  0
  162.3990  210.5030  139.4700 O   0  0  0  0  0  0  0  0  0  0  0  0
  163.0730  210.3680  140.5970 O   0  0  0  0  0  1  0  0  0  0  0  0
  2  9  1  0  0  0  0
  2  3  1  1  0  0  0
  4  6  1  6  0  0  0
  4  2  1  0  0  0  0
  5  3  2  0  0  0  0
  6  1  1  0  0  0  0
  7  5  1  0  0  0  0
  8 39  1  6  0  0  0
  8  4  1  0  0  0  0
  8  7  1  0  0  0  0
  9  1  1  6  0  0  0
  9 13  1  0  0  0  0
 11 14  2  0  0  0  0
 12 15  1  1  0  0  0
 12 10  1  0  0  0  0
 12 11  1  0  0  0  0
 13 10  1  6  0  0  0
 13 14  1  0  0  0  0
 16 19  1  0  0  0  0
 18 23  1  1  0  0  0
 18 16  1  0  0  0  0
 18 20  1  0  0  0  0
 19 17  1  0  0  0  0
 20 17  1  0  0  0  0
 20 15  1  1  0  0  0
 21 22  1  0  0  0  0
 22 16  1  0  0  0  0
 24 25  1  0  0  0  0
 25 23  1  1  0  0  0
 26 30  1  1  0  0  0
 26 25  1  0  0  0  0
 27 29  1  6  0  0  0
 27 28  1  0  0  0  0
 27 26  1  0  0  0  0
 28 24  1  0  0  0  0
 31 33  2  0  0  0  0
 32 35  1  0  0  0  0
 32 34  2  0  0  0  0
 33 37  1  0  0  0  0
 34 33  1  0  0  0  0
 35  5  1  6  0  0  0
 35 31  1  0  0  0  0
 37 38  1  0  0  0  0
 37 36  2  0  0  0  0
 40 39  1  0  0  0  0
 41 40  1  0  0  0  0
 42 41  1  0  0  0  0
 43 45  2  0  0  0  0
 44 45  1  0  0  0  0
 45 42  1  0  0  0  0
 46 44  1  0  0  0  0
 47 46  1  0  0  0  0
 48 52  1  0  0  0  0
 48 47  1  1  0  0  0
 49 48  1  0  0  0  0
 49 50  1  0  0  0  0
 51 49  2  0  0  0  0
 52 53  1  6  0  0  0
 52 56  1  0  0  0  0
 53 55  1  0  0  0  0
 54 53  2  0  0  0  0
 56 57  1  0  0  0  0
M  END
>  <MODEL>
8

>  <REMARK>
 VINA RESULT:      -4.5      1.446      1.979
  Name = 
  20 active torsions:
  status: ('A' for Active; 'I' for Inactive)
    1  A    between atoms: C_2  and  C_10
    2  A    between atoms: C_2  and  C_29
    3  A    between atoms: C_2  and  C_51
    4  A    between atoms: N_3  and  C_31
    5  A    between atoms: N_4  and  C_36
    6  A    between atoms: O_7  and  C_51
    7  A    between atoms: C_8  and  C_51
    8  A    between atoms: C_13  and  C_52
    9  A    between atoms: C_13  and  C_55
   10  A    between atoms: C_14  and  C_38
   11  A    between atoms: C_16  and  C_38
   12  A    between atoms: C_21  and  C_41
   13  A    between atoms: C_24  and  C_39
   14  A    between atoms: C_24  and  C_53
   15  A    between atoms: C_29  and  C_31
   16  A    between atoms: C_33  and  C_40
   17  A    between atoms: C_33  and  C_57
   18  A    between atoms: C_35  and  C_47
   19  A    between atoms: C_39  and  C_52
   20  A    between atoms: C_48  and  C_54
                            x       y       z     vdW  Elec       q    Type
                         _______ _______ _______ _____ _____    ______ ____

>  <TORSDO>
F 20

$$$$
=
 OpenBabel11052411283D

 57 62  0  0  1  0  0  0  0  0999 V2000
  161.7200  209.9490  150.4410 N   0  0  0  0  0  2  0  0  0  0  0  0
  161.5770  210.9810  148.3410 C   0  0  1  0  0  3  0  0  0  0  0  0
  160.7540  211.2420  147.1660 N   0  0  0  0  0  0  0  0  0  0  0  0
  161.1880  211.9050  149.4220 C   0  0  1  0  0  3  0  0  0  0  0  0
  160.5760  212.4840  146.7950 C   0  0  0  0  0  0  0  0  0  0  0  0
  161.8340  211.3530  150.5930 N   0  0  0  0  0  2  0  0  0  0  0  0
  161.0090  213.5570  147.6690 N   0  0  0  0  0  2  0  0  0  0  0  0
  161.6360  213.2860  148.9760 C   0  0  1  0  0  3  0  0  0  0  0  0
  161.3720  209.6740  149.0350 C   0  0  1  0  0  3  0  0  0  0  0  0
  161.4730  207.5220  147.7500 C   0  0  0  0  0  2  0  0  0  0  0  0
  162.5540  206.6270  149.6340 N   0  0  0  0  0  0  0  0  0  0  0  0
  161.5550  206.2990  148.6580 C   0  0  2  0  0  3  0  0  0  0  0  0
  162.2930  208.5990  148.4560 C   0  0  2  0  0  3  0  0  0  0  0  0
  162.9540  207.8370  149.5510 C   0  0  0  0  0  3  0  0  0  0  0  0
  161.9820  205.0720  147.8690 C   0  0  0  0  0  2  0  0  0  0  0  0
  161.5070  202.2540  146.3800 N   0  0  0  0  0  0  0  0  0  0  0  0
  160.8640  204.4920  145.7330 C   0  0  0  0  0  2  0  0  0  0  0  0
  160.7550  202.8790  147.4650 C   0  0  2  0  0  3  0  0  0  0  0  0
  161.5950  203.2360  145.2990 C   0  0  0  0  0  2  0  0  0  0  0  0
  160.7690  204.3880  147.2360 C   0  0  1  0  0  3  0  0  0  0  0  0
  159.6520  201.4330  145.1540 O   0  0  0  0  0  1  0  0  0  0  0  0
  160.7800  201.0750  145.9010 C   0  0  0  0  0  2  0  0  0  0  0  0
  161.2890  202.4240  148.8290 C   0  0  0  0  0  2  0  0  0  0  0  0
  159.7750  203.6790  150.2970 O   0  0  0  0  0  0  0  0  0  0  0  0
  161.1130  203.4670  149.9420 C   0  0  1  0  0  3  0  0  0  0  0  0
  161.9330  203.2660  151.2060 C   0  0  1  0  0  3  0  0  0  0  0  0
  161.1560  204.0640  152.2100 C   0  0  2  0  0  3  0  0  0  0  0  0
  159.8300  204.3580  151.5280 C   0  0  0  0  0  2  0  0  0  0  0  0
  161.8190  205.2650  152.4670 O   0  0  0  0  0  1  0  0  0  0  0  0
  161.9690  201.8180  151.6750 C   0  0  0  0  0  1  0  0  0  0  0  0
  160.3240  212.0990  144.3690 C   0  0  0  0  0  3  0  0  0  0  0  0
  159.8520  214.2270  145.1770 C   0  0  0  0  0  3  0  0  0  0  0  0
  160.6720  213.0100  143.4770 C   0  0  0  0  0  0  0  0  0  0  0  0
  160.3810  214.3450  143.9700 C   0  0  0  0  0  3  0  0  0  0  0  0
  159.7550  212.7840  145.5710 C   0  0  2  0  0  3  0  0  0  0  0  0
  162.4070  212.1560  142.1160 O   0  0  0  0  0  0  0  0  0  0  0  0
  161.2770  212.7090  142.1730 C   0  0  0  0  0  0  0  0  0  0  0  0
  160.5900  213.0280  140.9660 N   0  0  0  0  0  1  0  0  0  0  0  0
  161.2060  214.3320  149.9880 C   0  0  0  0  0  2  0  0  0  0  0  0
  159.7040  214.2740  150.1930 C   0  0  0  0  0  2  0  0  0  0  0  0
  159.3950  214.4160  151.6710 C   0  0  0  0  0  2  0  0  0  0  0  0
  157.8930  214.3980  151.9150 C   0  0  0  0  0  2  0  0  0  0  0  0
  156.3600  214.4150  153.7360 O   0  0  0  0  0  0  0  0  0  0  0  0
  158.6150  214.4530  154.3430 N   0  0  0  0  0  2  0  0  0  0  0  0
  157.5660  214.4330  153.3730 C   0  0  0  0  0  0  0  0  0  0  0  0
  158.3390  214.4530  155.7700 C   0  0  0  0  0  2  0  0  0  0  0  0
  158.8580  213.1620  156.3840 C   0  0  0  0  0  2  0  0  0  0  0  0
  158.6990  211.9590  155.4540 C   0  0  2  0  0  3  0  0  0  0  0  0
  157.2800  211.4890  155.3290 C   0  0  0  0  0  0  0  0  0  0  0  0
  156.4000  211.5780  156.4030 O   0  0  0  0  0  1  0  0  0  0  0  0
  156.8800  211.0120  154.2370 O   0  0  0  0  0  0  0  0  0  0  0  0
  159.7430  210.8550  155.6950 C   0  0  2  0  0  3  0  0  0  0  0  0
  160.8960  210.8700  154.7340 C   0  0  0  0  0  0  0  0  0  0  0  0
  160.6930  210.6280  153.5160 O   0  0  0  0  0  0  0  0  0  0  0  0
  162.1790  211.1800  155.1690 O   0  0  0  0  0  1  0  0  0  0  0  0
  159.2050  209.5720  155.9380 O   0  0  0  0  0  0  0  0  0  0  0  0
  160.1490  208.6900  155.6640 O   0  0  0  0  0  1  0  0  0  0  0  0
  1  6  1  0  0  0  0
  2  3  1  6  0  0  0
  2  9  1  0  0  0  0
  2  4  1  0  0  0  0
  4  6  1  1  0  0  0
  5  3  2  0  0  0  0
  5  7  1  0  0  0  0
  7  8  1  0  0  0  0
  8  4  1  0  0  0  0
  8 39  1  1  0  0  0
  9  1  1  1  0  0  0
 10 12  1  0  0  0  0
 12 15  1  6  0  0  0
 12 11  1  0  0  0  0
 13 10  1  1  0  0  0
 13  9  1  0  0  0  0
 13 14  1  0  0  0  0
 14 11  2  0  0  0  0
 16 18  1  0  0  0  0
 17 20  1  0  0  0  0
 18 23  1  1  0  0  0
 19 17  1  0  0  0  0
 19 16  1  0  0  0  0
 20 18  1  0  0  0  0
 20 15  1  1  0  0  0
 21 22  1  0  0  0  0
 22 16  1  0  0  0  0
 24 28  1  0  0  0  0
 25 23  1  6  0  0  0
 25 24  1  0  0  0  0
 25 26  1  0  0  0  0
 26 30  1  1  0  0  0
 26 27  1  0  0  0  0
 27 29  1  6  0  0  0
 28 27  1  0  0  0  0
 31 35  1  0  0  0  0
 32 35  1  0  0  0  0
 33 34  1  0  0  0  0
 33 31  2  0  0  0  0
 34 32  2  0  0  0  0
 35  5  1  1  0  0  0
 36 37  2  0  0  0  0
 37 33  1  0  0  0  0
 38 37  1  0  0  0  0
 39 40  1  0  0  0  0
 40 41  1  0  0  0  0
 41 42  1  0  0  0  0
 42 45  1  0  0  0  0
 44 46  1  0  0  0  0
 45 43  2  0  0  0  0
 45 44  1  0  0  0  0
 46 47  1  0  0  0  0
 48 52  1  0  0  0  0
 48 47  1  1  0  0  0
 49 48  1  0  0  0  0
 49 50  1  0  0  0  0
 51 49  2  0  0  0  0
 52 53  1  6  0  0  0
 52 56  1  0  0  0  0
 53 55  1  0  0  0  0
 54 53  2  0  0  0  0
 57 56  1  0  0  0  0
M  END
>  <MODEL>
9

>  <REMARK>
 VINA RESULT:      -4.4      2.428      9.359
  Name = 
  20 active torsions:
  status: ('A' for Active; 'I' for Inactive)
    1  A    between atoms: C_2  and  C_10
    2  A    between atoms: C_2  and  C_29
    3  A    between atoms: C_2  and  C_51
    4  A    between atoms: N_3  and  C_31
    5  A    between atoms: N_4  and  C_36
    6  A    between atoms: O_7  and  C_51
    7  A    between atoms: C_8  and  C_51
    8  A    between atoms: C_13  and  C_52
    9  A    between atoms: C_13  and  C_55
   10  A    between atoms: C_14  and  C_38
   11  A    between atoms: C_16  and  C_38
   12  A    between atoms: C_21  and  C_41
   13  A    between atoms: C_24  and  C_39
   14  A    between atoms: C_24  and  C_53
   15  A    between atoms: C_29  and  C_31
   16  A    between atoms: C_33  and  C_40
   17  A    between atoms: C_33  and  C_57
   18  A    between atoms: C_35  and  C_47
   19  A    between atoms: C_39  and  C_52
   20  A    between atoms: C_48  and  C_54
                            x       y       z     vdW  Elec       q    Type
                         _______ _______ _______ _____ _____    ______ ____

>  <TORSDO>
F 20

$$$$
