=
 OpenBabel11052412063D

 50 56  0  0  1  0  0  0  0  0999 V2000
  160.2440  210.9850  156.1890 C   0  0  1  0  0  3  0  0  0  0  0  0
  159.5030  211.8680  152.0600 C   0  0  0  0  0  2  0  0  0  0  0  0
  158.5070  212.6190  156.2340 C   0  0  0  0  0  2  0  0  0  0  0  0
  160.1560  210.8110  154.6630 C   0  0  2  0  0  3  0  0  0  0  0  0
  158.3190  212.6350  154.7170 C   0  0  2  0  0  3  0  0  0  0  0  0
  158.5590  211.1060  152.7670 O   0  0  0  0  0  0  0  0  0  0  0  0
  158.7730  211.2720  154.1560 C   0  0  1  0  0  3  0  0  0  0  0  0
  159.0810  213.8260  154.1240 C   0  0  0  0  0  2  0  0  0  0  0  0
  158.7010  214.0850  152.6980 C   0  0  0  0  0  3  0  0  0  0  0  0
  158.9160  213.2020  151.7190 C   0  0  0  0  0  0  0  0  0  0  0  0
  161.5910  210.6820  156.6460 N   0  0  0  0  0  1  0  0  0  0  0  0
  159.9050  212.3550  156.5770 N   0  0  0  0  0  2  0  0  0  0  0  0
  158.5280  213.5060  150.3210 C   0  0  0  0  0  0  0  0  0  0  0  0
  156.0480  213.7520  150.5930 N   0  0  0  0  0  1  0  0  0  0  0  0
  157.2520  213.7580  149.8330 C   0  0  0  0  0  0  0  0  0  0  0  0
  157.2820  213.9710  148.5050 N   0  0  0  0  0  0  0  0  0  0  0  0
  159.3290  213.5950  149.1900 C   0  0  0  0  0  0  0  0  0  0  0  0
  158.5470  213.8760  148.1270 N   0  0  0  0  0  0  0  0  0  0  0  0
  160.8130  213.4440  149.1270 C   0  0  0  0  0  1  0  0  0  0  0  0
  158.9850  214.0300  146.7490 C   0  0  0  0  0  2  0  0  0  0  0  0
  158.2540  212.7300  145.7110 S   0  0  0  0  0  0  0  0  0  0  0  0
  162.2220  213.2480  144.0990 S   0  0  0  0  0  0  0  0  0  0  0  0
  159.7780  212.2660  143.4840 C   0  0  0  0  0  2  0  0  0  0  0  0
  160.9060  213.3040  145.3600 C   0  0  0  0  0  2  0  0  0  0  0  0
  161.2080  212.2100  142.9960 C   0  0  1  0  0  3  0  0  0  0  0  0
  159.8600  212.2770  144.9920 C   0  0  1  0  0  3  0  0  0  0  0  0
  161.2890  212.7070  141.6230 N   0  0  0  0  0  2  0  0  0  0  0  0
  161.0180  211.6280  140.6700 C   0  0  2  0  0  3  0  0  0  0  0  0
  162.0020  210.6340  140.7450 O   0  0  0  0  0  1  0  0  0  0  0  0
  160.8940  212.1580  139.2450 C   0  0  0  0  0  1  0  0  0  0  0  0
  161.2190  207.7590  152.6450 C   0  0  0  0  0  3  0  0  0  0  0  0
  160.9520  206.7260  153.5550 C   0  0  0  0  0  0  0  0  0  0  0  0
  160.4230  207.0310  154.8130 C   0  0  0  0  0  3  0  0  0  0  0  0
  160.1650  208.3610  155.1630 C   0  0  0  0  0  3  0  0  0  0  0  0
  160.4290  209.3930  154.2550 C   0  0  0  0  0  0  0  0  0  0  0  0
  160.9580  209.0880  152.9910 C   0  0  0  0  0  3  0  0  0  0  0  0
  161.2050  205.3620  153.2110 N   0  0  0  0  0  2  0  0  0  0  0  0
  161.9770  205.0200  152.0890 N   0  0  0  0  0  0  0  0  0  0  0  0
  159.8050  204.1660  151.4280 O   0  0  0  0  0  1  0  0  0  0  0  0
  161.1680  204.2910  151.1380 C   0  0  2  0  0  0  0  0  0  0  0  0
  161.9650  203.6290  152.0100 O   0  0  0  0  0  0  0  0  0  0  0  0
  161.6610  204.2960  149.7010 C   0  0  2  0  0  3  0  0  0  0  0  0
  161.3140  203.3190  147.7260 C   0  0  0  0  0  2  0  0  0  0  0  0
  160.9370  205.3530  148.9010 C   0  0  0  0  0  2  0  0  0  0  0  0
  161.4240  203.0510  149.0990 O   0  0  0  0  0  0  0  0  0  0  0  0
  160.8320  204.7430  147.5350 C   0  0  1  0  0  3  0  0  0  0  0  0
  163.3370  204.6970  146.1290 O   0  0  0  0  0  1  0  0  0  0  0  0
  161.1440  205.8370  144.8990 O   0  0  0  0  0  0  0  0  0  0  0  0
  161.9360  205.6120  146.3780 P   0  0  0  0  0  0  0  0  0  0  0  0
  162.3170  206.9570  146.9500 O   0  0  0  0  0  1  0  0  0  0  0  0
  1 12  1  0  0  0  0
  1 11  1  6  0  0  0
  2  6  1  0  0  0  0
  3 12  1  0  0  0  0
  4 35  1  1  0  0  0
  4  1  1  0  0  0  0
  5  8  1  6  0  0  0
  5  3  1  0  0  0  0
  7  6  1  6  0  0  0
  7  4  1  0  0  0  0
  7  5  1  0  0  0  0
  9  8  1  0  0  0  0
 10  2  1  0  0  0  0
 10  9  2  0  0  0  0
 13 10  1  0  0  0  0
 15 13  1  0  0  0  0
 15 14  1  0  0  0  0
 16 15  2  0  0  0  0
 17 13  2  0  0  0  0
 18 16  1  0  0  0  0
 18 17  1  0  0  0  0
 19 17  1  0  0  0  0
 20 18  1  0  0  0  0
 21 20  1  0  0  0  0
 22 24  1  0  0  0  0
 23 26  1  0  0  0  0
 25 27  1  6  0  0  0
 25 23  1  0  0  0  0
 25 22  1  0  0  0  0
 26 24  1  0  0  0  0
 26 21  1  1  0  0  0
 28 30  1  6  0  0  0
 28 29  1  0  0  0  0
 28 27  1  0  0  0  0
 31 36  2  0  0  0  0
 31 32  1  0  0  0  0
 32 33  2  0  0  0  0
 33 34  1  0  0  0  0
 35 34  2  0  0  0  0
 36 35  1  0  0  0  0
 37 32  1  0  0  0  0
 38 37  1  0  0  0  0
 40 39  1  1  0  0  0
 40 41  1  0  0  0  0
 40 38  1  0  0  0  0
 41 38  1  0  0  0  0
 42 44  1  6  0  0  0
 42 40  1  0  0  0  0
 43 45  1  0  0  0  0
 45 42  1  0  0  0  0
 46 49  1  6  0  0  0
 46 43  1  0  0  0  0
 46 44  1  0  0  0  0
 47 49  1  0  0  0  0
 48 49  2  0  0  0  0
 49 50  1  0  0  0  0
M  END
>  <MODEL>
1

>  <REMARK>
 VINA RESULT:      -8.1      0.000      0.000
  Name = 
  11 active torsions:
  status: ('A' for Active; 'I' for Inactive)
    1  A    between atoms: C_1  and  C_44
    2  A    between atoms: C_4  and  C_31
    3  A    between atoms: N_5  and  C_12
    4  A    between atoms: N_5  and  C_41
    5  A    between atoms: N_6  and  C_7
    6  A    between atoms: N_6  and  N_15
    7  A    between atoms: S_9  and  C_47
    8  A    between atoms: S_9  and  C_50
    9  A    between atoms: C_26  and  C_32
   10  A    between atoms: C_27  and  P_28
   11  A    between atoms: N_39  and  C_50
                            x       y       z     vdW  Elec       q    Type
                         _______ _______ _______ _____ _____    ______ ____

>  <TORSDO>
F 11

$$$$
=
 OpenBabel11052412063D

 50 56  0  0  1  0  0  0  0  0999 V2000
  160.4980  211.1400  155.0060 C   0  0  1  0  0  3  0  0  0  0  0  0
  160.4700  211.8770  150.7830 C   0  0  0  0  0  2  0  0  0  0  0  0
  158.8240  212.8120  154.7070 C   0  0  0  0  0  2  0  0  0  0  0  0
  160.6570  210.9090  153.4940 C   0  0  2  0  0  3  0  0  0  0  0  0
  158.8880  212.7730  153.1800 C   0  0  2  0  0  3  0  0  0  0  0  0
  159.4020  211.1630  151.3510 O   0  0  0  0  0  0  0  0  0  0  0  0
  159.3900  211.3790  152.7500 C   0  0  1  0  0  3  0  0  0  0  0  0
  159.7700  213.9220  152.6800 C   0  0  0  0  0  2  0  0  0  0  0  0
  159.6350  214.1340  151.2020 C   0  0  0  0  0  3  0  0  0  0  0  0
  159.9840  213.2090  150.3040 C   0  0  0  0  0  0  0  0  0  0  0  0
  161.7440  210.8260  155.6900 N   0  0  0  0  0  1  0  0  0  0  0  0
  160.1390  212.5320  155.2850 N   0  0  0  0  0  2  0  0  0  0  0  0
  159.8390  213.4670  148.8510 C   0  0  0  0  0  0  0  0  0  0  0  0
  157.4190  212.8920  148.5380 N   0  0  0  0  0  1  0  0  0  0  0  0
  158.6930  213.3320  148.0780 C   0  0  0  0  0  0  0  0  0  0  0  0
  158.9470  213.6310  146.7920 N   0  0  0  0  0  0  0  0  0  0  0  0
  160.7980  213.8810  147.9360 C   0  0  0  0  0  0  0  0  0  0  0  0
  160.2250  213.9690  146.7180 N   0  0  0  0  0  0  0  0  0  0  0  0
  162.2260  214.2150  148.2200 C   0  0  0  0  0  1  0  0  0  0  0  0
  160.8840  214.3460  145.4780 C   0  0  0  0  0  2  0  0  0  0  0  0
  161.6650  212.8930  144.7180 S   0  0  0  0  0  0  0  0  0  0  0  0
  160.2100  212.6240  140.6650 S   0  0  0  0  0  0  0  0  0  0  0  0
  162.4120  213.2460  142.1070 C   0  0  0  0  0  2  0  0  0  0  0  0
  160.1140  212.5780  142.4850 C   0  0  0  0  0  2  0  0  0  0  0  0
  161.8590  213.3990  140.7090 C   0  0  1  0  0  3  0  0  0  0  0  0
  161.2360  213.4300  143.0360 C   0  0  1  0  0  3  0  0  0  0  0  0
  162.7450  212.7500  139.7440 N   0  0  0  0  0  2  0  0  0  0  0  0
  162.2410  211.4180  139.3990 C   0  0  2  0  0  3  0  0  0  0  0  0
  162.8930  210.4270  140.1450 O   0  0  0  0  0  1  0  0  0  0  0  0
  162.3720  211.1410  137.9040 C   0  0  0  0  0  1  0  0  0  0  0  0
  162.1350  207.7660  151.9260 C   0  0  0  0  0  3  0  0  0  0  0  0
  161.4990  206.7650  152.6740 C   0  0  0  0  0  0  0  0  0  0  0  0
  160.5910  207.1210  153.6770 C   0  0  0  0  0  3  0  0  0  0  0  0
  160.3210  208.4700  153.9330 C   0  0  0  0  0  3  0  0  0  0  0  0
  160.9550  209.4700  153.1860 C   0  0  0  0  0  0  0  0  0  0  0  0
  161.8640  209.1140  152.1790 C   0  0  0  0  0  3  0  0  0  0  0  0
  161.7590  205.3830  152.4210 N   0  0  0  0  0  2  0  0  0  0  0  0
  162.3280  204.9530  151.2120 N   0  0  0  0  0  0  0  0  0  0  0  0
  160.0570  204.1360  150.9650 O   0  0  0  0  0  1  0  0  0  0  0  0
  161.3570  204.2000  150.4500 C   0  0  2  0  0  0  0  0  0  0  0  0
  162.2700  203.5610  151.2190 O   0  0  0  0  0  0  0  0  0  0  0  0
  161.6080  204.1090  148.9540 C   0  0  2  0  0  3  0  0  0  0  0  0
  160.8540  203.1070  147.1090 C   0  0  0  0  0  2  0  0  0  0  0  0
  160.8660  205.2060  148.2290 C   0  0  0  0  0  2  0  0  0  0  0  0
  161.1610  202.8740  148.4590 O   0  0  0  0  0  0  0  0  0  0  0  0
  160.4830  204.5650  146.9280 C   0  0  1  0  0  3  0  0  0  0  0  0
  160.5090  206.3760  144.6980 O   0  0  0  0  0  1  0  0  0  0  0  0
  162.8050  206.0900  146.2030 O   0  0  0  0  0  1  0  0  0  0  0  0
  161.4600  205.2820  145.5700 P   0  0  0  0  0  0  0  0  0  0  0  0
  161.9280  204.1840  144.6440 O   0  0  0  0  0  0  0  0  0  0  0  0
  1 12  1  0  0  0  0
  1 11  1  1  0  0  0
  2  6  1  0  0  0  0
  3 12  1  0  0  0  0
  4 35  1  1  0  0  0
  4  1  1  0  0  0  0
  5  8  1  1  0  0  0
  5  3  1  0  0  0  0
  7  6  1  6  0  0  0
  7  5  1  0  0  0  0
  7  4  1  0  0  0  0
  9  8  1  0  0  0  0
 10  2  1  0  0  0  0
 10  9  2  0  0  0  0
 13 10  1  0  0  0  0
 15 14  1  0  0  0  0
 15 13  1  0  0  0  0
 16 15  2  0  0  0  0
 17 19  1  0  0  0  0
 17 13  2  0  0  0  0
 18 16  1  0  0  0  0
 18 17  1  0  0  0  0
 20 18  1  0  0  0  0
 21 20  1  0  0  0  0
 22 25  1  0  0  0  0
 22 24  1  0  0  0  0
 23 26  1  0  0  0  0
 24 26  1  0  0  0  0
 25 27  1  6  0  0  0
 25 23  1  0  0  0  0
 26 21  1  1  0  0  0
 28 30  1  6  0  0  0
 28 27  1  0  0  0  0
 28 29  1  0  0  0  0
 31 36  2  0  0  0  0
 31 32  1  0  0  0  0
 32 33  2  0  0  0  0
 33 34  1  0  0  0  0
 35 34  2  0  0  0  0
 36 35  1  0  0  0  0
 37 32  1  0  0  0  0
 38 41  1  0  0  0  0
 38 37  1  0  0  0  0
 40 39  1  1  0  0  0
 40 38  1  0  0  0  0
 40 41  1  0  0  0  0
 42 44  1  6  0  0  0
 42 40  1  0  0  0  0
 43 45  1  0  0  0  0
 45 42  1  0  0  0  0
 46 49  1  6  0  0  0
 46 43  1  0  0  0  0
 46 44  1  0  0  0  0
 47 49  1  0  0  0  0
 49 48  1  0  0  0  0
 50 49  2  0  0  0  0
M  END
>  <MODEL>
2

>  <REMARK>
 VINA RESULT:      -5.4      1.360      1.948
  Name = 
  11 active torsions:
  status: ('A' for Active; 'I' for Inactive)
    1  A    between atoms: C_1  and  C_44
    2  A    between atoms: C_4  and  C_31
    3  A    between atoms: N_5  and  C_12
    4  A    between atoms: N_5  and  C_41
    5  A    between atoms: N_6  and  C_7
    6  A    between atoms: N_6  and  N_15
    7  A    between atoms: S_9  and  C_47
    8  A    between atoms: S_9  and  C_50
    9  A    between atoms: C_26  and  C_32
   10  A    between atoms: C_27  and  P_28
   11  A    between atoms: N_39  and  C_50
                            x       y       z     vdW  Elec       q    Type
                         _______ _______ _______ _____ _____    ______ ____

>  <TORSDO>
F 11

$$$$
