=
 OpenBabel11042420223D

 30 33  0  0  1  0  0  0  0  0999 V2000
  161.4090  210.4520  156.7520 C   0  0  0  0  0  3  0  0  0  0  0  0
  160.7610  208.8740  152.7090 C   0  0  0  0  0  0  0  0  0  0  0  0
  161.6650  209.2570  156.3070 N   0  0  0  0  0  0  0  0  0  0  0  0
  160.7640  211.7380  154.7400 N   0  0  0  0  0  0  0  0  0  0  0  0
  161.0780  206.6820  153.6700 C   0  0  0  0  0  0  0  0  0  0  0  0
  161.1870  208.6620  155.0920 C   0  0  0  0  0  0  0  0  0  0  0  0
  160.8280  209.9640  151.6630 C   0  0  1  0  0  3  0  0  0  0  0  0
  161.1690  205.3340  153.5510 F   0  0  0  0  0  0  0  0  0  0  0  0
  160.8740  210.8530  153.7990 C   0  0  0  0  0  0  0  0  0  0  0  0
  161.3010  207.2760  154.9230 C   0  0  0  0  0  3  0  0  0  0  0  0
  160.8080  207.4770  152.5390 C   0  0  0  0  0  0  0  0  0  0  0  0
  160.9050  211.1620  152.4510 O   0  0  0  0  0  0  0  0  0  0  0  0
  160.8540  209.4250  153.9680 C   0  0  0  0  0  0  0  0  0  0  0  0
  160.4340  211.3990  156.1200 C   0  0  0  0  0  2  0  0  0  0  0  0
  162.9230  206.4660  150.7830 O   0  0  0  0  0  0  0  0  0  0  0  0
  160.6600  206.8380  151.2640 N   0  0  0  0  0  2  0  0  0  0  0  0
  161.7160  206.3140  150.4510 C   0  0  0  0  0  0  0  0  0  0  0  0
  161.3620  205.6120  149.1760 C   0  0  1  0  0  3  0  0  0  0  0  0
  161.0280  201.8820  148.4760 C   0  0  0  0  0  3  0  0  0  0  0  0
  161.1900  203.2570  148.2730 C   0  0  0  0  0  3  0  0  0  0  0  0
  160.8640  202.2500  150.8630 C   0  0  0  0  0  3  0  0  0  0  0  0
  160.8670  201.3780  149.7700 C   0  0  0  0  0  3  0  0  0  0  0  0
  161.0250  203.6250  150.6620 C   0  0  0  0  0  3  0  0  0  0  0  0
  161.1910  204.1340  149.3680 C   0  0  0  0  0  0  0  0  0  0  0  0
  160.5920  206.4390  147.2820 C   0  0  0  0  0  1  0  0  0  0  0  0
  160.2240  206.1800  148.5990 O   0  0  0  0  0  0  0  0  0  0  0  0
  162.0050  209.8260  150.9150 O   0  0  0  0  0  0  0  0  0  0  0  0
  161.6580  210.1490  149.5990 C   0  0  0  0  0  3  0  0  0  0  0  0
  162.1740  211.5350  149.2590 C   0  0  0  0  0  1  0  0  0  0  0  0
  162.2960  209.1530  148.6550 C   0  0  0  0  0  1  0  0  0  0  0  0
  2 13  1  0  0  0  0
  3  1  2  0  0  0  0
  4 14  1  0  0  0  0
  5 10  2  0  0  0  0
  6  3  1  0  0  0  0
  7 27  1  6  0  0  0
  7 12  1  0  0  0  0
  7  2  1  0  0  0  0
  8  5  1  0  0  0  0
  9 13  1  0  0  0  0
  9  4  2  0  0  0  0
 10  6  1  0  0  0  0
 11  2  2  0  0  0  0
 11  5  1  0  0  0  0
 12  9  1  0  0  0  0
 13  6  2  0  0  0  0
 14  1  1  0  0  0  0
 16 11  1  0  0  0  0
 17 15  2  0  0  0  0
 17 16  1  0  0  0  0
 18 26  1  1  0  0  0
 18 24  1  0  0  0  0
 18 17  1  0  0  0  0
 19 22  1  0  0  0  0
 20 19  2  0  0  0  0
 20 24  1  0  0  0  0
 22 21  2  0  0  0  0
 23 21  1  0  0  0  0
 24 23  2  0  0  0  0
 25 26  1  0  0  0  0
 28 27  1  0  0  0  0
 29 28  1  0  0  0  0
 30 28  1  0  0  0  0
M  END
>  <MODEL>
1

>  <REMARK>
 VINA RESULT:      -8.4      0.000      0.000
  Name = 
  6 active torsions:
  status: ('A' for Active; 'I' for Inactive)
    1  A    between atoms: O_2  and  C_3
    2  A    between atoms: O_2  and  C_14
    3  A    between atoms: N_11  and  C_20
    4  A    between atoms: C_12  and  C_22
    5  A    between atoms: O_19  and  C_22
    6  A    between atoms: C_22  and  C_29
                            x       y       z     vdW  Elec       q    Type
                         _______ _______ _______ _____ _____    ______ ____

>  <TORSDO>
F 6

$$$$
=
 OpenBabel11042420223D

 30 33  0  0  1  0  0  0  0  0999 V2000
  160.4830  209.3470  154.9470 C   0  0  0  0  0  3  0  0  0  0  0  0
  161.7690  206.7340  151.6630 C   0  0  0  0  0  0  0  0  0  0  0  0
  160.4440  209.5870  153.6680 N   0  0  0  0  0  0  0  0  0  0  0  0
  161.1510  206.9720  155.1120 N   0  0  0  0  0  0  0  0  0  0  0  0
  161.6600  208.6920  150.2550 C   0  0  0  0  0  0  0  0  0  0  0  0
  161.1270  208.8700  152.6300 C   0  0  0  0  0  0  0  0  0  0  0  0
  161.6600  205.2720  152.0350 C   0  0  1  0  0  3  0  0  0  0  0  0
  161.7720  209.2920  149.0440 F   0  0  0  0  0  0  0  0  0  0  0  0
  161.2660  206.6290  153.8680 C   0  0  0  0  0  0  0  0  0  0  0  0
  161.2260  209.4470  151.3570 C   0  0  0  0  0  3  0  0  0  0  0  0
  161.9350  207.3170  150.3930 C   0  0  0  0  0  0  0  0  0  0  0  0
  161.3340  205.3180  153.4320 O   0  0  0  0  0  0  0  0  0  0  0  0
  161.4660  207.5190  152.7550 C   0  0  0  0  0  0  0  0  0  0  0  0
  161.3770  208.3310  155.5900 C   0  0  0  0  0  2  0  0  0  0  0  0
  160.1670  206.2050  148.3400 O   0  0  0  0  0  0  0  0  0  0  0  0
  162.3050  206.5660  149.2290 N   0  0  0  0  0  2  0  0  0  0  0  0
  161.4150  206.0750  148.2200 C   0  0  0  0  0  0  0  0  0  0  0  0
  161.9940  205.3690  147.0320 C   0  0  1  0  0  3  0  0  0  0  0  0
  161.1050  201.7890  147.9880 C   0  0  0  0  0  3  0  0  0  0  0  0
  161.5210  203.1220  148.0890 C   0  0  0  0  0  3  0  0  0  0  0  0
  160.7500  202.0770  145.6100 C   0  0  0  0  0  3  0  0  0  0  0  0
  160.7180  201.2670  146.7500 C   0  0  0  0  0  3  0  0  0  0  0  0
  161.1670  203.4100  145.7100 C   0  0  0  0  0  3  0  0  0  0  0  0
  161.5510  203.9380  146.9490 C   0  0  0  0  0  0  0  0  0  0  0  0
  162.7560  205.7700  145.0020 C   0  0  0  0  0  1  0  0  0  0  0  0
  161.6940  206.0590  145.8550 O   0  0  0  0  0  0  0  0  0  0  0  0
  160.6000  204.6850  151.3310 O   0  0  0  0  0  0  0  0  0  0  0  0
  160.5680  203.3480  151.7380 C   0  0  0  0  0  3  0  0  0  0  0  0
  159.6620  202.5530  150.8160 C   0  0  0  0  0  1  0  0  0  0  0  0
  161.9630  202.7670  151.6590 C   0  0  0  0  0  1  0  0  0  0  0  0
  1 14  1  0  0  0  0
  2  7  1  0  0  0  0
  2 13  1  0  0  0  0
  3  1  2  0  0  0  0
  4 14  1  0  0  0  0
  5 11  1  0  0  0  0
  5 10  2  0  0  0  0
  6 13  2  0  0  0  0
  6  3  1  0  0  0  0
  7 27  1  6  0  0  0
  7 12  1  0  0  0  0
  8  5  1  0  0  0  0
  9  4  2  0  0  0  0
 10  6  1  0  0  0  0
 11  2  2  0  0  0  0
 12  9  1  0  0  0  0
 13  9  1  0  0  0  0
 16 11  1  0  0  0  0
 17 15  2  0  0  0  0
 17 16  1  0  0  0  0
 18 26  1  6  0  0  0
 18 17  1  0  0  0  0
 19 20  1  0  0  0  0
 21 23  2  0  0  0  0
 21 22  1  0  0  0  0
 22 19  2  0  0  0  0
 23 24  1  0  0  0  0
 24 18  1  0  0  0  0
 24 20  2  0  0  0  0
 25 26  1  0  0  0  0
 27 28  1  0  0  0  0
 29 28  1  0  0  0  0
 30 28  1  0  0  0  0
M  END
>  <MODEL>
2

>  <REMARK>
 VINA RESULT:      -7.4      2.386      4.306
  Name = 
  6 active torsions:
  status: ('A' for Active; 'I' for Inactive)
    1  A    between atoms: O_2  and  C_3
    2  A    between atoms: O_2  and  C_14
    3  A    between atoms: N_11  and  C_20
    4  A    between atoms: C_12  and  C_22
    5  A    between atoms: O_19  and  C_22
    6  A    between atoms: C_22  and  C_29
                            x       y       z     vdW  Elec       q    Type
                         _______ _______ _______ _____ _____    ______ ____

>  <TORSDO>
F 6

$$$$
=
 OpenBabel11042420223D

 30 33  0  0  1  0  0  0  0  0999 V2000
  162.1030  204.7300  144.9010 C   0  0  0  0  0  3  0  0  0  0  0  0
  161.0440  205.3260  149.1180 C   0  0  0  0  0  0  0  0  0  0  0  0
  162.3580  205.7600  145.6540 N   0  0  0  0  0  0  0  0  0  0  0  0
  161.1620  203.0470  146.4500 N   0  0  0  0  0  0  0  0  0  0  0  0
  161.5750  207.6560  148.7720 C   0  0  0  0  0  0  0  0  0  0  0  0
  161.7640  206.0760  146.9220 C   0  0  0  0  0  0  0  0  0  0  0  0
  160.9360  204.0130  149.8600 C   0  0  1  0  0  3  0  0  0  0  0  0
  161.7110  208.9240  149.2330 F   0  0  0  0  0  0  0  0  0  0  0  0
  161.1980  203.6660  147.5870 C   0  0  0  0  0  0  0  0  0  0  0  0
  161.9190  207.3680  147.4420 C   0  0  0  0  0  3  0  0  0  0  0  0
  161.1340  206.6330  149.6350 C   0  0  0  0  0  0  0  0  0  0  0  0
  161.0520  203.0390  148.8120 O   0  0  0  0  0  0  0  0  0  0  0  0
  161.2640  205.0910  147.7780 C   0  0  0  0  0  0  0  0  0  0  0  0
  161.0170  203.7330  145.1700 C   0  0  0  0  0  2  0  0  0  0  0  0
  163.0240  206.6910  151.8710 O   0  0  0  0  0  0  0  0  0  0  0  0
  160.8630  206.9520  151.0060 N   0  0  0  0  0  2  0  0  0  0  0  0
  161.8220  207.0150  152.0670 C   0  0  0  0  0  0  0  0  0  0  0  0
  161.3630  207.4400  153.4280 C   0  0  1  0  0  3  0  0  0  0  0  0
  161.1250  211.0340  154.6710 C   0  0  0  0  0  3  0  0  0  0  0  0
  161.4110  209.6640  154.6280 C   0  0  0  0  0  3  0  0  0  0  0  0
  160.1490  210.9020  152.4600 C   0  0  0  0  0  3  0  0  0  0  0  0
  160.4960  211.6530  153.5870 C   0  0  0  0  0  3  0  0  0  0  0  0
  160.4330  209.5330  152.4160 C   0  0  0  0  0  3  0  0  0  0  0  0
  161.0670  208.9090  153.4970 C   0  0  0  0  0  0  0  0  0  0  0  0
  160.2510  206.7990  155.2230 C   0  0  0  0  0  1  0  0  0  0  0  0
  160.2600  206.6850  153.8350 O   0  0  0  0  0  0  0  0  0  0  0  0
  162.0190  203.8780  150.7390 O   0  0  0  0  0  0  0  0  0  0  0  0
  161.5860  203.0070  151.7450 C   0  0  0  0  0  3  0  0  0  0  0  0
  160.3950  203.6120  152.4670 C   0  0  0  0  0  1  0  0  0  0  0  0
  161.1560  201.6980  151.1210 C   0  0  0  0  0  1  0  0  0  0  0  0
  1 14  1  0  0  0  0
  1  3  2  0  0  0  0
  2 11  1  0  0  0  0
  2  7  1  0  0  0  0
  3  6  1  0  0  0  0
  4  9  2  0  0  0  0
  5  8  1  0  0  0  0
  5 11  2  0  0  0  0
  6 10  2  0  0  0  0
  6 13  1  0  0  0  0
  7 27  1  1  0  0  0
  9 13  1  0  0  0  0
  9 12  1  0  0  0  0
 10  5  1  0  0  0  0
 11 16  1  0  0  0  0
 12  7  1  0  0  0  0
 13  2  2  0  0  0  0
 14  4  1  0  0  0  0
 15 17  2  0  0  0  0
 16 17  1  0  0  0  0
 18 17  1  6  0  0  0
 18 24  1  0  0  0  0
 18 26  1  0  0  0  0
 20 19  1  0  0  0  0
 21 22  1  0  0  0  0
 22 19  2  0  0  0  0
 23 21  2  0  0  0  0
 23 24  1  0  0  0  0
 24 20  2  0  0  0  0
 26 25  1  0  0  0  0
 27 28  1  0  0  0  0
 28 29  1  0  0  0  0
 30 28  1  0  0  0  0
M  END
>  <MODEL>
3

>  <REMARK>
 VINA RESULT:      -7.3      2.578      8.037
  Name = 
  6 active torsions:
  status: ('A' for Active; 'I' for Inactive)
    1  A    between atoms: O_2  and  C_3
    2  A    between atoms: O_2  and  C_14
    3  A    between atoms: N_11  and  C_20
    4  A    between atoms: C_12  and  C_22
    5  A    between atoms: O_19  and  C_22
    6  A    between atoms: C_22  and  C_29
                            x       y       z     vdW  Elec       q    Type
                         _______ _______ _______ _____ _____    ______ ____

>  <TORSDO>
F 6

$$$$
=
 OpenBabel11042420223D

 30 33  0  0  1  0  0  0  0  0999 V2000
  161.7930  210.2130  156.1520 C   0  0  0  0  0  3  0  0  0  0  0  0
  160.8740  208.0370  152.4530 C   0  0  0  0  0  0  0  0  0  0  0  0
  161.8810  208.9330  155.9310 N   0  0  0  0  0  0  0  0  0  0  0  0
  161.2910  211.1920  153.9370 N   0  0  0  0  0  0  0  0  0  0  0  0
  160.9140  206.0300  153.7940 C   0  0  0  0  0  0  0  0  0  0  0  0
  161.3080  208.2000  154.8390 C   0  0  0  0  0  0  0  0  0  0  0  0
  161.0690  208.9050  151.2290 C   0  0  1  0  0  3  0  0  0  0  0  0
  160.8230  204.6830  153.9190 F   0  0  0  0  0  0  0  0  0  0  0  0
  161.2670  210.1470  153.1720 C   0  0  0  0  0  0  0  0  0  0  0  0
  161.2340  206.8030  154.9220 C   0  0  0  0  0  3  0  0  0  0  0  0
  160.7330  206.6390  152.5370 C   0  0  0  0  0  0  0  0  0  0  0  0
  161.3170  210.2020  151.7900 O   0  0  0  0  0  0  0  0  0  0  0  0
  161.0610  208.7880  153.5940 C   0  0  0  0  0  0  0  0  0  0  0  0
  160.9420  211.1530  155.3530 C   0  0  0  0  0  2  0  0  0  0  0  0
  162.5260  204.6680  151.3210 O   0  0  0  0  0  0  0  0  0  0  0  0
  160.4800  205.8080  151.3960 N   0  0  0  0  0  2  0  0  0  0  0  0
  161.3640  204.8210  150.8550 C   0  0  0  0  0  0  0  0  0  0  0  0
  160.8980  203.9940  149.6960 C   0  0  1  0  0  3  0  0  0  0  0  0
  160.4960  206.4930  146.8490 C   0  0  0  0  0  3  0  0  0  0  0  0
  160.3210  205.8490  148.0790 C   0  0  0  0  0  3  0  0  0  0  0  0
  162.1610  204.8500  146.2220 C   0  0  0  0  0  3  0  0  0  0  0  0
  161.4160  205.9950  145.9210 C   0  0  0  0  0  3  0  0  0  0  0  0
  161.9850  204.2050  147.4510 C   0  0  0  0  0  3  0  0  0  0  0  0
  161.0690  204.7020  148.3850 C   0  0  0  0  0  0  0  0  0  0  0  0
  160.5760  201.8580  150.1440 C   0  0  0  0  0  1  0  0  0  0  0  0
  161.5400  202.7530  149.6860 O   0  0  0  0  0  0  0  0  0  0  0  0
  162.2040  208.4790  150.5270 O   0  0  0  0  0  0  0  0  0  0  0  0
  161.9660  208.8040  149.1870 C   0  0  0  0  0  3  0  0  0  0  0  0
  162.2360  210.2810  148.9630 C   0  0  0  0  0  1  0  0  0  0  0  0
  162.8990  208.0040  148.3050 C   0  0  0  0  0  1  0  0  0  0  0  0
  2 11  2  0  0  0  0
  2 13  1  0  0  0  0
  3  1  2  0  0  0  0
  4 14  1  0  0  0  0
  5  8  1  0  0  0  0
  5 10  2  0  0  0  0
  6 10  1  0  0  0  0
  6  3  1  0  0  0  0
  7 27  1  1  0  0  0
  7 12  1  0  0  0  0
  7  2  1  0  0  0  0
  9 13  1  0  0  0  0
  9  4  2  0  0  0  0
 11  5  1  0  0  0  0
 12  9  1  0  0  0  0
 13  6  2  0  0  0  0
 14  1  1  0  0  0  0
 16 11  1  0  0  0  0
 17 15  2  0  0  0  0
 17 16  1  0  0  0  0
 18 26  1  6  0  0  0
 18 17  1  0  0  0  0
 19 20  1  0  0  0  0
 20 24  2  0  0  0  0
 21 23  2  0  0  0  0
 22 21  1  0  0  0  0
 22 19  2  0  0  0  0
 23 24  1  0  0  0  0
 24 18  1  0  0  0  0
 26 25  1  0  0  0  0
 28 27  1  0  0  0  0
 29 28  1  0  0  0  0
 30 28  1  0  0  0  0
M  END
>  <MODEL>
4

>  <REMARK>
 VINA RESULT:      -6.8      1.297      2.473
  Name = 
  6 active torsions:
  status: ('A' for Active; 'I' for Inactive)
    1  A    between atoms: O_2  and  C_3
    2  A    between atoms: O_2  and  C_14
    3  A    between atoms: N_11  and  C_20
    4  A    between atoms: C_12  and  C_22
    5  A    between atoms: O_19  and  C_22
    6  A    between atoms: C_22  and  C_29
                            x       y       z     vdW  Elec       q    Type
                         _______ _______ _______ _____ _____    ______ ____

>  <TORSDO>
F 6

$$$$
=
 OpenBabel11042420223D

 30 33  0  0  1  0  0  0  0  0999 V2000
  162.7670  203.9610  145.6420 C   0  0  0  0  0  3  0  0  0  0  0  0
  160.9340  205.9500  149.0990 C   0  0  0  0  0  0  0  0  0  0  0  0
  163.0490  205.1310  146.1370 N   0  0  0  0  0  0  0  0  0  0  0  0
  161.1840  202.9680  147.2630 N   0  0  0  0  0  0  0  0  0  0  0  0
  161.9860  207.9740  148.3090 C   0  0  0  0  0  0  0  0  0  0  0  0
  162.2630  205.8930  147.0640 C   0  0  0  0  0  0  0  0  0  0  0  0
  160.4000  204.9520  150.1020 C   0  0  1  0  0  3  0  0  0  0  0  0
  162.2690  209.2940  148.4370 F   0  0  0  0  0  0  0  0  0  0  0  0
  161.0890  203.8960  148.1620 C   0  0  0  0  0  0  0  0  0  0  0  0
  162.5550  207.2510  147.2470 C   0  0  0  0  0  3  0  0  0  0  0  0
  161.1680  207.3300  149.2570 C   0  0  0  0  0  0  0  0  0  0  0  0
  160.5500  203.6980  149.4210 O   0  0  0  0  0  0  0  0  0  0  0  0
  161.3960  205.2890  147.9810 C   0  0  0  0  0  0  0  0  0  0  0  0
  161.4700  203.2410  145.8590 C   0  0  0  0  0  2  0  0  0  0  0  0
  162.5430  207.9610  151.7630 O   0  0  0  0  0  0  0  0  0  0  0  0
  160.6660  208.0860  150.3660 N   0  0  0  0  0  2  0  0  0  0  0  0
  161.3840  208.4140  151.5610 C   0  0  0  0  0  0  0  0  0  0  0  0
  160.7190  209.2810  152.5860 C   0  0  1  0  0  3  0  0  0  0  0  0
  161.9150  209.1240  156.2000 C   0  0  0  0  0  3  0  0  0  0  0  0
  161.6890  209.5900  154.9000 C   0  0  0  0  0  3  0  0  0  0  0  0
  160.7140  207.0860  155.6820 C   0  0  0  0  0  3  0  0  0  0  0  0
  161.4260  207.8740  156.5920 C   0  0  0  0  0  3  0  0  0  0  0  0
  160.4890  207.5500  154.3810 C   0  0  0  0  0  3  0  0  0  0  0  0
  160.9720  208.8030  153.9850 C   0  0  0  0  0  0  0  0  0  0  0  0
  159.9060  211.3130  152.3130 C   0  0  0  0  0  1  0  0  0  0  0  0
  161.1050  210.6140  152.4310 O   0  0  0  0  0  0  0  0  0  0  0  0
  161.2090  204.9570  151.2460 O   0  0  0  0  0  0  0  0  0  0  0  0
  160.8070  203.8500  152.0000 C   0  0  0  0  0  3  0  0  0  0  0  0
  161.7800  202.7040  151.7860 C   0  0  0  0  0  1  0  0  0  0  0  0
  160.8110  204.2160  153.4680 C   0  0  0  0  0  1  0  0  0  0  0  0
  1 14  1  0  0  0  0
  1  3  2  0  0  0  0
  2 11  1  0  0  0  0
  2  7  1  0  0  0  0
  3  6  1  0  0  0  0
  4  9  2  0  0  0  0
  5  8  1  0  0  0  0
  5 11  2  0  0  0  0
  6 10  2  0  0  0  0
  6 13  1  0  0  0  0
  7 27  1  1  0  0  0
  9 12  1  0  0  0  0
 10  5  1  0  0  0  0
 11 16  1  0  0  0  0
 12  7  1  0  0  0  0
 13  9  1  0  0  0  0
 13  2  2  0  0  0  0
 14  4  1  0  0  0  0
 16 17  1  0  0  0  0
 17 15  2  0  0  0  0
 18 17  1  6  0  0  0
 18 24  1  0  0  0  0
 19 22  1  0  0  0  0
 20 19  2  0  0  0  0
 21 22  2  0  0  0  0
 23 21  1  0  0  0  0
 24 23  2  0  0  0  0
 24 20  1  0  0  0  0
 25 26  1  0  0  0  0
 26 18  1  0  0  0  0
 27 28  1  0  0  0  0
 28 30  1  0  0  0  0
 29 28  1  0  0  0  0
M  END
>  <MODEL>
5

>  <REMARK>
 VINA RESULT:      -6.6      2.539      7.734
  Name = 
  6 active torsions:
  status: ('A' for Active; 'I' for Inactive)
    1  A    between atoms: O_2  and  C_3
    2  A    between atoms: O_2  and  C_14
    3  A    between atoms: N_11  and  C_20
    4  A    between atoms: C_12  and  C_22
    5  A    between atoms: O_19  and  C_22
    6  A    between atoms: C_22  and  C_29
                            x       y       z     vdW  Elec       q    Type
                         _______ _______ _______ _____ _____    ______ ____

>  <TORSDO>
F 6

$$$$
=
 OpenBabel11042420223D

 30 33  0  0  1  0  0  0  0  0999 V2000
  161.2560  201.1130  148.2650 C   0  0  0  0  0  3  0  0  0  0  0  0
  160.8600  205.2410  149.7010 C   0  0  0  0  0  0  0  0  0  0  0  0
  161.5810  202.2110  147.6480 N   0  0  0  0  0  0  0  0  0  0  0  0
  160.6510  201.8410  150.5500 N   0  0  0  0  0  0  0  0  0  0  0  0
  161.2230  205.9190  147.4120 C   0  0  0  0  0  0  0  0  0  0  0  0
  161.1840  203.5480  147.9880 C   0  0  0  0  0  0  0  0  0  0  0  0
  160.9300  205.3200  151.2090 C   0  0  1  0  0  3  0  0  0  0  0  0
  161.3750  206.8800  146.4670 F   0  0  0  0  0  0  0  0  0  0  0  0
  160.8400  203.1210  150.4920 C   0  0  0  0  0  0  0  0  0  0  0  0
  161.3630  204.5700  147.0460 C   0  0  0  0  0  3  0  0  0  0  0  0
  160.9720  206.2750  148.7520 C   0  0  0  0  0  0  0  0  0  0  0  0
  160.9210  203.9400  151.6050 O   0  0  0  0  0  0  0  0  0  0  0  0
  160.8720  203.9230  149.2990 C   0  0  0  0  0  0  0  0  0  0  0  0
  160.2720  201.0360  149.3940 C   0  0  0  0  0  2  0  0  0  0  0  0
  163.1350  208.2470  148.6520 O   0  0  0  0  0  0  0  0  0  0  0  0
  160.9090  207.6650  149.0980 N   0  0  0  0  0  2  0  0  0  0  0  0
  161.9770  208.6130  148.9940 C   0  0  0  0  0  0  0  0  0  0  0  0
  161.7040  210.0460  149.3340 C   0  0  1  0  0  3  0  0  0  0  0  0
  162.6800  210.1420  153.0150 C   0  0  0  0  0  3  0  0  0  0  0  0
  162.7400  209.9130  151.6360 C   0  0  0  0  0  3  0  0  0  0  0  0
  160.4720  211.1040  152.7640 C   0  0  0  0  0  3  0  0  0  0  0  0
  161.5470  210.7380  153.5790 C   0  0  0  0  0  3  0  0  0  0  0  0
  160.5300  210.8750  151.3840 C   0  0  0  0  0  3  0  0  0  0  0  0
  161.6630  210.2820  150.8150 C   0  0  0  0  0  0  0  0  0  0  0  0
  161.8600  211.8310  148.0470 C   0  0  0  0  0  1  0  0  0  0  0  0
  162.6340  210.8850  148.7150 O   0  0  0  0  0  0  0  0  0  0  0  0
  162.1450  205.9040  151.5940 O   0  0  0  0  0  0  0  0  0  0  0  0
  161.8520  206.6850  152.7160 C   0  0  0  0  0  3  0  0  0  0  0  0
  160.5510  207.4340  152.4920 C   0  0  0  0  0  1  0  0  0  0  0  0
  161.6890  205.7880  153.9220 C   0  0  0  0  0  1  0  0  0  0  0  0
  1 14  1  0  0  0  0
  2  7  1  0  0  0  0
  3  6  1  0  0  0  0
  3  1  2  0  0  0  0
  5 11  1  0  0  0  0
  6 13  2  0  0  0  0
  7 27  1  6  0  0  0
  7 12  1  0  0  0  0
  8  5  1  0  0  0  0
  9  4  2  0  0  0  0
  9 12  1  0  0  0  0
 10  5  2  0  0  0  0
 10  6  1  0  0  0  0
 11 16  1  0  0  0  0
 11  2  2  0  0  0  0
 13  2  1  0  0  0  0
 13  9  1  0  0  0  0
 14  4  1  0  0  0  0
 15 17  2  0  0  0  0
 17 16  1  0  0  0  0
 17 18  1  0  0  0  0
 18 26  1  6  0  0  0
 18 24  1  0  0  0  0
 19 22  1  0  0  0  0
 20 19  2  0  0  0  0
 21 22  2  0  0  0  0
 23 21  1  0  0  0  0
 24 23  2  0  0  0  0
 24 20  1  0  0  0  0
 25 26  1  0  0  0  0
 27 28  1  0  0  0  0
 28 30  1  0  0  0  0
 29 28  1  0  0  0  0
M  END
>  <MODEL>
6

>  <REMARK>
 VINA RESULT:      -6.6      2.850      7.440
  Name = 
  6 active torsions:
  status: ('A' for Active; 'I' for Inactive)
    1  A    between atoms: O_2  and  C_3
    2  A    between atoms: O_2  and  C_14
    3  A    between atoms: N_11  and  C_20
    4  A    between atoms: C_12  and  C_22
    5  A    between atoms: O_19  and  C_22
    6  A    between atoms: C_22  and  C_29
                            x       y       z     vdW  Elec       q    Type
                         _______ _______ _______ _____ _____    ______ ____

>  <TORSDO>
F 6

$$$$
=
 OpenBabel11042420223D

 30 33  0  0  1  0  0  0  0  0999 V2000
  161.2070  204.2710  147.7420 C   0  0  0  0  0  3  0  0  0  0  0  0
  162.0670  207.6540  150.4020 C   0  0  0  0  0  0  0  0  0  0  0  0
  160.7800  204.4660  148.9550 N   0  0  0  0  0  0  0  0  0  0  0  0
  162.3620  206.3750  147.1450 N   0  0  0  0  0  0  0  0  0  0  0  0
  161.1920  206.2850  152.1880 C   0  0  0  0  0  0  0  0  0  0  0  0
  161.2900  205.4030  149.9140 C   0  0  0  0  0  0  0  0  0  0  0  0
  162.3600  208.9180  149.6250 C   0  0  1  0  0  3  0  0  0  0  0  0
  160.8510  206.1040  153.4880 F   0  0  0  0  0  0  0  0  0  0  0  0
  162.2060  207.0900  148.2150 C   0  0  0  0  0  0  0  0  0  0  0  0
  160.9250  205.2650  151.2610 C   0  0  0  0  0  3  0  0  0  0  0  0
  161.7650  207.5020  151.7690 C   0  0  0  0  0  0  0  0  0  0  0  0
  162.4190  208.4560  148.2680 O   0  0  0  0  0  0  0  0  0  0  0  0
  161.9170  206.5940  149.5340 C   0  0  0  0  0  0  0  0  0  0  0  0
  162.4280  204.9180  147.1610 C   0  0  0  0  0  2  0  0  0  0  0  0
  159.7860  209.4370  152.7260 O   0  0  0  0  0  0  0  0  0  0  0  0
  161.9540  208.5460  152.7330 N   0  0  0  0  0  2  0  0  0  0  0  0
  160.9500  209.4470  153.2120 C   0  0  0  0  0  0  0  0  0  0  0  0
  161.3170  210.4320  154.2800 C   0  0  1  0  0  3  0  0  0  0  0  0
  158.2330  211.4890  156.2510 C   0  0  0  0  0  3  0  0  0  0  0  0
  159.3340  210.7430  155.8160 C   0  0  0  0  0  3  0  0  0  0  0  0
  158.7160  213.1790  154.5850 C   0  0  0  0  0  3  0  0  0  0  0  0
  157.9240  212.7070  155.6370 C   0  0  0  0  0  3  0  0  0  0  0  0
  159.8170  212.4330  154.1490 C   0  0  0  0  0  3  0  0  0  0  0  0
  160.1320  211.2150  154.7640 C   0  0  0  0  0  0  0  0  0  0  0  0
  162.9250  210.7070  155.7650 C   0  0  0  0  0  1  0  0  0  0  0  0
  161.9650  209.7920  155.3390 O   0  0  0  0  0  0  0  0  0  0  0  0
  161.2920  209.8140  149.7640 O   0  0  0  0  0  0  0  0  0  0  0  0
  161.8730  211.0750  149.9320 C   0  0  0  0  0  3  0  0  0  0  0  0
  162.2310  211.6580  148.5770 C   0  0  0  0  0  1  0  0  0  0  0  0
  160.8810  211.9970  150.6050 C   0  0  0  0  0  1  0  0  0  0  0  0
  1  3  2  0  0  0  0
  2 11  1  0  0  0  0
  3  6  1  0  0  0  0
  4 14  1  0  0  0  0
  4  9  2  0  0  0  0
  5  8  1  0  0  0  0
  6 10  2  0  0  0  0
  7 27  1  6  0  0  0
  7  2  1  0  0  0  0
  9 12  1  0  0  0  0
  9 13  1  0  0  0  0
 10  5  1  0  0  0  0
 11  5  2  0  0  0  0
 11 16  1  0  0  0  0
 12  7  1  0  0  0  0
 13  6  1  0  0  0  0
 13  2  2  0  0  0  0
 14  1  1  0  0  0  0
 15 17  2  0  0  0  0
 16 17  1  0  0  0  0
 18 17  1  6  0  0  0
 18 24  1  0  0  0  0
 18 26  1  0  0  0  0
 20 19  1  0  0  0  0
 21 22  1  0  0  0  0
 22 19  2  0  0  0  0
 23 21  2  0  0  0  0
 23 24  1  0  0  0  0
 24 20  2  0  0  0  0
 26 25  1  0  0  0  0
 27 28  1  0  0  0  0
 28 30  1  0  0  0  0
 29 28  1  0  0  0  0
M  END
>  <MODEL>
7

>  <REMARK>
 VINA RESULT:      -6.1      2.087      7.348
  Name = 
  6 active torsions:
  status: ('A' for Active; 'I' for Inactive)
    1  A    between atoms: O_2  and  C_3
    2  A    between atoms: O_2  and  C_14
    3  A    between atoms: N_11  and  C_20
    4  A    between atoms: C_12  and  C_22
    5  A    between atoms: O_19  and  C_22
    6  A    between atoms: C_22  and  C_29
                            x       y       z     vdW  Elec       q    Type
                         _______ _______ _______ _____ _____    ______ ____

>  <TORSDO>
F 6

$$$$
=
 OpenBabel11042420223D

 30 33  0  0  1  0  0  0  0  0999 V2000
  162.2380  205.4770  146.3990 C   0  0  0  0  0  3  0  0  0  0  0  0
  161.2150  207.1350  150.3320 C   0  0  0  0  0  0  0  0  0  0  0  0
  162.5240  206.6550  146.8720 N   0  0  0  0  0  0  0  0  0  0  0  0
  161.2590  204.2600  148.3170 N   0  0  0  0  0  0  0  0  0  0  0  0
  161.8060  209.2900  149.4160 C   0  0  0  0  0  0  0  0  0  0  0  0
  161.9440  207.2940  148.0190 C   0  0  0  0  0  0  0  0  0  0  0  0
  161.0740  206.0530  151.3780 C   0  0  1  0  0  3  0  0  0  0  0  0
  161.9790  210.6290  149.5450 F   0  0  0  0  0  0  0  0  0  0  0  0
  161.3170  205.1430  149.2640 C   0  0  0  0  0  0  0  0  0  0  0  0
  162.1370  208.6700  148.2000 C   0  0  0  0  0  3  0  0  0  0  0  0
  161.3420  208.5270  150.5060 C   0  0  0  0  0  0  0  0  0  0  0  0
  161.1600  204.8450  150.6060 O   0  0  0  0  0  0  0  0  0  0  0  0
  161.4220  206.5670  149.0930 C   0  0  0  0  0  0  0  0  0  0  0  0
  161.1260  204.6090  146.9070 C   0  0  0  0  0  2  0  0  0  0  0  0
  163.1680  210.2170  152.0500 O   0  0  0  0  0  0  0  0  0  0  0  0
  161.0850  209.1860  151.7530 N   0  0  0  0  0  2  0  0  0  0  0  0
  161.9880  210.0430  152.4590 C   0  0  0  0  0  0  0  0  0  0  0  0
  161.5170  210.7060  153.7180 C   0  0  1  0  0  3  0  0  0  0  0  0
  157.8340  211.4930  154.2900 C   0  0  0  0  0  3  0  0  0  0  0  0
  159.1070  210.9330  154.4450 C   0  0  0  0  0  3  0  0  0  0  0  0
  158.6230  212.7720  152.3920 C   0  0  0  0  0  3  0  0  0  0  0  0
  157.5910  212.4130  153.2650 C   0  0  0  0  0  3  0  0  0  0  0  0
  159.8960  212.2110  152.5450 C   0  0  0  0  0  3  0  0  0  0  0  0
  160.1450  211.2930  153.5720 C   0  0  0  0  0  0  0  0  0  0  0  0
  162.3990  210.4450  155.7220 C   0  0  0  0  0  1  0  0  0  0  0  0
  161.5730  209.8160  154.7930 O   0  0  0  0  0  0  0  0  0  0  0  0
  162.1570  206.1120  152.2650 O   0  0  0  0  0  0  0  0  0  0  0  0
  161.6550  205.7040  153.5050 C   0  0  0  0  0  3  0  0  0  0  0  0
  160.7540  206.7840  154.0740 C   0  0  0  0  0  1  0  0  0  0  0  0
  160.8400  204.4430  153.3230 C   0  0  0  0  0  1  0  0  0  0  0  0
  1  3  2  0  0  0  0
  1 14  1  0  0  0  0
  2 11  1  0  0  0  0
  2  7  1  0  0  0  0
  3  6  1  0  0  0  0
  4  9  2  0  0  0  0
  5  8  1  0  0  0  0
  5 11  2  0  0  0  0
  6 10  2  0  0  0  0
  6 13  1  0  0  0  0
  7 27  1  1  0  0  0
  9 12  1  0  0  0  0
 10  5  1  0  0  0  0
 11 16  1  0  0  0  0
 12  7  1  0  0  0  0
 13  9  1  0  0  0  0
 13  2  2  0  0  0  0
 14  4  1  0  0  0  0
 15 17  2  0  0  0  0
 16 17  1  0  0  0  0
 18 17  1  6  0  0  0
 18 26  1  0  0  0  0
 19 20  1  0  0  0  0
 21 23  2  0  0  0  0
 21 22  1  0  0  0  0
 22 19  2  0  0  0  0
 23 24  1  0  0  0  0
 24 18  1  0  0  0  0
 24 20  2  0  0  0  0
 26 25  1  0  0  0  0
 27 28  1  0  0  0  0
 28 29  1  0  0  0  0
 30 28  1  0  0  0  0
M  END
>  <MODEL>
8

>  <REMARK>
 VINA RESULT:      -6.1      2.480      7.770
  Name = 
  6 active torsions:
  status: ('A' for Active; 'I' for Inactive)
    1  A    between atoms: O_2  and  C_3
    2  A    between atoms: O_2  and  C_14
    3  A    between atoms: N_11  and  C_20
    4  A    between atoms: C_12  and  C_22
    5  A    between atoms: O_19  and  C_22
    6  A    between atoms: C_22  and  C_29
                            x       y       z     vdW  Elec       q    Type
                         _______ _______ _______ _____ _____    ______ ____

>  <TORSDO>
F 6

$$$$
=
 OpenBabel11042420223D

 30 33  0  0  1  0  0  0  0  0999 V2000
  161.9660  205.3730  148.8840 C   0  0  0  0  0  3  0  0  0  0  0  0
  160.9680  207.8450  152.3710 C   0  0  0  0  0  0  0  0  0  0  0  0
  162.2840  206.6160  149.1040 N   0  0  0  0  0  0  0  0  0  0  0  0
  160.9390  204.6120  151.0020 N   0  0  0  0  0  0  0  0  0  0  0  0
  161.6290  209.7430  151.0330 C   0  0  0  0  0  0  0  0  0  0  0  0
  161.7170  207.4960  150.0850 C   0  0  0  0  0  0  0  0  0  0  0  0
  160.7890  207.0100  153.6180 C   0  0  1  0  0  3  0  0  0  0  0  0
  161.8410  211.0740  150.8820 F   0  0  0  0  0  0  0  0  0  0  0  0
  161.0170  205.6710  151.7440 C   0  0  0  0  0  0  0  0  0  0  0  0
  161.9490  208.8740  149.9770 C   0  0  0  0  0  3  0  0  0  0  0  0
  161.1360  209.2380  152.2520 C   0  0  0  0  0  0  0  0  0  0  0  0
  160.8440  205.6660  153.1170 O   0  0  0  0  0  0  0  0  0  0  0  0
  161.1660  207.0250  151.2810 C   0  0  0  0  0  0  0  0  0  0  0  0
  160.8260  204.6620  149.5480 C   0  0  0  0  0  2  0  0  0  0  0  0
  158.9210  211.1330  152.5300 O   0  0  0  0  0  0  0  0  0  0  0  0
  160.8920  210.1510  153.3300 N   0  0  0  0  0  2  0  0  0  0  0  0
  159.7710  211.0330  153.4550 C   0  0  0  0  0  0  0  0  0  0  0  0
  159.6450  211.8660  154.6950 C   0  0  1  0  0  3  0  0  0  0  0  0
  156.5000  214.0010  154.9490 C   0  0  0  0  0  3  0  0  0  0  0  0
  157.8240  213.6190  154.7040 C   0  0  0  0  0  3  0  0  0  0  0  0
  155.9840  211.7530  155.6850 C   0  0  0  0  0  3  0  0  0  0  0  0
  155.5800  213.0690  155.4380 C   0  0  0  0  0  3  0  0  0  0  0  0
  157.3080  211.3700  155.4420 C   0  0  0  0  0  3  0  0  0  0  0  0
  158.2320  212.2990  154.9480 C   0  0  0  0  0  0  0  0  0  0  0  0
  160.8140  212.1790  156.5390 C   0  0  0  0  0  1  0  0  0  0  0  0
  160.1710  211.1900  155.7980 O   0  0  0  0  0  0  0  0  0  0  0  0
  161.8680  207.2230  154.4870 O   0  0  0  0  0  0  0  0  0  0  0  0
  161.3120  207.3210  155.7660 C   0  0  0  0  0  3  0  0  0  0  0  0
  161.9600  208.4680  156.5200 C   0  0  0  0  0  1  0  0  0  0  0  0
  159.8300  207.5990  155.6480 C   0  0  0  0  0  1  0  0  0  0  0  0
  1  3  2  0  0  0  0
  1 14  1  0  0  0  0
  2  7  1  0  0  0  0
  3  6  1  0  0  0  0
  4  9  2  0  0  0  0
  5 11  2  0  0  0  0
  6 13  1  0  0  0  0
  7 27  1  1  0  0  0
  8  5  1  0  0  0  0
  9 12  1  0  0  0  0
 10  6  2  0  0  0  0
 10  5  1  0  0  0  0
 11  2  1  0  0  0  0
 11 16  1  0  0  0  0
 12  7  1  0  0  0  0
 13  9  1  0  0  0  0
 13  2  2  0  0  0  0
 14  4  1  0  0  0  0
 15 17  2  0  0  0  0
 16 17  1  0  0  0  0
 18 17  1  6  0  0  0
 18 24  1  0  0  0  0
 18 26  1  0  0  0  0
 19 22  1  0  0  0  0
 20 24  1  0  0  0  0
 20 19  2  0  0  0  0
 22 21  2  0  0  0  0
 23 21  1  0  0  0  0
 24 23  2  0  0  0  0
 26 25  1  0  0  0  0
 27 28  1  0  0  0  0
 28 29  1  0  0  0  0
 30 28  1  0  0  0  0
M  END
>  <MODEL>
9

>  <REMARK>
 VINA RESULT:      -6.0      2.722      8.073
  Name = 
  6 active torsions:
  status: ('A' for Active; 'I' for Inactive)
    1  A    between atoms: O_2  and  C_3
    2  A    between atoms: O_2  and  C_14
    3  A    between atoms: N_11  and  C_20
    4  A    between atoms: C_12  and  C_22
    5  A    between atoms: O_19  and  C_22
    6  A    between atoms: C_22  and  C_29
                            x       y       z     vdW  Elec       q    Type
                         _______ _______ _______ _____ _____    ______ ____

>  <TORSDO>
F 6

$$$$
