=
 OpenBabel11042422463D

 38 41  0  0  1  0  0  0  0  0999 V2000
  160.9470  208.8690  154.3830 C   0  0  2  0  0  3  0  0  0  0  0  0
  158.4640  212.6430  156.7420 C   0  0  0  0  0  3  0  0  0  0  0  0
  161.1720  207.8340  153.2620 C   0  0  2  0  0  3  0  0  0  0  0  0
  160.7850  213.2350  157.2000 N   0  0  0  0  0  1  0  0  0  0  0  0
  161.7210  211.0410  155.5090 C   0  0  2  0  0  3  0  0  0  0  0  0
  157.5100  211.8260  156.1350 C   0  0  0  0  0  3  0  0  0  0  0  0
  159.2720  210.5030  155.1320 C   0  0  0  0  0  0  0  0  0  0  0  0
  159.6450  209.4310  154.3200 O   0  0  0  0  0  0  0  0  0  0  0  0
  161.1930  210.9420  152.3270 N   0  0  0  0  0  2  0  0  0  0  0  0
  157.9120  210.7600  155.3300 C   0  0  0  0  0  3  0  0  0  0  0  0
  160.2450  211.3000  155.7640 C   0  0  0  0  0  0  0  0  0  0  0  0
  162.3860  210.6190  153.1040 C   0  0  0  0  0  2  0  0  0  0  0  0
  162.0230  209.9730  154.4470 C   0  0  2  0  0  3  0  0  0  0  0  0
  161.3810  208.8290  150.9930 C   0  0  0  0  0  2  0  0  0  0  0  0
  159.8260  212.3820  156.5720 C   0  0  0  0  0  0  0  0  0  0  0  0
  161.2880  210.3620  150.9850 C   0  0  2  0  0  3  0  0  0  0  0  0
  160.4170  208.1700  151.9770 C   0  0  0  0  0  2  0  0  0  0  0  0
  162.4770  210.7180  156.7840 C   0  0  0  0  0  1  0  0  0  0  0  0
  160.9010  206.2780  155.0960 O   0  0  0  0  0  1  0  0  0  0  0  0
  160.8550  206.4030  153.7060 C   0  0  2  0  0  3  0  0  0  0  0  0
  161.8500  205.4430  153.0810 C   0  0  0  0  0  2  0  0  0  0  0  0
  161.1200  204.3410  152.3410 C   0  0  0  0  0  2  0  0  0  0  0  0
  160.7440  204.8290  150.9470 C   0  0  0  0  0  2  0  0  0  0  0  0
  160.9270  203.7190  149.9290 C   0  0  0  0  0  2  0  0  0  0  0  0
  161.0810  204.2930  148.6060 N   0  0  0  0  0  2  0  0  0  0  0  0
  160.7860  205.7110  148.7070 C   0  0  0  0  0  2  0  0  0  0  0  0
  160.8910  206.2550  146.2430 N   0  0  0  0  0  1  0  0  0  0  0  0
  161.4050  206.4400  147.5560 C   0  0  0  0  0  0  0  0  0  0  0  0
  162.3780  207.2120  147.7520 O   0  0  0  0  0  0  0  0  0  0  0  0
  162.4820  210.9180  150.2150 C   0  0  0  0  0  2  0  0  0  0  0  0
  162.4920  212.9840  147.0240 C   0  0  0  0  0  3  0  0  0  0  0  0
  160.4310  213.4260  148.2390 C   0  0  0  0  0  0  0  0  0  0  0  0
  160.8640  212.5720  149.2640 C   0  0  0  0  0  3  0  0  0  0  0  0
  162.9030  212.1140  148.0400 C   0  0  0  0  0  3  0  0  0  0  0  0
  162.0950  211.9140  149.1640 C   0  0  0  0  0  0  0  0  0  0  0  0
  161.2640  213.6420  147.1260 C   0  0  0  0  0  3  0  0  0  0  0  0
  159.1580  214.0000  148.3230 O   0  0  0  0  0  0  0  0  0  0  0  0
  158.2920  213.8050  149.4290 C   0  0  0  0  0  1  0  0  0  0  0  0
  1  8  1  6  0  0  0
  1 13  1  0  0  0  0
  3 20  1  1  0  0  0
  3  1  1  0  0  0  0
  5 11  1  0  0  0  0
  5 18  1  1  0  0  0
  6  2  2  0  0  0  0
  7 10  2  0  0  0  0
  7 11  1  0  0  0  0
  8  7  1  0  0  0  0
  9 12  1  0  0  0  0
 10  6  1  0  0  0  0
 11 15  2  0  0  0  0
 13 12  1  6  0  0  0
 13  5  1  0  0  0  0
 14 17  1  0  0  0  0
 15  2  1  0  0  0  0
 15  4  1  0  0  0  0
 16 30  1  1  0  0  0
 16 14  1  0  0  0  0
 16  9  1  0  0  0  0
 17  3  1  0  0  0  0
 20 19  1  1  0  0  0
 21 20  1  0  0  0  0
 22 21  1  0  0  0  0
 23 22  1  0  0  0  0
 24 23  1  0  0  0  0
 25 26  1  0  0  0  0
 25 24  1  0  0  0  0
 27 28  1  0  0  0  0
 28 29  2  0  0  0  0
 28 26  1  0  0  0  0
 31 36  2  0  0  0  0
 31 34  1  0  0  0  0
 32 37  1  0  0  0  0
 32 33  2  0  0  0  0
 34 35  2  0  0  0  0
 35 33  1  0  0  0  0
 35 30  1  0  0  0  0
 36 32  1  0  0  0  0
 37 38  1  0  0  0  0
M  END
>  <MODEL>
1

>  <REMARK>
 VINA RESULT:      -5.6      0.000      0.000
  Name = 
  11 active torsions:
  status: ('A' for Active; 'I' for Inactive)
    1  A    between atoms: C_3  and  C_20
    2  A    between atoms: C_4  and  C_20
    3  A    between atoms: C_4  and  C_30
    4  A    between atoms: O_5  and  C_7
    5  A    between atoms: C_11  and  N_23
    6  A    between atoms: C_11  and  C_25
    7  A    between atoms: N_23  and  C_34
    8  A    between atoms: C_25  and  C_30
    9  A    between atoms: C_26  and  C_35
   10  A    between atoms: C_29  and  C_35
   11  A    between atoms: C_34  and  C_36
                            x       y       z     vdW  Elec       q    Type
                         _______ _______ _______ _____ _____    ______ ____

>  <TORSDO>
F 11

$$$$
=
 OpenBabel11042422463D

 38 41  0  0  1  0  0  0  0  0999 V2000
  161.1980  210.6410  152.2650 C   0  0  2  0  0  3  0  0  0  0  0  0
  162.2020  210.7240  157.2610 C   0  0  0  0  0  3  0  0  0  0  0  0
  161.5020  210.3250  150.7860 C   0  0  2  0  0  3  0  0  0  0  0  0
  159.7970  210.3220  157.2600 N   0  0  0  0  0  1  0  0  0  0  0  0
  159.7900  210.1130  154.3430 C   0  0  2  0  0  3  0  0  0  0  0  0
  163.4110  210.8970  156.5850 C   0  0  0  0  0  3  0  0  0  0  0  0
  162.2810  210.5690  154.4690 C   0  0  0  0  0  0  0  0  0  0  0  0
  162.3530  210.4930  153.0770 O   0  0  0  0  0  0  0  0  0  0  0  0
  161.3240  207.7560  152.7600 N   0  0  0  0  0  2  0  0  0  0  0  0
  163.4510  210.8170  155.1930 C   0  0  0  0  0  3  0  0  0  0  0  0
  161.0500  210.4250  155.1350 C   0  0  0  0  0  0  0  0  0  0  0  0
  160.0060  208.3470  152.5450 C   0  0  0  0  0  2  0  0  0  0  0  0
  160.0080  209.8500  152.8470 C   0  0  2  0  0  3  0  0  0  0  0  0
  161.8890  207.9140  150.3240 C   0  0  0  0  0  2  0  0  0  0  0  0
  161.0220  210.5010  156.5470 C   0  0  0  0  0  0  0  0  0  0  0  0
  161.7530  207.0220  151.5670 C   0  0  2  0  0  3  0  0  0  0  0  0
  162.5720  209.2500  150.6110 C   0  0  0  0  0  2  0  0  0  0  0  0
  158.7210  211.1740  154.5230 C   0  0  0  0  0  1  0  0  0  0  0  0
  160.8800  212.5570  150.0820 O   0  0  0  0  0  1  0  0  0  0  0  0
  161.8670  211.5740  149.9780 C   0  0  2  0  0  3  0  0  0  0  0  0
  162.0550  211.2010  148.5190 C   0  0  0  0  0  2  0  0  0  0  0  0
  162.8990  212.2440  147.8170 C   0  0  0  0  0  2  0  0  0  0  0  0
  162.0810  212.8960  146.7080 C   0  0  0  0  0  2  0  0  0  0  0  0
  160.6550  212.3780  146.7250 C   0  0  0  0  0  2  0  0  0  0  0  0
  159.8070  213.2620  145.9490 N   0  0  0  0  0  2  0  0  0  0  0  0
  158.8750  213.8910  146.8670 C   0  0  0  0  0  2  0  0  0  0  0  0
  157.2220  212.7980  148.4330 N   0  0  0  0  0  1  0  0  0  0  0  0
  157.7120  212.9810  147.1110 C   0  0  0  0  0  0  0  0  0  0  0  0
  157.1730  212.3800  146.1470 O   0  0  0  0  0  0  0  0  0  0  0  0
  160.8010  205.8750  151.2400 C   0  0  0  0  0  2  0  0  0  0  0  0
  161.4100  203.2620  148.5470 C   0  0  0  0  0  3  0  0  0  0  0  0
  161.2230  205.4470  147.4930 C   0  0  0  0  0  0  0  0  0  0  0  0
  161.0760  206.0330  148.7590 C   0  0  0  0  0  3  0  0  0  0  0  0
  161.2350  203.8540  149.8030 C   0  0  0  0  0  3  0  0  0  0  0  0
  161.0770  205.2400  149.9110 C   0  0  0  0  0  0  0  0  0  0  0  0
  161.4090  204.0550  147.3980 C   0  0  0  0  0  3  0  0  0  0  0  0
  161.1270  206.2530  146.3540 O   0  0  0  0  0  0  0  0  0  0  0  0
  161.0280  205.7290  145.0400 C   0  0  0  0  0  1  0  0  0  0  0  0
  1 13  1  0  0  0  0
  1  8  1  1  0  0  0
  3 20  1  6  0  0  0
  3  1  1  0  0  0  0
  5 18  1  6  0  0  0
  5 11  1  0  0  0  0
  6  2  1  0  0  0  0
  7 11  2  0  0  0  0
  7 10  1  0  0  0  0
  8  7  1  0  0  0  0
 10  6  2  0  0  0  0
 11 15  1  0  0  0  0
 12  9  1  0  0  0  0
 13 12  1  1  0  0  0
 13  5  1  0  0  0  0
 14 17  1  0  0  0  0
 14 16  1  0  0  0  0
 15  4  1  0  0  0  0
 15  2  2  0  0  0  0
 16 30  1  6  0  0  0
 16  9  1  0  0  0  0
 17  3  1  0  0  0  0
 20 19  1  6  0  0  0
 21 20  1  0  0  0  0
 22 21  1  0  0  0  0
 23 24  1  0  0  0  0
 23 22  1  0  0  0  0
 25 24  1  0  0  0  0
 25 26  1  0  0  0  0
 26 28  1  0  0  0  0
 28 27  1  0  0  0  0
 29 28  2  0  0  0  0
 31 34  1  0  0  0  0
 32 33  2  0  0  0  0
 33 35  1  0  0  0  0
 34 35  2  0  0  0  0
 35 30  1  0  0  0  0
 36 32  1  0  0  0  0
 36 31  2  0  0  0  0
 37 32  1  0  0  0  0
 38 37  1  0  0  0  0
M  END
>  <MODEL>
2

>  <REMARK>
 VINA RESULT:      -5.3      2.321      6.439
  Name = 
  11 active torsions:
  status: ('A' for Active; 'I' for Inactive)
    1  A    between atoms: C_3  and  C_20
    2  A    between atoms: C_4  and  C_20
    3  A    between atoms: C_4  and  C_30
    4  A    between atoms: O_5  and  C_7
    5  A    between atoms: C_11  and  N_23
    6  A    between atoms: C_11  and  C_25
    7  A    between atoms: N_23  and  C_34
    8  A    between atoms: C_25  and  C_30
    9  A    between atoms: C_26  and  C_35
   10  A    between atoms: C_29  and  C_35
   11  A    between atoms: C_34  and  C_36
                            x       y       z     vdW  Elec       q    Type
                         _______ _______ _______ _____ _____    ______ ____

>  <TORSDO>
F 11

$$$$
=
 OpenBabel11042422463D

 38 41  0  0  1  0  0  0  0  0999 V2000
  161.2430  210.6020  152.2580 C   0  0  2  0  0  3  0  0  0  0  0  0
  162.2110  210.7420  157.2590 C   0  0  0  0  0  3  0  0  0  0  0  0
  161.5560  210.2680  150.7850 C   0  0  2  0  0  3  0  0  0  0  0  0
  159.8050  210.3490  157.2460 N   0  0  0  0  0  1  0  0  0  0  0  0
  159.8180  210.1050  154.3320 C   0  0  2  0  0  3  0  0  0  0  0  0
  163.4250  210.9020  156.5910 C   0  0  0  0  0  3  0  0  0  0  0  0
  162.3100  210.5530  154.4710 C   0  0  0  0  0  0  0  0  0  0  0  0
  162.3920  210.4600  153.0800 O   0  0  0  0  0  0  0  0  0  0  0  0
  161.3540  207.7240  152.7880 N   0  0  0  0  0  2  0  0  0  0  0  0
  163.4750  210.8050  155.2000 C   0  0  0  0  0  3  0  0  0  0  0  0
  161.0740  210.4210  155.1290 C   0  0  0  0  0  0  0  0  0  0  0  0
  160.0400  208.3160  152.5570 C   0  0  0  0  0  2  0  0  0  0  0  0
  160.0460  209.8230  152.8400 C   0  0  2  0  0  3  0  0  0  0  0  0
  161.9380  207.8500  150.3550 C   0  0  0  0  0  2  0  0  0  0  0  0
  161.0350  210.5140  156.5400 C   0  0  0  0  0  0  0  0  0  0  0  0
  161.7900  206.9730  151.6070 C   0  0  2  0  0  3  0  0  0  0  0  0
  162.6240  209.1870  150.6310 C   0  0  0  0  0  2  0  0  0  0  0  0
  158.7520  211.1710  154.4910 C   0  0  0  0  0  1  0  0  0  0  0  0
  160.9660  212.5080  150.0800 O   0  0  0  0  0  1  0  0  0  0  0  0
  161.9330  211.5060  149.9650 C   0  0  2  0  0  3  0  0  0  0  0  0
  162.0890  211.1220  148.5050 C   0  0  0  0  0  2  0  0  0  0  0  0
  161.5560  212.2260  147.6140 C   0  0  0  0  0  2  0  0  0  0  0  0
  162.7200  212.9230  146.9190 C   0  0  0  0  0  2  0  0  0  0  0  0
  162.2610  213.5510  145.6160 C   0  0  0  0  0  2  0  0  0  0  0  0
  163.2320  213.2750  144.5750 N   0  0  0  0  0  2  0  0  0  0  0  0
  162.8640  214.0630  143.4130 C   0  0  0  0  0  2  0  0  0  0  0  0
  160.9090  213.9360  141.8180 N   0  0  0  0  0  1  0  0  0  0  0  0
  161.9420  213.2740  142.5370 C   0  0  0  0  0  0  0  0  0  0  0  0
  162.0810  212.0280  142.4400 O   0  0  0  0  0  0  0  0  0  0  0  0
  160.8360  205.8260  151.2870 C   0  0  0  0  0  2  0  0  0  0  0  0
  161.3150  203.2840  148.5010 C   0  0  0  0  0  3  0  0  0  0  0  0
  161.1750  205.5070  147.5210 C   0  0  0  0  0  0  0  0  0  0  0  0
  161.0690  206.0560  148.8070 C   0  0  0  0  0  3  0  0  0  0  0  0
  161.1820  203.8400  149.7780 C   0  0  0  0  0  3  0  0  0  0  0  0
  161.0680  205.2260  149.9330 C   0  0  0  0  0  0  0  0  0  0  0  0
  161.3170  204.1140  147.3780 C   0  0  0  0  0  3  0  0  0  0  0  0
  161.0830  206.3520  146.4100 O   0  0  0  0  0  0  0  0  0  0  0  0
  160.3140  206.0400  145.2610 C   0  0  0  0  0  1  0  0  0  0  0  0
  1 13  1  0  0  0  0
  1  8  1  1  0  0  0
  3 20  1  6  0  0  0
  3  1  1  0  0  0  0
  5 18  1  6  0  0  0
  5 11  1  0  0  0  0
  6  2  1  0  0  0  0
  7 11  2  0  0  0  0
  7 10  1  0  0  0  0
  8  7  1  0  0  0  0
 10  6  2  0  0  0  0
 11 15  1  0  0  0  0
 12  9  1  0  0  0  0
 13 12  1  1  0  0  0
 13  5  1  0  0  0  0
 14 17  1  0  0  0  0
 14 16  1  0  0  0  0
 15  4  1  0  0  0  0
 15  2  2  0  0  0  0
 16 30  1  6  0  0  0
 16  9  1  0  0  0  0
 17  3  1  0  0  0  0
 20 19  1  6  0  0  0
 21 20  1  0  0  0  0
 22 21  1  0  0  0  0
 23 22  1  0  0  0  0
 24 23  1  0  0  0  0
 25 24  1  0  0  0  0
 26 25  1  0  0  0  0
 27 28  1  0  0  0  0
 28 26  1  0  0  0  0
 29 28  2  0  0  0  0
 31 34  1  0  0  0  0
 32 33  2  0  0  0  0
 33 35  1  0  0  0  0
 34 35  2  0  0  0  0
 35 30  1  0  0  0  0
 36 32  1  0  0  0  0
 36 31  2  0  0  0  0
 37 32  1  0  0  0  0
 38 37  1  0  0  0  0
M  END
>  <MODEL>
3

>  <REMARK>
 VINA RESULT:      -5.2      2.842      6.610
  Name = 
  11 active torsions:
  status: ('A' for Active; 'I' for Inactive)
    1  A    between atoms: C_3  and  C_20
    2  A    between atoms: C_4  and  C_20
    3  A    between atoms: C_4  and  C_30
    4  A    between atoms: O_5  and  C_7
    5  A    between atoms: C_11  and  N_23
    6  A    between atoms: C_11  and  C_25
    7  A    between atoms: N_23  and  C_34
    8  A    between atoms: C_25  and  C_30
    9  A    between atoms: C_26  and  C_35
   10  A    between atoms: C_29  and  C_35
   11  A    between atoms: C_34  and  C_36
                            x       y       z     vdW  Elec       q    Type
                         _______ _______ _______ _____ _____    ______ ____

>  <TORSDO>
F 11

$$$$
=
 OpenBabel11042422463D

 38 41  0  0  1  0  0  0  0  0999 V2000
  161.4640  209.5270  152.5070 C   0  0  2  0  0  3  0  0  0  0  0  0
  162.0210  211.2780  157.2610 C   0  0  0  0  0  3  0  0  0  0  0  0
  161.8960  208.7480  151.2480 C   0  0  2  0  0  3  0  0  0  0  0  0
  159.6230  210.8400  157.1880 N   0  0  0  0  0  1  0  0  0  0  0  0
  159.8740  209.6800  154.5150 C   0  0  2  0  0  3  0  0  0  0  0  0
  163.2850  211.2480  156.6720 C   0  0  0  0  0  3  0  0  0  0  0  0
  162.3460  210.2130  154.6950 C   0  0  0  0  0  0  0  0  0  0  0  0
  162.5410  209.6830  153.4180 O   0  0  0  0  0  0  0  0  0  0  0  0
  161.5300  206.9710  153.9380 N   0  0  0  0  0  2  0  0  0  0  0  0
  163.4490  210.7140  155.3940 C   0  0  0  0  0  3  0  0  0  0  0  0
  161.0600  210.2660  155.2640 C   0  0  0  0  0  0  0  0  0  0  0  0
  160.2400  207.4250  153.4280 C   0  0  0  0  0  2  0  0  0  0  0  0
  160.2230  208.9430  153.2140 C   0  0  2  0  0  3  0  0  0  0  0  0
  162.3110  206.3300  151.6450 C   0  0  0  0  0  2  0  0  0  0  0  0
  160.9070  210.8030  156.5630 C   0  0  0  0  0  0  0  0  0  0  0  0
  162.0600  205.8950  153.0960 C   0  0  2  0  0  3  0  0  0  0  0  0
  162.9720  207.7020  151.5300 C   0  0  0  0  0  2  0  0  0  0  0  0
  158.7990  210.7130  154.2420 C   0  0  0  0  0  1  0  0  0  0  0  0
  161.5580  210.8270  150.0540 O   0  0  0  0  0  1  0  0  0  0  0  0
  162.3380  209.6700  150.1070 C   0  0  2  0  0  3  0  0  0  0  0  0
  162.2330  208.9310  148.7850 C   0  0  0  0  0  2  0  0  0  0  0  0
  161.1950  207.8320  148.8820 C   0  0  0  0  0  2  0  0  0  0  0  0
  161.0820  207.1210  147.5380 C   0  0  0  0  0  2  0  0  0  0  0  0
  162.3740  206.3960  147.2100 C   0  0  0  0  0  2  0  0  0  0  0  0
  162.3060  205.8660  145.8620 N   0  0  0  0  0  2  0  0  0  0  0  0
  162.4220  204.4220  145.9530 C   0  0  0  0  0  2  0  0  0  0  0  0
  160.9090  202.4360  145.5690 N   0  0  0  0  0  1  0  0  0  0  0  0
  161.2650  203.7760  145.2560 C   0  0  0  0  0  0  0  0  0  0  0  0
  160.6120  204.4200  144.3950 O   0  0  0  0  0  0  0  0  0  0  0  0
  161.1350  204.6810  153.0870 C   0  0  0  0  0  2  0  0  0  0  0  0
  160.4190  204.4800  149.3590 C   0  0  0  0  0  3  0  0  0  0  0  0
  160.9850  202.2570  150.1710 C   0  0  0  0  0  0  0  0  0  0  0  0
  161.0990  202.7720  151.4710 C   0  0  0  0  0  3  0  0  0  0  0  0
  160.5620  204.9880  150.6550 C   0  0  0  0  0  3  0  0  0  0  0  0
  160.8930  204.1340  151.7130 C   0  0  0  0  0  0  0  0  0  0  0  0
  160.6240  203.1190  149.1190 C   0  0  0  0  0  3  0  0  0  0  0  0
  161.2840  200.9100  149.9440 O   0  0  0  0  0  0  0  0  0  0  0  0
  161.6450  200.4000  148.6710 C   0  0  0  0  0  1  0  0  0  0  0  0
  1 13  1  0  0  0  0
  1  8  1  1  0  0  0
  3 20  1  6  0  0  0
  3 17  1  0  0  0  0
  3  1  1  0  0  0  0
  5 18  1  6  0  0  0
  5 11  1  0  0  0  0
  6  2  1  0  0  0  0
  7 11  2  0  0  0  0
  7 10  1  0  0  0  0
  8  7  1  0  0  0  0
 10  6  2  0  0  0  0
 11 15  1  0  0  0  0
 12  9  1  0  0  0  0
 13 12  1  1  0  0  0
 13  5  1  0  0  0  0
 14 16  1  0  0  0  0
 15  4  1  0  0  0  0
 15  2  2  0  0  0  0
 16 30  1  6  0  0  0
 16  9  1  0  0  0  0
 17 14  1  0  0  0  0
 20 19  1  6  0  0  0
 21 22  1  0  0  0  0
 21 20  1  0  0  0  0
 23 22  1  0  0  0  0
 24 23  1  0  0  0  0
 25 26  1  0  0  0  0
 25 24  1  0  0  0  0
 28 27  1  0  0  0  0
 28 26  1  0  0  0  0
 29 28  2  0  0  0  0
 31 34  1  0  0  0  0
 32 33  2  0  0  0  0
 33 35  1  0  0  0  0
 34 35  2  0  0  0  0
 35 30  1  0  0  0  0
 36 31  2  0  0  0  0
 36 32  1  0  0  0  0
 37 32  1  0  0  0  0
 38 37  1  0  0  0  0
M  END
>  <MODEL>
4

>  <REMARK>
 VINA RESULT:      -5.1      2.690      6.150
  Name = 
  11 active torsions:
  status: ('A' for Active; 'I' for Inactive)
    1  A    between atoms: C_3  and  C_20
    2  A    between atoms: C_4  and  C_20
    3  A    between atoms: C_4  and  C_30
    4  A    between atoms: O_5  and  C_7
    5  A    between atoms: C_11  and  N_23
    6  A    between atoms: C_11  and  C_25
    7  A    between atoms: N_23  and  C_34
    8  A    between atoms: C_25  and  C_30
    9  A    between atoms: C_26  and  C_35
   10  A    between atoms: C_29  and  C_35
   11  A    between atoms: C_34  and  C_36
                            x       y       z     vdW  Elec       q    Type
                         _______ _______ _______ _____ _____    ______ ____

>  <TORSDO>
F 11

$$$$
=
 OpenBabel11042422463D

 38 41  0  0  1  0  0  0  0  0999 V2000
  160.8750  205.0940  149.1380 C   0  0  2  0  0  3  0  0  0  0  0  0
  163.0780  204.7540  144.5560 C   0  0  0  0  0  3  0  0  0  0  0  0
  160.8640  205.1810  150.6780 C   0  0  2  0  0  3  0  0  0  0  0  0
  161.1780  206.2030  144.0690 N   0  0  0  0  0  1  0  0  0  0  0  0
  160.4590  206.2810  146.9030 C   0  0  2  0  0  3  0  0  0  0  0  0
  163.8600  204.0270  145.4540 C   0  0  0  0  0  3  0  0  0  0  0  0
  162.4450  204.7500  147.2800 C   0  0  0  0  0  0  0  0  0  0  0  0
  162.1560  204.7320  148.6460 O   0  0  0  0  0  0  0  0  0  0  0  0
  162.3510  207.6240  149.1460 N   0  0  0  0  0  2  0  0  0  0  0  0
  163.5460  204.0260  146.8130 C   0  0  0  0  0  3  0  0  0  0  0  0
  161.6290  205.4620  146.3810 C   0  0  0  0  0  0  0  0  0  0  0  0
  160.9040  207.6880  148.9580 C   0  0  0  0  0  2  0  0  0  0  0  0
  160.3470  206.3600  148.4320 C   0  0  2  0  0  3  0  0  0  0  0  0
  162.1010  207.1350  151.5900 C   0  0  0  0  0  2  0  0  0  0  0  0
  161.9610  205.4610  145.0060 C   0  0  0  0  0  0  0  0  0  0  0  0
  162.7060  208.0370  150.5060 C   0  0  2  0  0  3  0  0  0  0  0  0
  162.1970  205.6460  151.2610 C   0  0  0  0  0  2  0  0  0  0  0  0
  159.1350  205.8290  146.3180 C   0  0  0  0  0  1  0  0  0  0  0  0
  160.4570  203.9680  152.7340 O   0  0  0  0  0  1  0  0  0  0  0  0
  160.4230  203.8720  151.3410 C   0  0  2  0  0  3  0  0  0  0  0  0
  161.3310  202.7420  150.8920 C   0  0  0  0  0  2  0  0  0  0  0  0
  160.5070  201.5360  150.4920 C   0  0  0  0  0  2  0  0  0  0  0  0
  160.3640  201.5000  148.9740 C   0  0  0  0  0  2  0  0  0  0  0  0
  161.4040  200.5790  148.3650 C   0  0  0  0  0  2  0  0  0  0  0  0
  161.2240  200.5270  146.9270 N   0  0  0  0  0  2  0  0  0  0  0  0
  160.7340  201.8250  146.5000 C   0  0  0  0  0  2  0  0  0  0  0  0
  159.6280  202.8700  144.4830 N   0  0  0  0  0  1  0  0  0  0  0  0
  160.0820  201.7030  145.1580 C   0  0  0  0  0  0  0  0  0  0  0  0
  159.9340  200.5710  144.6320 O   0  0  0  0  0  0  0  0  0  0  0  0
  162.2860  209.4790  150.7830 C   0  0  0  0  0  2  0  0  0  0  0  0
  159.8230  209.3290  153.6740 C   0  0  0  0  0  3  0  0  0  0  0  0
  161.9200  210.2640  154.4770 C   0  0  0  0  0  0  0  0  0  0  0  0
  162.4420  210.1830  153.1780 C   0  0  0  0  0  3  0  0  0  0  0  0
  160.3620  209.2280  152.3870 C   0  0  0  0  0  3  0  0  0  0  0  0
  161.6680  209.6630  152.1350 C   0  0  0  0  0  0  0  0  0  0  0  0
  160.5960  209.8490  154.7140 C   0  0  0  0  0  3  0  0  0  0  0  0
  162.7460  210.7040  155.5170 O   0  0  0  0  0  0  0  0  0  0  0  0
  162.7460  210.1170  156.8080 C   0  0  0  0  0  1  0  0  0  0  0  0
  1  8  1  6  0  0  0
  1  3  1  0  0  0  0
  2 15  2  0  0  0  0
  2  6  1  0  0  0  0
  3 17  1  0  0  0  0
  3 20  1  1  0  0  0
  4 15  1  0  0  0  0
  5 18  1  1  0  0  0
  5 13  1  0  0  0  0
  6 10  2  0  0  0  0
  7  8  1  0  0  0  0
  9 16  1  0  0  0  0
 10  7  1  0  0  0  0
 11  5  1  0  0  0  0
 11  7  2  0  0  0  0
 12  9  1  0  0  0  0
 13 12  1  1  0  0  0
 13  1  1  0  0  0  0
 15 11  1  0  0  0  0
 16 30  1  1  0  0  0
 16 14  1  0  0  0  0
 17 14  1  0  0  0  0
 20 19  1  1  0  0  0
 21 20  1  0  0  0  0
 22 21  1  0  0  0  0
 23 22  1  0  0  0  0
 24 23  1  0  0  0  0
 25 24  1  0  0  0  0
 26 25  1  0  0  0  0
 27 28  1  0  0  0  0
 28 26  1  0  0  0  0
 29 28  2  0  0  0  0
 30 35  1  0  0  0  0
 31 36  1  0  0  0  0
 32 36  2  0  0  0  0
 32 37  1  0  0  0  0
 33 32  1  0  0  0  0
 34 31  2  0  0  0  0
 35 34  1  0  0  0  0
 35 33  2  0  0  0  0
 37 38  1  0  0  0  0
M  END
>  <MODEL>
5

>  <REMARK>
 VINA RESULT:      -4.2      3.578      7.881
  Name = 
  11 active torsions:
  status: ('A' for Active; 'I' for Inactive)
    1  A    between atoms: C_3  and  C_20
    2  A    between atoms: C_4  and  C_20
    3  A    between atoms: C_4  and  C_30
    4  A    between atoms: O_5  and  C_7
    5  A    between atoms: C_11  and  N_23
    6  A    between atoms: C_11  and  C_25
    7  A    between atoms: N_23  and  C_34
    8  A    between atoms: C_25  and  C_30
    9  A    between atoms: C_26  and  C_35
   10  A    between atoms: C_29  and  C_35
   11  A    between atoms: C_34  and  C_36
                            x       y       z     vdW  Elec       q    Type
                         _______ _______ _______ _____ _____    ______ ____

>  <TORSDO>
F 11

$$$$
=
 OpenBabel11042422463D

 38 41  0  0  1  0  0  0  0  0999 V2000
  160.8880  205.2490  149.2540 C   0  0  2  0  0  3  0  0  0  0  0  0
  163.1460  204.8290  144.7050 C   0  0  0  0  0  3  0  0  0  0  0  0
  160.8600  205.3870  150.7900 C   0  0  2  0  0  3  0  0  0  0  0  0
  161.2030  206.1950  144.1530 N   0  0  0  0  0  1  0  0  0  0  0  0
  160.4540  206.3450  146.9760 C   0  0  2  0  0  3  0  0  0  0  0  0
  163.9430  204.1590  145.6330 C   0  0  0  0  0  3  0  0  0  0  0  0
  162.4870  204.8960  147.4220 C   0  0  0  0  0  0  0  0  0  0  0  0
  162.1860  204.9150  148.7850 O   0  0  0  0  0  0  0  0  0  0  0  0
  162.2780  207.8260  149.1880 N   0  0  0  0  0  2  0  0  0  0  0  0
  163.6160  204.1940  146.9890 C   0  0  0  0  0  3  0  0  0  0  0  0
  161.6560  205.5490  146.4930 C   0  0  0  0  0  0  0  0  0  0  0  0
  160.8330  207.8350  148.9850 C   0  0  0  0  0  2  0  0  0  0  0  0
  160.3250  206.4710  148.5000 C   0  0  2  0  0  3  0  0  0  0  0  0
  162.0210  207.4120  151.6450 C   0  0  0  0  0  2  0  0  0  0  0  0
  162.0010  205.5130  145.1210 C   0  0  0  0  0  0  0  0  0  0  0  0
  162.6060  208.2980  150.5360 C   0  0  2  0  0  3  0  0  0  0  0  0
  162.1710  205.9170  151.3670 C   0  0  0  0  0  2  0  0  0  0  0  0
  159.1520  205.8280  146.3960 C   0  0  0  0  0  1  0  0  0  0  0  0
  160.5440  204.2100  152.8820 O   0  0  0  0  0  1  0  0  0  0  0  0
  160.4570  204.0880  151.4930 C   0  0  2  0  0  3  0  0  0  0  0  0
  161.3560  202.9570  151.0300 C   0  0  0  0  0  2  0  0  0  0  0  0
  160.5230  201.7680  150.5990 C   0  0  0  0  0  2  0  0  0  0  0  0
  160.4230  201.7420  149.0780 C   0  0  0  0  0  2  0  0  0  0  0  0
  161.4710  200.8140  148.4930 C   0  0  0  0  0  2  0  0  0  0  0  0
  161.2040  200.6070  147.0830 N   0  0  0  0  0  2  0  0  0  0  0  0
  160.8290  201.8900  146.5160 C   0  0  0  0  0  2  0  0  0  0  0  0
  159.6020  202.7930  144.5000 N   0  0  0  0  0  1  0  0  0  0  0  0
  160.1550  201.6820  145.1950 C   0  0  0  0  0  0  0  0  0  0  0  0
  160.0780  200.5270  144.7050 O   0  0  0  0  0  0  0  0  0  0  0  0
  162.1360  209.7320  150.7590 C   0  0  0  0  0  2  0  0  0  0  0  0
  161.8710  210.2050  154.5220 C   0  0  0  0  0  3  0  0  0  0  0  0
  159.6990  210.6500  153.5200 C   0  0  0  0  0  0  0  0  0  0  0  0
  160.2250  210.3250  152.2610 C   0  0  0  0  0  3  0  0  0  0  0  0
  162.3920  209.9090  153.2580 C   0  0  0  0  0  3  0  0  0  0  0  0
  161.5690  209.9600  152.1280 C   0  0  0  0  0  0  0  0  0  0  0  0
  160.5290  210.5680  154.6540 C   0  0  0  0  0  3  0  0  0  0  0  0
  158.3770  211.0980  153.6110 O   0  0  0  0  0  0  0  0  0  0  0  0
  158.0140  212.4640  153.5060 C   0  0  0  0  0  1  0  0  0  0  0  0
  1  8  1  6  0  0  0
  1  3  1  0  0  0  0
  2 15  2  0  0  0  0
  2  6  1  0  0  0  0
  3 17  1  0  0  0  0
  3 20  1  1  0  0  0
  4 15  1  0  0  0  0
  5 18  1  1  0  0  0
  5 13  1  0  0  0  0
  6 10  2  0  0  0  0
  7  8  1  0  0  0  0
  9 16  1  0  0  0  0
 10  7  1  0  0  0  0
 11  5  1  0  0  0  0
 11  7  2  0  0  0  0
 12  9  1  0  0  0  0
 13 12  1  1  0  0  0
 13  1  1  0  0  0  0
 15 11  1  0  0  0  0
 16 30  1  1  0  0  0
 16 14  1  0  0  0  0
 17 14  1  0  0  0  0
 20 19  1  1  0  0  0
 21 20  1  0  0  0  0
 22 21  1  0  0  0  0
 23 22  1  0  0  0  0
 24 23  1  0  0  0  0
 25 24  1  0  0  0  0
 26 25  1  0  0  0  0
 27 28  1  0  0  0  0
 28 26  1  0  0  0  0
 29 28  2  0  0  0  0
 30 35  1  0  0  0  0
 31 36  1  0  0  0  0
 32 37  1  0  0  0  0
 32 36  2  0  0  0  0
 33 32  1  0  0  0  0
 34 31  2  0  0  0  0
 35 33  2  0  0  0  0
 35 34  1  0  0  0  0
 38 37  1  0  0  0  0
M  END
>  <MODEL>
6

>  <REMARK>
 VINA RESULT:      -4.0      3.219      7.544
  Name = 
  11 active torsions:
  status: ('A' for Active; 'I' for Inactive)
    1  A    between atoms: C_3  and  C_20
    2  A    between atoms: C_4  and  C_20
    3  A    between atoms: C_4  and  C_30
    4  A    between atoms: O_5  and  C_7
    5  A    between atoms: C_11  and  N_23
    6  A    between atoms: C_11  and  C_25
    7  A    between atoms: N_23  and  C_34
    8  A    between atoms: C_25  and  C_30
    9  A    between atoms: C_26  and  C_35
   10  A    between atoms: C_29  and  C_35
   11  A    between atoms: C_34  and  C_36
                            x       y       z     vdW  Elec       q    Type
                         _______ _______ _______ _____ _____    ______ ____

>  <TORSDO>
F 11

$$$$
=
 OpenBabel11042422463D

 38 41  0  0  1  0  0  0  0  0999 V2000
  161.9450  211.2070  150.4340 C   0  0  2  0  0  3  0  0  0  0  0  0
  159.7850  214.0280  146.7800 C   0  0  0  0  0  3  0  0  0  0  0  0
  161.9670  210.1180  151.5260 C   0  0  2  0  0  3  0  0  0  0  0  0
  162.0390  213.7410  145.8960 N   0  0  0  0  0  1  0  0  0  0  0  0
  162.7220  211.9490  148.1040 C   0  0  2  0  0  3  0  0  0  0  0  0
  158.8110  213.7730  147.7460 C   0  0  0  0  0  3  0  0  0  0  0  0
  160.3620  212.3490  148.9410 C   0  0  0  0  0  0  0  0  0  0  0  0
  160.6190  211.5120  150.0290 O   0  0  0  0  0  0  0  0  0  0  0  0
  161.3050  209.0800  148.5240 N   0  0  0  0  0  2  0  0  0  0  0  0
  159.0980  212.9340  148.8230 C   0  0  0  0  0  3  0  0  0  0  0  0
  161.3630  212.6220  147.9920 C   0  0  0  0  0  0  0  0  0  0  0  0
  162.7040  209.4770  148.6460 C   0  0  0  0  0  2  0  0  0  0  0  0
  162.8380  210.8950  149.2140 C   0  0  2  0  0  3  0  0  0  0  0  0
  161.3720  207.8480  150.7050 C   0  0  0  0  0  2  0  0  0  0  0  0
  161.0600  213.4690  146.9000 C   0  0  0  0  0  0  0  0  0  0  0  0
  161.0790  207.7990  149.1980 C   0  0  2  0  0  3  0  0  0  0  0  0
  160.8320  209.1060  151.3850 C   0  0  0  0  0  2  0  0  0  0  0  0
  163.8520  212.9510  148.2330 C   0  0  0  0  0  1  0  0  0  0  0  0
  162.9510  210.0820  153.7380 O   0  0  0  0  0  1  0  0  0  0  0  0
  161.9850  210.7020  152.9420 C   0  0  2  0  0  3  0  0  0  0  0  0
  160.6190  210.5290  153.5810 C   0  0  0  0  0  2  0  0  0  0  0  0
  160.3660  211.6380  154.5810 C   0  0  0  0  0  2  0  0  0  0  0  0
  159.9180  211.0340  155.9070 C   0  0  0  0  0  2  0  0  0  0  0  0
  161.1050  210.4540  156.6540 C   0  0  0  0  0  2  0  0  0  0  0  0
  160.7540  209.1520  157.1880 N   0  0  0  0  0  2  0  0  0  0  0  0
  161.4610  208.1540  156.4070 C   0  0  0  0  0  2  0  0  0  0  0  0
  160.8260  206.9280  154.2910 N   0  0  0  0  0  1  0  0  0  0  0  0
  160.4840  207.3520  155.6050 C   0  0  0  0  0  0  0  0  0  0  0  0
  159.3630  207.0580  156.0930 O   0  0  0  0  0  0  0  0  0  0  0  0
  161.9130  206.6820  148.5770 C   0  0  0  0  0  2  0  0  0  0  0  0
  160.4560  203.8560  150.6600 C   0  0  0  0  0  3  0  0  0  0  0  0
  161.0900  202.9780  148.4810 C   0  0  0  0  0  0  0  0  0  0  0  0
  161.5790  204.2440  148.1260 C   0  0  0  0  0  3  0  0  0  0  0  0
  160.9220  205.1200  150.2860 C   0  0  0  0  0  3  0  0  0  0  0  0
  161.4920  205.3140  149.0220 C   0  0  0  0  0  0  0  0  0  0  0  0
  160.5450  202.7880  149.7640 C   0  0  0  0  0  3  0  0  0  0  0  0
  161.1090  201.9500  147.5330 O   0  0  0  0  0  0  0  0  0  0  0  0
  161.2070  200.5790  147.8800 C   0  0  0  0  0  1  0  0  0  0  0  0
  1  8  1  6  0  0  0
  1  3  1  0  0  0  0
  2 15  2  0  0  0  0
  2  6  1  0  0  0  0
  3 20  1  1  0  0  0
  4 15  1  0  0  0  0
  5 18  1  1  0  0  0
  5 13  1  0  0  0  0
  6 10  2  0  0  0  0
  7  8  1  0  0  0  0
  9 12  1  0  0  0  0
  9 16  1  0  0  0  0
 10  7  1  0  0  0  0
 11  5  1  0  0  0  0
 11  7  2  0  0  0  0
 13 12  1  6  0  0  0
 13  1  1  0  0  0  0
 14 17  1  0  0  0  0
 15 11  1  0  0  0  0
 16 30  1  6  0  0  0
 16 14  1  0  0  0  0
 17  3  1  0  0  0  0
 20 21  1  0  0  0  0
 20 19  1  1  0  0  0
 21 22  1  0  0  0  0
 22 23  1  0  0  0  0
 23 24  1  0  0  0  0
 24 25  1  0  0  0  0
 26 25  1  0  0  0  0
 27 28  1  0  0  0  0
 28 29  2  0  0  0  0
 28 26  1  0  0  0  0
 30 35  1  0  0  0  0
 32 36  1  0  0  0  0
 33 32  2  0  0  0  0
 33 35  1  0  0  0  0
 34 31  1  0  0  0  0
 35 34  2  0  0  0  0
 36 31  2  0  0  0  0
 37 38  1  0  0  0  0
 37 32  1  0  0  0  0
M  END
>  <MODEL>
7

>  <REMARK>
 VINA RESULT:      -3.7      2.408      7.866
  Name = 
  11 active torsions:
  status: ('A' for Active; 'I' for Inactive)
    1  A    between atoms: C_3  and  C_20
    2  A    between atoms: C_4  and  C_20
    3  A    between atoms: C_4  and  C_30
    4  A    between atoms: O_5  and  C_7
    5  A    between atoms: C_11  and  N_23
    6  A    between atoms: C_11  and  C_25
    7  A    between atoms: N_23  and  C_34
    8  A    between atoms: C_25  and  C_30
    9  A    between atoms: C_26  and  C_35
   10  A    between atoms: C_29  and  C_35
   11  A    between atoms: C_34  and  C_36
                            x       y       z     vdW  Elec       q    Type
                         _______ _______ _______ _____ _____    ______ ____

>  <TORSDO>
F 11

$$$$
=
 OpenBabel11042422463D

 38 41  0  0  1  0  0  0  0  0999 V2000
  161.4600  211.8230  150.2120 C   0  0  2  0  0  3  0  0  0  0  0  0
  159.0410  214.2010  146.4080 C   0  0  0  0  0  3  0  0  0  0  0  0
  161.6330  210.7330  151.2900 C   0  0  2  0  0  3  0  0  0  0  0  0
  161.3700  214.4530  145.7290 N   0  0  0  0  0  1  0  0  0  0  0  0
  162.2470  212.7910  147.9700 C   0  0  2  0  0  3  0  0  0  0  0  0
  158.0710  213.7050  147.2790 C   0  0  0  0  0  3  0  0  0  0  0  0
  159.7950  212.6280  148.5940 C   0  0  0  0  0  0  0  0  0  0  0  0
  160.1390  211.8360  149.6910 O   0  0  0  0  0  0  0  0  0  0  0  0
  161.4820  209.6670  148.2290 N   0  0  0  0  0  2  0  0  0  0  0  0
  158.4460  212.9190  148.3680 C   0  0  0  0  0  3  0  0  0  0  0  0
  160.7860  213.1470  147.7420 C   0  0  0  0  0  0  0  0  0  0  0  0
  162.7400  210.3630  148.4820 C   0  0  0  0  0  2  0  0  0  0  0  0
  162.5010  211.7570  149.0750 C   0  0  2  0  0  3  0  0  0  0  0  0
  161.6380  208.4150  150.3930 C   0  0  0  0  0  2  0  0  0  0  0  0
  160.3950  213.9390  146.6370 C   0  0  0  0  0  0  0  0  0  0  0  0
  161.4940  208.3470  148.8660 C   0  0  2  0  0  3  0  0  0  0  0  0
  160.7720  209.4980  151.0350 C   0  0  0  0  0  2  0  0  0  0  0  0
  163.1060  214.0170  148.2130 C   0  0  0  0  0  1  0  0  0  0  0  0
  162.0520  210.4800  153.6610 O   0  0  0  0  0  1  0  0  0  0  0  0
  161.3970  211.2620  152.7080 C   0  0  2  0  0  3  0  0  0  0  0  0
  159.9090  211.2760  153.0050 C   0  0  0  0  0  2  0  0  0  0  0  0
  159.4770  212.6580  153.4490 C   0  0  0  0  0  2  0  0  0  0  0  0
  158.5970  213.2860  152.3740 C   0  0  0  0  0  2  0  0  0  0  0  0
  157.2650  213.7160  152.9620 C   0  0  0  0  0  2  0  0  0  0  0  0
  157.1730  213.2640  154.3370 N   0  0  0  0  0  2  0  0  0  0  0  0
  155.8960  212.5900  154.4910 C   0  0  0  0  0  2  0  0  0  0  0  0
  157.3490  210.8390  155.5880 N   0  0  0  0  0  1  0  0  0  0  0  0
  156.1180  211.1890  154.9680 C   0  0  0  0  0  0  0  0  0  0  0  0
  155.2160  210.3240  154.8180 O   0  0  0  0  0  0  0  0  0  0  0  0
  162.6090  207.4650  148.3110 C   0  0  0  0  0  2  0  0  0  0  0  0
  161.9970  204.3500  146.2200 C   0  0  0  0  0  3  0  0  0  0  0  0
  161.1690  203.9580  148.4740 C   0  0  0  0  0  0  0  0  0  0  0  0
  161.5260  205.2680  148.8220 C   0  0  0  0  0  3  0  0  0  0  0  0
  162.3730  205.6460  146.5850 C   0  0  0  0  0  3  0  0  0  0  0  0
  162.1300  206.1110  147.8830 C   0  0  0  0  0  0  0  0  0  0  0  0
  161.3920  203.5110  147.1590 C   0  0  0  0  0  3  0  0  0  0  0  0
  160.6480  203.1100  149.4580 O   0  0  0  0  0  0  0  0  0  0  0  0
  160.1420  201.8150  149.1760 C   0  0  0  0  0  1  0  0  0  0  0  0
  1  8  1  6  0  0  0
  1  3  1  0  0  0  0
  2 15  2  0  0  0  0
  2  6  1  0  0  0  0
  3 20  1  1  0  0  0
  4 15  1  0  0  0  0
  5 18  1  1  0  0  0
  5 13  1  0  0  0  0
  6 10  2  0  0  0  0
  7  8  1  0  0  0  0
  9 12  1  0  0  0  0
  9 16  1  0  0  0  0
 10  7  1  0  0  0  0
 11  5  1  0  0  0  0
 11  7  2  0  0  0  0
 13 12  1  6  0  0  0
 13  1  1  0  0  0  0
 14 17  1  0  0  0  0
 15 11  1  0  0  0  0
 16 30  1  6  0  0  0
 16 14  1  0  0  0  0
 17  3  1  0  0  0  0
 20 21  1  0  0  0  0
 20 19  1  1  0  0  0
 21 22  1  0  0  0  0
 23 24  1  0  0  0  0
 23 22  1  0  0  0  0
 24 25  1  0  0  0  0
 25 26  1  0  0  0  0
 26 28  1  0  0  0  0
 28 27  1  0  0  0  0
 29 28  2  0  0  0  0
 31 34  2  0  0  0  0
 31 36  1  0  0  0  0
 32 33  1  0  0  0  0
 32 37  1  0  0  0  0
 34 35  1  0  0  0  0
 35 30  1  0  0  0  0
 35 33  2  0  0  0  0
 36 32  2  0  0  0  0
 38 37  1  0  0  0  0
M  END
>  <MODEL>
8

>  <REMARK>
 VINA RESULT:      -3.5      2.808      8.121
  Name = 
  11 active torsions:
  status: ('A' for Active; 'I' for Inactive)
    1  A    between atoms: C_3  and  C_20
    2  A    between atoms: C_4  and  C_20
    3  A    between atoms: C_4  and  C_30
    4  A    between atoms: O_5  and  C_7
    5  A    between atoms: C_11  and  N_23
    6  A    between atoms: C_11  and  C_25
    7  A    between atoms: N_23  and  C_34
    8  A    between atoms: C_25  and  C_30
    9  A    between atoms: C_26  and  C_35
   10  A    between atoms: C_29  and  C_35
   11  A    between atoms: C_34  and  C_36
                            x       y       z     vdW  Elec       q    Type
                         _______ _______ _______ _____ _____    ______ ____

>  <TORSDO>
F 11

$$$$
=
 OpenBabel11042422463D

 38 41  0  0  1  0  0  0  0  0999 V2000
  161.9470  211.1510  150.3920 C   0  0  2  0  0  3  0  0  0  0  0  0
  159.7630  213.9030  146.7000 C   0  0  0  0  0  3  0  0  0  0  0  0
  161.9750  210.0870  151.5090 C   0  0  2  0  0  3  0  0  0  0  0  0
  162.0050  213.5790  145.7960 N   0  0  0  0  0  1  0  0  0  0  0  0
  162.7010  211.8330  148.0360 C   0  0  2  0  0  3  0  0  0  0  0  0
  158.8000  213.6780  147.6830 C   0  0  0  0  0  3  0  0  0  0  0  0
  160.3550  212.2700  148.8920 C   0  0  0  0  0  0  0  0  0  0  0  0
  160.6190  211.4560  149.9960 O   0  0  0  0  0  0  0  0  0  0  0  0
  161.2690  208.9850  148.5390 N   0  0  0  0  0  2  0  0  0  0  0  0
  159.0930  212.8610  148.7760 C   0  0  0  0  0  3  0  0  0  0  0  0
  161.3470  212.5140  147.9250 C   0  0  0  0  0  0  0  0  0  0  0  0
  162.6730  209.3750  148.6350 C   0  0  0  0  0  2  0  0  0  0  0  0
  162.8230  210.8050  149.1700 C   0  0  2  0  0  3  0  0  0  0  0  0
  161.3540  207.8040  150.7470 C   0  0  0  0  0  2  0  0  0  0  0  0
  161.0360  213.3380  146.8180 C   0  0  0  0  0  0  0  0  0  0  0  0
  161.0430  207.7220  149.2460 C   0  0  2  0  0  3  0  0  0  0  0  0
  160.8320  209.0800  151.4040 C   0  0  0  0  0  2  0  0  0  0  0  0
  163.8400  212.8300  148.1290 C   0  0  0  0  0  1  0  0  0  0  0  0
  162.9120  210.0290  153.7400 O   0  0  0  0  0  1  0  0  0  0  0  0
  162.0140  210.7030  152.9100 C   0  0  2  0  0  3  0  0  0  0  0  0
  160.6270  210.6570  153.5260 C   0  0  0  0  0  2  0  0  0  0  0  0
  159.9550  212.0090  153.4020 C   0  0  0  0  0  2  0  0  0  0  0  0
  158.5220  211.8210  152.9190 C   0  0  0  0  0  2  0  0  0  0  0  0
  157.5390  212.2880  153.9760 C   0  0  0  0  0  2  0  0  0  0  0  0
  157.3900  211.2600  154.9880 N   0  0  0  0  0  2  0  0  0  0  0  0
  157.6140  211.8820  156.2810 C   0  0  0  0  0  2  0  0  0  0  0  0
  159.8660  212.5470  157.2150 N   0  0  0  0  0  1  0  0  0  0  0  0
  158.9760  211.5230  156.7860 C   0  0  0  0  0  0  0  0  0  0  0  0
  159.3330  210.3170  156.8280 O   0  0  0  0  0  0  0  0  0  0  0  0
  161.8610  206.5850  148.6410 C   0  0  0  0  0  2  0  0  0  0  0  0
  160.4650  203.8020  150.8220 C   0  0  0  0  0  3  0  0  0  0  0  0
  160.9160  202.9100  148.6040 C   0  0  0  0  0  0  0  0  0  0  0  0
  161.4190  204.1600  148.2140 C   0  0  0  0  0  3  0  0  0  0  0  0
  160.9440  205.0520  150.4150 C   0  0  0  0  0  3  0  0  0  0  0  0
  161.4290  205.2300  149.1150 C   0  0  0  0  0  0  0  0  0  0  0  0
  160.4570  202.7330  149.9220 C   0  0  0  0  0  3  0  0  0  0  0  0
  160.8350  201.8830  147.6560 O   0  0  0  0  0  0  0  0  0  0  0  0
  161.3010  200.5660  147.9000 C   0  0  0  0  0  1  0  0  0  0  0  0
  1  8  1  6  0  0  0
  1  3  1  0  0  0  0
  2 15  2  0  0  0  0
  2  6  1  0  0  0  0
  3 20  1  1  0  0  0
  4 15  1  0  0  0  0
  5 18  1  1  0  0  0
  5 13  1  0  0  0  0
  6 10  2  0  0  0  0
  7  8  1  0  0  0  0
  9 12  1  0  0  0  0
  9 16  1  0  0  0  0
 10  7  1  0  0  0  0
 11  5  1  0  0  0  0
 11  7  2  0  0  0  0
 13 12  1  6  0  0  0
 13  1  1  0  0  0  0
 14 17  1  0  0  0  0
 15 11  1  0  0  0  0
 16 30  1  6  0  0  0
 16 14  1  0  0  0  0
 17  3  1  0  0  0  0
 20 21  1  0  0  0  0
 20 19  1  1  0  0  0
 22 21  1  0  0  0  0
 23 22  1  0  0  0  0
 23 24  1  0  0  0  0
 24 25  1  0  0  0  0
 25 26  1  0  0  0  0
 26 28  1  0  0  0  0
 28 29  2  0  0  0  0
 28 27  1  0  0  0  0
 30 35  1  0  0  0  0
 32 36  1  0  0  0  0
 33 32  2  0  0  0  0
 33 35  1  0  0  0  0
 34 31  1  0  0  0  0
 35 34  2  0  0  0  0
 36 31  2  0  0  0  0
 37 38  1  0  0  0  0
 37 32  1  0  0  0  0
M  END
>  <MODEL>
9

>  <REMARK>
 VINA RESULT:      -3.3      2.390      8.263
  Name = 
  11 active torsions:
  status: ('A' for Active; 'I' for Inactive)
    1  A    between atoms: C_3  and  C_20
    2  A    between atoms: C_4  and  C_20
    3  A    between atoms: C_4  and  C_30
    4  A    between atoms: O_5  and  C_7
    5  A    between atoms: C_11  and  N_23
    6  A    between atoms: C_11  and  C_25
    7  A    between atoms: N_23  and  C_34
    8  A    between atoms: C_25  and  C_30
    9  A    between atoms: C_26  and  C_35
   10  A    between atoms: C_29  and  C_35
   11  A    between atoms: C_34  and  C_36
                            x       y       z     vdW  Elec       q    Type
                         _______ _______ _______ _____ _____    ______ ____

>  <TORSDO>
F 11

$$$$
