=
 OpenBabel11052410483D

 37 39  0  0  1  0  0  0  0  0999 V2000
  161.0930  210.5300  152.9780 N   0  0  0  0  0  0  0  0  0  0  0  0
  160.2340  211.7160  152.9840 C   0  0  0  0  0  0  0  0  0  0  0  0
  159.4390  211.9270  153.9900 O   0  0  0  0  0  0  0  0  0  0  0  0
  161.9920  208.9300  149.5890 C   0  0  0  0  0  3  0  0  0  0  0  0
  161.1680  208.2820  150.5100 C   0  0  0  0  0  0  0  0  0  0  0  0
  160.8050  208.8500  151.5800 C   0  0  0  0  0  2  0  0  0  0  0  0
  162.0160  206.9480  148.3020 C   0  0  0  0  0  0  0  0  0  0  0  0
  161.7570  203.7610  147.1150 N   0  0  0  0  0  0  0  0  0  0  0  0
  162.3920  208.2810  148.4350 C   0  0  0  0  0  3  0  0  0  0  0  0
  161.3560  202.7380  148.2060 C   0  0  1  0  0  3  0  0  0  0  0  0
  162.3050  206.1510  147.2720 N   0  0  0  0  0  2  0  0  0  0  0  0
  161.0330  204.9500  148.9960 C   0  0  2  0  0  3  0  0  0  0  0  0
  161.3410  206.2900  149.2620 C   0  0  0  0  0  0  0  0  0  0  0  0
  161.0070  203.4810  150.0530 S   0  0  0  0  0  0  0  0  0  0  0  0
  161.7940  204.9000  147.7440 C   0  0  0  0  0  0  0  0  0  0  0  0
  160.8420  207.0090  150.3050 N   0  0  0  0  0  0  0  0  0  0  0  0
  160.5860  209.2140  152.7960 C   0  0  0  0  0  2  0  0  0  0  0  0
  160.3960  201.4290  147.7760 C   0  0  0  0  0  2  0  0  0  0  0  0
  160.9560  200.8880  146.4260 C   0  0  0  0  0  2  0  0  0  0  0  0
  160.1460  201.4730  145.2970 C   0  0  0  0  0  1  0  0  0  0  0  0
  162.1080  210.4680  153.9180 C   0  0  0  0  0  2  0  0  0  0  0  0
  161.6520  209.2490  154.7410 C   0  0  0  0  0  2  0  0  0  0  0  0
  161.8800  209.2780  156.2300 C   0  0  0  0  0  2  0  0  0  0  0  0
  160.6360  209.1520  157.1520 C   0  0  2  0  0  3  0  0  0  0  0  0
  159.6450  208.0890  156.4460 C   0  0  0  0  0  1  0  0  0  0  0  0
  161.0350  211.6690  157.2580 O   0  0  0  0  0  1  0  0  0  0  0  0
  160.2210  210.6730  157.0470 C   0  0  0  0  0  0  0  0  0  0  0  0
  158.8500  210.9340  157.1950 O   0  0  0  0  0  0  0  0  0  0  0  0
  159.9430  212.5520  151.7330 C   0  0  0  0  0  2  0  0  0  0  0  0
  161.0520  212.2080  150.6390 C   0  0  0  0  0  2  0  0  0  0  0  0
  158.6160  212.5030  145.0260 C   0  0  0  0  0  1  0  0  0  0  0  0
  162.1590  212.3120  147.7970 O   0  0  0  0  0  0  0  0  0  0  0  0
  160.8260  213.1800  149.5390 N   0  0  0  0  0  2  0  0  0  0  0  0
  159.9660  212.9060  145.7670 C   0  0  0  0  0  0  0  0  0  0  0  0
  159.9060  212.5820  147.1750 N   0  0  0  0  0  2  0  0  0  0  0  0
  161.0250  212.7590  148.1230 C   0  0  0  0  0  0  0  0  0  0  0  0
  161.0020  213.5830  145.3770 O   0  0  0  0  0  0  0  0  0  0  0  0
  1  2  1  0  0  0  0
  1 21  1  0  0  0  0
  2  3  2  0  0  0  0
  4  5  1  0  0  0  0
  5  6  1  0  0  0  0
  6 17  1  0  0  0  0
  7  9  1  0  0  0  0
  7 13  2  0  0  0  0
  8 15  2  0  0  0  0
  8 10  1  0  0  0  0
  9  4  2  0  0  0  0
 10 18  1  6  0  0  0
 10 14  1  0  0  0  0
 11 15  1  0  0  0  0
 11  7  1  0  0  0  0
 12 15  1  6  0  0  0
 12 13  1  0  0  0  0
 12 14  1  0  0  0  0
 13 16  1  0  0  0  0
 16  5  2  0  0  0  0
 17  1  1  0  0  0  0
 19 18  1  0  0  0  0
 20 19  1  0  0  0  0
 21 22  1  0  0  0  0
 22 23  1  0  0  0  0
 23 24  1  0  0  0  0
 24 25  1  6  0  0  0
 27 24  1  0  0  0  0
 27 28  2  0  0  0  0
 27 26  1  0  0  0  0
 29  2  1  0  0  0  0
 30 29  1  0  0  0  0
 31 34  1  0  0  0  0
 32 36  2  0  0  0  0
 33 30  1  0  0  0  0
 34 35  1  0  0  0  0
 35 36  1  0  0  0  0
 36 33  1  0  0  0  0
 37 34  2  0  0  0  0
M  END
>  <MODEL>
1

>  <REMARK>
 VINA RESULT:      -6.7      0.000      0.000
  Name = 
  11 active torsions:
  status: ('A' for Active; 'I' for Inactive)
    1  A    between atoms: C_4  and  N_7
    2  A    between atoms: C_4  and  C_30
    3  A    between atoms: N_7  and  C_37
    4  A    between atoms: C_8  and  C_18
    5  A    between atoms: N_9  and  C_17
    6  A    between atoms: C_11  and  C_16
    7  A    between atoms: C_11  and  C_19
    8  A    between atoms: C_14  and  C_30
    9  A    between atoms: C_14  and  C_32
   10  A    between atoms: C_17  and  C_18
   11  A    between atoms: C_27  and  C_32
                            x       y       z     vdW  Elec       q    Type
                         _______ _______ _______ _____ _____    ______ ____

>  <TORSDO>
F 11

$$$$
=
 OpenBabel11052410483D

 37 39  0  0  1  0  0  0  0  0999 V2000
  160.5900  210.8860  153.3120 N   0  0  0  0  0  0  0  0  0  0  0  0
  161.3870  210.3740  154.4280 C   0  0  0  0  0  0  0  0  0  0  0  0
  162.6150  210.7730  154.5760 O   0  0  0  0  0  0  0  0  0  0  0  0
  161.0930  207.1040  152.7700 C   0  0  0  0  0  3  0  0  0  0  0  0
  161.2190  208.0170  151.7230 C   0  0  0  0  0  0  0  0  0  0  0  0
  161.1420  209.2630  151.9260 C   0  0  0  0  0  2  0  0  0  0  0  0
  161.2620  205.3550  151.1890 C   0  0  0  0  0  0  0  0  0  0  0  0
  161.3680  203.4220  148.3810 N   0  0  0  0  0  0  0  0  0  0  0  0
  161.1630  205.7460  152.5210 C   0  0  0  0  0  3  0  0  0  0  0  0
  160.9720  204.1930  147.0980 C   0  0  1  0  0  3  0  0  0  0  0  0
  161.3360  204.1010  150.7420 N   0  0  0  0  0  2  0  0  0  0  0  0
  161.3450  205.7070  148.8840 C   0  0  2  0  0  3  0  0  0  0  0  0
  161.2410  206.2400  150.1750 C   0  0  0  0  0  0  0  0  0  0  0  0
  160.5500  206.1570  147.3220 S   0  0  0  0  0  0  0  0  0  0  0  0
  161.2800  204.3110  149.3270 C   0  0  0  0  0  0  0  0  0  0  0  0
  161.3240  207.5650  150.4770 N   0  0  0  0  0  0  0  0  0  0  0  0
  160.8280  210.5120  151.9610 C   0  0  0  0  0  2  0  0  0  0  0  0
  161.7170  203.7890  145.6480 C   0  0  0  0  0  2  0  0  0  0  0  0
  160.7960  204.3210  144.5090 C   0  0  0  0  0  2  0  0  0  0  0  0
  161.4870  205.4750  143.8270 C   0  0  0  0  0  1  0  0  0  0  0  0
  160.2530  212.2300  153.3280 C   0  0  0  0  0  2  0  0  0  0  0  0
  158.8570  212.1740  152.6790 C   0  0  0  0  0  2  0  0  0  0  0  0
  158.6280  212.9810  151.4270 C   0  0  0  0  0  2  0  0  0  0  0  0
  157.5960  214.1400  151.4960 C   0  0  2  0  0  3  0  0  0  0  0  0
  156.8120  213.9770  152.8990 C   0  0  0  0  0  1  0  0  0  0  0  0
  157.3550  213.5550  149.0260 O   0  0  0  0  0  0  0  0  0  0  0  0
  156.8060  213.7110  150.1970 C   0  0  0  0  0  0  0  0  0  0  0  0
  155.4260  213.9700  150.2200 O   0  0  0  0  0  1  0  0  0  0  0  0
  160.9990  209.1340  155.2400 C   0  0  0  0  0  2  0  0  0  0  0  0
  161.1410  209.4900  156.7890 C   0  0  0  0  0  2  0  0  0  0  0  0
  155.6240  211.0350  154.6200 C   0  0  0  0  0  1  0  0  0  0  0  0
  159.4420  212.0250  156.7920 O   0  0  0  0  0  0  0  0  0  0  0  0
  159.7540  209.7340  157.2590 N   0  0  0  0  0  2  0  0  0  0  0  0
  156.6200  211.4770  155.7810 C   0  0  0  0  0  0  0  0  0  0  0  0
  157.8120  210.6580  155.7870 N   0  0  0  0  0  2  0  0  0  0  0  0
  158.9630  210.8620  156.6890 C   0  0  0  0  0  0  0  0  0  0  0  0
  156.4870  212.3040  156.7720 O   0  0  0  0  0  0  0  0  0  0  0  0
  1 21  1  0  0  0  0
  1  2  1  0  0  0  0
  2  3  2  0  0  0  0
  2 29  1  0  0  0  0
  5  6  1  0  0  0  0
  5  4  2  0  0  0  0
  6 17  1  0  0  0  0
  7  9  2  0  0  0  0
  8 15  2  0  0  0  0
  9  4  1  0  0  0  0
 10 18  1  6  0  0  0
 10 14  1  0  0  0  0
 10  8  1  0  0  0  0
 11  7  1  0  0  0  0
 12 14  1  6  0  0  0
 12 15  1  0  0  0  0
 12 13  1  0  0  0  0
 13 16  2  0  0  0  0
 13  7  1  0  0  0  0
 15 11  1  0  0  0  0
 16  5  1  0  0  0  0
 17  1  1  0  0  0  0
 19 18  1  0  0  0  0
 20 19  1  0  0  0  0
 22 21  1  0  0  0  0
 23 24  1  0  0  0  0
 23 22  1  0  0  0  0
 24 25  1  1  0  0  0
 26 27  2  0  0  0  0
 27 28  1  0  0  0  0
 27 24  1  0  0  0  0
 29 30  1  0  0  0  0
 30 33  1  0  0  0  0
 31 34  1  0  0  0  0
 34 35  1  0  0  0  0
 34 37  2  0  0  0  0
 35 36  1  0  0  0  0
 36 32  2  0  0  0  0
 36 33  1  0  0  0  0
M  END
>  <MODEL>
2

>  <REMARK>
 VINA RESULT:      -6.4      2.828      6.027
  Name = 
  11 active torsions:
  status: ('A' for Active; 'I' for Inactive)
    1  A    between atoms: C_4  and  N_7
    2  A    between atoms: C_4  and  C_30
    3  A    between atoms: N_7  and  C_37
    4  A    between atoms: C_8  and  C_18
    5  A    between atoms: N_9  and  C_17
    6  A    between atoms: C_11  and  C_16
    7  A    between atoms: C_11  and  C_19
    8  A    between atoms: C_14  and  C_30
    9  A    between atoms: C_14  and  C_32
   10  A    between atoms: C_17  and  C_18
   11  A    between atoms: C_27  and  C_32
                            x       y       z     vdW  Elec       q    Type
                         _______ _______ _______ _____ _____    ______ ____

>  <TORSDO>
F 11

$$$$
=
 OpenBabel11052410483D

 37 39  0  0  1  0  0  0  0  0999 V2000
  161.2480  210.6980  152.4370 N   0  0  0  0  0  0  0  0  0  0  0  0
  160.0570  211.5490  152.4790 C   0  0  0  0  0  0  0  0  0  0  0  0
  158.8880  211.0090  152.6530 O   0  0  0  0  0  0  0  0  0  0  0  0
  161.0380  206.9460  153.2910 C   0  0  0  0  0  3  0  0  0  0  0  0
  161.4450  207.3900  152.0320 C   0  0  0  0  0  0  0  0  0  0  0  0
  161.5970  208.6210  151.7880 C   0  0  0  0  0  2  0  0  0  0  0  0
  161.0080  204.7410  152.4420 C   0  0  0  0  0  0  0  0  0  0  0  0
  160.9980  201.9330  150.5060 N   0  0  0  0  0  0  0  0  0  0  0  0
  160.8600  205.5960  153.5290 C   0  0  0  0  0  3  0  0  0  0  0  0
  160.8890  202.2390  148.9920 C   0  0  1  0  0  3  0  0  0  0  0  0
  160.8730  203.4150  152.4620 N   0  0  0  0  0  2  0  0  0  0  0  0
  161.3810  204.2200  150.1980 C   0  0  2  0  0  3  0  0  0  0  0  0
  161.2610  205.1930  151.1990 C   0  0  0  0  0  0  0  0  0  0  0  0
  160.8470  204.1910  148.4690 S   0  0  0  0  0  0  0  0  0  0  0  0
  160.9970  203.1060  151.0700 C   0  0  0  0  0  0  0  0  0  0  0  0
  161.5770  206.5080  151.0450 N   0  0  0  0  0  0  0  0  0  0  0  0
  161.5360  209.8310  151.3490 C   0  0  0  0  0  2  0  0  0  0  0  0
  161.6750  201.2310  147.9030 C   0  0  0  0  0  2  0  0  0  0  0  0
  160.6750  200.9650  146.7380 C   0  0  0  0  0  2  0  0  0  0  0  0
  160.8170  202.0650  145.7160 C   0  0  0  0  0  1  0  0  0  0  0  0
  161.6150  210.0500  153.6060 C   0  0  0  0  0  2  0  0  0  0  0  0
  161.3300  211.1570  154.6390 C   0  0  0  0  0  2  0  0  0  0  0  0
  160.5990  210.7740  155.9000 C   0  0  0  0  0  2  0  0  0  0  0  0
  161.4510  210.3020  157.1100 C   0  0  2  0  0  3  0  0  0  0  0  0
  162.9560  210.8280  156.8490 C   0  0  0  0  0  1  0  0  0  0  0  0
  162.1370  207.8970  156.6100 O   0  0  0  0  0  1  0  0  0  0  0  0
  161.1980  208.7590  156.8760 C   0  0  0  0  0  0  0  0  0  0  0  0
  159.8940  208.4180  156.4820 O   0  0  0  0  0  0  0  0  0  0  0  0
  160.0420  213.0000  151.9850 C   0  0  0  0  0  2  0  0  0  0  0  0
  159.0880  213.0790  150.7090 C   0  0  0  0  0  2  0  0  0  0  0  0
  160.4630  212.8790  144.7430 C   0  0  0  0  0  1  0  0  0  0  0  0
  161.5360  212.2750  149.0730 O   0  0  0  0  0  0  0  0  0  0  0  0
  159.8680  213.8250  149.6880 N   0  0  0  0  0  2  0  0  0  0  0  0
  161.2130  213.0290  146.1390 C   0  0  0  0  0  0  0  0  0  0  0  0
  160.2740  213.0340  147.2390 N   0  0  0  0  0  2  0  0  0  0  0  0
  160.6550  213.0810  148.6650 C   0  0  0  0  0  0  0  0  0  0  0  0
  162.4480  213.2900  146.4380 O   0  0  0  0  0  0  0  0  0  0  0  0
  1  2  1  0  0  0  0
  1 21  1  0  0  0  0
  2  3  2  0  0  0  0
  4  9  1  0  0  0  0
  5  4  2  0  0  0  0
  6  5  1  0  0  0  0
  7 11  1  0  0  0  0
  7  9  2  0  0  0  0
  8 15  2  0  0  0  0
 10 18  1  6  0  0  0
 10  8  1  0  0  0  0
 12 14  1  6  0  0  0
 12 15  1  0  0  0  0
 12 13  1  0  0  0  0
 13  7  1  0  0  0  0
 14 10  1  0  0  0  0
 15 11  1  0  0  0  0
 16 13  2  0  0  0  0
 16  5  1  0  0  0  0
 17  6  1  0  0  0  0
 17  1  1  0  0  0  0
 19 18  1  0  0  0  0
 20 19  1  0  0  0  0
 21 22  1  0  0  0  0
 22 23  1  0  0  0  0
 23 24  1  0  0  0  0
 24 25  1  6  0  0  0
 26 27  1  0  0  0  0
 27 24  1  0  0  0  0
 28 27  2  0  0  0  0
 29  2  1  0  0  0  0
 30 29  1  0  0  0  0
 31 34  1  0  0  0  0
 33 30  1  0  0  0  0
 34 37  2  0  0  0  0
 34 35  1  0  0  0  0
 35 36  1  0  0  0  0
 36 32  2  0  0  0  0
 36 33  1  0  0  0  0
M  END
>  <MODEL>
3

>  <REMARK>
 VINA RESULT:      -6.4      1.958      2.575
  Name = 
  11 active torsions:
  status: ('A' for Active; 'I' for Inactive)
    1  A    between atoms: C_4  and  N_7
    2  A    between atoms: C_4  and  C_30
    3  A    between atoms: N_7  and  C_37
    4  A    between atoms: C_8  and  C_18
    5  A    between atoms: N_9  and  C_17
    6  A    between atoms: C_11  and  C_16
    7  A    between atoms: C_11  and  C_19
    8  A    between atoms: C_14  and  C_30
    9  A    between atoms: C_14  and  C_32
   10  A    between atoms: C_17  and  C_18
   11  A    between atoms: C_27  and  C_32
                            x       y       z     vdW  Elec       q    Type
                         _______ _______ _______ _____ _____    ______ ____

>  <TORSDO>
F 11

$$$$
=
 OpenBabel11052410483D

 37 39  0  0  1  0  0  0  0  0999 V2000
  160.8490  210.4870  154.0470 N   0  0  0  0  0  0  0  0  0  0  0  0
  161.9630  210.7000  154.9720 C   0  0  0  0  0  0  0  0  0  0  0  0
  163.1780  210.4570  154.5800 O   0  0  0  0  0  0  0  0  0  0  0  0
  161.8530  209.5020  150.4600 C   0  0  0  0  0  3  0  0  0  0  0  0
  161.0590  208.6720  151.2530 C   0  0  0  0  0  0  0  0  0  0  0  0
  160.6600  209.0410  152.3940 C   0  0  0  0  0  2  0  0  0  0  0  0
  161.9910  207.7560  148.8720 C   0  0  0  0  0  0  0  0  0  0  0  0
  161.9090  204.7920  147.1860 N   0  0  0  0  0  0  0  0  0  0  0  0
  162.2930  209.0680  149.2230 C   0  0  0  0  0  3  0  0  0  0  0  0
  161.5580  203.5870  148.0940 C   0  0  1  0  0  3  0  0  0  0  0  0
  162.3270  207.1510  147.7330 N   0  0  0  0  0  2  0  0  0  0  0  0
  161.1110  205.6240  149.2220 C   0  0  2  0  0  3  0  0  0  0  0  0
  161.3460  206.9180  149.7050 C   0  0  0  0  0  0  0  0  0  0  0  0
  161.1580  204.0050  150.0300 S   0  0  0  0  0  0  0  0  0  0  0  0
  161.8820  205.8150  147.9900 C   0  0  0  0  0  0  0  0  0  0  0  0
  160.8030  207.4330  150.8420 N   0  0  0  0  0  0  0  0  0  0  0  0
  160.4140  209.1930  153.6500 C   0  0  0  0  0  2  0  0  0  0  0  0
  160.6720  202.3170  147.4460 C   0  0  0  0  0  2  0  0  0  0  0  0
  160.9360  202.3250  145.9100 C   0  0  0  0  0  2  0  0  0  0  0  0
  160.0020  201.3380  145.2530 C   0  0  0  0  0  1  0  0  0  0  0  0
  160.7620  211.3220  152.9450 C   0  0  0  0  0  2  0  0  0  0  0  0
  159.4600  212.0780  153.2710 C   0  0  0  0  0  2  0  0  0  0  0  0
  159.1450  213.3170  152.4730 C   0  0  0  0  0  2  0  0  0  0  0  0
  159.2220  213.2150  150.9250 C   0  0  2  0  0  3  0  0  0  0  0  0
  160.3200  214.2990  150.4440 C   0  0  0  0  0  1  0  0  0  0  0  0
  157.1240  213.5520  149.5130 O   0  0  0  0  0  0  0  0  0  0  0  0
  157.7080  213.5950  150.6770 C   0  0  0  0  0  0  0  0  0  0  0  0
  157.1350  214.4400  151.6420 O   0  0  0  0  0  1  0  0  0  0  0  0
  161.7830  210.8560  156.4860 C   0  0  0  0  0  2  0  0  0  0  0  0
  160.7810  212.0700  156.7440 C   0  0  0  0  0  2  0  0  0  0  0  0
  155.2160  210.3560  154.8420 C   0  0  0  0  0  1  0  0  0  0  0  0
  157.9530  213.1760  157.0390 O   0  0  0  0  0  0  0  0  0  0  0  0
  159.5380  211.4440  157.2610 N   0  0  0  0  0  2  0  0  0  0  0  0
  155.8700  211.1980  156.0250 C   0  0  0  0  0  0  0  0  0  0  0  0
  157.3120  211.2060  155.9260 N   0  0  0  0  0  2  0  0  0  0  0  0
  158.2090  211.9600  156.8250 C   0  0  0  0  0  0  0  0  0  0  0  0
  155.3650  211.7240  157.0990 O   0  0  0  0  0  0  0  0  0  0  0  0
  1  2  1  0  0  0  0
  2 29  1  0  0  0  0
  3  2  2  0  0  0  0
  4  5  1  0  0  0  0
  5  6  1  0  0  0  0
  6 17  1  0  0  0  0
  7  9  1  0  0  0  0
  7 13  2  0  0  0  0
  8 15  2  0  0  0  0
  8 10  1  0  0  0  0
  9  4  2  0  0  0  0
 10 18  1  6  0  0  0
 10 14  1  0  0  0  0
 11 15  1  0  0  0  0
 11  7  1  0  0  0  0
 12 15  1  6  0  0  0
 12 13  1  0  0  0  0
 12 14  1  0  0  0  0
 13 16  1  0  0  0  0
 16  5  2  0  0  0  0
 17  1  1  0  0  0  0
 19 18  1  0  0  0  0
 20 19  1  0  0  0  0
 21 22  1  0  0  0  0
 21  1  1  0  0  0  0
 23 22  1  0  0  0  0
 24 25  1  6  0  0  0
 24 23  1  0  0  0  0
 26 27  2  0  0  0  0
 27 24  1  0  0  0  0
 27 28  1  0  0  0  0
 29 30  1  0  0  0  0
 30 33  1  0  0  0  0
 31 34  1  0  0  0  0
 34 37  2  0  0  0  0
 35 34  1  0  0  0  0
 35 36  1  0  0  0  0
 36 32  2  0  0  0  0
 36 33  1  0  0  0  0
M  END
>  <MODEL>
4

>  <REMARK>
 VINA RESULT:      -6.4      2.674      5.750
  Name = 
  11 active torsions:
  status: ('A' for Active; 'I' for Inactive)
    1  A    between atoms: C_4  and  N_7
    2  A    between atoms: C_4  and  C_30
    3  A    between atoms: N_7  and  C_37
    4  A    between atoms: C_8  and  C_18
    5  A    between atoms: N_9  and  C_17
    6  A    between atoms: C_11  and  C_16
    7  A    between atoms: C_11  and  C_19
    8  A    between atoms: C_14  and  C_30
    9  A    between atoms: C_14  and  C_32
   10  A    between atoms: C_17  and  C_18
   11  A    between atoms: C_27  and  C_32
                            x       y       z     vdW  Elec       q    Type
                         _______ _______ _______ _____ _____    ______ ____

>  <TORSDO>
F 11

$$$$
=
 OpenBabel11052410483D

 37 39  0  0  1  0  0  0  0  0999 V2000
  161.8010  210.4440  149.5580 N   0  0  0  0  0  0  0  0  0  0  0  0
  161.8900  210.3980  151.0180 C   0  0  0  0  0  0  0  0  0  0  0  0
  163.0550  210.3280  151.5890 O   0  0  0  0  0  0  0  0  0  0  0  0
  161.1140  207.0330  151.2140 C   0  0  0  0  0  3  0  0  0  0  0  0
  161.6740  207.1290  149.9400 C   0  0  0  0  0  0  0  0  0  0  0  0
  161.9790  208.2500  149.4400 C   0  0  0  0  0  2  0  0  0  0  0  0
  160.9200  204.7000  150.8900 C   0  0  0  0  0  0  0  0  0  0  0  0
  160.7760  201.5240  149.6550 N   0  0  0  0  0  0  0  0  0  0  0  0
  160.7700  205.7980  151.7310 C   0  0  0  0  0  3  0  0  0  0  0  0
  160.8340  201.4710  148.1080 C   0  0  1  0  0  3  0  0  0  0  0  0
  160.6410  203.4330  151.1960 N   0  0  0  0  0  2  0  0  0  0  0  0
  161.4290  203.6330  148.8790 C   0  0  2  0  0  3  0  0  0  0  0  0
  161.3280  204.8210  149.6130 C   0  0  0  0  0  0  0  0  0  0  0  0
  161.0480  203.2400  147.1540 S   0  0  0  0  0  0  0  0  0  0  0  0
  160.8520  202.7930  149.9330 C   0  0  0  0  0  0  0  0  0  0  0  0
  161.7960  206.0310  149.2000 N   0  0  0  0  0  0  0  0  0  0  0  0
  162.0880  209.3220  148.7340 C   0  0  0  0  0  2  0  0  0  0  0  0
  161.5980  200.1710  147.3700 C   0  0  0  0  0  2  0  0  0  0  0  0
  160.8990  199.9640  145.9920 C   0  0  0  0  0  2  0  0  0  0  0  0
  161.3020  198.6180  145.4430 C   0  0  0  0  0  1  0  0  0  0  0  0
  162.2880  211.5750  148.9210 C   0  0  0  0  0  2  0  0  0  0  0  0
  161.1530  212.5720  149.2190 C   0  0  0  0  0  2  0  0  0  0  0  0
  160.4020  213.1560  148.0490 C   0  0  0  0  0  2  0  0  0  0  0  0
  160.4500  212.3800  146.7040 C   0  0  2  0  0  3  0  0  0  0  0  0
  161.5480  213.1230  145.7810 C   0  0  0  0  0  1  0  0  0  0  0  0
  158.5400  213.2500  145.2560 O   0  0  0  0  0  0  0  0  0  0  0  0
  158.9350  212.6350  146.3340 C   0  0  0  0  0  0  0  0  0  0  0  0
  158.0400  212.6150  147.4150 O   0  0  0  0  0  1  0  0  0  0  0  0
  160.6960  210.0740  151.9240 C   0  0  0  0  0  2  0  0  0  0  0  0
  161.2030  210.0880  153.4360 C   0  0  0  0  0  2  0  0  0  0  0  0
  155.9800  213.2360  154.0130 C   0  0  0  0  0  1  0  0  0  0  0  0
  160.1360  212.1800  155.3850 O   0  0  0  0  0  0  0  0  0  0  0  0
  159.9680  210.1140  154.2590 N   0  0  0  0  0  2  0  0  0  0  0  0
  157.1710  212.7150  154.9330 C   0  0  0  0  0  0  0  0  0  0  0  0
  158.1390  211.9680  154.1610 N   0  0  0  0  0  2  0  0  0  0  0  0
  159.3970  211.4170  154.7030 C   0  0  0  0  0  0  0  0  0  0  0  0
  157.3390  212.7140  156.2190 O   0  0  0  0  0  0  0  0  0  0  0  0
  1  2  1  0  0  0  0
  2  3  2  0  0  0  0
  2 29  1  0  0  0  0
  4  9  1  0  0  0  0
  5  4  2  0  0  0  0
  6  5  1  0  0  0  0
  7 11  1  0  0  0  0
  7  9  2  0  0  0  0
  8 15  2  0  0  0  0
 10 18  1  1  0  0  0
 10  8  1  0  0  0  0
 12 14  1  6  0  0  0
 12 13  1  0  0  0  0
 12 15  1  0  0  0  0
 13  7  1  0  0  0  0
 14 10  1  0  0  0  0
 15 11  1  0  0  0  0
 16 13  2  0  0  0  0
 16  5  1  0  0  0  0
 17  6  1  0  0  0  0
 17  1  1  0  0  0  0
 19 18  1  0  0  0  0
 20 19  1  0  0  0  0
 21 22  1  0  0  0  0
 21  1  1  0  0  0  0
 23 22  1  0  0  0  0
 24 25  1  6  0  0  0
 24 23  1  0  0  0  0
 26 27  2  0  0  0  0
 27 24  1  0  0  0  0
 27 28  1  0  0  0  0
 29 30  1  0  0  0  0
 30 33  1  0  0  0  0
 31 34  1  0  0  0  0
 33 36  1  0  0  0  0
 34 37  2  0  0  0  0
 35 36  1  0  0  0  0
 35 34  1  0  0  0  0
 36 32  2  0  0  0  0
M  END
>  <MODEL>
5

>  <REMARK>
 VINA RESULT:      -6.3      2.299      6.367
  Name = 
  11 active torsions:
  status: ('A' for Active; 'I' for Inactive)
    1  A    between atoms: C_4  and  N_7
    2  A    between atoms: C_4  and  C_30
    3  A    between atoms: N_7  and  C_37
    4  A    between atoms: C_8  and  C_18
    5  A    between atoms: N_9  and  C_17
    6  A    between atoms: C_11  and  C_16
    7  A    between atoms: C_11  and  C_19
    8  A    between atoms: C_14  and  C_30
    9  A    between atoms: C_14  and  C_32
   10  A    between atoms: C_17  and  C_18
   11  A    between atoms: C_27  and  C_32
                            x       y       z     vdW  Elec       q    Type
                         _______ _______ _______ _____ _____    ______ ____

>  <TORSDO>
F 11

$$$$
=
 OpenBabel11052410483D

 37 39  0  0  1  0  0  0  0  0999 V2000
  160.9030  210.5470  152.9590 N   0  0  0  0  0  0  0  0  0  0  0  0
  161.6460  210.2790  154.1910 C   0  0  0  0  0  0  0  0  0  0  0  0
  162.8960  210.6260  154.2750 O   0  0  0  0  0  0  0  0  0  0  0  0
  161.0190  206.7160  153.3590 C   0  0  0  0  0  3  0  0  0  0  0  0
  161.2680  207.3330  152.1320 C   0  0  0  0  0  0  0  0  0  0  0  0
  161.3160  208.5920  152.0280 C   0  0  0  0  0  2  0  0  0  0  0  0
  161.0440  204.6290  152.2500 C   0  0  0  0  0  0  0  0  0  0  0  0
  161.0190  202.0730  149.9920 N   0  0  0  0  0  0  0  0  0  0  0  0
  160.9520  205.3380  153.4440 C   0  0  0  0  0  3  0  0  0  0  0  0
  160.7400  202.5450  148.5440 C   0  0  1  0  0  3  0  0  0  0  0  0
  160.9970  203.3030  152.1190 N   0  0  0  0  0  2  0  0  0  0  0  0
  161.2230  204.4030  149.9350 C   0  0  2  0  0  3  0  0  0  0  0  0
  161.1420  205.2400  151.0550 C   0  0  0  0  0  0  0  0  0  0  0  0
  160.5210  204.5360  148.2720 S   0  0  0  0  0  0  0  0  0  0  0  0
  161.0000  203.1690  150.6940 C   0  0  0  0  0  0  0  0  0  0  0  0
  161.3570  206.5850  151.0360 N   0  0  0  0  0  0  0  0  0  0  0  0
  161.1350  209.8370  151.7500 C   0  0  0  0  0  2  0  0  0  0  0  0
  161.4750  201.7330  147.2710 C   0  0  0  0  0  2  0  0  0  0  0  0
  160.8790  202.3260  145.9580 C   0  0  0  0  0  2  0  0  0  0  0  0
  160.0810  201.2520  145.2610 C   0  0  0  0  0  1  0  0  0  0  0  0
  160.6570  211.8710  152.6330 C   0  0  0  0  0  2  0  0  0  0  0  0
  159.1230  211.9120  152.7740 C   0  0  0  0  0  2  0  0  0  0  0  0
  158.3540  212.8180  151.8480 C   0  0  0  0  0  2  0  0  0  0  0  0
  158.0880  214.2740  152.3210 C   0  0  2  0  0  3  0  0  0  0  0  0
  157.9440  214.2170  153.9300 C   0  0  0  0  0  1  0  0  0  0  0  0
  155.5560  214.3170  152.0150 O   0  0  0  0  0  1  0  0  0  0  0  0
  156.7470  214.4520  151.5040 C   0  0  0  0  0  0  0  0  0  0  0  0
  156.8630  214.2820  150.1150 O   0  0  0  0  0  0  0  0  0  0  0  0
  161.1630  209.3050  155.2710 C   0  0  0  0  0  2  0  0  0  0  0  0
  161.3730  209.9970  156.6930 C   0  0  0  0  0  2  0  0  0  0  0  0
  155.5870  210.7000  154.8110 C   0  0  0  0  0  1  0  0  0  0  0  0
  159.4280  212.3380  156.4940 O   0  0  0  0  0  0  0  0  0  0  0  0
  160.0060  210.1770  157.2420 N   0  0  0  0  0  2  0  0  0  0  0  0
  156.6120  211.3940  155.8110 C   0  0  0  0  0  0  0  0  0  0  0  0
  157.8790  210.6970  155.8270 N   0  0  0  0  0  2  0  0  0  0  0  0
  159.0650  211.1340  156.5920 C   0  0  0  0  0  0  0  0  0  0  0  0
  156.4660  212.3400  156.6870 O   0  0  0  0  0  0  0  0  0  0  0  0
  1  2  1  0  0  0  0
  2  3  2  0  0  0  0
  2 29  1  0  0  0  0
  4  9  1  0  0  0  0
  5  4  2  0  0  0  0
  6  5  1  0  0  0  0
  7  9  2  0  0  0  0
  8 15  2  0  0  0  0
 10 18  1  6  0  0  0
 10  8  1  0  0  0  0
 11  7  1  0  0  0  0
 12 14  1  6  0  0  0
 12 15  1  0  0  0  0
 12 13  1  0  0  0  0
 13  7  1  0  0  0  0
 14 10  1  0  0  0  0
 15 11  1  0  0  0  0
 16 13  2  0  0  0  0
 16  5  1  0  0  0  0
 17  6  1  0  0  0  0
 17  1  1  0  0  0  0
 19 18  1  0  0  0  0
 20 19  1  0  0  0  0
 21 22  1  0  0  0  0
 21  1  1  0  0  0  0
 23 24  1  0  0  0  0
 23 22  1  0  0  0  0
 24 25  1  1  0  0  0
 27 26  1  0  0  0  0
 27 24  1  0  0  0  0
 28 27  2  0  0  0  0
 29 30  1  0  0  0  0
 30 33  1  0  0  0  0
 31 34  1  0  0  0  0
 32 36  2  0  0  0  0
 34 35  1  0  0  0  0
 34 37  2  0  0  0  0
 35 36  1  0  0  0  0
 36 33  1  0  0  0  0
M  END
>  <MODEL>
6

>  <REMARK>
 VINA RESULT:      -6.0      3.088      5.892
  Name = 
  11 active torsions:
  status: ('A' for Active; 'I' for Inactive)
    1  A    between atoms: C_4  and  N_7
    2  A    between atoms: C_4  and  C_30
    3  A    between atoms: N_7  and  C_37
    4  A    between atoms: C_8  and  C_18
    5  A    between atoms: N_9  and  C_17
    6  A    between atoms: C_11  and  C_16
    7  A    between atoms: C_11  and  C_19
    8  A    between atoms: C_14  and  C_30
    9  A    between atoms: C_14  and  C_32
   10  A    between atoms: C_17  and  C_18
   11  A    between atoms: C_27  and  C_32
                            x       y       z     vdW  Elec       q    Type
                         _______ _______ _______ _____ _____    ______ ____

>  <TORSDO>
F 11

$$$$
=
 OpenBabel11052410483D

 37 39  0  0  1  0  0  0  0  0999 V2000
  161.6420  206.8570  152.1530 N   0  0  0  0  0  0  0  0  0  0  0  0
  161.9680  207.7110  151.0090 C   0  0  0  0  0  0  0  0  0  0  0  0
  162.7950  208.7020  151.1630 O   0  0  0  0  0  0  0  0  0  0  0  0
  160.8300  210.6240  152.1040 C   0  0  0  0  0  3  0  0  0  0  0  0
  160.4260  209.8010  153.1560 C   0  0  0  0  0  0  0  0  0  0  0  0
  160.7730  208.5860  153.2090 C   0  0  0  0  0  2  0  0  0  0  0  0
  159.5300  212.3620  153.0410 C   0  0  0  0  0  0  0  0  0  0  0  0
  157.3350  214.2710  154.8200 N   0  0  0  0  0  0  0  0  0  0  0  0
  160.4230  211.9450  152.0580 C   0  0  0  0  0  3  0  0  0  0  0  0
  156.3680  213.4320  155.6920 C   0  0  1  0  0  3  0  0  0  0  0  0
  159.0180  213.5860  153.1670 N   0  0  0  0  0  2  0  0  0  0  0  0
  158.1430  212.0770  154.8940 C   0  0  2  0  0  3  0  0  0  0  0  0
  159.0360  211.5220  153.9690 C   0  0  0  0  0  0  0  0  0  0  0  0
  156.6350  211.4280  155.6590 S   0  0  0  0  0  0  0  0  0  0  0  0
  158.0880  213.3850  154.2360 C   0  0  0  0  0  0  0  0  0  0  0  0
  159.5800  210.2780  154.0650 N   0  0  0  0  0  0  0  0  0  0  0  0
  160.8390  207.3000  153.2390 C   0  0  0  0  0  2  0  0  0  0  0  0
  155.8580  214.0540  157.1660 C   0  0  0  0  0  2  0  0  0  0  0  0
  154.3340  214.3460  157.0250 C   0  0  0  0  0  2  0  0  0  0  0  0
  153.9950  214.4530  155.5590 C   0  0  0  0  0  1  0  0  0  0  0  0
  162.6510  206.0600  152.6670 C   0  0  0  0  0  2  0  0  0  0  0  0
  162.4450  204.7800  151.8350 C   0  0  0  0  0  2  0  0  0  0  0  0
  161.0330  204.3760  151.5000 C   0  0  0  0  0  2  0  0  0  0  0  0
  160.7250  202.8570  151.3920 C   0  0  2  0  0  3  0  0  0  0  0  0
  162.0140  202.0820  151.9820 C   0  0  0  0  0  1  0  0  0  0  0  0
  160.9810  201.8910  149.0460 O   0  0  0  0  0  0  0  0  0  0  0  0
  160.5620  202.8510  149.8200 C   0  0  0  0  0  0  0  0  0  0  0  0
  160.3910  204.1130  149.2290 O   0  0  0  0  0  1  0  0  0  0  0  0
  161.1420  207.7430  149.7190 C   0  0  0  0  0  2  0  0  0  0  0  0
  162.1010  207.3540  148.5060 C   0  0  0  0  0  2  0  0  0  0  0  0
  160.7250  202.1460  145.5880 C   0  0  0  0  0  1  0  0  0  0  0  0
  162.7030  206.1880  145.7510 O   0  0  0  0  0  0  0  0  0  0  0  0
  161.1970  206.8410  147.4450 N   0  0  0  0  0  2  0  0  0  0  0  0
  161.0880  203.6560  145.2350 C   0  0  0  0  0  0  0  0  0  0  0  0
  161.2830  204.4400  146.4340 N   0  0  0  0  0  2  0  0  0  0  0  0
  161.7050  205.8560  146.4480 C   0  0  0  0  0  0  0  0  0  0  0  0
  161.0890  204.3090  144.1150 O   0  0  0  0  0  0  0  0  0  0  0  0
  1 21  1  0  0  0  0
  1 17  1  0  0  0  0
  2  3  2  0  0  0  0
  2  1  1  0  0  0  0
  4  5  1  0  0  0  0
  5  6  1  0  0  0  0
  5 16  2  0  0  0  0
  6 17  1  0  0  0  0
  7 11  1  0  0  0  0
  7 13  2  0  0  0  0
  8 10  1  0  0  0  0
  9  4  2  0  0  0  0
  9  7  1  0  0  0  0
 10 18  1  1  0  0  0
 11 15  1  0  0  0  0
 12 13  1  6  0  0  0
 12 14  1  0  0  0  0
 13 16  1  0  0  0  0
 14 10  1  0  0  0  0
 15  8  2  0  0  0  0
 15 12  1  0  0  0  0
 19 18  1  0  0  0  0
 20 19  1  0  0  0  0
 22 21  1  0  0  0  0
 23 22  1  0  0  0  0
 24 23  1  0  0  0  0
 24 25  1  6  0  0  0
 26 27  2  0  0  0  0
 27 24  1  0  0  0  0
 28 27  1  0  0  0  0
 29  2  1  0  0  0  0
 30 29  1  0  0  0  0
 32 36  2  0  0  0  0
 33 30  1  0  0  0  0
 34 31  1  0  0  0  0
 34 35  1  0  0  0  0
 35 36  1  0  0  0  0
 36 33  1  0  0  0  0
 37 34  2  0  0  0  0
M  END
>  <MODEL>
7

>  <REMARK>
 VINA RESULT:      -5.4      4.508      9.261
  Name = 
  11 active torsions:
  status: ('A' for Active; 'I' for Inactive)
    1  A    between atoms: C_4  and  N_7
    2  A    between atoms: C_4  and  C_30
    3  A    between atoms: N_7  and  C_37
    4  A    between atoms: C_8  and  C_18
    5  A    between atoms: N_9  and  C_17
    6  A    between atoms: C_11  and  C_16
    7  A    between atoms: C_11  and  C_19
    8  A    between atoms: C_14  and  C_30
    9  A    between atoms: C_14  and  C_32
   10  A    between atoms: C_17  and  C_18
   11  A    between atoms: C_27  and  C_32
                            x       y       z     vdW  Elec       q    Type
                         _______ _______ _______ _____ _____    ______ ____

>  <TORSDO>
F 11

$$$$
=
 OpenBabel11052410483D

 37 39  0  0  1  0  0  0  0  0999 V2000
  161.2030  208.6090  154.5390 N   0  0  0  0  0  0  0  0  0  0  0  0
  161.2410  208.8630  155.9800 C   0  0  0  0  0  0  0  0  0  0  0  0
  162.1560  208.2950  156.7080 O   0  0  0  0  0  0  0  0  0  0  0  0
  161.6600  208.3350  150.7220 C   0  0  0  0  0  3  0  0  0  0  0  0
  161.0740  207.3100  151.4650 C   0  0  0  0  0  0  0  0  0  0  0  0
  160.8460  207.4440  152.7020 C   0  0  0  0  0  2  0  0  0  0  0  0
  161.6570  206.8980  148.8460 C   0  0  0  0  0  0  0  0  0  0  0  0
  161.5120  204.2600  146.6890 N   0  0  0  0  0  0  0  0  0  0  0  0
  161.9180  208.1580  149.3750 C   0  0  0  0  0  3  0  0  0  0  0  0
  161.4060  202.8920  147.4090 C   0  0  1  0  0  3  0  0  0  0  0  0
  161.8420  206.5260  147.5790 N   0  0  0  0  0  2  0  0  0  0  0  0
  161.0080  204.6600  148.9390 C   0  0  2  0  0  3  0  0  0  0  0  0
  161.2250  205.8740  149.6030 C   0  0  0  0  0  0  0  0  0  0  0  0
  161.3080  202.9430  149.4270 S   0  0  0  0  0  0  0  0  0  0  0  0
  161.5450  205.1280  147.6580 C   0  0  0  0  0  0  0  0  0  0  0  0
  160.8440  206.1370  150.8840 N   0  0  0  0  0  0  0  0  0  0  0  0
  160.8040  207.3610  153.9870 C   0  0  0  0  0  2  0  0  0  0  0  0
  160.5200  201.6630  146.6870 C   0  0  0  0  0  2  0  0  0  0  0  0
  160.1900  202.1390  145.2400 C   0  0  0  0  0  2  0  0  0  0  0  0
  159.6340  200.9730  144.4610 C   0  0  0  0  0  1  0  0  0  0  0  0
  162.2500  209.0970  153.7740 C   0  0  0  0  0  2  0  0  0  0  0  0
  161.8740  210.5890  153.7060 C   0  0  0  0  0  2  0  0  0  0  0  0
  160.9690  211.0390  152.5880 C   0  0  0  0  0  2  0  0  0  0  0  0
  159.6710  211.7990  152.9740 C   0  0  2  0  0  3  0  0  0  0  0  0
  158.5250  210.6790  153.1830 C   0  0  0  0  0  1  0  0  0  0  0  0
  160.4140  213.6060  151.3360 O   0  0  0  0  0  1  0  0  0  0  0  0
  159.5920  212.6430  151.6400 C   0  0  0  0  0  0  0  0  0  0  0  0
  158.3360  212.6590  151.0130 O   0  0  0  0  0  0  0  0  0  0  0  0
  160.0710  209.4740  156.7590 C   0  0  0  0  0  2  0  0  0  0  0  0
  160.0070  211.0310  156.4170 C   0  0  0  0  0  2  0  0  0  0  0  0
  153.9770  210.3540  157.2560 C   0  0  0  0  0  1  0  0  0  0  0  0
  157.5200  212.6280  155.6610 O   0  0  0  0  0  0  0  0  0  0  0  0
  158.9010  211.5660  157.2510 N   0  0  0  0  0  2  0  0  0  0  0  0
  155.0290  211.5270  157.0260 C   0  0  0  0  0  0  0  0  0  0  0  0
  156.3750  211.0090  156.9260 N   0  0  0  0  0  2  0  0  0  0  0  0
  157.5690  211.8300  156.6360 C   0  0  0  0  0  0  0  0  0  0  0  0
  154.9120  212.8190  157.0650 O   0  0  0  0  0  0  0  0  0  0  0  0
  1  2  1  0  0  0  0
  2  3  2  0  0  0  0
  2 29  1  0  0  0  0
  4  5  1  0  0  0  0
  5  6  1  0  0  0  0
  6 17  1  0  0  0  0
  7  9  1  0  0  0  0
  7 13  2  0  0  0  0
  8 10  1  0  0  0  0
  8 15  2  0  0  0  0
  9  4  2  0  0  0  0
 10 18  1  6  0  0  0
 10 14  1  0  0  0  0
 11 15  1  0  0  0  0
 11  7  1  0  0  0  0
 12 15  1  6  0  0  0
 12 14  1  0  0  0  0
 12 13  1  0  0  0  0
 13 16  1  0  0  0  0
 16  5  2  0  0  0  0
 17  1  1  0  0  0  0
 19 18  1  0  0  0  0
 20 19  1  0  0  0  0
 21  1  1  0  0  0  0
 22 21  1  0  0  0  0
 23 24  1  0  0  0  0
 23 22  1  0  0  0  0
 24 25  1  6  0  0  0
 26 27  1  0  0  0  0
 27 24  1  0  0  0  0
 28 27  2  0  0  0  0
 30 29  1  0  0  0  0
 30 33  1  0  0  0  0
 32 36  2  0  0  0  0
 34 37  2  0  0  0  0
 34 31  1  0  0  0  0
 35 34  1  0  0  0  0
 36 35  1  0  0  0  0
 36 33  1  0  0  0  0
M  END
>  <MODEL>
8

>  <REMARK>
 VINA RESULT:      -5.3      2.799      5.633
  Name = 
  11 active torsions:
  status: ('A' for Active; 'I' for Inactive)
    1  A    between atoms: C_4  and  N_7
    2  A    between atoms: C_4  and  C_30
    3  A    between atoms: N_7  and  C_37
    4  A    between atoms: C_8  and  C_18
    5  A    between atoms: N_9  and  C_17
    6  A    between atoms: C_11  and  C_16
    7  A    between atoms: C_11  and  C_19
    8  A    between atoms: C_14  and  C_30
    9  A    between atoms: C_14  and  C_32
   10  A    between atoms: C_17  and  C_18
   11  A    between atoms: C_27  and  C_32
                            x       y       z     vdW  Elec       q    Type
                         _______ _______ _______ _____ _____    ______ ____

>  <TORSDO>
F 11

$$$$
=
 OpenBabel11052410483D

 37 39  0  0  1  0  0  0  0  0999 V2000
  161.8200  206.3060  150.1320 N   0  0  0  0  0  0  0  0  0  0  0  0
  161.0670  205.0530  150.1980 C   0  0  0  0  0  0  0  0  0  0  0  0
  160.1670  204.7960  149.2960 O   0  0  0  0  0  0  0  0  0  0  0  0
  160.9670  206.8650  153.8480 C   0  0  0  0  0  3  0  0  0  0  0  0
  160.6450  207.8090  152.8720 C   0  0  0  0  0  0  0  0  0  0  0  0
  160.8470  207.5800  151.6450 C   0  0  0  0  0  2  0  0  0  0  0  0
  160.3090  208.4280  155.4950 C   0  0  0  0  0  0  0  0  0  0  0  0
  159.4000  211.2010  157.2600 N   0  0  0  0  0  0  0  0  0  0  0  0
  160.7540  207.1470  155.1850 C   0  0  0  0  0  3  0  0  0  0  0  0
  159.5180  212.5090  156.4390 C   0  0  1  0  0  3  0  0  0  0  0  0
  160.0510  208.8950  156.7170 N   0  0  0  0  0  2  0  0  0  0  0  0
  159.6870  210.6240  155.0110 C   0  0  2  0  0  3  0  0  0  0  0  0
  160.1360  209.3770  154.5570 C   0  0  0  0  0  0  0  0  0  0  0  0
  160.1030  212.3140  154.5140 S   0  0  0  0  0  0  0  0  0  0  0  0
  159.7720  210.2700  156.4310 C   0  0  0  0  0  0  0  0  0  0  0  0
  160.2120  209.0090  153.2480 N   0  0  0  0  0  0  0  0  0  0  0  0
  161.2370  207.5700  150.4170 C   0  0  0  0  0  2  0  0  0  0  0  0
  158.4180  213.7460  156.7230 C   0  0  0  0  0  2  0  0  0  0  0  0
  157.0130  213.0790  156.8300 C   0  0  0  0  0  2  0  0  0  0  0  0
  156.5710  212.6580  155.4510 C   0  0  0  0  0  1  0  0  0  0  0  0
  162.6970  206.4720  149.0720 C   0  0  0  0  0  2  0  0  0  0  0  0
  161.7020  206.7380  147.9270 C   0  0  0  0  0  2  0  0  0  0  0  0
  162.1330  206.3960  146.5240 C   0  0  0  0  0  2  0  0  0  0  0  0
  161.9170  204.9350  146.0420 C   0  0  2  0  0  3  0  0  0  0  0  0
  163.3400  204.4210  145.4740 C   0  0  0  0  0  1  0  0  0  0  0  0
  160.0370  206.3330  145.0370 O   0  0  0  0  0  1  0  0  0  0  0  0
  160.8220  205.2970  144.9610 C   0  0  0  0  0  0  0  0  0  0  0  0
  160.3820  204.2240  144.1690 O   0  0  0  0  0  0  0  0  0  0  0  0
  161.0090  204.1700  151.4500 C   0  0  0  0  0  2  0  0  0  0  0  0
  161.4980  202.7060  151.0470 C   0  0  0  0  0  2  0  0  0  0  0  0
  161.3760  198.9060  146.2440 C   0  0  0  0  0  1  0  0  0  0  0  0
  161.7580  203.0240  148.0240 O   0  0  0  0  0  0  0  0  0  0  0  0
  160.5990  202.2870  149.9410 N   0  0  0  0  0  2  0  0  0  0  0  0
  161.0760  200.4360  146.5670 C   0  0  0  0  0  0  0  0  0  0  0  0
  161.2750  200.7220  147.9710 N   0  0  0  0  0  2  0  0  0  0  0  0
  161.1550  202.0640  148.5760 C   0  0  0  0  0  0  0  0  0  0  0  0
  160.5620  201.3890  145.8540 O   0  0  0  0  0  0  0  0  0  0  0  0
  1  2  1  0  0  0  0
  1 17  1  0  0  0  0
  2 29  1  0  0  0  0
  3  2  2  0  0  0  0
  4  9  1  0  0  0  0
  5 16  1  0  0  0  0
  5  4  2  0  0  0  0
  6  5  1  0  0  0  0
  7 11  1  0  0  0  0
  9  7  2  0  0  0  0
 10 18  1  6  0  0  0
 10  8  1  0  0  0  0
 12 14  1  1  0  0  0
 12 15  1  0  0  0  0
 13 12  1  0  0  0  0
 13  7  1  0  0  0  0
 14 10  1  0  0  0  0
 15 11  1  0  0  0  0
 15  8  2  0  0  0  0
 16 13  2  0  0  0  0
 17  6  1  0  0  0  0
 18 19  1  0  0  0  0
 20 19  1  0  0  0  0
 21  1  1  0  0  0  0
 22 21  1  0  0  0  0
 23 22  1  0  0  0  0
 24 25  1  6  0  0  0
 24 23  1  0  0  0  0
 27 26  1  0  0  0  0
 27 24  1  0  0  0  0
 28 27  2  0  0  0  0
 30 29  1  0  0  0  0
 31 34  1  0  0  0  0
 32 36  2  0  0  0  0
 33 30  1  0  0  0  0
 34 35  1  0  0  0  0
 35 36  1  0  0  0  0
 36 33  1  0  0  0  0
 37 34  2  0  0  0  0
M  END
>  <MODEL>
9

>  <REMARK>
 VINA RESULT:      -5.2      4.654     10.387
  Name = 
  11 active torsions:
  status: ('A' for Active; 'I' for Inactive)
    1  A    between atoms: C_4  and  N_7
    2  A    between atoms: C_4  and  C_30
    3  A    between atoms: N_7  and  C_37
    4  A    between atoms: C_8  and  C_18
    5  A    between atoms: N_9  and  C_17
    6  A    between atoms: C_11  and  C_16
    7  A    between atoms: C_11  and  C_19
    8  A    between atoms: C_14  and  C_30
    9  A    between atoms: C_14  and  C_32
   10  A    between atoms: C_17  and  C_18
   11  A    between atoms: C_27  and  C_32
                            x       y       z     vdW  Elec       q    Type
                         _______ _______ _______ _____ _____    ______ ____

>  <TORSDO>
F 11

$$$$
