=
 OpenBabel11042421303D

 27 30  0  0  1  0  0  0  0  0999 V2000
  161.9640  208.2470  149.7410 C   0  0  1  0  0  0  0  0  0  0  0  0
  162.9800  207.7520  148.7200 C   0  0  0  0  0  2  0  0  0  0  0  0
  160.2930  204.8640  150.4450 C   0  0  0  0  0  3  0  0  0  0  0  0
  162.4560  209.3030  150.5300 O   0  0  0  0  0  0  0  0  0  0  0  0
  162.1580  204.0290  146.3740 Cl  0  0  0  0  0  0  0  0  0  0  0  0
  160.1600  203.6160  149.8390 C   0  0  0  0  0  3  0  0  0  0  0  0
  162.2960  206.7570  147.7940 C   0  0  0  0  0  2  0  0  0  0  0  0
  160.7450  203.3770  148.5970 C   0  0  0  0  0  3  0  0  0  0  0  0
  161.6070  205.6490  148.5510 C   0  0  0  0  0  0  0  0  0  0  0  0
  161.4620  204.3850  147.9480 C   0  0  0  0  0  0  0  0  0  0  0  0
  161.3890  209.6160  149.6580 C   0  0  1  0  0  3  0  0  0  0  0  0
  161.0160  205.8870  149.8190 C   0  0  0  0  0  0  0  0  0  0  0  0
  161.1540  207.2150  150.5350 C   0  0  1  0  0  3  0  0  0  0  0  0
  161.9160  210.4320  148.4900 C   0  0  0  0  0  2  0  0  0  0  0  0
  162.9810  212.4410  147.9860 C   0  0  0  0  0  1  0  0  0  0  0  0
  162.0140  211.8270  148.8780 N   0  0  0  0  0  2  0  0  0  0  0  0
  161.6460  207.0540  151.9100 N   0  0  0  0  0  0  0  0  0  0  0  0
  160.8420  209.1490  152.9680 C   0  0  0  0  0  3  0  0  0  0  0  0
  160.0580  211.2180  153.9940 N   0  0  0  0  0  1  0  0  0  0  0  0
  160.3210  207.8170  155.3370 C   0  0  0  0  0  0  0  0  0  0  0  0
  160.8380  207.1090  154.2500 C   0  0  0  0  0  3  0  0  0  0  0  0
  160.3250  209.8250  154.0740 C   0  0  0  0  0  0  0  0  0  0  0  0
  160.0760  209.1500  155.2280 N   0  0  0  0  0  0  0  0  0  0  0  0
  161.1060  207.7740  153.0430 C   0  0  0  0  0  0  0  0  0  0  0  0
  159.9880  206.9870  156.8410 Cl  0  0  0  0  0  0  0  0  0  0  0  0
  162.7090  206.1510  152.0850 C   0  0  0  0  0  0  0  0  0  0  0  0
  163.6210  205.3760  152.2350 C   0  0  0  0  0  3  0  0  0  0  0  0
  1  2  1  6  0  0  0
  1  4  1  0  0  0  0
  1 13  1  0  0  0  0
  5 10  1  0  0  0  0
  6  3  1  0  0  0  0
  7  9  1  0  0  0  0
  7  2  1  0  0  0  0
  8  6  2  0  0  0  0
  9 12  1  0  0  0  0
 10  9  2  0  0  0  0
 10  8  1  0  0  0  0
 11 14  1  6  0  0  0
 11  1  1  0  0  0  0
 11  4  1  0  0  0  0
 12  3  2  0  0  0  0
 12 13  1  0  0  0  0
 13 17  1  1  0  0  0
 14 16  1  0  0  0  0
 15 16  1  0  0  0  0
 17 26  1  0  0  0  0
 17 24  1  0  0  0  0
 18 24  2  0  0  0  0
 18 22  1  0  0  0  0
 19 22  1  0  0  0  0
 20 25  1  0  0  0  0
 21 20  2  0  0  0  0
 22 23  2  0  0  0  0
 23 20  1  0  0  0  0
 24 21  1  0  0  0  0
 26 27  3  0  0  0  0
M  END
>  <MODEL>
1

>  <REMARK>
 VINA RESULT:      -6.2      0.000      0.000
  Name = 
  5 active torsions:
  status: ('A' for Active; 'I' for Inactive)
    1  A    between atoms: C_13  and  N_27
    2  A    between atoms: C_18  and  N_27
    3  A    between atoms: N_21  and  C_25
    4  A    between atoms: C_23  and  C_25
    5  A    between atoms: C_26  and  N_27
                            x       y       z     vdW  Elec       q    Type
                         _______ _______ _______ _____ _____    ______ ____

>  <TORSDO>
F 5

$$$$
=
 OpenBabel11042421303D

 27 30  0  0  1  0  0  0  0  0999 V2000
  161.5460  206.0290  148.2450 C   0  0  1  0  0  0  0  0  0  0  0  0
  162.3710  204.8690  147.7040 C   0  0  0  0  0  2  0  0  0  0  0  0
  160.3120  204.2990  151.4410 C   0  0  0  0  0  3  0  0  0  0  0  0
  162.1050  207.2840  147.9390 O   0  0  0  0  0  0  0  0  0  0  0  0
  161.3780  200.6710  148.9010 Cl  0  0  0  0  0  0  0  0  0  0  0  0
  160.1540  203.0060  151.9390 C   0  0  0  0  0  3  0  0  0  0  0  0
  161.5910  203.5790  147.9110 C   0  0  0  0  0  2  0  0  0  0  0  0
  160.4940  201.9090  151.1490 C   0  0  0  0  0  3  0  0  0  0  0  0
  161.1550  203.3960  149.3430 C   0  0  0  0  0  0  0  0  0  0  0  0
  160.9870  202.0950  149.8550 C   0  0  0  0  0  0  0  0  0  0  0  0
  160.8630  206.9860  147.3330 C   0  0  1  0  0  3  0  0  0  0  0  0
  160.8140  204.5110  150.1520 C   0  0  0  0  0  0  0  0  0  0  0  0
  160.9930  205.9370  149.6720 C   0  0  1  0  0  3  0  0  0  0  0  0
  161.0820  206.6870  145.8590 C   0  0  0  0  0  2  0  0  0  0  0  0
  160.4760  204.8560  144.5550 C   0  0  0  0  0  1  0  0  0  0  0  0
  159.9420  205.9550  145.3390 N   0  0  0  0  0  2  0  0  0  0  0  0
  161.7620  206.7490  150.6250 N   0  0  0  0  0  0  0  0  0  0  0  0
  162.0020  209.1200  149.9350 C   0  0  0  0  0  3  0  0  0  0  0  0
  162.2490  211.4460  149.2440 N   0  0  0  0  0  1  0  0  0  0  0  0
  160.6190  209.9690  152.1770 C   0  0  0  0  0  0  0  0  0  0  0  0
  160.8310  208.6040  151.9770 C   0  0  0  0  0  3  0  0  0  0  0  0
  161.7710  210.4770  150.1670 C   0  0  0  0  0  0  0  0  0  0  0  0
  161.0880  210.8710  151.2750 N   0  0  0  0  0  0  0  0  0  0  0  0
  161.5310  208.1610  150.8430 C   0  0  0  0  0  0  0  0  0  0  0  0
  159.7470  210.5200  153.5910 Cl  0  0  0  0  0  0  0  0  0  0  0  0
  162.7760  206.0800  151.3310 C   0  0  0  0  0  0  0  0  0  0  0  0
  163.6460  205.5060  151.9380 C   0  0  0  0  0  3  0  0  0  0  0  0
  1  2  1  6  0  0  0
  1 13  1  0  0  0  0
  2  7  1  0  0  0  0
  3  6  1  0  0  0  0
  4  1  1  0  0  0  0
  5 10  1  0  0  0  0
  7  9  1  0  0  0  0
  8  6  2  0  0  0  0
  9 10  2  0  0  0  0
  9 12  1  0  0  0  0
 10  8  1  0  0  0  0
 11 14  1  6  0  0  0
 11  4  1  0  0  0  0
 11  1  1  0  0  0  0
 12  3  2  0  0  0  0
 13 12  1  0  0  0  0
 13 17  1  1  0  0  0
 15 16  1  0  0  0  0
 16 14  1  0  0  0  0
 17 24  1  0  0  0  0
 17 26  1  0  0  0  0
 18 22  2  0  0  0  0
 18 24  1  0  0  0  0
 19 22  1  0  0  0  0
 20 25  1  0  0  0  0
 21 20  1  0  0  0  0
 22 23  1  0  0  0  0
 23 20  2  0  0  0  0
 24 21  2  0  0  0  0
 26 27  3  0  0  0  0
M  END
>  <MODEL>
2

>  <REMARK>
 VINA RESULT:      -5.1      2.379      3.754
  Name = 
  5 active torsions:
  status: ('A' for Active; 'I' for Inactive)
    1  A    between atoms: C_13  and  N_27
    2  A    between atoms: C_18  and  N_27
    3  A    between atoms: N_21  and  C_25
    4  A    between atoms: C_23  and  C_25
    5  A    between atoms: C_26  and  N_27
                            x       y       z     vdW  Elec       q    Type
                         _______ _______ _______ _____ _____    ______ ____

>  <TORSDO>
F 5

$$$$
=
 OpenBabel11042421303D

 27 30  0  0  1  0  0  0  0  0999 V2000
  161.5410  206.0340  148.2400 C   0  0  1  0  0  0  0  0  0  0  0  0
  162.3650  204.8740  147.6960 C   0  0  0  0  0  2  0  0  0  0  0  0
  160.3150  204.3050  151.4390 C   0  0  0  0  0  3  0  0  0  0  0  0
  162.0990  207.2890  147.9320 O   0  0  0  0  0  0  0  0  0  0  0  0
  161.3750  200.6770  148.8970 Cl  0  0  0  0  0  0  0  0  0  0  0  0
  160.1590  203.0120  151.9370 C   0  0  0  0  0  3  0  0  0  0  0  0
  161.5860  203.5840  147.9060 C   0  0  0  0  0  2  0  0  0  0  0  0
  160.4970  201.9140  151.1460 C   0  0  0  0  0  3  0  0  0  0  0  0
  161.1530  203.4010  149.3390 C   0  0  0  0  0  0  0  0  0  0  0  0
  160.9870  202.1000  149.8510 C   0  0  0  0  0  0  0  0  0  0  0  0
  160.8560  206.9910  147.3300 C   0  0  1  0  0  3  0  0  0  0  0  0
  160.8140  204.5170  150.1480 C   0  0  0  0  0  0  0  0  0  0  0  0
  160.9910  205.9420  149.6680 C   0  0  1  0  0  3  0  0  0  0  0  0
  161.0710  206.6920  145.8550 C   0  0  0  0  0  2  0  0  0  0  0  0
  160.4750  204.8680  144.5360 C   0  0  0  0  0  1  0  0  0  0  0  0
  159.9350  205.9500  145.3400 N   0  0  0  0  0  2  0  0  0  0  0  0
  161.7630  206.7540  150.6190 N   0  0  0  0  0  0  0  0  0  0  0  0
  160.8210  208.6160  151.9630 C   0  0  0  0  0  3  0  0  0  0  0  0
  159.8870  210.4350  153.2930 N   0  0  0  0  0  1  0  0  0  0  0  0
  161.7730  210.4780  150.1490 C   0  0  0  0  0  0  0  0  0  0  0  0
  162.0080  209.1200  149.9260 C   0  0  0  0  0  3  0  0  0  0  0  0
  160.6050  209.9810  152.1530 C   0  0  0  0  0  0  0  0  0  0  0  0
  161.0820  210.8790  151.2490 N   0  0  0  0  0  0  0  0  0  0  0  0
  161.5300  208.1660  150.8400 C   0  0  0  0  0  0  0  0  0  0  0  0
  162.3670  211.6650  149.0100 Cl  0  0  0  0  0  0  0  0  0  0  0  0
  162.7810  206.0860  151.3200 C   0  0  0  0  0  0  0  0  0  0  0  0
  163.6550  205.5130  151.9240 C   0  0  0  0  0  3  0  0  0  0  0  0
  1  2  1  6  0  0  0
  1 13  1  0  0  0  0
  2  7  1  0  0  0  0
  3  6  1  0  0  0  0
  4  1  1  0  0  0  0
  5 10  1  0  0  0  0
  7  9  1  0  0  0  0
  8  6  2  0  0  0  0
  9 10  2  0  0  0  0
  9 12  1  0  0  0  0
 10  8  1  0  0  0  0
 11 14  1  6  0  0  0
 11  4  1  0  0  0  0
 11  1  1  0  0  0  0
 12  3  2  0  0  0  0
 13 12  1  0  0  0  0
 13 17  1  1  0  0  0
 15 16  1  0  0  0  0
 16 14  1  0  0  0  0
 17 24  1  0  0  0  0
 17 26  1  0  0  0  0
 18 22  1  0  0  0  0
 20 23  1  0  0  0  0
 21 20  2  0  0  0  0
 21 24  1  0  0  0  0
 22 19  1  0  0  0  0
 23 22  2  0  0  0  0
 24 18  2  0  0  0  0
 25 20  1  0  0  0  0
 26 27  3  0  0  0  0
M  END
>  <MODEL>
3

>  <REMARK>
 VINA RESULT:      -5.1      2.694      4.013
  Name = 
  5 active torsions:
  status: ('A' for Active; 'I' for Inactive)
    1  A    between atoms: C_13  and  N_27
    2  A    between atoms: C_18  and  N_27
    3  A    between atoms: N_21  and  C_25
    4  A    between atoms: C_23  and  C_25
    5  A    between atoms: C_26  and  N_27
                            x       y       z     vdW  Elec       q    Type
                         _______ _______ _______ _____ _____    ______ ____

>  <TORSDO>
F 5

$$$$
=
 OpenBabel11042421303D

 27 30  0  0  1  0  0  0  0  0999 V2000
  161.3500  209.8120  154.1440 C   0  0  1  0  0  0  0  0  0  0  0  0
  160.6440  208.6030  154.7450 C   0  0  0  0  0  2  0  0  0  0  0  0
  161.5130  208.5320  150.5290 C   0  0  0  0  0  3  0  0  0  0  0  0
  160.9800  211.0210  154.7610 O   0  0  0  0  0  0  0  0  0  0  0  0
  160.9950  204.6010  152.7720 Cl  0  0  0  0  0  0  0  0  0  0  0  0
  161.4430  207.3200  149.8430 C   0  0  0  0  0  3  0  0  0  0  0  0
  161.2510  207.3400  154.1530 C   0  0  0  0  0  2  0  0  0  0  0  0
  161.2760  206.1290  150.5460 C   0  0  0  0  0  3  0  0  0  0  0  0
  161.2500  207.3560  152.6450 C   0  0  0  0  0  0  0  0  0  0  0  0
  161.1840  206.1380  151.9400 C   0  0  0  0  0  0  0  0  0  0  0  0
  162.3210  210.6140  154.9350 C   0  0  1  0  0  3  0  0  0  0  0  0
  161.4140  208.5680  151.9250 C   0  0  0  0  0  0  0  0  0  0  0  0
  161.4670  209.9130  152.6180 C   0  0  1  0  0  3  0  0  0  0  0  0
  162.5140  210.1120  156.3570 C   0  0  0  0  0  2  0  0  0  0  0  0
  164.2520  211.5600  156.9090 C   0  0  0  0  0  1  0  0  0  0  0  0
  162.8740  211.2230  157.2180 N   0  0  0  0  0  2  0  0  0  0  0  0
  160.5090  210.8690  152.0450 N   0  0  0  0  0  0  0  0  0  0  0  0
  159.9020  212.6720  150.4520 C   0  0  0  0  0  3  0  0  0  0  0  0
  159.2900  214.4450  148.8930 N   0  0  0  0  0  1  0  0  0  0  0  0
  162.1390  212.1380  148.9110 C   0  0  0  0  0  0  0  0  0  0  0  0
  161.9010  211.3840  150.0620 C   0  0  0  0  0  3  0  0  0  0  0  0
  160.1710  213.4050  149.2960 C   0  0  0  0  0  0  0  0  0  0  0  0
  161.2760  213.1260  148.5540 N   0  0  0  0  0  0  0  0  0  0  0  0
  160.7700  211.6460  150.8520 C   0  0  0  0  0  0  0  0  0  0  0  0
  163.5480  211.8100  147.9280 Cl  0  0  0  0  0  0  0  0  0  0  0  0
  159.2930  211.0150  152.7340 C   0  0  0  0  0  0  0  0  0  0  0  0
  158.2490  211.1410  153.3250 C   0  0  0  0  0  3  0  0  0  0  0  0
  1  2  1  1  0  0  0
  1  4  1  0  0  0  0
  1 11  1  0  0  0  0
  3 12  1  0  0  0  0
  4 11  1  0  0  0  0
  6  3  2  0  0  0  0
  6  8  1  0  0  0  0
  7  2  1  0  0  0  0
  8 10  2  0  0  0  0
  9  7  1  0  0  0  0
 10  9  1  0  0  0  0
 10  5  1  0  0  0  0
 11 14  1  1  0  0  0
 12 13  1  0  0  0  0
 12  9  2  0  0  0  0
 13 17  1  6  0  0  0
 13  1  1  0  0  0  0
 14 16  1  0  0  0  0
 15 16  1  0  0  0  0
 17 26  1  0  0  0  0
 18 24  1  0  0  0  0
 19 22  1  0  0  0  0
 20 21  1  0  0  0  0
 21 24  2  0  0  0  0
 22 18  2  0  0  0  0
 23 20  2  0  0  0  0
 23 22  1  0  0  0  0
 24 17  1  0  0  0  0
 25 20  1  0  0  0  0
 26 27  3  0  0  0  0
M  END
>  <MODEL>
4

>  <REMARK>
 VINA RESULT:      -4.4      3.009      6.164
  Name = 
  5 active torsions:
  status: ('A' for Active; 'I' for Inactive)
    1  A    between atoms: C_13  and  N_27
    2  A    between atoms: C_18  and  N_27
    3  A    between atoms: N_21  and  C_25
    4  A    between atoms: C_23  and  C_25
    5  A    between atoms: C_26  and  N_27
                            x       y       z     vdW  Elec       q    Type
                         _______ _______ _______ _____ _____    ______ ____

>  <TORSDO>
F 5

$$$$
=
 OpenBabel11042421303D

 27 30  0  0  1  0  0  0  0  0999 V2000
  161.3120  207.7860  152.0780 C   0  0  1  0  0  0  0  0  0  0  0  0
  161.9650  206.8690  153.1050 C   0  0  0  0  0  2  0  0  0  0  0  0
  159.6850  210.2190  154.5610 C   0  0  0  0  0  3  0  0  0  0  0  0
  162.0760  207.9180  150.9040 O   0  0  0  0  0  0  0  0  0  0  0  0
  160.2670  206.5780  157.2370 Cl  0  0  0  0  0  0  0  0  0  0  0  0
  159.3030  210.2480  155.9020 C   0  0  0  0  0  3  0  0  0  0  0  0
  160.9820  206.6360  154.2430 C   0  0  0  0  0  2  0  0  0  0  0  0
  159.4970  209.1260  156.7070 C   0  0  0  0  0  3  0  0  0  0  0  0
  160.4620  207.9260  154.8260 C   0  0  0  0  0  0  0  0  0  0  0  0
  160.0680  207.9660  156.1770 C   0  0  0  0  0  0  0  0  0  0  0  0
  160.8300  207.2650  150.7710 C   0  0  1  0  0  3  0  0  0  0  0  0
  160.2690  209.0710  154.0100 C   0  0  0  0  0  0  0  0  0  0  0  0
  160.6920  209.1040  152.5570 C   0  0  1  0  0  3  0  0  0  0  0  0
  161.0600  205.7750  150.5840 C   0  0  0  0  0  2  0  0  0  0  0  0
  161.2060  204.0230  149.0570 C   0  0  0  0  0  1  0  0  0  0  0  0
  160.8400  205.4210  149.1940 N   0  0  0  0  0  2  0  0  0  0  0  0
  161.5390  210.2650  152.2530 N   0  0  0  0  0  0  0  0  0  0  0  0
  161.9560  211.1510  149.9720 C   0  0  0  0  0  3  0  0  0  0  0  0
  162.3800  212.0110  147.7300 N   0  0  0  0  0  1  0  0  0  0  0  0
  160.0240  213.1020  150.3180 C   0  0  0  0  0  0  0  0  0  0  0  0
  160.2810  212.2000  151.3520 C   0  0  0  0  0  3  0  0  0  0  0  0
  161.6720  212.0690  148.9610 C   0  0  0  0  0  0  0  0  0  0  0  0
  160.7180  213.0190  149.1530 N   0  0  0  0  0  0  0  0  0  0  0  0
  161.2590  211.2050  151.1880 C   0  0  0  0  0  0  0  0  0  0  0  0
  158.8060  214.3420  150.5240 Cl  0  0  0  0  0  0  0  0  0  0  0  0
  162.6810  210.4260  153.0560 C   0  0  0  0  0  0  0  0  0  0  0  0
  163.6620  210.5630  153.7460 C   0  0  0  0  0  3  0  0  0  0  0  0
  1 13  1  0  0  0  0
  1  2  1  1  0  0  0
  2  7  1  0  0  0  0
  3  6  1  0  0  0  0
  4  1  1  0  0  0  0
  6  8  2  0  0  0  0
  7  9  1  0  0  0  0
  9 10  2  0  0  0  0
 10  8  1  0  0  0  0
 10  5  1  0  0  0  0
 11 14  1  1  0  0  0
 11  4  1  0  0  0  0
 11  1  1  0  0  0  0
 12  3  2  0  0  0  0
 12  9  1  0  0  0  0
 13 17  1  1  0  0  0
 13 12  1  0  0  0  0
 15 16  1  0  0  0  0
 16 14  1  0  0  0  0
 17 26  1  0  0  0  0
 18 24  1  0  0  0  0
 19 22  1  0  0  0  0
 20 25  1  0  0  0  0
 20 21  1  0  0  0  0
 22 23  1  0  0  0  0
 22 18  2  0  0  0  0
 23 20  2  0  0  0  0
 24 21  2  0  0  0  0
 24 17  1  0  0  0  0
 26 27  3  0  0  0  0
M  END
>  <MODEL>
5

>  <REMARK>
 VINA RESULT:      -4.1      2.798      6.517
  Name = 
  5 active torsions:
  status: ('A' for Active; 'I' for Inactive)
    1  A    between atoms: C_13  and  N_27
    2  A    between atoms: C_18  and  N_27
    3  A    between atoms: N_21  and  C_25
    4  A    between atoms: C_23  and  C_25
    5  A    between atoms: C_26  and  N_27
                            x       y       z     vdW  Elec       q    Type
                         _______ _______ _______ _____ _____    ______ ____

>  <TORSDO>
F 5

$$$$
=
 OpenBabel11042421303D

 27 30  0  0  1  0  0  0  0  0999 V2000
  161.5240  206.1760  148.9350 C   0  0  1  0  0  0  0  0  0  0  0  0
  162.3580  205.1480  148.1810 C   0  0  0  0  0  2  0  0  0  0  0  0
  160.2670  203.8440  151.7110 C   0  0  0  0  0  3  0  0  0  0  0  0
  162.0820  207.4680  148.8890 O   0  0  0  0  0  0  0  0  0  0  0  0
  161.3690  200.7950  148.5110 Cl  0  0  0  0  0  0  0  0  0  0  0  0
  160.1090  202.4780  151.9400 C   0  0  0  0  0  3  0  0  0  0  0  0
  161.5810  203.8410  148.1200 C   0  0  0  0  0  2  0  0  0  0  0  0
  160.4600  201.5600  150.9510 C   0  0  0  0  0  3  0  0  0  0  0  0
  161.1320  203.3770  149.4830 C   0  0  0  0  0  0  0  0  0  0  0  0
  160.9640  202.0000  149.7250 C   0  0  0  0  0  0  0  0  0  0  0  0
  160.8470  207.2940  148.2240 C   0  0  1  0  0  3  0  0  0  0  0  0
  160.7800  204.3090  150.4940 C   0  0  0  0  0  0  0  0  0  0  0  0
  160.9580  205.8010  150.3090 C   0  0  1  0  0  3  0  0  0  0  0  0
  161.0800  207.2950  146.7220 C   0  0  0  0  0  2  0  0  0  0  0  0
  160.7270  205.8260  144.9500 C   0  0  0  0  0  1  0  0  0  0  0  0
  160.0760  206.4710  146.0750 N   0  0  0  0  0  2  0  0  0  0  0  0
  161.7160  206.4090  151.4120 N   0  0  0  0  0  0  0  0  0  0  0  0
  161.0690  208.7850  151.7220 C   0  0  0  0  0  3  0  0  0  0  0  0
  160.4410  211.1240  152.0110 N   0  0  0  0  0  1  0  0  0  0  0  0
  160.3610  208.3050  154.3540 C   0  0  0  0  0  0  0  0  0  0  0  0
  160.8460  207.2550  153.5710 C   0  0  0  0  0  3  0  0  0  0  0  0
  160.5810  209.8090  152.5340 C   0  0  0  0  0  0  0  0  0  0  0  0
  160.2390  209.5500  153.8240 N   0  0  0  0  0  0  0  0  0  0  0  0
  161.2080  207.4870  152.2340 C   0  0  0  0  0  0  0  0  0  0  0  0
  159.9110  208.0150  156.0200 Cl  0  0  0  0  0  0  0  0  0  0  0  0
  163.0040  205.8940  151.6360 C   0  0  0  0  0  0  0  0  0  0  0  0
  164.1100  205.4510  151.8270 C   0  0  0  0  0  3  0  0  0  0  0  0
  1  2  1  6  0  0  0
  1 13  1  0  0  0  0
  3  6  1  0  0  0  0
  4  1  1  0  0  0  0
  5 10  1  0  0  0  0
  7  2  1  0  0  0  0
  7  9  1  0  0  0  0
  8  6  2  0  0  0  0
  9 10  2  0  0  0  0
  9 12  1  0  0  0  0
 10  8  1  0  0  0  0
 11 14  1  6  0  0  0
 11  4  1  0  0  0  0
 11  1  1  0  0  0  0
 12  3  2  0  0  0  0
 13 12  1  0  0  0  0
 13 17  1  1  0  0  0
 15 16  1  0  0  0  0
 16 14  1  0  0  0  0
 17 26  1  0  0  0  0
 17 24  1  0  0  0  0
 18 24  2  0  0  0  0
 18 22  1  0  0  0  0
 19 22  1  0  0  0  0
 20 25  1  0  0  0  0
 21 20  2  0  0  0  0
 22 23  2  0  0  0  0
 23 20  1  0  0  0  0
 24 21  1  0  0  0  0
 26 27  3  0  0  0  0
M  END
>  <MODEL>
6

>  <REMARK>
 VINA RESULT:      -4.0      2.040      2.835
  Name = 
  5 active torsions:
  status: ('A' for Active; 'I' for Inactive)
    1  A    between atoms: C_13  and  N_27
    2  A    between atoms: C_18  and  N_27
    3  A    between atoms: N_21  and  C_25
    4  A    between atoms: C_23  and  C_25
    5  A    between atoms: C_26  and  N_27
                            x       y       z     vdW  Elec       q    Type
                         _______ _______ _______ _____ _____    ______ ____

>  <TORSDO>
F 5

$$$$
=
 OpenBabel11042421303D

 27 30  0  0  1  0  0  0  0  0999 V2000
  161.3120  207.8410  152.0590 C   0  0  1  0  0  0  0  0  0  0  0  0
  161.9760  206.9200  153.0760 C   0  0  0  0  0  2  0  0  0  0  0  0
  159.6740  210.2380  154.5690 C   0  0  0  0  0  3  0  0  0  0  0  0
  162.0700  207.9890  150.8830 O   0  0  0  0  0  0  0  0  0  0  0  0
  160.2970  206.5800  157.2110 Cl  0  0  0  0  0  0  0  0  0  0  0  0
  159.2970  210.2520  155.9120 C   0  0  0  0  0  3  0  0  0  0  0  0
  160.9990  206.6690  154.2150 C   0  0  0  0  0  2  0  0  0  0  0  0
  159.5030  209.1250  156.7060 C   0  0  0  0  0  3  0  0  0  0  0  0
  160.4710  207.9500  154.8110 C   0  0  0  0  0  0  0  0  0  0  0  0
  160.0820  207.9750  156.1640 C   0  0  0  0  0  0  0  0  0  0  0  0
  160.8290  207.3270  150.7500 C   0  0  1  0  0  3  0  0  0  0  0  0
  160.2650  209.1000  154.0060 C   0  0  0  0  0  0  0  0  0  0  0  0
  160.6820  209.1490  152.5510 C   0  0  1  0  0  3  0  0  0  0  0  0
  161.0710  205.8400  150.5490 C   0  0  0  0  0  2  0  0  0  0  0  0
  161.2070  204.0940  149.0140 C   0  0  0  0  0  1  0  0  0  0  0  0
  160.8830  205.5030  149.1500 N   0  0  0  0  0  2  0  0  0  0  0  0
  161.5190  210.3200  152.2550 N   0  0  0  0  0  0  0  0  0  0  0  0
  160.1870  212.2110  151.3550 C   0  0  0  0  0  3  0  0  0  0  0  0
  158.8660  214.0670  150.4840 N   0  0  0  0  0  1  0  0  0  0  0  0
  161.6560  212.2000  149.0090 C   0  0  0  0  0  0  0  0  0  0  0  0
  161.9580  211.2780  150.0130 C   0  0  0  0  0  3  0  0  0  0  0  0
  159.9130  213.1180  150.3310 C   0  0  0  0  0  0  0  0  0  0  0  0
  160.6480  213.0950  149.1870 N   0  0  0  0  0  0  0  0  0  0  0  0
  161.2190  211.2740  151.2070 C   0  0  0  0  0  0  0  0  0  0  0  0
  162.5750  212.2040  147.5210 Cl  0  0  0  0  0  0  0  0  0  0  0  0
  162.6700  210.4750  153.0460 C   0  0  0  0  0  0  0  0  0  0  0  0
  163.6580  210.6090  153.7240 C   0  0  0  0  0  3  0  0  0  0  0  0
  1 13  1  0  0  0  0
  1  2  1  1  0  0  0
  2  7  1  0  0  0  0
  3  6  1  0  0  0  0
  4  1  1  0  0  0  0
  6  8  2  0  0  0  0
  7  9  1  0  0  0  0
  9 10  2  0  0  0  0
 10  8  1  0  0  0  0
 10  5  1  0  0  0  0
 11 14  1  1  0  0  0
 11  4  1  0  0  0  0
 11  1  1  0  0  0  0
 12  3  2  0  0  0  0
 12  9  1  0  0  0  0
 13 17  1  1  0  0  0
 13 12  1  0  0  0  0
 15 16  1  0  0  0  0
 16 14  1  0  0  0  0
 17 26  1  0  0  0  0
 20 23  2  0  0  0  0
 20 21  1  0  0  0  0
 21 24  2  0  0  0  0
 22 19  1  0  0  0  0
 22 18  2  0  0  0  0
 23 22  1  0  0  0  0
 24 18  1  0  0  0  0
 24 17  1  0  0  0  0
 25 20  1  0  0  0  0
 26 27  3  0  0  0  0
M  END
>  <MODEL>
7

>  <REMARK>
 VINA RESULT:      -4.0      2.558      6.514
  Name = 
  5 active torsions:
  status: ('A' for Active; 'I' for Inactive)
    1  A    between atoms: C_13  and  N_27
    2  A    between atoms: C_18  and  N_27
    3  A    between atoms: N_21  and  C_25
    4  A    between atoms: C_23  and  C_25
    5  A    between atoms: C_26  and  N_27
                            x       y       z     vdW  Elec       q    Type
                         _______ _______ _______ _____ _____    ______ ____

>  <TORSDO>
F 5

$$$$
=
 OpenBabel11042421303D

 27 30  0  0  1  0  0  0  0  0999 V2000
  161.2750  205.2560  151.0890 C   0  0  1  0  0  0  0  0  0  0  0  0
  162.2040  205.1000  152.2860 C   0  0  0  0  0  2  0  0  0  0  0  0
  160.3510  208.9360  151.6670 C   0  0  0  0  0  3  0  0  0  0  0  0
  161.6810  204.4880  149.9810 O   0  0  0  0  0  0  0  0  0  0  0  0
  161.7240  207.7650  155.8500 Cl  0  0  0  0  0  0  0  0  0  0  0  0
  160.3540  209.8660  152.7060 C   0  0  0  0  0  3  0  0  0  0  0  0
  161.5800  205.8030  153.4820 C   0  0  0  0  0  2  0  0  0  0  0  0
  160.7860  209.4900  153.9770 C   0  0  0  0  0  3  0  0  0  0  0  0
  161.2160  207.2350  153.1800 C   0  0  0  0  0  0  0  0  0  0  0  0
  161.2110  208.1820  154.2220 C   0  0  0  0  0  0  0  0  0  0  0  0
  160.4600  204.1170  150.5880 C   0  0  1  0  0  3  0  0  0  0  0  0
  160.7820  207.6210  151.8850 C   0  0  0  0  0  0  0  0  0  0  0  0
  160.7850  206.6600  150.7150 C   0  0  1  0  0  3  0  0  0  0  0  0
  160.6590  202.8300  151.3720 C   0  0  0  0  0  2  0  0  0  0  0  0
  160.0810  201.7020  149.4200 C   0  0  0  0  0  1  0  0  0  0  0  0
  161.0790  201.7730  150.4710 N   0  0  0  0  0  2  0  0  0  0  0  0
  161.4920  207.2080  149.5500 N   0  0  0  0  0  0  0  0  0  0  0  0
  160.4580  206.5780  147.3840 C   0  0  0  0  0  3  0  0  0  0  0  0
  159.4260  205.9640  145.2610 N   0  0  0  0  0  1  0  0  0  0  0  0
  162.7440  205.2140  146.6280 C   0  0  0  0  0  0  0  0  0  0  0  0
  162.7040  205.8510  147.8690 C   0  0  0  0  0  3  0  0  0  0  0  0
  160.5340  205.9300  146.1510 C   0  0  0  0  0  0  0  0  0  0  0  0
  161.6680  205.2660  145.7990 N   0  0  0  0  0  0  0  0  0  0  0  0
  161.5490  206.5470  148.2640 C   0  0  0  0  0  0  0  0  0  0  0  0
  164.1830  204.3460  146.1380 Cl  0  0  0  0  0  0  0  0  0  0  0  0
  162.1450  208.4370  149.7440 C   0  0  0  0  0  0  0  0  0  0  0  0
  162.7060  209.4920  149.9100 C   0  0  0  0  0  3  0  0  0  0  0  0
  1  2  1  1  0  0  0
  2  7  1  0  0  0  0
  3 12  2  0  0  0  0
  3  6  1  0  0  0  0
  4 11  1  0  0  0  0
  4  1  1  0  0  0  0
  6  8  2  0  0  0  0
  8 10  1  0  0  0  0
  9  7  1  0  0  0  0
  9 10  2  0  0  0  0
 10  5  1  0  0  0  0
 11  1  1  0  0  0  0
 11 14  1  1  0  0  0
 12  9  1  0  0  0  0
 13 17  1  6  0  0  0
 13  1  1  0  0  0  0
 13 12  1  0  0  0  0
 15 16  1  0  0  0  0
 16 14  1  0  0  0  0
 17 26  1  0  0  0  0
 18 24  1  0  0  0  0
 19 22  1  0  0  0  0
 20 21  1  0  0  0  0
 21 24  2  0  0  0  0
 22 18  2  0  0  0  0
 23 22  1  0  0  0  0
 23 20  2  0  0  0  0
 24 17  1  0  0  0  0
 25 20  1  0  0  0  0
 26 27  3  0  0  0  0
M  END
>  <MODEL>
8

>  <REMARK>
 VINA RESULT:      -3.9      2.704      7.214
  Name = 
  5 active torsions:
  status: ('A' for Active; 'I' for Inactive)
    1  A    between atoms: C_13  and  N_27
    2  A    between atoms: C_18  and  N_27
    3  A    between atoms: N_21  and  C_25
    4  A    between atoms: C_23  and  C_25
    5  A    between atoms: C_26  and  N_27
                            x       y       z     vdW  Elec       q    Type
                         _______ _______ _______ _____ _____    ______ ____

>  <TORSDO>
F 5

$$$$
=
 OpenBabel11042421303D

 27 30  0  0  1  0  0  0  0  0999 V2000
  161.5240  206.1590  148.9320 C   0  0  1  0  0  0  0  0  0  0  0  0
  162.3530  205.1230  148.1820 C   0  0  0  0  0  2  0  0  0  0  0  0
  160.3150  203.8630  151.7590 C   0  0  0  0  0  3  0  0  0  0  0  0
  162.0750  207.4520  148.8590 O   0  0  0  0  0  0  0  0  0  0  0  0
  161.3880  200.7710  148.5910 Cl  0  0  0  0  0  0  0  0  0  0  0  0
  160.1670  202.5000  152.0110 C   0  0  0  0  0  3  0  0  0  0  0  0
  161.5810  203.8120  148.1520 C   0  0  0  0  0  2  0  0  0  0  0  0
  160.5080  201.5690  151.0310 C   0  0  0  0  0  3  0  0  0  0  0  0
  161.1530  203.3670  149.5270 C   0  0  0  0  0  0  0  0  0  0  0  0
  160.9950  201.9920  149.7920 C   0  0  0  0  0  0  0  0  0  0  0  0
  160.8320  207.2630  148.2140 C   0  0  1  0  0  3  0  0  0  0  0  0
  160.8100  204.3120  150.5290 C   0  0  0  0  0  0  0  0  0  0  0  0
  160.9780  205.8020  150.3190 C   0  0  1  0  0  3  0  0  0  0  0  0
  161.0450  207.2420  146.7090 C   0  0  0  0  0  2  0  0  0  0  0  0
  160.6980  205.8270  144.8930 C   0  0  0  0  0  1  0  0  0  0  0  0
  160.0770  206.3520  146.0950 N   0  0  0  0  0  2  0  0  0  0  0  0
  161.7480  206.4300  151.4020 N   0  0  0  0  0  0  0  0  0  0  0  0
  160.9090  207.3630  153.5430 C   0  0  0  0  0  3  0  0  0  0  0  0
  160.0830  208.2640  155.6540 N   0  0  0  0  0  1  0  0  0  0  0  0
  160.6350  209.8710  152.4050 C   0  0  0  0  0  0  0  0  0  0  0  0
  161.1130  208.8130  151.6290 C   0  0  0  0  0  3  0  0  0  0  0  0
  160.4340  208.4430  154.2880 C   0  0  0  0  0  0  0  0  0  0  0  0
  160.3080  209.6670  153.7090 N   0  0  0  0  0  0  0  0  0  0  0  0
  161.2570  207.5370  152.1960 C   0  0  0  0  0  0  0  0  0  0  0  0
  160.4560  211.4620  151.6980 Cl  0  0  0  0  0  0  0  0  0  0  0  0
  163.0300  205.9040  151.6360 C   0  0  0  0  0  0  0  0  0  0  0  0
  164.1300  205.4530  151.8380 C   0  0  0  0  0  3  0  0  0  0  0  0
  1  2  1  6  0  0  0
  1 13  1  0  0  0  0
  3  6  1  0  0  0  0
  4  1  1  0  0  0  0
  5 10  1  0  0  0  0
  7  2  1  0  0  0  0
  7  9  1  0  0  0  0
  8  6  2  0  0  0  0
  9 10  2  0  0  0  0
  9 12  1  0  0  0  0
 10  8  1  0  0  0  0
 11 14  1  6  0  0  0
 11  4  1  0  0  0  0
 11  1  1  0  0  0  0
 12  3  2  0  0  0  0
 13 12  1  0  0  0  0
 13 17  1  1  0  0  0
 15 16  1  0  0  0  0
 16 14  1  0  0  0  0
 17 26  1  0  0  0  0
 17 24  1  0  0  0  0
 18 22  1  0  0  0  0
 20 23  1  0  0  0  0
 21 24  1  0  0  0  0
 21 20  2  0  0  0  0
 22 19  1  0  0  0  0
 23 22  2  0  0  0  0
 24 18  2  0  0  0  0
 25 20  1  0  0  0  0
 26 27  3  0  0  0  0
M  END
>  <MODEL>
9

>  <REMARK>
 VINA RESULT:      -3.9      2.536      3.315
  Name = 
  5 active torsions:
  status: ('A' for Active; 'I' for Inactive)
    1  A    between atoms: C_13  and  N_27
    2  A    between atoms: C_18  and  N_27
    3  A    between atoms: N_21  and  C_25
    4  A    between atoms: C_23  and  C_25
    5  A    between atoms: C_26  and  N_27
                            x       y       z     vdW  Elec       q    Type
                         _______ _______ _______ _____ _____    ______ ____

>  <TORSDO>
F 5

$$$$
