=
 OpenBabel11042420153D

 25 28  0  0  1  0  0  0  0  0999 V2000
  160.0640  201.3760  149.2200 C   0  0  0  0  0  0  0  0  0  0  0  0
  158.8670  201.4310  149.4550 O   0  0  0  0  0  0  0  0  0  0  0  0
  160.5520  201.1190  147.8270 C   0  0  2  0  0  3  0  0  0  0  0  0
  161.6550  200.2650  147.8660 O   0  0  0  0  0  1  0  0  0  0  0  0
  160.9440  202.4220  147.1440 C   0  0  0  0  0  2  0  0  0  0  0  0
  159.8780  201.5670  145.1970 O   0  0  0  0  0  1  0  0  0  0  0  0
  161.0180  202.2400  145.6390 C   0  0  1  0  0  3  0  0  0  0  0  0
  161.0900  203.5440  144.9940 N   0  0  0  0  0  2  0  0  0  0  0  0
  160.6980  205.7670  145.6180 C   0  0  0  0  0  2  0  0  0  0  0  0
  162.7980  204.6110  146.0640 O   0  0  0  0  0  0  0  0  0  0  0  0
  161.4070  204.5180  146.0220 C   0  0  1  0  0  0  0  0  0  0  0  0
  162.5480  206.7530  146.3620 F   0  0  0  0  0  0  0  0  0  0  0  0
  162.1920  205.7370  145.4970 C   0  0  2  0  0  0  0  0  0  0  0  0
  161.0420  201.5600  150.3370 C   0  0  0  0  0  2  0  0  0  0  0  0
  161.0970  205.6230  151.6430 C   0  0  0  0  0  0  0  0  0  0  0  0
  161.2520  208.0450  151.0280 N   0  0  0  0  0  0  0  0  0  0  0  0
  161.1020  203.9880  149.9020 N   0  0  0  0  0  0  0  0  0  0  0  0
  161.1230  205.2940  150.2800 C   0  0  0  0  0  0  0  0  0  0  0  0
  161.0640  202.9760  150.8110 C   0  0  0  0  0  0  0  0  0  0  0  0
  161.0480  204.5980  152.5940 C   0  0  0  0  0  3  0  0  0  0  0  0
  161.2660  207.7670  149.7590 C   0  0  0  0  0  3  0  0  0  0  0  0
  161.0270  203.2670  152.1790 C   0  0  0  0  0  3  0  0  0  0  0  0
  161.0990  207.3720  153.2510 O   0  0  0  0  0  0  0  0  0  0  0  0
  161.1400  207.0370  152.0370 C   0  0  0  0  0  0  0  0  0  0  0  0
  161.1340  206.3630  149.2200 C   0  0  0  0  0  2  0  0  0  0  0  0
  1  2  2  0  0  0  0
  1 14  1  0  0  0  0
  3  4  1  1  0  0  0
  3  1  1  0  0  0  0
  5  3  1  0  0  0  0
  7  6  1  6  0  0  0
  7  5  1  0  0  0  0
  8  7  1  0  0  0  0
  9 11  1  0  0  0  0
 11  8  1  6  0  0  0
 11 10  1  0  0  0  0
 13  9  1  0  0  0  0
 13 11  1  0  0  0  0
 13 10  1  0  0  0  0
 13 12  1  1  0  0  0
 14 19  1  0  0  0  0
 15 24  1  0  0  0  0
 15 20  1  0  0  0  0
 16 24  1  0  0  0  0
 17 18  1  0  0  0  0
 17 19  2  0  0  0  0
 18 15  2  0  0  0  0
 19 22  1  0  0  0  0
 21 16  2  0  0  0  0
 22 20  2  0  0  0  0
 24 23  2  0  0  0  0
 25 21  1  0  0  0  0
 25 18  1  0  0  0  0
M  END
>  <MODEL>
1

>  <REMARK>
 VINA RESULT:      -8.2      0.000      0.000
  Name = 
  7 active torsions:
  status: ('A' for Active; 'I' for Inactive)
    1  A    between atoms: C_2  and  C_6
    2  A    between atoms: C_2  and  C_25
    3  A    between atoms: C_6  and  C_13
    4  A    between atoms: C_9  and  N_24
    5  A    between atoms: C_13  and  C_22
    6  A    between atoms: C_14  and  C_25
    7  A    between atoms: C_22  and  N_24
                            x       y       z     vdW  Elec       q    Type
                         _______ _______ _______ _____ _____    ______ ____

>  <TORSDO>
F 7

$$$$
=
 OpenBabel11042420153D

 25 28  0  0  1  0  0  0  0  0999 V2000
  161.2910  206.6450  147.8170 C   0  0  0  0  0  0  0  0  0  0  0  0
  160.1880  206.4570  148.3060 O   0  0  0  0  0  0  0  0  0  0  0  0
  161.5680  206.2520  146.3980 C   0  0  2  0  0  3  0  0  0  0  0  0
  160.3670  206.1490  145.6970 O   0  0  0  0  0  1  0  0  0  0  0  0
  162.3030  204.9200  146.3430 C   0  0  0  0  0  2  0  0  0  0  0  0
  161.3080  202.8960  145.5860 O   0  0  0  0  0  1  0  0  0  0  0  0
  161.3640  203.7730  146.6710 C   0  0  1  0  0  3  0  0  0  0  0  0
  161.8560  203.0600  147.8420 N   0  0  0  0  0  2  0  0  0  0  0  0
  160.5380  202.9370  149.7750 C   0  0  0  0  0  2  0  0  0  0  0  0
  161.0670  200.9940  148.4000 O   0  0  0  0  0  0  0  0  0  0  0  0
  160.7300  202.3470  148.4180 C   0  0  1  0  0  0  0  0  0  0  0  0
  160.1120  200.8310  150.3490 F   0  0  0  0  0  0  0  0  0  0  0  0
  161.0890  201.5450  149.6850 C   0  0  2  0  0  0  0  0  0  0  0  0
  162.3670  207.2670  148.6490 C   0  0  0  0  0  2  0  0  0  0  0  0
  161.1640  207.6400  152.7280 C   0  0  0  0  0  0  0  0  0  0  0  0
  160.5020  209.1500  154.6120 N   0  0  0  0  0  0  0  0  0  0  0  0
  161.6220  208.5990  150.5880 N   0  0  0  0  0  0  0  0  0  0  0  0
  161.2360  208.7580  151.8820 C   0  0  0  0  0  0  0  0  0  0  0  0
  161.9510  207.3800  150.0790 C   0  0  0  0  0  0  0  0  0  0  0  0
  161.4890  206.3770  152.2220 C   0  0  0  0  0  3  0  0  0  0  0  0
  160.5510  210.1990  153.8470 C   0  0  0  0  0  3  0  0  0  0  0  0
  161.8810  206.2430  150.8900 C   0  0  0  0  0  3  0  0  0  0  0  0
  160.6700  206.8480  154.9110 O   0  0  0  0  0  0  0  0  0  0  0  0
  160.7650  207.8290  154.1280 C   0  0  0  0  0  0  0  0  0  0  0  0
  160.8560  210.1300  152.3700 C   0  0  0  0  0  2  0  0  0  0  0  0
  1  2  2  0  0  0  0
  1 14  1  0  0  0  0
  3  4  1  6  0  0  0
  3  1  1  0  0  0  0
  5  3  1  0  0  0  0
  5  7  1  0  0  0  0
  7  6  1  6  0  0  0
  7  8  1  0  0  0  0
 10 11  1  0  0  0  0
 10 13  1  0  0  0  0
 11  8  1  6  0  0  0
 11 13  1  0  0  0  0
 11  9  1  0  0  0  0
 13  9  1  0  0  0  0
 13 12  1  6  0  0  0
 14 19  1  0  0  0  0
 15 24  1  0  0  0  0
 17 18  1  0  0  0  0
 18 25  1  0  0  0  0
 18 15  2  0  0  0  0
 19 17  2  0  0  0  0
 19 22  1  0  0  0  0
 20 15  1  0  0  0  0
 21 16  2  0  0  0  0
 22 20  2  0  0  0  0
 24 16  1  0  0  0  0
 24 23  2  0  0  0  0
 25 21  1  0  0  0  0
M  END
>  <MODEL>
2

>  <REMARK>
 VINA RESULT:      -7.9      2.504      4.431
  Name = 
  7 active torsions:
  status: ('A' for Active; 'I' for Inactive)
    1  A    between atoms: C_2  and  C_6
    2  A    between atoms: C_2  and  C_25
    3  A    between atoms: C_6  and  C_13
    4  A    between atoms: C_9  and  N_24
    5  A    between atoms: C_13  and  C_22
    6  A    between atoms: C_14  and  C_25
    7  A    between atoms: C_22  and  N_24
                            x       y       z     vdW  Elec       q    Type
                         _______ _______ _______ _____ _____    ______ ____

>  <TORSDO>
F 7

$$$$
=
 OpenBabel11042420153D

 25 28  0  0  1  0  0  0  0  0999 V2000
  161.9460  207.3100  151.1830 C   0  0  0  0  0  0  0  0  0  0  0  0
  163.1070  206.9530  151.3050 O   0  0  0  0  0  0  0  0  0  0  0  0
  161.6240  208.7210  150.7930 C   0  0  2  0  0  3  0  0  0  0  0  0
  162.0460  208.9530  149.4840 O   0  0  0  0  0  1  0  0  0  0  0  0
  162.3090  209.7070  151.7290 C   0  0  0  0  0  2  0  0  0  0  0  0
  160.0330  209.8400  152.4070 O   0  0  0  0  0  1  0  0  0  0  0  0
  161.3180  210.2800  152.7260 C   0  0  1  0  0  3  0  0  0  0  0  0
  161.6620  209.8310  154.0680 N   0  0  0  0  0  2  0  0  0  0  0  0
  160.0600  209.4310  155.7290 C   0  0  0  0  0  2  0  0  0  0  0  0
  161.2980  207.6470  154.6190 O   0  0  0  0  0  0  0  0  0  0  0  0
  160.6500  208.8740  154.4770 C   0  0  1  0  0  0  0  0  0  0  0  0
  160.0470  207.3000  156.3660 F   0  0  0  0  0  0  0  0  0  0  0  0
  160.9350  208.2190  155.8430 C   0  0  2  0  0  0  0  0  0  0  0  0
  160.8450  206.3280  151.4300 C   0  0  0  0  0  2  0  0  0  0  0  0
  161.0210  203.1190  148.6220 C   0  0  0  0  0  0  0  0  0  0  0  0
  161.2570  202.4020  146.2350 N   0  0  0  0  0  0  0  0  0  0  0  0
  161.1410  205.4460  149.1460 N   0  0  0  0  0  0  0  0  0  0  0  0
  161.2030  204.4510  148.2210 C   0  0  0  0  0  0  0  0  0  0  0  0
  160.9000  205.1940  150.4610 C   0  0  0  0  0  0  0  0  0  0  0  0
  160.7810  202.8370  149.9710 C   0  0  0  0  0  3  0  0  0  0  0  0
  161.4400  203.6270  145.8400 C   0  0  0  0  0  3  0  0  0  0  0  0
  160.7240  203.8770  150.8980 C   0  0  0  0  0  3  0  0  0  0  0  0
  160.9310  200.8470  147.9350 O   0  0  0  0  0  0  0  0  0  0  0  0
  161.0700  202.0560  147.6110 C   0  0  0  0  0  0  0  0  0  0  0  0
  161.5040  204.7990  146.7880 C   0  0  0  0  0  2  0  0  0  0  0  0
  1  2  2  0  0  0  0
  1 14  1  0  0  0  0
  3  4  1  6  0  0  0
  3  1  1  0  0  0  0
  3  5  1  0  0  0  0
  5  7  1  0  0  0  0
  7  6  1  6  0  0  0
  7  8  1  0  0  0  0
  9 13  1  0  0  0  0
 10 13  1  0  0  0  0
 11  8  1  6  0  0  0
 11 10  1  0  0  0  0
 11  9  1  0  0  0  0
 11 13  1  0  0  0  0
 13 12  1  6  0  0  0
 15 20  1  0  0  0  0
 16 24  1  0  0  0  0
 17 19  2  0  0  0  0
 18 15  2  0  0  0  0
 18 17  1  0  0  0  0
 19 22  1  0  0  0  0
 19 14  1  0  0  0  0
 20 22  2  0  0  0  0
 21 16  2  0  0  0  0
 21 25  1  0  0  0  0
 24 23  2  0  0  0  0
 24 15  1  0  0  0  0
 25 18  1  0  0  0  0
M  END
>  <MODEL>
3

>  <REMARK>
 VINA RESULT:      -7.7      3.111      7.649
  Name = 
  7 active torsions:
  status: ('A' for Active; 'I' for Inactive)
    1  A    between atoms: C_2  and  C_6
    2  A    between atoms: C_2  and  C_25
    3  A    between atoms: C_6  and  C_13
    4  A    between atoms: C_9  and  N_24
    5  A    between atoms: C_13  and  C_22
    6  A    between atoms: C_14  and  C_25
    7  A    between atoms: C_22  and  N_24
                            x       y       z     vdW  Elec       q    Type
                         _______ _______ _______ _____ _____    ______ ____

>  <TORSDO>
F 7

$$$$
=
 OpenBabel11042420153D

 25 28  0  0  1  0  0  0  0  0999 V2000
  161.1800  202.6900  151.3020 C   0  0  0  0  0  0  0  0  0  0  0  0
  162.3560  202.6120  151.6200 O   0  0  0  0  0  0  0  0  0  0  0  0
  160.6180  201.7850  150.2470 C   0  0  2  0  0  3  0  0  0  0  0  0
  161.5880  200.8600  149.8600 O   0  0  0  0  0  1  0  0  0  0  0  0
  160.1690  202.5870  149.0340 C   0  0  0  0  0  2  0  0  0  0  0  0
  160.8340  202.0020  146.8260 O   0  0  0  0  0  1  0  0  0  0  0  0
  161.2680  202.6420  147.9880 C   0  0  1  0  0  3  0  0  0  0  0  0
  161.5840  204.0310  147.6840 N   0  0  0  0  0  2  0  0  0  0  0  0
  163.0990  204.6790  146.0200 C   0  0  0  0  0  2  0  0  0  0  0  0
  160.6850  204.9510  145.8000 O   0  0  0  0  0  0  0  0  0  0  0  0
  161.7270  204.1370  146.2430 C   0  0  1  0  0  0  0  0  0  0  0  0
  162.1000  205.8310  144.3990 F   0  0  0  0  0  0  0  0  0  0  0  0
  161.9330  205.5820  145.7470 C   0  0  2  0  0  0  0  0  0  0  0  0
  160.3030  203.7000  151.9710 C   0  0  0  0  0  2  0  0  0  0  0  0
  161.7280  207.6650  151.2850 C   0  0  0  0  0  0  0  0  0  0  0  0
  162.3340  209.4420  149.6290 N   0  0  0  0  0  0  0  0  0  0  0  0
  160.8700  205.5850  150.4830 N   0  0  0  0  0  0  0  0  0  0  0  0
  161.3200  206.8420  150.2250 C   0  0  0  0  0  0  0  0  0  0  0  0
  160.8070  205.0880  151.7480 C   0  0  0  0  0  0  0  0  0  0  0  0
  161.6620  207.1770  152.5940 C   0  0  0  0  0  3  0  0  0  0  0  0
  161.9520  208.7030  148.6310 C   0  0  0  0  0  3  0  0  0  0  0  0
  161.1960  205.8840  152.8310 C   0  0  0  0  0  3  0  0  0  0  0  0
  162.5860  209.7870  151.9170 O   0  0  0  0  0  0  0  0  0  0  0  0
  162.2300  209.0130  150.9900 C   0  0  0  0  0  0  0  0  0  0  0  0
  161.3330  207.3370  148.8030 C   0  0  0  0  0  2  0  0  0  0  0  0
  1  2  2  0  0  0  0
  1 14  1  0  0  0  0
  3  4  1  6  0  0  0
  3  1  1  0  0  0  0
  5  3  1  0  0  0  0
  7  6  1  6  0  0  0
  7  5  1  0  0  0  0
  8  7  1  0  0  0  0
  9 11  1  0  0  0  0
 10 11  1  0  0  0  0
 11  8  1  1  0  0  0
 13 12  1  6  0  0  0
 13 10  1  0  0  0  0
 13  9  1  0  0  0  0
 13 11  1  0  0  0  0
 15 20  1  0  0  0  0
 16 24  1  0  0  0  0
 17 19  2  0  0  0  0
 18 17  1  0  0  0  0
 18 15  2  0  0  0  0
 19 14  1  0  0  0  0
 19 22  1  0  0  0  0
 20 22  2  0  0  0  0
 21 25  1  0  0  0  0
 21 16  2  0  0  0  0
 24 15  1  0  0  0  0
 24 23  2  0  0  0  0
 25 18  1  0  0  0  0
M  END
>  <MODEL>
4

>  <REMARK>
 VINA RESULT:      -7.5      1.765      2.343
  Name = 
  7 active torsions:
  status: ('A' for Active; 'I' for Inactive)
    1  A    between atoms: C_2  and  C_6
    2  A    between atoms: C_2  and  C_25
    3  A    between atoms: C_6  and  C_13
    4  A    between atoms: C_9  and  N_24
    5  A    between atoms: C_13  and  C_22
    6  A    between atoms: C_14  and  C_25
    7  A    between atoms: C_22  and  N_24
                            x       y       z     vdW  Elec       q    Type
                         _______ _______ _______ _____ _____    ______ ____

>  <TORSDO>
F 7

$$$$
=
 OpenBabel11042420153D

 25 28  0  0  1  0  0  0  0  0999 V2000
  162.0110  207.5780  149.3570 C   0  0  0  0  0  0  0  0  0  0  0  0
  163.1300  207.7180  148.8890 O   0  0  0  0  0  0  0  0  0  0  0  0
  161.7540  207.8660  150.8050 C   0  0  2  0  0  3  0  0  0  0  0  0
  162.3300  209.0890  151.1480 O   0  0  0  0  0  1  0  0  0  0  0  0
  162.3360  206.7670  151.6840 C   0  0  0  0  0  2  0  0  0  0  0  0
  161.3510  204.8890  152.7610 O   0  0  0  0  0  1  0  0  0  0  0  0
  161.3090  206.2820  152.6910 C   0  0  1  0  0  3  0  0  0  0  0  0
  161.6090  206.8410  154.0020 N   0  0  0  0  0  2  0  0  0  0  0  0
  161.0270  209.0540  154.5000 C   0  0  0  0  0  2  0  0  0  0  0  0
  159.9760  207.1310  155.5690 O   0  0  0  0  0  0  0  0  0  0  0  0
  160.4810  207.6710  154.3860 C   0  0  1  0  0  0  0  0  0  0  0  0
  159.6610  209.1740  156.2510 F   0  0  0  0  0  0  0  0  0  0  0  0
  160.6490  208.3420  155.7640 C   0  0  2  0  0  0  0  0  0  0  0  0
  160.8990  207.1090  148.4740 C   0  0  0  0  0  2  0  0  0  0  0  0
  161.1020  202.8920  147.8480 C   0  0  0  0  0  0  0  0  0  0  0  0
  161.1080  200.5990  148.8520 N   0  0  0  0  0  0  0  0  0  0  0  0
  160.8420  204.7810  149.2870 N   0  0  0  0  0  0  0  0  0  0  0  0
  160.9030  203.4310  149.1280 C   0  0  0  0  0  0  0  0  0  0  0  0
  160.9750  205.6370  148.2380 C   0  0  0  0  0  0  0  0  0  0  0  0
  161.2320  203.7540  146.7550 C   0  0  0  0  0  3  0  0  0  0  0  0
  160.9130  201.0730  150.0460 C   0  0  0  0  0  3  0  0  0  0  0  0
  161.1650  205.1340  146.9460 C   0  0  0  0  0  3  0  0  0  0  0  0
  161.3440  200.9130  146.5580 O   0  0  0  0  0  0  0  0  0  0  0  0
  161.1860  201.4350  147.6930 C   0  0  0  0  0  0  0  0  0  0  0  0
  160.7170  202.5430  150.3280 C   0  0  0  0  0  2  0  0  0  0  0  0
  1  3  1  0  0  0  0
  2  1  2  0  0  0  0
  3  4  1  1  0  0  0
  3  5  1  0  0  0  0
  5  7  1  0  0  0  0
  7  6  1  1  0  0  0
  7  8  1  0  0  0  0
  9 13  1  0  0  0  0
 10 13  1  0  0  0  0
 11  8  1  6  0  0  0
 11  9  1  0  0  0  0
 11 10  1  0  0  0  0
 11 13  1  0  0  0  0
 13 12  1  6  0  0  0
 14  1  1  0  0  0  0
 15 18  1  0  0  0  0
 16 21  2  0  0  0  0
 18 17  2  0  0  0  0
 18 25  1  0  0  0  0
 19 14  1  0  0  0  0
 19 17  1  0  0  0  0
 20 22  1  0  0  0  0
 20 15  2  0  0  0  0
 21 25  1  0  0  0  0
 22 19  2  0  0  0  0
 23 24  2  0  0  0  0
 24 15  1  0  0  0  0
 24 16  1  0  0  0  0
M  END
>  <MODEL>
5

>  <REMARK>
 VINA RESULT:      -7.5      3.003      7.528
  Name = 
  7 active torsions:
  status: ('A' for Active; 'I' for Inactive)
    1  A    between atoms: C_2  and  C_6
    2  A    between atoms: C_2  and  C_25
    3  A    between atoms: C_6  and  C_13
    4  A    between atoms: C_9  and  N_24
    5  A    between atoms: C_13  and  C_22
    6  A    between atoms: C_14  and  C_25
    7  A    between atoms: C_22  and  N_24
                            x       y       z     vdW  Elec       q    Type
                         _______ _______ _______ _____ _____    ______ ____

>  <TORSDO>
F 7

$$$$
=
 OpenBabel11042420153D

 25 28  0  0  1  0  0  0  0  0999 V2000
  161.9010  207.6890  151.2580 C   0  0  0  0  0  0  0  0  0  0  0  0
  163.0660  207.3410  151.1450 O   0  0  0  0  0  0  0  0  0  0  0  0
  161.5420  209.1440  151.2680 C   0  0  2  0  0  3  0  0  0  0  0  0
  162.7050  209.9120  151.3380 O   0  0  0  0  0  1  0  0  0  0  0  0
  160.6470  209.4700  152.4550 C   0  0  0  0  0  2  0  0  0  0  0  0
  160.6120  211.4860  153.7170 O   0  0  0  0  0  1  0  0  0  0  0  0
  161.3780  210.3490  153.4540 C   0  0  1  0  0  3  0  0  0  0  0  0
  161.5850  209.6110  154.6930 N   0  0  0  0  0  2  0  0  0  0  0  0
  159.7180  209.1340  156.0230 C   0  0  0  0  0  2  0  0  0  0  0  0
  161.0520  207.4060  154.9370 O   0  0  0  0  0  0  0  0  0  0  0  0
  160.4830  208.6750  154.8280 C   0  0  1  0  0  0  0  0  0  0  0  0
  159.5180  206.9530  156.4130 F   0  0  0  0  0  0  0  0  0  0  0  0
  160.5150  207.8700  156.1420 C   0  0  2  0  0  0  0  0  0  0  0  0
  160.8330  206.6500  151.3930 C   0  0  0  0  0  2  0  0  0  0  0  0
  161.0990  203.6860  148.3340 C   0  0  0  0  0  0  0  0  0  0  0  0
  161.2010  201.2560  147.7410 N   0  0  0  0  0  0  0  0  0  0  0  0
  160.8650  204.3050  150.6290 N   0  0  0  0  0  0  0  0  0  0  0  0
  160.9470  203.3320  149.6830 C   0  0  0  0  0  0  0  0  0  0  0  0
  160.9310  205.6260  150.3110 C   0  0  0  0  0  0  0  0  0  0  0  0
  161.1610  205.0390  147.9840 C   0  0  0  0  0  3  0  0  0  0  0  0
  161.0490  200.9020  148.9820 C   0  0  0  0  0  3  0  0  0  0  0  0
  161.0730  206.0170  148.9750 C   0  0  0  0  0  3  0  0  0  0  0  0
  161.3250  202.9040  146.1020 O   0  0  0  0  0  0  0  0  0  0  0  0
  161.2070  202.6250  147.3250 C   0  0  0  0  0  0  0  0  0  0  0  0
  160.8350  201.8910  150.1020 C   0  0  0  0  0  2  0  0  0  0  0  0
  1  3  1  0  0  0  0
  1 14  1  0  0  0  0
  2  1  2  0  0  0  0
  3  4  1  1  0  0  0
  3  5  1  0  0  0  0
  5  7  1  0  0  0  0
  7  6  1  1  0  0  0
  7  8  1  0  0  0  0
  9 13  1  0  0  0  0
 10 13  1  0  0  0  0
 11  8  1  1  0  0  0
 11 10  1  0  0  0  0
 11  9  1  0  0  0  0
 11 13  1  0  0  0  0
 13 12  1  6  0  0  0
 15 18  1  0  0  0  0
 16 21  2  0  0  0  0
 18 25  1  0  0  0  0
 18 17  2  0  0  0  0
 19 17  1  0  0  0  0
 19 14  1  0  0  0  0
 20 15  2  0  0  0  0
 20 22  1  0  0  0  0
 21 25  1  0  0  0  0
 22 19  2  0  0  0  0
 23 24  2  0  0  0  0
 24 16  1  0  0  0  0
 24 15  1  0  0  0  0
M  END
>  <MODEL>
6

>  <REMARK>
 VINA RESULT:      -7.5      3.297      8.154
  Name = 
  7 active torsions:
  status: ('A' for Active; 'I' for Inactive)
    1  A    between atoms: C_2  and  C_6
    2  A    between atoms: C_2  and  C_25
    3  A    between atoms: C_6  and  C_13
    4  A    between atoms: C_9  and  N_24
    5  A    between atoms: C_13  and  C_22
    6  A    between atoms: C_14  and  C_25
    7  A    between atoms: C_22  and  N_24
                            x       y       z     vdW  Elec       q    Type
                         _______ _______ _______ _____ _____    ______ ____

>  <TORSDO>
F 7

$$$$
=
 OpenBabel11042420153D

 25 28  0  0  1  0  0  0  0  0999 V2000
  161.8940  205.9850  152.3250 C   0  0  0  0  0  0  0  0  0  0  0  0
  163.0570  205.7800  152.0140 O   0  0  0  0  0  0  0  0  0  0  0  0
  161.5170  207.2310  153.0660 C   0  0  2  0  0  3  0  0  0  0  0  0
  160.6610  206.9080  154.1200 O   0  0  0  0  0  1  0  0  0  0  0  0
  160.8270  208.2220  152.1390 C   0  0  0  0  0  2  0  0  0  0  0  0
  162.2440  209.1940  150.4950 O   0  0  0  0  0  1  0  0  0  0  0  0
  161.7570  209.3700  151.7910 C   0  0  1  0  0  3  0  0  0  0  0  0
  161.0270  210.6280  151.8650 N   0  0  0  0  0  2  0  0  0  0  0  0
  158.9880  211.3590  152.7580 C   0  0  0  0  0  2  0  0  0  0  0  0
  161.0200  211.1380  154.0890 O   0  0  0  0  0  0  0  0  0  0  0  0
  160.2280  210.5940  153.0780 C   0  0  1  0  0  0  0  0  0  0  0  0
  159.2200  212.1050  154.8410 F   0  0  0  0  0  0  0  0  0  0  0  0
  159.9790  211.9850  153.6930 C   0  0  2  0  0  0  0  0  0  0  0  0
  160.8490  204.9780  151.9650 C   0  0  0  0  0  2  0  0  0  0  0  0
  161.1770  203.8610  147.8580 C   0  0  0  0  0  0  0  0  0  0  0  0
  161.4270  204.5920  145.4770 N   0  0  0  0  0  0  0  0  0  0  0  0
  161.1700  205.5170  149.5790 N   0  0  0  0  0  0  0  0  0  0  0  0
  161.2780  205.2010  148.2610 C   0  0  0  0  0  0  0  0  0  0  0  0
  160.9580  204.5700  150.5320 C   0  0  0  0  0  0  0  0  0  0  0  0
  160.9680  202.8700  148.8230 C   0  0  0  0  0  3  0  0  0  0  0  0
  161.5350  205.8390  145.8250 C   0  0  0  0  0  3  0  0  0  0  0  0
  160.8620  203.2230  150.1680 C   0  0  0  0  0  3  0  0  0  0  0  0
  161.2090  202.3420  146.0320 O   0  0  0  0  0  0  0  0  0  0  0  0
  161.2750  203.5350  146.4300 C   0  0  0  0  0  0  0  0  0  0  0  0
  161.5430  206.2970  147.2640 C   0  0  0  0  0  2  0  0  0  0  0  0
  1  3  1  0  0  0  0
  2  1  2  0  0  0  0
  3  4  1  1  0  0  0
  5  3  1  0  0  0  0
  7  6  1  6  0  0  0
  7  8  1  0  0  0  0
  7  5  1  0  0  0  0
  9 11  1  0  0  0  0
  9 13  1  0  0  0  0
 11  8  1  6  0  0  0
 11 13  1  0  0  0  0
 11 10  1  0  0  0  0
 13 10  1  0  0  0  0
 13 12  1  1  0  0  0
 14  1  1  0  0  0  0
 15 18  2  0  0  0  0
 15 20  1  0  0  0  0
 16 21  2  0  0  0  0
 16 24  1  0  0  0  0
 17 19  2  0  0  0  0
 18 17  1  0  0  0  0
 19 14  1  0  0  0  0
 20 22  2  0  0  0  0
 21 25  1  0  0  0  0
 22 19  1  0  0  0  0
 23 24  2  0  0  0  0
 24 15  1  0  0  0  0
 25 18  1  0  0  0  0
M  END
>  <MODEL>
7

>  <REMARK>
 VINA RESULT:      -7.4      3.188      7.266
  Name = 
  7 active torsions:
  status: ('A' for Active; 'I' for Inactive)
    1  A    between atoms: C_2  and  C_6
    2  A    between atoms: C_2  and  C_25
    3  A    between atoms: C_6  and  C_13
    4  A    between atoms: C_9  and  N_24
    5  A    between atoms: C_13  and  C_22
    6  A    between atoms: C_14  and  C_25
    7  A    between atoms: C_22  and  N_24
                            x       y       z     vdW  Elec       q    Type
                         _______ _______ _______ _____ _____    ______ ____

>  <TORSDO>
F 7

$$$$
=
 OpenBabel11042420153D

 25 28  0  0  1  0  0  0  0  0999 V2000
  161.1070  204.5670  151.1600 C   0  0  0  0  0  0  0  0  0  0  0  0
  160.4580  203.7610  151.8080 O   0  0  0  0  0  0  0  0  0  0  0  0
  160.8210  204.7740  149.7030 C   0  0  2  0  0  3  0  0  0  0  0  0
  160.8160  203.5420  149.0480 O   0  0  0  0  0  1  0  0  0  0  0  0
  161.8690  205.6790  149.0720 C   0  0  0  0  0  2  0  0  0  0  0  0
  161.5130  207.9930  148.6490 O   0  0  0  0  0  1  0  0  0  0  0  0
  161.2160  206.7150  148.1740 C   0  0  1  0  0  3  0  0  0  0  0  0
  161.7250  206.5740  146.8170 N   0  0  0  0  0  2  0  0  0  0  0  0
  161.9460  204.5750  145.6160 C   0  0  0  0  0  2  0  0  0  0  0  0
  160.1460  206.1720  145.2210 O   0  0  0  0  0  0  0  0  0  0  0  0
  160.9460  205.5340  146.1680 C   0  0  1  0  0  0  0  0  0  0  0  0
  160.5270  204.4800  143.9050 F   0  0  0  0  0  0  0  0  0  0  0  0
  161.1890  205.4360  144.6490 C   0  0  2  0  0  0  0  0  0  0  0  0
  162.1940  205.3440  151.8310 C   0  0  0  0  0  2  0  0  0  0  0  0
  160.6060  208.6070  154.0780 C   0  0  0  0  0  0  0  0  0  0  0  0
  160.0740  211.0510  154.1780 N   0  0  0  0  0  0  0  0  0  0  0  0
  161.5350  207.7090  152.0690 N   0  0  0  0  0  0  0  0  0  0  0  0
  161.0360  208.7740  152.7530 C   0  0  0  0  0  0  0  0  0  0  0  0
  161.6390  206.4750  152.6320 C   0  0  0  0  0  0  0  0  0  0  0  0
  160.6960  207.3440  154.6730 C   0  0  0  0  0  3  0  0  0  0  0  0
  160.4560  211.2290  152.9490 C   0  0  0  0  0  3  0  0  0  0  0  0
  161.2110  206.2700  153.9480 C   0  0  0  0  0  3  0  0  0  0  0  0
  159.6740  209.6530  155.9960 O   0  0  0  0  0  0  0  0  0  0  0  0
  160.0880  209.7680  154.8120 C   0  0  0  0  0  0  0  0  0  0  0  0
  160.9210  210.1030  152.0570 C   0  0  0  0  0  2  0  0  0  0  0  0
  1  2  2  0  0  0  0
  1 14  1  0  0  0  0
  3  4  1  6  0  0  0
  3  1  1  0  0  0  0
  5  3  1  0  0  0  0
  7  6  1  1  0  0  0
  7  5  1  0  0  0  0
  8  7  1  0  0  0  0
  9 11  1  0  0  0  0
 10 11  1  0  0  0  0
 11  8  1  1  0  0  0
 13 12  1  1  0  0  0
 13 10  1  0  0  0  0
 13  9  1  0  0  0  0
 13 11  1  0  0  0  0
 14 19  1  0  0  0  0
 15 20  1  0  0  0  0
 15 24  1  0  0  0  0
 16 24  1  0  0  0  0
 17 19  2  0  0  0  0
 17 18  1  0  0  0  0
 18 15  2  0  0  0  0
 19 22  1  0  0  0  0
 21 16  2  0  0  0  0
 22 20  2  0  0  0  0
 24 23  2  0  0  0  0
 25 18  1  0  0  0  0
 25 21  1  0  0  0  0
M  END
>  <MODEL>
8

>  <REMARK>
 VINA RESULT:      -7.4      2.769      4.033
  Name = 
  7 active torsions:
  status: ('A' for Active; 'I' for Inactive)
    1  A    between atoms: C_2  and  C_6
    2  A    between atoms: C_2  and  C_25
    3  A    between atoms: C_6  and  C_13
    4  A    between atoms: C_9  and  N_24
    5  A    between atoms: C_13  and  C_22
    6  A    between atoms: C_14  and  C_25
    7  A    between atoms: C_22  and  N_24
                            x       y       z     vdW  Elec       q    Type
                         _______ _______ _______ _____ _____    ______ ____

>  <TORSDO>
F 7

$$$$
=
 OpenBabel11042420153D

 25 28  0  0  1  0  0  0  0  0999 V2000
  161.9950  205.1380  146.2590 C   0  0  0  0  0  0  0  0  0  0  0  0
  163.1130  205.1060  146.7480 O   0  0  0  0  0  0  0  0  0  0  0  0
  161.5960  204.1420  145.2120 C   0  0  2  0  0  3  0  0  0  0  0  0
  160.3350  204.4680  144.7120 O   0  0  0  0  0  1  0  0  0  0  0  0
  161.5630  202.7360  145.7920 C   0  0  0  0  0  2  0  0  0  0  0  0
  160.0810  201.3510  144.5500 O   0  0  0  0  0  1  0  0  0  0  0  0
  160.1680  202.1450  145.6940 C   0  0  1  0  0  3  0  0  0  0  0  0
  159.9010  201.3290  146.8710 N   0  0  0  0  0  2  0  0  0  0  0  0
  161.5820  200.4970  148.2730 C   0  0  0  0  0  2  0  0  0  0  0  0
  160.0810  202.3040  148.9250 O   0  0  0  0  0  0  0  0  0  0  0  0
  160.8390  201.7350  147.9020 C   0  0  1  0  0  0  0  0  0  0  0  0
  161.4270  201.3280  150.3300 F   0  0  0  0  0  0  0  0  0  0  0  0
  160.5990  201.0490  149.2610 C   0  0  2  0  0  0  0  0  0  0  0  0
  161.0260  206.1860  146.7080 C   0  0  0  0  0  2  0  0  0  0  0  0
  161.4450  206.9480  150.8870 C   0  0  0  0  0  0  0  0  0  0  0  0
  161.3980  206.0430  153.2200 N   0  0  0  0  0  0  0  0  0  0  0  0
  161.0960  205.4480  149.0610 N   0  0  0  0  0  0  0  0  0  0  0  0
  161.2230  205.6510  150.4000 C   0  0  0  0  0  0  0  0  0  0  0  0
  161.1720  206.4700  148.1670 C   0  0  0  0  0  0  0  0  0  0  0  0
  161.5340  208.0120  149.9840 C   0  0  0  0  0  3  0  0  0  0  0  0
  161.2040  204.8310  152.7940 C   0  0  0  0  0  3  0  0  0  0  0  0
  161.4020  207.7750  148.6160 C   0  0  0  0  0  3  0  0  0  0  0  0
  161.7780  208.3020  152.8090 O   0  0  0  0  0  0  0  0  0  0  0  0
  161.5590  207.1560  152.3360 C   0  0  0  0  0  0  0  0  0  0  0  0
  161.1600  204.4690  151.3290 C   0  0  0  0  0  2  0  0  0  0  0  0
  1 14  1  0  0  0  0
  1  2  2  0  0  0  0
  3  4  1  1  0  0  0
  3  5  1  0  0  0  0
  3  1  1  0  0  0  0
  7  6  1  6  0  0  0
  7  5  1  0  0  0  0
  7  8  1  0  0  0  0
  9 13  1  0  0  0  0
 10 13  1  0  0  0  0
 11  8  1  6  0  0  0
 11  9  1  0  0  0  0
 11 10  1  0  0  0  0
 11 13  1  0  0  0  0
 13 12  1  1  0  0  0
 14 19  1  0  0  0  0
 15 24  1  0  0  0  0
 17 18  2  0  0  0  0
 18 15  1  0  0  0  0
 18 25  1  0  0  0  0
 19 22  2  0  0  0  0
 19 17  1  0  0  0  0
 20 15  2  0  0  0  0
 21 16  2  0  0  0  0
 22 20  1  0  0  0  0
 24 23  2  0  0  0  0
 24 16  1  0  0  0  0
 25 21  1  0  0  0  0
M  END
>  <MODEL>
9

>  <REMARK>
 VINA RESULT:      -7.3      1.963      4.129
  Name = 
  7 active torsions:
  status: ('A' for Active; 'I' for Inactive)
    1  A    between atoms: C_2  and  C_6
    2  A    between atoms: C_2  and  C_25
    3  A    between atoms: C_6  and  C_13
    4  A    between atoms: C_9  and  N_24
    5  A    between atoms: C_13  and  C_22
    6  A    between atoms: C_14  and  C_25
    7  A    between atoms: C_22  and  N_24
                            x       y       z     vdW  Elec       q    Type
                         _______ _______ _______ _____ _____    ______ ____

>  <TORSDO>
F 7

$$$$
