=
 OpenBabel11042421123D

 64 69  0  0  1  0  0  0  0  0999 V2000
  163.1840  205.5610  146.9180 N   0  0  0  0  0  0  0  0  0  0  0  0
  162.8020  207.4920  148.3670 C   0  0  0  0  0  2  0  0  0  0  0  0
  161.5360  206.8200  148.8210 C   0  0  2  0  0  3  0  0  0  0  0  0
  161.1340  205.6920  148.1870 C   0  0  1  0  0  3  0  0  0  0  0  0
  163.8150  206.4560  147.8820 C   0  0  0  0  0  2  0  0  0  0  0  0
  161.9560  205.1610  147.0720 C   0  0  0  0  0  0  0  0  0  0  0  0
  160.0360  204.8100  148.7180 C   0  0  0  0  0  2  0  0  0  0  0  0
  160.8650  203.6900  150.7470 N   0  0  0  0  0  0  0  0  0  0  0  0
  161.3410  200.3150  150.2080 O   0  0  0  0  0  0  0  0  0  0  0  0
  161.1120  201.5490  150.1350 C   0  0  0  0  0  0  0  0  0  0  0  0
  161.2280  202.4350  151.2320 N   0  0  0  0  0  2  0  0  0  0  0  0
  160.6680  202.2610  148.9110 C   0  0  0  0  0  2  0  0  0  0  0  0
  160.5880  203.6420  149.4810 C   0  0  0  0  0  0  0  0  0  0  0  0
  160.8140  207.4730  149.8400 O   0  0  0  0  0  0  0  0  0  0  0  0
  161.0400  208.3770  152.0340 C   0  0  0  0  0  3  0  0  0  0  0  0
  161.0520  207.3380  151.2080 C   0  0  0  0  0  3  0  0  0  0  0  0
  160.7330  209.7900  151.6030 C   0  0  1  0  0  3  0  0  0  0  0  0
  160.2060  210.6410  152.7370 C   0  0  0  0  0  0  0  0  0  0  0  0
  161.0250  211.2130  153.5110 O   0  0  0  0  0  0  0  0  0  0  0  0
  158.8000  210.9090  152.8370 N   0  0  0  0  0  2  0  0  0  0  0  0
  158.0780  213.2050  153.7380 C   0  0  0  0  0  0  0  0  0  0  0  0
  157.0970  213.9230  154.5630 C   0  0  0  0  0  3  0  0  0  0  0  0
  157.4760  211.1020  154.8020 C   0  0  0  0  0  3  0  0  0  0  0  0
  156.4550  213.2790  155.5420 C   0  0  0  0  0  3  0  0  0  0  0  0
  158.8630  213.8560  153.0010 O   0  0  0  0  0  0  0  0  0  0  0  0
  156.7860  211.8520  155.9080 C   0  0  0  0  0  2  0  0  0  0  0  0
  158.1220  211.7220  153.8070 C   0  0  0  0  0  0  0  0  0  0  0  0
  161.9040  210.4840  150.8610 C   0  0  0  0  0  2  0  0  0  0  0  0
  160.8590  212.7090  150.4050 C   0  0  0  0  0  3  0  0  0  0  0  0
  160.6620  213.5780  148.1570 C   0  0  0  0  0  3  0  0  0  0  0  0
  161.3110  212.4500  147.6570 C   0  0  0  0  0  0  0  0  0  0  0  0
  161.5030  211.5720  149.9150 C   0  0  0  0  0  0  0  0  0  0  0  0
  161.7330  211.4410  148.5420 C   0  0  0  0  0  3  0  0  0  0  0  0
  160.4340  213.7120  149.5290 C   0  0  0  0  0  3  0  0  0  0  0  0
  160.5790  212.8450  145.3110 C   0  0  0  0  0  1  0  0  0  0  0  0
  161.5150  212.3610  146.2780 O   0  0  0  0  0  0  0  0  0  0  0  0
  161.3560  204.1960  146.0900 C   0  0  0  0  0  2  0  0  0  0  0  0
  160.9250  204.8820  144.8000 C   0  0  1  0  0  3  0  0  0  0  0  0
  158.6580  205.8720  145.1450 O   0  0  0  0  0  0  0  0  0  0  0  0
  160.5260  207.1990  145.2850 O   0  0  0  0  0  1  0  0  0  0  0  0
  160.0390  206.0510  145.0980 C   0  0  0  0  0  0  0  0  0  0  0  0
  162.1190  205.3380  143.9650 C   0  0  0  0  0  2  0  0  0  0  0  0
  161.6480  206.2990  142.8890 C   0  0  0  0  0  2  0  0  0  0  0  0
  161.7640  205.6620  141.5130 C   0  0  0  0  0  2  0  0  0  0  0  0
  163.3540  207.5560  141.3880 C   0  0  0  0  0  1  0  0  0  0  0  0
  162.5580  206.5550  140.5670 C   0  0  2  0  0  3  0  0  0  0  0  0
  160.8310  208.3020  139.9050 N   0  0  0  0  0  2  0  0  0  0  0  0
  161.7140  207.2410  139.5200 C   0  0  0  0  0  0  0  0  0  0  0  0
  161.8720  206.9730  138.2980 O   0  0  0  0  0  0  0  0  0  0  0  0
  161.1750  212.1150  138.9560 C   0  0  2  0  0  3  0  0  0  0  0  0
  162.0930  210.5380  138.8300 S   0  0  0  0  0  0  0  0  0  0  0  0
  159.2130  211.0540  137.8760 C   0  0  0  0  0  0  0  0  0  0  0  0
  159.4560  209.8060  138.6210 C   0  0  0  0  0  3  0  0  0  0  0  0
  160.0220  212.1130  137.9960 C   0  0  0  0  0  3  0  0  0  0  0  0
  160.6430  209.5180  139.1740 C   0  0  0  0  0  0  0  0  0  0  0  0
  162.0230  213.1820  138.6720 O   0  0  0  0  0  0  0  0  0  0  0  0
  162.9540  212.6710  137.7620 C   0  0  0  0  0  1  0  0  0  0  0  0
  157.9900  211.1670  137.0270 C   0  0  0  0  0  2  0  0  0  0  0  0
  155.7360  213.7950  138.5520 C   0  0  0  0  0  3  0  0  0  0  0  0
  154.9140  213.0110  139.3650 C   0  0  0  0  0  3  0  0  0  0  0  0
  156.8800  211.8010  137.7940 C   0  0  0  0  0  0  0  0  0  0  0  0
  156.0540  211.0190  138.6090 C   0  0  0  0  0  3  0  0  0  0  0  0
  155.0710  211.6240  139.3920 C   0  0  0  0  0  3  0  0  0  0  0  0
  156.7190  213.1910  137.7700 C   0  0  0  0  0  3  0  0  0  0  0  0
  1  6  2  0  0  0  0
  1  5  1  0  0  0  0
  2  3  1  0  0  0  0
  3 14  1  6  0  0  0
  4  7  1  1  0  0  0
  4  3  1  0  0  0  0
  5  2  1  0  0  0  0
  6  4  1  0  0  0  0
  7 13  1  0  0  0  0
  8 11  1  0  0  0  0
 10  9  2  0  0  0  0
 10 11  1  0  0  0  0
 12 13  1  0  0  0  0
 12 10  1  0  0  0  0
 13  8  2  0  0  0  0
 14 16  1  0  0  0  0
 16 15  2  0  0  0  0
 17 28  1  1  0  0  0
 17 15  1  0  0  0  0
 17 18  1  0  0  0  0
 18 20  1  0  0  0  0
 18 19  2  0  0  0  0
 20 27  1  0  0  0  0
 21 27  1  0  0  0  0
 21 22  1  0  0  0  0
 22 24  2  0  0  0  0
 23 26  1  0  0  0  0
 24 26  1  0  0  0  0
 25 21  2  0  0  0  0
 27 23  2  0  0  0  0
 30 34  1  0  0  0  0
 31 30  2  0  0  0  0
 31 33  1  0  0  0  0
 32 29  1  0  0  0  0
 32 28  1  0  0  0  0
 33 32  2  0  0  0  0
 34 29  2  0  0  0  0
 35 36  1  0  0  0  0
 36 31  1  0  0  0  0
 37  6  1  0  0  0  0
 38 42  1  1  0  0  0
 38 41  1  0  0  0  0
 38 37  1  0  0  0  0
 41 39  2  0  0  0  0
 41 40  1  0  0  0  0
 43 42  1  0  0  0  0
 44 43  1  0  0  0  0
 46 45  1  1  0  0  0
 46 44  1  0  0  0  0
 48 47  1  0  0  0  0
 48 46  1  0  0  0  0
 49 48  2  0  0  0  0
 50 56  1  6  0  0  0
 51 50  1  0  0  0  0
 51 55  1  0  0  0  0
 52 54  2  0  0  0  0
 52 53  1  0  0  0  0
 53 55  2  0  0  0  0
 54 50  1  0  0  0  0
 55 47  1  0  0  0  0
 57 56  1  0  0  0  0
 58 61  1  0  0  0  0
 58 52  1  0  0  0  0
 59 60  1  0  0  0  0
 60 63  2  0  0  0  0
 61 62  2  0  0  0  0
 62 63  1  0  0  0  0
 64 61  1  0  0  0  0
 64 59  2  0  0  0  0
M  END
>  <MODEL>
1

>  <REMARK>
 VINA RESULT:      -1.5      0.000      0.000
  Name = 
  22 active torsions:
  status: ('A' for Active; 'I' for Inactive)
    1  A    between atoms: C_4  and  C_13
    2  A    between atoms: C_4  and  C_55
    3  A    between atoms: C_8  and  C_45
    4  A    between atoms: C_13  and  C_36
    5  A    between atoms: C_13  and  C_53
    6  A    between atoms: C_14  and  C_53
    7  A    between atoms: C_14  and  C_59
    8  A    between atoms: C_15  and  C_26
    9  A    between atoms: C_15  and  C_45
   10  A    between atoms: O_21  and  C_31
   11  A    between atoms: O_21  and  C_54
   12  A    between atoms: C_22  and  O_32
   13  A    between atoms: C_23  and  C_35
   14  A    between atoms: O_25  and  C_27
   15  A    between atoms: C_29  and  C_35
   16  A    between atoms: N_30  and  C_58
   17  A    between atoms: C_33  and  C_62
   18  A    between atoms: C_34  and  C_56
   19  A    between atoms: C_45  and  C_46
   20  A    between atoms: C_56  and  C_61
   21  A    between atoms: C_59  and  C_62
   22  A    between atoms: N_63  and  C_64
                            x       y       z     vdW  Elec       q    Type
                         _______ _______ _______ _____ _____    ______ ____

>  <TORSDO>
F 22

$$$$
=
 OpenBabel11042421123D

 64 69  0  0  1  0  0  0  0  0999 V2000
  162.1260  204.0260  146.4260 N   0  0  0  0  0  0  0  0  0  0  0  0
  162.4780  203.9890  148.8440 C   0  0  0  0  0  2  0  0  0  0  0  0
  161.9590  205.4000  148.8770 C   0  0  2  0  0  3  0  0  0  0  0  0
  161.7290  206.0360  147.7030 C   0  0  1  0  0  3  0  0  0  0  0  0
  161.9180  203.2380  147.6370 C   0  0  0  0  0  2  0  0  0  0  0  0
  161.9950  205.3200  146.4310 C   0  0  0  0  0  0  0  0  0  0  0  0
  160.9780  207.3390  147.6190 C   0  0  0  0  0  2  0  0  0  0  0  0
  162.3220  209.3620  148.0180 N   0  0  0  0  0  0  0  0  0  0  0  0
  162.1020  210.3820  151.3080 O   0  0  0  0  0  0  0  0  0  0  0  0
  162.0340  209.7960  150.1970 C   0  0  0  0  0  0  0  0  0  0  0  0
  162.6590  210.2700  149.0200 N   0  0  0  0  0  2  0  0  0  0  0  0
  161.2810  208.5430  149.9410 C   0  0  0  0  0  2  0  0  0  0  0  0
  161.6030  208.3900  148.4880 C   0  0  0  0  0  0  0  0  0  0  0  0
  161.8220  205.9850  150.1510 O   0  0  0  0  0  0  0  0  0  0  0  0
  162.6980  206.1130  152.3650 C   0  0  0  0  0  3  0  0  0  0  0  0
  162.8650  206.2080  151.0510 C   0  0  0  0  0  3  0  0  0  0  0  0
  161.3980  205.7220  153.0210 C   0  0  1  0  0  3  0  0  0  0  0  0
  160.8270  206.8270  153.8830 C   0  0  0  0  0  0  0  0  0  0  0  0
  160.1410  206.5240  154.9000 O   0  0  0  0  0  0  0  0  0  0  0  0
  161.1880  208.1920  153.6280 N   0  0  0  0  0  2  0  0  0  0  0  0
  161.3820  209.7520  155.6600 C   0  0  0  0  0  0  0  0  0  0  0  0
  161.1610  211.1160  156.1590 C   0  0  0  0  0  3  0  0  0  0  0  0
  159.8530  210.1510  153.8110 C   0  0  0  0  0  3  0  0  0  0  0  0
  160.2310  211.8890  155.5900 C   0  0  0  0  0  3  0  0  0  0  0  0
  162.0590  208.9420  156.3460 O   0  0  0  0  0  0  0  0  0  0  0  0
  159.3120  211.3670  154.5120 C   0  0  0  0  0  2  0  0  0  0  0  0
  160.7870  209.3620  154.3560 C   0  0  0  0  0  0  0  0  0  0  0  0
  160.3430  205.1640  152.0320 C   0  0  0  0  0  2  0  0  0  0  0  0
  161.5700  202.9900  152.1910 C   0  0  0  0  0  3  0  0  0  0  0  0
  161.0920  201.1550  150.6910 C   0  0  0  0  0  3  0  0  0  0  0  0
  160.0920  201.9080  150.0770 C   0  0  0  0  0  0  0  0  0  0  0  0
  160.5760  203.7560  151.5790 C   0  0  0  0  0  0  0  0  0  0  0  0
  159.8330  203.2170  150.5240 C   0  0  0  0  0  3  0  0  0  0  0  0
  161.8340  201.6910  151.7470 C   0  0  0  0  0  3  0  0  0  0  0  0
  157.9820  201.0310  149.0900 C   0  0  0  0  0  1  0  0  0  0  0  0
  159.3790  201.3290  149.0240 O   0  0  0  0  0  0  0  0  0  0  0  0
  162.1620  206.0930  145.1550 C   0  0  0  0  0  2  0  0  0  0  0  0
  161.4650  205.4190  143.9790 C   0  0  1  0  0  3  0  0  0  0  0  0
  159.2300  205.6390  145.0720 O   0  0  0  0  0  1  0  0  0  0  0  0
  159.8900  203.6200  144.2010 O   0  0  0  0  0  0  0  0  0  0  0  0
  160.1550  204.8350  144.4100 C   0  0  0  0  0  0  0  0  0  0  0  0
  161.2430  206.3810  142.8150 C   0  0  0  0  0  2  0  0  0  0  0  0
  162.2360  206.0760  141.7080 C   0  0  0  0  0  2  0  0  0  0  0  0
  161.6840  206.5090  140.3590 C   0  0  0  0  0  2  0  0  0  0  0  0
  163.6340  207.9910  140.7250 C   0  0  0  0  0  1  0  0  0  0  0  0
  162.4280  207.7330  139.8370 C   0  0  2  0  0  3  0  0  0  0  0  0
  161.3060  209.7790  140.8520 N   0  0  0  0  0  2  0  0  0  0  0  0
  161.5640  208.9630  139.7010 C   0  0  0  0  0  0  0  0  0  0  0  0
  161.1730  209.3460  138.5650 O   0  0  0  0  0  0  0  0  0  0  0  0
  162.6750  213.4580  140.4680 C   0  0  2  0  0  3  0  0  0  0  0  0
  162.0510  212.0680  139.4550 S   0  0  0  0  0  0  0  0  0  0  0  0
  160.6240  213.3610  141.8560 C   0  0  0  0  0  0  0  0  0  0  0  0
  160.6340  211.8880  141.7990 C   0  0  0  0  0  3  0  0  0  0  0  0
  161.5400  214.0950  141.2150 C   0  0  0  0  0  3  0  0  0  0  0  0
  161.3090  211.2100  140.8600 C   0  0  0  0  0  0  0  0  0  0  0  0
  163.2910  214.4020  139.6500 O   0  0  0  0  0  0  0  0  0  0  0  0
  164.3730  213.7290  139.0750 C   0  0  0  0  0  1  0  0  0  0  0  0
  159.6140  214.0480  142.7150 C   0  0  0  0  0  2  0  0  0  0  0  0
  161.0900  213.0680  146.0570 C   0  0  0  0  0  3  0  0  0  0  0  0
  159.9710  212.5400  146.7050 C   0  0  0  0  0  3  0  0  0  0  0  0
  159.7230  213.5790  144.1250 C   0  0  0  0  0  0  0  0  0  0  0  0
  158.6060  213.0500  144.7780 C   0  0  0  0  0  3  0  0  0  0  0  0
  158.7290  212.5330  146.0680 C   0  0  0  0  0  3  0  0  0  0  0  0
  160.9660  213.5850  144.7680 C   0  0  0  0  0  3  0  0  0  0  0  0
  1  6  2  0  0  0  0
  1  5  1  0  0  0  0
  2  3  1  0  0  0  0
  3 14  1  1  0  0  0
  4  7  1  6  0  0  0
  4  3  1  0  0  0  0
  5  2  1  0  0  0  0
  6  4  1  0  0  0  0
  7 13  1  0  0  0  0
  8 13  2  0  0  0  0
  8 11  1  0  0  0  0
 10  9  2  0  0  0  0
 11 10  1  0  0  0  0
 12 10  1  0  0  0  0
 13 12  1  0  0  0  0
 14 16  1  0  0  0  0
 15 17  1  0  0  0  0
 16 15  2  0  0  0  0
 17 28  1  6  0  0  0
 17 18  1  0  0  0  0
 18 19  2  0  0  0  0
 20 18  1  0  0  0  0
 20 27  1  0  0  0  0
 21 22  1  0  0  0  0
 21 25  2  0  0  0  0
 23 27  2  0  0  0  0
 23 26  1  0  0  0  0
 24 22  2  0  0  0  0
 26 24  1  0  0  0  0
 27 21  1  0  0  0  0
 30 34  2  0  0  0  0
 31 33  2  0  0  0  0
 31 30  1  0  0  0  0
 32 28  1  0  0  0  0
 32 29  2  0  0  0  0
 33 32  1  0  0  0  0
 34 29  1  0  0  0  0
 36 35  1  0  0  0  0
 36 31  1  0  0  0  0
 37  6  1  0  0  0  0
 38 42  1  6  0  0  0
 38 41  1  0  0  0  0
 38 37  1  0  0  0  0
 40 41  2  0  0  0  0
 41 39  1  0  0  0  0
 43 42  1  0  0  0  0
 44 43  1  0  0  0  0
 46 44  1  0  0  0  0
 46 45  1  1  0  0  0
 47 55  1  0  0  0  0
 48 46  1  0  0  0  0
 48 47  1  0  0  0  0
 49 48  2  0  0  0  0
 50 56  1  6  0  0  0
 50 54  1  0  0  0  0
 51 50  1  0  0  0  0
 51 55  1  0  0  0  0
 52 58  1  0  0  0  0
 53 52  1  0  0  0  0
 54 52  2  0  0  0  0
 55 53  2  0  0  0  0
 57 56  1  0  0  0  0
 58 61  1  0  0  0  0
 59 60  1  0  0  0  0
 61 64  1  0  0  0  0
 61 62  2  0  0  0  0
 62 63  1  0  0  0  0
 63 60  2  0  0  0  0
 64 59  2  0  0  0  0
M  END
>  <MODEL>
2

>  <REMARK>
 VINA RESULT:      -0.6      2.900      5.834
  Name = 
  22 active torsions:
  status: ('A' for Active; 'I' for Inactive)
    1  A    between atoms: C_4  and  C_13
    2  A    between atoms: C_4  and  C_55
    3  A    between atoms: C_8  and  C_45
    4  A    between atoms: C_13  and  C_36
    5  A    between atoms: C_13  and  C_53
    6  A    between atoms: C_14  and  C_53
    7  A    between atoms: C_14  and  C_59
    8  A    between atoms: C_15  and  C_26
    9  A    between atoms: C_15  and  C_45
   10  A    between atoms: O_21  and  C_31
   11  A    between atoms: O_21  and  C_54
   12  A    between atoms: C_22  and  O_32
   13  A    between atoms: C_23  and  C_35
   14  A    between atoms: O_25  and  C_27
   15  A    between atoms: C_29  and  C_35
   16  A    between atoms: N_30  and  C_58
   17  A    between atoms: C_33  and  C_62
   18  A    between atoms: C_34  and  C_56
   19  A    between atoms: C_45  and  C_46
   20  A    between atoms: C_56  and  C_61
   21  A    between atoms: C_59  and  C_62
   22  A    between atoms: N_63  and  C_64
                            x       y       z     vdW  Elec       q    Type
                         _______ _______ _______ _____ _____    ______ ____

>  <TORSDO>
F 22

$$$$
=
 OpenBabel11042421123D

 64 69  0  0  1  0  0  0  0  0999 V2000
  162.2750  204.1650  146.3900 N   0  0  0  0  0  0  0  0  0  0  0  0
  162.6480  204.1650  148.8060 C   0  0  0  0  0  2  0  0  0  0  0  0
  162.0860  205.5590  148.8280 C   0  0  2  0  0  3  0  0  0  0  0  0
  161.8260  206.1750  147.6500 C   0  0  1  0  0  3  0  0  0  0  0  0
  162.1020  203.3840  147.6110 C   0  0  0  0  0  2  0  0  0  0  0  0
  162.1040  205.4540  146.3830 C   0  0  0  0  0  0  0  0  0  0  0  0
  161.0350  207.4530  147.5590 C   0  0  0  0  0  2  0  0  0  0  0  0
  162.3530  209.4990  147.9270 N   0  0  0  0  0  0  0  0  0  0  0  0
  162.0670  210.6030  151.1840 O   0  0  0  0  0  0  0  0  0  0  0  0
  162.0230  209.9870  150.0880 C   0  0  0  0  0  0  0  0  0  0  0  0
  162.6640  210.4360  148.9100 N   0  0  0  0  0  2  0  0  0  0  0  0
  161.2870  208.7210  149.8530 C   0  0  0  0  0  2  0  0  0  0  0  0
  161.6340  208.5330  148.4110 C   0  0  0  0  0  0  0  0  0  0  0  0
  161.9410  206.1530  150.0980 O   0  0  0  0  0  0  0  0  0  0  0  0
  162.7700  206.2030  152.3320 C   0  0  0  0  0  3  0  0  0  0  0  0
  162.9670  206.3290  151.0260 C   0  0  0  0  0  3  0  0  0  0  0  0
  161.4470  205.8230  152.9490 C   0  0  1  0  0  3  0  0  0  0  0  0
  160.8720  206.9250  153.8120 C   0  0  0  0  0  0  0  0  0  0  0  0
  160.3330  206.6260  154.9160 O   0  0  0  0  0  0  0  0  0  0  0  0
  161.0680  208.2980  153.4460 N   0  0  0  0  0  2  0  0  0  0  0  0
  161.3170  209.9780  155.3730 C   0  0  0  0  0  0  0  0  0  0  0  0
  161.0290  211.3460  155.8260 C   0  0  0  0  0  3  0  0  0  0  0  0
  159.5970  210.1520  153.6630 C   0  0  0  0  0  3  0  0  0  0  0  0
  159.9890  212.0100  155.3130 C   0  0  0  0  0  3  0  0  0  0  0  0
  162.1200  209.2640  156.0290 O   0  0  0  0  0  0  0  0  0  0  0  0
  159.0220  211.3580  154.3550 C   0  0  0  0  0  2  0  0  0  0  0  0
  160.6400  209.4710  154.1530 C   0  0  0  0  0  0  0  0  0  0  0  0
  160.4100  205.2950  151.9260 C   0  0  0  0  0  2  0  0  0  0  0  0
  161.5510  203.0800  152.1390 C   0  0  0  0  0  3  0  0  0  0  0  0
  161.0920  201.2680  150.6040 C   0  0  0  0  0  3  0  0  0  0  0  0
  160.1530  202.0580  149.9410 C   0  0  0  0  0  0  0  0  0  0  0  0
  160.6180  203.8830  151.4790 C   0  0  0  0  0  0  0  0  0  0  0  0
  159.9160  203.3730  150.3810 C   0  0  0  0  0  3  0  0  0  0  0  0
  161.7930  201.7740  151.7030 C   0  0  0  0  0  3  0  0  0  0  0  0
  160.1460  200.9100  147.7330 C   0  0  0  0  0  1  0  0  0  0  0  0
  159.4800  201.5080  148.8480 O   0  0  0  0  0  0  0  0  0  0  0  0
  162.2360  206.2190  145.0980 C   0  0  0  0  0  2  0  0  0  0  0  0
  161.5190  205.5300  143.9430 C   0  0  1  0  0  3  0  0  0  0  0  0
  159.9700  203.5840  144.1620 O   0  0  0  0  0  0  0  0  0  0  0  0
  159.3680  205.6330  145.0020 O   0  0  0  0  0  1  0  0  0  0  0  0
  160.2300  204.9300  144.4090 C   0  0  0  0  0  0  0  0  0  0  0  0
  161.2560  206.4830  142.7790 C   0  0  0  0  0  2  0  0  0  0  0  0
  162.3170  206.2870  141.7120 C   0  0  0  0  0  2  0  0  0  0  0  0
  161.7310  206.5110  140.3270 C   0  0  0  0  0  2  0  0  0  0  0  0
  163.1670  208.5000  140.6690 C   0  0  0  0  0  1  0  0  0  0  0  0
  162.4180  207.6810  139.6310 C   0  0  2  0  0  3  0  0  0  0  0  0
  160.1330  208.7330  139.2510 N   0  0  0  0  0  2  0  0  0  0  0  0
  161.4840  208.5400  138.8140 C   0  0  0  0  0  0  0  0  0  0  0  0
  161.9170  209.1880  137.8230 O   0  0  0  0  0  0  0  0  0  0  0  0
  158.9650  212.3330  140.3590 C   0  0  2  0  0  3  0  0  0  0  0  0
  160.3600  211.4930  139.5250 S   0  0  0  0  0  0  0  0  0  0  0  0
  157.3850  211.2860  138.7630 C   0  0  0  0  0  0  0  0  0  0  0  0
  158.1540  210.0300  138.8000 C   0  0  0  0  0  3  0  0  0  0  0  0
  157.7720  212.3670  139.4510 C   0  0  0  0  0  3  0  0  0  0  0  0
  159.4280  209.9780  139.2140 C   0  0  0  0  0  0  0  0  0  0  0  0
  159.3320  213.6320  140.7050 O   0  0  0  0  0  0  0  0  0  0  0  0
  158.2030  214.1730  141.3280 C   0  0  0  0  0  1  0  0  0  0  0  0
  156.1000  211.3310  138.0030 C   0  0  0  0  0  2  0  0  0  0  0  0
  153.4370  209.3050  139.7680 C   0  0  0  0  0  3  0  0  0  0  0  0
  152.7110  210.3100  140.4110 C   0  0  0  0  0  3  0  0  0  0  0  0
  154.9580  210.9720  138.8900 C   0  0  0  0  0  0  0  0  0  0  0  0
  154.2290  211.9750  139.5370 C   0  0  0  0  0  3  0  0  0  0  0  0
  153.1080  211.6440  140.2980 C   0  0  0  0  0  3  0  0  0  0  0  0
  154.5570  209.6360  139.0070 C   0  0  0  0  0  3  0  0  0  0  0  0
  1  5  1  0  0  0  0
  2  3  1  0  0  0  0
  3 14  1  6  0  0  0
  4  7  1  1  0  0  0
  4  3  1  0  0  0  0
  5  2  1  0  0  0  0
  6  1  2  0  0  0  0
  6  4  1  0  0  0  0
  7 13  1  0  0  0  0
  8 13  2  0  0  0  0
  8 11  1  0  0  0  0
 10  9  2  0  0  0  0
 11 10  1  0  0  0  0
 12 10  1  0  0  0  0
 13 12  1  0  0  0  0
 14 16  1  0  0  0  0
 15 17  1  0  0  0  0
 16 15  2  0  0  0  0
 17 28  1  6  0  0  0
 17 18  1  0  0  0  0
 18 19  2  0  0  0  0
 20 18  1  0  0  0  0
 20 27  1  0  0  0  0
 21 22  1  0  0  0  0
 21 25  2  0  0  0  0
 23 27  2  0  0  0  0
 23 26  1  0  0  0  0
 24 22  2  0  0  0  0
 26 24  1  0  0  0  0
 27 21  1  0  0  0  0
 30 34  2  0  0  0  0
 31 33  2  0  0  0  0
 31 30  1  0  0  0  0
 32 28  1  0  0  0  0
 32 29  2  0  0  0  0
 33 32  1  0  0  0  0
 34 29  1  0  0  0  0
 35 36  1  0  0  0  0
 36 31  1  0  0  0  0
 37  6  1  0  0  0  0
 38 42  1  6  0  0  0
 38 41  1  0  0  0  0
 38 37  1  0  0  0  0
 39 41  2  0  0  0  0
 41 40  1  0  0  0  0
 43 42  1  0  0  0  0
 44 43  1  0  0  0  0
 46 44  1  0  0  0  0
 46 45  1  1  0  0  0
 48 47  1  0  0  0  0
 48 46  1  0  0  0  0
 49 48  2  0  0  0  0
 50 56  1  6  0  0  0
 51 50  1  0  0  0  0
 52 53  1  0  0  0  0
 52 54  2  0  0  0  0
 53 55  2  0  0  0  0
 54 50  1  0  0  0  0
 55 47  1  0  0  0  0
 55 51  1  0  0  0  0
 56 57  1  0  0  0  0
 58 52  1  0  0  0  0
 58 61  1  0  0  0  0
 59 60  1  0  0  0  0
 61 64  1  0  0  0  0
 61 62  2  0  0  0  0
 62 63  1  0  0  0  0
 63 60  2  0  0  0  0
 64 59  2  0  0  0  0
M  END
>  <MODEL>
3

>  <REMARK>
 VINA RESULT:      -0.4      2.444      5.259
  Name = 
  22 active torsions:
  status: ('A' for Active; 'I' for Inactive)
    1  A    between atoms: C_4  and  C_13
    2  A    between atoms: C_4  and  C_55
    3  A    between atoms: C_8  and  C_45
    4  A    between atoms: C_13  and  C_36
    5  A    between atoms: C_13  and  C_53
    6  A    between atoms: C_14  and  C_53
    7  A    between atoms: C_14  and  C_59
    8  A    between atoms: C_15  and  C_26
    9  A    between atoms: C_15  and  C_45
   10  A    between atoms: O_21  and  C_31
   11  A    between atoms: O_21  and  C_54
   12  A    between atoms: C_22  and  O_32
   13  A    between atoms: C_23  and  C_35
   14  A    between atoms: O_25  and  C_27
   15  A    between atoms: C_29  and  C_35
   16  A    between atoms: N_30  and  C_58
   17  A    between atoms: C_33  and  C_62
   18  A    between atoms: C_34  and  C_56
   19  A    between atoms: C_45  and  C_46
   20  A    between atoms: C_56  and  C_61
   21  A    between atoms: C_59  and  C_62
   22  A    between atoms: N_63  and  C_64
                            x       y       z     vdW  Elec       q    Type
                         _______ _______ _______ _____ _____    ______ ____

>  <TORSDO>
F 22

$$$$
=
 OpenBabel11042421123D

 64 69  0  0  1  0  0  0  0  0999 V2000
  162.3140  208.8610  150.3970 N   0  0  0  0  0  0  0  0  0  0  0  0
  162.7270  210.9260  149.1560 C   0  0  0  0  0  2  0  0  0  0  0  0
  161.8750  210.3590  148.0550 C   0  0  2  0  0  3  0  0  0  0  0  0
  161.4640  209.0720  148.1470 C   0  0  1  0  0  3  0  0  0  0  0  0
  162.3400  210.3170  150.5030 C   0  0  0  0  0  2  0  0  0  0  0  0
  161.8660  208.2700  149.3290 C   0  0  0  0  0  0  0  0  0  0  0  0
  160.4120  208.4880  147.2420 C   0  0  0  0  0  2  0  0  0  0  0  0
  160.0460  206.3690  146.0440 N   0  0  0  0  0  0  0  0  0  0  0  0
  163.0330  204.7700  145.3870 O   0  0  0  0  0  0  0  0  0  0  0  0
  162.1040  205.5300  145.7650 C   0  0  0  0  0  0  0  0  0  0  0  0
  160.7380  205.2990  145.4810 N   0  0  0  0  0  2  0  0  0  0  0  0
  162.2900  206.7820  146.5390 C   0  0  0  0  0  2  0  0  0  0  0  0
  160.8530  207.1780  146.6580 C   0  0  0  0  0  0  0  0  0  0  0  0
  161.6310  211.2070  146.9560 O   0  0  0  0  0  0  0  0  0  0  0  0
  160.4100  211.8950  145.0280 C   0  0  0  0  0  3  0  0  0  0  0  0
  160.6230  211.0270  146.0090 C   0  0  0  0  0  3  0  0  0  0  0  0
  161.2430  213.1320  144.8050 C   0  0  1  0  0  3  0  0  0  0  0  0
  162.0870  213.0460  143.5520 C   0  0  0  0  0  0  0  0  0  0  0  0
  163.3460  213.0400  143.6550 O   0  0  0  0  0  0  0  0  0  0  0  0
  161.4590  212.8260  142.2800 N   0  0  0  0  0  2  0  0  0  0  0  0
  162.4060  211.3520  140.4010 C   0  0  0  0  0  0  0  0  0  0  0  0
  162.7310  211.2840  138.9690 C   0  0  0  0  0  3  0  0  0  0  0  0
  162.3710  213.7820  140.3050 C   0  0  0  0  0  3  0  0  0  0  0  0
  162.9970  212.4050  138.2940 C   0  0  0  0  0  3  0  0  0  0  0  0
  162.4120  210.2990  141.0900 O   0  0  0  0  0  0  0  0  0  0  0  0
  163.0860  213.7460  138.9810 C   0  0  0  0  0  2  0  0  0  0  0  0
  162.0880  212.6740  141.0000 C   0  0  0  0  0  0  0  0  0  0  0  0
  160.4310  214.4510  144.8590 C   0  0  0  0  0  2  0  0  0  0  0  0
  157.9520  214.1840  144.6590 C   0  0  0  0  0  3  0  0  0  0  0  0
  156.5150  214.2150  146.6040 C   0  0  0  0  0  3  0  0  0  0  0  0
  157.6270  214.3620  147.4320 C   0  0  0  0  0  0  0  0  0  0  0  0
  159.0730  214.3370  145.4780 C   0  0  0  0  0  0  0  0  0  0  0  0
  158.9130  214.4240  146.8650 C   0  0  0  0  0  3  0  0  0  0  0  0
  156.6720  214.1260  145.2180 C   0  0  0  0  0  3  0  0  0  0  0  0
  156.5650  213.5570  149.5340 C   0  0  0  0  0  1  0  0  0  0  0  0
  157.4190  214.4470  148.8110 O   0  0  0  0  0  0  0  0  0  0  0  0
  161.8020  206.7710  149.2760 C   0  0  0  0  0  2  0  0  0  0  0  0
  161.0440  206.1850  150.4610 C   0  0  1  0  0  3  0  0  0  0  0  0
  160.6940  203.7490  150.0390 O   0  0  0  0  0  0  0  0  0  0  0  0
  162.3810  204.4440  151.4310 O   0  0  0  0  0  1  0  0  0  0  0  0
  161.4230  204.7530  150.6720 C   0  0  0  0  0  0  0  0  0  0  0  0
  161.2820  206.9770  151.7440 C   0  0  0  0  0  2  0  0  0  0  0  0
  161.3220  206.0270  152.9270 C   0  0  0  0  0  2  0  0  0  0  0  0
  160.4100  206.5200  154.0400 C   0  0  0  0  0  2  0  0  0  0  0  0
  160.5730  207.3040  156.3830 C   0  0  0  0  0  1  0  0  0  0  0  0
  161.1650  207.4420  154.9910 C   0  0  2  0  0  3  0  0  0  0  0  0
  160.0890  209.4350  153.8330 N   0  0  0  0  0  2  0  0  0  0  0  0
  161.2050  208.8830  154.5430 C   0  0  0  0  0  0  0  0  0  0  0  0
  162.1530  209.6350  154.8980 O   0  0  0  0  0  0  0  0  0  0  0  0
  159.3200  213.2560  153.2230 C   0  0  2  0  0  3  0  0  0  0  0  0
  158.7980  211.5980  152.6490 S   0  0  0  0  0  0  0  0  0  0  0  0
  158.8900  212.5760  155.5670 C   0  0  0  0  0  0  0  0  0  0  0  0
  159.4320  211.2330  155.2950 C   0  0  0  0  0  3  0  0  0  0  0  0
  158.8000  213.5040  154.6070 C   0  0  0  0  0  3  0  0  0  0  0  0
  159.5400  210.7380  154.0530 C   0  0  0  0  0  0  0  0  0  0  0  0
  158.8380  214.2310  152.3540 O   0  0  0  0  0  0  0  0  0  0  0  0
  157.4490  214.0660  152.3610 C   0  0  0  0  0  1  0  0  0  0  0  0
  158.5040  212.9350  156.9640 C   0  0  0  0  0  2  0  0  0  0  0  0
  154.8370  212.0520  157.2480 C   0  0  0  0  0  3  0  0  0  0  0  0
  154.2420  213.3080  157.1110 C   0  0  0  0  0  3  0  0  0  0  0  0
  157.0240  213.0740  157.0760 C   0  0  0  0  0  0  0  0  0  0  0  0
  156.4250  214.3300  156.9390 C   0  0  0  0  0  3  0  0  0  0  0  0
  155.0350  214.4480  156.9590 C   0  0  0  0  0  3  0  0  0  0  0  0
  156.2250  211.9350  157.2280 C   0  0  0  0  0  3  0  0  0  0  0  0
  1  5  1  0  0  0  0
  2  5  1  0  0  0  0
  3 14  1  6  0  0  0
  3  4  1  0  0  0  0
  3  2  1  0  0  0  0
  4  7  1  1  0  0  0
  4  6  1  0  0  0  0
  6  1  2  0  0  0  0
  8 13  2  0  0  0  0
  9 10  2  0  0  0  0
 10 12  1  0  0  0  0
 11 10  1  0  0  0  0
 11  8  1  0  0  0  0
 12 13  1  0  0  0  0
 13  7  1  0  0  0  0
 15 16  2  0  0  0  0
 16 14  1  0  0  0  0
 17 28  1  6  0  0  0
 17 15  1  0  0  0  0
 18 19  2  0  0  0  0
 18 17  1  0  0  0  0
 20 18  1  0  0  0  0
 21 27  1  0  0  0  0
 21 25  2  0  0  0  0
 22 21  1  0  0  0  0
 23 27  2  0  0  0  0
 24 22  2  0  0  0  0
 24 26  1  0  0  0  0
 26 23  1  0  0  0  0
 27 20  1  0  0  0  0
 28 32  1  0  0  0  0
 29 34  2  0  0  0  0
 29 32  1  0  0  0  0
 30 31  2  0  0  0  0
 31 36  1  0  0  0  0
 32 33  2  0  0  0  0
 33 31  1  0  0  0  0
 34 30  1  0  0  0  0
 36 35  1  0  0  0  0
 37  6  1  0  0  0  0
 38 37  1  6  0  0  0
 38 41  1  0  0  0  0
 38 42  1  0  0  0  0
 39 41  2  0  0  0  0
 41 40  1  0  0  0  0
 42 43  1  0  0  0  0
 43 44  1  0  0  0  0
 44 46  1  0  0  0  0
 46 45  1  1  0  0  0
 47 55  1  0  0  0  0
 47 48  1  0  0  0  0
 48 49  2  0  0  0  0
 48 46  1  0  0  0  0
 50 56  1  6  0  0  0
 50 54  1  0  0  0  0
 51 50  1  0  0  0  0
 51 55  1  0  0  0  0
 52 58  1  0  0  0  0
 53 52  1  0  0  0  0
 54 52  2  0  0  0  0
 55 53  2  0  0  0  0
 56 57  1  0  0  0  0
 58 61  1  0  0  0  0
 60 59  2  0  0  0  0
 61 64  2  0  0  0  0
 62 63  2  0  0  0  0
 62 61  1  0  0  0  0
 63 60  1  0  0  0  0
 64 59  1  0  0  0  0
M  END
>  <MODEL>
4

>  <REMARK>
 VINA RESULT:       0.1      3.801     11.813
  Name = 
  22 active torsions:
  status: ('A' for Active; 'I' for Inactive)
    1  A    between atoms: C_4  and  C_13
    2  A    between atoms: C_4  and  C_55
    3  A    between atoms: C_8  and  C_45
    4  A    between atoms: C_13  and  C_36
    5  A    between atoms: C_13  and  C_53
    6  A    between atoms: C_14  and  C_53
    7  A    between atoms: C_14  and  C_59
    8  A    between atoms: C_15  and  C_26
    9  A    between atoms: C_15  and  C_45
   10  A    between atoms: O_21  and  C_31
   11  A    between atoms: O_21  and  C_54
   12  A    between atoms: C_22  and  O_32
   13  A    between atoms: C_23  and  C_35
   14  A    between atoms: O_25  and  C_27
   15  A    between atoms: C_29  and  C_35
   16  A    between atoms: N_30  and  C_58
   17  A    between atoms: C_33  and  C_62
   18  A    between atoms: C_34  and  C_56
   19  A    between atoms: C_45  and  C_46
   20  A    between atoms: C_56  and  C_61
   21  A    between atoms: C_59  and  C_62
   22  A    between atoms: N_63  and  C_64
                            x       y       z     vdW  Elec       q    Type
                         _______ _______ _______ _____ _____    ______ ____

>  <TORSDO>
F 22

$$$$
=
 OpenBabel11042421123D

 64 69  0  0  1  0  0  0  0  0999 V2000
  160.6280  202.6910  146.1630 N   0  0  0  0  0  0  0  0  0  0  0  0
  160.0110  203.7600  144.0520 C   0  0  0  0  0  2  0  0  0  0  0  0
  161.0600  204.7960  144.3440 C   0  0  2  0  0  3  0  0  0  0  0  0
  161.6700  204.7830  145.5540 C   0  0  1  0  0  3  0  0  0  0  0  0
  160.3460  202.4440  144.7520 C   0  0  0  0  0  2  0  0  0  0  0  0
  161.2820  203.7480  146.5440 C   0  0  0  0  0  0  0  0  0  0  0  0
  162.8970  205.6020  145.8540 C   0  0  0  0  0  2  0  0  0  0  0  0
  163.2680  206.4020  148.1520 N   0  0  0  0  0  0  0  0  0  0  0  0
  161.7220  209.4420  148.6840 O   0  0  0  0  0  0  0  0  0  0  0  0
  162.1600  208.3470  148.2460 C   0  0  0  0  0  0  0  0  0  0  0  0
  162.9840  207.4750  148.9950 N   0  0  0  0  0  2  0  0  0  0  0  0
  161.9030  207.8110  146.8860 C   0  0  0  0  0  2  0  0  0  0  0  0
  162.6690  206.5320  147.0090 C   0  0  0  0  0  0  0  0  0  0  0  0
  161.2760  205.7640  143.3430 O   0  0  0  0  0  0  0  0  0  0  0  0
  162.5230  206.7200  141.5510 C   0  0  0  0  0  3  0  0  0  0  0  0
  162.4400  205.8920  142.5850 C   0  0  0  0  0  3  0  0  0  0  0  0
  161.4030  207.6290  141.1100 C   0  0  1  0  0  3  0  0  0  0  0  0
  161.7880  209.0920  141.1640 C   0  0  0  0  0  0  0  0  0  0  0  0
  162.9790  209.4260  140.9090 O   0  0  0  0  0  0  0  0  0  0  0  0
  160.7760  210.0910  141.3570 N   0  0  0  0  0  2  0  0  0  0  0  0
  159.8280  212.4680  141.1310 C   0  0  0  0  0  0  0  0  0  0  0  0
  159.9980  213.8760  141.5160 C   0  0  0  0  0  3  0  0  0  0  0  0
  162.1440  212.0020  141.7070 C   0  0  0  0  0  3  0  0  0  0  0  0
  161.2110  214.3350  141.8380 C   0  0  0  0  0  3  0  0  0  0  0  0
  158.7560  212.1000  140.5830 O   0  0  0  0  0  0  0  0  0  0  0  0
  162.4460  213.4760  141.7130 C   0  0  0  0  0  2  0  0  0  0  0  0
  160.9380  211.5160  141.3920 C   0  0  0  0  0  0  0  0  0  0  0  0
  160.7930  207.2470  139.7370 C   0  0  0  0  0  2  0  0  0  0  0  0
  161.7930  208.8820  138.1310 C   0  0  0  0  0  3  0  0  0  0  0  0
  160.4400  210.5450  137.0110 C   0  0  0  0  0  3  0  0  0  0  0  0
  159.2970  210.0430  137.6320 C   0  0  0  0  0  0  0  0  0  0  0  0
  160.6560  208.3760  138.7640 C   0  0  0  0  0  0  0  0  0  0  0  0
  159.4070  208.9530  138.5150 C   0  0  0  0  0  3  0  0  0  0  0  0
  161.6890  209.9680  137.2570 C   0  0  0  0  0  3  0  0  0  0  0  0
  156.8130  209.9860  137.4820 C   0  0  0  0  0  1  0  0  0  0  0  0
  158.0710  210.6540  137.3560 O   0  0  0  0  0  0  0  0  0  0  0  0
  161.6030  203.9440  147.9990 C   0  0  0  0  0  2  0  0  0  0  0  0
  160.4640  203.4900  148.9040 C   0  0  1  0  0  3  0  0  0  0  0  0
  159.2370  201.3480  148.5260 O   0  0  0  0  0  0  0  0  0  0  0  0
  161.3630  201.3170  149.3900 O   0  0  0  0  0  1  0  0  0  0  0  0
  160.3950  201.9950  148.9510 C   0  0  0  0  0  0  0  0  0  0  0  0
  160.5990  204.0450  150.3200 C   0  0  0  0  0  2  0  0  0  0  0  0
  160.5880  205.5620  150.2730 C   0  0  0  0  0  2  0  0  0  0  0  0
  160.3340  206.1390  151.6570 C   0  0  0  0  0  2  0  0  0  0  0  0
  161.8250  206.5510  153.5900 C   0  0  0  0  0  1  0  0  0  0  0  0
  161.5430  206.9280  152.1460 C   0  0  2  0  0  3  0  0  0  0  0  0
  160.1790  209.0670  152.3320 N   0  0  0  0  0  2  0  0  0  0  0  0
  161.4080  208.4220  151.9760 C   0  0  0  0  0  0  0  0  0  0  0  0
  162.4060  209.1190  151.6460 O   0  0  0  0  0  0  0  0  0  0  0  0
  159.3580  211.6000  155.2420 C   0  0  2  0  0  3  0  0  0  0  0  0
  160.6240  210.3740  154.7480 S   0  0  0  0  0  0  0  0  0  0  0  0
  159.6120  212.7370  153.0540 C   0  0  0  0  0  0  0  0  0  0  0  0
  159.7450  211.4360  152.3750 C   0  0  0  0  0  3  0  0  0  0  0  0
  159.4700  212.8240  154.3820 C   0  0  0  0  0  3  0  0  0  0  0  0
  160.0780  210.3130  153.0280 C   0  0  0  0  0  0  0  0  0  0  0  0
  159.5290  211.9450  156.5800 O   0  0  0  0  0  0  0  0  0  0  0  0
  160.3880  210.9710  157.0980 C   0  0  0  0  0  1  0  0  0  0  0  0
  159.5560  213.9830  152.2350 C   0  0  0  0  0  2  0  0  0  0  0  0
  159.5760  213.4650  148.4880 C   0  0  0  0  0  3  0  0  0  0  0  0
  158.2160  213.2750  148.2310 C   0  0  0  0  0  3  0  0  0  0  0  0
  159.0950  213.6760  150.8510 C   0  0  0  0  0  0  0  0  0  0  0  0
  157.7350  213.4850  150.5900 C   0  0  0  0  0  3  0  0  0  0  0  0
  157.2960  213.2830  149.2820 C   0  0  0  0  0  3  0  0  0  0  0  0
  160.0140  213.6670  149.7950 C   0  0  0  0  0  3  0  0  0  0  0  0
  1  6  2  0  0  0  0
  2  3  1  0  0  0  0
  2  5  1  0  0  0  0
  3 14  1  1  0  0  0
  3  4  1  0  0  0  0
  4  7  1  6  0  0  0
  4  6  1  0  0  0  0
  5  1  1  0  0  0  0
  6 37  1  0  0  0  0
  7 13  1  0  0  0  0
  8 11  1  0  0  0  0
 10  9  2  0  0  0  0
 10 11  1  0  0  0  0
 12 13  1  0  0  0  0
 12 10  1  0  0  0  0
 13  8  2  0  0  0  0
 15 16  2  0  0  0  0
 16 14  1  0  0  0  0
 17 28  1  6  0  0  0
 17 18  1  0  0  0  0
 17 15  1  0  0  0  0
 18 20  1  0  0  0  0
 19 18  2  0  0  0  0
 20 27  1  0  0  0  0
 21 27  1  0  0  0  0
 21 22  1  0  0  0  0
 22 24  2  0  0  0  0
 23 26  1  0  0  0  0
 25 21  2  0  0  0  0
 26 24  1  0  0  0  0
 27 23  2  0  0  0  0
 29 32  1  0  0  0  0
 30 34  1  0  0  0  0
 30 31  2  0  0  0  0
 31 33  1  0  0  0  0
 32 28  1  0  0  0  0
 33 32  2  0  0  0  0
 34 29  2  0  0  0  0
 36 35  1  0  0  0  0
 36 31  1  0  0  0  0
 38 37  1  6  0  0  0
 38 41  1  0  0  0  0
 38 42  1  0  0  0  0
 39 41  2  0  0  0  0
 41 40  1  0  0  0  0
 43 42  1  0  0  0  0
 43 44  1  0  0  0  0
 44 46  1  0  0  0  0
 46 45  1  1  0  0  0
 47 55  1  0  0  0  0
 48 46  1  0  0  0  0
 48 47  1  0  0  0  0
 49 48  2  0  0  0  0
 50 56  1  1  0  0  0
 51 50  1  0  0  0  0
 52 54  2  0  0  0  0
 53 55  2  0  0  0  0
 53 52  1  0  0  0  0
 54 50  1  0  0  0  0
 55 51  1  0  0  0  0
 56 57  1  0  0  0  0
 58 52  1  0  0  0  0
 59 64  1  0  0  0  0
 60 59  2  0  0  0  0
 60 63  1  0  0  0  0
 61 58  1  0  0  0  0
 62 61  1  0  0  0  0
 63 62  2  0  0  0  0
 64 61  2  0  0  0  0
M  END
>  <MODEL>
5

>  <REMARK>
 VINA RESULT:       0.3      3.065     11.119
  Name = 
  22 active torsions:
  status: ('A' for Active; 'I' for Inactive)
    1  A    between atoms: C_4  and  C_13
    2  A    between atoms: C_4  and  C_55
    3  A    between atoms: C_8  and  C_45
    4  A    between atoms: C_13  and  C_36
    5  A    between atoms: C_13  and  C_53
    6  A    between atoms: C_14  and  C_53
    7  A    between atoms: C_14  and  C_59
    8  A    between atoms: C_15  and  C_26
    9  A    between atoms: C_15  and  C_45
   10  A    between atoms: O_21  and  C_31
   11  A    between atoms: O_21  and  C_54
   12  A    between atoms: C_22  and  O_32
   13  A    between atoms: C_23  and  C_35
   14  A    between atoms: O_25  and  C_27
   15  A    between atoms: C_29  and  C_35
   16  A    between atoms: N_30  and  C_58
   17  A    between atoms: C_33  and  C_62
   18  A    between atoms: C_34  and  C_56
   19  A    between atoms: C_45  and  C_46
   20  A    between atoms: C_56  and  C_61
   21  A    between atoms: C_59  and  C_62
   22  A    between atoms: N_63  and  C_64
                            x       y       z     vdW  Elec       q    Type
                         _______ _______ _______ _____ _____    ______ ____

>  <TORSDO>
F 22

$$$$
=
 OpenBabel11042421123D

 64 69  0  0  1  0  0  0  0  0999 V2000
  162.4880  209.0480  151.2300 N   0  0  0  0  0  0  0  0  0  0  0  0
  161.2860  211.0400  150.4810 C   0  0  0  0  0  2  0  0  0  0  0  0
  160.4300  210.9070  151.7100 C   0  0  2  0  0  3  0  0  0  0  0  0
  160.5670  209.8030  152.4830 C   0  0  1  0  0  3  0  0  0  0  0  0
  162.6550  210.4010  150.7080 C   0  0  0  0  0  2  0  0  0  0  0  0
  161.5540  208.7670  152.0900 C   0  0  0  0  0  0  0  0  0  0  0  0
  159.9530  209.6890  153.8530 C   0  0  0  0  0  2  0  0  0  0  0  0
  160.2190  211.4090  155.5940 N   0  0  0  0  0  0  0  0  0  0  0  0
  163.3050  211.1770  157.1210 O   0  0  0  0  0  0  0  0  0  0  0  0
  162.2800  211.0640  156.4010 C   0  0  0  0  0  0  0  0  0  0  0  0
  161.1220  211.8610  156.5540 N   0  0  0  0  0  2  0  0  0  0  0  0
  162.1140  210.0770  155.3050 C   0  0  0  0  0  2  0  0  0  0  0  0
  160.7360  210.4630  154.8730 C   0  0  0  0  0  0  0  0  0  0  0  0
  159.4820  211.9280  151.9230 O   0  0  0  0  0  0  0  0  0  0  0  0
  158.9550  214.2500  152.0390 C   0  0  0  0  0  3  0  0  0  0  0  0
  159.7800  213.2400  152.2880 C   0  0  0  0  0  3  0  0  0  0  0  0
  157.6070  214.0900  151.3800 C   0  0  1  0  0  3  0  0  0  0  0  0
  157.7150  213.6440  149.9380 C   0  0  0  0  0  0  0  0  0  0  0  0
  156.7960  212.9350  149.4410 O   0  0  0  0  0  0  0  0  0  0  0  0
  158.7760  214.1470  149.1110 N   0  0  0  0  0  2  0  0  0  0  0  0
  158.0950  213.0740  146.8780 C   0  0  0  0  0  0  0  0  0  0  0  0
  158.2420  213.1330  145.4170 C   0  0  0  0  0  3  0  0  0  0  0  0
  160.1110  214.4040  147.1620 C   0  0  0  0  0  3  0  0  0  0  0  0
  159.3390  213.6760  144.8810 C   0  0  0  0  0  3  0  0  0  0  0  0
  157.2040  212.3430  147.3830 O   0  0  0  0  0  0  0  0  0  0  0  0
  160.4970  214.1360  145.7330 C   0  0  0  0  0  2  0  0  0  0  0  0
  159.0160  213.8770  147.7220 C   0  0  0  0  0  0  0  0  0  0  0  0
  156.6220  213.2020  152.1820 C   0  0  0  0  0  2  0  0  0  0  0  0
  157.4400  214.3680  154.2380 C   0  0  0  0  0  3  0  0  0  0  0  0
  157.0670  213.4520  156.4440 C   0  0  0  0  0  3  0  0  0  0  0  0
  156.3640  212.3830  155.8900 C   0  0  0  0  0  0  0  0  0  0  0  0
  156.7440  213.2980  153.6700 C   0  0  0  0  0  0  0  0  0  0  0  0
  156.2030  212.3060  154.4940 C   0  0  0  0  0  3  0  0  0  0  0  0
  157.6060  214.4460  155.6230 C   0  0  0  0  0  3  0  0  0  0  0  0
  155.1090  210.2730  156.3010 C   0  0  0  0  0  1  0  0  0  0  0  0
  155.8450  211.4140  156.7510 O   0  0  0  0  0  0  0  0  0  0  0  0
  161.4460  207.3770  152.6490 C   0  0  0  0  0  2  0  0  0  0  0  0
  161.5330  206.3130  151.5620 C   0  0  1  0  0  3  0  0  0  0  0  0
  160.1970  205.4950  149.6180 O   0  0  0  0  0  0  0  0  0  0  0  0
  159.7220  207.5310  150.5630 O   0  0  0  0  0  1  0  0  0  0  0  0
  160.4290  206.4870  150.5660 C   0  0  0  0  0  0  0  0  0  0  0  0
  162.8820  206.3300  150.8470 C   0  0  0  0  0  2  0  0  0  0  0  0
  162.6760  206.0530  149.3690 C   0  0  0  0  0  2  0  0  0  0  0  0
  163.3030  207.1520  148.5260 C   0  0  0  0  0  2  0  0  0  0  0  0
  161.2050  208.4000  148.1080 C   0  0  0  0  0  1  0  0  0  0  0  0
  162.3350  207.6270  147.4480 C   0  0  2  0  0  3  0  0  0  0  0  0
  162.5730  205.3180  146.4080 N   0  0  0  0  0  2  0  0  0  0  0  0
  161.8100  206.5200  146.5660 C   0  0  0  0  0  0  0  0  0  0  0  0
  160.6520  206.5940  146.0720 O   0  0  0  0  0  0  0  0  0  0  0  0
  160.2440  202.3040  145.3850 C   0  0  2  0  0  3  0  0  0  0  0  0
  161.7260  203.2070  144.8040 S   0  0  0  0  0  0  0  0  0  0  0  0
  161.3310  201.9440  147.5830 C   0  0  0  0  0  0  0  0  0  0  0  0
  161.9030  203.3010  147.5410 C   0  0  0  0  0  3  0  0  0  0  0  0
  160.5940  201.4610  146.5750 C   0  0  0  0  0  3  0  0  0  0  0  0
  162.0280  203.9950  146.4010 C   0  0  0  0  0  0  0  0  0  0  0  0
  159.7510  201.4960  144.3630 O   0  0  0  0  0  0  0  0  0  0  0  0
  159.3020  200.3370  145.0040 C   0  0  0  0  0  1  0  0  0  0  0  0
  161.5110  201.1160  148.8130 C   0  0  0  0  0  2  0  0  0  0  0  0
  162.0440  202.8170  152.1490 C   0  0  0  0  0  3  0  0  0  0  0  0
  160.7670  203.3210  152.4050 C   0  0  0  0  0  3  0  0  0  0  0  0
  161.2660  201.9350  150.0330 C   0  0  0  0  0  0  0  0  0  0  0  0
  159.9890  202.4410  150.2940 C   0  0  0  0  0  3  0  0  0  0  0  0
  159.7400  203.1350  151.4780 C   0  0  0  0  0  3  0  0  0  0  0  0
  162.2920  202.1240  150.9650 C   0  0  0  0  0  3  0  0  0  0  0  0
  1  6  2  0  0  0  0
  2  5  1  0  0  0  0
  2  3  1  0  0  0  0
  3 14  1  6  0  0  0
  3  4  1  0  0  0  0
  4  7  1  1  0  0  0
  5  1  1  0  0  0  0
  6  4  1  0  0  0  0
  6 37  1  0  0  0  0
  7 13  1  0  0  0  0
  8 11  1  0  0  0  0
 10 11  1  0  0  0  0
 10  9  2  0  0  0  0
 12 10  1  0  0  0  0
 13 12  1  0  0  0  0
 13  8  2  0  0  0  0
 14 16  1  0  0  0  0
 15 16  2  0  0  0  0
 17 15  1  1  0  0  0
 17 28  1  0  0  0  0
 18 17  1  0  0  0  0
 19 18  2  0  0  0  0
 20 18  1  0  0  0  0
 21 25  2  0  0  0  0
 21 27  1  0  0  0  0
 22 21  1  0  0  0  0
 23 27  2  0  0  0  0
 24 22  2  0  0  0  0
 24 26  1  0  0  0  0
 26 23  1  0  0  0  0
 27 20  1  0  0  0  0
 28 32  1  0  0  0  0
 29 34  1  0  0  0  0
 31 30  1  0  0  0  0
 31 36  1  0  0  0  0
 32 29  2  0  0  0  0
 32 33  1  0  0  0  0
 33 31  2  0  0  0  0
 34 30  2  0  0  0  0
 35 36  1  0  0  0  0
 38 42  1  6  0  0  0
 38 37  1  0  0  0  0
 39 41  2  0  0  0  0
 40 41  1  0  0  0  0
 41 38  1  0  0  0  0
 43 42  1  0  0  0  0
 44 43  1  0  0  0  0
 46 45  1  1  0  0  0
 46 44  1  0  0  0  0
 47 48  1  0  0  0  0
 48 46  1  0  0  0  0
 49 48  2  0  0  0  0
 50 56  1  6  0  0  0
 50 54  1  0  0  0  0
 51 50  1  0  0  0  0
 51 55  1  0  0  0  0
 52 58  1  0  0  0  0
 53 52  1  0  0  0  0
 54 52  2  0  0  0  0
 55 47  1  0  0  0  0
 55 53  2  0  0  0  0
 56 57  1  0  0  0  0
 58 61  1  0  0  0  0
 59 60  1  0  0  0  0
 61 62  2  0  0  0  0
 61 64  1  0  0  0  0
 62 63  1  0  0  0  0
 63 60  2  0  0  0  0
 64 59  2  0  0  0  0
M  END
>  <MODEL>
6

>  <REMARK>
 VINA RESULT:       0.9      4.650      9.762
  Name = 
  22 active torsions:
  status: ('A' for Active; 'I' for Inactive)
    1  A    between atoms: C_4  and  C_13
    2  A    between atoms: C_4  and  C_55
    3  A    between atoms: C_8  and  C_45
    4  A    between atoms: C_13  and  C_36
    5  A    between atoms: C_13  and  C_53
    6  A    between atoms: C_14  and  C_53
    7  A    between atoms: C_14  and  C_59
    8  A    between atoms: C_15  and  C_26
    9  A    between atoms: C_15  and  C_45
   10  A    between atoms: O_21  and  C_31
   11  A    between atoms: O_21  and  C_54
   12  A    between atoms: C_22  and  O_32
   13  A    between atoms: C_23  and  C_35
   14  A    between atoms: O_25  and  C_27
   15  A    between atoms: C_29  and  C_35
   16  A    between atoms: N_30  and  C_58
   17  A    between atoms: C_33  and  C_62
   18  A    between atoms: C_34  and  C_56
   19  A    between atoms: C_45  and  C_46
   20  A    between atoms: C_56  and  C_61
   21  A    between atoms: C_59  and  C_62
   22  A    between atoms: N_63  and  C_64
                            x       y       z     vdW  Elec       q    Type
                         _______ _______ _______ _____ _____    ______ ____

>  <TORSDO>
F 22

$$$$
=
 OpenBabel11042421123D

 64 69  0  0  1  0  0  0  0  0999 V2000
  162.4540  208.7430  150.9460 N   0  0  0  0  0  0  0  0  0  0  0  0
  161.3990  210.8740  150.3810 C   0  0  0  0  0  2  0  0  0  0  0  0
  160.5320  210.6940  151.5950 C   0  0  2  0  0  3  0  0  0  0  0  0
  160.5860  209.5180  152.2660 C   0  0  1  0  0  3  0  0  0  0  0  0
  162.7180  210.1210  150.5460 C   0  0  0  0  0  2  0  0  0  0  0  0
  161.4990  208.4530  151.7790 C   0  0  0  0  0  0  0  0  0  0  0  0
  159.9610  209.3260  153.6220 C   0  0  0  0  0  2  0  0  0  0  0  0
  161.9570  209.5890  155.0380 N   0  0  0  0  0  0  0  0  0  0  0  0
  161.7950  212.4860  156.9070 O   0  0  0  0  0  0  0  0  0  0  0  0
  161.5990  211.5000  156.1490 C   0  0  0  0  0  0  0  0  0  0  0  0
  162.5370  210.4590  155.9590 N   0  0  0  0  0  2  0  0  0  0  0  0
  160.3810  211.2860  155.3300 C   0  0  0  0  0  2  0  0  0  0  0  0
  160.7700  209.9870  154.6990 C   0  0  0  0  0  0  0  0  0  0  0  0
  159.6580  211.7560  151.9010 O   0  0  0  0  0  0  0  0  0  0  0  0
  158.9730  213.9680  151.3350 C   0  0  0  0  0  3  0  0  0  0  0  0
  159.9230  213.1070  151.6770 C   0  0  0  0  0  3  0  0  0  0  0  0
  157.5170  213.5990  151.1900 C   0  0  1  0  0  3  0  0  0  0  0  0
  156.7930  213.5660  152.5180 C   0  0  0  0  0  0  0  0  0  0  0  0
  155.9300  214.4530  152.7730 O   0  0  0  0  0  0  0  0  0  0  0  0
  156.9820  212.4570  153.4090 N   0  0  0  0  0  2  0  0  0  0  0  0
  156.6070  213.0730  155.8750 C   0  0  0  0  0  0  0  0  0  0  0  0
  155.6850  212.9770  157.0160 C   0  0  0  0  0  3  0  0  0  0  0  0
  155.4790  211.2200  154.7740 C   0  0  0  0  0  3  0  0  0  0  0  0
  154.8110  211.9690  157.0810 C   0  0  0  0  0  3  0  0  0  0  0  0
  157.5910  213.8550  155.9360 O   0  0  0  0  0  0  0  0  0  0  0  0
  154.8110  210.8480  156.0700 C   0  0  0  0  0  2  0  0  0  0  0  0
  156.3550  212.2280  154.6800 C   0  0  0  0  0  0  0  0  0  0  0  0
  156.7580  214.4530  150.1440 C   0  0  0  0  0  2  0  0  0  0  0  0
  155.8030  213.9660  147.8850 C   0  0  0  0  0  3  0  0  0  0  0  0
  157.1760  213.1040  146.0900 C   0  0  0  0  0  3  0  0  0  0  0  0
  158.2980  213.1520  146.9160 C   0  0  0  0  0  0  0  0  0  0  0  0
  156.9190  214.0120  148.7230 C   0  0  0  0  0  0  0  0  0  0  0  0
  158.1680  213.6080  148.2410 C   0  0  0  0  0  3  0  0  0  0  0  0
  155.9270  213.5090  146.5690 C   0  0  0  0  0  3  0  0  0  0  0  0
  160.7800  213.2950  146.7850 C   0  0  0  0  0  1  0  0  0  0  0  0
  159.5240  212.7350  146.3920 O   0  0  0  0  0  0  0  0  0  0  0  0
  161.2900  207.0300  152.2120 C   0  0  0  0  0  2  0  0  0  0  0  0
  160.8350  206.1410  151.0620 C   0  0  1  0  0  3  0  0  0  0  0  0
  160.5160  207.4670  148.9710 O   0  0  0  0  0  0  0  0  0  0  0  0
  162.5020  206.3830  149.3520 O   0  0  0  0  0  1  0  0  0  0  0  0
  161.3430  206.6690  149.7570 C   0  0  0  0  0  0  0  0  0  0  0  0
  161.2830  204.6930  151.2430 C   0  0  0  0  0  2  0  0  0  0  0  0
  160.2310  203.9300  152.0270 C   0  0  0  0  0  2  0  0  0  0  0  0
  160.8470  202.7200  152.7130 C   0  0  0  0  0  2  0  0  0  0  0  0
  161.9990  200.7100  151.8400 C   0  0  0  0  0  1  0  0  0  0  0  0
  160.6840  201.4700  151.8560 C   0  0  2  0  0  3  0  0  0  0  0  0
  161.1260  201.9740  149.4020 N   0  0  0  0  0  2  0  0  0  0  0  0
  160.1850  201.7460  150.4590 C   0  0  0  0  0  0  0  0  0  0  0  0
  158.9560  201.6530  150.1900 O   0  0  0  0  0  0  0  0  0  0  0  0
  161.8320  199.6290  146.3100 C   0  0  2  0  0  3  0  0  0  0  0  0
  160.9030  199.6500  147.8870 S   0  0  0  0  0  0  0  0  0  0  0  0
  160.7420  201.7530  145.6450 C   0  0  0  0  0  0  0  0  0  0  0  0
  160.8400  202.2560  147.0270 C   0  0  0  0  0  3  0  0  0  0  0  0
  161.1630  200.5270  145.3120 C   0  0  0  0  0  3  0  0  0  0  0  0
  161.0180  201.4420  148.0780 C   0  0  0  0  0  0  0  0  0  0  0  0
  161.8890  198.3300  145.8120 O   0  0  0  0  0  0  0  0  0  0  0  0
  160.9530  198.3000  144.7730 C   0  0  0  0  0  1  0  0  0  0  0  0
  160.2320  202.6610  144.5750 C   0  0  0  0  0  2  0  0  0  0  0  0
  162.3880  205.6750  145.3380 C   0  0  0  0  0  3  0  0  0  0  0  0
  161.4180  206.6630  145.5240 C   0  0  0  0  0  3  0  0  0  0  0  0
  160.6460  204.0670  144.8450 C   0  0  0  0  0  0  0  0  0  0  0  0
  159.6790  205.0600  145.0320 C   0  0  0  0  0  3  0  0  0  0  0  0
  160.0650  206.3580  145.3690 C   0  0  0  0  0  3  0  0  0  0  0  0
  162.0010  204.3790  145.0020 C   0  0  0  0  0  3  0  0  0  0  0  0
  1  6  2  0  0  0  0
  2  5  1  0  0  0  0
  2  3  1  0  0  0  0
  3 14  1  6  0  0  0
  3  4  1  0  0  0  0
  4  7  1  1  0  0  0
  5  1  1  0  0  0  0
  6 37  1  0  0  0  0
  6  4  1  0  0  0  0
  7 13  1  0  0  0  0
  8 11  1  0  0  0  0
 10  9  2  0  0  0  0
 11 10  1  0  0  0  0
 12 10  1  0  0  0  0
 13  8  2  0  0  0  0
 13 12  1  0  0  0  0
 15 16  2  0  0  0  0
 16 14  1  0  0  0  0
 17 28  1  6  0  0  0
 17 15  1  0  0  0  0
 17 18  1  0  0  0  0
 18 19  2  0  0  0  0
 18 20  1  0  0  0  0
 20 27  1  0  0  0  0
 21 25  2  0  0  0  0
 21 22  1  0  0  0  0
 22 24  2  0  0  0  0
 23 26  1  0  0  0  0
 26 24  1  0  0  0  0
 27 23  2  0  0  0  0
 27 21  1  0  0  0  0
 29 32  1  0  0  0  0
 30 34  1  0  0  0  0
 30 31  2  0  0  0  0
 31 33  1  0  0  0  0
 32 28  1  0  0  0  0
 33 32  2  0  0  0  0
 34 29  2  0  0  0  0
 36 35  1  0  0  0  0
 36 31  1  0  0  0  0
 38 42  1  1  0  0  0
 38 37  1  0  0  0  0
 39 41  2  0  0  0  0
 40 41  1  0  0  0  0
 41 38  1  0  0  0  0
 42 43  1  0  0  0  0
 43 44  1  0  0  0  0
 46 45  1  6  0  0  0
 46 44  1  0  0  0  0
 47 48  1  0  0  0  0
 48 46  1  0  0  0  0
 49 48  2  0  0  0  0
 50 56  1  6  0  0  0
 50 51  1  0  0  0  0
 51 55  1  0  0  0  0
 52 53  1  0  0  0  0
 53 55  2  0  0  0  0
 54 52  2  0  0  0  0
 54 50  1  0  0  0  0
 55 47  1  0  0  0  0
 57 56  1  0  0  0  0
 58 61  1  0  0  0  0
 58 52  1  0  0  0  0
 59 60  1  0  0  0  0
 61 64  1  0  0  0  0
 61 62  2  0  0  0  0
 62 63  1  0  0  0  0
 63 60  2  0  0  0  0
 64 59  2  0  0  0  0
M  END
>  <MODEL>
7

>  <REMARK>
 VINA RESULT:       1.0      5.040      8.758
  Name = 
  22 active torsions:
  status: ('A' for Active; 'I' for Inactive)
    1  A    between atoms: C_4  and  C_13
    2  A    between atoms: C_4  and  C_55
    3  A    between atoms: C_8  and  C_45
    4  A    between atoms: C_13  and  C_36
    5  A    between atoms: C_13  and  C_53
    6  A    between atoms: C_14  and  C_53
    7  A    between atoms: C_14  and  C_59
    8  A    between atoms: C_15  and  C_26
    9  A    between atoms: C_15  and  C_45
   10  A    between atoms: O_21  and  C_31
   11  A    between atoms: O_21  and  C_54
   12  A    between atoms: C_22  and  O_32
   13  A    between atoms: C_23  and  C_35
   14  A    between atoms: O_25  and  C_27
   15  A    between atoms: C_29  and  C_35
   16  A    between atoms: N_30  and  C_58
   17  A    between atoms: C_33  and  C_62
   18  A    between atoms: C_34  and  C_56
   19  A    between atoms: C_45  and  C_46
   20  A    between atoms: C_56  and  C_61
   21  A    between atoms: C_59  and  C_62
   22  A    between atoms: N_63  and  C_64
                            x       y       z     vdW  Elec       q    Type
                         _______ _______ _______ _____ _____    ______ ____

>  <TORSDO>
F 22

$$$$
=
 OpenBabel11042421123D

 64 69  0  0  1  0  0  0  0  0999 V2000
  162.7610  208.9680  149.1080 N   0  0  0  0  0  0  0  0  0  0  0  0
  161.5280  211.0770  149.1650 C   0  0  0  0  0  2  0  0  0  0  0  0
  160.9410  210.6250  150.4730 C   0  0  2  0  0  3  0  0  0  0  0  0
  161.1810  209.3580  150.8920 C   0  0  1  0  0  3  0  0  0  0  0  0
  162.8820  210.4110  148.9250 C   0  0  0  0  0  2  0  0  0  0  0  0
  162.0130  208.4670  150.0460 C   0  0  0  0  0  0  0  0  0  0  0  0
  160.8610  208.8890  152.2860 C   0  0  0  0  0  2  0  0  0  0  0  0
  162.8410  210.1640  153.0010 N   0  0  0  0  0  0  0  0  0  0  0  0
  162.6280  211.0450  156.3300 O   0  0  0  0  0  0  0  0  0  0  0  0
  162.4730  210.5860  155.1690 C   0  0  0  0  0  0  0  0  0  0  0  0
  163.3820  210.8110  154.1100 N   0  0  0  0  0  2  0  0  0  0  0  0
  161.3200  209.7650  154.7260 C   0  0  0  0  0  2  0  0  0  0  0  0
  161.7370  209.5540  153.3050 C   0  0  0  0  0  0  0  0  0  0  0  0
  160.1090  211.5480  151.1370 O   0  0  0  0  0  0  0  0  0  0  0  0
  159.6340  213.8660  151.4270 C   0  0  0  0  0  3  0  0  0  0  0  0
  160.4760  212.8420  151.5050 C   0  0  0  0  0  3  0  0  0  0  0  0
  158.2000  213.7420  150.9780 C   0  0  1  0  0  3  0  0  0  0  0  0
  158.0790  213.4200  149.5050 C   0  0  0  0  0  0  0  0  0  0  0  0
  157.0340  212.8480  149.0820 O   0  0  0  0  0  0  0  0  0  0  0  0
  159.0750  213.8900  148.5850 N   0  0  0  0  0  2  0  0  0  0  0  0
  158.0040  214.1480  146.2640 C   0  0  0  0  0  0  0  0  0  0  0  0
  158.2620  214.2500  144.8200 C   0  0  0  0  0  3  0  0  0  0  0  0
  160.2100  213.1880  146.6180 C   0  0  0  0  0  3  0  0  0  0  0  0
  159.3740  213.7180  144.3060 C   0  0  0  0  0  3  0  0  0  0  0  0
  156.8560  214.4100  146.7090 O   0  0  0  0  0  0  0  0  0  0  0  0
  160.3320  212.9090  145.1450 C   0  0  0  0  0  2  0  0  0  0  0  0
  159.1100  213.7240  147.1600 C   0  0  0  0  0  0  0  0  0  0  0  0
  157.3540  212.7780  151.8470 C   0  0  0  0  0  2  0  0  0  0  0  0
  155.6220  213.8030  153.3310 C   0  0  0  0  0  3  0  0  0  0  0  0
  156.1220  214.4370  155.6100 C   0  0  0  0  0  3  0  0  0  0  0  0
  157.4230  213.9560  155.4660 C   0  0  0  0  0  0  0  0  0  0  0  0
  156.9240  213.3250  153.1720 C   0  0  0  0  0  0  0  0  0  0  0  0
  157.8250  213.3980  154.2390 C   0  0  0  0  0  3  0  0  0  0  0  0
  155.2180  214.3630  154.5460 C   0  0  0  0  0  3  0  0  0  0  0  0
  159.4620  213.2480  156.7050 C   0  0  0  0  0  1  0  0  0  0  0  0
  158.2890  214.0530  156.5570 O   0  0  0  0  0  0  0  0  0  0  0  0
  161.9560  206.9790  150.2420 C   0  0  0  0  0  2  0  0  0  0  0  0
  161.6160  206.2420  148.9530 C   0  0  1  0  0  3  0  0  0  0  0  0
  159.1600  206.1800  149.4000 O   0  0  0  0  0  1  0  0  0  0  0  0
  159.9480  207.0490  147.4270 O   0  0  0  0  0  0  0  0  0  0  0  0
  160.2040  206.5240  148.5440 C   0  0  0  0  0  0  0  0  0  0  0  0
  162.5660  206.6060  147.8150 C   0  0  0  0  0  2  0  0  0  0  0  0
  162.7600  205.4030  146.9100 C   0  0  0  0  0  2  0  0  0  0  0  0
  162.6910  205.8160  145.4480 C   0  0  0  0  0  2  0  0  0  0  0  0
  160.3140  206.0800  144.8060 C   0  0  0  0  0  1  0  0  0  0  0  0
  161.5120  205.1470  144.7510 C   0  0  2  0  0  3  0  0  0  0  0  0
  161.9340  203.2440  146.3870 N   0  0  0  0  0  2  0  0  0  0  0  0
  161.1760  203.7790  145.2930 C   0  0  0  0  0  0  0  0  0  0  0  0
  160.1600  203.1600  144.8780 O   0  0  0  0  0  0  0  0  0  0  0  0
  159.2180  201.5130  148.6640 C   0  0  2  0  0  3  0  0  0  0  0  0
  160.2200  201.1950  147.1660 S   0  0  0  0  0  0  0  0  0  0  0  0
  161.2820  202.0640  149.9210 C   0  0  0  0  0  0  0  0  0  0  0  0
  161.8350  202.7560  148.7430 C   0  0  0  0  0  3  0  0  0  0  0  0
  160.0900  201.4560  149.8830 C   0  0  0  0  0  3  0  0  0  0  0  0
  161.3800  202.5370  147.5010 C   0  0  0  0  0  0  0  0  0  0  0  0
  158.2030  200.5660  148.7650 O   0  0  0  0  0  0  0  0  0  0  0  0
  157.0250  201.2680  148.4870 C   0  0  0  0  0  1  0  0  0  0  0  0
  162.0330  202.1110  151.2110 C   0  0  0  0  0  2  0  0  0  0  0  0
  160.1730  204.8130  153.0940 C   0  0  0  0  0  3  0  0  0  0  0  0
  161.1360  205.8230  153.1440 C   0  0  0  0  0  3  0  0  0  0  0  0
  161.7430  203.3800  151.9360 C   0  0  0  0  0  0  0  0  0  0  0  0
  162.7050  204.3930  151.9900 C   0  0  0  0  0  3  0  0  0  0  0  0
  162.4030  205.6130  152.5950 C   0  0  0  0  0  3  0  0  0  0  0  0
  160.4750  203.5950  152.4890 C   0  0  0  0  0  3  0  0  0  0  0  0
  1  6  2  0  0  0  0
  2  3  1  0  0  0  0
  3  4  1  0  0  0  0
  3 14  1  6  0  0  0
  4  7  1  1  0  0  0
  5  1  1  0  0  0  0
  5  2  1  0  0  0  0
  6 37  1  0  0  0  0
  6  4  1  0  0  0  0
  7 13  1  0  0  0  0
  8 13  2  0  0  0  0
  8 11  1  0  0  0  0
 10  9  2  0  0  0  0
 11 10  1  0  0  0  0
 12 10  1  0  0  0  0
 13 12  1  0  0  0  0
 14 16  1  0  0  0  0
 15 16  2  0  0  0  0
 17 15  1  1  0  0  0
 17 28  1  0  0  0  0
 18 17  1  0  0  0  0
 19 18  2  0  0  0  0
 20 18  1  0  0  0  0
 21 25  2  0  0  0  0
 21 27  1  0  0  0  0
 22 21  1  0  0  0  0
 23 27  2  0  0  0  0
 24 22  2  0  0  0  0
 24 26  1  0  0  0  0
 26 23  1  0  0  0  0
 27 20  1  0  0  0  0
 28 32  1  0  0  0  0
 29 34  1  0  0  0  0
 31 30  1  0  0  0  0
 31 36  1  0  0  0  0
 32 29  2  0  0  0  0
 32 33  1  0  0  0  0
 33 31  2  0  0  0  0
 34 30  2  0  0  0  0
 36 35  1  0  0  0  0
 38 42  1  6  0  0  0
 38 37  1  0  0  0  0
 40 41  2  0  0  0  0
 41 38  1  0  0  0  0
 41 39  1  0  0  0  0
 43 42  1  0  0  0  0
 44 43  1  0  0  0  0
 46 45  1  1  0  0  0
 46 48  1  0  0  0  0
 46 44  1  0  0  0  0
 47 55  1  0  0  0  0
 48 47  1  0  0  0  0
 49 48  2  0  0  0  0
 50 56  1  1  0  0  0
 50 54  1  0  0  0  0
 51 55  1  0  0  0  0
 51 50  1  0  0  0  0
 52 58  1  0  0  0  0
 53 52  1  0  0  0  0
 54 52  2  0  0  0  0
 55 53  2  0  0  0  0
 57 56  1  0  0  0  0
 58 61  1  0  0  0  0
 59 60  1  0  0  0  0
 61 62  2  0  0  0  0
 61 64  1  0  0  0  0
 62 63  1  0  0  0  0
 63 60  2  0  0  0  0
 64 59  2  0  0  0  0
M  END
>  <MODEL>
8

>  <REMARK>
 VINA RESULT:       1.0      4.485      9.799
  Name = 
  22 active torsions:
  status: ('A' for Active; 'I' for Inactive)
    1  A    between atoms: C_4  and  C_13
    2  A    between atoms: C_4  and  C_55
    3  A    between atoms: C_8  and  C_45
    4  A    between atoms: C_13  and  C_36
    5  A    between atoms: C_13  and  C_53
    6  A    between atoms: C_14  and  C_53
    7  A    between atoms: C_14  and  C_59
    8  A    between atoms: C_15  and  C_26
    9  A    between atoms: C_15  and  C_45
   10  A    between atoms: O_21  and  C_31
   11  A    between atoms: O_21  and  C_54
   12  A    between atoms: C_22  and  O_32
   13  A    between atoms: C_23  and  C_35
   14  A    between atoms: O_25  and  C_27
   15  A    between atoms: C_29  and  C_35
   16  A    between atoms: N_30  and  C_58
   17  A    between atoms: C_33  and  C_62
   18  A    between atoms: C_34  and  C_56
   19  A    between atoms: C_45  and  C_46
   20  A    between atoms: C_56  and  C_61
   21  A    between atoms: C_59  and  C_62
   22  A    between atoms: N_63  and  C_64
                            x       y       z     vdW  Elec       q    Type
                         _______ _______ _______ _____ _____    ______ ____

>  <TORSDO>
F 22

$$$$
=
 OpenBabel11042421123D

 64 69  0  0  1  0  0  0  0  0999 V2000
  162.4830  209.2770  151.4040 N   0  0  0  0  0  0  0  0  0  0  0  0
  161.4860  211.4790  151.0390 C   0  0  0  0  0  2  0  0  0  0  0  0
  160.4970  211.1390  152.1190 C   0  0  2  0  0  3  0  0  0  0  0  0
  160.4860  209.8790  152.6190 C   0  0  1  0  0  3  0  0  0  0  0  0
  162.7830  210.6950  151.2320 C   0  0  0  0  0  2  0  0  0  0  0  0
  161.4480  208.8840  152.0840 C   0  0  0  0  0  0  0  0  0  0  0  0
  159.7240  209.5060  153.8630 C   0  0  0  0  0  2  0  0  0  0  0  0
  160.5800  208.7260  156.0340 N   0  0  0  0  0  0  0  0  0  0  0  0
  163.2230  210.6690  157.1090 O   0  0  0  0  0  0  0  0  0  0  0  0
  162.2460  210.1460  156.5130 C   0  0  0  0  0  0  0  0  0  0  0  0
  161.5670  208.9960  156.9800 N   0  0  0  0  0  2  0  0  0  0  0  0
  161.6700  210.6300  155.2340 C   0  0  0  0  0  2  0  0  0  0  0  0
  160.5820  209.6140  155.0880 C   0  0  0  0  0  0  0  0  0  0  0  0
  159.5930  212.1570  152.4800 O   0  0  0  0  0  0  0  0  0  0  0  0
  158.7770  214.1980  151.5560 C   0  0  0  0  0  3  0  0  0  0  0  0
  159.7350  213.5090  152.1650 C   0  0  0  0  0  3  0  0  0  0  0  0
  157.4360  213.6190  151.1780 C   0  0  1  0  0  3  0  0  0  0  0  0
  156.3900  213.8300  152.2510 C   0  0  0  0  0  0  0  0  0  0  0  0
  155.2940  214.3770  151.9450 O   0  0  0  0  0  0  0  0  0  0  0  0
  156.5890  213.2800  153.5620 N   0  0  0  0  0  2  0  0  0  0  0  0
  155.8650  212.4910  155.8970 C   0  0  0  0  0  0  0  0  0  0  0  0
  155.1260  212.8490  157.1160 C   0  0  0  0  0  3  0  0  0  0  0  0
  154.6940  214.2180  154.6480 C   0  0  0  0  0  3  0  0  0  0  0  0
  154.1340  213.7410  157.0530 C   0  0  0  0  0  3  0  0  0  0  0  0
  156.6110  211.4770  155.8980 O   0  0  0  0  0  0  0  0  0  0  0  0
  153.6650  214.3210  155.7400 C   0  0  0  0  0  2  0  0  0  0  0  0
  155.7000  213.3360  154.6870 C   0  0  0  0  0  0  0  0  0  0  0  0
  156.9300  214.0760  149.7860 C   0  0  0  0  0  2  0  0  0  0  0  0
  157.2670  213.3770  147.4090 C   0  0  0  0  0  3  0  0  0  0  0  0
  159.4770  212.9990  146.5030 C   0  0  0  0  0  3  0  0  0  0  0  0
  160.0470  213.3580  147.7230 C   0  0  0  0  0  0  0  0  0  0  0  0
  157.8260  213.7330  148.6380 C   0  0  0  0  0  0  0  0  0  0  0  0
  159.2160  213.7260  148.7970 C   0  0  0  0  0  3  0  0  0  0  0  0
  158.0890  213.0070  146.3410 C   0  0  0  0  0  3  0  0  0  0  0  0
  162.3030  212.8400  146.8090 C   0  0  0  0  0  1  0  0  0  0  0  0
  161.4390  213.3340  147.8370 O   0  0  0  0  0  0  0  0  0  0  0  0
  161.2000  207.4170  152.2880 C   0  0  0  0  0  2  0  0  0  0  0  0
  161.6680  206.5850  151.1000 C   0  0  1  0  0  3  0  0  0  0  0  0
  160.7840  204.7300  152.5190 O   0  0  0  0  0  1  0  0  0  0  0  0
  161.5620  204.2890  150.4050 O   0  0  0  0  0  0  0  0  0  0  0  0
  161.3330  205.1400  151.3070 C   0  0  0  0  0  0  0  0  0  0  0  0
  161.0650  207.0720  149.7850 C   0  0  0  0  0  2  0  0  0  0  0  0
  162.1750  207.5380  148.8600 C   0  0  0  0  0  2  0  0  0  0  0  0
  161.5960  208.1090  147.5750 C   0  0  0  0  0  2  0  0  0  0  0  0
  160.6470  207.2030  145.4750 C   0  0  0  0  0  1  0  0  0  0  0  0
  161.8510  207.1700  146.4020 C   0  0  2  0  0  3  0  0  0  0  0  0
  161.1810  204.9090  147.3590 N   0  0  0  0  0  2  0  0  0  0  0  0
  162.1970  205.7590  146.8120 C   0  0  0  0  0  0  0  0  0  0  0  0
  163.3380  205.2840  146.5610 O   0  0  0  0  0  0  0  0  0  0  0  0
  159.6410  201.6910  145.6780 C   0  0  2  0  0  3  0  0  0  0  0  0
  160.7690  203.0810  145.3010 S   0  0  0  0  0  0  0  0  0  0  0  0
  160.9890  201.1460  147.6850 C   0  0  0  0  0  0  0  0  0  0  0  0
  161.1770  202.5800  147.9690 C   0  0  0  0  0  3  0  0  0  0  0  0
  160.3130  200.7260  146.6090 C   0  0  0  0  0  3  0  0  0  0  0  0
  161.0050  203.5270  147.0350 C   0  0  0  0  0  0  0  0  0  0  0  0
  159.2820  201.0390  144.5000 O   0  0  0  0  0  0  0  0  0  0  0  0
  160.3220  200.1360  144.2570 C   0  0  0  0  0  1  0  0  0  0  0  0
  161.4980  200.1380  148.6620 C   0  0  0  0  0  2  0  0  0  0  0  0
  160.4170  201.5380  152.0050 C   0  0  0  0  0  3  0  0  0  0  0  0
  161.6360  201.9790  152.5230 C   0  0  0  0  0  3  0  0  0  0  0  0
  161.5560  200.7230  150.0310 C   0  0  0  0  0  0  0  0  0  0  0  0
  162.7750  201.1660  150.5540 C   0  0  0  0  0  3  0  0  0  0  0  0
  162.8160  201.7920  151.8000 C   0  0  0  0  0  3  0  0  0  0  0  0
  160.3770  200.9130  150.7600 C   0  0  0  0  0  3  0  0  0  0  0  0
  1  6  2  0  0  0  0
  2  5  1  0  0  0  0
  2  3  1  0  0  0  0
  3 14  1  6  0  0  0
  3  4  1  0  0  0  0
  4  7  1  1  0  0  0
  5  1  1  0  0  0  0
  6 37  1  0  0  0  0
  6  4  1  0  0  0  0
  7 13  1  0  0  0  0
  8 11  1  0  0  0  0
 10 11  1  0  0  0  0
 10  9  2  0  0  0  0
 12 10  1  0  0  0  0
 13 12  1  0  0  0  0
 13  8  2  0  0  0  0
 15 16  2  0  0  0  0
 16 14  1  0  0  0  0
 17 28  1  6  0  0  0
 17 15  1  0  0  0  0
 17 18  1  0  0  0  0
 18 20  1  0  0  0  0
 19 18  2  0  0  0  0
 20 27  1  0  0  0  0
 21 25  2  0  0  0  0
 21 22  1  0  0  0  0
 23 27  2  0  0  0  0
 23 26  1  0  0  0  0
 24 22  2  0  0  0  0
 26 24  1  0  0  0  0
 27 21  1  0  0  0  0
 29 32  1  0  0  0  0
 30 31  2  0  0  0  0
 31 36  1  0  0  0  0
 31 33  1  0  0  0  0
 32 33  2  0  0  0  0
 32 28  1  0  0  0  0
 34 30  1  0  0  0  0
 34 29  2  0  0  0  0
 35 36  1  0  0  0  0
 38 42  1  6  0  0  0
 38 41  1  0  0  0  0
 38 37  1  0  0  0  0
 40 41  2  0  0  0  0
 41 39  1  0  0  0  0
 43 42  1  0  0  0  0
 44 43  1  0  0  0  0
 46 45  1  6  0  0  0
 46 48  1  0  0  0  0
 46 44  1  0  0  0  0
 48 47  1  0  0  0  0
 49 48  2  0  0  0  0
 50 56  1  6  0  0  0
 50 54  1  0  0  0  0
 51 50  1  0  0  0  0
 51 55  1  0  0  0  0
 52 53  1  0  0  0  0
 52 58  1  0  0  0  0
 54 52  2  0  0  0  0
 55 47  1  0  0  0  0
 55 53  2  0  0  0  0
 57 56  1  0  0  0  0
 58 61  1  0  0  0  0
 59 60  1  0  0  0  0
 61 62  2  0  0  0  0
 61 64  1  0  0  0  0
 62 63  1  0  0  0  0
 63 60  2  0  0  0  0
 64 59  2  0  0  0  0
M  END
>  <MODEL>
9

>  <REMARK>
 VINA RESULT:       1.3      4.893      9.135
  Name = 
  22 active torsions:
  status: ('A' for Active; 'I' for Inactive)
    1  A    between atoms: C_4  and  C_13
    2  A    between atoms: C_4  and  C_55
    3  A    between atoms: C_8  and  C_45
    4  A    between atoms: C_13  and  C_36
    5  A    between atoms: C_13  and  C_53
    6  A    between atoms: C_14  and  C_53
    7  A    between atoms: C_14  and  C_59
    8  A    between atoms: C_15  and  C_26
    9  A    between atoms: C_15  and  C_45
   10  A    between atoms: O_21  and  C_31
   11  A    between atoms: O_21  and  C_54
   12  A    between atoms: C_22  and  O_32
   13  A    between atoms: C_23  and  C_35
   14  A    between atoms: O_25  and  C_27
   15  A    between atoms: C_29  and  C_35
   16  A    between atoms: N_30  and  C_58
   17  A    between atoms: C_33  and  C_62
   18  A    between atoms: C_34  and  C_56
   19  A    between atoms: C_45  and  C_46
   20  A    between atoms: C_56  and  C_61
   21  A    between atoms: C_59  and  C_62
   22  A    between atoms: N_63  and  C_64
                            x       y       z     vdW  Elec       q    Type
                         _______ _______ _______ _____ _____    ______ ____

>  <TORSDO>
F 22

$$$$
