=
 OpenBabel11052411093D

 44 49  0  0  1  0  0  0  0  0999 V2000
  161.7270  205.5710  153.0390 C   0  0  2  0  0  3  0  0  0  0  0  0
  160.2400  205.3060  152.8970 C   0  0  0  0  0  1  0  0  0  0  0  0
  161.9690  206.5510  154.1770 C   0  0  0  0  0  2  0  0  0  0  0  0
  160.7310  207.4060  154.3790 C   0  0  1  0  0  3  0  0  0  0  0  0
  160.1360  207.1030  155.7370 C   0  0  0  0  0  2  0  0  0  0  0  0
  160.9560  208.3630  155.5340 C   0  0  2  0  0  3  0  0  0  0  0  0
  160.0340  209.5630  155.3600 C   0  0  1  0  0  3  0  0  0  0  0  0
  159.9930  210.3330  156.5240 O   0  0  0  0  0  1  0  0  0  0  0  0
  160.4310  210.4170  154.1540 C   0  0  0  0  0  2  0  0  0  0  0  0
  159.3500  211.4120  153.7290 C   0  0  0  0  0  2  0  0  0  0  0  0
  157.8020  213.4040  152.3590 O   0  0  0  0  0  0  0  0  0  0  0  0
  159.0150  213.2720  152.0410 C   0  0  0  0  0  0  0  0  0  0  0  0
  159.8160  212.2420  152.6240 N   0  0  0  0  0  2  0  0  0  0  0  0
  159.7550  214.4000  150.8670 S   0  0  0  0  0  0  0  0  0  0  0  0
  159.3310  213.3130  149.4730 C   0  0  0  0  0  2  0  0  0  0  0  0
  159.4960  212.3030  145.3540 N   0  0  0  0  0  1  0  0  0  0  0  0
  161.2440  213.2090  147.8560 C   0  0  0  0  0  0  0  0  0  0  0  0
  162.4560  214.2690  146.0770 N   0  0  0  0  0  1  0  0  0  0  0  0
  161.4990  213.2200  146.3950 C   0  0  2  0  0  3  0  0  0  0  0  0
  162.0740  212.7340  148.6790 O   0  0  0  0  0  0  0  0  0  0  0  0
  160.0080  213.7620  148.2680 N   0  0  0  0  0  0  0  0  0  0  0  0
  159.1010  214.4530  146.9260 S   0  0  0  0  0  0  0  0  0  0  0  0
  160.1550  213.5410  145.7350 C   0  0  2  0  0  3  0  0  0  0  0  0
  162.2250  206.0920  151.8380 O   0  0  0  0  0  0  0  0  0  0  0  0
  161.4750  205.2630  149.7350 C   0  0  1  0  0  3  0  0  0  0  0  0
  161.3680  206.2300  148.5550 C   0  0  1  0  0  3  0  0  0  0  0  0
  161.4180  207.5860  149.0740 N   0  0  0  0  0  2  0  0  0  0  0  0
  161.1310  206.0910  150.9560 C   0  0  2  0  0  3  0  0  0  0  0  0
  160.8380  207.4890  150.4090 C   0  0  1  0  0  3  0  0  0  0  0  0
  161.2090  208.6460  151.3610 C   0  0  0  0  0  3  0  0  0  0  0  0
  162.6580  209.0820  151.2010 C   0  0  0  0  0  2  0  0  0  0  0  0
  161.5440  209.9270  150.6070 C   0  0  0  0  0  2  0  0  0  0  0  0
  162.4120  206.0400  147.5370 N   0  0  0  0  0  2  0  0  0  0  0  0
  162.0460  206.6090  146.3550 O   0  0  0  0  0  0  0  0  0  0  0  0
  161.6010  203.4330  145.8230 C   0  0  0  0  0  2  0  0  0  0  0  0
  159.7360  203.6170  144.3650 O   0  0  0  0  0  0  0  0  0  0  0  0
  161.2460  205.4410  144.4140 C   0  0  0  0  0  2  0  0  0  0  0  0
  162.7850  204.3700  145.9950 C   0  0  0  0  0  2  0  0  0  0  0  0
  162.4190  205.7040  145.3500 C   0  0  2  0  0  3  0  0  0  0  0  0
  160.7570  204.1100  144.8180 C   0  0  0  0  0  0  0  0  0  0  0  0
  160.4760  204.1240  149.5910 C   0  0  0  0  0  2  0  0  0  0  0  0
  161.2010  202.8120  149.3410 C   0  0  0  0  0  3  0  0  0  0  0  0
  160.1810  201.6960  149.2130 C   0  0  0  0  0  2  0  0  0  0  0  0
  160.9440  201.8850  150.5080 C   0  0  0  0  0  2  0  0  0  0  0  0
  1  2  1  6  0  0  0
  1  3  1  0  0  0  0
  4  3  1  1  0  0  0
  4  6  1  0  0  0  0
  4  5  1  0  0  0  0
  6  7  1  6  0  0  0
  6  5  1  0  0  0  0
  7  8  1  1  0  0  0
  9  7  1  0  0  0  0
 10  9  1  0  0  0  0
 12 11  2  0  0  0  0
 12 13  1  0  0  0  0
 13 10  1  0  0  0  0
 14 12  1  0  0  0  0
 15 14  1  0  0  0  0
 17 21  1  0  0  0  0
 17 20  2  0  0  0  0
 19 18  1  1  0  0  0
 19 17  1  0  0  0  0
 21 15  1  0  0  0  0
 22 21  1  0  0  0  0
 23 16  1  1  0  0  0
 23 19  1  0  0  0  0
 23 22  1  0  0  0  0
 24  1  1  0  0  0  0
 25 41  1  6  0  0  0
 25 28  1  0  0  0  0
 26 33  1  6  0  0  0
 26 27  1  0  0  0  0
 26 25  1  0  0  0  0
 27 29  1  0  0  0  0
 28 24  1  1  0  0  0
 29 28  1  0  0  0  0
 29 30  1  1  0  0  0
 31 30  1  0  0  0  0
 32 31  1  0  0  0  0
 32 30  1  0  0  0  0
 34 33  1  0  0  0  0
 35 38  1  0  0  0  0
 36 40  2  0  0  0  0
 37 40  1  0  0  0  0
 37 39  1  0  0  0  0
 39 38  1  0  0  0  0
 39 34  1  1  0  0  0
 40 35  1  0  0  0  0
 42 41  1  0  0  0  0
 42 44  1  0  0  0  0
 43 42  1  0  0  0  0
 43 44  1  0  0  0  0
M  END
>  <MODEL>
1

>  <REMARK>
 VINA RESULT:      -6.8      0.000      0.000
  Name = 
  17 active torsions:
  status: ('A' for Active; 'I' for Inactive)
    1  A    between atoms: C_1  and  C_16
    2  A    between atoms: C_2  and  C_36
    3  A    between atoms: C_5  and  C_16
    4  A    between atoms: C_7  and  C_37
    5  A    between atoms: C_8  and  N_31
    6  A    between atoms: C_11  and  N_25
    7  A    between atoms: C_11  and  C_40
    8  A    between atoms: C_14  and  O_18
    9  A    between atoms: C_14  and  C_37
   10  A    between atoms: O_18  and  C_19
   11  A    between atoms: C_21  and  C_27
   12  A    between atoms: C_21  and  C_40
   13  A    between atoms: C_23  and  S_26
   14  A    between atoms: S_26  and  C_30
   15  A    between atoms: O_29  and  N_31
   16  A    between atoms: O_29  and  C_41
   17  A    between atoms: C_30  and  N_33
                            x       y       z     vdW  Elec       q    Type
                         _______ _______ _______ _____ _____    ______ ____

>  <TORSDO>
F 17

$$$$
=
 OpenBabel11052411093D

 44 49  0  0  1  0  0  0  0  0999 V2000
  161.3230  207.8240  148.9260 C   0  0  2  0  0  3  0  0  0  0  0  0
  162.6170  207.4330  148.2370 C   0  0  0  0  0  1  0  0  0  0  0  0
  161.6300  208.6350  150.1760 C   0  0  0  0  0  2  0  0  0  0  0  0
  161.3040  210.0960  149.9230 C   0  0  1  0  0  3  0  0  0  0  0  0
  162.1150  210.9550  150.8690 C   0  0  0  0  0  2  0  0  0  0  0  0
  162.5400  210.8150  149.4190 C   0  0  2  0  0  3  0  0  0  0  0  0
  162.1030  212.0400  148.6270 C   0  0  1  0  0  3  0  0  0  0  0  0
  163.2100  212.7390  148.1400 O   0  0  0  0  0  1  0  0  0  0  0  0
  161.1460  211.6720  147.4900 C   0  0  0  0  0  2  0  0  0  0  0  0
  160.3720  212.8680  146.9350 C   0  0  0  0  0  2  0  0  0  0  0  0
  161.9530  213.4010  144.5990 O   0  0  0  0  0  0  0  0  0  0  0  0
  160.8340  212.8400  144.4440 C   0  0  0  0  0  0  0  0  0  0  0  0
  159.9630  212.6250  145.5560 N   0  0  0  0  0  2  0  0  0  0  0  0
  160.3380  212.2800  142.8200 S   0  0  0  0  0  0  0  0  0  0  0  0
  162.0630  212.2400  142.2470 C   0  0  0  0  0  2  0  0  0  0  0  0
  159.4250  212.0510  138.9280 N   0  0  0  0  0  1  0  0  0  0  0  0
  162.3600  211.3330  139.9290 C   0  0  0  0  0  0  0  0  0  0  0  0
  162.7940  211.7860  137.6130 N   0  0  0  0  0  1  0  0  0  0  0  0
  161.7590  211.4470  138.5790 C   0  0  2  0  0  3  0  0  0  0  0  0
  163.0460  210.3310  140.2770 O   0  0  0  0  0  0  0  0  0  0  0  0
  162.1130  212.4160  140.8060 N   0  0  0  0  0  0  0  0  0  0  0  0
  161.2290  213.7230  140.0240 S   0  0  0  0  0  0  0  0  0  0  0  0
  160.7470  212.5930  138.6630 C   0  0  2  0  0  3  0  0  0  0  0  0
  160.6060  206.6680  149.2620 O   0  0  0  0  0  0  0  0  0  0  0  0
  161.2230  204.5650  148.3300 C   0  0  1  0  0  3  0  0  0  0  0  0
  161.0210  203.2990  149.1630 C   0  0  1  0  0  3  0  0  0  0  0  0
  160.8070  203.6950  150.5450 N   0  0  0  0  0  2  0  0  0  0  0  0
  161.5690  205.6460  149.3320 C   0  0  2  0  0  3  0  0  0  0  0  0
  161.5540  204.9400  150.6890 C   0  0  1  0  0  3  0  0  0  0  0  0
  161.1140  205.8260  151.8730 C   0  0  0  0  0  3  0  0  0  0  0  0
  161.2300  205.1040  153.2080 C   0  0  0  0  0  2  0  0  0  0  0  0
  162.2680  206.1410  152.8160 C   0  0  0  0  0  2  0  0  0  0  0  0
  159.9070  202.4570  148.7020 N   0  0  0  0  0  2  0  0  0  0  0  0
  160.3210  201.1760  148.4970 O   0  0  0  0  0  0  0  0  0  0  0  0
  161.1080  199.2410  146.0050 C   0  0  0  0  0  2  0  0  0  0  0  0
  159.8260  200.3410  144.3360 O   0  0  0  0  0  0  0  0  0  0  0  0
  160.5760  201.6580  146.1570 C   0  0  0  0  0  2  0  0  0  0  0  0
  161.8140  199.8250  147.2170 C   0  0  0  0  0  2  0  0  0  0  0  0
  161.2550  201.2260  147.4510 C   0  0  2  0  0  3  0  0  0  0  0  0
  160.4430  200.4060  145.3880 C   0  0  0  0  0  0  0  0  0  0  0  0
  162.3740  204.3880  147.3500 C   0  0  0  0  0  2  0  0  0  0  0  0
  161.8580  204.3960  145.9200 C   0  0  0  0  0  3  0  0  0  0  0  0
  162.5260  205.5240  145.1560 C   0  0  0  0  0  2  0  0  0  0  0  0
  161.1140  205.6900  145.6790 C   0  0  0  0  0  2  0  0  0  0  0  0
  1  2  1  1  0  0  0
  1 24  1  0  0  0  0
  1  3  1  0  0  0  0
  4  3  1  1  0  0  0
  4  5  1  0  0  0  0
  6  7  1  6  0  0  0
  6  4  1  0  0  0  0
  6  5  1  0  0  0  0
  7  8  1  6  0  0  0
  9  7  1  0  0  0  0
 10  9  1  0  0  0  0
 12 11  2  0  0  0  0
 12 13  1  0  0  0  0
 13 10  1  0  0  0  0
 14 12  1  0  0  0  0
 15 14  1  0  0  0  0
 17 20  2  0  0  0  0
 17 21  1  0  0  0  0
 19 18  1  6  0  0  0
 19 23  1  0  0  0  0
 19 17  1  0  0  0  0
 21 15  1  0  0  0  0
 22 21  1  0  0  0  0
 23 16  1  1  0  0  0
 23 22  1  0  0  0  0
 25 41  1  6  0  0  0
 25 26  1  0  0  0  0
 25 28  1  0  0  0  0
 26 33  1  6  0  0  0
 26 27  1  0  0  0  0
 27 29  1  0  0  0  0
 28 24  1  1  0  0  0
 28 29  1  0  0  0  0
 29 30  1  1  0  0  0
 30 32  1  0  0  0  0
 30 31  1  0  0  0  0
 32 31  1  0  0  0  0
 34 33  1  0  0  0  0
 35 38  1  0  0  0  0
 36 40  2  0  0  0  0
 37 39  1  0  0  0  0
 38 39  1  0  0  0  0
 39 34  1  1  0  0  0
 40 35  1  0  0  0  0
 40 37  1  0  0  0  0
 42 41  1  0  0  0  0
 43 44  1  0  0  0  0
 43 42  1  0  0  0  0
 44 42  1  0  0  0  0
M  END
>  <MODEL>
2

>  <REMARK>
 VINA RESULT:      -5.8      3.747      6.041
  Name = 
  17 active torsions:
  status: ('A' for Active; 'I' for Inactive)
    1  A    between atoms: C_1  and  C_16
    2  A    between atoms: C_2  and  C_36
    3  A    between atoms: C_5  and  C_16
    4  A    between atoms: C_7  and  C_37
    5  A    between atoms: C_8  and  N_31
    6  A    between atoms: C_11  and  N_25
    7  A    between atoms: C_11  and  C_40
    8  A    between atoms: C_14  and  O_18
    9  A    between atoms: C_14  and  C_37
   10  A    between atoms: O_18  and  C_19
   11  A    between atoms: C_21  and  C_27
   12  A    between atoms: C_21  and  C_40
   13  A    between atoms: C_23  and  S_26
   14  A    between atoms: S_26  and  C_30
   15  A    between atoms: O_29  and  N_31
   16  A    between atoms: O_29  and  C_41
   17  A    between atoms: C_30  and  N_33
                            x       y       z     vdW  Elec       q    Type
                         _______ _______ _______ _____ _____    ______ ____

>  <TORSDO>
F 17

$$$$
=
 OpenBabel11052411093D

 44 49  0  0  1  0  0  0  0  0999 V2000
  161.6910  209.5510  149.6410 C   0  0  2  0  0  3  0  0  0  0  0  0
  162.0080  208.6680  148.4480 C   0  0  0  0  0  1  0  0  0  0  0  0
  162.3650  210.9040  149.4740 C   0  0  0  0  0  2  0  0  0  0  0  0
  161.6110  211.7200  148.4400 C   0  0  1  0  0  3  0  0  0  0  0  0
  161.4200  213.1270  148.9630 C   0  0  0  0  0  2  0  0  0  0  0  0
  162.4960  212.8420  147.9320 C   0  0  2  0  0  3  0  0  0  0  0  0
  162.0140  213.2550  146.5470 C   0  0  1  0  0  3  0  0  0  0  0  0
  163.0780  213.3000  145.6430 O   0  0  0  0  0  1  0  0  0  0  0  0
  160.9000  212.3400  146.0340 C   0  0  0  0  0  2  0  0  0  0  0  0
  159.7200  213.0980  145.4260 C   0  0  0  0  0  2  0  0  0  0  0  0
  160.0480  211.4990  143.0650 O   0  0  0  0  0  0  0  0  0  0  0  0
  160.1260  212.7520  142.9490 C   0  0  0  0  0  0  0  0  0  0  0  0
  160.0570  213.5990  144.0980 N   0  0  0  0  0  2  0  0  0  0  0  0
  160.2970  213.4860  141.3270 S   0  0  0  0  0  0  0  0  0  0  0  0
  161.9830  212.8280  141.1470 C   0  0  0  0  0  2  0  0  0  0  0  0
  159.8800  212.6450  137.4660 N   0  0  0  0  0  1  0  0  0  0  0  0
  161.6700  210.9690  139.4950 C   0  0  0  0  0  0  0  0  0  0  0  0
  162.3280  209.9720  137.4150 N   0  0  0  0  0  1  0  0  0  0  0  0
  161.3000  210.7620  138.0740 C   0  0  2  0  0  3  0  0  0  0  0  0
  161.5560  210.0560  140.3600 O   0  0  0  0  0  0  0  0  0  0  0  0
  162.1550  212.2570  139.8230 N   0  0  0  0  0  0  0  0  0  0  0  0
  162.3180  213.2920  138.4070 S   0  0  0  0  0  0  0  0  0  0  0  0
  161.2480  212.1560  137.4450 C   0  0  2  0  0  3  0  0  0  0  0  0
  162.1370  208.9290  150.8140 O   0  0  0  0  0  0  0  0  0  0  0  0
  160.9930  209.7480  152.7360 C   0  0  1  0  0  3  0  0  0  0  0  0
  160.9850  208.9000  154.0080 C   0  0  1  0  0  3  0  0  0  0  0  0
  161.4020  207.5530  153.6590 N   0  0  0  0  0  2  0  0  0  0  0  0
  160.9840  208.7500  151.5970 C   0  0  2  0  0  3  0  0  0  0  0  0
  160.9630  207.3800  152.2780 C   0  0  1  0  0  3  0  0  0  0  0  0
  161.6910  206.2620  151.5030 C   0  0  0  0  0  3  0  0  0  0  0  0
  161.4290  204.8840  152.0950 C   0  0  0  0  0  2  0  0  0  0  0  0
  160.7180  205.3080  150.8210 C   0  0  0  0  0  2  0  0  0  0  0  0
  161.8410  209.4320  155.0790 N   0  0  0  0  0  2  0  0  0  0  0  0
  161.8870  208.5720  156.1350 O   0  0  0  0  0  0  0  0  0  0  0  0
  161.0250  211.6570  156.6900 C   0  0  0  0  0  2  0  0  0  0  0  0
  158.6730  211.3500  156.5850 O   0  0  0  0  0  0  0  0  0  0  0  0
  159.9700  209.4870  157.2590 C   0  0  0  0  0  2  0  0  0  0  0  0
  162.0990  210.7030  157.1850 C   0  0  0  0  0  2  0  0  0  0  0  0
  161.4840  209.3080  157.2590 C   0  0  2  0  0  3  0  0  0  0  0  0
  159.7750  210.8820  156.8230 C   0  0  0  0  0  0  0  0  0  0  0  0
  159.7490  210.6210  152.6620 C   0  0  0  0  0  2  0  0  0  0  0  0
  160.0770  212.0460  153.0760 C   0  0  0  0  0  3  0  0  0  0  0  0
  158.7890  212.7760  153.4130 C   0  0  0  0  0  2  0  0  0  0  0  0
  159.4620  212.9970  152.0740 C   0  0  0  0  0  2  0  0  0  0  0  0
  1  2  1  6  0  0  0
  1 24  1  0  0  0  0
  3  1  1  0  0  0  0
  4  5  1  0  0  0  0
  4  3  1  1  0  0  0
  6  7  1  6  0  0  0
  6  4  1  0  0  0  0
  6  5  1  0  0  0  0
  7  8  1  6  0  0  0
  9  7  1  0  0  0  0
 10  9  1  0  0  0  0
 12 11  2  0  0  0  0
 12 13  1  0  0  0  0
 13 10  1  0  0  0  0
 14 12  1  0  0  0  0
 15 14  1  0  0  0  0
 17 21  1  0  0  0  0
 17 20  2  0  0  0  0
 19 18  1  6  0  0  0
 19 17  1  0  0  0  0
 21 15  1  0  0  0  0
 22 21  1  0  0  0  0
 23 16  1  1  0  0  0
 23 19  1  0  0  0  0
 23 22  1  0  0  0  0
 25 41  1  6  0  0  0
 25 26  1  0  0  0  0
 26 33  1  1  0  0  0
 27 26  1  0  0  0  0
 28 24  1  1  0  0  0
 28 29  1  0  0  0  0
 28 25  1  0  0  0  0
 29 30  1  6  0  0  0
 29 27  1  0  0  0  0
 30 31  1  0  0  0  0
 32 30  1  0  0  0  0
 32 31  1  0  0  0  0
 33 34  1  0  0  0  0
 35 40  1  0  0  0  0
 35 38  1  0  0  0  0
 36 40  2  0  0  0  0
 37 39  1  0  0  0  0
 38 39  1  0  0  0  0
 39 34  1  6  0  0  0
 40 37  1  0  0  0  0
 41 42  1  0  0  0  0
 42 43  1  0  0  0  0
 44 42  1  0  0  0  0
 44 43  1  0  0  0  0
M  END
>  <MODEL>
3

>  <REMARK>
 VINA RESULT:      -5.8      4.086      9.012
  Name = 
  17 active torsions:
  status: ('A' for Active; 'I' for Inactive)
    1  A    between atoms: C_1  and  C_16
    2  A    between atoms: C_2  and  C_36
    3  A    between atoms: C_5  and  C_16
    4  A    between atoms: C_7  and  C_37
    5  A    between atoms: C_8  and  N_31
    6  A    between atoms: C_11  and  N_25
    7  A    between atoms: C_11  and  C_40
    8  A    between atoms: C_14  and  O_18
    9  A    between atoms: C_14  and  C_37
   10  A    between atoms: O_18  and  C_19
   11  A    between atoms: C_21  and  C_27
   12  A    between atoms: C_21  and  C_40
   13  A    between atoms: C_23  and  S_26
   14  A    between atoms: S_26  and  C_30
   15  A    between atoms: O_29  and  N_31
   16  A    between atoms: O_29  and  C_41
   17  A    between atoms: C_30  and  N_33
                            x       y       z     vdW  Elec       q    Type
                         _______ _______ _______ _____ _____    ______ ____

>  <TORSDO>
F 17

$$$$
=
 OpenBabel11052411093D

 44 49  0  0  1  0  0  0  0  0999 V2000
  161.3340  209.1250  152.5200 C   0  0  2  0  0  3  0  0  0  0  0  0
  161.7370  208.9970  151.0630 C   0  0  0  0  0  1  0  0  0  0  0  0
  160.9190  207.7660  153.0600 C   0  0  0  0  0  2  0  0  0  0  0  0
  161.3130  206.6860  152.0690 C   0  0  1  0  0  3  0  0  0  0  0  0
  162.3740  205.8050  152.6920 C   0  0  0  0  0  2  0  0  0  0  0  0
  160.9370  205.3250  152.6220 C   0  0  2  0  0  3  0  0  0  0  0  0
  160.7670  204.3560  151.4590 C   0  0  1  0  0  3  0  0  0  0  0  0
  160.9690  205.0030  150.2370 O   0  0  0  0  0  1  0  0  0  0  0  0
  161.6870  203.1400  151.5910 C   0  0  0  0  0  2  0  0  0  0  0  0
  161.0510  201.8390  151.0990 C   0  0  0  0  0  2  0  0  0  0  0  0
  158.9740  201.3160  149.1880 O   0  0  0  0  0  0  0  0  0  0  0  0
  160.1450  201.5030  148.7570 C   0  0  0  0  0  0  0  0  0  0  0  0
  161.2360  201.6840  149.6610 N   0  0  0  0  0  2  0  0  0  0  0  0
  160.4430  201.5740  146.9950 S   0  0  0  0  0  0  0  0  0  0  0  0
  161.9490  202.5650  147.2350 C   0  0  0  0  0  2  0  0  0  0  0  0
  160.2600  206.4450  146.9140 N   0  0  0  0  0  1  0  0  0  0  0  0
  160.9970  203.8130  145.2810 C   0  0  0  0  0  0  0  0  0  0  0  0
  161.3220  205.4780  143.5840 N   0  0  0  0  0  1  0  0  0  0  0  0
  160.6840  205.2010  144.8620 C   0  0  2  0  0  3  0  0  0  0  0  0
  160.4370  202.8100  144.7570 O   0  0  0  0  0  0  0  0  0  0  0  0
  161.9610  203.6840  146.3090 N   0  0  0  0  0  0  0  0  0  0  0  0
  162.6600  205.2330  146.7720 S   0  0  0  0  0  0  0  0  0  0  0  0
  161.2840  206.1110  145.9380 C   0  0  2  0  0  3  0  0  0  0  0  0
  160.2750  210.0360  152.6330 O   0  0  0  0  0  0  0  0  0  0  0  0
  160.4210  210.8420  154.8700 C   0  0  1  0  0  3  0  0  0  0  0  0
  159.5680  212.0420  155.2800 C   0  0  1  0  0  3  0  0  0  0  0  0
  159.0820  212.6880  154.0720 N   0  0  0  0  0  2  0  0  0  0  0  0
  160.7770  211.0870  153.4180 C   0  0  2  0  0  3  0  0  0  0  0  0
  160.1140  212.4230  153.0750 C   0  0  1  0  0  3  0  0  0  0  0  0
  159.6480  212.5540  151.6100 C   0  0  0  0  0  3  0  0  0  0  0  0
  158.3600  213.3560  151.4840 C   0  0  0  0  0  2  0  0  0  0  0  0
  159.6890  213.9960  151.1200 C   0  0  0  0  0  2  0  0  0  0  0  0
  158.4380  211.6960  156.1550 N   0  0  0  0  0  2  0  0  0  0  0  0
  157.5900  210.8320  155.5320 O   0  0  0  0  0  0  0  0  0  0  0  0
  156.1650  213.7390  155.8250 C   0  0  0  0  0  2  0  0  0  0  0  0
  155.2670  213.8720  153.6310 O   0  0  0  0  0  0  0  0  0  0  0  0
  155.5870  211.7040  154.5320 C   0  0  0  0  0  2  0  0  0  0  0  0
  156.3790  212.5190  156.7060 C   0  0  0  0  0  2  0  0  0  0  0  0
  156.2910  211.2820  155.8160 C   0  0  2  0  0  3  0  0  0  0  0  0
  155.6320  213.1780  154.5680 C   0  0  0  0  0  0  0  0  0  0  0  0
  161.6910  210.7730  155.7040 C   0  0  0  0  0  2  0  0  0  0  0  0
  161.4540  209.9560  156.9640 C   0  0  0  0  0  3  0  0  0  0  0  0
  162.1040  208.5940  156.8040 C   0  0  0  0  0  2  0  0  0  0  0  0
  160.6100  208.7520  156.6100 C   0  0  0  0  0  2  0  0  0  0  0  0
  1  2  1  6  0  0  0
  1 24  1  0  0  0  0
  1  3  1  0  0  0  0
  4  6  1  0  0  0  0
  4  5  1  0  0  0  0
  4  3  1  1  0  0  0
  6  7  1  6  0  0  0
  6  5  1  0  0  0  0
  7  8  1  6  0  0  0
  7  9  1  0  0  0  0
 10  9  1  0  0  0  0
 12 11  2  0  0  0  0
 12 13  1  0  0  0  0
 13 10  1  0  0  0  0
 14 15  1  0  0  0  0
 14 12  1  0  0  0  0
 17 21  1  0  0  0  0
 19 18  1  6  0  0  0
 19 17  1  0  0  0  0
 19 23  1  0  0  0  0
 20 17  2  0  0  0  0
 21 22  1  0  0  0  0
 21 15  1  0  0  0  0
 23 22  1  0  0  0  0
 23 16  1  1  0  0  0
 25 26  1  0  0  0  0
 25 41  1  1  0  0  0
 26 33  1  1  0  0  0
 27 26  1  0  0  0  0
 28 24  1  6  0  0  0
 28 25  1  0  0  0  0
 29 30  1  6  0  0  0
 29 28  1  0  0  0  0
 29 27  1  0  0  0  0
 31 30  1  0  0  0  0
 32 31  1  0  0  0  0
 32 30  1  0  0  0  0
 34 33  1  0  0  0  0
 35 38  1  0  0  0  0
 36 40  2  0  0  0  0
 37 40  1  0  0  0  0
 37 39  1  0  0  0  0
 39 34  1  6  0  0  0
 39 38  1  0  0  0  0
 40 35  1  0  0  0  0
 41 42  1  0  0  0  0
 43 42  1  0  0  0  0
 44 43  1  0  0  0  0
 44 42  1  0  0  0  0
M  END
>  <MODEL>
4

>  <REMARK>
 VINA RESULT:      -5.6      3.542      9.489
  Name = 
  17 active torsions:
  status: ('A' for Active; 'I' for Inactive)
    1  A    between atoms: C_1  and  C_16
    2  A    between atoms: C_2  and  C_36
    3  A    between atoms: C_5  and  C_16
    4  A    between atoms: C_7  and  C_37
    5  A    between atoms: C_8  and  N_31
    6  A    between atoms: C_11  and  N_25
    7  A    between atoms: C_11  and  C_40
    8  A    between atoms: C_14  and  O_18
    9  A    between atoms: C_14  and  C_37
   10  A    between atoms: O_18  and  C_19
   11  A    between atoms: C_21  and  C_27
   12  A    between atoms: C_21  and  C_40
   13  A    between atoms: C_23  and  S_26
   14  A    between atoms: S_26  and  C_30
   15  A    between atoms: O_29  and  N_31
   16  A    between atoms: O_29  and  C_41
   17  A    between atoms: C_30  and  N_33
                            x       y       z     vdW  Elec       q    Type
                         _______ _______ _______ _____ _____    ______ ____

>  <TORSDO>
F 17

$$$$
=
 OpenBabel11052411093D

 44 49  0  0  1  0  0  0  0  0999 V2000
  161.9270  208.8640  151.6660 C   0  0  2  0  0  3  0  0  0  0  0  0
  161.8860  209.7080  150.4060 C   0  0  0  0  0  1  0  0  0  0  0  0
  160.7730  207.8730  151.6590 C   0  0  0  0  0  2  0  0  0  0  0  0
  161.2790  206.5100  151.2220 C   0  0  1  0  0  3  0  0  0  0  0  0
  162.6740  206.3000  151.7710 C   0  0  0  0  0  2  0  0  0  0  0  0
  161.4880  205.6300  152.4390 C   0  0  2  0  0  3  0  0  0  0  0  0
  161.4020  204.1710  152.0070 C   0  0  1  0  0  3  0  0  0  0  0  0
  160.5210  203.4610  152.8260 O   0  0  0  0  0  1  0  0  0  0  0  0
  161.0090  204.0350  150.5340 C   0  0  0  0  0  2  0  0  0  0  0  0
  160.4780  202.6480  150.1710 C   0  0  0  0  0  2  0  0  0  0  0  0
  161.4700  200.4060  148.6780 O   0  0  0  0  0  0  0  0  0  0  0  0
  160.8440  201.3050  148.0540 C   0  0  0  0  0  0  0  0  0  0  0  0
  160.4000  202.4870  148.7240 N   0  0  0  0  0  2  0  0  0  0  0  0
  160.4810  201.0930  146.3160 S   0  0  0  0  0  0  0  0  0  0  0  0
  161.7390  202.3200  145.8480 C   0  0  0  0  0  2  0  0  0  0  0  0
  161.6300  205.8240  143.4560 N   0  0  0  0  0  1  0  0  0  0  0  0
  161.8890  204.7510  146.4420 C   0  0  0  0  0  0  0  0  0  0  0  0
  160.7370  206.8210  146.8250 N   0  0  0  0  0  1  0  0  0  0  0  0
  161.5560  206.0810  145.8770 C   0  0  2  0  0  3  0  0  0  0  0  0
  162.7580  204.6030  147.3450 O   0  0  0  0  0  0  0  0  0  0  0  0
  161.1720  203.6570  145.9010 N   0  0  0  0  0  0  0  0  0  0  0  0
  159.9450  204.1650  144.7440 S   0  0  0  0  0  0  0  0  0  0  0  0
  160.7450  205.8100  144.6080 C   0  0  2  0  0  3  0  0  0  0  0  0
  161.8430  209.6970  152.7890 O   0  0  0  0  0  0  0  0  0  0  0  0
  160.0950  211.2360  153.2870 C   0  0  1  0  0  3  0  0  0  0  0  0
  159.5610  211.3100  154.7180 C   0  0  1  0  0  3  0  0  0  0  0  0
  160.0120  210.1280  155.4320 N   0  0  0  0  0  2  0  0  0  0  0  0
  160.4710  209.7840  153.0800 C   0  0  2  0  0  3  0  0  0  0  0  0
  160.1250  209.0990  154.4040 C   0  0  1  0  0  3  0  0  0  0  0  0
  161.0370  207.9110  154.7750 C   0  0  0  0  0  3  0  0  0  0  0  0
  161.5380  207.9940  156.2100 C   0  0  0  0  0  2  0  0  0  0  0  0
  160.4220  207.0270  155.8530 C   0  0  0  0  0  2  0  0  0  0  0  0
  159.9690  212.5230  155.4410 N   0  0  0  0  0  2  0  0  0  0  0  0
  159.5150  212.4980  156.7250 O   0  0  0  0  0  0  0  0  0  0  0  0
  157.4090  214.2020  154.9270 C   0  0  0  0  0  2  0  0  0  0  0  0
  155.4130  213.3210  155.8620 O   0  0  0  0  0  0  0  0  0  0  0  0
  157.3300  213.3470  157.2520 C   0  0  0  0  0  2  0  0  0  0  0  0
  158.7540  214.4530  155.5890 C   0  0  0  0  0  2  0  0  0  0  0  0
  158.7760  213.6770  156.9040 C   0  0  2  0  0  3  0  0  0  0  0  0
  156.5940  213.5980  155.9990 C   0  0  0  0  0  0  0  0  0  0  0  0
  159.0180  211.6330  152.2880 C   0  0  0  0  0  2  0  0  0  0  0  0
  159.3210  213.0010  151.6980 C   0  0  0  0  0  3  0  0  0  0  0  0
  158.0310  213.7920  151.5880 C   0  0  0  0  0  2  0  0  0  0  0  0
  158.6190  213.1210  150.3640 C   0  0  0  0  0  2  0  0  0  0  0  0
  1  2  1  6  0  0  0
  1 24  1  0  0  0  0
  3  1  1  0  0  0  0
  4  3  1  1  0  0  0
  4  5  1  0  0  0  0
  4  6  1  0  0  0  0
  5  6  1  0  0  0  0
  6  7  1  6  0  0  0
  7  8  1  1  0  0  0
  9  7  1  0  0  0  0
 10  9  1  0  0  0  0
 12 11  2  0  0  0  0
 12 13  1  0  0  0  0
 13 10  1  0  0  0  0
 14 12  1  0  0  0  0
 15 21  1  0  0  0  0
 15 14  1  0  0  0  0
 17 20  2  0  0  0  0
 19 17  1  0  0  0  0
 19 18  1  1  0  0  0
 21 17  1  0  0  0  0
 22 21  1  0  0  0  0
 23 16  1  6  0  0  0
 23 22  1  0  0  0  0
 23 19  1  0  0  0  0
 25 41  1  6  0  0  0
 25 26  1  0  0  0  0
 26 27  1  0  0  0  0
 26 33  1  1  0  0  0
 28 24  1  1  0  0  0
 28 25  1  0  0  0  0
 28 29  1  0  0  0  0
 29 30  1  1  0  0  0
 29 27  1  0  0  0  0
 30 32  1  0  0  0  0
 30 31  1  0  0  0  0
 32 31  1  0  0  0  0
 33 34  1  0  0  0  0
 35 38  1  0  0  0  0
 35 40  1  0  0  0  0
 36 40  2  0  0  0  0
 38 39  1  0  0  0  0
 39 34  1  6  0  0  0
 39 37  1  0  0  0  0
 40 37  1  0  0  0  0
 42 41  1  0  0  0  0
 43 42  1  0  0  0  0
 44 43  1  0  0  0  0
 44 42  1  0  0  0  0
M  END
>  <MODEL>
5

>  <REMARK>
 VINA RESULT:      -5.6      3.686      9.676
  Name = 
  17 active torsions:
  status: ('A' for Active; 'I' for Inactive)
    1  A    between atoms: C_1  and  C_16
    2  A    between atoms: C_2  and  C_36
    3  A    between atoms: C_5  and  C_16
    4  A    between atoms: C_7  and  C_37
    5  A    between atoms: C_8  and  N_31
    6  A    between atoms: C_11  and  N_25
    7  A    between atoms: C_11  and  C_40
    8  A    between atoms: C_14  and  O_18
    9  A    between atoms: C_14  and  C_37
   10  A    between atoms: O_18  and  C_19
   11  A    between atoms: C_21  and  C_27
   12  A    between atoms: C_21  and  C_40
   13  A    between atoms: C_23  and  S_26
   14  A    between atoms: S_26  and  C_30
   15  A    between atoms: O_29  and  N_31
   16  A    between atoms: O_29  and  C_41
   17  A    between atoms: C_30  and  N_33
                            x       y       z     vdW  Elec       q    Type
                         _______ _______ _______ _____ _____    ______ ____

>  <TORSDO>
F 17

$$$$
=
 OpenBabel11052411093D

 44 49  0  0  1  0  0  0  0  0999 V2000
  161.6190  207.2070  148.9560 C   0  0  2  0  0  3  0  0  0  0  0  0
  162.9450  207.4200  148.2500 C   0  0  0  0  0  1  0  0  0  0  0  0
  160.6780  206.4200  148.0560 C   0  0  0  0  0  2  0  0  0  0  0  0
  161.4780  205.7360  146.9620 C   0  0  1  0  0  3  0  0  0  0  0  0
  161.5780  204.2580  147.2730 C   0  0  0  0  0  2  0  0  0  0  0  0
  160.5950  204.7480  146.2260 C   0  0  2  0  0  3  0  0  0  0  0  0
  161.1660  204.5280  144.8310 C   0  0  1  0  0  3  0  0  0  0  0  0
  160.4430  203.5480  144.1460 O   0  0  0  0  0  1  0  0  0  0  0  0
  161.2210  205.8280  144.0260 C   0  0  0  0  0  2  0  0  0  0  0  0
  161.9440  205.6850  142.6860 C   0  0  0  0  0  2  0  0  0  0  0  0
  163.0090  206.1060  140.0540 O   0  0  0  0  0  0  0  0  0  0  0  0
  162.0940  206.8760  140.4550 C   0  0  0  0  0  0  0  0  0  0  0  0
  161.5810  206.7730  141.7840 N   0  0  0  0  0  2  0  0  0  0  0  0
  161.4060  208.0940  139.3410 S   0  0  0  0  0  0  0  0  0  0  0  0
  162.4530  209.4050  140.0410 C   0  0  0  0  0  2  0  0  0  0  0  0
  164.3600  213.0120  138.8700 N   0  0  0  0  0  1  0  0  0  0  0  0
  161.7690  211.8050  140.2730 C   0  0  0  0  0  0  0  0  0  0  0  0
  160.8310  213.7570  139.2400 N   0  0  0  0  0  1  0  0  0  0  0  0
  162.0670  213.1340  139.6860 C   0  0  2  0  0  3  0  0  0  0  0  0
  161.2620  211.6770  141.4230 O   0  0  0  0  0  0  0  0  0  0  0  0
  162.0930  210.6900  139.4650 N   0  0  0  0  0  0  0  0  0  0  0  0
  162.6770  211.1620  137.8720 S   0  0  0  0  0  0  0  0  0  0  0  0
  162.9680  212.8680  138.4770 C   0  0  2  0  0  3  0  0  0  0  0  0
  161.0560  208.4490  149.2760 O   0  0  0  0  0  0  0  0  0  0  0  0
  161.1340  208.8370  151.6250 C   0  0  1  0  0  3  0  0  0  0  0  0
  160.9950  210.2690  152.1430 C   0  0  1  0  0  3  0  0  0  0  0  0
  161.2010  211.1770  151.0270 N   0  0  0  0  0  2  0  0  0  0  0  0
  161.8650  208.9640  150.3040 C   0  0  2  0  0  3  0  0  0  0  0  0
  162.1130  210.4650  150.1380 C   0  0  1  0  0  3  0  0  0  0  0  0
  162.1130  210.9610  148.6770 C   0  0  0  0  0  3  0  0  0  0  0  0
  161.5790  212.3820  148.5500 C   0  0  0  0  0  2  0  0  0  0  0  0
  163.0740  212.1240  148.4650 C   0  0  0  0  0  2  0  0  0  0  0  0
  159.7010  210.5440  152.7850 N   0  0  0  0  0  2  0  0  0  0  0  0
  159.8040  210.4540  154.1400 O   0  0  0  0  0  0  0  0  0  0  0  0
  157.0110  212.1130  154.2640 C   0  0  0  0  0  2  0  0  0  0  0  0
  156.3760  211.4940  156.4670 O   0  0  0  0  0  0  0  0  0  0  0  0
  158.6950  211.5200  155.9850 C   0  0  0  0  0  2  0  0  0  0  0  0
  158.4000  212.3290  153.6880 C   0  0  0  0  0  2  0  0  0  0  0  0
  159.4060  211.6990  154.6490 C   0  0  2  0  0  3  0  0  0  0  0  0
  157.2670  211.6920  155.6570 C   0  0  0  0  0  0  0  0  0  0  0  0
  161.9590  207.9940  152.5870 C   0  0  0  0  0  2  0  0  0  0  0  0
  161.1200  206.8560  153.1460 C   0  0  0  0  0  3  0  0  0  0  0  0
  161.9140  205.5660  153.0650 C   0  0  0  0  0  2  0  0  0  0  0  0
  160.8420  205.8660  152.0370 C   0  0  0  0  0  2  0  0  0  0  0  0
  1  2  1  6  0  0  0
  1 24  1  0  0  0  0
  3  1  1  0  0  0  0
  4  5  1  0  0  0  0
  4  3  1  1  0  0  0
  6  7  1  6  0  0  0
  6  4  1  0  0  0  0
  6  5  1  0  0  0  0
  7  8  1  6  0  0  0
  9  7  1  0  0  0  0
 10  9  1  0  0  0  0
 11 12  2  0  0  0  0
 12 13  1  0  0  0  0
 13 10  1  0  0  0  0
 14 15  1  0  0  0  0
 14 12  1  0  0  0  0
 17 20  2  0  0  0  0
 19 18  1  6  0  0  0
 19 17  1  0  0  0  0
 21 15  1  0  0  0  0
 21 17  1  0  0  0  0
 22 23  1  0  0  0  0
 22 21  1  0  0  0  0
 23 16  1  1  0  0  0
 23 19  1  0  0  0  0
 25 26  1  0  0  0  0
 25 41  1  1  0  0  0
 26 33  1  6  0  0  0
 27 26  1  0  0  0  0
 28 24  1  6  0  0  0
 28 25  1  0  0  0  0
 29 30  1  6  0  0  0
 29 28  1  0  0  0  0
 29 27  1  0  0  0  0
 31 30  1  0  0  0  0
 32 31  1  0  0  0  0
 32 30  1  0  0  0  0
 33 34  1  0  0  0  0
 35 40  1  0  0  0  0
 38 35  1  0  0  0  0
 38 39  1  0  0  0  0
 39 34  1  6  0  0  0
 39 37  1  0  0  0  0
 40 37  1  0  0  0  0
 40 36  2  0  0  0  0
 41 42  1  0  0  0  0
 43 42  1  0  0  0  0
 44 43  1  0  0  0  0
 44 42  1  0  0  0  0
M  END
>  <MODEL>
6

>  <REMARK>
 VINA RESULT:      -5.3      4.178      9.235
  Name = 
  17 active torsions:
  status: ('A' for Active; 'I' for Inactive)
    1  A    between atoms: C_1  and  C_16
    2  A    between atoms: C_2  and  C_36
    3  A    between atoms: C_5  and  C_16
    4  A    between atoms: C_7  and  C_37
    5  A    between atoms: C_8  and  N_31
    6  A    between atoms: C_11  and  N_25
    7  A    between atoms: C_11  and  C_40
    8  A    between atoms: C_14  and  O_18
    9  A    between atoms: C_14  and  C_37
   10  A    between atoms: O_18  and  C_19
   11  A    between atoms: C_21  and  C_27
   12  A    between atoms: C_21  and  C_40
   13  A    between atoms: C_23  and  S_26
   14  A    between atoms: S_26  and  C_30
   15  A    between atoms: O_29  and  N_31
   16  A    between atoms: O_29  and  C_41
   17  A    between atoms: C_30  and  N_33
                            x       y       z     vdW  Elec       q    Type
                         _______ _______ _______ _____ _____    ______ ____

>  <TORSDO>
F 17

$$$$
=
 OpenBabel11052411093D

 44 49  0  0  1  0  0  0  0  0999 V2000
  160.4560  208.9790  153.4570 C   0  0  2  0  0  3  0  0  0  0  0  0
  160.5430  207.8200  154.4330 C   0  0  0  0  0  1  0  0  0  0  0  0
  161.8250  209.6220  153.2980 C   0  0  0  0  0  2  0  0  0  0  0  0
  162.3270  209.3990  151.8830 C   0  0  1  0  0  3  0  0  0  0  0  0
  162.3280  207.9150  151.5860 C   0  0  0  0  0  2  0  0  0  0  0  0
  161.2210  208.7960  151.0380 C   0  0  2  0  0  3  0  0  0  0  0  0
  161.4910  209.1230  149.5750 C   0  0  1  0  0  3  0  0  0  0  0  0
  162.1870  210.3280  149.4540 O   0  0  0  0  0  1  0  0  0  0  0  0
  162.2340  207.9900  148.8650 C   0  0  0  0  0  2  0  0  0  0  0  0
  161.6600  207.6540  147.4870 C   0  0  0  0  0  2  0  0  0  0  0  0
  160.4600  206.2790  145.2720 O   0  0  0  0  0  0  0  0  0  0  0  0
  161.1910  205.6160  146.0570 C   0  0  0  0  0  0  0  0  0  0  0  0
  161.7480  206.2230  147.2250 N   0  0  0  0  0  2  0  0  0  0  0  0
  161.5620  203.9050  145.6950 S   0  0  0  0  0  0  0  0  0  0  0  0
  162.2650  203.6500  147.3530 C   0  0  0  0  0  2  0  0  0  0  0  0
  161.9190  202.4200  151.4000 N   0  0  0  0  0  1  0  0  0  0  0  0
  160.9900  201.7760  148.4240 C   0  0  0  0  0  0  0  0  0  0  0  0
  159.0420  201.0840  149.6430 N   0  0  0  0  0  1  0  0  0  0  0  0
  160.4650  201.3710  149.7510 C   0  0  2  0  0  3  0  0  0  0  0  0
  161.2050  200.9400  147.5030 O   0  0  0  0  0  0  0  0  0  0  0  0
  161.2390  203.1590  148.2580 N   0  0  0  0  0  0  0  0  0  0  0  0
  160.7430  204.1040  149.6590 S   0  0  0  0  0  0  0  0  0  0  0  0
  160.6710  202.5770  150.6710 C   0  0  2  0  0  3  0  0  0  0  0  0
  159.5310  209.9190  153.9310 O   0  0  0  0  0  0  0  0  0  0  0  0
  159.7840  211.3310  155.8330 C   0  0  1  0  0  3  0  0  0  0  0  0
  159.3730  212.7990  155.7230 C   0  0  1  0  0  3  0  0  0  0  0  0
  159.2320  213.1270  154.3150 N   0  0  0  0  0  2  0  0  0  0  0  0
  160.3090  210.9640  154.4600 C   0  0  2  0  0  3  0  0  0  0  0  0
  160.1780  212.2470  153.6370 C   0  0  1  0  0  3  0  0  0  0  0  0
  159.8940  212.0250  152.1360 C   0  0  0  0  0  3  0  0  0  0  0  0
  158.5470  212.5930  151.7130 C   0  0  0  0  0  2  0  0  0  0  0  0
  159.8250  213.3360  151.3640 C   0  0  0  0  0  2  0  0  0  0  0  0
  158.1330  213.1230  156.4440 N   0  0  0  0  0  2  0  0  0  0  0  0
  157.4200  211.9940  156.7130 O   0  0  0  0  0  0  0  0  0  0  0  0
  155.1980  210.0480  155.3540 C   0  0  0  0  0  2  0  0  0  0  0  0
  153.8030  209.7870  157.2580 O   0  0  0  0  0  0  0  0  0  0  0  0
  155.0600  211.7890  157.1140 C   0  0  0  0  0  2  0  0  0  0  0  0
  156.0280  211.2470  154.9260 C   0  0  0  0  0  2  0  0  0  0  0  0
  156.1580  212.1770  156.1300 C   0  0  2  0  0  3  0  0  0  0  0  0
  154.6020  210.4710  156.6370 C   0  0  0  0  0  0  0  0  0  0  0  0
  160.8870  211.1550  156.8660 C   0  0  0  0  0  2  0  0  0  0  0  0
  162.0820  210.4450  156.2500 C   0  0  0  0  0  3  0  0  0  0  0  0
  162.4000  209.2060  157.0660 C   0  0  0  0  0  2  0  0  0  0  0  0
  163.2230  210.4650  157.2430 C   0  0  0  0  0  2  0  0  0  0  0  0
  1 24  1  0  0  0  0
  1  2  1  1  0  0  0
  3  1  1  0  0  0  0
  4  3  1  1  0  0  0
  5  4  1  0  0  0  0
  6  7  1  6  0  0  0
  6  5  1  0  0  0  0
  6  4  1  0  0  0  0
  7  8  1  1  0  0  0
  9  7  1  0  0  0  0
 10  9  1  0  0  0  0
 11 12  2  0  0  0  0
 12 13  1  0  0  0  0
 13 10  1  0  0  0  0
 14 12  1  0  0  0  0
 14 15  1  0  0  0  0
 15 21  1  0  0  0  0
 17 19  1  0  0  0  0
 19 18  1  6  0  0  0
 19 23  1  0  0  0  0
 20 17  2  0  0  0  0
 21 17  1  0  0  0  0
 21 22  1  0  0  0  0
 22 23  1  0  0  0  0
 23 16  1  6  0  0  0
 25 41  1  1  0  0  0
 26 25  1  0  0  0  0
 26 33  1  1  0  0  0
 27 26  1  0  0  0  0
 28 24  1  6  0  0  0
 28 25  1  0  0  0  0
 29 30  1  6  0  0  0
 29 27  1  0  0  0  0
 29 28  1  0  0  0  0
 31 30  1  0  0  0  0
 32 31  1  0  0  0  0
 32 30  1  0  0  0  0
 33 34  1  0  0  0  0
 35 40  1  0  0  0  0
 38 35  1  0  0  0  0
 38 39  1  0  0  0  0
 39 34  1  1  0  0  0
 39 37  1  0  0  0  0
 40 37  1  0  0  0  0
 40 36  2  0  0  0  0
 42 41  1  0  0  0  0
 42 43  1  0  0  0  0
 42 44  1  0  0  0  0
 43 44  1  0  0  0  0
M  END
>  <MODEL>
7

>  <REMARK>
 VINA RESULT:      -5.0      3.699      9.926
  Name = 
  17 active torsions:
  status: ('A' for Active; 'I' for Inactive)
    1  A    between atoms: C_1  and  C_16
    2  A    between atoms: C_2  and  C_36
    3  A    between atoms: C_5  and  C_16
    4  A    between atoms: C_7  and  C_37
    5  A    between atoms: C_8  and  N_31
    6  A    between atoms: C_11  and  N_25
    7  A    between atoms: C_11  and  C_40
    8  A    between atoms: C_14  and  O_18
    9  A    between atoms: C_14  and  C_37
   10  A    between atoms: O_18  and  C_19
   11  A    between atoms: C_21  and  C_27
   12  A    between atoms: C_21  and  C_40
   13  A    between atoms: C_23  and  S_26
   14  A    between atoms: S_26  and  C_30
   15  A    between atoms: O_29  and  N_31
   16  A    between atoms: O_29  and  C_41
   17  A    between atoms: C_30  and  N_33
                            x       y       z     vdW  Elec       q    Type
                         _______ _______ _______ _____ _____    ______ ____

>  <TORSDO>
F 17

$$$$
=
 OpenBabel11052411093D

 44 49  0  0  1  0  0  0  0  0999 V2000
  162.0970  205.2460  152.4950 C   0  0  2  0  0  3  0  0  0  0  0  0
  160.7240  204.6290  152.6820 C   0  0  0  0  0  1  0  0  0  0  0  0
  162.2920  206.3790  153.4900 C   0  0  0  0  0  2  0  0  0  0  0  0
  161.0840  207.2980  153.4530 C   0  0  1  0  0  3  0  0  0  0  0  0
  161.0370  208.1060  154.7320 C   0  0  0  0  0  2  0  0  0  0  0  0
  161.5420  208.7430  153.4510 C   0  0  2  0  0  3  0  0  0  0  0  0
  160.4480  209.6010  152.8290 C   0  0  1  0  0  3  0  0  0  0  0  0
  159.6010  210.1180  153.8110 O   0  0  0  0  0  1  0  0  0  0  0  0
  161.0250  210.7210  151.9610 C   0  0  0  0  0  2  0  0  0  0  0  0
  160.2430  212.0310  152.0570 C   0  0  0  0  0  2  0  0  0  0  0  0
  157.9670  213.0740  150.6530 O   0  0  0  0  0  0  0  0  0  0  0  0
  159.1140  213.3120  150.1850 C   0  0  0  0  0  0  0  0  0  0  0  0
  160.2810  212.7500  150.7880 N   0  0  0  0  0  2  0  0  0  0  0  0
  159.2900  214.3860  148.7660 S   0  0  0  0  0  0  0  0  0  0  0  0
  160.0110  213.0450  147.7720 C   0  0  0  0  0  2  0  0  0  0  0  0
  160.1150  211.9630  143.6700 N   0  0  0  0  0  1  0  0  0  0  0  0
  161.8120  213.2430  146.0400 C   0  0  0  0  0  0  0  0  0  0  0  0
  162.7030  214.4530  144.1690 N   0  0  0  0  0  1  0  0  0  0  0  0
  161.9740  213.2580  144.5660 C   0  0  2  0  0  3  0  0  0  0  0  0
  162.7620  212.9500  146.8180 O   0  0  0  0  0  0  0  0  0  0  0  0
  160.5220  213.5740  146.5200 N   0  0  0  0  0  0  0  0  0  0  0  0
  159.4270  214.0500  145.2250 S   0  0  0  0  0  0  0  0  0  0  0  0
  160.5580  213.3100  143.9860 C   0  0  2  0  0  3  0  0  0  0  0  0
  162.2190  205.7250  151.1850 O   0  0  0  0  0  0  0  0  0  0  0  0
  161.2530  204.0350  149.8130 C   0  0  1  0  0  3  0  0  0  0  0  0
  160.9760  204.3460  148.3420 C   0  0  1  0  0  3  0  0  0  0  0  0
  161.0420  205.7860  148.1620 N   0  0  0  0  0  2  0  0  0  0  0  0
  161.0290  205.3430  150.5420 C   0  0  2  0  0  3  0  0  0  0  0  0
  160.6270  206.3350  149.4480 C   0  0  1  0  0  3  0  0  0  0  0  0
  161.0700  207.7920  149.7030 C   0  0  0  0  0  3  0  0  0  0  0  0
  162.5840  207.9320  149.7680 C   0  0  0  0  0  2  0  0  0  0  0  0
  161.8360  208.3750  148.5220 C   0  0  0  0  0  2  0  0  0  0  0  0
  161.8980  203.6780  147.4110 N   0  0  0  0  0  2  0  0  0  0  0  0
  161.2350  202.7710  146.6400 O   0  0  0  0  0  0  0  0  0  0  0  0
  160.4360  205.2600  144.7070 C   0  0  0  0  0  2  0  0  0  0  0  0
  162.4300  206.5210  144.9780 O   0  0  0  0  0  0  0  0  0  0  0  0
  162.5990  204.1740  145.2450 C   0  0  0  0  0  2  0  0  0  0  0  0
  160.2430  203.7530  144.7050 C   0  0  0  0  0  2  0  0  0  0  0  0
  161.4970  203.1230  145.3070 C   0  0  2  0  0  3  0  0  0  0  0  0
  161.8780  205.4320  144.9730 C   0  0  0  0  0  0  0  0  0  0  0  0
  160.2820  202.9860  150.3340 C   0  0  0  0  0  2  0  0  0  0  0  0
  160.0840  201.8870  149.3030 C   0  0  0  0  0  3  0  0  0  0  0  0
  159.8010  200.5780  150.0170 C   0  0  0  0  0  2  0  0  0  0  0  0
  161.1840  200.8620  149.4680 C   0  0  0  0  0  2  0  0  0  0  0  0
  1  2  1  6  0  0  0
  1  3  1  0  0  0  0
  4  3  1  1  0  0  0
  4  5  1  0  0  0  0
  6  7  1  6  0  0  0
  6  4  1  0  0  0  0
  6  5  1  0  0  0  0
  7  8  1  1  0  0  0
  9 10  1  0  0  0  0
  9  7  1  0  0  0  0
 12 11  2  0  0  0  0
 12 13  1  0  0  0  0
 13 10  1  0  0  0  0
 14 12  1  0  0  0  0
 15 14  1  0  0  0  0
 17 21  1  0  0  0  0
 17 20  2  0  0  0  0
 19 18  1  1  0  0  0
 19 17  1  0  0  0  0
 21 15  1  0  0  0  0
 22 21  1  0  0  0  0
 23 16  1  1  0  0  0
 23 19  1  0  0  0  0
 23 22  1  0  0  0  0
 24  1  1  0  0  0  0
 25 41  1  1  0  0  0
 25 28  1  0  0  0  0
 26 33  1  6  0  0  0
 26 25  1  0  0  0  0
 27 26  1  0  0  0  0
 27 29  1  0  0  0  0
 28 24  1  6  0  0  0
 29 30  1  1  0  0  0
 29 28  1  0  0  0  0
 30 31  1  0  0  0  0
 32 30  1  0  0  0  0
 32 31  1  0  0  0  0
 34 33  1  0  0  0  0
 35 40  1  0  0  0  0
 37 39  1  0  0  0  0
 38 35  1  0  0  0  0
 38 39  1  0  0  0  0
 39 34  1  1  0  0  0
 40 36  2  0  0  0  0
 40 37  1  0  0  0  0
 42 44  1  0  0  0  0
 42 43  1  0  0  0  0
 42 41  1  0  0  0  0
 44 43  1  0  0  0  0
M  END
>  <MODEL>
8

>  <REMARK>
 VINA RESULT:      -4.7      1.510      2.033
  Name = 
  17 active torsions:
  status: ('A' for Active; 'I' for Inactive)
    1  A    between atoms: C_1  and  C_16
    2  A    between atoms: C_2  and  C_36
    3  A    between atoms: C_5  and  C_16
    4  A    between atoms: C_7  and  C_37
    5  A    between atoms: C_8  and  N_31
    6  A    between atoms: C_11  and  N_25
    7  A    between atoms: C_11  and  C_40
    8  A    between atoms: C_14  and  O_18
    9  A    between atoms: C_14  and  C_37
   10  A    between atoms: O_18  and  C_19
   11  A    between atoms: C_21  and  C_27
   12  A    between atoms: C_21  and  C_40
   13  A    between atoms: C_23  and  S_26
   14  A    between atoms: S_26  and  C_30
   15  A    between atoms: O_29  and  N_31
   16  A    between atoms: O_29  and  C_41
   17  A    between atoms: C_30  and  N_33
                            x       y       z     vdW  Elec       q    Type
                         _______ _______ _______ _____ _____    ______ ____

>  <TORSDO>
F 17

$$$$
=
 OpenBabel11052411093D

 44 49  0  0  1  0  0  0  0  0999 V2000
  161.9120  211.7700  140.5080 C   0  0  2  0  0  3  0  0  0  0  0  0
  163.2550  211.5570  139.8350 C   0  0  0  0  0  1  0  0  0  0  0  0
  162.1190  212.0990  141.9780 C   0  0  0  0  0  2  0  0  0  0  0  0
  161.0670  213.0980  142.4260 C   0  0  1  0  0  3  0  0  0  0  0  0
  159.7090  212.4300  142.4050 C   0  0  0  0  0  2  0  0  0  0  0  0
  160.4370  212.6280  143.7220 C   0  0  2  0  0  3  0  0  0  0  0  0
  159.8690  213.8360  144.4550 C   0  0  1  0  0  3  0  0  0  0  0  0
  158.8010  214.3930  143.7470 O   0  0  0  0  0  1  0  0  0  0  0  0
  159.4530  213.4920  145.8870 C   0  0  0  0  0  2  0  0  0  0  0  0
  160.5570  213.7350  146.9170 C   0  0  0  0  0  2  0  0  0  0  0  0
  161.2450  212.6570  149.4870 O   0  0  0  0  0  0  0  0  0  0  0  0
  161.5610  211.9950  148.4610 C   0  0  0  0  0  0  0  0  0  0  0  0
  161.3230  212.5170  147.1520 N   0  0  0  0  0  2  0  0  0  0  0  0
  162.2910  210.3720  148.6390 S   0  0  0  0  0  0  0  0  0  0  0  0
  161.9480  210.3550  150.4250 C   0  0  0  0  0  2  0  0  0  0  0  0
  160.3140  206.5410  149.5310 N   0  0  0  0  0  1  0  0  0  0  0  0
  161.1100  208.5110  151.9020 C   0  0  0  0  0  0  0  0  0  0  0  0
  161.5370  206.3920  152.9420 N   0  0  0  0  0  1  0  0  0  0  0  0
  160.8320  207.0550  151.8560 C   0  0  2  0  0  3  0  0  0  0  0  0
  160.5670  209.2720  152.7510 O   0  0  0  0  0  0  0  0  0  0  0  0
  162.0180  208.9950  150.9310 N   0  0  0  0  0  0  0  0  0  0  0  0
  162.7070  207.7010  149.9540 S   0  0  0  0  0  0  0  0  0  0  0  0
  161.3830  206.5640  150.5150 C   0  0  2  0  0  3  0  0  0  0  0  0
  161.1350  210.6120  140.3750 O   0  0  0  0  0  0  0  0  0  0  0  0
  160.1080  210.5490  138.2270 C   0  0  1  0  0  3  0  0  0  0  0  0
  159.5740  209.2160  137.7020 C   0  0  1  0  0  3  0  0  0  0  0  0
  160.1400  208.1500  138.5110 N   0  0  0  0  0  2  0  0  0  0  0  0
  161.3280  210.1900  139.0490 C   0  0  2  0  0  3  0  0  0  0  0  0
  161.4330  208.6670  138.9450 C   0  0  1  0  0  3  0  0  0  0  0  0
  162.0220  207.9730  140.1920 C   0  0  0  0  0  3  0  0  0  0  0  0
  161.9570  206.4560  140.0930 C   0  0  0  0  0  2  0  0  0  0  0  0
  163.2770  207.1720  139.8660 C   0  0  0  0  0  2  0  0  0  0  0  0
  158.1060  209.1250  137.7010 N   0  0  0  0  0  2  0  0  0  0  0  0
  157.5620  210.0690  138.5180 O   0  0  0  0  0  0  0  0  0  0  0  0
  154.4620  209.1090  138.3210 C   0  0  0  0  0  2  0  0  0  0  0  0
  153.5800  210.5520  139.9880 O   0  0  0  0  0  0  0  0  0  0  0  0
  155.5180  211.2900  138.8440 C   0  0  0  0  0  2  0  0  0  0  0  0
  155.6100  209.3440  137.3540 C   0  0  0  0  0  2  0  0  0  0  0  0
  156.4120  210.5380  137.8650 C   0  0  2  0  0  3  0  0  0  0  0  0
  154.4290  210.3390  139.1370 C   0  0  0  0  0  0  0  0  0  0  0  0
  160.5160  211.4580  137.0770 C   0  0  0  0  0  2  0  0  0  0  0  0
  159.6090  212.6770  137.0170 C   0  0  0  0  0  3  0  0  0  0  0  0
  160.3810  213.8950  137.4880 C   0  0  0  0  0  2  0  0  0  0  0  0
  159.4090  213.2020  138.4210 C   0  0  0  0  0  2  0  0  0  0  0  0
  1  2  1  1  0  0  0
  1  3  1  0  0  0  0
  4  3  1  6  0  0  0
  4  6  1  0  0  0  0
  5  4  1  0  0  0  0
  5  6  1  0  0  0  0
  6  7  1  1  0  0  0
  7  8  1  6  0  0  0
  7  9  1  0  0  0  0
  9 10  1  0  0  0  0
 10 13  1  0  0  0  0
 12 14  1  0  0  0  0
 12 11  2  0  0  0  0
 13 12  1  0  0  0  0
 14 15  1  0  0  0  0
 15 21  1  0  0  0  0
 17 20  2  0  0  0  0
 19 17  1  0  0  0  0
 19 18  1  1  0  0  0
 21 17  1  0  0  0  0
 22 23  1  0  0  0  0
 22 21  1  0  0  0  0
 23 16  1  6  0  0  0
 23 19  1  0  0  0  0
 24  1  1  0  0  0  0
 25 41  1  6  0  0  0
 25 28  1  0  0  0  0
 26 33  1  1  0  0  0
 26 25  1  0  0  0  0
 26 27  1  0  0  0  0
 27 29  1  0  0  0  0
 28 24  1  1  0  0  0
 29 28  1  0  0  0  0
 29 30  1  1  0  0  0
 31 30  1  0  0  0  0
 32 31  1  0  0  0  0
 32 30  1  0  0  0  0
 33 34  1  0  0  0  0
 35 40  1  0  0  0  0
 37 40  1  0  0  0  0
 38 39  1  0  0  0  0
 38 35  1  0  0  0  0
 39 34  1  1  0  0  0
 39 37  1  0  0  0  0
 40 36  2  0  0  0  0
 42 41  1  0  0  0  0
 42 43  1  0  0  0  0
 42 44  1  0  0  0  0
 43 44  1  0  0  0  0
M  END
>  <MODEL>
9

>  <REMARK>
 VINA RESULT:      -4.5      6.193     11.050
  Name = 
  17 active torsions:
  status: ('A' for Active; 'I' for Inactive)
    1  A    between atoms: C_1  and  C_16
    2  A    between atoms: C_2  and  C_36
    3  A    between atoms: C_5  and  C_16
    4  A    between atoms: C_7  and  C_37
    5  A    between atoms: C_8  and  N_31
    6  A    between atoms: C_11  and  N_25
    7  A    between atoms: C_11  and  C_40
    8  A    between atoms: C_14  and  O_18
    9  A    between atoms: C_14  and  C_37
   10  A    between atoms: O_18  and  C_19
   11  A    between atoms: C_21  and  C_27
   12  A    between atoms: C_21  and  C_40
   13  A    between atoms: C_23  and  S_26
   14  A    between atoms: S_26  and  C_30
   15  A    between atoms: O_29  and  N_31
   16  A    between atoms: O_29  and  C_41
   17  A    between atoms: C_30  and  N_33
                            x       y       z     vdW  Elec       q    Type
                         _______ _______ _______ _____ _____    ______ ____

>  <TORSDO>
F 17

$$$$
