=
 OpenBabel11052410043D

 68 77  0  0  1  0  0  0  0  0999 V2000
  161.4640  207.9940  148.0770 C   0  0  1  0  0  3  0  0  0  0  0  0
  161.4530  207.6520  146.5920 C   0  0  0  0  0  2  0  0  0  0  0  0
  161.1710  206.2950  146.4200 O   0  0  0  0  0  0  0  0  0  0  0  0
  162.0790  205.8570  145.4470 C   0  0  1  0  0  3  0  0  0  0  0  0
  163.0280  204.8500  146.0850 C   0  0  0  0  0  1  0  0  0  0  0  0
  161.3180  205.2100  144.2790 C   0  0  1  0  0  3  0  0  0  0  0  0
  160.2330  203.2320  144.6960 C   0  0  0  0  0  1  0  0  0  0  0  0
  160.0890  204.6270  144.6660 O   0  0  0  0  0  0  0  0  0  0  0  0
  161.1890  206.1230  143.0510 C   0  0  0  0  0  2  0  0  0  0  0  0
  162.3990  205.9790  142.1380 C   0  0  0  0  0  2  0  0  0  0  0  0
  162.2330  206.6770  140.7900 C   0  0  2  0  0  3  0  0  0  0  0  0
  163.0610  206.1080  139.8190 O   0  0  0  0  0  0  0  0  0  0  0  0
  162.2420  205.7160  138.8650 O   0  0  0  0  0  1  0  0  0  0  0  0
  162.4920  208.1710  140.9040 C   0  0  0  0  0  2  0  0  0  0  0  0
  161.9770  210.4730  137.3040 C   0  0  0  0  0  2  0  0  0  0  0  0
  158.5500  209.1210  137.9820 C   0  0  0  0  0  2  0  0  0  0  0  0
  161.7000  211.2660  138.5940 C   0  0  1  0  0  0  0  0  0  0  0  0
  159.4670  208.3930  137.0130 C   0  0  0  0  0  2  0  0  0  0  0  0
  163.5350  210.8320  140.0780 O   0  0  0  0  0  1  0  0  0  0  0  0
  161.0380  211.2360  140.0150 C   0  0  2  0  0  0  0  0  0  0  0  0
  161.4290  211.7220  141.3880 C   0  0  0  0  0  2  0  0  0  0  0  0
  160.5690  210.6350  137.7200 C   0  0  2  0  0  3  0  0  0  0  0  0
  161.2320  212.6050  140.3560 O   0  0  0  0  0  0  0  0  0  0  0  0
  162.2650  210.3870  139.6770 C   0  0  1  0  0  0  0  0  0  0  0  0
  160.0480  209.2430  138.1260 C   0  0  0  0  0  0  0  0  0  0  0  0
  160.5840  208.4810  139.3350 C   0  0  0  0  0  2  0  0  0  0  0  0
  162.0390  208.8540  139.6240 C   0  0  2  0  0  3  0  0  0  0  0  0
  162.3170  207.1290  148.7710 O   0  0  0  0  0  0  0  0  0  0  0  0
  161.6170  206.7920  149.9320 C   0  0  0  0  0  2  0  0  0  0  0  0
  162.4560  207.0930  151.1590 C   0  0  0  0  0  2  0  0  0  0  0  0
  160.6980  208.1910  154.3860 C   0  0  0  0  0  0  0  0  0  0  0  0
  161.3960  207.3790  153.4510 C   0  0  0  0  0  0  0  0  0  0  0  0
  161.6760  207.8870  152.1610 C   0  0  0  0  0  0  0  0  0  0  0  0
  160.2650  209.4650  153.9850 C   0  0  0  0  0  3  0  0  0  0  0  0
  161.2300  209.1590  151.7960 C   0  0  0  0  0  3  0  0  0  0  0  0
  160.5190  209.9430  152.7020 C   0  0  0  0  0  0  0  0  0  0  0  0
  160.0480  211.2960  152.3070 C   0  0  0  0  0  1  0  0  0  0  0  0
  160.4100  207.7750  155.7830 C   0  0  0  0  0  0  0  0  0  0  0  0
  161.4240  207.6400  156.7250 O   0  0  0  0  0  1  0  0  0  0  0  0
  159.2210  207.5510  156.1400 O   0  0  0  0  0  0  0  0  0  0  0  0
  161.8180  205.9770  153.7920 C   0  0  0  0  0  2  0  0  0  0  0  0
  160.8730  205.0180  153.2320 N   0  0  0  0  0  2  0  0  0  0  0  0
  161.4910  204.4140  152.0610 C   0  0  0  0  0  2  0  0  0  0  0  0
  160.4660  203.6330  151.2540 C   0  0  0  0  0  2  0  0  0  0  0  0
  161.1180  202.4240  150.6120 C   0  0  0  0  0  2  0  0  0  0  0  0
  160.2100  201.8730  149.5320 C   0  0  0  0  0  3  0  0  0  0  0  0
  160.8840  200.6860  148.8780 C   0  0  0  0  0  2  0  0  0  0  0  0
  160.8920  202.0350  148.1890 C   0  0  0  0  0  2  0  0  0  0  0  0
  161.8850  209.4440  148.2940 C   0  0  0  0  0  2  0  0  0  0  0  0
  160.7190  210.4020  148.1020 C   0  0  0  0  0  2  0  0  0  0  0  0
  163.3610  213.9590  147.8620 N   0  0  1  0  0  0  0  0  0  0  0  0
  158.5720  212.0100  146.6020 N   0  0  0  0  0  0  0  0  0  0  0  0
  160.4840  214.4500  145.8730 N   0  0  0  0  0  0  0  0  0  0  0  0
  161.0640  211.4140  147.0240 C   0  0  2  0  0  3  0  0  0  0  0  0
  161.1750  212.8240  147.6350 C   0  0  2  0  0  3  0  0  0  0  0  0
  162.6940  214.3760  146.7010 N   0  0  0  0  0  2  0  0  0  0  0  0
  159.0920  214.2220  145.8710 N   0  0  0  0  0  2  0  0  0  0  0  0
  161.3850  213.8680  146.6120 C   0  0  0  0  0  0  0  0  0  0  0  0
  159.8730  211.2960  145.6470 S   0  0  0  0  0  0  0  0  0  0  0  0
  162.4760  212.9290  148.4740 C   0  0  1  0  0  3  0  0  0  0  0  0
  158.3580  213.2850  146.6720 C   0  0  0  0  0  0  0  0  0  0  0  0
  163.6800  212.5310  147.7250 C   0  0  0  0  0  2  0  0  0  0  0  0
  157.1540  213.7640  147.4040 C   0  0  0  0  0  2  0  0  0  0  0  0
  157.5460  214.4510  148.5660 O   0  0  0  0  0  0  0  0  0  0  0  0
  158.7970  212.8330  149.6120 F   0  0  0  0  0  0  0  0  0  0  0  0
  157.5050  214.2170  150.8190 F   0  0  0  0  0  0  0  0  0  0  0  0
  156.5380  212.6280  149.5620 F   0  0  0  0  0  0  0  0  0  0  0  0
  157.5950  213.5260  149.6260 C   0  0  0  0  0  0  0  0  0  0  0  0
  1  2  1  6  0  0  0
  1 49  1  0  0  0  0
  1 28  1  0  0  0  0
  3  2  1  0  0  0  0
  4  5  1  1  0  0  0
  4  3  1  0  0  0  0
  6  9  1  6  0  0  0
  6  8  1  0  0  0  0
  6  4  1  0  0  0  0
  8  7  1  0  0  0  0
 10  9  1  0  0  0  0
 11 14  1  1  0  0  0
 11 10  1  0  0  0  0
 12 11  1  0  0  0  0
 13 12  1  0  0  0  0
 16 25  1  0  0  0  0
 17 15  1  6  0  0  0
 17 24  1  0  0  0  0
 17 20  1  0  0  0  0
 18 16  1  0  0  0  0
 18 25  1  0  0  0  0
 20 23  1  0  0  0  0
 20 21  1  1  0  0  0
 22 15  1  6  0  0  0
 22 25  1  0  0  0  0
 22 17  1  0  0  0  0
 23 21  1  0  0  0  0
 24 20  1  0  0  0  0
 24 19  1  1  0  0  0
 25 26  1  0  0  0  0
 26 27  1  0  0  0  0
 27 24  1  0  0  0  0
 27 14  1  1  0  0  0
 28 29  1  0  0  0  0
 29 30  1  0  0  0  0
 30 33  1  0  0  0  0
 31 38  1  0  0  0  0
 32 41  1  0  0  0  0
 32 31  2  0  0  0  0
 33 32  1  0  0  0  0
 34 31  1  0  0  0  0
 35 33  2  0  0  0  0
 35 36  1  0  0  0  0
 36 34  2  0  0  0  0
 37 36  1  0  0  0  0
 38 40  2  0  0  0  0
 38 39  1  0  0  0  0
 42 41  1  0  0  0  0
 43 42  1  0  0  0  0
 44 43  1  0  0  0  0
 45 44  1  0  0  0  0
 46 45  1  0  0  0  0
 47 46  1  0  0  0  0
 48 47  1  0  0  0  0
 48 46  1  0  0  0  0
 50 49  1  0  0  0  0
 51 62  1  6  0  0  0
 51 60  1  0  0  0  0
 52 61  2  0  0  0  0
 53 58  2  0  0  0  0
 54 55  1  0  0  0  0
 54 50  1  1  0  0  0
 55 58  1  6  0  0  0
 55 60  1  0  0  0  0
 56 51  1  0  0  0  0
 57 53  1  0  0  0  0
 57 61  1  0  0  0  0
 58 56  1  0  0  0  0
 59 52  1  0  0  0  0
 59 54  1  0  0  0  0
 60 62  1  6  0  0  0
 61 63  1  0  0  0  0
 63 64  1  0  0  0  0
 64 68  1  0  0  0  0
 65 68  1  0  0  0  0
 67 68  1  0  0  0  0
 68 66  1  0  0  0  0
M  END
>  <MODEL>
1

>  <REMARK>
 VINA RESULT:      -3.2      0.000      0.000
  Name = 
  28 active torsions:
  status: ('A' for Active; 'I' for Inactive)
    1  A    between atoms: C_5  and  C_13
    2  A    between atoms: C_7  and  C_9
    3  A    between atoms: C_7  and  C_12
    4  A    between atoms: C_8  and  C_18
    5  A    between atoms: C_8  and  C_48
    6  A    between atoms: C_8  and  O_62
    7  A    between atoms: C_11  and  C_25
    8  A    between atoms: C_12  and  C_15
    9  A    between atoms: C_14  and  C_64
   10  A    between atoms: C_15  and  C_59
   11  A    between atoms: C_15  and  O_60
   12  A    between atoms: C_18  and  O_26
   13  A    between atoms: C_21  and  C_33
   14  A    between atoms: C_22  and  C_23
   15  A    between atoms: C_22  and  O_30
   16  A    between atoms: C_22  and  C_37
   17  A    between atoms: C_23  and  C_66
   18  A    between atoms: C_25  and  C_36
   19  A    between atoms: O_26  and  C_59
   20  A    between atoms: C_33  and  C_61
   21  A    between atoms: C_36  and  C_50
   22  A    between atoms: C_37  and  C_48
   23  A    between atoms: N_43  and  C_50
   24  A    between atoms: N_43  and  C_64
   25  A    between atoms: C_47  and  O_58
   26  A    between atoms: C_47  and  C_63
   27  A    between atoms: O_58  and  C_68
   28  A    between atoms: O_60  and  C_61
                            x       y       z     vdW  Elec       q    Type
                         _______ _______ _______ _____ _____    ______ ____

>  <TORSDO>
F 28

$$$$
=
 OpenBabel11052410043D

 68 77  0  0  1  0  0  0  0  0999 V2000
  161.6050  210.9960  149.6840 C   0  0  1  0  0  3  0  0  0  0  0  0
  162.0720  209.9470  148.6820 C   0  0  0  0  0  2  0  0  0  0  0  0
  162.4380  208.7780  149.3540 O   0  0  0  0  0  0  0  0  0  0  0  0
  161.4720  207.8340  148.9880 C   0  0  1  0  0  3  0  0  0  0  0  0
  161.0710  208.0820  147.5390 C   0  0  0  0  0  1  0  0  0  0  0  0
  162.0430  206.4150  149.1490 C   0  0  1  0  0  3  0  0  0  0  0  0
  163.0280  206.7310  151.1970 C   0  0  0  0  0  1  0  0  0  0  0  0
  163.2660  206.3820  149.8600 O   0  0  0  0  0  0  0  0  0  0  0  0
  161.0180  205.3980  149.6700 C   0  0  0  0  0  2  0  0  0  0  0  0
  161.4820  203.9730  149.4000 C   0  0  0  0  0  2  0  0  0  0  0  0
  160.4690  202.9110  149.8220 C   0  0  2  0  0  3  0  0  0  0  0  0
  160.9010  202.2210  150.9580 O   0  0  0  0  0  0  0  0  0  0  0  0
  160.9120  200.9550  150.6000 O   0  0  0  0  0  1  0  0  0  0  0  0
  160.1760  201.9410  148.6880 C   0  0  0  0  0  2  0  0  0  0  0  0
  159.5920  203.7750  144.8390 C   0  0  0  0  0  2  0  0  0  0  0  0
  163.2690  204.1560  145.4470 C   0  0  0  0  0  2  0  0  0  0  0  0
  159.9630  202.2830  144.7670 C   0  0  1  0  0  0  0  0  0  0  0  0
  162.3290  205.3000  145.7870 C   0  0  0  0  0  2  0  0  0  0  0  0
  158.5460  201.1430  146.3320 O   0  0  0  0  0  1  0  0  0  0  0  0
  160.8760  201.1460  145.3450 C   0  0  2  0  0  0  0  0  0  0  0  0
  160.6700  199.7040  145.7350 C   0  0  0  0  0  2  0  0  0  0  0  0
  161.0030  203.4320  144.5650 C   0  0  2  0  0  3  0  0  0  0  0  0
  160.5110  200.1130  144.4350 O   0  0  0  0  0  0  0  0  0  0  0  0
  159.7750  201.8040  146.1800 C   0  0  1  0  0  0  0  0  0  0  0  0
  161.8270  203.8700  145.7910 C   0  0  0  0  0  0  0  0  0  0  0  0
  161.6700  203.2230  147.1650 C   0  0  0  0  0  2  0  0  0  0  0  0
  160.2530  202.6830  147.3640 C   0  0  2  0  0  3  0  0  0  0  0  0
  162.5770  211.1980  150.6690 O   0  0  0  0  0  0  0  0  0  0  0  0
  161.8660  211.2360  151.8710 C   0  0  0  0  0  2  0  0  0  0  0  0
  160.6680  210.3080  151.8040 C   0  0  0  0  0  2  0  0  0  0  0  0
  160.9550  208.3880  155.1110 C   0  0  0  0  0  0  0  0  0  0  0  0
  160.8950  209.4720  154.1930 C   0  0  0  0  0  0  0  0  0  0  0  0
  160.7890  209.2030  152.8080 C   0  0  0  0  0  0  0  0  0  0  0  0
  160.9490  207.0760  154.6120 C   0  0  0  0  0  3  0  0  0  0  0  0
  160.7860  207.8860  152.3460 C   0  0  0  0  0  3  0  0  0  0  0  0
  160.8740  206.8240  153.2440 C   0  0  0  0  0  0  0  0  0  0  0  0
  160.8700  205.4240  152.7470 C   0  0  0  0  0  1  0  0  0  0  0  0
  161.0050  208.5630  156.5860 C   0  0  0  0  0  0  0  0  0  0  0  0
  162.2120  208.7320  157.2570 O   0  0  0  0  0  1  0  0  0  0  0  0
  159.9360  208.5740  157.2550 O   0  0  0  0  0  0  0  0  0  0  0  0
  160.9760  210.8990  154.6570 C   0  0  0  0  0  2  0  0  0  0  0  0
  159.6580  211.3720  155.0580 N   0  0  0  0  0  2  0  0  0  0  0  0
  159.8420  212.5340  155.9150 C   0  0  0  0  0  2  0  0  0  0  0  0
  158.6110  212.7690  156.7760 C   0  0  0  0  0  2  0  0  0  0  0  0
  157.5070  213.3950  155.9460 C   0  0  0  0  0  2  0  0  0  0  0  0
  156.3110  212.4660  155.9110 C   0  0  0  0  0  3  0  0  0  0  0  0
  156.4490  211.5270  154.7320 C   0  0  0  0  0  2  0  0  0  0  0  0
  155.5270  212.7250  154.6410 C   0  0  0  0  0  2  0  0  0  0  0  0
  161.2800  212.3090  148.9790 C   0  0  0  0  0  2  0  0  0  0  0  0
  161.5160  212.2140  147.4790 C   0  0  0  0  0  2  0  0  0  0  0  0
  157.3290  213.1070  146.3140 N   0  0  1  0  0  0  0  0  0  0  0  0
  162.4070  213.2590  144.7290 N   0  0  0  0  0  0  0  0  0  0  0  0
  159.5620  214.4440  143.9260 N   0  0  0  0  0  0  0  0  0  0  0  0
  160.8180  213.3670  146.7800 C   0  0  2  0  0  3  0  0  0  0  0  0
  159.7380  212.8310  145.8220 C   0  0  2  0  0  3  0  0  0  0  0  0
  157.7850  214.1080  145.4440 N   0  0  0  0  0  2  0  0  0  0  0  0
  160.7590  214.1420  143.2440 N   0  0  0  0  0  2  0  0  0  0  0  0
  159.1110  213.9020  145.0210 C   0  0  0  0  0  0  0  0  0  0  0  0
  162.0450  214.4530  145.9770 S   0  0  0  0  0  0  0  0  0  0  0  0
  158.5340  212.2930  146.6400 C   0  0  1  0  0  3  0  0  0  0  0  0
  161.7560  213.1780  143.6130 C   0  0  0  0  0  0  0  0  0  0  0  0
  158.0100  213.2730  147.6070 C   0  0  0  0  0  2  0  0  0  0  0  0
  162.2320  212.2170  142.5810 C   0  0  0  0  0  2  0  0  0  0  0  0
  161.8470  212.6580  141.3040 O   0  0  0  0  0  0  0  0  0  0  0  0
  160.5350  212.0930  139.5060 F   0  0  0  0  0  0  0  0  0  0  0  0
  161.3320  210.4960  140.8680 F   0  0  0  0  0  0  0  0  0  0  0  0
  159.7040  211.8550  141.6030 F   0  0  0  0  0  0  0  0  0  0  0  0
  160.8500  211.7900  140.8220 C   0  0  0  0  0  0  0  0  0  0  0  0
  1  2  1  6  0  0  0
  1 28  1  0  0  0  0
  2  3  1  0  0  0  0
  4  5  1  6  0  0  0
  4  6  1  0  0  0  0
  4  3  1  0  0  0  0
  6  9  1  1  0  0  0
  6  8  1  0  0  0  0
  8  7  1  0  0  0  0
 10  9  1  0  0  0  0
 10 11  1  0  0  0  0
 11 14  1  6  0  0  0
 11 12  1  0  0  0  0
 13 12  1  0  0  0  0
 16 18  1  0  0  0  0
 16 25  1  0  0  0  0
 17 15  1  6  0  0  0
 17 20  1  0  0  0  0
 17 24  1  0  0  0  0
 18 25  1  0  0  0  0
 20 21  1  1  0  0  0
 20 24  1  0  0  0  0
 22 17  1  0  0  0  0
 22 15  1  1  0  0  0
 22 25  1  0  0  0  0
 23 20  1  0  0  0  0
 23 21  1  0  0  0  0
 24 19  1  1  0  0  0
 24 27  1  0  0  0  0
 25 26  1  0  0  0  0
 26 27  1  0  0  0  0
 27 14  1  1  0  0  0
 28 29  1  0  0  0  0
 30 29  1  0  0  0  0
 30 33  1  0  0  0  0
 31 38  1  0  0  0  0
 32 41  1  0  0  0  0
 32 31  2  0  0  0  0
 33 32  1  0  0  0  0
 34 31  1  0  0  0  0
 35 33  2  0  0  0  0
 35 36  1  0  0  0  0
 36 34  2  0  0  0  0
 37 36  1  0  0  0  0
 38 40  2  0  0  0  0
 38 39  1  0  0  0  0
 41 42  1  0  0  0  0
 42 43  1  0  0  0  0
 43 44  1  0  0  0  0
 45 44  1  0  0  0  0
 46 45  1  0  0  0  0
 47 46  1  0  0  0  0
 48 47  1  0  0  0  0
 48 46  1  0  0  0  0
 49  1  1  0  0  0  0
 50 49  1  0  0  0  0
 51 60  1  0  0  0  0
 51 62  1  1  0  0  0
 52 59  1  0  0  0  0
 53 58  2  0  0  0  0
 54 50  1  6  0  0  0
 55 58  1  6  0  0  0
 55 60  1  0  0  0  0
 55 54  1  0  0  0  0
 56 51  1  0  0  0  0
 57 61  1  0  0  0  0
 57 53  1  0  0  0  0
 58 56  1  0  0  0  0
 59 54  1  0  0  0  0
 60 62  1  1  0  0  0
 61 52  2  0  0  0  0
 63 61  1  0  0  0  0
 64 63  1  0  0  0  0
 65 68  1  0  0  0  0
 68 66  1  0  0  0  0
 68 64  1  0  0  0  0
 68 67  1  0  0  0  0
M  END
>  <MODEL>
2

>  <REMARK>
 VINA RESULT:      -1.5      3.319      7.852
  Name = 
  28 active torsions:
  status: ('A' for Active; 'I' for Inactive)
    1  A    between atoms: C_5  and  C_13
    2  A    between atoms: C_7  and  C_9
    3  A    between atoms: C_7  and  C_12
    4  A    between atoms: C_8  and  C_18
    5  A    between atoms: C_8  and  C_48
    6  A    between atoms: C_8  and  O_62
    7  A    between atoms: C_11  and  C_25
    8  A    between atoms: C_12  and  C_15
    9  A    between atoms: C_14  and  C_64
   10  A    between atoms: C_15  and  C_59
   11  A    between atoms: C_15  and  O_60
   12  A    between atoms: C_18  and  O_26
   13  A    between atoms: C_21  and  C_33
   14  A    between atoms: C_22  and  C_23
   15  A    between atoms: C_22  and  O_30
   16  A    between atoms: C_22  and  C_37
   17  A    between atoms: C_23  and  C_66
   18  A    between atoms: C_25  and  C_36
   19  A    between atoms: O_26  and  C_59
   20  A    between atoms: C_33  and  C_61
   21  A    between atoms: C_36  and  C_50
   22  A    between atoms: C_37  and  C_48
   23  A    between atoms: N_43  and  C_50
   24  A    between atoms: N_43  and  C_64
   25  A    between atoms: C_47  and  O_58
   26  A    between atoms: C_47  and  C_63
   27  A    between atoms: O_58  and  C_68
   28  A    between atoms: O_60  and  C_61
                            x       y       z     vdW  Elec       q    Type
                         _______ _______ _______ _____ _____    ______ ____

>  <TORSDO>
F 28

$$$$
=
 OpenBabel11052410043D

 68 77  0  0  1  0  0  0  0  0999 V2000
  162.1690  208.0470  148.4070 C   0  0  1  0  0  3  0  0  0  0  0  0
  161.8710  206.7250  147.7090 C   0  0  0  0  0  2  0  0  0  0  0  0
  161.6300  206.9500  146.3510 O   0  0  0  0  0  0  0  0  0  0  0  0
  162.2780  205.9000  145.6900 C   0  0  1  0  0  3  0  0  0  0  0  0
  162.4330  204.7350  146.6600 C   0  0  0  0  0  1  0  0  0  0  0  0
  161.4550  205.4690  144.4650 C   0  0  1  0  0  3  0  0  0  0  0  0
  160.2110  203.5450  144.5860 C   0  0  0  0  0  1  0  0  0  0  0  0
  160.1910  204.9310  144.8010 O   0  0  0  0  0  0  0  0  0  0  0  0
  161.3800  206.5430  143.3700 C   0  0  0  0  0  2  0  0  0  0  0  0
  162.3580  206.2390  142.2430 C   0  0  0  0  0  2  0  0  0  0  0  0
  161.9340  206.8180  140.8960 C   0  0  2  0  0  3  0  0  0  0  0  0
  162.8790  206.5390  139.9040 O   0  0  0  0  0  0  0  0  0  0  0  0
  162.1700  206.2750  138.8270 O   0  0  0  0  0  1  0  0  0  0  0  0
  161.6850  208.3160  140.9890 C   0  0  0  0  0  2  0  0  0  0  0  0
  162.0240  209.9240  137.0110 C   0  0  0  0  0  2  0  0  0  0  0  0
  158.3770  210.2710  137.7940 C   0  0  0  0  0  2  0  0  0  0  0  0
  162.1560  210.9810  138.1230 C   0  0  1  0  0  0  0  0  0  0  0  0
  158.8650  209.0640  137.0110 C   0  0  0  0  0  2  0  0  0  0  0  0
  163.7050  210.1010  139.7300 O   0  0  0  0  0  1  0  0  0  0  0  0
  161.6030  211.4900  139.4990 C   0  0  2  0  0  0  0  0  0  0  0  0
  162.2190  212.0090  140.7740 C   0  0  0  0  0  2  0  0  0  0  0  0
  160.8300  210.7310  137.3370 C   0  0  2  0  0  3  0  0  0  0  0  0
  162.3640  212.6900  139.5910 O   0  0  0  0  0  0  0  0  0  0  0  0
  162.3500  210.1610  139.3690 C   0  0  1  0  0  0  0  0  0  0  0  0
  159.7950  209.7820  137.9700 C   0  0  0  0  0  0  0  0  0  0  0  0
  160.0150  209.1010  139.3180 C   0  0  0  0  0  2  0  0  0  0  0  0
  161.5040  208.8800  139.5900 C   0  0  2  0  0  3  0  0  0  0  0  0
  162.1800  209.0970  147.4810 O   0  0  0  0  0  0  0  0  0  0  0  0
  162.2270  210.2570  148.2570 C   0  0  0  0  0  2  0  0  0  0  0  0
  161.9830  211.4790  147.3930 C   0  0  0  0  0  2  0  0  0  0  0  0
  158.7550  213.5240  147.7100 C   0  0  0  0  0  0  0  0  0  0  0  0
  159.8150  212.7780  147.1280 C   0  0  0  0  0  0  0  0  0  0  0  0
  160.8720  212.3160  147.9470 C   0  0  0  0  0  0  0  0  0  0  0  0
  158.8080  213.8210  149.0820 C   0  0  0  0  0  3  0  0  0  0  0  0
  160.8930  212.6280  149.3080 C   0  0  0  0  0  3  0  0  0  0  0  0
  159.8690  213.3850  149.8730 C   0  0  0  0  0  0  0  0  0  0  0  0
  159.8980  213.7150  151.3220 C   0  0  0  0  0  1  0  0  0  0  0  0
  157.5700  214.0020  146.9500 C   0  0  0  0  0  0  0  0  0  0  0  0
  156.2950  213.9810  147.5040 O   0  0  0  0  0  1  0  0  0  0  0  0
  157.7140  214.4530  145.7820 O   0  0  0  0  0  0  0  0  0  0  0  0
  159.8570  212.4950  145.6520 C   0  0  0  0  0  2  0  0  0  0  0  0
  160.9200  213.2680  145.0230 N   0  0  0  0  0  2  0  0  0  0  0  0
  160.7080  213.2290  143.5830 C   0  0  0  0  0  2  0  0  0  0  0  0
  159.3110  212.7230  143.2580 C   0  0  0  0  0  2  0  0  0  0  0  0
  159.0670  212.7900  141.7630 C   0  0  0  0  0  2  0  0  0  0  0  0
  158.5290  214.1580  141.3980 C   0  0  0  0  0  3  0  0  0  0  0  0
  157.0800  214.0250  140.9840 C   0  0  0  0  0  2  0  0  0  0  0  0
  158.1580  214.1620  139.9300 C   0  0  0  0  0  2  0  0  0  0  0  0
  161.1480  208.3180  149.5070 C   0  0  0  0  0  2  0  0  0  0  0  0
  160.4240  207.0480  149.9270 C   0  0  0  0  0  2  0  0  0  0  0  0
  160.3780  202.8650  151.4080 N   0  0  1  0  0  0  0  0  0  0  0  0
  161.2770  207.9380  152.7430 N   0  0  0  0  0  0  0  0  0  0  0  0
  161.8080  204.9940  153.8360 N   0  0  0  0  0  0  0  0  0  0  0  0
  161.3350  206.2090  150.8060 C   0  0  2  0  0  3  0  0  0  0  0  0
  160.4960  205.3140  151.7380 C   0  0  2  0  0  3  0  0  0  0  0  0
  161.3340  203.1990  152.3780 N   0  0  0  0  0  2  0  0  0  0  0  0
  161.6530  206.2730  154.4120 N   0  0  0  0  0  2  0  0  0  0  0  0
  161.3270  204.5670  152.7040 C   0  0  0  0  0  0  0  0  0  0  0  0
  162.5250  207.2790  151.6820 S   0  0  0  0  0  0  0  0  0  0  0  0
  159.8470  204.1680  150.9170 C   0  0  1  0  0  3  0  0  0  0  0  0
  160.9420  207.3950  153.8690 C   0  0  0  0  0  0  0  0  0  0  0  0
  160.8220  203.4090  150.1160 C   0  0  0  0  0  2  0  0  0  0  0  0
  159.9680  208.1090  154.7400 C   0  0  0  0  0  2  0  0  0  0  0  0
  159.6120  209.3340  154.1510 O   0  0  0  0  0  0  0  0  0  0  0  0
  159.1820  211.5370  154.6380 F   0  0  0  0  0  0  0  0  0  0  0  0
  158.5950  209.9240  156.0860 F   0  0  0  0  0  0  0  0  0  0  0  0
  160.7670  210.4270  155.8230 F   0  0  0  0  0  0  0  0  0  0  0  0
  159.5500  210.3070  155.1650 C   0  0  0  0  0  0  0  0  0  0  0  0
  1  2  1  6  0  0  0
  1 49  1  0  0  0  0
  3  2  1  0  0  0  0
  4  3  1  0  0  0  0
  4  5  1  1  0  0  0
  6  9  1  6  0  0  0
  6  8  1  0  0  0  0
  6  4  1  0  0  0  0
  7  8  1  0  0  0  0
 10  9  1  0  0  0  0
 11 14  1  1  0  0  0
 11 10  1  0  0  0  0
 12 11  1  0  0  0  0
 13 12  1  0  0  0  0
 16 25  1  0  0  0  0
 17 15  1  6  0  0  0
 17 24  1  0  0  0  0
 17 20  1  0  0  0  0
 18 16  1  0  0  0  0
 18 25  1  0  0  0  0
 20 23  1  0  0  0  0
 20 21  1  1  0  0  0
 22 15  1  6  0  0  0
 22 25  1  0  0  0  0
 22 17  1  0  0  0  0
 23 21  1  0  0  0  0
 24 20  1  0  0  0  0
 24 27  1  0  0  0  0
 24 19  1  1  0  0  0
 25 26  1  0  0  0  0
 26 27  1  0  0  0  0
 27 14  1  1  0  0  0
 28 29  1  0  0  0  0
 28  1  1  0  0  0  0
 30 33  1  0  0  0  0
 30 29  1  0  0  0  0
 31 34  1  0  0  0  0
 32 31  2  0  0  0  0
 32 33  1  0  0  0  0
 33 35  2  0  0  0  0
 34 36  2  0  0  0  0
 35 36  1  0  0  0  0
 36 37  1  0  0  0  0
 38 39  1  0  0  0  0
 38 31  1  0  0  0  0
 40 38  2  0  0  0  0
 41 32  1  0  0  0  0
 42 41  1  0  0  0  0
 43 42  1  0  0  0  0
 44 43  1  0  0  0  0
 45 44  1  0  0  0  0
 46 45  1  0  0  0  0
 47 46  1  0  0  0  0
 48 47  1  0  0  0  0
 48 46  1  0  0  0  0
 49 50  1  0  0  0  0
 51 62  1  6  0  0  0
 51 56  1  0  0  0  0
 52 61  2  0  0  0  0
 53 57  1  0  0  0  0
 54 50  1  1  0  0  0
 54 59  1  0  0  0  0
 54 55  1  0  0  0  0
 55 58  1  1  0  0  0
 56 58  1  0  0  0  0
 58 53  2  0  0  0  0
 59 52  1  0  0  0  0
 60 62  1  6  0  0  0
 60 51  1  0  0  0  0
 60 55  1  0  0  0  0
 61 57  1  0  0  0  0
 61 63  1  0  0  0  0
 64 63  1  0  0  0  0
 64 68  1  0  0  0  0
 65 68  1  0  0  0  0
 68 67  1  0  0  0  0
 68 66  1  0  0  0  0
M  END
>  <MODEL>
3

>  <REMARK>
 VINA RESULT:      -1.2      2.320      7.485
  Name = 
  28 active torsions:
  status: ('A' for Active; 'I' for Inactive)
    1  A    between atoms: C_5  and  C_13
    2  A    between atoms: C_7  and  C_9
    3  A    between atoms: C_7  and  C_12
    4  A    between atoms: C_8  and  C_18
    5  A    between atoms: C_8  and  C_48
    6  A    between atoms: C_8  and  O_62
    7  A    between atoms: C_11  and  C_25
    8  A    between atoms: C_12  and  C_15
    9  A    between atoms: C_14  and  C_64
   10  A    between atoms: C_15  and  C_59
   11  A    between atoms: C_15  and  O_60
   12  A    between atoms: C_18  and  O_26
   13  A    between atoms: C_21  and  C_33
   14  A    between atoms: C_22  and  C_23
   15  A    between atoms: C_22  and  O_30
   16  A    between atoms: C_22  and  C_37
   17  A    between atoms: C_23  and  C_66
   18  A    between atoms: C_25  and  C_36
   19  A    between atoms: O_26  and  C_59
   20  A    between atoms: C_33  and  C_61
   21  A    between atoms: C_36  and  C_50
   22  A    between atoms: C_37  and  C_48
   23  A    between atoms: N_43  and  C_50
   24  A    between atoms: N_43  and  C_64
   25  A    between atoms: C_47  and  O_58
   26  A    between atoms: C_47  and  C_63
   27  A    between atoms: O_58  and  C_68
   28  A    between atoms: O_60  and  C_61
                            x       y       z     vdW  Elec       q    Type
                         _______ _______ _______ _____ _____    ______ ____

>  <TORSDO>
F 28

$$$$
=
 OpenBabel11052410043D

 68 77  0  0  1  0  0  0  0  0999 V2000
  161.1870  210.4250  148.7020 C   0  0  1  0  0  3  0  0  0  0  0  0
  162.1710  209.2850  148.4690 C   0  0  0  0  0  2  0  0  0  0  0  0
  161.5330  208.2370  147.8010 O   0  0  0  0  0  0  0  0  0  0  0  0
  162.5690  207.4110  147.3500 C   0  0  1  0  0  3  0  0  0  0  0  0
  163.3360  206.8870  148.5570 C   0  0  0  0  0  1  0  0  0  0  0  0
  161.9860  206.2410  146.5390 C   0  0  1  0  0  3  0  0  0  0  0  0
  159.9430  206.1950  145.4970 C   0  0  0  0  0  1  0  0  0  0  0  0
  161.2630  206.6580  145.3970 O   0  0  0  0  0  0  0  0  0  0  0  0
  163.0110  205.1400  146.2310 C   0  0  0  0  0  2  0  0  0  0  0  0
  162.3240  203.7910  146.0670 C   0  0  0  0  0  2  0  0  0  0  0  0
  161.6230  203.3050  147.3340 C   0  0  2  0  0  3  0  0  0  0  0  0
  160.5170  202.5070  147.0280 O   0  0  0  0  0  0  0  0  0  0  0  0
  161.0140  201.3060  146.8220 O   0  0  0  0  0  1  0  0  0  0  0  0
  161.2110  204.4700  148.2210 C   0  0  0  0  0  2  0  0  0  0  0  0
  159.5640  203.6000  152.1010 C   0  0  0  0  0  2  0  0  0  0  0  0
  162.6220  201.4430  151.9390 C   0  0  0  0  0  2  0  0  0  0  0  0
  160.6080  204.7310  152.1080 C   0  0  1  0  0  0  0  0  0  0  0  0
  161.2690  200.8550  151.5780 C   0  0  0  0  0  2  0  0  0  0  0  0
  160.0270  206.2180  150.3170 O   0  0  0  0  0  1  0  0  0  0  0  0
  161.9930  205.2190  151.5570 C   0  0  2  0  0  0  0  0  0  0  0  0
  162.5400  206.5270  151.0450 C   0  0  0  0  0  2  0  0  0  0  0  0
  160.9430  203.2580  152.5060 C   0  0  2  0  0  3  0  0  0  0  0  0
  162.1190  206.3980  152.3440 O   0  0  0  0  0  0  0  0  0  0  0  0
  160.7680  205.0730  150.6520 C   0  0  1  0  0  0  0  0  0  0  0  0
  161.5260  202.3400  151.4150 C   0  0  0  0  0  0  0  0  0  0  0  0
  161.7920  202.8170  149.9900 C   0  0  0  0  0  2  0  0  0  0  0  0
  160.8330  203.9410  149.5940 C   0  0  2  0  0  3  0  0  0  0  0  0
  161.6300  211.2480  149.7440 O   0  0  0  0  0  0  0  0  0  0  0  0
  161.0750  210.6920  150.8990 C   0  0  0  0  0  2  0  0  0  0  0  0
  161.2180  211.6510  152.0650 C   0  0  0  0  0  2  0  0  0  0  0  0
  158.1430  212.3860  154.2360 C   0  0  0  0  0  0  0  0  0  0  0  0
  159.3970  211.8580  153.8270 C   0  0  0  0  0  0  0  0  0  0  0  0
  159.8780  212.1380  152.5260 C   0  0  0  0  0  0  0  0  0  0  0  0
  157.3930  213.1390  153.3190 C   0  0  0  0  0  3  0  0  0  0  0  0
  159.1060  212.8910  151.6390 C   0  0  0  0  0  3  0  0  0  0  0  0
  157.8630  213.3840  152.0300 C   0  0  0  0  0  0  0  0  0  0  0  0
  157.0460  214.1850  151.0820 C   0  0  0  0  0  1  0  0  0  0  0  0
  157.5780  212.2020  155.5980 C   0  0  0  0  0  0  0  0  0  0  0  0
  157.1520  210.9560  156.0460 O   0  0  0  0  0  0  0  0  0  0  0  0
  157.4920  213.1860  156.3810 O   0  0  0  0  0  1  0  0  0  0  0  0
  160.2120  210.9790  154.7340 C   0  0  0  0  0  2  0  0  0  0  0  0
  161.1360  211.7870  155.5200 N   0  0  0  0  0  2  0  0  0  0  0  0
  162.1510  210.9000  156.0670 C   0  0  0  0  0  2  0  0  0  0  0  0
  161.6020  210.1170  157.2490 C   0  0  0  0  0  2  0  0  0  0  0  0
  160.4790  209.2050  156.7950 C   0  0  0  0  0  2  0  0  0  0  0  0
  161.0280  207.8170  156.5330 C   0  0  0  0  0  3  0  0  0  0  0  0
  160.2760  207.1990  155.3740 C   0  0  0  0  0  2  0  0  0  0  0  0
  159.9360  206.8010  156.7950 C   0  0  0  0  0  2  0  0  0  0  0  0
  160.9930  211.2390  147.4270 C   0  0  0  0  0  2  0  0  0  0  0  0
  161.8180  212.5170  147.4440 C   0  0  0  0  0  2  0  0  0  0  0  0
  157.5460  213.6360  147.0070 N   0  0  1  0  0  0  0  0  0  0  0  0
  162.1720  213.0590  144.4390 N   0  0  0  0  0  0  0  0  0  0  0  0
  159.3050  214.3870  144.0380 N   0  0  0  0  0  0  0  0  0  0  0  0
  161.0640  213.6190  146.7200 C   0  0  2  0  0  3  0  0  0  0  0  0
  159.7720  213.0570  146.0970 C   0  0  2  0  0  3  0  0  0  0  0  0
  157.8720  214.4500  145.9130 N   0  0  0  0  0  2  0  0  0  0  0  0
  160.3080  213.8730  143.1890 N   0  0  0  0  0  2  0  0  0  0  0  0
  159.0610  214.0560  145.2730 C   0  0  0  0  0  0  0  0  0  0  0  0
  162.1620  214.4510  145.5240 S   0  0  0  0  0  0  0  0  0  0  0  0
  158.7370  212.7640  147.2150 C   0  0  1  0  0  3  0  0  0  0  0  0
  161.2950  212.8800  143.5040 C   0  0  0  0  0  0  0  0  0  0  0  0
  158.4950  213.9210  148.0940 C   0  0  0  0  0  2  0  0  0  0  0  0
  161.4780  211.7370  142.5680 C   0  0  0  0  0  2  0  0  0  0  0  0
  160.8100  211.9990  141.3600 O   0  0  0  0  0  0  0  0  0  0  0  0
  161.0940  210.6820  139.5000 F   0  0  0  0  0  0  0  0  0  0  0  0
  161.8860  212.7830  139.5280 F   0  0  0  0  0  0  0  0  0  0  0  0
  162.8980  211.2110  140.7710 F   0  0  0  0  0  0  0  0  0  0  0  0
  161.6700  211.6580  140.3000 C   0  0  0  0  0  0  0  0  0  0  0  0
  1 49  1  6  0  0  0
  1 28  1  0  0  0  0
  2  1  1  0  0  0  0
  3  2  1  0  0  0  0
  4  3  1  0  0  0  0
  4  5  1  1  0  0  0
  6  9  1  6  0  0  0
  6  4  1  0  0  0  0
  8  7  1  0  0  0  0
  8  6  1  0  0  0  0
 10  9  1  0  0  0  0
 11 10  1  6  0  0  0
 11 14  1  0  0  0  0
 12 11  1  0  0  0  0
 13 12  1  0  0  0  0
 17 15  1  1  0  0  0
 17 22  1  0  0  0  0
 18 16  1  0  0  0  0
 20 21  1  6  0  0  0
 20 17  1  0  0  0  0
 20 23  1  0  0  0  0
 21 23  1  0  0  0  0
 22 15  1  6  0  0  0
 24 19  1  6  0  0  0
 24 20  1  0  0  0  0
 24 17  1  0  0  0  0
 25 18  1  0  0  0  0
 25 16  1  0  0  0  0
 25 22  1  0  0  0  0
 26 25  1  0  0  0  0
 27 14  1  6  0  0  0
 27 26  1  0  0  0  0
 27 24  1  0  0  0  0
 28 29  1  0  0  0  0
 29 30  1  0  0  0  0
 30 33  1  0  0  0  0
 31 38  1  0  0  0  0
 32 31  1  0  0  0  0
 32 41  1  0  0  0  0
 33 32  2  0  0  0  0
 34 31  2  0  0  0  0
 35 36  2  0  0  0  0
 35 33  1  0  0  0  0
 36 34  1  0  0  0  0
 37 36  1  0  0  0  0
 38 39  2  0  0  0  0
 38 40  1  0  0  0  0
 41 42  1  0  0  0  0
 42 43  1  0  0  0  0
 43 44  1  0  0  0  0
 45 44  1  0  0  0  0
 46 45  1  0  0  0  0
 46 48  1  0  0  0  0
 47 46  1  0  0  0  0
 47 48  1  0  0  0  0
 49 50  1  0  0  0  0
 51 60  1  0  0  0  0
 51 62  1  1  0  0  0
 52 59  1  0  0  0  0
 53 58  2  0  0  0  0
 54 50  1  6  0  0  0
 55 58  1  6  0  0  0
 55 54  1  0  0  0  0
 55 60  1  0  0  0  0
 56 51  1  0  0  0  0
 57 61  1  0  0  0  0
 57 53  1  0  0  0  0
 58 56  1  0  0  0  0
 59 54  1  0  0  0  0
 60 62  1  1  0  0  0
 61 52  2  0  0  0  0
 63 61  1  0  0  0  0
 64 63  1  0  0  0  0
 65 68  1  0  0  0  0
 66 68  1  0  0  0  0
 68 67  1  0  0  0  0
 68 64  1  0  0  0  0
M  END
>  <MODEL>
4

>  <REMARK>
 VINA RESULT:      -1.2      3.573      8.239
  Name = 
  28 active torsions:
  status: ('A' for Active; 'I' for Inactive)
    1  A    between atoms: C_5  and  C_13
    2  A    between atoms: C_7  and  C_9
    3  A    between atoms: C_7  and  C_12
    4  A    between atoms: C_8  and  C_18
    5  A    between atoms: C_8  and  C_48
    6  A    between atoms: C_8  and  O_62
    7  A    between atoms: C_11  and  C_25
    8  A    between atoms: C_12  and  C_15
    9  A    between atoms: C_14  and  C_64
   10  A    between atoms: C_15  and  C_59
   11  A    between atoms: C_15  and  O_60
   12  A    between atoms: C_18  and  O_26
   13  A    between atoms: C_21  and  C_33
   14  A    between atoms: C_22  and  C_23
   15  A    between atoms: C_22  and  O_30
   16  A    between atoms: C_22  and  C_37
   17  A    between atoms: C_23  and  C_66
   18  A    between atoms: C_25  and  C_36
   19  A    between atoms: O_26  and  C_59
   20  A    between atoms: C_33  and  C_61
   21  A    between atoms: C_36  and  C_50
   22  A    between atoms: C_37  and  C_48
   23  A    between atoms: N_43  and  C_50
   24  A    between atoms: N_43  and  C_64
   25  A    between atoms: C_47  and  O_58
   26  A    between atoms: C_47  and  C_63
   27  A    between atoms: O_58  and  C_68
   28  A    between atoms: O_60  and  C_61
                            x       y       z     vdW  Elec       q    Type
                         _______ _______ _______ _____ _____    ______ ____

>  <TORSDO>
F 28

$$$$
=
 OpenBabel11052410043D

 68 77  0  0  1  0  0  0  0  0999 V2000
  161.2240  210.2100  148.7410 C   0  0  1  0  0  3  0  0  0  0  0  0
  162.0860  209.0270  148.3160 C   0  0  0  0  0  2  0  0  0  0  0  0
  161.2850  208.0410  147.7340 O   0  0  0  0  0  0  0  0  0  0  0  0
  162.1690  207.2470  146.9950 C   0  0  1  0  0  3  0  0  0  0  0  0
  163.2220  206.6810  147.9390 C   0  0  0  0  0  1  0  0  0  0  0  0
  161.3970  206.1070  146.3110 C   0  0  1  0  0  3  0  0  0  0  0  0
  159.6250  205.4590  145.0060 C   0  0  0  0  0  1  0  0  0  0  0  0
  160.3550  206.5630  145.4700 O   0  0  0  0  0  0  0  0  0  0  0  0
  162.3070  205.0720  145.6320 C   0  0  0  0  0  2  0  0  0  0  0  0
  161.8480  203.6550  145.9500 C   0  0  0  0  0  2  0  0  0  0  0  0
  161.7530  203.3660  147.4460 C   0  0  2  0  0  3  0  0  0  0  0  0
  161.0380  202.1910  147.6920 O   0  0  0  0  0  0  0  0  0  0  0  0
  160.7160  201.7360  146.4990 O   0  0  0  0  0  1  0  0  0  0  0  0
  161.1350  204.5340  148.1990 C   0  0  0  0  0  2  0  0  0  0  0  0
  159.6430  203.9530  152.1940 C   0  0  0  0  0  2  0  0  0  0  0  0
  162.5110  201.5530  151.9670 C   0  0  0  0  0  2  0  0  0  0  0  0
  160.7720  204.9970  152.0970 C   0  0  1  0  0  0  0  0  0  0  0  0
  161.0980  201.0620  151.7030 C   0  0  0  0  0  2  0  0  0  0  0  0
  160.2090  206.4530  150.2750 O   0  0  0  0  0  1  0  0  0  0  0  0
  162.1570  205.3500  151.4530 C   0  0  2  0  0  0  0  0  0  0  0  0
  162.7750  206.5890  150.8570 C   0  0  0  0  0  2  0  0  0  0  0  0
  161.0120  203.5180  152.5410 C   0  0  2  0  0  3  0  0  0  0  0  0
  162.4180  206.5450  152.1810 O   0  0  0  0  0  0  0  0  0  0  0  0
  160.8760  205.2670  150.6210 C   0  0  1  0  0  0  0  0  0  0  0  0
  161.4610  202.5140  151.4630 C   0  0  0  0  0  0  0  0  0  0  0  0
  161.6830  202.9120  150.0060 C   0  0  0  0  0  2  0  0  0  0  0  0
  160.7940  204.0920  149.6120 C   0  0  2  0  0  3  0  0  0  0  0  0
  161.8600  210.9420  149.7490 O   0  0  0  0  0  0  0  0  0  0  0  0
  162.2480  209.9880  150.6930 C   0  0  0  0  0  2  0  0  0  0  0  0
  162.5580  210.6550  152.0190 C   0  0  0  0  0  2  0  0  0  0  0  0
  159.9790  211.1280  154.8180 C   0  0  0  0  0  0  0  0  0  0  0  0
  161.1740  210.7480  154.1490 C   0  0  0  0  0  0  0  0  0  0  0  0
  161.2990  210.9860  152.7600 C   0  0  0  0  0  0  0  0  0  0  0  0
  158.9330  211.6920  154.0700 C   0  0  0  0  0  3  0  0  0  0  0  0
  160.2390  211.5490  152.0470 C   0  0  0  0  0  3  0  0  0  0  0  0
  159.0560  211.8940  152.6970 C   0  0  0  0  0  0  0  0  0  0  0  0
  157.9320  212.4940  151.9320 C   0  0  0  0  0  1  0  0  0  0  0  0
  159.7730  210.9780  156.2830 C   0  0  0  0  0  0  0  0  0  0  0  0
  159.6950  209.7240  156.8810 O   0  0  0  0  0  0  0  0  0  0  0  0
  159.6800  212.0010  157.0120 O   0  0  0  0  0  1  0  0  0  0  0  0
  162.2990  210.0680  154.8780 C   0  0  0  0  0  2  0  0  0  0  0  0
  163.2500  211.0570  155.3700 N   0  0  0  0  0  2  0  0  0  0  0  0
  163.5670  210.7230  156.7510 C   0  0  0  0  0  2  0  0  0  0  0  0
  164.7160  211.5780  157.2610 C   0  0  0  0  0  2  0  0  0  0  0  0
  165.4760  212.1800  156.0960 C   0  0  0  0  0  2  0  0  0  0  0  0
  166.8530  212.6110  156.5570 C   0  0  0  0  0  3  0  0  0  0  0  0
  167.3870  213.6600  155.6060 C   0  0  0  0  0  2  0  0  0  0  0  0
  167.8670  212.2280  155.4990 C   0  0  0  0  0  2  0  0  0  0  0  0
  160.9130  211.1070  147.5470 C   0  0  0  0  0  2  0  0  0  0  0  0
  161.8170  212.3300  147.5130 C   0  0  0  0  0  2  0  0  0  0  0  0
  157.5630  213.5140  147.0790 N   0  0  1  0  0  0  0  0  0  0  0  0
  162.2290  213.0710  144.5580 N   0  0  0  0  0  0  0  0  0  0  0  0
  159.3800  214.4480  144.1980 N   0  0  0  0  0  0  0  0  0  0  0  0
  161.0850  213.4850  146.8520 C   0  0  2  0  0  3  0  0  0  0  0  0
  159.8000  212.9780  146.1700 C   0  0  2  0  0  3  0  0  0  0  0  0
  157.9140  214.3980  146.0490 N   0  0  0  0  0  2  0  0  0  0  0  0
  160.3940  213.9840  143.3340 N   0  0  0  0  0  2  0  0  0  0  0  0
  159.1120  214.0370  145.4040 C   0  0  0  0  0  0  0  0  0  0  0  0
  162.2100  214.3870  145.7350 S   0  0  0  0  0  0  0  0  0  0  0  0
  158.7430  212.6200  147.2470 C   0  0  1  0  0  3  0  0  0  0  0  0
  161.3680  212.9640  143.5980 C   0  0  0  0  0  0  0  0  0  0  0  0
  158.4940  213.7160  148.1990 C   0  0  0  0  0  2  0  0  0  0  0  0
  161.5590  211.8850  142.5900 C   0  0  0  0  0  2  0  0  0  0  0  0
  162.7160  212.1390  141.8340 O   0  0  0  0  0  0  0  0  0  0  0  0
  161.8930  213.8750  140.5760 F   0  0  0  0  0  0  0  0  0  0  0  0
  163.4040  212.4640  139.7010 F   0  0  0  0  0  0  0  0  0  0  0  0
  161.3050  211.7480  140.0500 F   0  0  0  0  0  0  0  0  0  0  0  0
  162.3190  212.5550  140.5500 C   0  0  0  0  0  0  0  0  0  0  0  0
  1 49  1  6  0  0  0
  1 28  1  0  0  0  0
  2  1  1  0  0  0  0
  3  2  1  0  0  0  0
  4  3  1  0  0  0  0
  4  5  1  1  0  0  0
  6  9  1  6  0  0  0
  6  4  1  0  0  0  0
  7  8  1  0  0  0  0
  8  6  1  0  0  0  0
  9 10  1  0  0  0  0
 11 10  1  6  0  0  0
 11 12  1  0  0  0  0
 11 14  1  0  0  0  0
 13 12  1  0  0  0  0
 17 15  1  1  0  0  0
 17 22  1  0  0  0  0
 18 16  1  0  0  0  0
 20 21  1  6  0  0  0
 20 17  1  0  0  0  0
 20 23  1  0  0  0  0
 21 23  1  0  0  0  0
 22 15  1  6  0  0  0
 24 19  1  6  0  0  0
 24 20  1  0  0  0  0
 24 17  1  0  0  0  0
 25 18  1  0  0  0  0
 25 16  1  0  0  0  0
 25 22  1  0  0  0  0
 26 25  1  0  0  0  0
 27 14  1  6  0  0  0
 27 26  1  0  0  0  0
 27 24  1  0  0  0  0
 28 29  1  0  0  0  0
 29 30  1  0  0  0  0
 30 33  1  0  0  0  0
 31 38  1  0  0  0  0
 32 31  1  0  0  0  0
 32 41  1  0  0  0  0
 33 32  2  0  0  0  0
 34 31  2  0  0  0  0
 35 36  2  0  0  0  0
 35 33  1  0  0  0  0
 36 34  1  0  0  0  0
 37 36  1  0  0  0  0
 38 39  2  0  0  0  0
 38 40  1  0  0  0  0
 41 42  1  0  0  0  0
 42 43  1  0  0  0  0
 43 44  1  0  0  0  0
 45 46  1  0  0  0  0
 45 44  1  0  0  0  0
 47 46  1  0  0  0  0
 48 47  1  0  0  0  0
 48 46  1  0  0  0  0
 50 49  1  0  0  0  0
 51 60  1  0  0  0  0
 51 62  1  1  0  0  0
 52 59  1  0  0  0  0
 53 58  2  0  0  0  0
 54 50  1  6  0  0  0
 55 58  1  6  0  0  0
 55 54  1  0  0  0  0
 55 60  1  0  0  0  0
 56 51  1  0  0  0  0
 57 61  1  0  0  0  0
 57 53  1  0  0  0  0
 58 56  1  0  0  0  0
 59 54  1  0  0  0  0
 60 62  1  1  0  0  0
 61 52  2  0  0  0  0
 63 61  1  0  0  0  0
 64 63  1  0  0  0  0
 66 68  1  0  0  0  0
 67 68  1  0  0  0  0
 68 65  1  0  0  0  0
 68 64  1  0  0  0  0
M  END
>  <MODEL>
5

>  <REMARK>
 VINA RESULT:      -0.7      3.622      8.474
  Name = 
  28 active torsions:
  status: ('A' for Active; 'I' for Inactive)
    1  A    between atoms: C_5  and  C_13
    2  A    between atoms: C_7  and  C_9
    3  A    between atoms: C_7  and  C_12
    4  A    between atoms: C_8  and  C_18
    5  A    between atoms: C_8  and  C_48
    6  A    between atoms: C_8  and  O_62
    7  A    between atoms: C_11  and  C_25
    8  A    between atoms: C_12  and  C_15
    9  A    between atoms: C_14  and  C_64
   10  A    between atoms: C_15  and  C_59
   11  A    between atoms: C_15  and  O_60
   12  A    between atoms: C_18  and  O_26
   13  A    between atoms: C_21  and  C_33
   14  A    between atoms: C_22  and  C_23
   15  A    between atoms: C_22  and  O_30
   16  A    between atoms: C_22  and  C_37
   17  A    between atoms: C_23  and  C_66
   18  A    between atoms: C_25  and  C_36
   19  A    between atoms: O_26  and  C_59
   20  A    between atoms: C_33  and  C_61
   21  A    between atoms: C_36  and  C_50
   22  A    between atoms: C_37  and  C_48
   23  A    between atoms: N_43  and  C_50
   24  A    between atoms: N_43  and  C_64
   25  A    between atoms: C_47  and  O_58
   26  A    between atoms: C_47  and  C_63
   27  A    between atoms: O_58  and  C_68
   28  A    between atoms: O_60  and  C_61
                            x       y       z     vdW  Elec       q    Type
                         _______ _______ _______ _____ _____    ______ ____

>  <TORSDO>
F 28

$$$$
=
 OpenBabel11052410043D

 68 77  0  0  1  0  0  0  0  0999 V2000
  162.5970  207.4420  147.9450 C   0  0  1  0  0  3  0  0  0  0  0  0
  161.7040  207.2120  146.7310 C   0  0  0  0  0  2  0  0  0  0  0  0
  162.2830  206.2600  145.8890 O   0  0  0  0  0  0  0  0  0  0  0  0
  161.2040  205.5550  145.3440 C   0  0  1  0  0  3  0  0  0  0  0  0
  159.9870  206.4700  145.3190 C   0  0  0  0  0  1  0  0  0  0  0  0
  161.5520  205.0890  143.9210 C   0  0  1  0  0  3  0  0  0  0  0  0
  159.9030  203.5160  144.1850 C   0  0  0  0  0  1  0  0  0  0  0  0
  160.4900  204.4110  143.2780 O   0  0  0  0  0  0  0  0  0  0  0  0
  162.1760  206.1900  143.0510 C   0  0  0  0  0  2  0  0  0  0  0  0
  161.2150  206.6210  141.9510 C   0  0  0  0  0  2  0  0  0  0  0  0
  161.9170  207.0680  140.6700 C   0  0  2  0  0  3  0  0  0  0  0  0
  163.0100  206.2480  140.3770 O   0  0  0  0  0  0  0  0  0  0  0  0
  162.7620  205.7700  139.1760 O   0  0  0  0  0  1  0  0  0  0  0  0
  162.3500  208.5240  140.7530 C   0  0  0  0  0  2  0  0  0  0  0  0
  158.8490  210.4520  139.1590 C   0  0  0  0  0  2  0  0  0  0  0  0
  160.3430  213.0540  141.4020 C   0  0  0  0  0  2  0  0  0  0  0  0
  160.1280  210.7120  138.3420 C   0  0  1  0  0  0  0  0  0  0  0  0
  159.2300  212.1610  141.9250 C   0  0  0  0  0  2  0  0  0  0  0  0
  161.1820  208.5810  138.0180 O   0  0  0  0  0  1  0  0  0  0  0  0
  161.6610  211.0350  138.4040 C   0  0  2  0  0  0  0  0  0  0  0  0
  162.8850  210.5600  137.6650 C   0  0  0  0  0  2  0  0  0  0  0  0
  159.5610  211.7270  139.3860 C   0  0  2  0  0  3  0  0  0  0  0  0
  161.8820  211.2300  137.0120 O   0  0  0  0  0  0  0  0  0  0  0  0
  161.0980  209.6920  138.8720 C   0  0  1  0  0  0  0  0  0  0  0  0
  160.1410  211.6790  140.8130 C   0  0  0  0  0  0  0  0  0  0  0  0
  161.2350  210.6980  141.2270 C   0  0  0  0  0  2  0  0  0  0  0  0
  161.1730  209.4150  140.3960 C   0  0  2  0  0  3  0  0  0  0  0  0
  162.6790  208.8070  148.2400 O   0  0  0  0  0  0  0  0  0  0  0  0
  161.9290  208.9660  149.4070 C   0  0  0  0  0  2  0  0  0  0  0  0
  162.1980  210.3250  150.0250 C   0  0  0  0  0  2  0  0  0  0  0  0
  159.6020  211.6550  152.5150 C   0  0  0  0  0  0  0  0  0  0  0  0
  160.3930  211.5390  151.3400 C   0  0  0  0  0  0  0  0  0  0  0  0
  161.3760  210.5240  151.2610 C   0  0  0  0  0  0  0  0  0  0  0  0
  159.8480  210.7820  153.5870 C   0  0  0  0  0  3  0  0  0  0  0  0
  161.5950  209.6730  152.3460 C   0  0  0  0  0  3  0  0  0  0  0  0
  160.8400  209.8060  153.5090 C   0  0  0  0  0  0  0  0  0  0  0  0
  161.0770  208.8980  154.6610 C   0  0  0  0  0  1  0  0  0  0  0  0
  158.5040  212.6450  152.6730 C   0  0  0  0  0  0  0  0  0  0  0  0
  158.1340  213.1250  153.9250 O   0  0  0  0  0  1  0  0  0  0  0  0
  157.8970  213.0780  151.6570 O   0  0  0  0  0  0  0  0  0  0  0  0
  160.2320  212.4910  150.1880 C   0  0  0  0  0  2  0  0  0  0  0  0
  161.1250  213.6310  150.3510 N   0  0  0  0  0  2  0  0  0  0  0  0
  161.4000  214.1750  149.0290 C   0  0  0  0  0  2  0  0  0  0  0  0
  161.0850  213.1520  147.9500 C   0  0  0  0  0  2  0  0  0  0  0  0
  162.2410  213.0490  146.9750 C   0  0  0  0  0  2  0  0  0  0  0  0
  161.9060  213.8090  145.7080 C   0  0  0  0  0  3  0  0  0  0  0  0
  161.6870  212.8220  144.5820 C   0  0  0  0  0  2  0  0  0  0  0  0
  163.0000  213.5700  144.6890 C   0  0  0  0  0  2  0  0  0  0  0  0
  162.0760  206.6670  149.1510 C   0  0  0  0  0  2  0  0  0  0  0  0
  162.2860  205.1680  148.9890 C   0  0  0  0  0  2  0  0  0  0  0  0
  161.0720  203.2270  152.7900 N   0  0  1  0  0  0  0  0  0  0  0  0
  161.1240  202.7500  147.4900 N   0  0  0  0  0  0  0  0  0  0  0  0
  159.7230  201.4630  150.0440 N   0  0  0  0  0  0  0  0  0  0  0  0
  161.0510  204.4270  149.4700 C   0  0  2  0  0  3  0  0  0  0  0  0
  161.4610  203.2280  150.3470 C   0  0  2  0  0  3  0  0  0  0  0  0
  160.0470  202.5480  152.1160 N   0  0  0  0  0  2  0  0  0  0  0  0
  160.0530  201.0240  148.7440 N   0  0  0  0  0  2  0  0  0  0  0  0
  160.3060  202.3960  150.7410 C   0  0  0  0  0  0  0  0  0  0  0  0
  159.9920  203.9810  148.0540 S   0  0  0  0  0  0  0  0  0  0  0  0
  161.9750  203.7350  151.7200 C   0  0  1  0  0  3  0  0  0  0  0  0
  161.0960  201.5200  147.8930 C   0  0  0  0  0  0  0  0  0  0  0  0
  161.0290  204.6420  152.3920 C   0  0  0  0  0  2  0  0  0  0  0  0
  162.0170  200.5420  147.2530 C   0  0  0  0  0  2  0  0  0  0  0  0
  161.3760  199.2980  147.1210 O   0  0  0  0  0  0  0  0  0  0  0  0
  160.4720  197.9000  145.5390 F   0  0  0  0  0  0  0  0  0  0  0  0
  160.8310  200.0640  145.0610 F   0  0  0  0  0  0  0  0  0  0  0  0
  162.5850  198.6770  145.2560 F   0  0  0  0  0  0  0  0  0  0  0  0
  161.3220  198.9750  145.7530 C   0  0  0  0  0  0  0  0  0  0  0  0
  1  2  1  6  0  0  0
  1 28  1  0  0  0  0
  1 49  1  0  0  0  0
  3  2  1  0  0  0  0
  4  5  1  6  0  0  0
  4  3  1  0  0  0  0
  6  9  1  6  0  0  0
  6  4  1  0  0  0  0
  8  6  1  0  0  0  0
  8  7  1  0  0  0  0
 10  9  1  0  0  0  0
 11 14  1  1  0  0  0
 11 10  1  0  0  0  0
 12 11  1  0  0  0  0
 13 12  1  0  0  0  0
 16 18  1  0  0  0  0
 17 20  1  0  0  0  0
 17 24  1  0  0  0  0
 17 15  1  6  0  0  0
 17 22  1  0  0  0  0
 20 21  1  1  0  0  0
 20 24  1  0  0  0  0
 22 15  1  1  0  0  0
 22 25  1  0  0  0  0
 23 21  1  0  0  0  0
 23 20  1  0  0  0  0
 24 19  1  6  0  0  0
 24 27  1  0  0  0  0
 25 26  1  0  0  0  0
 25 16  1  0  0  0  0
 25 18  1  0  0  0  0
 27 14  1  6  0  0  0
 27 26  1  0  0  0  0
 28 29  1  0  0  0  0
 29 30  1  0  0  0  0
 30 33  1  0  0  0  0
 31 38  1  0  0  0  0
 31 34  1  0  0  0  0
 32 31  2  0  0  0  0
 33 32  1  0  0  0  0
 33 35  2  0  0  0  0
 35 36  1  0  0  0  0
 36 34  2  0  0  0  0
 36 37  1  0  0  0  0
 38 39  1  0  0  0  0
 40 38  2  0  0  0  0
 41 42  1  0  0  0  0
 41 32  1  0  0  0  0
 43 42  1  0  0  0  0
 44 43  1  0  0  0  0
 45 44  1  0  0  0  0
 46 45  1  0  0  0  0
 47 48  1  0  0  0  0
 47 46  1  0  0  0  0
 48 46  1  0  0  0  0
 50 49  1  0  0  0  0
 51 62  1  6  0  0  0
 52 61  2  0  0  0  0
 52 59  1  0  0  0  0
 53 58  2  0  0  0  0
 54 50  1  6  0  0  0
 54 55  1  0  0  0  0
 55 58  1  1  0  0  0
 55 60  1  0  0  0  0
 56 51  1  0  0  0  0
 57 53  1  0  0  0  0
 58 56  1  0  0  0  0
 59 54  1  0  0  0  0
 60 62  1  6  0  0  0
 60 51  1  0  0  0  0
 61 57  1  0  0  0  0
 63 61  1  0  0  0  0
 64 63  1  0  0  0  0
 65 68  1  0  0  0  0
 66 68  1  0  0  0  0
 67 68  1  0  0  0  0
 68 64  1  0  0  0  0
M  END
>  <MODEL>
6

>  <REMARK>
 VINA RESULT:      -0.2      3.941      7.954
  Name = 
  28 active torsions:
  status: ('A' for Active; 'I' for Inactive)
    1  A    between atoms: C_5  and  C_13
    2  A    between atoms: C_7  and  C_9
    3  A    between atoms: C_7  and  C_12
    4  A    between atoms: C_8  and  C_18
    5  A    between atoms: C_8  and  C_48
    6  A    between atoms: C_8  and  O_62
    7  A    between atoms: C_11  and  C_25
    8  A    between atoms: C_12  and  C_15
    9  A    between atoms: C_14  and  C_64
   10  A    between atoms: C_15  and  C_59
   11  A    between atoms: C_15  and  O_60
   12  A    between atoms: C_18  and  O_26
   13  A    between atoms: C_21  and  C_33
   14  A    between atoms: C_22  and  C_23
   15  A    between atoms: C_22  and  O_30
   16  A    between atoms: C_22  and  C_37
   17  A    between atoms: C_23  and  C_66
   18  A    between atoms: C_25  and  C_36
   19  A    between atoms: O_26  and  C_59
   20  A    between atoms: C_33  and  C_61
   21  A    between atoms: C_36  and  C_50
   22  A    between atoms: C_37  and  C_48
   23  A    between atoms: N_43  and  C_50
   24  A    between atoms: N_43  and  C_64
   25  A    between atoms: C_47  and  O_58
   26  A    between atoms: C_47  and  C_63
   27  A    between atoms: O_58  and  C_68
   28  A    between atoms: O_60  and  C_61
                            x       y       z     vdW  Elec       q    Type
                         _______ _______ _______ _____ _____    ______ ____

>  <TORSDO>
F 28

$$$$
