=
 OpenBabel11052410573D

 37 38  0  0  1  0  0  0  0  0999 V2000
  161.7330  208.0720  149.2430 O   0  0  0  0  0  0  0  0  0  0  0  0
  161.3490  206.8020  149.4840 O   0  0  0  0  0  0  0  0  0  0  0  0
  161.2400  208.2270  151.2870 C   0  0  0  0  0  0  0  0  0  0  0  0
  161.0350  206.8150  150.8650 C   0  0  2  0  0  3  0  0  0  0  0  0
  161.6590  208.9280  150.3100 N   0  0  0  0  0  0  0  0  0  0  0  0
  161.9570  205.8890  151.6030 C   0  0  0  0  0  0  0  0  0  0  0  0
  161.6000  204.5240  151.8250 N   0  0  0  0  0  2  0  0  0  0  0  0
  163.0630  206.3130  152.0310 O   0  0  0  0  0  0  0  0  0  0  0  0
  160.3720  203.9390  151.3070 C   0  0  0  0  0  2  0  0  0  0  0  0
  160.9440  201.6880  150.7700 O   0  0  0  0  0  0  0  0  0  0  0  0
  160.7570  203.1470  148.9440 N   0  0  0  0  0  2  0  0  0  0  0  0
  161.0750  202.2010  147.9170 C   0  0  0  0  0  0  0  0  0  0  0  0
  161.2620  200.9840  148.1940 O   0  0  0  0  0  0  0  0  0  0  0  0
  160.6920  202.8490  150.3430 C   0  0  0  0  0  0  0  0  0  0  0  0
  161.1920  202.6600  146.5040 C   0  0  0  0  0  2  0  0  0  0  0  0
  161.7270  204.0820  146.4480 C   0  0  0  0  0  2  0  0  0  0  0  0
  161.2450  205.4370  144.3890 C   0  0  0  0  0  0  0  0  0  0  0  0
  161.5260  205.7380  143.2000 O   0  0  0  0  0  0  0  0  0  0  0  0
  160.1790  206.0660  145.0230 O   0  0  0  0  0  1  0  0  0  0  0  0
  162.0170  204.4520  145.0720 N   0  0  0  0  0  2  0  0  0  0  0  0
  161.0200  208.7840  152.6550 C   0  0  0  0  0  2  0  0  0  0  0  0
  160.9100  210.8400  154.0300 C   0  0  0  0  0  2  0  0  0  0  0  0
  161.1450  210.2950  152.6360 C   0  0  2  0  0  3  0  0  0  0  0  0
  159.8020  210.8950  153.0000 C   0  0  2  0  0  3  0  0  0  0  0  0
  159.7140  212.3040  152.4460 C   0  0  0  0  0  2  0  0  0  0  0  0
  158.3350  212.5320  151.8580 C   0  0  0  0  0  2  0  0  0  0  0  0
  158.3360  213.7580  150.9580 C   0  0  0  0  0  2  0  0  0  0  0  0
  160.0290  214.3810  150.7130 S   0  0  0  0  0  0  0  0  0  0  0  0
  160.0390  213.9650  148.9400 C   0  0  1  0  0  3  0  0  0  0  0  0
  161.0280  212.8390  148.6730 C   0  0  0  0  0  2  0  0  0  0  0  0
  163.1930  212.4670  147.8990 C   0  0  0  0  0  1  0  0  0  0  0  0
  161.9940  213.2500  147.6670 N   0  0  0  0  0  2  0  0  0  0  0  0
  158.6270  213.6520  148.4300 C   0  0  0  0  0  2  0  0  0  0  0  0
  158.4160  214.0170  146.9650 C   0  0  0  0  0  2  0  0  0  0  0  0
  158.1980  212.7630  146.1330 C   0  0  0  0  0  2  0  0  0  0  0  0
  159.4310  212.4600  145.2960 C   0  0  0  0  0  2  0  0  0  0  0  0
  159.0770  212.3300  143.9500 O   0  0  0  0  0  1  0  0  0  0  0  0
  1  2  1  0  0  0  0
  1  5  1  0  0  0  0
  2  4  1  0  0  0  0
  3 21  1  0  0  0  0
  4  3  1  0  0  0  0
  4  6  1  1  0  0  0
  5  3  2  0  0  0  0
  6  7  1  0  0  0  0
  6  8  2  0  0  0  0
  9  7  1  0  0  0  0
 11 14  1  0  0  0  0
 12 13  2  0  0  0  0
 12 11  1  0  0  0  0
 14 10  2  0  0  0  0
 14  9  1  0  0  0  0
 15 12  1  0  0  0  0
 16 15  1  0  0  0  0
 17 19  1  0  0  0  0
 17 20  1  0  0  0  0
 18 17  2  0  0  0  0
 20 16  1  0  0  0  0
 23 21  1  1  0  0  0
 23 24  1  0  0  0  0
 23 22  1  0  0  0  0
 24 25  1  6  0  0  0
 24 22  1  0  0  0  0
 26 25  1  0  0  0  0
 27 26  1  0  0  0  0
 28 27  1  0  0  0  0
 29 33  1  1  0  0  0
 29 28  1  0  0  0  0
 30 29  1  0  0  0  0
 32 31  1  0  0  0  0
 32 30  1  0  0  0  0
 34 33  1  0  0  0  0
 35 34  1  0  0  0  0
 36 35  1  0  0  0  0
 37 36  1  0  0  0  0
M  END
>  <MODEL>
1

>  <REMARK>
 VINA RESULT:      -6.2      0.000      0.000
  Name = 
  19 active torsions:
  status: ('A' for Active; 'I' for Inactive)
    1  A    between atoms: C_2  and  C_29
    2  A    between atoms: C_2  and  C_37
    3  A    between atoms: C_3  and  C_6
    4  A    between atoms: C_3  and  C_29
    5  A    between atoms: C_4  and  C_16
    6  A    between atoms: C_4  and  S_21
    7  A    between atoms: C_7  and  C_27
    8  A    between atoms: C_7  and  C_32
    9  A    between atoms: C_10  and  N_22
   10  A    between atoms: C_10  and  C_35
   11  A    between atoms: C_15  and  C_25
   12  A    between atoms: C_15  and  C_26
   13  A    between atoms: C_16  and  C_20
   14  A    between atoms: C_17  and  C_34
   15  A    between atoms: C_18  and  N_24
   16  A    between atoms: C_18  and  C_37
   17  A    between atoms: C_20  and  C_33
   18  A    between atoms: S_21  and  C_37
   19  A    between atoms: N_30  and  C_32
                            x       y       z     vdW  Elec       q    Type
                         _______ _______ _______ _____ _____    ______ ____

>  <TORSDO>
F 19

$$$$
=
 OpenBabel11052410573D

 37 38  0  0  1  0  0  0  0  0999 V2000
  161.0450  208.7960  151.5450 O   0  0  0  0  0  0  0  0  0  0  0  0
  160.8900  207.6610  150.8330 O   0  0  0  0  0  0  0  0  0  0  0  0
  160.9190  207.3970  153.1180 C   0  0  0  0  0  0  0  0  0  0  0  0
  160.8360  206.6570  151.8300 C   0  0  2  0  0  3  0  0  0  0  0  0
  161.0500  208.6460  152.9060 N   0  0  0  0  0  0  0  0  0  0  0  0
  161.9960  205.7190  151.6680 C   0  0  0  0  0  0  0  0  0  0  0  0
  161.7890  204.3540  151.3030 N   0  0  0  0  0  2  0  0  0  0  0  0
  163.1710  206.1350  151.8510 O   0  0  0  0  0  0  0  0  0  0  0  0
  160.4710  203.8100  151.0100 C   0  0  0  0  0  2  0  0  0  0  0  0
  160.0890  201.8070  149.7770 O   0  0  0  0  0  0  0  0  0  0  0  0
  161.1040  203.5500  148.5820 N   0  0  0  0  0  2  0  0  0  0  0  0
  161.2340  202.8660  147.3300 C   0  0  0  0  0  0  0  0  0  0  0  0
  160.7650  201.7060  147.1750 O   0  0  0  0  0  0  0  0  0  0  0  0
  160.5200  202.9930  149.7650 C   0  0  0  0  0  0  0  0  0  0  0  0
  161.9390  203.5320  146.1980 C   0  0  0  0  0  2  0  0  0  0  0  0
  161.3120  204.8840  145.9010 C   0  0  0  0  0  2  0  0  0  0  0  0
  161.7160  206.7740  147.5060 C   0  0  0  0  0  0  0  0  0  0  0  0
  162.4690  207.6850  147.9400 O   0  0  0  0  0  0  0  0  0  0  0  0
  160.4640  206.5860  148.0800 O   0  0  0  0  0  1  0  0  0  0  0  0
  162.1510  205.9500  146.4270 N   0  0  0  0  0  2  0  0  0  0  0  0
  160.8790  206.8020  154.4870 C   0  0  0  0  0  2  0  0  0  0  0  0
  160.6210  207.3450  156.8890 C   0  0  0  0  0  2  0  0  0  0  0  0
  161.0480  207.8820  155.5380 C   0  0  2  0  0  3  0  0  0  0  0  0
  159.6840  208.2310  156.0960 C   0  0  2  0  0  3  0  0  0  0  0  0
  159.7210  209.6320  156.6750 C   0  0  0  0  0  2  0  0  0  0  0  0
  159.1910  210.6180  155.6530 C   0  0  0  0  0  2  0  0  0  0  0  0
  160.1500  211.7860  155.4920 C   0  0  0  0  0  2  0  0  0  0  0  0
  159.3040  213.3670  155.8070 S   0  0  0  0  0  0  0  0  0  0  0  0
  158.2420  213.2130  154.3340 C   0  0  1  0  0  3  0  0  0  0  0  0
  157.1100  214.2290  154.3990 C   0  0  0  0  0  2  0  0  0  0  0  0
  155.9640  212.2510  154.8490 C   0  0  0  0  0  1  0  0  0  0  0  0
  155.8280  213.5600  154.2400 N   0  0  0  0  0  2  0  0  0  0  0  0
  159.0600  213.3140  153.0410 C   0  0  0  0  0  2  0  0  0  0  0  0
  158.2150  213.1990  151.7780 C   0  0  0  0  0  2  0  0  0  0  0  0
  159.0770  213.4030  150.5420 C   0  0  0  0  0  2  0  0  0  0  0  0
  158.2140  213.7810  149.3490 C   0  0  0  0  0  2  0  0  0  0  0  0
  157.0960  212.9450  149.2820 O   0  0  0  0  0  1  0  0  0  0  0  0
  1  5  1  0  0  0  0
  2  1  1  0  0  0  0
  2  4  1  0  0  0  0
  3 21  1  0  0  0  0
  4  6  1  6  0  0  0
  4  3  1  0  0  0  0
  5  3  2  0  0  0  0
  6  8  2  0  0  0  0
  7  6  1  0  0  0  0
  9  7  1  0  0  0  0
 11 14  1  0  0  0  0
 12 11  1  0  0  0  0
 13 12  2  0  0  0  0
 14 10  2  0  0  0  0
 14  9  1  0  0  0  0
 15 12  1  0  0  0  0
 16 15  1  0  0  0  0
 16 20  1  0  0  0  0
 17 18  2  0  0  0  0
 17 19  1  0  0  0  0
 20 17  1  0  0  0  0
 23 21  1  6  0  0  0
 23 24  1  0  0  0  0
 23 22  1  0  0  0  0
 24 25  1  1  0  0  0
 24 22  1  0  0  0  0
 26 25  1  0  0  0  0
 27 26  1  0  0  0  0
 27 28  1  0  0  0  0
 29 33  1  6  0  0  0
 29 30  1  0  0  0  0
 29 28  1  0  0  0  0
 32 30  1  0  0  0  0
 32 31  1  0  0  0  0
 34 33  1  0  0  0  0
 35 34  1  0  0  0  0
 36 35  1  0  0  0  0
 37 36  1  0  0  0  0
M  END
>  <MODEL>
2

>  <REMARK>
 VINA RESULT:      -5.9      2.750      4.105
  Name = 
  19 active torsions:
  status: ('A' for Active; 'I' for Inactive)
    1  A    between atoms: C_2  and  C_29
    2  A    between atoms: C_2  and  C_37
    3  A    between atoms: C_3  and  C_6
    4  A    between atoms: C_3  and  C_29
    5  A    between atoms: C_4  and  C_16
    6  A    between atoms: C_4  and  S_21
    7  A    between atoms: C_7  and  C_27
    8  A    between atoms: C_7  and  C_32
    9  A    between atoms: C_10  and  N_22
   10  A    between atoms: C_10  and  C_35
   11  A    between atoms: C_15  and  C_25
   12  A    between atoms: C_15  and  C_26
   13  A    between atoms: C_16  and  C_20
   14  A    between atoms: C_17  and  C_34
   15  A    between atoms: C_18  and  N_24
   16  A    between atoms: C_18  and  C_37
   17  A    between atoms: C_20  and  C_33
   18  A    between atoms: S_21  and  C_37
   19  A    between atoms: N_30  and  C_32
                            x       y       z     vdW  Elec       q    Type
                         _______ _______ _______ _____ _____    ______ ____

>  <TORSDO>
F 19

$$$$
=
 OpenBabel11052410573D

 37 38  0  0  1  0  0  0  0  0999 V2000
  160.4010  201.2980  148.8640 O   0  0  0  0  0  0  0  0  0  0  0  0
  159.9620  201.8620  150.0080 O   0  0  0  0  0  0  0  0  0  0  0  0
  161.2530  203.2170  148.6690 C   0  0  0  0  0  0  0  0  0  0  0  0
  160.5330  203.1580  149.9700 C   0  0  2  0  0  3  0  0  0  0  0  0
  161.1590  202.1040  148.0570 N   0  0  0  0  0  0  0  0  0  0  0  0
  161.4790  203.3300  151.1210 C   0  0  0  0  0  0  0  0  0  0  0  0
  161.5560  204.5690  151.8280 N   0  0  0  0  0  2  0  0  0  0  0  0
  162.2140  202.3720  151.4790 O   0  0  0  0  0  0  0  0  0  0  0  0
  160.6960  205.7030  151.5210 C   0  0  0  0  0  2  0  0  0  0  0  0
  162.7130  206.9720  151.5190 O   0  0  0  0  0  0  0  0  0  0  0  0
  160.7600  208.1790  151.9990 N   0  0  0  0  0  2  0  0  0  0  0  0
  161.3740  209.4590  152.1830 C   0  0  0  0  0  0  0  0  0  0  0  0
  162.6100  209.6190  151.9870 O   0  0  0  0  0  0  0  0  0  0  0  0
  161.4590  206.9750  151.6590 C   0  0  0  0  0  0  0  0  0  0  0  0
  160.5430  210.6170  152.6190 C   0  0  0  0  0  2  0  0  0  0  0  0
  160.4140  210.6410  154.1330 C   0  0  0  0  0  2  0  0  0  0  0  0
  160.0660  212.4820  155.8060 C   0  0  0  0  0  0  0  0  0  0  0  0
  159.4790  213.5440  156.1420 O   0  0  0  0  0  0  0  0  0  0  0  0
  161.0090  211.9190  156.6580 O   0  0  0  0  0  1  0  0  0  0  0  0
  159.7540  211.8650  154.5590 N   0  0  0  0  0  2  0  0  0  0  0  0
  162.0080  204.3850  148.1260 C   0  0  0  0  0  2  0  0  0  0  0  0
  161.2330  206.2660  146.7150 C   0  0  0  0  0  2  0  0  0  0  0  0
  161.1200  205.6130  148.0770 C   0  0  2  0  0  3  0  0  0  0  0  0
  161.9960  206.8350  147.8930 C   0  0  2  0  0  3  0  0  0  0  0  0
  161.2650  208.0600  148.4090 C   0  0  0  0  0  2  0  0  0  0  0  0
  162.2560  209.1860  148.6280 C   0  0  0  0  0  2  0  0  0  0  0  0
  161.5900  210.5330  148.4000 C   0  0  0  0  0  2  0  0  0  0  0  0
  162.8340  211.8550  148.2610 S   0  0  0  0  0  0  0  0  0  0  0  0
  161.6340  213.0620  147.6110 C   0  0  1  0  0  3  0  0  0  0  0  0
  160.4170  212.3380  147.0530 C   0  0  0  0  0  2  0  0  0  0  0  0
  159.0560  212.5590  145.1740 C   0  0  0  0  0  1  0  0  0  0  0  0
  159.5680  213.2710  146.3300 N   0  0  0  0  0  2  0  0  0  0  0  0
  161.2710  214.1140  148.6650 C   0  0  0  0  0  2  0  0  0  0  0  0
  160.3690  213.5770  149.7720 C   0  0  0  0  0  2  0  0  0  0  0  0
  159.0750  214.3730  149.8340 C   0  0  0  0  0  2  0  0  0  0  0  0
  158.4680  214.2940  151.2260 C   0  0  0  0  0  2  0  0  0  0  0  0
  158.2170  212.9600  151.5630 O   0  0  0  0  0  1  0  0  0  0  0  0
  1  2  1  0  0  0  0
  3  4  1  0  0  0  0
  4  2  1  0  0  0  0
  4  6  1  1  0  0  0
  5  3  2  0  0  0  0
  5  1  1  0  0  0  0
  6  8  2  0  0  0  0
  6  7  1  0  0  0  0
  9 14  1  0  0  0  0
  9  7  1  0  0  0  0
 10 14  2  0  0  0  0
 11 12  1  0  0  0  0
 12 15  1  0  0  0  0
 13 12  2  0  0  0  0
 14 11  1  0  0  0  0
 15 16  1  0  0  0  0
 16 20  1  0  0  0  0
 17 18  2  0  0  0  0
 17 19  1  0  0  0  0
 20 17  1  0  0  0  0
 21  3  1  0  0  0  0
 22 24  1  0  0  0  0
 22 23  1  0  0  0  0
 23 21  1  6  0  0  0
 24 23  1  0  0  0  0
 24 25  1  1  0  0  0
 25 26  1  0  0  0  0
 27 26  1  0  0  0  0
 28 27  1  0  0  0  0
 29 30  1  1  0  0  0
 29 28  1  0  0  0  0
 29 33  1  0  0  0  0
 31 32  1  0  0  0  0
 32 30  1  0  0  0  0
 33 34  1  0  0  0  0
 34 35  1  0  0  0  0
 35 36  1  0  0  0  0
 36 37  1  0  0  0  0
M  END
>  <MODEL>
3

>  <REMARK>
 VINA RESULT:      -5.5      2.993      7.144
  Name = 
  19 active torsions:
  status: ('A' for Active; 'I' for Inactive)
    1  A    between atoms: C_2  and  C_29
    2  A    between atoms: C_2  and  C_37
    3  A    between atoms: C_3  and  C_6
    4  A    between atoms: C_3  and  C_29
    5  A    between atoms: C_4  and  C_16
    6  A    between atoms: C_4  and  S_21
    7  A    between atoms: C_7  and  C_27
    8  A    between atoms: C_7  and  C_32
    9  A    between atoms: C_10  and  N_22
   10  A    between atoms: C_10  and  C_35
   11  A    between atoms: C_15  and  C_25
   12  A    between atoms: C_15  and  C_26
   13  A    between atoms: C_16  and  C_20
   14  A    between atoms: C_17  and  C_34
   15  A    between atoms: C_18  and  N_24
   16  A    between atoms: C_18  and  C_37
   17  A    between atoms: C_20  and  C_33
   18  A    between atoms: S_21  and  C_37
   19  A    between atoms: N_30  and  C_32
                            x       y       z     vdW  Elec       q    Type
                         _______ _______ _______ _____ _____    ______ ____

>  <TORSDO>
F 19

$$$$
=
 OpenBabel11052410573D

 37 38  0  0  1  0  0  0  0  0999 V2000
  161.0440  206.6350  147.8060 O   0  0  0  0  0  0  0  0  0  0  0  0
  160.6240  206.1950  149.0100 O   0  0  0  0  0  0  0  0  0  0  0  0
  161.5480  208.3020  148.9940 C   0  0  0  0  0  0  0  0  0  0  0  0
  160.9680  207.2570  149.8810 C   0  0  2  0  0  3  0  0  0  0  0  0
  161.5840  207.8930  147.7890 N   0  0  0  0  0  0  0  0  0  0  0  0
  161.9730  206.7820  150.8890 C   0  0  0  0  0  0  0  0  0  0  0  0
  161.6900  205.6660  151.7350 N   0  0  0  0  0  2  0  0  0  0  0  0
  163.0840  207.3660  150.9910 O   0  0  0  0  0  0  0  0  0  0  0  0
  160.4590  204.8970  151.6350 C   0  0  0  0  0  2  0  0  0  0  0  0
  161.0940  202.6070  151.8270 O   0  0  0  0  0  0  0  0  0  0  0  0
  160.6620  203.3580  149.6470 N   0  0  0  0  0  2  0  0  0  0  0  0
  160.9300  202.1250  148.9700 C   0  0  0  0  0  0  0  0  0  0  0  0
  161.2050  201.0770  149.6170 O   0  0  0  0  0  0  0  0  0  0  0  0
  160.7430  203.5500  151.0640 C   0  0  0  0  0  0  0  0  0  0  0  0
  160.8910  202.0800  147.4810 C   0  0  0  0  0  2  0  0  0  0  0  0
  161.7270  203.2040  146.8920 C   0  0  0  0  0  2  0  0  0  0  0  0
  161.6870  204.7520  144.9140 C   0  0  0  0  0  0  0  0  0  0  0  0
  161.1910  205.0790  143.8040 O   0  0  0  0  0  0  0  0  0  0  0  0
  162.7240  205.5050  145.4520 O   0  0  0  0  0  1  0  0  0  0  0  0
  161.1770  203.6170  145.6100 N   0  0  0  0  0  2  0  0  0  0  0  0
  162.0500  209.6440  149.4150 C   0  0  0  0  0  2  0  0  0  0  0  0
  162.8310  211.6910  148.2640 C   0  0  0  0  0  2  0  0  0  0  0  0
  161.7010  210.6890  148.3740 C   0  0  2  0  0  3  0  0  0  0  0  0
  161.5900  212.0350  149.0600 C   0  0  2  0  0  3  0  0  0  0  0  0
  160.7110  212.9510  148.2310 C   0  0  0  0  0  2  0  0  0  0  0  0
  160.6890  214.3330  148.8550 C   0  0  0  0  0  2  0  0  0  0  0  0
  160.4510  214.2380  150.3530 C   0  0  0  0  0  2  0  0  0  0  0  0
  158.7380  213.7300  150.7060 S   0  0  0  0  0  0  0  0  0  0  0  0
  159.1260  213.2260  152.4120 C   0  0  1  0  0  3  0  0  0  0  0  0
  158.2110  213.9490  153.3910 C   0  0  0  0  0  2  0  0  0  0  0  0
  156.2920  213.0410  154.3490 C   0  0  0  0  0  1  0  0  0  0  0  0
  157.7410  213.0270  154.4120 N   0  0  0  0  0  2  0  0  0  0  0  0
  159.0830  211.7020  152.5700 C   0  0  0  0  0  2  0  0  0  0  0  0
  160.4560  211.0440  152.4950 C   0  0  0  0  0  2  0  0  0  0  0  0
  160.3440  209.5510  152.7580 C   0  0  0  0  0  2  0  0  0  0  0  0
  160.6440  209.2450  154.2170 C   0  0  0  0  0  2  0  0  0  0  0  0
  161.2660  207.9970  154.3260 O   0  0  0  0  0  1  0  0  0  0  0  0
  1  2  1  0  0  0  0
  2  4  1  0  0  0  0
  3 21  1  0  0  0  0
  3  4  1  0  0  0  0
  4  6  1  1  0  0  0
  5  1  1  0  0  0  0
  5  3  2  0  0  0  0
  6  8  2  0  0  0  0
  6  7  1  0  0  0  0
  9  7  1  0  0  0  0
 11 14  1  0  0  0  0
 12 13  2  0  0  0  0
 12 11  1  0  0  0  0
 14  9  1  0  0  0  0
 14 10  2  0  0  0  0
 15 12  1  0  0  0  0
 16 15  1  0  0  0  0
 17 19  1  0  0  0  0
 17 20  1  0  0  0  0
 18 17  2  0  0  0  0
 20 16  1  0  0  0  0
 22 23  1  0  0  0  0
 22 24  1  0  0  0  0
 23 24  1  0  0  0  0
 23 21  1  1  0  0  0
 24 25  1  6  0  0  0
 25 26  1  0  0  0  0
 26 27  1  0  0  0  0
 27 28  1  0  0  0  0
 28 29  1  0  0  0  0
 29 33  1  6  0  0  0
 29 30  1  0  0  0  0
 30 32  1  0  0  0  0
 31 32  1  0  0  0  0
 34 33  1  0  0  0  0
 34 35  1  0  0  0  0
 35 36  1  0  0  0  0
 36 37  1  0  0  0  0
M  END
>  <MODEL>
4

>  <REMARK>
 VINA RESULT:      -5.4      2.112      4.418
  Name = 
  19 active torsions:
  status: ('A' for Active; 'I' for Inactive)
    1  A    between atoms: C_2  and  C_29
    2  A    between atoms: C_2  and  C_37
    3  A    between atoms: C_3  and  C_6
    4  A    between atoms: C_3  and  C_29
    5  A    between atoms: C_4  and  C_16
    6  A    between atoms: C_4  and  S_21
    7  A    between atoms: C_7  and  C_27
    8  A    between atoms: C_7  and  C_32
    9  A    between atoms: C_10  and  N_22
   10  A    between atoms: C_10  and  C_35
   11  A    between atoms: C_15  and  C_25
   12  A    between atoms: C_15  and  C_26
   13  A    between atoms: C_16  and  C_20
   14  A    between atoms: C_17  and  C_34
   15  A    between atoms: C_18  and  N_24
   16  A    between atoms: C_18  and  C_37
   17  A    between atoms: C_20  and  C_33
   18  A    between atoms: S_21  and  C_37
   19  A    between atoms: N_30  and  C_32
                            x       y       z     vdW  Elec       q    Type
                         _______ _______ _______ _____ _____    ______ ____

>  <TORSDO>
F 19

$$$$
=
 OpenBabel11052410573D

 37 38  0  0  1  0  0  0  0  0999 V2000
  160.2090  209.8230  153.5170 O   0  0  0  0  0  0  0  0  0  0  0  0
  160.3350  210.5830  152.4100 O   0  0  0  0  0  0  0  0  0  0  0  0
  161.1670  208.4450  152.2410 C   0  0  0  0  0  0  0  0  0  0  0  0
  161.0140  209.7300  151.5060 C   0  0  2  0  0  3  0  0  0  0  0  0
  160.6910  208.5450  153.4170 N   0  0  0  0  0  0  0  0  0  0  0  0
  162.3500  210.3180  151.1590 C   0  0  0  0  0  0  0  0  0  0  0  0
  162.5570  210.9820  149.9120 N   0  0  0  0  0  2  0  0  0  0  0  0
  163.3050  210.2330  151.9760 O   0  0  0  0  0  0  0  0  0  0  0  0
  161.4900  211.1810  148.9420 C   0  0  0  0  0  2  0  0  0  0  0  0
  162.7690  213.0790  148.2780 O   0  0  0  0  0  0  0  0  0  0  0  0
  161.1830  212.3340  146.7190 N   0  0  0  0  0  2  0  0  0  0  0  0
  161.4370  213.3180  145.7110 C   0  0  0  0  0  0  0  0  0  0  0  0
  162.3660  214.1600  145.8480 O   0  0  0  0  0  0  0  0  0  0  0  0
  161.8740  212.2440  147.9710 C   0  0  0  0  0  0  0  0  0  0  0  0
  160.5890  213.3520  144.4860 C   0  0  0  0  0  2  0  0  0  0  0  0
  161.4520  213.5010  143.2440 C   0  0  0  0  0  2  0  0  0  0  0  0
  162.1550  212.0860  141.2910 C   0  0  0  0  0  0  0  0  0  0  0  0
  162.3320  210.9460  140.7870 O   0  0  0  0  0  1  0  0  0  0  0  0
  162.4340  213.2220  140.5380 O   0  0  0  0  0  0  0  0  0  0  0  0
  161.6650  212.2020  142.6250 N   0  0  0  0  0  2  0  0  0  0  0  0
  161.7990  207.1960  151.7210 C   0  0  0  0  0  2  0  0  0  0  0  0
  161.4300  205.1640  153.0870 C   0  0  0  0  0  2  0  0  0  0  0  0
  160.8870  206.0060  151.9510 C   0  0  2  0  0  3  0  0  0  0  0  0
  161.6620  204.7390  151.6520 C   0  0  2  0  0  3  0  0  0  0  0  0
  160.6910  203.6270  151.3040 C   0  0  0  0  0  2  0  0  0  0  0  0
  161.4330  202.3060  151.2530 C   0  0  0  0  0  2  0  0  0  0  0  0
  160.9290  201.4570  150.0970 C   0  0  0  0  0  2  0  0  0  0  0  0
  159.9300  202.4550  148.9480 S   0  0  0  0  0  0  0  0  0  0  0  0
  161.1930  202.4030  147.6360 C   0  0  1  0  0  3  0  0  0  0  0  0
  160.5590  201.9840  146.3170 C   0  0  0  0  0  2  0  0  0  0  0  0
  161.5960  200.0130  147.0010 C   0  0  0  0  0  1  0  0  0  0  0  0
  160.4760  200.5340  146.2400 N   0  0  0  0  0  2  0  0  0  0  0  0
  161.9520  203.7310  147.5380 C   0  0  0  0  0  2  0  0  0  0  0  0
  161.2390  204.8900  148.2260 C   0  0  0  0  0  2  0  0  0  0  0  0
  161.1540  206.0890  147.2940 C   0  0  0  0  0  2  0  0  0  0  0  0
  161.2970  207.3830  148.0800 C   0  0  0  0  0  2  0  0  0  0  0  0
  162.6500  207.6730  148.2830 O   0  0  0  0  0  1  0  0  0  0  0  0
  2  1  1  0  0  0  0
  3  5  2  0  0  0  0
  4  6  1  1  0  0  0
  4  3  1  0  0  0  0
  4  2  1  0  0  0  0
  5  1  1  0  0  0  0
  6  8  2  0  0  0  0
  7  6  1  0  0  0  0
  9  7  1  0  0  0  0
 11 14  1  0  0  0  0
 12 13  2  0  0  0  0
 12 11  1  0  0  0  0
 14 10  2  0  0  0  0
 14  9  1  0  0  0  0
 15 12  1  0  0  0  0
 16 15  1  0  0  0  0
 17 20  1  0  0  0  0
 18 17  1  0  0  0  0
 19 17  2  0  0  0  0
 20 16  1  0  0  0  0
 21  3  1  0  0  0  0
 23 21  1  6  0  0  0
 23 22  1  0  0  0  0
 24 25  1  1  0  0  0
 24 23  1  0  0  0  0
 24 22  1  0  0  0  0
 26 25  1  0  0  0  0
 27 26  1  0  0  0  0
 28 27  1  0  0  0  0
 29 30  1  6  0  0  0
 29 28  1  0  0  0  0
 32 30  1  0  0  0  0
 32 31  1  0  0  0  0
 33 29  1  0  0  0  0
 33 34  1  0  0  0  0
 35 36  1  0  0  0  0
 35 34  1  0  0  0  0
 36 37  1  0  0  0  0
M  END
>  <MODEL>
5

>  <REMARK>
 VINA RESULT:      -5.2      3.709      8.729
  Name = 
  19 active torsions:
  status: ('A' for Active; 'I' for Inactive)
    1  A    between atoms: C_2  and  C_29
    2  A    between atoms: C_2  and  C_37
    3  A    between atoms: C_3  and  C_6
    4  A    between atoms: C_3  and  C_29
    5  A    between atoms: C_4  and  C_16
    6  A    between atoms: C_4  and  S_21
    7  A    between atoms: C_7  and  C_27
    8  A    between atoms: C_7  and  C_32
    9  A    between atoms: C_10  and  N_22
   10  A    between atoms: C_10  and  C_35
   11  A    between atoms: C_15  and  C_25
   12  A    between atoms: C_15  and  C_26
   13  A    between atoms: C_16  and  C_20
   14  A    between atoms: C_17  and  C_34
   15  A    between atoms: C_18  and  N_24
   16  A    between atoms: C_18  and  C_37
   17  A    between atoms: C_20  and  C_33
   18  A    between atoms: S_21  and  C_37
   19  A    between atoms: N_30  and  C_32
                            x       y       z     vdW  Elec       q    Type
                         _______ _______ _______ _____ _____    ______ ____

>  <TORSDO>
F 19

$$$$
=
 OpenBabel11052410573D

 37 38  0  0  1  0  0  0  0  0999 V2000
  163.2990  213.0830  143.7610 O   0  0  0  0  0  0  0  0  0  0  0  0
  162.6100  213.2190  142.6090 O   0  0  0  0  0  0  0  0  0  0  0  0
  161.3820  213.4970  144.5350 C   0  0  0  0  0  0  0  0  0  0  0  0
  161.2870  213.4630  143.0500 C   0  0  2  0  0  3  0  0  0  0  0  0
  162.5760  213.2600  144.9100 N   0  0  0  0  0  0  0  0  0  0  0  0
  160.3860  212.3550  142.5900 C   0  0  0  0  0  0  0  0  0  0  0  0
  159.8240  212.3650  141.2770 N   0  0  0  0  0  2  0  0  0  0  0  0
  160.1220  211.3980  143.3650 O   0  0  0  0  0  0  0  0  0  0  0  0
  160.1310  213.3990  140.2990 C   0  0  0  0  0  2  0  0  0  0  0  0
  162.2130  213.7410  139.1900 O   0  0  0  0  0  0  0  0  0  0  0  0
  161.1980  211.6610  138.8140 N   0  0  0  0  0  2  0  0  0  0  0  0
  162.1940  211.1240  137.9370 C   0  0  0  0  0  0  0  0  0  0  0  0
  163.2510  211.7660  137.6890 O   0  0  0  0  0  0  0  0  0  0  0  0
  161.2520  212.9570  139.4230 C   0  0  0  0  0  0  0  0  0  0  0  0
  161.9750  209.7930  137.3030 C   0  0  0  0  0  2  0  0  0  0  0  0
  160.8210  209.0670  137.9740 C   0  0  0  0  0  2  0  0  0  0  0  0
  161.9570  207.4510  139.5260 C   0  0  0  0  0  0  0  0  0  0  0  0
  162.2850  206.2690  139.8090 O   0  0  0  0  0  0  0  0  0  0  0  0
  162.3200  208.4880  140.3780 O   0  0  0  0  0  1  0  0  0  0  0  0
  161.2230  207.7150  138.3330 N   0  0  0  0  0  2  0  0  0  0  0  0
  160.2620  213.7490  145.4900 C   0  0  0  0  0  2  0  0  0  0  0  0
  159.3200  213.2160  147.7160 C   0  0  0  0  0  2  0  0  0  0  0  0
  160.4120  212.8780  146.7220 C   0  0  2  0  0  3  0  0  0  0  0  0
  160.7160  213.7690  147.9080 C   0  0  2  0  0  3  0  0  0  0  0  0
  161.4250  212.9590  148.9770 C   0  0  0  0  0  2  0  0  0  0  0  0
  161.8630  211.6280  148.3960 C   0  0  0  0  0  2  0  0  0  0  0  0
  162.3240  210.6910  149.5010 C   0  0  0  0  0  2  0  0  0  0  0  0
  161.9640  208.9590  149.0730 S   0  0  0  0  0  0  0  0  0  0  0  0
  162.2180  208.3740  150.7790 C   0  0  1  0  0  3  0  0  0  0  0  0
  161.0790  208.8500  151.6700 C   0  0  0  0  0  2  0  0  0  0  0  0
  160.4930  210.4070  153.3010 C   0  0  0  0  0  1  0  0  0  0  0  0
  161.6030  209.6340  152.7770 N   0  0  0  0  0  2  0  0  0  0  0  0
  162.4170  206.8540  150.8270 C   0  0  0  0  0  2  0  0  0  0  0  0
  161.2160  206.1030  151.3920 C   0  0  0  0  0  2  0  0  0  0  0  0
  160.9050  204.8830  150.5390 C   0  0  0  0  0  2  0  0  0  0  0  0
  160.8590  205.2620  149.0670 C   0  0  0  0  0  2  0  0  0  0  0  0
  161.4420  204.2530  148.2940 O   0  0  0  0  0  1  0  0  0  0  0  0
  1  5  1  0  0  0  0
  2  4  1  0  0  0  0
  2  1  1  0  0  0  0
  3  5  2  0  0  0  0
  3 21  1  0  0  0  0
  4  6  1  1  0  0  0
  4  3  1  0  0  0  0
  6  8  2  0  0  0  0
  7  6  1  0  0  0  0
  9  7  1  0  0  0  0
 10 14  2  0  0  0  0
 11 14  1  0  0  0  0
 12 11  1  0  0  0  0
 13 12  2  0  0  0  0
 14  9  1  0  0  0  0
 15 12  1  0  0  0  0
 15 16  1  0  0  0  0
 16 20  1  0  0  0  0
 17 18  2  0  0  0  0
 17 19  1  0  0  0  0
 20 17  1  0  0  0  0
 22 24  1  0  0  0  0
 23 21  1  6  0  0  0
 23 22  1  0  0  0  0
 23 24  1  0  0  0  0
 24 25  1  1  0  0  0
 26 25  1  0  0  0  0
 26 27  1  0  0  0  0
 28 27  1  0  0  0  0
 28 29  1  0  0  0  0
 29 33  1  6  0  0  0
 29 30  1  0  0  0  0
 30 32  1  0  0  0  0
 32 31  1  0  0  0  0
 33 34  1  0  0  0  0
 35 34  1  0  0  0  0
 36 35  1  0  0  0  0
 37 36  1  0  0  0  0
M  END
>  <MODEL>
6

>  <REMARK>
 VINA RESULT:      -5.1      4.448      9.447
  Name = 
  19 active torsions:
  status: ('A' for Active; 'I' for Inactive)
    1  A    between atoms: C_2  and  C_29
    2  A    between atoms: C_2  and  C_37
    3  A    between atoms: C_3  and  C_6
    4  A    between atoms: C_3  and  C_29
    5  A    between atoms: C_4  and  C_16
    6  A    between atoms: C_4  and  S_21
    7  A    between atoms: C_7  and  C_27
    8  A    between atoms: C_7  and  C_32
    9  A    between atoms: C_10  and  N_22
   10  A    between atoms: C_10  and  C_35
   11  A    between atoms: C_15  and  C_25
   12  A    between atoms: C_15  and  C_26
   13  A    between atoms: C_16  and  C_20
   14  A    between atoms: C_17  and  C_34
   15  A    between atoms: C_18  and  N_24
   16  A    between atoms: C_18  and  C_37
   17  A    between atoms: C_20  and  C_33
   18  A    between atoms: S_21  and  C_37
   19  A    between atoms: N_30  and  C_32
                            x       y       z     vdW  Elec       q    Type
                         _______ _______ _______ _____ _____    ______ ____

>  <TORSDO>
F 19

$$$$
=
 OpenBabel11052410573D

 37 38  0  0  1  0  0  0  0  0999 V2000
  160.0270  209.9500  153.4390 O   0  0  0  0  0  0  0  0  0  0  0  0
  160.1630  210.5680  152.2480 O   0  0  0  0  0  0  0  0  0  0  0  0
  161.1150  208.4780  152.3920 C   0  0  0  0  0  0  0  0  0  0  0  0
  160.9270  209.6470  151.4900 C   0  0  2  0  0  3  0  0  0  0  0  0
  160.5820  208.7010  153.5260 N   0  0  0  0  0  0  0  0  0  0  0  0
  162.2440  210.2640  151.1200 C   0  0  0  0  0  0  0  0  0  0  0  0
  162.3600  211.1130  149.9770 N   0  0  0  0  0  2  0  0  0  0  0  0
  163.2630  210.0390  151.8250 O   0  0  0  0  0  0  0  0  0  0  0  0
  161.2190  211.4760  149.1500 C   0  0  0  0  0  2  0  0  0  0  0  0
  162.1290  213.6020  148.5750 O   0  0  0  0  0  0  0  0  0  0  0  0
  161.3540  212.3140  146.7740 N   0  0  0  0  0  2  0  0  0  0  0  0
  161.6620  213.2480  145.7330 C   0  0  0  0  0  0  0  0  0  0  0  0
  162.2600  214.3280  145.9880 O   0  0  0  0  0  0  0  0  0  0  0  0
  161.6130  212.5250  148.1670 C   0  0  0  0  0  0  0  0  0  0  0  0
  161.2630  212.9420  144.3300 C   0  0  0  0  0  2  0  0  0  0  0  0
  159.9040  213.5460  144.0180 C   0  0  0  0  0  2  0  0  0  0  0  0
  158.0570  212.9990  145.6300 C   0  0  0  0  0  0  0  0  0  0  0  0
  157.1460  212.2180  146.0090 O   0  0  0  0  0  0  0  0  0  0  0  0
  158.2880  214.1770  146.3320 O   0  0  0  0  0  1  0  0  0  0  0  0
  158.8460  212.6670  144.4900 N   0  0  0  0  0  2  0  0  0  0  0  0
  161.8360  207.2130  152.0640 C   0  0  0  0  0  2  0  0  0  0  0  0
  161.2040  205.0220  153.0290 C   0  0  0  0  0  2  0  0  0  0  0  0
  160.8610  206.0560  151.9760 C   0  0  2  0  0  3  0  0  0  0  0  0
  161.6270  204.8070  151.5910 C   0  0  2  0  0  3  0  0  0  0  0  0
  160.6800  203.8160  150.9420 C   0  0  0  0  0  2  0  0  0  0  0  0
  160.9150  202.4350  151.5220 C   0  0  0  0  0  2  0  0  0  0  0  0
  161.1700  201.4280  150.4130 C   0  0  0  0  0  2  0  0  0  0  0  0
  160.0210  201.6870  149.0250 S   0  0  0  0  0  0  0  0  0  0  0  0
  161.3080  202.4020  147.9540 C   0  0  1  0  0  3  0  0  0  0  0  0
  161.4110  201.6070  146.6590 C   0  0  0  0  0  2  0  0  0  0  0  0
  160.0020  201.9670  144.8390 C   0  0  0  0  0  1  0  0  0  0  0  0
  160.0830  201.3250  146.1380 N   0  0  0  0  0  2  0  0  0  0  0  0
  161.0730  203.8980  147.7170 C   0  0  0  0  0  2  0  0  0  0  0  0
  162.0560  204.5190  146.7300 C   0  0  0  0  0  2  0  0  0  0  0  0
  162.1930  206.0110  146.9860 C   0  0  0  0  0  2  0  0  0  0  0  0
  161.2930  206.4380  148.1350 C   0  0  0  0  0  2  0  0  0  0  0  0
  161.5350  207.7760  148.4620 O   0  0  0  0  0  1  0  0  0  0  0  0
  1  5  1  0  0  0  0
  2  1  1  0  0  0  0
  3  5  2  0  0  0  0
  4  6  1  1  0  0  0
  4  2  1  0  0  0  0
  4  3  1  0  0  0  0
  6  8  2  0  0  0  0
  7  6  1  0  0  0  0
  9  7  1  0  0  0  0
 11 14  1  0  0  0  0
 12 13  2  0  0  0  0
 12 11  1  0  0  0  0
 14 10  2  0  0  0  0
 14  9  1  0  0  0  0
 15 12  1  0  0  0  0
 16 15  1  0  0  0  0
 16 20  1  0  0  0  0
 17 18  2  0  0  0  0
 17 19  1  0  0  0  0
 20 17  1  0  0  0  0
 21  3  1  0  0  0  0
 23 21  1  1  0  0  0
 23 22  1  0  0  0  0
 24 25  1  6  0  0  0
 24 23  1  0  0  0  0
 24 22  1  0  0  0  0
 25 26  1  0  0  0  0
 27 26  1  0  0  0  0
 28 27  1  0  0  0  0
 29 30  1  6  0  0  0
 29 28  1  0  0  0  0
 31 32  1  0  0  0  0
 32 30  1  0  0  0  0
 33 29  1  0  0  0  0
 34 35  1  0  0  0  0
 34 33  1  0  0  0  0
 35 36  1  0  0  0  0
 36 37  1  0  0  0  0
M  END
>  <MODEL>
7

>  <REMARK>
 VINA RESULT:      -5.1      3.582      8.807
  Name = 
  19 active torsions:
  status: ('A' for Active; 'I' for Inactive)
    1  A    between atoms: C_2  and  C_29
    2  A    between atoms: C_2  and  C_37
    3  A    between atoms: C_3  and  C_6
    4  A    between atoms: C_3  and  C_29
    5  A    between atoms: C_4  and  C_16
    6  A    between atoms: C_4  and  S_21
    7  A    between atoms: C_7  and  C_27
    8  A    between atoms: C_7  and  C_32
    9  A    between atoms: C_10  and  N_22
   10  A    between atoms: C_10  and  C_35
   11  A    between atoms: C_15  and  C_25
   12  A    between atoms: C_15  and  C_26
   13  A    between atoms: C_16  and  C_20
   14  A    between atoms: C_17  and  C_34
   15  A    between atoms: C_18  and  N_24
   16  A    between atoms: C_18  and  C_37
   17  A    between atoms: C_20  and  C_33
   18  A    between atoms: S_21  and  C_37
   19  A    between atoms: N_30  and  C_32
                            x       y       z     vdW  Elec       q    Type
                         _______ _______ _______ _____ _____    ______ ____

>  <TORSDO>
F 19

$$$$
=
 OpenBabel11052410573D

 37 38  0  0  1  0  0  0  0  0999 V2000
  162.3370  209.8300  151.8230 O   0  0  0  0  0  0  0  0  0  0  0  0
  161.8790  209.1950  150.7250 O   0  0  0  0  0  0  0  0  0  0  0  0
  161.3050  208.2330  152.7350 C   0  0  0  0  0  0  0  0  0  0  0  0
  161.1990  208.0730  151.2600 C   0  0  2  0  0  3  0  0  0  0  0  0
  161.9880  209.2690  153.0220 N   0  0  0  0  0  0  0  0  0  0  0  0
  161.8660  206.8100  150.8020 C   0  0  0  0  0  0  0  0  0  0  0  0
  161.6610  206.3120  149.4790 N   0  0  0  0  0  2  0  0  0  0  0  0
  162.6210  206.1780  151.5870 O   0  0  0  0  0  0  0  0  0  0  0  0
  160.8580  207.0150  148.4900 C   0  0  0  0  0  2  0  0  0  0  0  0
  160.5780  206.8770  146.1270 O   0  0  0  0  0  0  0  0  0  0  0  0
  161.1890  204.8790  147.1900 N   0  0  0  0  0  2  0  0  0  0  0  0
  161.2210  204.0500  146.0230 C   0  0  0  0  0  0  0  0  0  0  0  0
  161.0290  204.5390  144.8770 O   0  0  0  0  0  0  0  0  0  0  0  0
  160.8780  206.2770  147.1960 C   0  0  0  0  0  0  0  0  0  0  0  0
  161.4770  202.5890  146.1660 C   0  0  0  0  0  2  0  0  0  0  0  0
  161.6760  202.2220  147.6280 C   0  0  0  0  0  2  0  0  0  0  0  0
  159.9340  201.7430  149.3730 C   0  0  0  0  0  0  0  0  0  0  0  0
  158.9440  201.0670  149.7590 O   0  0  0  0  0  0  0  0  0  0  0  0
  160.4350  202.7540  150.1850 O   0  0  0  0  0  1  0  0  0  0  0  0
  160.5350  201.4610  148.1110 N   0  0  0  0  0  2  0  0  0  0  0  0
  160.7280  207.3240  153.7690 C   0  0  0  0  0  2  0  0  0  0  0  0
  160.1770  207.1020  156.1730 C   0  0  0  0  0  2  0  0  0  0  0  0
  161.0120  207.8580  155.1600 C   0  0  2  0  0  3  0  0  0  0  0  0
  159.7420  208.4760  155.7080 C   0  0  2  0  0  3  0  0  0  0  0  0
  160.0980  209.4930  156.7760 C   0  0  0  0  0  2  0  0  0  0  0  0
  161.3080  210.2910  156.3320 C   0  0  0  0  0  2  0  0  0  0  0  0
  160.9270  211.7410  156.0810 C   0  0  0  0  0  2  0  0  0  0  0  0
  160.0930  211.9230  154.4730 S   0  0  0  0  0  0  0  0  0  0  0  0
  159.0060  213.2580  155.0680 C   0  0  1  0  0  3  0  0  0  0  0  0
  158.3900  213.9960  153.8880 C   0  0  0  0  0  2  0  0  0  0  0  0
  158.1240  213.2480  151.6970 C   0  0  0  0  0  1  0  0  0  0  0  0
  159.1130  213.6790  152.6670 N   0  0  0  0  0  2  0  0  0  0  0  0
  157.9570  212.7280  156.0530 C   0  0  0  0  0  2  0  0  0  0  0  0
  156.6130  212.4220  155.4020 C   0  0  0  0  0  2  0  0  0  0  0  0
  156.5440  210.9610  154.9890 C   0  0  0  0  0  2  0  0  0  0  0  0
  155.2450  210.3330  155.4700 C   0  0  0  0  0  2  0  0  0  0  0  0
  154.9100  210.8340  156.7320 O   0  0  0  0  0  1  0  0  0  0  0  0
  1  5  1  0  0  0  0
  2  4  1  0  0  0  0
  2  1  1  0  0  0  0
  3  5  2  0  0  0  0
  3 21  1  0  0  0  0
  4  6  1  6  0  0  0
  4  3  1  0  0  0  0
  6  8  2  0  0  0  0
  7  6  1  0  0  0  0
  9  7  1  0  0  0  0
 10 14  2  0  0  0  0
 11 14  1  0  0  0  0
 12 15  1  0  0  0  0
 12 11  1  0  0  0  0
 13 12  2  0  0  0  0
 14  9  1  0  0  0  0
 15 16  1  0  0  0  0
 16 20  1  0  0  0  0
 17 18  2  0  0  0  0
 17 19  1  0  0  0  0
 20 17  1  0  0  0  0
 23 21  1  6  0  0  0
 23 24  1  0  0  0  0
 23 22  1  0  0  0  0
 24 22  1  0  0  0  0
 24 25  1  1  0  0  0
 26 25  1  0  0  0  0
 27 26  1  0  0  0  0
 28 29  1  0  0  0  0
 28 27  1  0  0  0  0
 29 30  1  6  0  0  0
 29 33  1  0  0  0  0
 31 32  1  0  0  0  0
 32 30  1  0  0  0  0
 34 33  1  0  0  0  0
 35 34  1  0  0  0  0
 35 36  1  0  0  0  0
 36 37  1  0  0  0  0
M  END
>  <MODEL>
8

>  <REMARK>
 VINA RESULT:      -5.1      3.185      5.656
  Name = 
  19 active torsions:
  status: ('A' for Active; 'I' for Inactive)
    1  A    between atoms: C_2  and  C_29
    2  A    between atoms: C_2  and  C_37
    3  A    between atoms: C_3  and  C_6
    4  A    between atoms: C_3  and  C_29
    5  A    between atoms: C_4  and  C_16
    6  A    between atoms: C_4  and  S_21
    7  A    between atoms: C_7  and  C_27
    8  A    between atoms: C_7  and  C_32
    9  A    between atoms: C_10  and  N_22
   10  A    between atoms: C_10  and  C_35
   11  A    between atoms: C_15  and  C_25
   12  A    between atoms: C_15  and  C_26
   13  A    between atoms: C_16  and  C_20
   14  A    between atoms: C_17  and  C_34
   15  A    between atoms: C_18  and  N_24
   16  A    between atoms: C_18  and  C_37
   17  A    between atoms: C_20  and  C_33
   18  A    between atoms: S_21  and  C_37
   19  A    between atoms: N_30  and  C_32
                            x       y       z     vdW  Elec       q    Type
                         _______ _______ _______ _____ _____    ______ ____

>  <TORSDO>
F 19

$$$$
=
 OpenBabel11052410573D

 37 38  0  0  1  0  0  0  0  0999 V2000
  163.5900  204.5180  146.3530 O   0  0  0  0  0  0  0  0  0  0  0  0
  162.9490  204.6620  145.1740 O   0  0  0  0  0  0  0  0  0  0  0  0
  162.3460  206.1560  146.8170 C   0  0  0  0  0  0  0  0  0  0  0  0
  162.0560  205.7330  145.4210 C   0  0  2  0  0  3  0  0  0  0  0  0
  163.2430  205.4120  147.3300 N   0  0  0  0  0  0  0  0  0  0  0  0
  160.6410  205.2550  145.2820 C   0  0  0  0  0  0  0  0  0  0  0  0
  160.3350  203.8590  145.2880 N   0  0  0  0  0  2  0  0  0  0  0  0
  159.7040  206.0890  145.1630 O   0  0  0  0  0  0  0  0  0  0  0  0
  161.3490  202.8340  145.4870 C   0  0  0  0  0  2  0  0  0  0  0  0
  161.1760  200.9320  146.9130 O   0  0  0  0  0  0  0  0  0  0  0  0
  160.9480  203.0120  147.9710 N   0  0  0  0  0  2  0  0  0  0  0  0
  160.7410  202.5230  149.3000 C   0  0  0  0  0  0  0  0  0  0  0  0
  160.8090  201.2880  149.5530 O   0  0  0  0  0  0  0  0  0  0  0  0
  161.1720  202.1910  146.8190 C   0  0  0  0  0  0  0  0  0  0  0  0
  160.4360  203.4820  150.3990 C   0  0  0  0  0  2  0  0  0  0  0  0
  161.1870  203.1010  151.6640 C   0  0  0  0  0  2  0  0  0  0  0  0
  161.5820  205.2440  152.9130 C   0  0  0  0  0  0  0  0  0  0  0  0
  161.2700  206.0260  153.8490 O   0  0  0  0  0  1  0  0  0  0  0  0
  162.6310  205.5740  152.0620 O   0  0  0  0  0  0  0  0  0  0  0  0
  160.8600  204.0270  152.7370 N   0  0  0  0  0  2  0  0  0  0  0  0
  161.6910  207.2730  147.5600 C   0  0  0  0  0  2  0  0  0  0  0  0
  160.7750  207.1620  149.8570 C   0  0  0  0  0  2  0  0  0  0  0  0
  162.0450  207.2090  149.0330 C   0  0  2  0  0  3  0  0  0  0  0  0
  161.5320  208.4640  149.7080 C   0  0  2  0  0  3  0  0  0  0  0  0
  162.3310  208.7180  150.9710 C   0  0  0  0  0  2  0  0  0  0  0  0
  161.6910  209.8440  151.7580 C   0  0  0  0  0  2  0  0  0  0  0  0
  161.0960  209.3180  153.0540 C   0  0  0  0  0  2  0  0  0  0  0  0
  161.7370  210.2460  154.4840 S   0  0  0  0  0  0  0  0  0  0  0  0
  160.2290  209.9740  155.4700 C   0  0  1  0  0  3  0  0  0  0  0  0
  160.6000  209.5710  156.8910 C   0  0  0  0  0  2  0  0  0  0  0  0
  160.1020  207.2970  156.7920 C   0  0  0  0  0  1  0  0  0  0  0  0
  161.1960  208.2440  156.8950 N   0  0  0  0  0  2  0  0  0  0  0  0
  159.3000  211.1920  155.4190 C   0  0  0  0  0  2  0  0  0  0  0  0
  159.6520  212.1780  154.3100 C   0  0  0  0  0  2  0  0  0  0  0  0
  158.5520  212.2090  153.2600 C   0  0  0  0  0  2  0  0  0  0  0  0
  157.5570  213.3170  153.5660 C   0  0  0  0  0  2  0  0  0  0  0  0
  156.3820  212.7730  154.0940 O   0  0  0  0  0  1  0  0  0  0  0  0
  1  5  1  0  0  0  0
  2  4  1  0  0  0  0
  2  1  1  0  0  0  0
  3  5  2  0  0  0  0
  3 21  1  0  0  0  0
  4  6  1  1  0  0  0
  4  3  1  0  0  0  0
  6  7  1  0  0  0  0
  7  9  1  0  0  0  0
  8  6  2  0  0  0  0
  9 14  1  0  0  0  0
 11 12  1  0  0  0  0
 12 13  2  0  0  0  0
 12 15  1  0  0  0  0
 14 10  2  0  0  0  0
 14 11  1  0  0  0  0
 15 16  1  0  0  0  0
 16 20  1  0  0  0  0
 17 18  1  0  0  0  0
 19 17  2  0  0  0  0
 20 17  1  0  0  0  0
 23 21  1  6  0  0  0
 23 24  1  0  0  0  0
 23 22  1  0  0  0  0
 24 22  1  0  0  0  0
 24 25  1  1  0  0  0
 25 26  1  0  0  0  0
 26 27  1  0  0  0  0
 27 28  1  0  0  0  0
 28 29  1  0  0  0  0
 29 33  1  1  0  0  0
 29 30  1  0  0  0  0
 30 32  1  0  0  0  0
 31 32  1  0  0  0  0
 34 33  1  0  0  0  0
 35 36  1  0  0  0  0
 35 34  1  0  0  0  0
 36 37  1  0  0  0  0
M  END
>  <MODEL>
9

>  <REMARK>
 VINA RESULT:      -5.1      3.482      6.606
  Name = 
  19 active torsions:
  status: ('A' for Active; 'I' for Inactive)
    1  A    between atoms: C_2  and  C_29
    2  A    between atoms: C_2  and  C_37
    3  A    between atoms: C_3  and  C_6
    4  A    between atoms: C_3  and  C_29
    5  A    between atoms: C_4  and  C_16
    6  A    between atoms: C_4  and  S_21
    7  A    between atoms: C_7  and  C_27
    8  A    between atoms: C_7  and  C_32
    9  A    between atoms: C_10  and  N_22
   10  A    between atoms: C_10  and  C_35
   11  A    between atoms: C_15  and  C_25
   12  A    between atoms: C_15  and  C_26
   13  A    between atoms: C_16  and  C_20
   14  A    between atoms: C_17  and  C_34
   15  A    between atoms: C_18  and  N_24
   16  A    between atoms: C_18  and  C_37
   17  A    between atoms: C_20  and  C_33
   18  A    between atoms: S_21  and  C_37
   19  A    between atoms: N_30  and  C_32
                            x       y       z     vdW  Elec       q    Type
                         _______ _______ _______ _____ _____    ______ ____

>  <TORSDO>
F 19

$$$$
