=
 OpenBabel11052410153D

 25 27  0  0  1  0  0  0  0  0999 V2000
  161.5190  205.0300  150.0600 C   0  0  0  0  0  0  0  0  0  0  0  0
  161.0570  203.1530  151.5430 C   0  0  0  0  0  3  0  0  0  0  0  0
  160.3800  201.0290  150.6320 O   0  0  0  0  0  1  0  0  0  0  0  0
  160.7550  202.3510  150.4450 C   0  0  0  0  0  0  0  0  0  0  0  0
  161.4400  204.4800  151.3500 C   0  0  0  0  0  3  0  0  0  0  0  0
  161.2040  204.2170  148.9400 C   0  0  0  0  0  0  0  0  0  0  0  0
  160.8300  202.8790  149.1560 C   0  0  0  0  0  3  0  0  0  0  0  0
  161.9680  206.3820  149.8710 N   0  0  0  0  0  2  0  0  0  0  0  0
  161.2460  209.8000  152.2780 C   0  0  0  0  0  0  0  0  0  0  0  0
  160.8440  207.4570  151.6730 N   0  0  0  0  0  0  0  0  0  0  0  0
  162.0770  209.9130  151.2880 N   0  0  0  0  0  0  0  0  0  0  0  0
  160.5620  208.5660  152.4850 N   0  0  0  0  0  2  0  0  0  0  0  0
  161.6770  207.5340  150.6780 C   0  0  0  0  0  0  0  0  0  0  0  0
  162.3220  208.8500  150.3090 C   0  0  1  0  0  3  0  0  0  0  0  0
  161.8350  209.3020  148.9460 C   0  0  0  0  0  1  0  0  0  0  0  0
  161.0270  210.9230  153.1980 C   0  0  0  0  0  0  0  0  0  0  0  0
  160.2950  211.8910  152.8590 O   0  0  0  0  0  0  0  0  0  0  0  0
  161.6270  210.9240  154.4510 O   0  0  0  0  0  1  0  0  0  0  0  0
  161.3080  205.6090  144.8700 C   0  0  0  0  0  0  0  0  0  0  0  0
  160.6000  206.3320  145.8330 C   0  0  0  0  0  3  0  0  0  0  0  0
  161.9470  203.9950  146.5560 C   0  0  0  0  0  3  0  0  0  0  0  0
  161.9790  204.4400  145.2310 C   0  0  0  0  0  3  0  0  0  0  0  0
  161.2480  204.7180  147.5380 C   0  0  0  0  0  0  0  0  0  0  0  0
  161.3390  206.0410  143.5870 F   0  0  0  0  0  0  0  0  0  0  0  0
  160.5690  205.8870  147.1570 C   0  0  0  0  0  3  0  0  0  0  0  0
  1  5  1  0  0  0  0
  4  3  1  0  0  0  0
  4  2  1  0  0  0  0
  5  2  2  0  0  0  0
  6  7  1  0  0  0  0
  6  1  2  0  0  0  0
  7  4  2  0  0  0  0
  8  1  1  0  0  0  0
  8 13  1  0  0  0  0
  9 12  1  0  0  0  0
  9 16  1  0  0  0  0
 10 12  1  0  0  0  0
 11  9  2  0  0  0  0
 13 10  2  0  0  0  0
 14 15  1  6  0  0  0
 14 13  1  0  0  0  0
 14 11  1  0  0  0  0
 16 18  1  0  0  0  0
 17 16  2  0  0  0  0
 19 22  2  0  0  0  0
 19 20  1  0  0  0  0
 20 25  2  0  0  0  0
 21 23  2  0  0  0  0
 22 21  1  0  0  0  0
 23  6  1  0  0  0  0
 24 19  1  0  0  0  0
 25 23  1  0  0  0  0
M  END
>  <MODEL>
1

>  <REMARK>
 VINA RESULT:      -9.5      0.000      0.000
  Name = 
  3 active torsions:
  status: ('A' for Active; 'I' for Inactive)
    1  A    between atoms: C_1  and  N_7
    2  A    between atoms: C_3  and  C_11
    3  A    between atoms: C_15  and  C_21
                            x       y       z     vdW  Elec       q    Type
                         _______ _______ _______ _____ _____    ______ ____

>  <TORSDO>
F 3

$$$$
=
 OpenBabel11052410153D

 25 27  0  0  1  0  0  0  0  0999 V2000
  161.5350  205.0140  150.0990 C   0  0  0  0  0  0  0  0  0  0  0  0
  161.0930  203.1520  151.6080 C   0  0  0  0  0  3  0  0  0  0  0  0
  160.4120  201.0160  150.7280 O   0  0  0  0  0  1  0  0  0  0  0  0
  160.7820  202.3370  150.5220 C   0  0  0  0  0  0  0  0  0  0  0  0
  161.4710  204.4780  151.3960 C   0  0  0  0  0  3  0  0  0  0  0  0
  161.2110  204.1880  148.9910 C   0  0  0  0  0  0  0  0  0  0  0  0
  160.8430  202.8510  149.2270 C   0  0  0  0  0  3  0  0  0  0  0  0
  161.9790  206.3650  149.8890 N   0  0  0  0  0  2  0  0  0  0  0  0
  161.2210  209.8200  152.2320 C   0  0  0  0  0  0  0  0  0  0  0  0
  160.8350  207.4650  151.6640 N   0  0  0  0  0  0  0  0  0  0  0  0
  162.0580  209.9200  151.2460 N   0  0  0  0  0  0  0  0  0  0  0  0
  160.5410  208.5860  152.4540 N   0  0  0  0  0  2  0  0  0  0  0  0
  161.6760  207.5290  150.6740 C   0  0  0  0  0  0  0  0  0  0  0  0
  162.3170  208.8420  150.2880 C   0  0  1  0  0  3  0  0  0  0  0  0
  161.8380  209.2680  148.9130 C   0  0  0  0  0  1  0  0  0  0  0  0
  160.9890  210.9580  153.1300 C   0  0  0  0  0  0  0  0  0  0  0  0
  161.4880  210.9700  154.2870 O   0  0  0  0  0  1  0  0  0  0  0  0
  160.2150  212.0310  152.7070 O   0  0  0  0  0  0  0  0  0  0  0  0
  161.3150  205.6440  144.9440 C   0  0  0  0  0  0  0  0  0  0  0  0
  162.0010  204.4740  145.2780 C   0  0  0  0  0  3  0  0  0  0  0  0
  160.5630  205.8540  147.2340 C   0  0  0  0  0  3  0  0  0  0  0  0
  160.5990  206.3360  145.9220 C   0  0  0  0  0  3  0  0  0  0  0  0
  161.2390  204.6730  147.5840 C   0  0  0  0  0  0  0  0  0  0  0  0
  161.3500  206.1090  143.6720 F   0  0  0  0  0  0  0  0  0  0  0  0
  161.9640  203.9940  146.5900 C   0  0  0  0  0  3  0  0  0  0  0  0
  1  5  1  0  0  0  0
  4  3  1  0  0  0  0
  4  2  1  0  0  0  0
  5  2  2  0  0  0  0
  6  7  1  0  0  0  0
  6  1  2  0  0  0  0
  7  4  2  0  0  0  0
  8  1  1  0  0  0  0
  8 13  1  0  0  0  0
  9 12  1  0  0  0  0
  9 16  1  0  0  0  0
 10 12  1  0  0  0  0
 11  9  2  0  0  0  0
 13 10  2  0  0  0  0
 14 15  1  6  0  0  0
 14 13  1  0  0  0  0
 14 11  1  0  0  0  0
 16 17  1  0  0  0  0
 18 16  2  0  0  0  0
 19 20  2  0  0  0  0
 19 22  1  0  0  0  0
 20 25  1  0  0  0  0
 21 23  1  0  0  0  0
 22 21  2  0  0  0  0
 23  6  1  0  0  0  0
 24 19  1  0  0  0  0
 25 23  2  0  0  0  0
M  END
>  <MODEL>
2

>  <REMARK>
 VINA RESULT:      -9.3      0.089      1.167
  Name = 
  3 active torsions:
  status: ('A' for Active; 'I' for Inactive)
    1  A    between atoms: C_1  and  N_7
    2  A    between atoms: C_3  and  C_11
    3  A    between atoms: C_15  and  C_21
                            x       y       z     vdW  Elec       q    Type
                         _______ _______ _______ _____ _____    ______ ____

>  <TORSDO>
F 3

$$$$
=
 OpenBabel11052410153D

 25 27  0  0  1  0  0  0  0  0999 V2000
  161.4440  205.8070  150.5620 C   0  0  0  0  0  0  0  0  0  0  0  0
  161.0850  204.7780  152.7410 C   0  0  0  0  0  3  0  0  0  0  0  0
  160.9570  206.1460  154.7190 O   0  0  0  0  0  1  0  0  0  0  0  0
  161.1190  206.0330  153.3460 C   0  0  0  0  0  0  0  0  0  0  0  0
  161.2410  204.6690  151.3600 C   0  0  0  0  0  3  0  0  0  0  0  0
  161.4870  207.0860  151.1770 C   0  0  0  0  0  0  0  0  0  0  0  0
  161.3160  207.1740  152.5700 C   0  0  0  0  0  3  0  0  0  0  0  0
  161.5480  205.6860  149.1330 N   0  0  0  0  0  2  0  0  0  0  0  0
  161.0150  202.2560  146.6950 C   0  0  0  0  0  0  0  0  0  0  0  0
  161.2440  203.3380  148.8840 N   0  0  0  0  0  0  0  0  0  0  0  0
  161.1810  203.4020  146.1110 N   0  0  0  0  0  0  0  0  0  0  0  0
  161.0810  202.1750  148.1170 N   0  0  0  0  0  2  0  0  0  0  0  0
  161.4040  204.5040  148.3310 C   0  0  0  0  0  0  0  0  0  0  0  0
  161.4960  204.6410  146.8290 C   0  0  1  0  0  3  0  0  0  0  0  0
  162.8840  205.1080  146.4350 C   0  0  0  0  0  1  0  0  0  0  0  0
  160.7360  201.0510  145.9040 C   0  0  0  0  0  0  0  0  0  0  0  0
  160.0220  201.1180  144.8680 O   0  0  0  0  0  0  0  0  0  0  0  0
  161.2610  199.8250  146.2940 O   0  0  0  0  0  1  0  0  0  0  0  0
  162.1820  210.7320  149.0020 C   0  0  0  0  0  0  0  0  0  0  0  0
  162.0410  209.5270  148.3100 C   0  0  0  0  0  3  0  0  0  0  0  0
  161.8640  209.5620  151.0960 C   0  0  0  0  0  3  0  0  0  0  0  0
  162.0950  210.7500  150.3950 C   0  0  0  0  0  3  0  0  0  0  0  0
  161.7090  208.3440  150.4130 C   0  0  0  0  0  0  0  0  0  0  0  0
  162.4060  211.8820  148.3220 F   0  0  0  0  0  0  0  0  0  0  0  0
  161.8090  208.3420  149.0120 C   0  0  0  0  0  3  0  0  0  0  0  0
  1  6  2  0  0  0  0
  1  5  1  0  0  0  0
  2  4  1  0  0  0  0
  4  3  1  0  0  0  0
  5  2  2  0  0  0  0
  6  7  1  0  0  0  0
  7  4  2  0  0  0  0
  8  1  1  0  0  0  0
  9 12  1  0  0  0  0
 11  9  2  0  0  0  0
 11 14  1  0  0  0  0
 12 10  1  0  0  0  0
 13 10  2  0  0  0  0
 13  8  1  0  0  0  0
 14 15  1  1  0  0  0
 14 13  1  0  0  0  0
 16 18  1  0  0  0  0
 16  9  1  0  0  0  0
 17 16  2  0  0  0  0
 19 22  1  0  0  0  0
 20 19  2  0  0  0  0
 20 25  1  0  0  0  0
 22 21  2  0  0  0  0
 23 21  1  0  0  0  0
 23  6  1  0  0  0  0
 24 19  1  0  0  0  0
 25 23  2  0  0  0  0
M  END
>  <MODEL>
3

>  <REMARK>
 VINA RESULT:      -8.2      3.058      6.986
  Name = 
  3 active torsions:
  status: ('A' for Active; 'I' for Inactive)
    1  A    between atoms: C_1  and  N_7
    2  A    between atoms: C_3  and  C_11
    3  A    between atoms: C_15  and  C_21
                            x       y       z     vdW  Elec       q    Type
                         _______ _______ _______ _____ _____    ______ ____

>  <TORSDO>
F 3

$$$$
=
 OpenBabel11052410153D

 25 27  0  0  1  0  0  0  0  0999 V2000
  161.2700  206.0250  148.8450 C   0  0  0  0  0  0  0  0  0  0  0  0
  161.5980  207.1500  146.7080 C   0  0  0  0  0  3  0  0  0  0  0  0
  161.7830  205.8650  144.6800 O   0  0  0  0  0  1  0  0  0  0  0  0
  161.6150  205.9190  146.0550 C   0  0  0  0  0  0  0  0  0  0  0  0
  161.4220  207.2010  148.0910 C   0  0  0  0  0  3  0  0  0  0  0  0
  161.2950  204.7690  148.1830 C   0  0  0  0  0  0  0  0  0  0  0  0
  161.4630  204.7420  146.7870 C   0  0  0  0  0  3  0  0  0  0  0  0
  161.0350  206.0930  150.2610 N   0  0  0  0  0  2  0  0  0  0  0  0
  161.3970  209.4160  152.8740 C   0  0  0  0  0  0  0  0  0  0  0  0
  161.7100  208.3340  150.6950 N   0  0  0  0  0  0  0  0  0  0  0  0
  160.8960  208.3170  153.3470 N   0  0  0  0  0  0  0  0  0  0  0  0
  161.8650  209.4530  151.5280 N   0  0  0  0  0  2  0  0  0  0  0  0
  161.2040  207.2210  151.1350 C   0  0  0  0  0  0  0  0  0  0  0  0
  160.8280  207.0630  152.5900 C   0  0  1  0  0  3  0  0  0  0  0  0
  161.7230  206.0310  153.2480 C   0  0  0  0  0  1  0  0  0  0  0  0
  161.4630  210.6230  153.7070 C   0  0  0  0  0  0  0  0  0  0  0  0
  160.7440  211.6220  153.4400 O   0  0  0  0  0  0  0  0  0  0  0  0
  162.3210  210.6690  154.7990 O   0  0  0  0  0  1  0  0  0  0  0  0
  160.9410  201.0020  150.2310 C   0  0  0  0  0  0  0  0  0  0  0  0
  160.9950  202.1890  150.9660 C   0  0  0  0  0  3  0  0  0  0  0  0
  161.1110  202.2700  148.1770 C   0  0  0  0  0  3  0  0  0  0  0  0
  161.0020  201.0420  148.8370 C   0  0  0  0  0  3  0  0  0  0  0  0
  161.1540  203.4730  148.9010 C   0  0  0  0  0  0  0  0  0  0  0  0
  160.8350  199.8140  150.8720 F   0  0  0  0  0  0  0  0  0  0  0  0
  161.1030  203.4150  150.3040 C   0  0  0  0  0  3  0  0  0  0  0  0
  1  8  1  0  0  0  0
  2  5  1  0  0  0  0
  3  4  1  0  0  0  0
  4  2  2  0  0  0  0
  4  7  1  0  0  0  0
  5  1  2  0  0  0  0
  6  1  1  0  0  0  0
  6 23  1  0  0  0  0
  7  6  2  0  0  0  0
  8 13  1  0  0  0  0
  9 11  2  0  0  0  0
  9 16  1  0  0  0  0
 10 13  2  0  0  0  0
 10 12  1  0  0  0  0
 12  9  1  0  0  0  0
 13 14  1  0  0  0  0
 14 15  1  1  0  0  0
 14 11  1  0  0  0  0
 16 18  1  0  0  0  0
 17 16  2  0  0  0  0
 19 24  1  0  0  0  0
 19 20  1  0  0  0  0
 21 22  1  0  0  0  0
 21 23  2  0  0  0  0
 22 19  2  0  0  0  0
 23 25  1  0  0  0  0
 25 20  2  0  0  0  0
M  END
>  <MODEL>
4

>  <REMARK>
 VINA RESULT:      -7.9      2.763      4.287
  Name = 
  3 active torsions:
  status: ('A' for Active; 'I' for Inactive)
    1  A    between atoms: C_1  and  N_7
    2  A    between atoms: C_3  and  C_11
    3  A    between atoms: C_15  and  C_21
                            x       y       z     vdW  Elec       q    Type
                         _______ _______ _______ _____ _____    ______ ____

>  <TORSDO>
F 3

$$$$
=
 OpenBabel11052410153D

 25 27  0  0  1  0  0  0  0  0999 V2000
  161.7480  207.6550  150.6800 C   0  0  0  0  0  0  0  0  0  0  0  0
  162.1610  209.2870  148.9180 C   0  0  0  0  0  3  0  0  0  0  0  0
  162.0460  211.6440  149.4000 O   0  0  0  0  0  1  0  0  0  0  0  0
  161.9470  210.3260  149.8210 C   0  0  0  0  0  0  0  0  0  0  0  0
  162.0660  207.9630  149.3470 C   0  0  0  0  0  3  0  0  0  0  0  0
  161.5210  208.7120  151.6000 C   0  0  0  0  0  0  0  0  0  0  0  0
  161.6320  210.0390  151.1490 C   0  0  0  0  0  3  0  0  0  0  0  0
  161.7070  206.2880  151.1220 N   0  0  0  0  0  2  0  0  0  0  0  0
  161.1030  202.7590  148.8470 C   0  0  0  0  0  0  0  0  0  0  0  0
  161.1370  205.2000  149.0830 N   0  0  0  0  0  0  0  0  0  0  0  0
  161.4160  202.6330  150.0990 N   0  0  0  0  0  0  0  0  0  0  0  0
  160.9110  204.0600  148.2970 N   0  0  0  0  0  2  0  0  0  0  0  0
  161.4600  205.1100  150.3390 C   0  0  0  0  0  0  0  0  0  0  0  0
  161.5320  203.7650  151.0240 C   0  0  1  0  0  3  0  0  0  0  0  0
  160.4480  203.6620  152.0800 C   0  0  0  0  0  1  0  0  0  0  0  0
  160.9710  201.5740  147.9900 C   0  0  0  0  0  0  0  0  0  0  0  0
  161.2400  200.4280  148.4400 O   0  0  0  0  0  1  0  0  0  0  0  0
  160.5450  201.7100  146.6750 O   0  0  0  0  0  0  0  0  0  0  0  0
  160.4460  208.0810  155.7180 C   0  0  0  0  0  0  0  0  0  0  0  0
  160.5640  206.9880  154.8560 C   0  0  0  0  0  3  0  0  0  0  0  0
  161.0320  209.5710  153.9040 C   0  0  0  0  0  3  0  0  0  0  0  0
  160.6770  209.3730  155.2410 C   0  0  0  0  0  3  0  0  0  0  0  0
  161.1660  208.4800  153.0270 C   0  0  0  0  0  0  0  0  0  0  0  0
  160.1030  207.8870  157.0140 F   0  0  0  0  0  0  0  0  0  0  0  0
  160.9190  207.1880  153.5200 C   0  0  0  0  0  3  0  0  0  0  0  0
  1  8  1  0  0  0  0
  1  6  1  0  0  0  0
  2  5  1  0  0  0  0
  2  4  2  0  0  0  0
  3  4  1  0  0  0  0
  4  7  1  0  0  0  0
  5  1  2  0  0  0  0
  6 23  1  0  0  0  0
  7  6  2  0  0  0  0
  9 11  2  0  0  0  0
 10 13  2  0  0  0  0
 11 14  1  0  0  0  0
 12  9  1  0  0  0  0
 12 10  1  0  0  0  0
 13 14  1  0  0  0  0
 13  8  1  0  0  0  0
 14 15  1  1  0  0  0
 16 17  1  0  0  0  0
 16  9  1  0  0  0  0
 18 16  2  0  0  0  0
 19 24  1  0  0  0  0
 20 19  2  0  0  0  0
 21 22  2  0  0  0  0
 22 19  1  0  0  0  0
 23 25  2  0  0  0  0
 23 21  1  0  0  0  0
 25 20  1  0  0  0  0
M  END
>  <MODEL>
5

>  <REMARK>
 VINA RESULT:      -7.8      3.757      8.204
  Name = 
  3 active torsions:
  status: ('A' for Active; 'I' for Inactive)
    1  A    between atoms: C_1  and  N_7
    2  A    between atoms: C_3  and  C_11
    3  A    between atoms: C_15  and  C_21
                            x       y       z     vdW  Elec       q    Type
                         _______ _______ _______ _____ _____    ______ ____

>  <TORSDO>
F 3

$$$$
=
 OpenBabel11052410153D

 25 27  0  0  1  0  0  0  0  0999 V2000
  161.5150  208.1150  152.5330 C   0  0  0  0  0  0  0  0  0  0  0  0
  161.1950  208.8790  154.8250 C   0  0  0  0  0  3  0  0  0  0  0  0
  160.5210  207.3240  156.5360 O   0  0  0  0  0  1  0  0  0  0  0  0
  160.8490  207.5870  155.2140 C   0  0  0  0  0  0  0  0  0  0  0  0
  161.5290  209.1380  153.4960 C   0  0  0  0  0  3  0  0  0  0  0  0
  161.1550  206.7990  152.9260 C   0  0  0  0  0  0  0  0  0  0  0  0
  160.8310  206.5580  154.2730 C   0  0  0  0  0  3  0  0  0  0  0  0
  161.9150  208.3820  151.1790 N   0  0  0  0  0  2  0  0  0  0  0  0
  161.7300  212.0220  149.0070 C   0  0  0  0  0  0  0  0  0  0  0  0
  161.2040  210.6450  150.9670 N   0  0  0  0  0  0  0  0  0  0  0  0
  162.3300  211.0120  148.4580 N   0  0  0  0  0  0  0  0  0  0  0  0
  161.1040  211.8620  150.2780 N   0  0  0  0  0  2  0  0  0  0  0  0
  161.8050  209.6150  150.4490 C   0  0  0  0  0  0  0  0  0  0  0  0
  162.3590  209.6680  149.0440 C   0  0  1  0  0  3  0  0  0  0  0  0
  161.5920  208.7140  148.1480 C   0  0  0  0  0  1  0  0  0  0  0  0
  161.7150  213.3300  148.3410 C   0  0  0  0  0  0  0  0  0  0  0  0
  162.7690  213.8040  147.8390 O   0  0  0  0  0  0  0  0  0  0  0  0
  160.5320  214.0550  148.2600 O   0  0  0  0  0  1  0  0  0  0  0  0
  160.9490  203.4720  150.2060 C   0  0  0  0  0  0  0  0  0  0  0  0
  160.8300  204.7760  149.7180 C   0  0  0  0  0  3  0  0  0  0  0  0
  161.2060  204.3380  152.4500 C   0  0  0  0  0  3  0  0  0  0  0  0
  161.1340  203.2530  151.5720 C   0  0  0  0  0  3  0  0  0  0  0  0
  161.1000  205.6560  151.9740 C   0  0  0  0  0  0  0  0  0  0  0  0
  160.8790  202.4210  149.3540 F   0  0  0  0  0  0  0  0  0  0  0  0
  160.9030  205.8590  150.5970 C   0  0  0  0  0  3  0  0  0  0  0  0
  1  6  2  0  0  0  0
  1  5  1  0  0  0  0
  2  4  1  0  0  0  0
  4  3  1  0  0  0  0
  5  2  2  0  0  0  0
  6  7  1  0  0  0  0
  7  4  2  0  0  0  0
  8  1  1  0  0  0  0
  9 12  1  0  0  0  0
 11  9  2  0  0  0  0
 11 14  1  0  0  0  0
 12 10  1  0  0  0  0
 13 10  2  0  0  0  0
 13  8  1  0  0  0  0
 14 15  1  6  0  0  0
 14 13  1  0  0  0  0
 16  9  1  0  0  0  0
 17 16  2  0  0  0  0
 18 16  1  0  0  0  0
 19 22  1  0  0  0  0
 20 19  2  0  0  0  0
 20 25  1  0  0  0  0
 22 21  2  0  0  0  0
 23 21  1  0  0  0  0
 23  6  1  0  0  0  0
 24 19  1  0  0  0  0
 25 23  2  0  0  0  0
M  END
>  <MODEL>
6

>  <REMARK>
 VINA RESULT:      -7.3      3.306      5.137
  Name = 
  3 active torsions:
  status: ('A' for Active; 'I' for Inactive)
    1  A    between atoms: C_1  and  N_7
    2  A    between atoms: C_3  and  C_11
    3  A    between atoms: C_15  and  C_21
                            x       y       z     vdW  Elec       q    Type
                         _______ _______ _______ _____ _____    ______ ____

>  <TORSDO>
F 3

$$$$
=
 OpenBabel11052410153D

 25 27  0  0  1  0  0  0  0  0999 V2000
  160.8210  208.0710  152.8960 C   0  0  0  0  0  0  0  0  0  0  0  0
  161.0370  206.9460  155.0460 C   0  0  0  0  0  3  0  0  0  0  0  0
  160.4830  208.1080  157.0820 O   0  0  0  0  0  1  0  0  0  0  0  0
  160.5960  208.0950  155.6990 C   0  0  0  0  0  0  0  0  0  0  0  0
  161.1440  206.9350  153.6560 C   0  0  0  0  0  3  0  0  0  0  0  0
  160.3790  209.2460  153.5600 C   0  0  0  0  0  0  0  0  0  0  0  0
  160.2690  209.2320  154.9620 C   0  0  0  0  0  3  0  0  0  0  0  0
  160.8820  208.0300  151.4600 N   0  0  0  0  0  2  0  0  0  0  0  0
  161.1570  204.6630  148.8940 C   0  0  0  0  0  0  0  0  0  0  0  0
  161.2000  205.6950  151.1180 N   0  0  0  0  0  0  0  0  0  0  0  0
  160.9830  205.8300  148.3560 N   0  0  0  0  0  0  0  0  0  0  0  0
  161.3140  204.5560  150.3070 N   0  0  0  0  0  2  0  0  0  0  0  0
  161.0170  206.8780  150.6120 C   0  0  0  0  0  0  0  0  0  0  0  0
  160.9930  207.0840  149.1150 C   0  0  1  0  0  3  0  0  0  0  0  0
  162.1850  207.9190  148.6880 C   0  0  0  0  0  1  0  0  0  0  0  0
  161.1690  203.4540  148.0610 C   0  0  0  0  0  0  0  0  0  0  0  0
  161.5910  203.5000  146.8750 O   0  0  0  0  0  0  0  0  0  0  0  0
  160.7150  202.2480  148.5800 O   0  0  0  0  0  1  0  0  0  0  0  0
  159.3530  212.8980  151.5290 C   0  0  0  0  0  0  0  0  0  0  0  0
  160.6060  212.3170  151.3220 C   0  0  0  0  0  3  0  0  0  0  0  0
  158.7750  211.1020  153.0450 C   0  0  0  0  0  3  0  0  0  0  0  0
  158.4380  212.2920  152.3930 C   0  0  0  0  0  3  0  0  0  0  0  0
  160.0280  210.5000  152.8380 C   0  0  0  0  0  0  0  0  0  0  0  0
  159.0270  214.0500  150.8970 F   0  0  0  0  0  0  0  0  0  0  0  0
  160.9410  211.1280  151.9740 C   0  0  0  0  0  3  0  0  0  0  0  0
  1  6  2  0  0  0  0
  1  5  1  0  0  0  0
  2  4  1  0  0  0  0
  4  3  1  0  0  0  0
  5  2  2  0  0  0  0
  6  7  1  0  0  0  0
  7  4  2  0  0  0  0
  8  1  1  0  0  0  0
  9 12  1  0  0  0  0
 11  9  2  0  0  0  0
 11 14  1  0  0  0  0
 12 10  1  0  0  0  0
 13 10  2  0  0  0  0
 13  8  1  0  0  0  0
 14 15  1  6  0  0  0
 14 13  1  0  0  0  0
 16 18  1  0  0  0  0
 16  9  1  0  0  0  0
 17 16  2  0  0  0  0
 19 22  1  0  0  0  0
 20 19  2  0  0  0  0
 20 25  1  0  0  0  0
 22 21  2  0  0  0  0
 23 21  1  0  0  0  0
 23  6  1  0  0  0  0
 24 19  1  0  0  0  0
 25 23  2  0  0  0  0
M  END
>  <MODEL>
7

>  <REMARK>
 VINA RESULT:      -7.0      3.284      7.397
  Name = 
  3 active torsions:
  status: ('A' for Active; 'I' for Inactive)
    1  A    between atoms: C_1  and  N_7
    2  A    between atoms: C_3  and  C_11
    3  A    between atoms: C_15  and  C_21
                            x       y       z     vdW  Elec       q    Type
                         _______ _______ _______ _____ _____    ______ ____

>  <TORSDO>
F 3

$$$$
=
 OpenBabel11052410153D

 25 27  0  0  1  0  0  0  0  0999 V2000
  161.0460  207.6510  152.3350 C   0  0  0  0  0  0  0  0  0  0  0  0
  160.9940  206.9490  154.6680 C   0  0  0  0  0  3  0  0  0  0  0  0
  160.9930  208.5940  156.4280 O   0  0  0  0  0  1  0  0  0  0  0  0
  161.0120  208.2810  155.0760 C   0  0  0  0  0  0  0  0  0  0  0  0
  161.0060  206.6390  153.3080 C   0  0  0  0  0  3  0  0  0  0  0  0
  161.0730  209.0100  152.7490 C   0  0  0  0  0  0  0  0  0  0  0  0
  161.0490  209.3000  154.1250 C   0  0  0  0  0  3  0  0  0  0  0  0
  161.0030  207.3210  150.9370 N   0  0  0  0  0  2  0  0  0  0  0  0
  161.0170  203.5000  149.0920 C   0  0  0  0  0  0  0  0  0  0  0  0
  161.2430  204.9550  151.0550 N   0  0  0  0  0  0  0  0  0  0  0  0
  160.8310  204.5420  148.3420 N   0  0  0  0  0  0  0  0  0  0  0  0
  161.2720  203.6740  150.4850 N   0  0  0  0  0  2  0  0  0  0  0  0
  161.0500  206.0190  150.3320 C   0  0  0  0  0  0  0  0  0  0  0  0
  160.9240  205.9220  148.8300 C   0  0  1  0  0  3  0  0  0  0  0  0
  162.1010  206.6090  148.1650 C   0  0  0  0  0  1  0  0  0  0  0  0
  160.9410  202.1500  148.5230 C   0  0  0  0  0  0  0  0  0  0  0  0
  160.9750  201.1380  149.2730 O   0  0  0  0  0  1  0  0  0  0  0  0
  160.8310  201.9790  147.1490 O   0  0  0  0  0  0  0  0  0  0  0  0
  161.2140  212.2580  149.9310 C   0  0  0  0  0  0  0  0  0  0  0  0
  160.4220  212.3670  151.0770 C   0  0  0  0  0  3  0  0  0  0  0  0
  161.9110  210.0480  150.6270 C   0  0  0  0  0  3  0  0  0  0  0  0
  161.9560  211.0980  149.7050 C   0  0  0  0  0  3  0  0  0  0  0  0
  161.1280  210.1470  151.7900 C   0  0  0  0  0  0  0  0  0  0  0  0
  161.2570  213.2760  149.0390 F   0  0  0  0  0  0  0  0  0  0  0  0
  160.3780  211.3170  151.9980 C   0  0  0  0  0  3  0  0  0  0  0  0
  1  6  2  0  0  0  0
  1  5  1  0  0  0  0
  2  4  1  0  0  0  0
  4  3  1  0  0  0  0
  5  2  2  0  0  0  0
  6  7  1  0  0  0  0
  7  4  2  0  0  0  0
  8  1  1  0  0  0  0
  9 12  1  0  0  0  0
 11 14  1  0  0  0  0
 11  9  2  0  0  0  0
 12 10  1  0  0  0  0
 13  8  1  0  0  0  0
 13 10  2  0  0  0  0
 14 15  1  6  0  0  0
 14 13  1  0  0  0  0
 16  9  1  0  0  0  0
 16 17  1  0  0  0  0
 18 16  2  0  0  0  0
 19 20  1  0  0  0  0
 20 25  2  0  0  0  0
 21 23  2  0  0  0  0
 22 19  2  0  0  0  0
 22 21  1  0  0  0  0
 23 25  1  0  0  0  0
 23  6  1  0  0  0  0
 24 19  1  0  0  0  0
M  END
>  <MODEL>
8

>  <REMARK>
 VINA RESULT:      -7.0      2.874      7.051
  Name = 
  3 active torsions:
  status: ('A' for Active; 'I' for Inactive)
    1  A    between atoms: C_1  and  N_7
    2  A    between atoms: C_3  and  C_11
    3  A    between atoms: C_15  and  C_21
                            x       y       z     vdW  Elec       q    Type
                         _______ _______ _______ _____ _____    ______ ____

>  <TORSDO>
F 3

$$$$
=
 OpenBabel11052410153D

 25 27  0  0  1  0  0  0  0  0999 V2000
  161.9030  209.1630  150.6240 C   0  0  0  0  0  0  0  0  0  0  0  0
  162.1290  210.3630  148.5160 C   0  0  0  0  0  3  0  0  0  0  0  0
  161.6270  212.7160  148.4020 O   0  0  0  0  0  1  0  0  0  0  0  0
  161.7180  211.5410  149.1340 C   0  0  0  0  0  0  0  0  0  0  0  0
  162.2250  209.1850  149.2570 C   0  0  0  0  0  3  0  0  0  0  0  0
  161.4750  210.3610  151.2550 C   0  0  0  0  0  0  0  0  0  0  0  0
  161.3960  211.5390  150.4910 C   0  0  0  0  0  3  0  0  0  0  0  0
  162.0580  207.9560  151.3900 N   0  0  0  0  0  2  0  0  0  0  0  0
  161.0550  203.9720  150.3320 C   0  0  0  0  0  0  0  0  0  0  0  0
  161.0180  206.3910  149.9280 N   0  0  0  0  0  0  0  0  0  0  0  0
  161.7000  204.1670  151.4400 N   0  0  0  0  0  0  0  0  0  0  0  0
  160.6510  205.0920  149.5470 N   0  0  0  0  0  2  0  0  0  0  0  0
  161.6730  206.6210  151.0270 C   0  0  0  0  0  0  0  0  0  0  0  0
  162.0000  205.4960  151.9820 C   0  0  1  0  0  3  0  0  0  0  0  0
  161.2490  205.6870  153.2850 C   0  0  0  0  0  1  0  0  0  0  0  0
  160.7610  202.6090  149.8720 C   0  0  0  0  0  0  0  0  0  0  0  0
  160.8530  201.6340  150.6640 O   0  0  0  0  0  1  0  0  0  0  0  0
  160.3780  202.3880  148.5550 O   0  0  0  0  0  0  0  0  0  0  0  0
  160.4350  210.6060  155.4230 C   0  0  0  0  0  0  0  0  0  0  0  0
  159.4340  210.6850  154.4520 C   0  0  0  0  0  3  0  0  0  0  0  0
  162.0990  210.3620  153.6830 C   0  0  0  0  0  3  0  0  0  0  0  0
  161.7670  210.4470  155.0380 C   0  0  0  0  0  3  0  0  0  0  0  0
  161.1020  210.4280  152.6950 C   0  0  0  0  0  0  0  0  0  0  0  0
  160.1120  210.6880  156.7360 F   0  0  0  0  0  0  0  0  0  0  0  0
  159.7670  210.6000  153.0980 C   0  0  0  0  0  3  0  0  0  0  0  0
  1  6  1  0  0  0  0
  1  8  1  0  0  0  0
  2  4  2  0  0  0  0
  2  5  1  0  0  0  0
  3  4  1  0  0  0  0
  4  7  1  0  0  0  0
  5  1  2  0  0  0  0
  6 23  1  0  0  0  0
  7  6  2  0  0  0  0
  9 11  2  0  0  0  0
 10 13  2  0  0  0  0
 11 14  1  0  0  0  0
 12 10  1  0  0  0  0
 12  9  1  0  0  0  0
 13  8  1  0  0  0  0
 13 14  1  0  0  0  0
 14 15  1  1  0  0  0
 16  9  1  0  0  0  0
 16 17  1  0  0  0  0
 18 16  2  0  0  0  0
 19 24  1  0  0  0  0
 20 19  2  0  0  0  0
 21 22  2  0  0  0  0
 22 19  1  0  0  0  0
 23 25  2  0  0  0  0
 23 21  1  0  0  0  0
 25 20  1  0  0  0  0
M  END
>  <MODEL>
9

>  <REMARK>
 VINA RESULT:      -6.9      3.990      8.183
  Name = 
  3 active torsions:
  status: ('A' for Active; 'I' for Inactive)
    1  A    between atoms: C_1  and  N_7
    2  A    between atoms: C_3  and  C_11
    3  A    between atoms: C_15  and  C_21
                            x       y       z     vdW  Elec       q    Type
                         _______ _______ _______ _____ _____    ______ ____

>  <TORSDO>
F 3

$$$$
