=
 OpenBabel11052409413D

 38 42  0  0  1  0  0  0  0  0999 V2000
  160.9810  211.4110  141.2560 C   0  0  0  0  0  3  0  0  0  0  0  0
  162.4960  213.3040  147.1830 N   0  0  0  0  0  0  0  0  0  0  0  0
  160.3000  211.8690  142.2590 N   0  0  0  0  0  0  0  0  0  0  0  0
  162.1970  212.1860  141.0350 C   0  0  0  0  0  2  0  0  0  0  0  0
  157.3460  213.5020  146.9740 C   0  0  0  0  0  0  0  0  0  0  0  0
  162.1630  213.1500  141.9350 C   0  0  2  0  0  3  0  0  0  0  0  0
  160.5690  211.9460  146.5580 C   0  0  0  0  0  2  0  0  0  0  0  0
  163.3180  213.8420  142.3870 N   0  0  0  0  0  0  0  0  0  0  0  0
  163.0590  213.5380  146.0360 C   0  0  0  0  0  3  0  0  0  0  0  0
  158.0500  213.2690  145.9070 C   0  0  0  0  0  0  0  0  0  0  0  0
  159.1220  214.4530  148.4790 C   0  0  0  0  0  2  0  0  0  0  0  0
  158.8720  213.0570  144.9230 C   0  0  0  0  0  3  0  0  0  0  0  0
  160.9480  213.0660  142.7750 C   0  0  2  0  0  3  0  0  0  0  0  0
  162.4930  213.5190  144.6690 C   0  0  0  0  0  0  0  0  0  0  0  0
  163.4670  214.0370  143.6640 C   0  0  0  0  0  3  0  0  0  0  0  0
  161.1150  213.0050  147.5390 C   0  0  2  0  0  0  0  0  0  0  0  0
  160.2260  212.4300  145.1450 C   0  0  1  0  0  3  0  0  0  0  0  0
  160.3030  214.3230  147.4930 C   0  0  0  0  0  2  0  0  0  0  0  0
  161.3100  212.9770  144.2500 C   0  0  0  0  0  0  0  0  0  0  0  0
  158.0320  213.3920  148.3020 C   0  0  0  0  0  2  0  0  0  0  0  0
  160.7150  213.1680  149.9850 C   0  0  0  0  0  0  0  0  0  0  0  0
  161.1480  212.4550  148.9700 C   0  0  0  0  0  0  0  0  0  0  0  0
  160.2810  213.8730  150.9970 C   0  0  0  0  0  3  0  0  0  0  0  0
  159.3330  213.3370  151.9840 C   0  0  0  0  0  0  0  0  0  0  0  0
  158.1270  213.9900  152.2840 C   0  0  0  0  0  3  0  0  0  0  0  0
  159.6540  212.1460  152.6470 C   0  0  0  0  0  3  0  0  0  0  0  0
  158.7790  211.6080  153.5960 C   0  0  0  0  0  3  0  0  0  0  0  0
  157.2520  213.4530  153.2320 C   0  0  0  0  0  3  0  0  0  0  0  0
  157.5780  212.2630  153.8920 C   0  0  0  0  0  0  0  0  0  0  0  0
  156.6340  211.6790  154.8880 C   0  0  0  0  0  2  0  0  0  0  0  0
  157.5540  211.8640  157.0870 O   0  0  0  0  0  1  0  0  0  0  0  0
  155.2790  212.4740  156.8000 C   0  0  0  0  0  1  0  0  0  0  0  0
  156.6650  212.4610  156.1920 C   0  0  2  0  0  3  0  0  0  0  0  0
  162.2200  210.4240  148.3220 O   0  0  0  0  0  0  0  0  0  0  0  0
  161.6530  210.5710  150.5290 O   0  0  0  0  0  1  0  0  0  0  0  0
  161.7000  211.1050  149.2470 C   0  0  0  0  0  0  0  0  0  0  0  0
  155.4570  214.3730  145.6540 C   0  0  0  0  0  1  0  0  0  0  0  0
  155.9990  213.8470  146.8570 O   0  0  0  0  0  0  0  0  0  0  0  0
  1  3  2  0  0  0  0
  2 16  1  0  0  0  0
  4  1  1  0  0  0  0
  5 20  1  0  0  0  0
  6  4  1  1  0  0  0
  6  8  1  0  0  0  0
  6 13  1  0  0  0  0
  7 16  1  0  0  0  0
  8 15  2  0  0  0  0
  9  2  2  0  0  0  0
 10  5  2  0  0  0  0
 12 10  2  0  0  0  0
 13  3  1  6  0  0  0
 13 19  1  0  0  0  0
 14  9  1  0  0  0  0
 15 14  1  0  0  0  0
 16 22  1  1  0  0  0
 17 12  1  1  0  0  0
 17  7  1  0  0  0  0
 18 16  1  0  0  0  0
 18 11  1  0  0  0  0
 19 14  2  0  0  0  0
 19 17  1  0  0  0  0
 20 11  1  0  0  0  0
 21 23  2  0  0  0  0
 22 36  1  0  0  0  0
 22 21  2  0  0  0  0
 23 24  1  0  0  0  0
 24 25  2  0  0  0  0
 24 26  1  0  0  0  0
 25 28  1  0  0  0  0
 26 27  2  0  0  0  0
 27 29  1  0  0  0  0
 28 29  2  0  0  0  0
 29 30  1  0  0  0  0
 30 33  1  0  0  0  0
 33 32  1  1  0  0  0
 33 31  1  0  0  0  0
 34 36  2  0  0  0  0
 36 35  1  0  0  0  0
 37 38  1  0  0  0  0
 38  5  1  0  0  0  0
M  END
>  <MODEL>
1

>  <REMARK>
 VINA RESULT:      -5.3      0.000      0.000
  Name = 
  6 active torsions:
  status: ('A' for Active; 'I' for Inactive)
    1  A    between atoms: C_3  and  C_36
    2  A    between atoms: C_11  and  O_38
    3  A    between atoms: C_12  and  C_24
    4  A    between atoms: C_12  and  C_30
    5  A    between atoms: C_21  and  C_25
    6  A    between atoms: C_25  and  C_32
                            x       y       z     vdW  Elec       q    Type
                         _______ _______ _______ _____ _____    ______ ____

>  <TORSDO>
F 6

$$$$
=
 OpenBabel11052409413D

 38 42  0  0  1  0  0  0  0  0999 V2000
  159.6500  206.4570  156.2500 C   0  0  0  0  0  3  0  0  0  0  0  0
  161.1140  211.8520  153.1250 N   0  0  0  0  0  0  0  0  0  0  0  0
  160.0790  206.7210  155.0570 N   0  0  0  0  0  0  0  0  0  0  0  0
  160.3780  207.2160  157.2610 C   0  0  0  0  0  2  0  0  0  0  0  0
  161.5680  208.0930  149.6230 C   0  0  0  0  0  0  0  0  0  0  0  0
  161.2880  207.9010  156.5940 C   0  0  2  0  0  3  0  0  0  0  0  0
  159.8880  209.9510  152.2120 C   0  0  0  0  0  2  0  0  0  0  0  0
  161.8950  209.0850  157.0870 N   0  0  0  0  0  0  0  0  0  0  0  0
  161.3880  211.4560  154.3320 C   0  0  0  0  0  3  0  0  0  0  0  0
  161.3660  207.8180  150.8760 C   0  0  0  0  0  0  0  0  0  0  0  0
  162.3430  210.4780  149.8110 C   0  0  0  0  0  2  0  0  0  0  0  0
  161.1740  207.6860  152.1550 C   0  0  0  0  0  3  0  0  0  0  0  0
  161.2110  207.6320  155.1410 C   0  0  2  0  0  3  0  0  0  0  0  0
  161.4780  210.0910  154.8960 C   0  0  0  0  0  0  0  0  0  0  0  0
  162.0070  210.1060  156.2910 C   0  0  0  0  0  3  0  0  0  0  0  0
  160.8600  211.1080  151.8980 C   0  0  2  0  0  0  0  0  0  0  0  0
  160.4710  208.7490  152.9620 C   0  0  1  0  0  3  0  0  0  0  0  0
  162.2160  210.6040  151.3450 C   0  0  0  0  0  2  0  0  0  0  0  0
  161.0180  208.9210  154.3580 C   0  0  0  0  0  0  0  0  0  0  0  0
  161.3470  209.5060  149.1730 C   0  0  0  0  0  2  0  0  0  0  0  0
  160.9230  212.6340  149.9390 C   0  0  0  0  0  0  0  0  0  0  0  0
  160.2250  212.1010  150.9160 C   0  0  0  0  0  0  0  0  0  0  0  0
  161.6130  213.1640  148.9630 C   0  0  0  0  0  3  0  0  0  0  0  0
  161.1360  213.1730  147.5730 C   0  0  0  0  0  0  0  0  0  0  0  0
  161.8680  213.7840  146.5430 C   0  0  0  0  0  3  0  0  0  0  0  0
  159.9120  212.5610  147.2780 C   0  0  0  0  0  3  0  0  0  0  0  0
  159.4240  212.5530  145.9670 C   0  0  0  0  0  3  0  0  0  0  0  0
  161.3810  213.7760  145.2330 C   0  0  0  0  0  3  0  0  0  0  0  0
  160.1570  213.1640  144.9430 C   0  0  0  0  0  0  0  0  0  0  0  0
  159.6480  213.1380  143.5420 C   0  0  0  0  0  2  0  0  0  0  0  0
  160.5860  213.7000  141.4150 O   0  0  0  0  0  1  0  0  0  0  0  0
  160.8210  211.4570  142.1540 C   0  0  0  0  0  1  0  0  0  0  0  0
  160.7830  212.9160  142.5530 C   0  0  2  0  0  3  0  0  0  0  0  0
  158.1970  213.0710  150.1170 O   0  0  0  0  0  0  0  0  0  0  0  0
  158.1220  212.2650  152.2510 O   0  0  0  0  0  1  0  0  0  0  0  0
  158.8050  212.5050  151.0650 C   0  0  0  0  0  0  0  0  0  0  0  0
  161.0710  206.1650  148.1720 C   0  0  0  0  0  1  0  0  0  0  0  0
  161.9830  207.0880  148.7480 O   0  0  0  0  0  0  0  0  0  0  0  0
  1  4  1  0  0  0  0
  2  9  2  0  0  0  0
  3 13  1  0  0  0  0
  3  1  2  0  0  0  0
  5 10  2  0  0  0  0
  6  8  1  0  0  0  0
  6  4  1  6  0  0  0
  7 17  1  0  0  0  0
  9 14  1  0  0  0  0
 10 12  2  0  0  0  0
 11 18  1  0  0  0  0
 13 19  1  6  0  0  0
 13  6  1  0  0  0  0
 14 15  1  0  0  0  0
 15  8  2  0  0  0  0
 16 22  1  6  0  0  0
 16  7  1  0  0  0  0
 16  2  1  0  0  0  0
 17 12  1  6  0  0  0
 17 19  1  0  0  0  0
 18 16  1  0  0  0  0
 19 14  2  0  0  0  0
 20  5  1  0  0  0  0
 20 11  1  0  0  0  0
 21 22  2  0  0  0  0
 22 36  1  0  0  0  0
 23 21  2  0  0  0  0
 24 23  1  0  0  0  0
 25 24  2  0  0  0  0
 26 24  1  0  0  0  0
 27 26  2  0  0  0  0
 28 25  1  0  0  0  0
 29 28  2  0  0  0  0
 29 27  1  0  0  0  0
 30 29  1  0  0  0  0
 31 33  1  0  0  0  0
 33 32  1  6  0  0  0
 33 30  1  0  0  0  0
 34 36  2  0  0  0  0
 36 35  1  0  0  0  0
 37 38  1  0  0  0  0
 38  5  1  0  0  0  0
M  END
>  <MODEL>
2

>  <REMARK>
 VINA RESULT:      -4.1      4.132      9.986
  Name = 
  6 active torsions:
  status: ('A' for Active; 'I' for Inactive)
    1  A    between atoms: C_3  and  C_36
    2  A    between atoms: C_11  and  O_38
    3  A    between atoms: C_12  and  C_24
    4  A    between atoms: C_12  and  C_30
    5  A    between atoms: C_21  and  C_25
    6  A    between atoms: C_25  and  C_32
                            x       y       z     vdW  Elec       q    Type
                         _______ _______ _______ _____ _____    ______ ____

>  <TORSDO>
F 6

$$$$
=
 OpenBabel11052409413D

 38 42  0  0  1  0  0  0  0  0999 V2000
  159.6720  211.5050  140.3500 C   0  0  0  0  0  3  0  0  0  0  0  0
  163.0560  213.4310  145.4340 N   0  0  0  0  0  0  0  0  0  0  0  0
  159.3600  211.9350  141.5320 N   0  0  0  0  0  0  0  0  0  0  0  0
  160.7130  212.3250  139.7400 C   0  0  0  0  0  2  0  0  0  0  0  0
  158.1410  213.4420  146.9970 C   0  0  0  0  0  0  0  0  0  0  0  0
  160.9570  213.2840  140.6130 C   0  0  2  0  0  3  0  0  0  0  0  0
  161.0780  212.0060  145.4820 C   0  0  0  0  0  2  0  0  0  0  0  0
  162.1730  214.0160  140.6540 N   0  0  0  0  0  0  0  0  0  0  0  0
  163.1860  213.6900  144.1670 C   0  0  0  0  0  3  0  0  0  0  0  0
  158.4450  213.2390  145.7500 C   0  0  0  0  0  0  0  0  0  0  0  0
  160.2920  214.4520  147.8200 C   0  0  0  0  0  2  0  0  0  0  0  0
  158.8890  213.0600  144.5420 C   0  0  0  0  0  3  0  0  0  0  0  0
  160.1060  213.1530  141.8150 C   0  0  2  0  0  3  0  0  0  0  0  0
  162.1880  213.6550  143.0750 C   0  0  0  0  0  0  0  0  0  0  0  0
  162.7430  214.2110  141.8060 C   0  0  0  0  0  3  0  0  0  0  0  0
  161.8900  213.0800  146.2340 C   0  0  2  0  0  0  0  0  0  0  0  0
  160.2570  212.4820  144.2790 C   0  0  1  0  0  3  0  0  0  0  0  0
  161.0690  214.3680  146.4890 C   0  0  0  0  0  2  0  0  0  0  0  0
  160.9510  213.0720  143.0760 C   0  0  0  0  0  0  0  0  0  0  0  0
  159.2430  213.3520  148.0090 C   0  0  0  0  0  2  0  0  0  0  0  0
  161.6640  211.8320  148.3700 C   0  0  0  0  0  0  0  0  0  0  0  0
  162.4290  212.5270  147.5600 C   0  0  0  0  0  0  0  0  0  0  0  0
  160.9060  211.1350  149.1770 C   0  0  0  0  0  3  0  0  0  0  0  0
  161.3250  209.8400  149.7310 C   0  0  0  0  0  0  0  0  0  0  0  0
  161.8000  208.8030  148.9130 C   0  0  0  0  0  3  0  0  0  0  0  0
  161.2350  209.6390  151.1140 C   0  0  0  0  0  3  0  0  0  0  0  0
  161.6210  208.4180  151.6770 C   0  0  0  0  0  3  0  0  0  0  0  0
  162.1850  207.5820  149.4740 C   0  0  0  0  0  3  0  0  0  0  0  0
  162.0930  207.3870  150.8570 C   0  0  0  0  0  0  0  0  0  0  0  0
  162.5240  206.0920  151.4580 C   0  0  0  0  0  2  0  0  0  0  0  0
  162.1520  205.8720  153.8100 O   0  0  0  0  0  1  0  0  0  0  0  0
  161.2580  204.1860  152.4000 C   0  0  0  0  0  1  0  0  0  0  0  0
  161.5700  205.6580  152.5600 C   0  0  2  0  0  3  0  0  0  0  0  0
  164.6670  211.8500  148.0350 O   0  0  0  0  0  0  0  0  0  0  0  0
  164.2420  214.0780  148.2970 O   0  0  0  0  0  1  0  0  0  0  0  0
  163.8300  212.7910  147.9730 C   0  0  0  0  0  0  0  0  0  0  0  0
  156.3840  213.7190  148.7020 C   0  0  0  0  0  1  0  0  0  0  0  0
  156.8240  213.7380  147.3520 O   0  0  0  0  0  0  0  0  0  0  0  0
  1  3  2  0  0  0  0
  2 16  1  0  0  0  0
  4  1  1  0  0  0  0
  5 38  1  0  0  0  0
  5 20  1  0  0  0  0
  6  4  1  1  0  0  0
  6  8  1  0  0  0  0
  6 13  1  0  0  0  0
  7 16  1  0  0  0  0
  8 15  2  0  0  0  0
  9  2  2  0  0  0  0
 10  5  2  0  0  0  0
 11 20  1  0  0  0  0
 12 10  2  0  0  0  0
 13  3  1  6  0  0  0
 13 19  1  0  0  0  0
 14 19  2  0  0  0  0
 14  9  1  0  0  0  0
 15 14  1  0  0  0  0
 16 18  1  0  0  0  0
 16 22  1  1  0  0  0
 17 12  1  1  0  0  0
 17  7  1  0  0  0  0
 18 11  1  0  0  0  0
 19 17  1  0  0  0  0
 21 23  2  0  0  0  0
 22 36  1  0  0  0  0
 22 21  2  0  0  0  0
 23 24  1  0  0  0  0
 24 26  1  0  0  0  0
 25 28  1  0  0  0  0
 25 24  2  0  0  0  0
 26 27  2  0  0  0  0
 28 29  2  0  0  0  0
 29 30  1  0  0  0  0
 29 27  1  0  0  0  0
 30 33  1  0  0  0  0
 33 32  1  6  0  0  0
 33 31  1  0  0  0  0
 36 34  2  0  0  0  0
 36 35  1  0  0  0  0
 38 37  1  0  0  0  0
M  END
>  <MODEL>
3

>  <REMARK>
 VINA RESULT:      -3.8      3.322      4.293
  Name = 
  6 active torsions:
  status: ('A' for Active; 'I' for Inactive)
    1  A    between atoms: C_3  and  C_36
    2  A    between atoms: C_11  and  O_38
    3  A    between atoms: C_12  and  C_24
    4  A    between atoms: C_12  and  C_30
    5  A    between atoms: C_21  and  C_25
    6  A    between atoms: C_25  and  C_32
                            x       y       z     vdW  Elec       q    Type
                         _______ _______ _______ _____ _____    ______ ____

>  <TORSDO>
F 6

$$$$
=
 OpenBabel11052409413D

 38 42  0  0  1  0  0  0  0  0999 V2000
  159.5300  205.4580  145.1760 C   0  0  0  0  0  3  0  0  0  0  0  0
  161.5650  205.5810  151.2460 N   0  0  0  0  0  0  0  0  0  0  0  0
  160.1080  206.3500  145.9160 N   0  0  0  0  0  0  0  0  0  0  0  0
  160.1620  204.1510  145.3190 C   0  0  0  0  0  2  0  0  0  0  0  0
  162.2820  210.3740  149.4810 C   0  0  0  0  0  0  0  0  0  0  0  0
  161.1710  204.3430  146.1480 C   0  0  2  0  0  3  0  0  0  0  0  0
  160.3820  207.3740  150.0920 C   0  0  0  0  0  2  0  0  0  0  0  0
  161.7620  203.3050  146.9160 N   0  0  0  0  0  0  0  0  0  0  0  0
  161.6790  204.6770  150.3200 C   0  0  0  0  0  3  0  0  0  0  0  0
  161.9220  209.4140  148.6820 C   0  0  0  0  0  0  0  0  0  0  0  0
  163.1230  209.0330  151.4350 C   0  0  0  0  0  2  0  0  0  0  0  0
  161.5750  208.3650  147.9980 C   0  0  0  0  0  3  0  0  0  0  0  0
  161.2570  205.7540  146.5820 C   0  0  2  0  0  3  0  0  0  0  0  0
  161.6460  204.8050  148.8460 C   0  0  0  0  0  0  0  0  0  0  0  0
  162.0070  203.5230  148.1740 C   0  0  0  0  0  3  0  0  0  0  0  0
  161.4290  207.0300  151.1710 C   0  0  2  0  0  0  0  0  0  0  0  0
  160.8240  207.2210  148.6320 C   0  0  1  0  0  3  0  0  0  0  0  0
  162.8200  207.6340  150.8570 C   0  0  0  0  0  2  0  0  0  0  0  0
  161.2080  205.8630  148.0980 C   0  0  0  0  0  0  0  0  0  0  0  0
  162.1720  210.1330  150.9560 C   0  0  0  0  0  2  0  0  0  0  0  0
  160.8150  208.7640  152.8400 C   0  0  0  0  0  0  0  0  0  0  0  0
  160.9550  207.4890  152.5560 C   0  0  0  0  0  0  0  0  0  0  0  0
  160.6720  210.0320  153.1270 C   0  0  0  0  0  3  0  0  0  0  0  0
  159.4500  210.5690  153.7400 C   0  0  0  0  0  0  0  0  0  0  0  0
  158.5770  211.4140  153.0360 C   0  0  0  0  0  3  0  0  0  0  0  0
  159.1590  210.2320  155.0680 C   0  0  0  0  0  3  0  0  0  0  0  0
  158.0060  210.7280  155.6860 C   0  0  0  0  0  3  0  0  0  0  0  0
  157.4260  211.9110  153.6540 C   0  0  0  0  0  3  0  0  0  0  0  0
  157.1400  211.5710  154.9810 C   0  0  0  0  0  0  0  0  0  0  0  0
  155.9000  212.0830  155.6320 C   0  0  0  0  0  2  0  0  0  0  0  0
  157.0110  213.9200  156.6850 O   0  0  0  0  0  1  0  0  0  0  0  0
  154.6590  214.0790  156.4080 C   0  0  0  0  0  1  0  0  0  0  0  0
  155.9660  213.5910  155.8200 C   0  0  2  0  0  3  0  0  0  0  0  0
  160.0080  206.8290  154.6450 O   0  0  0  0  0  1  0  0  0  0  0  0
  161.1140  205.1870  153.5080 O   0  0  0  0  0  0  0  0  0  0  0  0
  160.6660  206.4970  153.6220 C   0  0  0  0  0  0  0  0  0  0  0  0
  162.0230  212.3230  147.9970 C   0  0  0  0  0  1  0  0  0  0  0  0
  162.7580  211.5750  148.9540 O   0  0  0  0  0  0  0  0  0  0  0  0
  1  4  1  0  0  0  0
  1  3  2  0  0  0  0
  5 20  1  0  0  0  0
  6  4  1  1  0  0  0
  6 13  1  0  0  0  0
  6  8  1  0  0  0  0
  7 16  1  0  0  0  0
  8 15  2  0  0  0  0
  9  2  2  0  0  0  0
 10  5  2  0  0  0  0
 12 10  2  0  0  0  0
 13  3  1  6  0  0  0
 13 19  1  0  0  0  0
 14  9  1  0  0  0  0
 15 14  1  0  0  0  0
 16  2  1  0  0  0  0
 16 22  1  1  0  0  0
 17 12  1  1  0  0  0
 17  7  1  0  0  0  0
 18 16  1  0  0  0  0
 18 11  1  0  0  0  0
 19 17  1  0  0  0  0
 19 14  2  0  0  0  0
 20 11  1  0  0  0  0
 21 23  2  0  0  0  0
 22 21  2  0  0  0  0
 22 36  1  0  0  0  0
 23 24  1  0  0  0  0
 24 26  1  0  0  0  0
 25 28  1  0  0  0  0
 25 24  2  0  0  0  0
 26 27  2  0  0  0  0
 28 29  2  0  0  0  0
 29 30  1  0  0  0  0
 29 27  1  0  0  0  0
 30 33  1  0  0  0  0
 33 32  1  1  0  0  0
 33 31  1  0  0  0  0
 35 36  2  0  0  0  0
 36 34  1  0  0  0  0
 37 38  1  0  0  0  0
 38  5  1  0  0  0  0
M  END
>  <MODEL>
4

>  <REMARK>
 VINA RESULT:      -3.7      4.734      6.727
  Name = 
  6 active torsions:
  status: ('A' for Active; 'I' for Inactive)
    1  A    between atoms: C_3  and  C_36
    2  A    between atoms: C_11  and  O_38
    3  A    between atoms: C_12  and  C_24
    4  A    between atoms: C_12  and  C_30
    5  A    between atoms: C_21  and  C_25
    6  A    between atoms: C_25  and  C_32
                            x       y       z     vdW  Elec       q    Type
                         _______ _______ _______ _____ _____    ______ ____

>  <TORSDO>
F 6

$$$$
=
 OpenBabel11052409413D

 38 42  0  0  1  0  0  0  0  0999 V2000
  162.1600  211.9340  156.4550 C   0  0  0  0  0  3  0  0  0  0  0  0
  160.6240  206.3940  153.6350 N   0  0  0  0  0  0  0  0  0  0  0  0
  162.0530  211.5480  155.2240 N   0  0  0  0  0  0  0  0  0  0  0  0
  161.0320  211.4760  157.2600 C   0  0  0  0  0  2  0  0  0  0  0  0
  161.9690  209.5470  149.7810 C   0  0  0  0  0  0  0  0  0  0  0  0
  160.2390  210.8410  156.4180 C   0  0  2  0  0  3  0  0  0  0  0  0
  162.4160  207.9020  152.9560 C   0  0  0  0  0  2  0  0  0  0  0  0
  159.2900  209.8640  156.8200 N   0  0  0  0  0  0  0  0  0  0  0  0
  160.0940  207.0210  154.6420 C   0  0  0  0  0  3  0  0  0  0  0  0
  161.8480  209.9910  150.9960 C   0  0  0  0  0  0  0  0  0  0  0  0
  160.7130  207.3770  149.9740 C   0  0  0  0  0  2  0  0  0  0  0  0
  161.6820  210.3000  152.2480 C   0  0  0  0  0  3  0  0  0  0  0  0
  160.7870  210.8510  155.0440 C   0  0  2  0  0  3  0  0  0  0  0  0
  160.1190  208.4570  154.9970 C   0  0  0  0  0  0  0  0  0  0  0  0
  159.2140  208.7560  156.1450 C   0  0  0  0  0  3  0  0  0  0  0  0
  161.3670  206.8760  152.4780 C   0  0  2  0  0  0  0  0  0  0  0  0
  161.8920  209.2890  153.3470 C   0  0  1  0  0  3  0  0  0  0  0  0
  160.3610  207.4880  151.4720 C   0  0  0  0  0  2  0  0  0  0  0  0
  160.9390  209.4360  154.5070 C   0  0  0  0  0  0  0  0  0  0  0  0
  162.0250  208.0620  149.5810 C   0  0  0  0  0  2  0  0  0  0  0  0
  161.3620  204.5740  151.5440 C   0  0  0  0  0  0  0  0  0  0  0  0
  162.0490  205.6480  151.8620 C   0  0  0  0  0  0  0  0  0  0  0  0
  160.6810  203.5050  151.2230 C   0  0  0  0  0  3  0  0  0  0  0  0
  160.7930  202.8640  149.9050 C   0  0  0  0  0  0  0  0  0  0  0  0
  160.5360  201.4960  149.7230 C   0  0  0  0  0  3  0  0  0  0  0  0
  161.1770  203.6440  148.8080 C   0  0  0  0  0  3  0  0  0  0  0  0
  161.2980  203.0670  147.5390 C   0  0  0  0  0  3  0  0  0  0  0  0
  160.6580  200.9180  148.4560 C   0  0  0  0  0  3  0  0  0  0  0  0
  161.0420  201.7020  147.3630 C   0  0  0  0  0  0  0  0  0  0  0  0
  161.1510  201.0910  146.0070 C   0  0  0  0  0  2  0  0  0  0  0  0
  159.7310  200.2110  144.2960 O   0  0  0  0  0  1  0  0  0  0  0  0
  159.8260  202.5700  144.5300 C   0  0  0  0  0  1  0  0  0  0  0  0
  159.8460  201.2330  145.2390 C   0  0  2  0  0  3  0  0  0  0  0  0
  164.2870  205.0710  152.4560 O   0  0  0  0  0  1  0  0  0  0  0  0
  164.0610  206.2440  150.5100 O   0  0  0  0  0  0  0  0  0  0  0  0
  163.5160  205.6350  151.6330 C   0  0  0  0  0  0  0  0  0  0  0  0
  161.8990  211.8470  148.9020 C   0  0  0  0  0  1  0  0  0  0  0  0
  162.0360  210.4460  148.7160 O   0  0  0  0  0  0  0  0  0  0  0  0
  1  4  1  0  0  0  0
  2  9  2  0  0  0  0
  3  1  2  0  0  0  0
  5 10  2  0  0  0  0
  6  8  1  0  0  0  0
  6  4  1  1  0  0  0
  7 17  1  0  0  0  0
  9 14  1  0  0  0  0
 10 12  2  0  0  0  0
 11 18  1  0  0  0  0
 13 19  1  1  0  0  0
 13  3  1  0  0  0  0
 13  6  1  0  0  0  0
 14 15  1  0  0  0  0
 15  8  2  0  0  0  0
 16 22  1  6  0  0  0
 16  7  1  0  0  0  0
 16  2  1  0  0  0  0
 17 12  1  6  0  0  0
 17 19  1  0  0  0  0
 18 16  1  0  0  0  0
 19 14  2  0  0  0  0
 20  5  1  0  0  0  0
 20 11  1  0  0  0  0
 21 22  2  0  0  0  0
 23 21  2  0  0  0  0
 24 23  1  0  0  0  0
 25 24  1  0  0  0  0
 26 24  2  0  0  0  0
 27 26  1  0  0  0  0
 28 25  2  0  0  0  0
 29 27  2  0  0  0  0
 29 28  1  0  0  0  0
 30 29  1  0  0  0  0
 31 33  1  0  0  0  0
 33 32  1  6  0  0  0
 33 30  1  0  0  0  0
 35 36  2  0  0  0  0
 36 22  1  0  0  0  0
 36 34  1  0  0  0  0
 38 37  1  0  0  0  0
 38  5  1  0  0  0  0
M  END
>  <MODEL>
5

>  <REMARK>
 VINA RESULT:      -2.8      6.694     11.289
  Name = 
  6 active torsions:
  status: ('A' for Active; 'I' for Inactive)
    1  A    between atoms: C_3  and  C_36
    2  A    between atoms: C_11  and  O_38
    3  A    between atoms: C_12  and  C_24
    4  A    between atoms: C_12  and  C_30
    5  A    between atoms: C_21  and  C_25
    6  A    between atoms: C_25  and  C_32
                            x       y       z     vdW  Elec       q    Type
                         _______ _______ _______ _____ _____    ______ ____

>  <TORSDO>
F 6

$$$$
=
 OpenBabel11052409413D

 38 42  0  0  1  0  0  0  0  0999 V2000
  159.7010  203.7780  148.7540 C   0  0  0  0  0  3  0  0  0  0  0  0
  161.4870  207.3770  153.7400 N   0  0  0  0  0  0  0  0  0  0  0  0
  160.2380  204.9500  148.8740 N   0  0  0  0  0  0  0  0  0  0  0  0
  160.3420  202.8030  149.6290 C   0  0  0  0  0  2  0  0  0  0  0  0
  162.2200  210.3530  149.5910 C   0  0  0  0  0  0  0  0  0  0  0  0
  161.3140  203.4620  150.2310 C   0  0  2  0  0  3  0  0  0  0  0  0
  160.3310  208.1640  151.7420 C   0  0  0  0  0  2  0  0  0  0  0  0
  161.8860  203.0600  151.4670 N   0  0  0  0  0  0  0  0  0  0  0  0
  161.6490  206.1120  153.4910 C   0  0  0  0  0  3  0  0  0  0  0  0
  161.9040  209.0990  149.4670 C   0  0  0  0  0  0  0  0  0  0  0  0
  162.9960  210.3800  151.9830 C   0  0  0  0  0  2  0  0  0  0  0  0
  161.5960  207.8360  149.4880 C   0  0  0  0  0  3  0  0  0  0  0  0
  161.3660  204.8730  149.7910 C   0  0  2  0  0  3  0  0  0  0  0  0
  161.6750  205.3840  152.2040 C   0  0  0  0  0  0  0  0  0  0  0  0
  162.0780  203.9590  152.3860 C   0  0  0  0  0  3  0  0  0  0  0  0
  161.3380  208.5250  152.8540 C   0  0  2  0  0  0  0  0  0  0  0  0
  160.8340  207.2270  150.6380 C   0  0  1  0  0  3  0  0  0  0  0  0
  162.7330  208.8900  152.2900 C   0  0  0  0  0  2  0  0  0  0  0  0
  161.2550  205.8190  150.9770 C   0  0  0  0  0  0  0  0  0  0  0  0
  162.0530  210.9850  150.9400 C   0  0  0  0  0  2  0  0  0  0  0  0
  160.1660  210.6890  153.1900 C   0  0  0  0  0  0  0  0  0  0  0  0
  160.8030  209.6710  153.7220 C   0  0  0  0  0  0  0  0  0  0  0  0
  159.5280  211.7030  152.6650 C   0  0  0  0  0  3  0  0  0  0  0  0
  158.2340  212.1730  153.1780 C   0  0  0  0  0  0  0  0  0  0  0  0
  157.5160  211.4550  154.1460 C   0  0  0  0  0  3  0  0  0  0  0  0
  157.7040  213.3680  152.6740 C   0  0  0  0  0  3  0  0  0  0  0  0
  156.4730  213.8440  153.1360 C   0  0  0  0  0  3  0  0  0  0  0  0
  156.2860  211.9300  154.6080 C   0  0  0  0  0  3  0  0  0  0  0  0
  155.7600  213.1230  154.1010 C   0  0  0  0  0  0  0  0  0  0  0  0
  154.4580  213.6420  154.6090 C   0  0  0  0  0  2  0  0  0  0  0  0
  155.8520  214.0940  156.4980 O   0  0  0  0  0  1  0  0  0  0  0  0
  153.5030  214.1830  156.8280 C   0  0  0  0  0  1  0  0  0  0  0  0
  154.6530  214.4530  155.8810 C   0  0  2  0  0  3  0  0  0  0  0  0
  162.1800  209.7690  155.6690 O   0  0  0  0  0  0  0  0  0  0  0  0
  159.9410  209.5560  156.0630 O   0  0  0  0  0  1  0  0  0  0  0  0
  161.0180  209.6680  155.1910 C   0  0  0  0  0  0  0  0  0  0  0  0
  162.3380  212.4100  148.2420 C   0  0  0  0  0  1  0  0  0  0  0  0
  162.7020  211.0610  148.4890 O   0  0  0  0  0  0  0  0  0  0  0  0
  1  3  2  0  0  0  0
  1  4  1  0  0  0  0
  5 20  1  0  0  0  0
  6  4  1  1  0  0  0
  6  8  1  0  0  0  0
  7 16  1  0  0  0  0
  8 15  2  0  0  0  0
  9  2  2  0  0  0  0
 10 12  2  0  0  0  0
 10  5  2  0  0  0  0
 11 18  1  0  0  0  0
 13  3  1  6  0  0  0
 13  6  1  0  0  0  0
 13 19  1  0  0  0  0
 14 15  1  0  0  0  0
 14  9  1  0  0  0  0
 16 22  1  1  0  0  0
 16  2  1  0  0  0  0
 17 12  1  1  0  0  0
 17 19  1  0  0  0  0
 17  7  1  0  0  0  0
 18 16  1  0  0  0  0
 19 14  2  0  0  0  0
 20 11  1  0  0  0  0
 21 22  2  0  0  0  0
 22 36  1  0  0  0  0
 23 24  1  0  0  0  0
 23 21  2  0  0  0  0
 24 25  1  0  0  0  0
 25 28  2  0  0  0  0
 26 27  1  0  0  0  0
 26 24  2  0  0  0  0
 27 29  2  0  0  0  0
 29 28  1  0  0  0  0
 29 30  1  0  0  0  0
 30 33  1  0  0  0  0
 33 31  1  0  0  0  0
 33 32  1  1  0  0  0
 36 34  2  0  0  0  0
 36 35  1  0  0  0  0
 37 38  1  0  0  0  0
 38  5  1  0  0  0  0
M  END
>  <MODEL>
6

>  <REMARK>
 VINA RESULT:      -2.8      4.788      7.661
  Name = 
  6 active torsions:
  status: ('A' for Active; 'I' for Inactive)
    1  A    between atoms: C_3  and  C_36
    2  A    between atoms: C_11  and  O_38
    3  A    between atoms: C_12  and  C_24
    4  A    between atoms: C_12  and  C_30
    5  A    between atoms: C_21  and  C_25
    6  A    between atoms: C_25  and  C_32
                            x       y       z     vdW  Elec       q    Type
                         _______ _______ _______ _____ _____    ______ ____

>  <TORSDO>
F 6

$$$$
=
 OpenBabel11052409413D

 38 42  0  0  1  0  0  0  0  0999 V2000
  158.0540  210.2390  155.8630 C   0  0  0  0  0  3  0  0  0  0  0  0
  159.1730  214.2360  150.9870 N   0  0  0  0  0  0  0  0  0  0  0  0
  158.8340  210.2050  154.8300 N   0  0  0  0  0  0  0  0  0  0  0  0
  158.1010  211.5370  156.5280 C   0  0  0  0  0  2  0  0  0  0  0  0
  161.9280  210.0060  149.9300 C   0  0  0  0  0  0  0  0  0  0  0  0
  158.9880  212.2420  155.8520 C   0  0  2  0  0  3  0  0  0  0  0  0
  158.9450  211.8130  150.8340 C   0  0  0  0  0  2  0  0  0  0  0  0
  159.0220  213.6610  155.8470 N   0  0  0  0  0  0  0  0  0  0  0  0
  159.0440  214.4510  152.2620 C   0  0  0  0  0  3  0  0  0  0  0  0
  161.3280  210.1440  151.0740 C   0  0  0  0  0  0  0  0  0  0  0  0
  161.9180  212.3910  149.1320 C   0  0  0  0  0  2  0  0  0  0  0  0
  160.6900  210.4160  152.1730 C   0  0  0  0  0  3  0  0  0  0  0  0
  159.5620  211.4620  154.7330 C   0  0  2  0  0  3  0  0  0  0  0  0
  159.2550  213.5460  153.4130 C   0  0  0  0  0  0  0  0  0  0  0  0
  159.1690  214.2770  154.7110 C   0  0  0  0  0  3  0  0  0  0  0  0
  159.6250  213.0670  150.2450 C   0  0  2  0  0  0  0  0  0  0  0  0
  159.4770  211.3120  152.1820 C   0  0  1  0  0  3  0  0  0  0  0  0
  161.1700  212.9970  150.3390 C   0  0  0  0  0  2  0  0  0  0  0  0
  159.3650  212.1820  153.4090 C   0  0  0  0  0  0  0  0  0  0  0  0
  161.5440  210.9390  148.8220 C   0  0  0  0  0  2  0  0  0  0  0  0
  160.0040  213.8380  147.9150 C   0  0  0  0  0  0  0  0  0  0  0  0
  159.1940  213.2870  148.7900 C   0  0  0  0  0  0  0  0  0  0  0  0
  160.8090  214.3830  147.0400 C   0  0  0  0  0  3  0  0  0  0  0  0
  161.0630  213.7850  145.7220 C   0  0  0  0  0  0  0  0  0  0  0  0
  160.0500  213.1470  144.9890 C   0  0  0  0  0  3  0  0  0  0  0  0
  162.3580  213.8480  145.1930 C   0  0  0  0  0  3  0  0  0  0  0  0
  162.6390  213.2860  143.9430 C   0  0  0  0  0  3  0  0  0  0  0  0
  160.3290  212.5850  143.7400 C   0  0  0  0  0  3  0  0  0  0  0  0
  161.6250  212.6510  143.2170 C   0  0  0  0  0  0  0  0  0  0  0  0
  161.9190  212.0700  141.8750 C   0  0  0  0  0  2  0  0  0  0  0  0
  161.4050  213.8620  140.3780 O   0  0  0  0  0  1  0  0  0  0  0  0
  163.2360  212.4610  139.8160 C   0  0  0  0  0  1  0  0  0  0  0  0
  162.4590  213.1310  140.9290 C   0  0  2  0  0  3  0  0  0  0  0  0
  156.8330  213.1050  149.0830 O   0  0  0  0  0  1  0  0  0  0  0  0
  157.6370  212.3180  147.0960 O   0  0  0  0  0  0  0  0  0  0  0  0
  157.8320  212.9040  148.3410 C   0  0  0  0  0  0  0  0  0  0  0  0
  162.5830  207.7210  149.2830 C   0  0  0  0  0  1  0  0  0  0  0  0
  162.9000  209.0170  149.7690 O   0  0  0  0  0  0  0  0  0  0  0  0
  1  4  1  0  0  0  0
  2  9  2  0  0  0  0
  3  1  2  0  0  0  0
  5 10  2  0  0  0  0
  6  4  1  6  0  0  0
  8  6  1  0  0  0  0
  9 14  1  0  0  0  0
 10 12  2  0  0  0  0
 11 18  1  0  0  0  0
 12 17  1  0  0  0  0
 13 19  1  6  0  0  0
 13  3  1  0  0  0  0
 13  6  1  0  0  0  0
 14 15  1  0  0  0  0
 15  8  2  0  0  0  0
 16 22  1  6  0  0  0
 16 18  1  0  0  0  0
 16  7  1  0  0  0  0
 16  2  1  0  0  0  0
 17  7  1  6  0  0  0
 17 19  1  0  0  0  0
 19 14  2  0  0  0  0
 20 11  1  0  0  0  0
 20  5  1  0  0  0  0
 21 22  2  0  0  0  0
 23 21  2  0  0  0  0
 24 23  1  0  0  0  0
 25 24  2  0  0  0  0
 26 24  1  0  0  0  0
 27 26  2  0  0  0  0
 28 25  1  0  0  0  0
 29 28  2  0  0  0  0
 29 27  1  0  0  0  0
 30 29  1  0  0  0  0
 31 33  1  0  0  0  0
 33 32  1  6  0  0  0
 33 30  1  0  0  0  0
 35 36  2  0  0  0  0
 36 22  1  0  0  0  0
 36 34  1  0  0  0  0
 37 38  1  0  0  0  0
 38  5  1  0  0  0  0
M  END
>  <MODEL>
7

>  <REMARK>
 VINA RESULT:      -2.5      3.050      9.988
  Name = 
  6 active torsions:
  status: ('A' for Active; 'I' for Inactive)
    1  A    between atoms: C_3  and  C_36
    2  A    between atoms: C_11  and  O_38
    3  A    between atoms: C_12  and  C_24
    4  A    between atoms: C_12  and  C_30
    5  A    between atoms: C_21  and  C_25
    6  A    between atoms: C_25  and  C_32
                            x       y       z     vdW  Elec       q    Type
                         _______ _______ _______ _____ _____    ______ ____

>  <TORSDO>
F 6

$$$$
