=
 OpenBabel11042422203D

 52 55  0  0  1  0  0  0  0  0999 V2000
  161.3420  203.2220  147.4230 C   0  0  0  0  0  0  0  0  0  0  0  0
  161.3980  205.4970  145.7610 C   0  0  0  0  0  3  0  0  0  0  0  0
  160.8900  203.0910  146.0680 C   0  0  0  0  0  0  0  0  0  0  0  0
  161.2240  201.8880  147.9870 C   0  0  1  0  0  3  0  0  0  0  0  0
  160.0540  201.2640  144.6910 N   0  0  0  0  0  1  0  0  0  0  0  0
  161.7910  205.5780  147.0550 C   0  0  0  0  0  0  0  0  0  0  0  0
  161.7690  204.3710  147.9350 C   0  0  0  0  0  3  0  0  0  0  0  0
  160.5400  201.8240  145.9080 C   0  0  0  0  0  0  0  0  0  0  0  0
  160.7440  201.0620  147.1050 N   0  0  0  0  0  0  0  0  0  0  0  0
  160.9020  204.2260  145.0930 C   0  0  0  0  0  3  0  0  0  0  0  0
  163.6090  206.8770  148.2480 C   0  0  0  0  0  1  0  0  0  0  0  0
  162.2430  206.9180  147.5710 C   0  0  2  0  0  3  0  0  0  0  0  0
  161.2000  207.5070  148.5160 C   0  0  0  0  0  2  0  0  0  0  0  0
  161.6810  208.7810  149.1270 C   0  0  0  0  0  3  0  0  0  0  0  0
  161.7050  209.9040  148.4150 C   0  0  0  0  0  3  0  0  0  0  0  0
  162.1270  211.1330  148.9340 O   0  0  0  0  0  0  0  0  0  0  0  0
  162.0670  212.3680  148.2170 C   0  0  2  0  0  3  0  0  0  0  0  0
  161.6490  214.4520  149.3040 O   0  0  0  0  0  0  0  0  0  0  0  0
  161.1760  213.3510  148.9140 C   0  0  0  0  0  0  0  0  0  0  0  0
  159.8330  213.0320  149.1300 O   0  0  0  0  0  0  0  0  0  0  0  0
  158.5060  213.4350  147.3050 O   0  0  0  0  0  1  0  0  0  0  0  0
  158.7820  213.8330  148.6090 C   0  0  0  0  0  2  0  0  0  0  0  0
  161.6740  212.1740  146.8760 O   0  0  0  0  0  0  0  0  0  0  0  0
  162.2340  213.1360  146.1660 O   0  0  0  0  0  0  0  0  0  0  0  0
  161.3050  213.4310  145.1630 C   0  0  0  0  0  2  0  0  0  0  0  0
  163.5300  213.5950  144.0640 C   0  0  0  0  0  1  0  0  0  0  0  0
  162.0350  213.7710  143.8750 C   0  0  1  0  0  3  0  0  0  0  0  0
  160.6220  211.9680  142.8600 C   0  0  0  0  0  3  0  0  0  0  0  0
  161.8350  213.1020  141.4740 C   0  0  0  0  0  0  0  0  0  0  0  0
  161.5460  212.9410  142.7760 N   0  0  0  0  0  0  0  0  0  0  0  0
  162.7730  214.1270  140.9350 C   0  0  0  0  0  1  0  0  0  0  0  0
  161.1270  212.2090  140.7020 C   0  0  0  0  0  3  0  0  0  0  0  0
  160.3490  211.4840  141.5910 C   0  0  0  0  0  3  0  0  0  0  0  0
  161.5980  201.4780  149.3730 C   0  0  0  0  0  2  0  0  0  0  0  0
  159.5460  202.2130  150.2800 O   0  0  0  0  0  0  0  0  0  0  0  0
  160.7600  202.1730  150.3990 C   0  0  0  0  0  0  0  0  0  0  0  0
  161.4010  202.7630  151.6180 C   0  0  0  0  0  2  0  0  0  0  0  0
  161.5480  204.2700  151.4730 C   0  0  0  0  0  2  0  0  0  0  0  0
  161.4880  205.9740  153.3320 C   0  0  0  0  0  0  0  0  0  0  0  0
  162.6910  206.2900  153.1210 O   0  0  0  0  0  0  0  0  0  0  0  0
  160.8590  204.9510  152.5590 N   0  0  0  0  0  2  0  0  0  0  0  0
  160.7040  206.6970  154.3780 C   0  0  0  0  0  2  0  0  0  0  0  0
  161.8130  208.1140  156.6480 C   0  0  0  0  0  1  0  0  0  0  0  0
  159.9990  209.0080  155.2190 C   0  0  2  0  0  3  0  0  0  0  0  0
  161.5080  208.9790  155.4350 C   0  0  2  0  0  3  0  0  0  0  0  0
  160.8930  208.2130  154.2640 C   0  0  1  0  0  0  0  0  0  0  0  0
  161.1300  208.7890  152.8970 C   0  0  0  0  0  0  0  0  0  0  0  0
  162.1960  209.6550  152.6840 O   0  0  0  0  0  1  0  0  0  0  0  0
  160.3430  208.5260  151.9510 O   0  0  0  0  0  0  0  0  0  0  0  0
  159.6060  210.3920  154.7070 C   0  0  0  0  0  2  0  0  0  0  0  0
  157.5700  211.6320  154.7430 O   0  0  0  0  0  1  0  0  0  0  0  0
  158.4890  210.9660  155.5540 C   0  0  0  0  0  2  0  0  0  0  0  0
  1  7  1  0  0  0  0
  1  4  1  0  0  0  0
  2  6  1  0  0  0  0
  3  1  2  0  0  0  0
  4 34  1  6  0  0  0
  5  8  1  0  0  0  0
  6 12  1  0  0  0  0
  6  7  2  0  0  0  0
  8  3  1  0  0  0  0
  8  9  2  0  0  0  0
  9  4  1  0  0  0  0
 10  2  2  0  0  0  0
 10  3  1  0  0  0  0
 12 11  1  1  0  0  0
 12 13  1  0  0  0  0
 13 14  1  0  0  0  0
 15 16  1  0  0  0  0
 15 14  2  0  0  0  0
 17 23  1  6  0  0  0
 17 19  1  0  0  0  0
 17 16  1  0  0  0  0
 19 20  1  0  0  0  0
 19 18  2  0  0  0  0
 21 22  1  0  0  0  0
 22 20  1  0  0  0  0
 24 23  1  0  0  0  0
 25 24  1  0  0  0  0
 27 26  1  1  0  0  0
 27 25  1  0  0  0  0
 29 30  1  0  0  0  0
 30 28  1  0  0  0  0
 30 27  1  0  0  0  0
 31 29  1  0  0  0  0
 32 29  2  0  0  0  0
 32 33  1  0  0  0  0
 33 28  2  0  0  0  0
 34 36  1  0  0  0  0
 35 36  2  0  0  0  0
 36 37  1  0  0  0  0
 38 37  1  0  0  0  0
 38 41  1  0  0  0  0
 39 42  1  0  0  0  0
 40 39  2  0  0  0  0
 41 39  1  0  0  0  0
 44 50  1  6  0  0  0
 44 45  1  0  0  0  0
 45 43  1  1  0  0  0
 46 42  1  1  0  0  0
 46 44  1  0  0  0  0
 46 45  1  0  0  0  0
 47 46  1  0  0  0  0
 48 47  1  0  0  0  0
 49 47  2  0  0  0  0
 50 52  1  0  0  0  0
 51 52  1  0  0  0  0
M  END
>  <MODEL>
1

>  <REMARK>
 VINA RESULT:      -6.2      0.000      0.000
  Name = 
  23 active torsions:
  status: ('A' for Active; 'I' for Inactive)
    1  A    between atoms: C_2  and  O_23
    2  A    between atoms: C_2  and  C_28
    3  A    between atoms: C_4  and  C_9
    4  A    between atoms: C_4  and  C_52
    5  A    between atoms: O_5  and  C_40
    6  A    between atoms: O_5  and  C_49
    7  A    between atoms: C_6  and  C_15
    8  A    between atoms: C_6  and  C_37
    9  A    between atoms: C_8  and  C_11
   10  A    between atoms: C_8  and  C_22
   11  A    between atoms: C_10  and  C_22
   12  A    between atoms: C_13  and  O_27
   13  A    between atoms: C_13  and  O_35
   14  A    between atoms: C_13  and  C_49
   15  A    between atoms: C_14  and  C_33
   16  A    between atoms: C_14  and  C_43
   17  A    between atoms: C_16  and  C_25
   18  A    between atoms: C_16  and  N_46
   19  A    between atoms: O_23  and  O_27
   20  A    between atoms: C_25  and  C_43
   21  A    between atoms: N_26  and  C_28
   22  A    between atoms: O_35  and  C_44
   23  A    between atoms: C_37  and  C_38
                            x       y       z     vdW  Elec       q    Type
                         _______ _______ _______ _____ _____    ______ ____

>  <TORSDO>
F 23

$$$$
=
 OpenBabel11042422203D

 52 55  0  0  1  0  0  0  0  0999 V2000
  161.1990  204.2260  148.6380 C   0  0  0  0  0  0  0  0  0  0  0  0
  161.3170  203.6210  145.8880 C   0  0  0  0  0  3  0  0  0  0  0  0
  161.1280  202.8510  148.2370 C   0  0  0  0  0  0  0  0  0  0  0  0
  161.1510  204.1950  150.0900 C   0  0  0  0  0  0  0  0  0  0  0  0
  160.9610  200.7160  149.3960 N   0  0  0  0  0  1  0  0  0  0  0  0
  161.3550  204.9070  146.3140 C   0  0  0  0  0  0  0  0  0  0  0  0
  161.2990  205.2300  147.7720 C   0  0  0  0  0  3  0  0  0  0  0  0
  161.0320  202.1390  149.3480 C   0  0  0  0  0  0  0  0  0  0  0  0
  161.0440  202.9710  150.5150 N   0  0  0  0  0  0  0  0  0  0  0  0
  161.2100  202.4160  146.8070 C   0  0  0  0  0  2  0  0  0  0  0  0
  160.0870  206.5220  144.8310 C   0  0  0  0  0  1  0  0  0  0  0  0
  161.4470  205.9900  145.2740 C   0  0  2  0  0  3  0  0  0  0  0  0
  162.2460  205.5080  144.0660 C   0  0  0  0  0  2  0  0  0  0  0  0
  161.5100  205.7600  142.7930 C   0  0  0  0  0  3  0  0  0  0  0  0
  162.1250  206.3290  141.7590 C   0  0  0  0  0  3  0  0  0  0  0  0
  161.4970  206.5760  140.5340 O   0  0  0  0  0  0  0  0  0  0  0  0
  161.5670  207.8220  139.8360 C   0  0  2  0  0  3  0  0  0  0  0  0
  162.4620  207.1130  137.7390 O   0  0  0  0  0  0  0  0  0  0  0  0
  161.4810  207.6120  138.3540 C   0  0  0  0  0  0  0  0  0  0  0  0
  160.3200  207.9800  137.6710 O   0  0  0  0  0  0  0  0  0  0  0  0
  160.6930  210.1750  137.1260 O   0  0  0  0  0  1  0  0  0  0  0  0
  159.8010  209.3000  137.7370 C   0  0  0  0  0  2  0  0  0  0  0  0
  162.7210  208.5530  140.1890 O   0  0  0  0  0  0  0  0  0  0  0  0
  162.5180  209.8010  139.8070 O   0  0  0  0  0  0  0  0  0  0  0  0
  161.7820  210.3800  140.8450 C   0  0  0  0  0  2  0  0  0  0  0  0
  159.9130  211.9800  140.4760 C   0  0  0  0  0  1  0  0  0  0  0  0
  161.4210  211.8100  140.4790 C   0  0  1  0  0  3  0  0  0  0  0  0
  162.1250  212.6270  142.7400 C   0  0  0  0  0  3  0  0  0  0  0  0
  162.7840  213.8230  141.0630 C   0  0  0  0  0  0  0  0  0  0  0  0
  162.0520  212.7500  141.4030 N   0  0  0  0  0  0  0  0  0  0  0  0
  163.0180  214.2800  139.6640 C   0  0  0  0  0  1  0  0  0  0  0  0
  163.3100  214.4300  142.1810 C   0  0  0  0  0  3  0  0  0  0  0  0
  162.8890  213.6620  143.2550 C   0  0  0  0  0  3  0  0  0  0  0  0
  161.2230  205.3740  151.0030 C   0  0  0  0  0  2  0  0  0  0  0  0
  160.7270  203.8630  152.7480 O   0  0  0  0  0  0  0  0  0  0  0  0
  161.1530  204.9640  152.4400 C   0  0  0  0  0  0  0  0  0  0  0  0
  161.6750  205.8770  153.5070 C   0  0  0  0  0  2  0  0  0  0  0  0
  161.6210  207.3260  153.0490 C   0  0  0  0  0  2  0  0  0  0  0  0
  160.6430  208.3860  155.1190 C   0  0  0  0  0  0  0  0  0  0  0  0
  161.6480  208.0480  155.8020 O   0  0  0  0  0  0  0  0  0  0  0  0
  160.5530  208.0350  153.7370 N   0  0  0  0  0  2  0  0  0  0  0  0
  159.5510  209.1880  155.7500 C   0  0  0  0  0  2  0  0  0  0  0  0
  157.1560  210.7920  155.4610 C   0  0  0  0  0  1  0  0  0  0  0  0
  159.1800  211.0730  154.0600 C   0  0  2  0  0  3  0  0  0  0  0  0
  158.4650  211.5550  155.3170 C   0  0  2  0  0  3  0  0  0  0  0  0
  159.7110  210.6790  155.4420 C   0  0  1  0  0  0  0  0  0  0  0  0
  160.9580  211.3660  155.9240 C   0  0  0  0  0  0  0  0  0  0  0  0
  162.2010  210.9510  155.4610 O   0  0  0  0  0  0  0  0  0  0  0  0
  160.8870  212.2880  156.7770 O   0  0  0  0  0  1  0  0  0  0  0  0
  159.9000  212.2590  153.4240 C   0  0  0  0  0  2  0  0  0  0  0  0
  160.9760  210.7290  151.9460 O   0  0  0  0  0  1  0  0  0  0  0  0
  160.2780  211.9360  151.9930 C   0  0  0  0  0  2  0  0  0  0  0  0
  1  4  1  0  0  0  0
  2  6  2  0  0  0  0
  2 10  1  0  0  0  0
  3  1  1  0  0  0  0
  3  8  2  0  0  0  0
  4  9  2  0  0  0  0
  4 34  1  0  0  0  0
  6  7  1  0  0  0  0
  7  1  2  0  0  0  0
  8  5  1  0  0  0  0
  8  9  1  0  0  0  0
 10  3  1  0  0  0  0
 12 11  1  6  0  0  0
 12  6  1  0  0  0  0
 13 12  1  0  0  0  0
 14 13  1  0  0  0  0
 15 14  2  0  0  0  0
 16 15  1  0  0  0  0
 17 19  1  6  0  0  0
 17 23  1  0  0  0  0
 17 16  1  0  0  0  0
 18 19  2  0  0  0  0
 20 22  1  0  0  0  0
 20 19  1  0  0  0  0
 21 22  1  0  0  0  0
 24 23  1  0  0  0  0
 24 25  1  0  0  0  0
 27 26  1  1  0  0  0
 27 25  1  0  0  0  0
 27 30  1  0  0  0  0
 28 33  2  0  0  0  0
 29 30  1  0  0  0  0
 29 32  2  0  0  0  0
 30 28  1  0  0  0  0
 31 29  1  0  0  0  0
 32 33  1  0  0  0  0
 34 36  1  0  0  0  0
 36 35  2  0  0  0  0
 36 37  1  0  0  0  0
 38 37  1  0  0  0  0
 38 41  1  0  0  0  0
 39 42  1  0  0  0  0
 39 40  2  0  0  0  0
 41 39  1  0  0  0  0
 44 50  1  1  0  0  0
 44 45  1  0  0  0  0
 44 46  1  0  0  0  0
 45 46  1  0  0  0  0
 45 43  1  6  0  0  0
 46 42  1  1  0  0  0
 46 47  1  0  0  0  0
 47 49  1  0  0  0  0
 48 47  2  0  0  0  0
 51 52  1  0  0  0  0
 52 50  1  0  0  0  0
M  END
>  <MODEL>
2

>  <REMARK>
 VINA RESULT:      -5.2      3.683      5.658
  Name = 
  23 active torsions:
  status: ('A' for Active; 'I' for Inactive)
    1  A    between atoms: C_2  and  O_23
    2  A    between atoms: C_2  and  C_28
    3  A    between atoms: C_4  and  C_9
    4  A    between atoms: C_4  and  C_52
    5  A    between atoms: O_5  and  C_40
    6  A    between atoms: O_5  and  C_49
    7  A    between atoms: C_6  and  C_15
    8  A    between atoms: C_6  and  C_37
    9  A    between atoms: C_8  and  C_11
   10  A    between atoms: C_8  and  C_22
   11  A    between atoms: C_10  and  C_22
   12  A    between atoms: C_13  and  O_27
   13  A    between atoms: C_13  and  O_35
   14  A    between atoms: C_13  and  C_49
   15  A    between atoms: C_14  and  C_33
   16  A    between atoms: C_14  and  C_43
   17  A    between atoms: C_16  and  C_25
   18  A    between atoms: C_16  and  N_46
   19  A    between atoms: O_23  and  O_27
   20  A    between atoms: C_25  and  C_43
   21  A    between atoms: N_26  and  C_28
   22  A    between atoms: O_35  and  C_44
   23  A    between atoms: C_37  and  C_38
                            x       y       z     vdW  Elec       q    Type
                         _______ _______ _______ _____ _____    ______ ____

>  <TORSDO>
F 23

$$$$
=
 OpenBabel11042422203D

 52 55  0  0  1  0  0  0  0  0999 V2000
  161.2130  204.3760  148.9190 C   0  0  0  0  0  0  0  0  0  0  0  0
  161.3200  203.6680  146.1940 C   0  0  0  0  0  3  0  0  0  0  0  0
  161.1340  202.9870  148.5700 C   0  0  0  0  0  0  0  0  0  0  0  0
  161.1700  204.4000  150.3720 C   0  0  0  0  0  0  0  0  0  0  0  0
  160.9590  200.8980  149.8090 N   0  0  0  0  0  1  0  0  0  0  0  0
  161.3650  204.9680  146.5710 C   0  0  0  0  0  0  0  0  0  0  0  0
  161.3160  205.3460  148.0160 C   0  0  0  0  0  3  0  0  0  0  0  0
  161.0380  202.3170  149.7080 C   0  0  0  0  0  0  0  0  0  0  0  0
  161.0570  203.1930  150.8430 N   0  0  0  0  0  0  0  0  0  0  0  0
  161.2090  202.4980  147.1580 C   0  0  0  0  0  2  0  0  0  0  0  0
  160.1030  206.5460  145.0440 C   0  0  0  0  0  1  0  0  0  0  0  0
  161.4600  206.0110  145.4900 C   0  0  2  0  0  3  0  0  0  0  0  0
  162.2370  205.4740  144.2930 C   0  0  0  0  0  2  0  0  0  0  0  0
  161.4980  205.7060  143.0180 C   0  0  0  0  0  3  0  0  0  0  0  0
  162.0990  206.2900  141.9850 C   0  0  0  0  0  3  0  0  0  0  0  0
  161.4670  206.5200  140.7580 O   0  0  0  0  0  0  0  0  0  0  0  0
  161.6830  207.6800  139.9520 C   0  0  2  0  0  3  0  0  0  0  0  0
  162.4540  206.5930  137.9710 O   0  0  0  0  0  0  0  0  0  0  0  0
  161.5880  207.3460  138.4940 C   0  0  0  0  0  0  0  0  0  0  0  0
  160.5480  207.8780  137.7300 O   0  0  0  0  0  0  0  0  0  0  0  0
  159.8340  210.0490  137.5420 O   0  0  0  0  0  1  0  0  0  0  0  0
  160.6950  209.0940  137.0110 C   0  0  0  0  0  2  0  0  0  0  0  0
  162.9090  208.3090  140.2590 O   0  0  0  0  0  0  0  0  0  0  0  0
  162.7760  209.5860  139.9490 O   0  0  0  0  0  0  0  0  0  0  0  0
  161.6930  210.0310  140.7140 C   0  0  0  0  0  2  0  0  0  0  0  0
  162.8270  212.1320  140.0150 C   0  0  0  0  0  1  0  0  0  0  0  0
  161.8420  211.5170  140.9920 C   0  0  1  0  0  3  0  0  0  0  0  0
  159.4250  211.6910  140.3540 C   0  0  0  0  0  3  0  0  0  0  0  0
  160.2120  213.3430  141.5080 C   0  0  0  0  0  0  0  0  0  0  0  0
  160.5430  212.1850  140.9140 N   0  0  0  0  0  0  0  0  0  0  0  0
  161.1500  214.1870  142.2990 C   0  0  0  0  0  1  0  0  0  0  0  0
  158.8810  213.6320  141.3080 C   0  0  0  0  0  3  0  0  0  0  0  0
  158.3770  212.5710  140.5700 C   0  0  0  0  0  3  0  0  0  0  0  0
  161.2510  205.6120  151.2390 C   0  0  0  0  0  2  0  0  0  0  0  0
  160.8900  204.1210  153.0350 O   0  0  0  0  0  0  0  0  0  0  0  0
  161.1760  205.2570  152.6910 C   0  0  0  0  0  0  0  0  0  0  0  0
  161.5260  206.2760  153.7320 C   0  0  0  0  0  2  0  0  0  0  0  0
  161.3310  207.6850  153.1910 C   0  0  0  0  0  2  0  0  0  0  0  0
  160.7210  209.5970  154.7200 C   0  0  0  0  0  0  0  0  0  0  0  0
  161.9050  210.0310  154.6970 O   0  0  0  0  0  0  0  0  0  0  0  0
  160.3690  208.4100  154.0070 N   0  0  0  0  0  2  0  0  0  0  0  0
  159.6700  210.3460  155.4720 C   0  0  0  0  0  2  0  0  0  0  0  0
  160.2500  212.7650  156.9560 C   0  0  0  0  0  1  0  0  0  0  0  0
  158.2580  212.4790  155.5110 C   0  0  2  0  0  3  0  0  0  0  0  0
  159.6950  212.9850  155.5560 C   0  0  2  0  0  3  0  0  0  0  0  0
  159.3680  211.6930  154.8080 C   0  0  1  0  0  0  0  0  0  0  0  0
  159.4210  211.7640  153.3080 C   0  0  0  0  0  0  0  0  0  0  0  0
  160.0910  212.8090  152.6860 O   0  0  0  0  0  1  0  0  0  0  0  0
  158.8250  210.9030  152.6100 O   0  0  0  0  0  0  0  0  0  0  0  0
  157.4500  213.3880  154.5890 C   0  0  0  0  0  2  0  0  0  0  0  0
  155.2310  212.9760  153.8210 O   0  0  0  0  0  1  0  0  0  0  0  0
  155.9790  213.3220  154.9460 C   0  0  0  0  0  2  0  0  0  0  0  0
  1  4  1  0  0  0  0
  2  6  2  0  0  0  0
  2 10  1  0  0  0  0
  3  1  1  0  0  0  0
  3  8  2  0  0  0  0
  4  9  2  0  0  0  0
  4 34  1  0  0  0  0
  6  7  1  0  0  0  0
  7  1  2  0  0  0  0
  8  5  1  0  0  0  0
  8  9  1  0  0  0  0
 10  3  1  0  0  0  0
 12 11  1  6  0  0  0
 12  6  1  0  0  0  0
 13 12  1  0  0  0  0
 14 13  1  0  0  0  0
 15 14  2  0  0  0  0
 16 15  1  0  0  0  0
 17 19  1  6  0  0  0
 17 23  1  0  0  0  0
 17 16  1  0  0  0  0
 18 19  2  0  0  0  0
 20 19  1  0  0  0  0
 22 21  1  0  0  0  0
 22 20  1  0  0  0  0
 24 23  1  0  0  0  0
 24 25  1  0  0  0  0
 25 27  1  0  0  0  0
 27 26  1  6  0  0  0
 28 33  2  0  0  0  0
 28 30  1  0  0  0  0
 29 31  1  0  0  0  0
 30 27  1  0  0  0  0
 30 29  1  0  0  0  0
 32 29  2  0  0  0  0
 33 32  1  0  0  0  0
 34 36  1  0  0  0  0
 36 35  2  0  0  0  0
 36 37  1  0  0  0  0
 38 37  1  0  0  0  0
 38 41  1  0  0  0  0
 39 42  1  0  0  0  0
 40 39  2  0  0  0  0
 41 39  1  0  0  0  0
 44 50  1  6  0  0  0
 44 45  1  0  0  0  0
 45 43  1  1  0  0  0
 46 42  1  1  0  0  0
 46 44  1  0  0  0  0
 46 45  1  0  0  0  0
 47 46  1  0  0  0  0
 48 47  1  0  0  0  0
 49 47  2  0  0  0  0
 50 52  1  0  0  0  0
 51 52  1  0  0  0  0
M  END
>  <MODEL>
3

>  <REMARK>
 VINA RESULT:      -5.0      3.766      5.690
  Name = 
  23 active torsions:
  status: ('A' for Active; 'I' for Inactive)
    1  A    between atoms: C_2  and  O_23
    2  A    between atoms: C_2  and  C_28
    3  A    between atoms: C_4  and  C_9
    4  A    between atoms: C_4  and  C_52
    5  A    between atoms: O_5  and  C_40
    6  A    between atoms: O_5  and  C_49
    7  A    between atoms: C_6  and  C_15
    8  A    between atoms: C_6  and  C_37
    9  A    between atoms: C_8  and  C_11
   10  A    between atoms: C_8  and  C_22
   11  A    between atoms: C_10  and  C_22
   12  A    between atoms: C_13  and  O_27
   13  A    between atoms: C_13  and  O_35
   14  A    between atoms: C_13  and  C_49
   15  A    between atoms: C_14  and  C_33
   16  A    between atoms: C_14  and  C_43
   17  A    between atoms: C_16  and  C_25
   18  A    between atoms: C_16  and  N_46
   19  A    between atoms: O_23  and  O_27
   20  A    between atoms: C_25  and  C_43
   21  A    between atoms: N_26  and  C_28
   22  A    between atoms: O_35  and  C_44
   23  A    between atoms: C_37  and  C_38
                            x       y       z     vdW  Elec       q    Type
                         _______ _______ _______ _____ _____    ______ ____

>  <TORSDO>
F 23

$$$$
=
 OpenBabel11042422203D

 52 55  0  0  1  0  0  0  0  0999 V2000
  161.2690  202.1330  147.3070 C   0  0  0  0  0  0  0  0  0  0  0  0
  160.7240  203.2960  144.7990 C   0  0  0  0  0  3  0  0  0  0  0  0
  160.8520  201.2790  146.2330 C   0  0  0  0  0  0  0  0  0  0  0  0
  161.5030  201.2380  148.4280 C   0  0  1  0  0  3  0  0  0  0  0  0
  160.4980  198.8840  145.9640 N   0  0  0  0  0  1  0  0  0  0  0  0
  161.0960  204.0650  145.8490 C   0  0  0  0  0  0  0  0  0  0  0  0
  161.3930  203.4500  147.1780 C   0  0  0  0  0  3  0  0  0  0  0  0
  160.8370  200.0460  146.7170 C   0  0  0  0  0  0  0  0  0  0  0  0
  161.2420  200.0100  148.0920 N   0  0  0  0  0  0  0  0  0  0  0  0
  160.5630  201.7860  144.8550 C   0  0  0  0  0  3  0  0  0  0  0  0
  159.8540  206.2070  145.3160 C   0  0  0  0  0  1  0  0  0  0  0  0
  161.1940  205.5510  145.6330 C   0  0  2  0  0  3  0  0  0  0  0  0
  162.2110  205.8690  144.5410 C   0  0  0  0  0  2  0  0  0  0  0  0
  161.5840  205.8260  143.1870 C   0  0  0  0  0  3  0  0  0  0  0  0
  162.1740  206.4160  142.1510 C   0  0  0  0  0  3  0  0  0  0  0  0
  161.6480  206.3980  140.8550 O   0  0  0  0  0  0  0  0  0  0  0  0
  161.5940  207.5400  139.9970 C   0  0  2  0  0  3  0  0  0  0  0  0
  162.5520  206.0760  138.3720 O   0  0  0  0  0  0  0  0  0  0  0  0
  161.9770  207.1760  138.5940 C   0  0  0  0  0  0  0  0  0  0  0  0
  161.7010  208.0630  137.5510 O   0  0  0  0  0  0  0  0  0  0  0  0
  159.6040  208.7620  138.1580 O   0  0  0  0  0  1  0  0  0  0  0  0
  160.3750  208.2940  137.0990 C   0  0  0  0  0  2  0  0  0  0  0  0
  162.3830  208.6010  140.4900 O   0  0  0  0  0  0  0  0  0  0  0  0
  161.6370  209.6900  140.4440 O   0  0  0  0  0  0  0  0  0  0  0  0
  162.5500  210.7480  140.3900 C   0  0  0  0  0  2  0  0  0  0  0  0
  160.6460  212.0170  139.4120 C   0  0  0  0  0  1  0  0  0  0  0  0
  161.7990  212.0690  140.3970 C   0  0  1  0  0  3  0  0  0  0  0  0
  160.2850  211.8000  142.3760 C   0  0  0  0  0  3  0  0  0  0  0  0
  161.9210  213.1930  142.6290 C   0  0  0  0  0  0  0  0  0  0  0  0
  161.3220  212.3780  141.7440 N   0  0  0  0  0  0  0  0  0  0  0  0
  163.1530  213.9830  142.3520 C   0  0  0  0  0  1  0  0  0  0  0  0
  161.2570  213.1790  143.8340 C   0  0  0  0  0  3  0  0  0  0  0  0
  160.2100  212.2850  143.6710 C   0  0  0  0  0  3  0  0  0  0  0  0
  161.9840  201.6300  149.7860 C   0  0  0  0  0  2  0  0  0  0  0  0
  159.7370  202.2240  150.2050 O   0  0  0  0  0  0  0  0  0  0  0  0
  160.8910  202.2470  150.6010 C   0  0  0  0  0  0  0  0  0  0  0  0
  161.1970  202.8330  151.9450 C   0  0  0  0  0  2  0  0  0  0  0  0
  160.4510  204.1440  152.1430 C   0  0  0  0  0  2  0  0  0  0  0  0
  162.1250  206.0230  151.9650 C   0  0  0  0  0  0  0  0  0  0  0  0
  162.4750  205.8650  153.1660 O   0  0  0  0  0  0  0  0  0  0  0  0
  161.0980  205.2110  151.3940 N   0  0  0  0  0  2  0  0  0  0  0  0
  162.8110  207.0470  151.1210 C   0  0  0  0  0  2  0  0  0  0  0  0
  161.3940  206.9930  148.5940 C   0  0  0  0  0  1  0  0  0  0  0  0
  162.3440  209.0500  149.5990 C   0  0  2  0  0  3  0  0  0  0  0  0
  161.0880  208.1920  149.4800 C   0  0  2  0  0  3  0  0  0  0  0  0
  161.8730  208.2120  150.7910 C   0  0  1  0  0  0  0  0  0  0  0  0
  161.2310  208.9420  151.9370 C   0  0  0  0  0  0  0  0  0  0  0  0
  161.5050  210.2880  152.1430 O   0  0  0  0  0  0  0  0  0  0  0  0
  160.4790  208.3290  152.7380 O   0  0  0  0  0  1  0  0  0  0  0  0
  161.9280  210.5170  149.6570 C   0  0  0  0  0  2  0  0  0  0  0  0
  161.4120  211.8700  147.7630 O   0  0  0  0  0  1  0  0  0  0  0  0
  162.4620  211.2610  148.4510 C   0  0  0  0  0  2  0  0  0  0  0  0
  1  4  1  0  0  0  0
  2 10  2  0  0  0  0
  2  6  1  0  0  0  0
  3  8  1  0  0  0  0
  3  1  2  0  0  0  0
  4 34  1  6  0  0  0
  5  8  1  0  0  0  0
  6  7  2  0  0  0  0
  7  1  1  0  0  0  0
  8  9  2  0  0  0  0
  9  4  1  0  0  0  0
 10  3  1  0  0  0  0
 12 11  1  6  0  0  0
 12  6  1  0  0  0  0
 13 12  1  0  0  0  0
 14 13  1  0  0  0  0
 15 14  2  0  0  0  0
 16 15  1  0  0  0  0
 17 19  1  6  0  0  0
 17 23  1  0  0  0  0
 17 16  1  0  0  0  0
 18 19  2  0  0  0  0
 20 19  1  0  0  0  0
 22 20  1  0  0  0  0
 22 21  1  0  0  0  0
 24 23  1  0  0  0  0
 25 27  1  0  0  0  0
 25 24  1  0  0  0  0
 27 26  1  6  0  0  0
 27 30  1  0  0  0  0
 28 33  2  0  0  0  0
 29 32  2  0  0  0  0
 30 28  1  0  0  0  0
 30 29  1  0  0  0  0
 31 29  1  0  0  0  0
 33 32  1  0  0  0  0
 34 36  1  0  0  0  0
 35 36  2  0  0  0  0
 36 37  1  0  0  0  0
 37 38  1  0  0  0  0
 39 40  2  0  0  0  0
 41 39  1  0  0  0  0
 41 38  1  0  0  0  0
 42 39  1  0  0  0  0
 44 50  1  1  0  0  0
 44 46  1  0  0  0  0
 45 43  1  6  0  0  0
 45 44  1  0  0  0  0
 45 46  1  0  0  0  0
 46 42  1  1  0  0  0
 46 47  1  0  0  0  0
 47 48  2  0  0  0  0
 47 49  1  0  0  0  0
 51 52  1  0  0  0  0
 52 50  1  0  0  0  0
M  END
>  <MODEL>
4

>  <REMARK>
 VINA RESULT:      -3.5      3.482      5.664
  Name = 
  23 active torsions:
  status: ('A' for Active; 'I' for Inactive)
    1  A    between atoms: C_2  and  O_23
    2  A    between atoms: C_2  and  C_28
    3  A    between atoms: C_4  and  C_9
    4  A    between atoms: C_4  and  C_52
    5  A    between atoms: O_5  and  C_40
    6  A    between atoms: O_5  and  C_49
    7  A    between atoms: C_6  and  C_15
    8  A    between atoms: C_6  and  C_37
    9  A    between atoms: C_8  and  C_11
   10  A    between atoms: C_8  and  C_22
   11  A    between atoms: C_10  and  C_22
   12  A    between atoms: C_13  and  O_27
   13  A    between atoms: C_13  and  O_35
   14  A    between atoms: C_13  and  C_49
   15  A    between atoms: C_14  and  C_33
   16  A    between atoms: C_14  and  C_43
   17  A    between atoms: C_16  and  C_25
   18  A    between atoms: C_16  and  N_46
   19  A    between atoms: O_23  and  O_27
   20  A    between atoms: C_25  and  C_43
   21  A    between atoms: N_26  and  C_28
   22  A    between atoms: O_35  and  C_44
   23  A    between atoms: C_37  and  C_38
                            x       y       z     vdW  Elec       q    Type
                         _______ _______ _______ _____ _____    ______ ____

>  <TORSDO>
F 23

$$$$
=
 OpenBabel11042422203D

 52 55  0  0  1  0  0  0  0  0999 V2000
  161.3020  202.8750  147.6230 C   0  0  0  0  0  0  0  0  0  0  0  0
  161.2420  204.9960  145.7690 C   0  0  0  0  0  3  0  0  0  0  0  0
  160.9130  202.5920  146.2720 C   0  0  0  0  0  0  0  0  0  0  0  0
  161.2680  201.5890  148.2990 C   0  0  1  0  0  3  0  0  0  0  0  0
  160.2770  200.5910  145.0360 N   0  0  0  0  0  1  0  0  0  0  0  0
  161.5780  205.2200  147.0620 C   0  0  0  0  0  0  0  0  0  0  0  0
  161.6170  204.0950  148.0450 C   0  0  0  0  0  3  0  0  0  0  0  0
  160.6710  201.2910  146.2140 C   0  0  0  0  0  0  0  0  0  0  0  0
  160.8890  200.6540  147.4800 N   0  0  0  0  0  0  0  0  0  0  0  0
  160.8740  203.6360  145.2000 C   0  0  0  0  0  3  0  0  0  0  0  0
  163.4000  206.9210  147.5120 C   0  0  0  0  0  1  0  0  0  0  0  0
  161.9020  206.6310  147.4710 C   0  0  2  0  0  3  0  0  0  0  0  0
  161.2630  206.9600  148.8160 C   0  0  0  0  0  2  0  0  0  0  0  0
  161.0710  208.4300  148.9810 C   0  0  0  0  0  3  0  0  0  0  0  0
  162.1010  209.2630  148.8590 C   0  0  0  0  0  3  0  0  0  0  0  0
  161.9840  210.6510  148.9850 O   0  0  0  0  0  0  0  0  0  0  0  0
  161.7340  211.5360  147.8900 C   0  0  2  0  0  3  0  0  0  0  0  0
  163.3940  213.2200  148.2220 O   0  0  0  0  0  0  0  0  0  0  0  0
  162.1660  212.9330  148.2190 C   0  0  0  0  0  0  0  0  0  0  0  0
  161.2050  213.8980  148.5270 O   0  0  0  0  0  0  0  0  0  0  0  0
  160.6840  213.3920  150.7010 O   0  0  0  0  0  1  0  0  0  0  0  0
  160.1500  213.6370  149.4400 C   0  0  0  0  0  2  0  0  0  0  0  0
  160.3840  211.4950  147.4830 O   0  0  0  0  0  0  0  0  0  0  0  0
  160.2200  212.4560  146.5920 O   0  0  0  0  0  0  0  0  0  0  0  0
  160.2820  211.8130  145.3520 C   0  0  0  0  0  2  0  0  0  0  0  0
  159.1290  213.9530  144.8250 C   0  0  0  0  0  1  0  0  0  0  0  0
  159.9210  212.7950  144.2500 C   0  0  1  0  0  3  0  0  0  0  0  0
  162.1830  213.8680  144.1540 C   0  0  0  0  0  3  0  0  0  0  0  0
  161.4440  213.0680  142.2850 C   0  0  0  0  0  0  0  0  0  0  0  0
  161.1270  213.2700  143.5750 N   0  0  0  0  0  0  0  0  0  0  0  0
  160.5710  212.3750  141.2980 C   0  0  0  0  0  1  0  0  0  0  0  0
  162.6970  213.5660  142.0050 C   0  0  0  0  0  3  0  0  0  0  0  0
  163.1700  214.0770  143.2040 C   0  0  0  0  0  3  0  0  0  0  0  0
  161.6190  201.3310  149.7270 C   0  0  0  0  0  2  0  0  0  0  0  0
  159.4150  201.3320  150.5740 O   0  0  0  0  0  0  0  0  0  0  0  0
  160.5410  201.7980  150.6530 C   0  0  0  0  0  0  0  0  0  0  0  0
  160.8550  202.7870  151.7340 C   0  0  0  0  0  2  0  0  0  0  0  0
  161.3030  204.1120  151.1360 C   0  0  0  0  0  2  0  0  0  0  0  0
  161.4010  206.1610  152.6040 C   0  0  0  0  0  0  0  0  0  0  0  0
  160.3340  206.6090  152.1020 O   0  0  0  0  0  0  0  0  0  0  0  0
  161.9570  204.9270  152.1490 N   0  0  0  0  0  2  0  0  0  0  0  0
  162.0740  206.9120  153.7060 C   0  0  0  0  0  2  0  0  0  0  0  0
  160.9980  209.3510  152.5710 C   0  0  0  0  0  1  0  0  0  0  0  0
  161.5790  209.0850  154.9650 C   0  0  2  0  0  3  0  0  0  0  0  0
  160.4520  208.9830  153.9430 C   0  0  2  0  0  3  0  0  0  0  0  0
  161.0600  207.7110  154.5320 C   0  0  1  0  0  0  0  0  0  0  0  0
  160.2030  206.9570  155.5100 C   0  0  0  0  0  0  0  0  0  0  0  0
  160.7960  206.1990  156.5110 O   0  0  0  0  0  1  0  0  0  0  0  0
  158.9500  206.9740  155.4010 O   0  0  0  0  0  0  0  0  0  0  0  0
  160.9990  209.5900  156.2820 C   0  0  0  0  0  2  0  0  0  0  0  0
  161.2240  211.9450  156.5800 O   0  0  0  0  0  1  0  0  0  0  0  0
  161.8460  210.7210  156.8280 C   0  0  0  0  0  2  0  0  0  0  0  0
  1  7  1  0  0  0  0
  1  4  1  0  0  0  0
  2  6  1  0  0  0  0
  3  1  2  0  0  0  0
  4 34  1  6  0  0  0
  5  8  1  0  0  0  0
  6 12  1  0  0  0  0
  6  7  2  0  0  0  0
  8  3  1  0  0  0  0
  8  9  2  0  0  0  0
  9  4  1  0  0  0  0
 10  2  2  0  0  0  0
 10  3  1  0  0  0  0
 12 11  1  1  0  0  0
 12 13  1  0  0  0  0
 13 14  1  0  0  0  0
 15 14  2  0  0  0  0
 15 16  1  0  0  0  0
 17 23  1  1  0  0  0
 17 19  1  0  0  0  0
 17 16  1  0  0  0  0
 19 18  2  0  0  0  0
 19 20  1  0  0  0  0
 20 22  1  0  0  0  0
 22 21  1  0  0  0  0
 24 23  1  0  0  0  0
 25 24  1  0  0  0  0
 27 26  1  1  0  0  0
 27 25  1  0  0  0  0
 29 30  1  0  0  0  0
 30 28  1  0  0  0  0
 30 27  1  0  0  0  0
 31 29  1  0  0  0  0
 32 29  2  0  0  0  0
 32 33  1  0  0  0  0
 33 28  2  0  0  0  0
 34 36  1  0  0  0  0
 35 36  2  0  0  0  0
 36 37  1  0  0  0  0
 38 37  1  0  0  0  0
 38 41  1  0  0  0  0
 39 42  1  0  0  0  0
 40 39  2  0  0  0  0
 41 39  1  0  0  0  0
 44 50  1  1  0  0  0
 45 43  1  6  0  0  0
 45 46  1  0  0  0  0
 45 44  1  0  0  0  0
 46 42  1  6  0  0  0
 46 44  1  0  0  0  0
 46 47  1  0  0  0  0
 47 48  1  0  0  0  0
 49 47  2  0  0  0  0
 50 52  1  0  0  0  0
 51 52  1  0  0  0  0
M  END
>  <MODEL>
5

>  <REMARK>
 VINA RESULT:      -3.4      1.431      2.156
  Name = 
  23 active torsions:
  status: ('A' for Active; 'I' for Inactive)
    1  A    between atoms: C_2  and  O_23
    2  A    between atoms: C_2  and  C_28
    3  A    between atoms: C_4  and  C_9
    4  A    between atoms: C_4  and  C_52
    5  A    between atoms: O_5  and  C_40
    6  A    between atoms: O_5  and  C_49
    7  A    between atoms: C_6  and  C_15
    8  A    between atoms: C_6  and  C_37
    9  A    between atoms: C_8  and  C_11
   10  A    between atoms: C_8  and  C_22
   11  A    between atoms: C_10  and  C_22
   12  A    between atoms: C_13  and  O_27
   13  A    between atoms: C_13  and  O_35
   14  A    between atoms: C_13  and  C_49
   15  A    between atoms: C_14  and  C_33
   16  A    between atoms: C_14  and  C_43
   17  A    between atoms: C_16  and  C_25
   18  A    between atoms: C_16  and  N_46
   19  A    between atoms: O_23  and  O_27
   20  A    between atoms: C_25  and  C_43
   21  A    between atoms: N_26  and  C_28
   22  A    between atoms: O_35  and  C_44
   23  A    between atoms: C_37  and  C_38
                            x       y       z     vdW  Elec       q    Type
                         _______ _______ _______ _____ _____    ______ ____

>  <TORSDO>
F 23

$$$$
