=
 OpenBabel11042421413D

 47 51  0  0  1  0  0  0  0  0999 V2000
  161.5750  209.0060  151.5030 C   0  0  0  0  0  0  0  0  0  0  0  0
  160.9190  209.3260  152.6530 N   0  0  0  0  0  0  0  0  0  0  0  0
  160.4240  210.5750  152.8710 C   0  0  0  0  0  0  0  0  0  0  0  0
  160.5840  211.5690  151.9030 C   0  0  0  0  0  3  0  0  0  0  0  0
  161.7530  209.9750  150.5130 C   0  0  0  0  0  3  0  0  0  0  0  0
  161.2490  211.2670  150.7120 C   0  0  0  0  0  0  0  0  0  0  0  0
  160.6690  211.6940  155.0970 C   0  0  1  0  0  3  0  0  0  0  0  0
  156.2290  214.4530  154.0180 C   0  0  0  0  0  1  0  0  0  0  0  0
  159.7260  210.8980  154.1570 C   0  0  1  0  0  3  0  0  0  0  0  0
  156.6720  213.5870  156.2440 N   0  0  0  0  0  2  0  0  0  0  0  0
  158.7170  212.9010  155.9030 C   0  0  0  0  0  0  0  0  0  0  0  0
  156.6840  213.2570  154.8260 C   0  0  2  0  0  3  0  0  0  0  0  0
  158.4180  211.6250  153.8850 C   0  0  0  0  0  0  0  0  0  0  0  0
  157.5940  211.1390  153.1260 O   0  0  0  0  0  0  0  0  0  0  0  0
  157.9040  213.2800  156.8210 N   0  0  0  0  0  0  0  0  0  0  0  0
  158.1560  212.9590  154.5320 C   0  0  2  0  0  3  0  0  0  0  0  0
  159.9500  212.3140  156.1660 O   0  0  0  0  0  0  0  0  0  0  0  0
  162.8040  210.7070  154.7390 F   0  0  0  0  0  0  0  0  0  0  0  0
  161.7740  210.8060  155.6550 C   0  0  0  0  0  3  0  0  0  0  0  0
  162.2560  211.3230  156.8440 F   0  0  0  0  0  0  0  0  0  0  0  0
  162.1190  207.6290  151.2950 C   0  0  2  0  0  3  0  0  0  0  0  0
  162.4490  207.3910  149.8270 C   0  0  0  0  0  1  0  0  0  0  0  0
  161.1920  206.5620  151.8950 C   0  0  2  0  0  3  0  0  0  0  0  0
  160.8320  206.3310  154.2700 O   0  0  0  0  0  1  0  0  0  0  0  0
  161.7180  206.0380  153.2310 C   0  0  0  0  0  2  0  0  0  0  0  0
  160.8570  205.4310  150.9220 C   0  0  0  0  0  2  0  0  0  0  0  0
  160.8310  204.0990  151.6480 C   0  0  0  0  0  2  0  0  0  0  0  0
  160.6430  203.0690  150.7270 O   0  0  0  0  0  0  0  0  0  0  0  0
  161.5500  203.3480  149.7020 C   0  0  0  0  0  2  0  0  0  0  0  0
  160.9650  204.1200  144.6900 C   0  0  0  0  0  2  0  0  0  0  0  0
  161.3290  203.1320  145.8070 C   0  0  1  0  0  3  0  0  0  0  0  0
  161.6010  203.7830  147.2010 C   0  0  1  0  0  3  0  0  0  0  0  0
  160.9320  201.0870  146.6330 C   0  0  0  0  0  2  0  0  0  0  0  0
  161.6710  205.4570  144.8870 C   0  0  0  0  0  2  0  0  0  0  0  0
  161.2540  206.0280  146.2070 C   0  0  0  0  0  3  0  0  0  0  0  0
  161.0430  201.4600  148.1180 C   0  0  0  0  0  2  0  0  0  0  0  0
  161.2080  205.2390  147.2860 C   0  0  0  0  0  3  0  0  0  0  0  0
  160.3500  202.1270  145.8900 O   0  0  0  0  0  0  0  0  0  0  0  0
  160.9660  202.9760  148.3440 C   0  0  1  0  0  3  0  0  0  0  0  0
  161.4170  212.2900  149.7280 N   0  0  0  0  0  2  0  0  0  0  0  0
  161.9190  212.0390  148.3830 C   0  0  2  0  0  3  0  0  0  0  0  0
  163.2260  212.5230  148.2740 O   0  0  0  0  0  1  0  0  0  0  0  0
  161.0180  212.6710  147.3100 C   0  0  2  0  0  0  0  0  0  0  0  0
  160.1060  211.7360  146.8500 F   0  0  0  0  0  0  0  0  0  0  0  0
  161.8140  213.0700  146.2370 O   0  0  0  0  0  1  0  0  0  0  0  0
  158.9050  213.8100  147.5550 O   0  0  0  0  0  1  0  0  0  0  0  0
  160.2700  213.8950  147.8380 C   0  0  0  0  0  2  0  0  0  0  0  0
  1  2  1  0  0  0  0
  2  3  2  0  0  0  0
  4  3  1  0  0  0  0
  5  6  1  0  0  0  0
  5  1  2  0  0  0  0
  6  4  2  0  0  0  0
  7 19  1  1  0  0  0
  7 17  1  0  0  0  0
  9  3  1  6  0  0  0
  9  7  1  0  0  0  0
 10 15  1  0  0  0  0
 11 17  1  0  0  0  0
 11 15  2  0  0  0  0
 12  8  1  6  0  0  0
 12 10  1  0  0  0  0
 13  9  1  0  0  0  0
 14 13  2  0  0  0  0
 16 13  1  1  0  0  0
 16 12  1  0  0  0  0
 16 11  1  0  0  0  0
 18 19  1  0  0  0  0
 19 20  1  0  0  0  0
 21 22  1  6  0  0  0
 21  1  1  0  0  0  0
 21 23  1  0  0  0  0
 23 26  1  6  0  0  0
 23 25  1  0  0  0  0
 25 24  1  0  0  0  0
 26 27  1  0  0  0  0
 28 27  1  0  0  0  0
 29 28  1  0  0  0  0
 30 34  1  0  0  0  0
 31 30  1  6  0  0  0
 31 38  1  0  0  0  0
 31 32  1  0  0  0  0
 32 37  1  6  0  0  0
 32 39  1  0  0  0  0
 33 36  1  0  0  0  0
 34 35  1  0  0  0  0
 35 37  2  0  0  0  0
 36 39  1  0  0  0  0
 38 33  1  0  0  0  0
 39 29  1  1  0  0  0
 40  6  1  0  0  0  0
 41 42  1  1  0  0  0
 41 40  1  0  0  0  0
 43 45  1  6  0  0  0
 43 47  1  0  0  0  0
 43 41  1  0  0  0  0
 44 43  1  0  0  0  0
 46 47  1  0  0  0  0
M  END
>  <MODEL>
1

>  <REMARK>
 VINA RESULT:      -8.0      0.000      0.000
  Name = 
  14 active torsions:
  status: ('A' for Active; 'I' for Inactive)
    1  A    between atoms: C_1  and  C_32
    2  A    between atoms: C_1  and  C_39
    3  A    between atoms: C_2  and  C_28
    4  A    between atoms: C_4  and  C_18
    5  A    between atoms: C_6  and  C_33
    6  A    between atoms: C_6  and  C_44
    7  A    between atoms: C_7  and  C_16
    8  A    between atoms: O_8  and  C_10
    9  A    between atoms: O_8  and  C_39
   10  A    between atoms: C_10  and  C_42
   11  A    between atoms: C_18  and  C_32
   12  A    between atoms: C_32  and  C_36
   13  A    between atoms: C_33  and  N_34
   14  A    between atoms: N_34  and  C_38
                            x       y       z     vdW  Elec       q    Type
                         _______ _______ _______ _____ _____    ______ ____

>  <TORSDO>
F 14

$$$$
=
 OpenBabel11042421413D

 47 51  0  0  1  0  0  0  0  0999 V2000
  161.8990  209.0810  150.5820 C   0  0  0  0  0  0  0  0  0  0  0  0
  161.3140  209.6660  151.6640 N   0  0  0  0  0  0  0  0  0  0  0  0
  161.0810  211.0070  151.7150 C   0  0  0  0  0  0  0  0  0  0  0  0
  161.4460  211.8190  150.6400 C   0  0  0  0  0  3  0  0  0  0  0  0
  162.2760  209.8640  149.4890 C   0  0  0  0  0  3  0  0  0  0  0  0
  162.0440  211.2440  149.5160 C   0  0  0  0  0  0  0  0  0  0  0  0
  158.9150  211.7050  152.7580 C   0  0  1  0  0  3  0  0  0  0  0  0
  160.2280  208.8010  157.0400 C   0  0  0  0  0  1  0  0  0  0  0  0
  160.4550  211.6200  152.9290 C   0  0  1  0  0  3  0  0  0  0  0  0
  159.1410  210.9620  157.2610 N   0  0  0  0  0  2  0  0  0  0  0  0
  158.7060  211.3020  155.1480 C   0  0  0  0  0  0  0  0  0  0  0  0
  160.2070  210.2420  156.5780 C   0  0  2  0  0  3  0  0  0  0  0  0
  160.8640  210.8580  154.1820 C   0  0  0  0  0  0  0  0  0  0  0  0
  162.0470  210.6720  154.4250 O   0  0  0  0  0  0  0  0  0  0  0  0
  158.3330  211.6190  156.3340 N   0  0  0  0  0  0  0  0  0  0  0  0
  159.8070  210.3090  155.1020 C   0  0  2  0  0  3  0  0  0  0  0  0
  158.2570  211.9520  154.0030 O   0  0  0  0  0  0  0  0  0  0  0  0
  157.2270  213.1790  151.9580 F   0  0  0  0  0  0  0  0  0  0  0  0
  158.5300  212.7710  151.7420 C   0  0  0  0  0  3  0  0  0  0  0  0
  159.3800  213.8590  151.8340 F   0  0  0  0  0  0  0  0  0  0  0  0
  162.1520  207.6070  150.5590 C   0  0  2  0  0  3  0  0  0  0  0  0
  162.2270  207.0910  149.1280 C   0  0  0  0  0  1  0  0  0  0  0  0
  161.1420  206.8490  151.4310 C   0  0  2  0  0  3  0  0  0  0  0  0
  160.8700  206.8700  153.8290 O   0  0  0  0  0  1  0  0  0  0  0  0
  161.7270  206.4860  152.7950 C   0  0  0  0  0  2  0  0  0  0  0  0
  160.5190  205.6420  150.7290 C   0  0  0  0  0  2  0  0  0  0  0  0
  160.9000  204.3590  151.4440 C   0  0  0  0  0  2  0  0  0  0  0  0
  160.7070  203.2730  150.5910 O   0  0  0  0  0  0  0  0  0  0  0  0
  161.5610  203.5190  149.5140 C   0  0  0  0  0  2  0  0  0  0  0  0
  160.7150  203.9280  144.4970 C   0  0  0  0  0  2  0  0  0  0  0  0
  161.1930  203.0400  145.6540 C   0  0  1  0  0  3  0  0  0  0  0  0
  161.4770  203.7960  146.9920 C   0  0  1  0  0  3  0  0  0  0  0  0
  160.9740  201.0300  146.6210 C   0  0  0  0  0  2  0  0  0  0  0  0
  161.3340  205.3190  144.5790 C   0  0  0  0  0  2  0  0  0  0  0  0
  160.9340  205.9440  145.8800 C   0  0  0  0  0  3  0  0  0  0  0  0
  161.1210  201.5040  148.0740 C   0  0  0  0  0  2  0  0  0  0  0  0
  160.9870  205.2240  147.0050 C   0  0  0  0  0  3  0  0  0  0  0  0
  160.2910  201.9800  145.8440 O   0  0  0  0  0  0  0  0  0  0  0  0
  160.9480  203.0230  148.2100 C   0  0  1  0  0  3  0  0  0  0  0  0
  162.4230  212.0830  148.4210 N   0  0  0  0  0  2  0  0  0  0  0  0
  161.6600  213.2520  148.0010 C   0  0  2  0  0  3  0  0  0  0  0  0
  161.3510  214.0350  149.1160 O   0  0  0  0  0  1  0  0  0  0  0  0
  160.3800  212.8560  147.2470 C   0  0  2  0  0  0  0  0  0  0  0  0
  160.3770  211.4930  147.0050 F   0  0  0  0  0  0  0  0  0  0  0  0
  160.3620  213.5190  146.0190 O   0  0  0  0  0  1  0  0  0  0  0  0
  158.0160  213.3320  147.1670 O   0  0  0  0  0  1  0  0  0  0  0  0
  159.1180  213.2390  148.0200 C   0  0  0  0  0  2  0  0  0  0  0  0
  1  2  1  0  0  0  0
  2  3  2  0  0  0  0
  4  3  1  0  0  0  0
  5  6  1  0  0  0  0
  5  1  2  0  0  0  0
  6  4  2  0  0  0  0
  7 19  1  6  0  0  0
  7  9  1  0  0  0  0
  7 17  1  0  0  0  0
  9  3  1  6  0  0  0
  9 13  1  0  0  0  0
 11 15  2  0  0  0  0
 12  8  1  1  0  0  0
 12 10  1  0  0  0  0
 13 14  2  0  0  0  0
 15 10  1  0  0  0  0
 16 13  1  6  0  0  0
 16 11  1  0  0  0  0
 16 12  1  0  0  0  0
 17 11  1  0  0  0  0
 19 20  1  0  0  0  0
 19 18  1  0  0  0  0
 21 22  1  6  0  0  0
 21  1  1  0  0  0  0
 21 23  1  0  0  0  0
 23 26  1  6  0  0  0
 23 25  1  0  0  0  0
 25 24  1  0  0  0  0
 26 27  1  0  0  0  0
 28 27  1  0  0  0  0
 29 28  1  0  0  0  0
 30 34  1  0  0  0  0
 31 30  1  6  0  0  0
 31 38  1  0  0  0  0
 31 32  1  0  0  0  0
 32 37  1  6  0  0  0
 32 39  1  0  0  0  0
 33 36  1  0  0  0  0
 34 35  1  0  0  0  0
 35 37  2  0  0  0  0
 36 39  1  0  0  0  0
 38 33  1  0  0  0  0
 39 29  1  1  0  0  0
 40  6  1  0  0  0  0
 41 40  1  0  0  0  0
 41 42  1  1  0  0  0
 43 45  1  6  0  0  0
 43 41  1  0  0  0  0
 43 47  1  0  0  0  0
 44 43  1  0  0  0  0
 46 47  1  0  0  0  0
M  END
>  <MODEL>
2

>  <REMARK>
 VINA RESULT:      -7.3      1.785      2.544
  Name = 
  14 active torsions:
  status: ('A' for Active; 'I' for Inactive)
    1  A    between atoms: C_1  and  C_32
    2  A    between atoms: C_1  and  C_39
    3  A    between atoms: C_2  and  C_28
    4  A    between atoms: C_4  and  C_18
    5  A    between atoms: C_6  and  C_33
    6  A    between atoms: C_6  and  C_44
    7  A    between atoms: C_7  and  C_16
    8  A    between atoms: O_8  and  C_10
    9  A    between atoms: O_8  and  C_39
   10  A    between atoms: C_10  and  C_42
   11  A    between atoms: C_18  and  C_32
   12  A    between atoms: C_32  and  C_36
   13  A    between atoms: C_33  and  N_34
   14  A    between atoms: N_34  and  C_38
                            x       y       z     vdW  Elec       q    Type
                         _______ _______ _______ _____ _____    ______ ____

>  <TORSDO>
F 14

$$$$
=
 OpenBabel11042421413D

 47 51  0  0  1  0  0  0  0  0999 V2000
  161.6240  208.9330  152.7350 C   0  0  0  0  0  0  0  0  0  0  0  0
  161.8490  207.7850  152.0390 N   0  0  0  0  0  0  0  0  0  0  0  0
  161.9890  207.7830  150.6840 C   0  0  0  0  0  0  0  0  0  0  0  0
  161.8990  208.9820  149.9730 C   0  0  0  0  0  3  0  0  0  0  0  0
  161.5300  210.1490  152.0560 C   0  0  0  0  0  3  0  0  0  0  0  0
  161.6740  210.1750  150.6630 C   0  0  0  0  0  0  0  0  0  0  0  0
  161.3000  205.3820  150.5190 C   0  0  1  0  0  3  0  0  0  0  0  0
  160.3710  206.1740  145.3230 C   0  0  0  0  0  1  0  0  0  0  0  0
  162.2140  206.4980  149.9480 C   0  0  1  0  0  3  0  0  0  0  0  0
  161.3900  204.1210  146.1290 N   0  0  0  0  0  2  0  0  0  0  0  0
  161.1360  204.4740  148.2690 C   0  0  0  0  0  0  0  0  0  0  0  0
  161.4190  205.5730  146.2360 C   0  0  2  0  0  3  0  0  0  0  0  0
  162.0260  206.7020  148.4520 C   0  0  0  0  0  0  0  0  0  0  0  0
  162.6470  207.5780  147.8710 O   0  0  0  0  0  0  0  0  0  0  0  0
  161.2870  203.5460  147.3950 N   0  0  0  0  0  0  0  0  0  0  0  0
  161.0500  205.8390  147.6970 C   0  0  2  0  0  3  0  0  0  0  0  0
  161.2250  204.2580  149.6400 O   0  0  0  0  0  0  0  0  0  0  0  0
  160.8340  205.3070  152.8520 F   0  0  0  0  0  0  0  0  0  0  0  0
  161.7660  204.9380  151.8990 C   0  0  0  0  0  3  0  0  0  0  0  0
  161.9460  203.5670  151.9320 F   0  0  0  0  0  0  0  0  0  0  0  0
  161.4650  208.9020  154.2210 C   0  0  2  0  0  3  0  0  0  0  0  0
  160.4410  207.8530  154.6370 C   0  0  0  0  0  1  0  0  0  0  0  0
  161.1720  210.3000  154.7850 C   0  0  2  0  0  3  0  0  0  0  0  0
  163.4800  210.7420  155.3370 O   0  0  0  0  0  1  0  0  0  0  0  0
  162.1840  210.7050  155.8560 C   0  0  0  0  0  2  0  0  0  0  0  0
  159.7290  210.4750  155.2570 C   0  0  0  0  0  2  0  0  0  0  0  0
  159.6930  210.8260  156.7320 C   0  0  0  0  0  2  0  0  0  0  0  0
  158.4670  211.4120  157.0440 O   0  0  0  0  0  0  0  0  0  0  0  0
  158.7170  212.7860  157.0090 C   0  0  0  0  0  2  0  0  0  0  0  0
  155.8700  214.4470  153.1110 C   0  0  0  0  0  2  0  0  0  0  0  0
  155.9080  213.7030  154.4540 C   0  0  1  0  0  3  0  0  0  0  0  0
  157.3340  213.2930  154.9410 C   0  0  1  0  0  3  0  0  0  0  0  0
  154.9700  213.5590  156.4840 C   0  0  0  0  0  2  0  0  0  0  0  0
  156.9860  213.9700  152.1870 C   0  0  0  0  0  2  0  0  0  0  0  0
  158.3010  214.2230  152.8560 C   0  0  0  0  0  3  0  0  0  0  0  0
  156.2550  213.2360  157.2610 C   0  0  0  0  0  2  0  0  0  0  0  0
  158.4570  213.9200  154.1490 C   0  0  0  0  0  3  0  0  0  0  0  0
  155.2250  214.4490  155.4300 O   0  0  0  0  0  0  0  0  0  0  0  0
  157.5190  213.5420  156.4460 C   0  0  1  0  0  3  0  0  0  0  0  0
  161.5760  211.3980  149.9280 N   0  0  0  0  0  2  0  0  0  0  0  0
  161.9360  211.5230  148.5200 C   0  0  2  0  0  3  0  0  0  0  0  0
  163.2760  211.9040  148.4130 O   0  0  0  0  0  1  0  0  0  0  0  0
  161.0290  212.5220  147.7860 C   0  0  2  0  0  0  0  0  0  0  0  0
  160.1570  211.8440  146.9520 F   0  0  0  0  0  0  0  0  0  0  0  0
  161.8270  213.3560  147.0010 O   0  0  0  0  0  1  0  0  0  0  0  0
  158.9400  213.6260  148.2780 O   0  0  0  0  0  1  0  0  0  0  0  0
  160.2310  213.3930  148.7570 C   0  0  0  0  0  2  0  0  0  0  0  0
  1 21  1  0  0  0  0
  2  1  2  0  0  0  0
  3  2  1  0  0  0  0
  4  6  1  0  0  0  0
  4  3  2  0  0  0  0
  5  1  1  0  0  0  0
  6  5  2  0  0  0  0
  7 19  1  1  0  0  0
  9  7  1  0  0  0  0
  9  3  1  1  0  0  0
 10 12  1  0  0  0  0
 10 15  1  0  0  0  0
 11 17  1  0  0  0  0
 12  8  1  6  0  0  0
 12 16  1  0  0  0  0
 13  9  1  0  0  0  0
 14 13  2  0  0  0  0
 15 11  2  0  0  0  0
 16 11  1  1  0  0  0
 16 13  1  0  0  0  0
 17  7  1  0  0  0  0
 19 20  1  0  0  0  0
 19 18  1  0  0  0  0
 21 22  1  6  0  0  0
 21 23  1  0  0  0  0
 23 26  1  1  0  0  0
 23 25  1  0  0  0  0
 24 25  1  0  0  0  0
 26 27  1  0  0  0  0
 27 28  1  0  0  0  0
 29 28  1  0  0  0  0
 31 30  1  6  0  0  0
 31 32  1  0  0  0  0
 31 38  1  0  0  0  0
 32 37  1  6  0  0  0
 32 39  1  0  0  0  0
 33 36  1  0  0  0  0
 34 35  1  0  0  0  0
 34 30  1  0  0  0  0
 35 37  2  0  0  0  0
 38 33  1  0  0  0  0
 39 29  1  1  0  0  0
 39 36  1  0  0  0  0
 40  6  1  0  0  0  0
 41 42  1  1  0  0  0
 41 40  1  0  0  0  0
 43 44  1  6  0  0  0
 43 41  1  0  0  0  0
 43 47  1  0  0  0  0
 45 43  1  0  0  0  0
 46 47  1  0  0  0  0
M  END
>  <MODEL>
3

>  <REMARK>
 VINA RESULT:      -6.9      2.821      9.225
  Name = 
  14 active torsions:
  status: ('A' for Active; 'I' for Inactive)
    1  A    between atoms: C_1  and  C_32
    2  A    between atoms: C_1  and  C_39
    3  A    between atoms: C_2  and  C_28
    4  A    between atoms: C_4  and  C_18
    5  A    between atoms: C_6  and  C_33
    6  A    between atoms: C_6  and  C_44
    7  A    between atoms: C_7  and  C_16
    8  A    between atoms: O_8  and  C_10
    9  A    between atoms: O_8  and  C_39
   10  A    between atoms: C_10  and  C_42
   11  A    between atoms: C_18  and  C_32
   12  A    between atoms: C_32  and  C_36
   13  A    between atoms: C_33  and  N_34
   14  A    between atoms: N_34  and  C_38
                            x       y       z     vdW  Elec       q    Type
                         _______ _______ _______ _____ _____    ______ ____

>  <TORSDO>
F 14

$$$$
=
 OpenBabel11042421413D

 47 51  0  0  1  0  0  0  0  0999 V2000
  161.5310  210.6780  150.5790 C   0  0  0  0  0  0  0  0  0  0  0  0
  161.8350  209.4750  150.0200 N   0  0  0  0  0  0  0  0  0  0  0  0
  161.7070  208.3100  150.7130 C   0  0  0  0  0  0  0  0  0  0  0  0
  161.2550  208.3300  152.0340 C   0  0  0  0  0  3  0  0  0  0  0  0
  161.0750  210.7360  151.8980 C   0  0  0  0  0  3  0  0  0  0  0  0
  160.9310  209.5510  152.6300 C   0  0  0  0  0  0  0  0  0  0  0  0
  161.2350  205.8510  150.6860 C   0  0  1  0  0  3  0  0  0  0  0  0
  160.4560  206.2230  145.4190 C   0  0  0  0  0  1  0  0  0  0  0  0
  162.0720  207.0050  150.0740 C   0  0  1  0  0  3  0  0  0  0  0  0
  161.6140  204.3240  146.3970 N   0  0  0  0  0  2  0  0  0  0  0  0
  161.2430  204.7900  148.4980 C   0  0  0  0  0  0  0  0  0  0  0  0
  161.5130  205.7770  146.4070 C   0  0  2  0  0  3  0  0  0  0  0  0
  161.9290  207.0950  148.5610 C   0  0  0  0  0  0  0  0  0  0  0  0
  162.4960  207.9840  147.9450 O   0  0  0  0  0  0  0  0  0  0  0  0
  161.5080  203.8250  147.6940 N   0  0  0  0  0  0  0  0  0  0  0  0
  161.0620  206.1030  147.8330 C   0  0  2  0  0  3  0  0  0  0  0  0
  161.2940  204.6710  149.8830 O   0  0  0  0  0  0  0  0  0  0  0  0
  161.2250  204.2890  152.4810 F   0  0  0  0  0  0  0  0  0  0  0  0
  161.6800  205.5390  152.1090 C   0  0  0  0  0  3  0  0  0  0  0  0
  163.0600  205.5800  152.2040 F   0  0  0  0  0  0  0  0  0  0  0  0
  161.6920  211.9430  149.7970 C   0  0  2  0  0  3  0  0  0  0  0  0
  160.4810  212.8500  149.9750 C   0  0  0  0  0  1  0  0  0  0  0  0
  162.0320  211.6560  148.3270 C   0  0  2  0  0  3  0  0  0  0  0  0
  164.2520  211.5640  147.3870 O   0  0  0  0  0  1  0  0  0  0  0  0
  163.2670  212.4300  147.8680 C   0  0  0  0  0  2  0  0  0  0  0  0
  160.8460  211.8460  147.3810 C   0  0  0  0  0  2  0  0  0  0  0  0
  161.0810  213.0350  146.4700 C   0  0  0  0  0  2  0  0  0  0  0  0
  161.2000  212.5980  145.1510 O   0  0  0  0  0  0  0  0  0  0  0  0
  159.8880  212.5770  144.6700 C   0  0  0  0  0  2  0  0  0  0  0  0
  160.4040  212.7630  139.5950 C   0  0  0  0  0  2  0  0  0  0  0  0
  159.4860  212.9850  140.8060 C   0  0  1  0  0  3  0  0  0  0  0  0
  159.9950  212.3580  142.1440 C   0  0  1  0  0  3  0  0  0  0  0  0
  158.0970  214.4370  141.7990 C   0  0  0  0  0  2  0  0  0  0  0  0
  161.1280  211.4240  139.6920 C   0  0  0  0  0  2  0  0  0  0  0  0
  161.9490  211.4150  140.9440 C   0  0  0  0  0  3  0  0  0  0  0  0
  158.4750  214.0960  143.2480 C   0  0  0  0  0  2  0  0  0  0  0  0
  161.4220  211.8670  142.0870 C   0  0  0  0  0  3  0  0  0  0  0  0
  159.2130  214.3560  140.9510 O   0  0  0  0  0  0  0  0  0  0  0  0
  159.7880  213.3050  143.3350 C   0  0  1  0  0  3  0  0  0  0  0  0
  160.4750  209.5660  153.9860 N   0  0  0  0  0  2  0  0  0  0  0  0
  161.0680  208.7560  155.0430 C   0  0  2  0  0  3  0  0  0  0  0  0
  160.1340  207.8180  155.4910 O   0  0  0  0  0  1  0  0  0  0  0  0
  161.5690  209.6200  156.2110 C   0  0  2  0  0  0  0  0  0  0  0  0
  162.0460  208.8100  157.2270 F   0  0  0  0  0  0  0  0  0  0  0  0
  160.4970  210.3620  156.7090 O   0  0  0  0  0  1  0  0  0  0  0  0
  163.5040  210.9140  156.8450 O   0  0  0  0  0  1  0  0  0  0  0  0
  162.6660  210.5910  155.7760 C   0  0  0  0  0  2  0  0  0  0  0  0
  1  5  1  0  0  0  0
  2  1  2  0  0  0  0
  2  3  1  0  0  0  0
  3  4  2  0  0  0  0
  4  6  1  0  0  0  0
  5  6  2  0  0  0  0
  6 40  1  0  0  0  0
  7 19  1  1  0  0  0
  9  7  1  0  0  0  0
  9  3  1  1  0  0  0
 10 12  1  0  0  0  0
 10 15  1  0  0  0  0
 11 17  1  0  0  0  0
 12  8  1  6  0  0  0
 12 16  1  0  0  0  0
 13  9  1  0  0  0  0
 14 13  2  0  0  0  0
 15 11  2  0  0  0  0
 16 11  1  1  0  0  0
 16 13  1  0  0  0  0
 17  7  1  0  0  0  0
 19 20  1  0  0  0  0
 19 18  1  0  0  0  0
 21 22  1  6  0  0  0
 21  1  1  0  0  0  0
 23 26  1  6  0  0  0
 23 21  1  0  0  0  0
 24 25  1  0  0  0  0
 25 23  1  0  0  0  0
 27 26  1  0  0  0  0
 28 27  1  0  0  0  0
 29 28  1  0  0  0  0
 30 34  1  0  0  0  0
 31 30  1  6  0  0  0
 31 38  1  0  0  0  0
 31 32  1  0  0  0  0
 32 37  1  6  0  0  0
 32 39  1  0  0  0  0
 33 36  1  0  0  0  0
 34 35  1  0  0  0  0
 35 37  2  0  0  0  0
 36 39  1  0  0  0  0
 38 33  1  0  0  0  0
 39 29  1  1  0  0  0
 40 41  1  0  0  0  0
 41 42  1  1  0  0  0
 41 43  1  0  0  0  0
 43 45  1  1  0  0  0
 43 44  1  0  0  0  0
 47 43  1  0  0  0  0
 47 46  1  0  0  0  0
M  END
>  <MODEL>
4

>  <REMARK>
 VINA RESULT:      -6.6      3.836      9.220
  Name = 
  14 active torsions:
  status: ('A' for Active; 'I' for Inactive)
    1  A    between atoms: C_1  and  C_32
    2  A    between atoms: C_1  and  C_39
    3  A    between atoms: C_2  and  C_28
    4  A    between atoms: C_4  and  C_18
    5  A    between atoms: C_6  and  C_33
    6  A    between atoms: C_6  and  C_44
    7  A    between atoms: C_7  and  C_16
    8  A    between atoms: O_8  and  C_10
    9  A    between atoms: O_8  and  C_39
   10  A    between atoms: C_10  and  C_42
   11  A    between atoms: C_18  and  C_32
   12  A    between atoms: C_32  and  C_36
   13  A    between atoms: C_33  and  N_34
   14  A    between atoms: N_34  and  C_38
                            x       y       z     vdW  Elec       q    Type
                         _______ _______ _______ _____ _____    ______ ____

>  <TORSDO>
F 14

$$$$
=
 OpenBabel11042421413D

 47 51  0  0  1  0  0  0  0  0999 V2000
  161.4610  210.9840  150.3340 C   0  0  0  0  0  0  0  0  0  0  0  0
  161.7770  209.7490  149.8540 N   0  0  0  0  0  0  0  0  0  0  0  0
  161.6610  208.6310  150.6220 C   0  0  0  0  0  0  0  0  0  0  0  0
  161.2080  208.7330  151.9400 C   0  0  0  0  0  3  0  0  0  0  0  0
  161.0050  211.1230  151.6460 C   0  0  0  0  0  3  0  0  0  0  0  0
  160.8720  209.9870  152.4550 C   0  0  0  0  0  0  0  0  0  0  0  0
  161.2050  206.1730  150.7490 C   0  0  1  0  0  3  0  0  0  0  0  0
  160.4560  206.2030  145.4650 C   0  0  0  0  0  1  0  0  0  0  0  0
  162.0380  207.2910  150.0700 C   0  0  1  0  0  3  0  0  0  0  0  0
  161.6210  204.3780  146.5680 N   0  0  0  0  0  2  0  0  0  0  0  0
  161.2330  204.9740  148.6330 C   0  0  0  0  0  0  0  0  0  0  0  0
  161.5100  205.8280  146.4850 C   0  0  2  0  0  3  0  0  0  0  0  0
  161.9040  207.2830  148.5540 C   0  0  0  0  0  0  0  0  0  0  0  0
  162.4690  208.1350  147.8860 O   0  0  0  0  0  0  0  0  0  0  0  0
  161.5100  203.9620  147.8940 N   0  0  0  0  0  0  0  0  0  0  0  0
  161.0480  206.2410  147.8850 C   0  0  2  0  0  3  0  0  0  0  0  0
  161.2770  204.9440  150.0230 O   0  0  0  0  0  0  0  0  0  0  0  0
  161.1570  204.7470  152.6540 F   0  0  0  0  0  0  0  0  0  0  0  0
  161.6440  205.9550  152.1910 C   0  0  0  0  0  3  0  0  0  0  0  0
  163.0240  205.9680  152.2850 F   0  0  0  0  0  0  0  0  0  0  0  0
  161.6100  212.1960  149.4700 C   0  0  2  0  0  3  0  0  0  0  0  0
  160.5040  213.2040  149.7540 C   0  0  0  0  0  1  0  0  0  0  0  0
  161.7290  211.8190  147.9870 C   0  0  2  0  0  3  0  0  0  0  0  0
  164.1100  212.2090  148.0300 O   0  0  0  0  0  1  0  0  0  0  0  0
  162.9360  212.4850  147.3270 C   0  0  0  0  0  2  0  0  0  0  0  0
  160.4400  212.0450  147.1970 C   0  0  0  0  0  2  0  0  0  0  0  0
  160.7000  212.9480  146.0070 C   0  0  0  0  0  2  0  0  0  0  0  0
  160.2130  212.3460  144.8470 O   0  0  0  0  0  0  0  0  0  0  0  0
  160.6740  213.1610  143.8100 C   0  0  0  0  0  2  0  0  0  0  0  0
  159.3300  212.5460  138.9240 C   0  0  0  0  0  2  0  0  0  0  0  0
  160.4730  212.6210  139.9470 C   0  0  1  0  0  3  0  0  0  0  0  0
  160.0720  213.1930  141.3440 C   0  0  1  0  0  3  0  0  0  0  0  0
  162.3250  211.6000  140.6880 C   0  0  0  0  0  2  0  0  0  0  0  0
  158.3320  213.6810  139.1310 C   0  0  0  0  0  2  0  0  0  0  0  0
  157.7670  213.5740  140.5140 C   0  0  0  0  0  3  0  0  0  0  0  0
  162.1380  211.9310  142.1760 C   0  0  0  0  0  2  0  0  0  0  0  0
  158.5820  213.3310  141.5460 C   0  0  0  0  0  3  0  0  0  0  0  0
  161.0910  211.3640  140.0620 O   0  0  0  0  0  0  0  0  0  0  0  0
  160.7100  212.3950  142.4930 C   0  0  1  0  0  3  0  0  0  0  0  0
  160.4170  210.0870  153.8070 N   0  0  0  0  0  2  0  0  0  0  0  0
  160.1750  211.3550  154.4840 C   0  0  2  0  0  3  0  0  0  0  0  0
  160.6770  211.2920  155.7870 O   0  0  0  0  0  1  0  0  0  0  0  0
  158.6820  211.7200  154.4970 C   0  0  2  0  0  0  0  0  0  0  0  0
  158.0840  211.3030  153.3200 F   0  0  0  0  0  0  0  0  0  0  0  0
  158.5630  213.1080  154.5810 O   0  0  0  0  0  1  0  0  0  0  0  0
  156.5910  210.9390  155.4130 O   0  0  0  0  0  1  0  0  0  0  0  0
  157.9510  211.1000  155.6870 C   0  0  0  0  0  2  0  0  0  0  0  0
  1  5  1  0  0  0  0
  2  1  2  0  0  0  0
  2  3  1  0  0  0  0
  3  4  2  0  0  0  0
  4  6  1  0  0  0  0
  5  6  2  0  0  0  0
  6 40  1  0  0  0  0
  7 19  1  1  0  0  0
  9  3  1  1  0  0  0
  9  7  1  0  0  0  0
 10 15  1  0  0  0  0
 11 17  1  0  0  0  0
 12  8  1  6  0  0  0
 12 10  1  0  0  0  0
 12 16  1  0  0  0  0
 13  9  1  0  0  0  0
 14 13  2  0  0  0  0
 15 11  2  0  0  0  0
 16 13  1  1  0  0  0
 16 11  1  0  0  0  0
 17  7  1  0  0  0  0
 19 20  1  0  0  0  0
 19 18  1  0  0  0  0
 21 22  1  6  0  0  0
 21  1  1  0  0  0  0
 23 26  1  6  0  0  0
 23 21  1  0  0  0  0
 25 23  1  0  0  0  0
 25 24  1  0  0  0  0
 27 26  1  0  0  0  0
 28 27  1  0  0  0  0
 29 28  1  0  0  0  0
 30 34  1  0  0  0  0
 31 30  1  6  0  0  0
 31 38  1  0  0  0  0
 31 32  1  0  0  0  0
 32 37  1  1  0  0  0
 32 39  1  0  0  0  0
 33 36  1  0  0  0  0
 34 35  1  0  0  0  0
 35 37  2  0  0  0  0
 36 39  1  0  0  0  0
 38 33  1  0  0  0  0
 39 29  1  1  0  0  0
 40 41  1  0  0  0  0
 41 43  1  0  0  0  0
 41 42  1  1  0  0  0
 43 44  1  6  0  0  0
 43 45  1  0  0  0  0
 43 47  1  0  0  0  0
 46 47  1  0  0  0  0
M  END
>  <MODEL>
5

>  <REMARK>
 VINA RESULT:      -6.5      4.067      8.920
  Name = 
  14 active torsions:
  status: ('A' for Active; 'I' for Inactive)
    1  A    between atoms: C_1  and  C_32
    2  A    between atoms: C_1  and  C_39
    3  A    between atoms: C_2  and  C_28
    4  A    between atoms: C_4  and  C_18
    5  A    between atoms: C_6  and  C_33
    6  A    between atoms: C_6  and  C_44
    7  A    between atoms: C_7  and  C_16
    8  A    between atoms: O_8  and  C_10
    9  A    between atoms: O_8  and  C_39
   10  A    between atoms: C_10  and  C_42
   11  A    between atoms: C_18  and  C_32
   12  A    between atoms: C_32  and  C_36
   13  A    between atoms: C_33  and  N_34
   14  A    between atoms: N_34  and  C_38
                            x       y       z     vdW  Elec       q    Type
                         _______ _______ _______ _____ _____    ______ ____

>  <TORSDO>
F 14

$$$$
=
 OpenBabel11042421413D

 47 51  0  0  1  0  0  0  0  0999 V2000
  161.9090  210.4650  149.4000 C   0  0  0  0  0  0  0  0  0  0  0  0
  162.0220  209.1390  149.1100 N   0  0  0  0  0  0  0  0  0  0  0  0
  162.0780  208.1940  150.0880 C   0  0  0  0  0  0  0  0  0  0  0  0
  162.0210  208.5750  151.4300 C   0  0  0  0  0  3  0  0  0  0  0  0
  161.8480  210.8810  150.7310 C   0  0  0  0  0  3  0  0  0  0  0  0
  161.9000  209.9280  151.7560 C   0  0  0  0  0  0  0  0  0  0  0  0
  161.1340  205.9030  150.4440 C   0  0  1  0  0  3  0  0  0  0  0  0
  160.8340  205.3780  145.1410 C   0  0  0  0  0  1  0  0  0  0  0  0
  162.2250  206.7460  149.7330 C   0  0  1  0  0  3  0  0  0  0  0  0
  161.5200  203.5290  146.5600 N   0  0  0  0  0  2  0  0  0  0  0  0
  161.0940  204.4530  148.4930 C   0  0  0  0  0  0  0  0  0  0  0  0
  161.7060  204.9500  146.3020 C   0  0  2  0  0  3  0  0  0  0  0  0
  162.2140  206.5640  148.2220 C   0  0  0  0  0  0  0  0  0  0  0  0
  162.9890  207.2000  147.5240 O   0  0  0  0  0  0  0  0  0  0  0  0
  161.2220  203.3180  147.9060 N   0  0  0  0  0  0  0  0  0  0  0  0
  161.2250  205.6220  147.5900 C   0  0  2  0  0  3  0  0  0  0  0  0
  161.0180  204.5980  149.8740 O   0  0  0  0  0  0  0  0  0  0  0  0
  160.8460  204.6360  152.4380 F   0  0  0  0  0  0  0  0  0  0  0  0
  161.4030  205.7990  151.9400 C   0  0  0  0  0  3  0  0  0  0  0  0
  162.7640  205.8060  152.1890 F   0  0  0  0  0  0  0  0  0  0  0  0
  161.8600  211.4820  148.3040 C   0  0  2  0  0  3  0  0  0  0  0  0
  163.2060  212.1760  148.1470 C   0  0  0  0  0  1  0  0  0  0  0  0
  160.6880  212.4550  148.4920 C   0  0  2  0  0  3  0  0  0  0  0  0
  160.9000  213.6760  146.4210 O   0  0  0  0  0  1  0  0  0  0  0  0
  160.0530  212.8450  147.1570 C   0  0  0  0  0  2  0  0  0  0  0  0
  161.0400  213.6750  149.3430 C   0  0  0  0  0  2  0  0  0  0  0  0
  159.7790  214.3720  149.8170 C   0  0  0  0  0  2  0  0  0  0  0  0
  159.1110  213.5590  150.7320 O   0  0  0  0  0  0  0  0  0  0  0  0
  158.6200  214.4450  151.6940 C   0  0  0  0  0  2  0  0  0  0  0  0
  155.2730  213.8000  155.4940 C   0  0  0  0  0  2  0  0  0  0  0  0
  155.5270  214.3360  154.0770 C   0  0  1  0  0  3  0  0  0  0  0  0
  157.0320  214.4490  153.6740 C   0  0  1  0  0  3  0  0  0  0  0  0
  154.7700  214.3430  151.9680 C   0  0  0  0  0  2  0  0  0  0  0  0
  156.3850  214.2210  156.4480 C   0  0  0  0  0  2  0  0  0  0  0  0
  157.6840  213.6760  155.9380 C   0  0  0  0  0  3  0  0  0  0  0  0
  156.1410  214.3520  151.2770 C   0  0  0  0  0  2  0  0  0  0  0  0
  157.9770  213.7710  154.6370 C   0  0  0  0  0  3  0  0  0  0  0  0
  154.7990  213.5780  153.1440 O   0  0  0  0  0  0  0  0  0  0  0  0
  157.2770  213.9690  152.2360 C   0  0  1  0  0  3  0  0  0  0  0  0
  161.8500  210.3120  153.1320 N   0  0  0  0  0  2  0  0  0  0  0  0
  160.6970  210.0750  153.9930 C   0  0  2  0  0  3  0  0  0  0  0  0
  159.9690  211.2590  154.1360 O   0  0  0  0  0  1  0  0  0  0  0  0
  161.1150  209.5270  155.3670 C   0  0  2  0  0  0  0  0  0  0  0  0
  160.2430  209.9830  156.3410 F   0  0  0  0  0  0  0  0  0  0  0  0
  162.3920  210.0010  155.6670 O   0  0  0  0  0  1  0  0  0  0  0  0
  159.9280  207.4760  155.8180 O   0  0  0  0  0  1  0  0  0  0  0  0
  161.1490  208.0000  155.3890 C   0  0  0  0  0  2  0  0  0  0  0  0
  1  5  1  0  0  0  0
  2  1  2  0  0  0  0
  2  3  1  0  0  0  0
  3  4  2  0  0  0  0
  4  6  1  0  0  0  0
  5  6  2  0  0  0  0
  6 40  1  0  0  0  0
  7 19  1  1  0  0  0
  9  3  1  6  0  0  0
  9  7  1  0  0  0  0
 10 15  1  0  0  0  0
 11 17  1  0  0  0  0
 12  8  1  6  0  0  0
 12 10  1  0  0  0  0
 12 16  1  0  0  0  0
 13  9  1  0  0  0  0
 14 13  2  0  0  0  0
 15 11  2  0  0  0  0
 16 13  1  1  0  0  0
 16 11  1  0  0  0  0
 17  7  1  0  0  0  0
 19 20  1  0  0  0  0
 19 18  1  0  0  0  0
 21 22  1  1  0  0  0
 21 23  1  0  0  0  0
 21  1  1  0  0  0  0
 23 25  1  6  0  0  0
 23 26  1  0  0  0  0
 24 25  1  0  0  0  0
 26 27  1  0  0  0  0
 27 28  1  0  0  0  0
 28 29  1  0  0  0  0
 30 34  1  0  0  0  0
 31 30  1  1  0  0  0
 32 31  1  0  0  0  0
 32 37  1  1  0  0  0
 33 38  1  0  0  0  0
 35 34  1  0  0  0  0
 36 33  1  0  0  0  0
 36 39  1  0  0  0  0
 37 35  2  0  0  0  0
 38 31  1  0  0  0  0
 39 29  1  6  0  0  0
 39 32  1  0  0  0  0
 40 41  1  0  0  0  0
 41 42  1  1  0  0  0
 41 43  1  0  0  0  0
 43 47  1  0  0  0  0
 43 45  1  1  0  0  0
 43 44  1  0  0  0  0
 47 46  1  0  0  0  0
M  END
>  <MODEL>
6

>  <REMARK>
 VINA RESULT:      -6.3      2.844     10.134
  Name = 
  14 active torsions:
  status: ('A' for Active; 'I' for Inactive)
    1  A    between atoms: C_1  and  C_32
    2  A    between atoms: C_1  and  C_39
    3  A    between atoms: C_2  and  C_28
    4  A    between atoms: C_4  and  C_18
    5  A    between atoms: C_6  and  C_33
    6  A    between atoms: C_6  and  C_44
    7  A    between atoms: C_7  and  C_16
    8  A    between atoms: O_8  and  C_10
    9  A    between atoms: O_8  and  C_39
   10  A    between atoms: C_10  and  C_42
   11  A    between atoms: C_18  and  C_32
   12  A    between atoms: C_32  and  C_36
   13  A    between atoms: C_33  and  N_34
   14  A    between atoms: N_34  and  C_38
                            x       y       z     vdW  Elec       q    Type
                         _______ _______ _______ _____ _____    ______ ____

>  <TORSDO>
F 14

$$$$
=
 OpenBabel11042421413D

 47 51  0  0  1  0  0  0  0  0999 V2000
  161.9610  207.8480  151.0890 C   0  0  0  0  0  0  0  0  0  0  0  0
  161.5210  206.7730  150.3790 N   0  0  0  0  0  0  0  0  0  0  0  0
  161.3490  206.8270  149.0290 C   0  0  0  0  0  0  0  0  0  0  0  0
  161.6240  208.0090  148.3380 C   0  0  0  0  0  3  0  0  0  0  0  0
  162.2460  209.0460  150.4290 C   0  0  0  0  0  3  0  0  0  0  0  0
  162.0810  209.1260  149.0410 C   0  0  0  0  0  0  0  0  0  0  0  0
  161.8150  205.2640  147.1290 C   0  0  1  0  0  3  0  0  0  0  0  0
  161.2450  201.2020  150.5440 C   0  0  0  0  0  1  0  0  0  0  0  0
  160.8440  205.6310  148.2830 C   0  0  1  0  0  3  0  0  0  0  0  0
  160.3810  201.0810  148.2770 N   0  0  0  0  0  2  0  0  0  0  0  0
  161.2640  202.9270  147.5140 C   0  0  0  0  0  0  0  0  0  0  0  0
  160.4720  201.9240  149.4610 C   0  0  2  0  0  3  0  0  0  0  0  0
  160.6020  204.4700  149.2370 C   0  0  0  0  0  0  0  0  0  0  0  0
  159.8930  204.6240  150.2200 O   0  0  0  0  0  0  0  0  0  0  0  0
  160.8110  201.7820  147.1510 N   0  0  0  0  0  0  0  0  0  0  0  0
  161.2640  203.1430  148.9820 C   0  0  2  0  0  3  0  0  0  0  0  0
  161.5630  203.9520  146.6230 O   0  0  0  0  0  0  0  0  0  0  0  0
  162.4810  205.8410  144.9190 F   0  0  0  0  0  0  0  0  0  0  0  0
  161.7420  206.2840  146.0000 C   0  0  0  0  0  3  0  0  0  0  0  0
  160.4290  206.4880  145.6150 F   0  0  0  0  0  0  0  0  0  0  0  0
  162.1300  207.7630  152.5720 C   0  0  2  0  0  3  0  0  0  0  0  0
  162.1030  206.3140  153.0400 C   0  0  0  0  0  1  0  0  0  0  0  0
  161.1240  208.6620  153.3060 C   0  0  2  0  0  3  0  0  0  0  0  0
  160.7980  208.0420  155.6150 O   0  0  0  0  0  1  0  0  0  0  0  0
  160.2960  207.8770  154.3230 C   0  0  0  0  0  2  0  0  0  0  0  0
  160.2500  209.4900  152.3640 C   0  0  0  0  0  2  0  0  0  0  0  0
  159.6580  210.6780  153.0990 C   0  0  0  0  0  2  0  0  0  0  0  0
  159.3020  211.6650  152.1820 O   0  0  0  0  0  0  0  0  0  0  0  0
  159.7250  212.8590  152.7710 C   0  0  0  0  0  2  0  0  0  0  0  0
  154.8540  214.3840  152.8350 C   0  0  0  0  0  2  0  0  0  0  0  0
  155.9940  213.6820  153.5870 C   0  0  1  0  0  3  0  0  0  0  0  0
  157.2250  213.2940  152.7060 C   0  0  1  0  0  3  0  0  0  0  0  0
  157.1180  213.5930  155.5240 C   0  0  0  0  0  2  0  0  0  0  0  0
  154.7550  213.8850  151.3980 C   0  0  0  0  0  2  0  0  0  0  0  0
  156.0510  214.1670  150.7040 C   0  0  0  0  0  3  0  0  0  0  0  0
  158.5010  213.3020  154.9240 C   0  0  0  0  0  2  0  0  0  0  0  0
  157.2060  213.9040  151.3240 C   0  0  0  0  0  3  0  0  0  0  0  0
  156.3780  214.4530  154.6970 O   0  0  0  0  0  0  0  0  0  0  0  0
  158.5540  213.5900  153.4180 C   0  0  1  0  0  3  0  0  0  0  0  0
  162.3540  210.3350  148.3280 N   0  0  0  0  0  2  0  0  0  0  0  0
  161.4630  211.4900  148.3320 C   0  0  2  0  0  3  0  0  0  0  0  0
  160.5200  211.3550  147.3090 O   0  0  0  0  0  1  0  0  0  0  0  0
  162.2380  212.8080  148.1820 C   0  0  2  0  0  0  0  0  0  0  0  0
  163.5710  212.6110  148.4990 F   0  0  0  0  0  0  0  0  0  0  0  0
  161.7090  213.7410  149.0750 O   0  0  0  0  0  1  0  0  0  0  0  0
  161.0620  214.2740  146.6690 O   0  0  0  0  0  1  0  0  0  0  0  0
  162.1300  213.3800  146.7690 C   0  0  0  0  0  2  0  0  0  0  0  0
  1 21  1  0  0  0  0
  2  1  2  0  0  0  0
  3  2  1  0  0  0  0
  4  3  2  0  0  0  0
  4  6  1  0  0  0  0
  5  1  1  0  0  0  0
  6  5  2  0  0  0  0
  7 19  1  6  0  0  0
  7  9  1  0  0  0  0
  9  3  1  1  0  0  0
  9 13  1  0  0  0  0
 10 12  1  0  0  0  0
 12  8  1  1  0  0  0
 13 14  2  0  0  0  0
 15 11  2  0  0  0  0
 15 10  1  0  0  0  0
 16 11  1  6  0  0  0
 16 13  1  0  0  0  0
 16 12  1  0  0  0  0
 17  7  1  0  0  0  0
 17 11  1  0  0  0  0
 18 19  1  0  0  0  0
 20 19  1  0  0  0  0
 21 22  1  1  0  0  0
 21 23  1  0  0  0  0
 23 26  1  6  0  0  0
 23 25  1  0  0  0  0
 25 24  1  0  0  0  0
 26 27  1  0  0  0  0
 28 29  1  0  0  0  0
 28 27  1  0  0  0  0
 31 30  1  6  0  0  0
 31 38  1  0  0  0  0
 32 37  1  6  0  0  0
 32 39  1  0  0  0  0
 32 31  1  0  0  0  0
 34 30  1  0  0  0  0
 35 37  2  0  0  0  0
 35 34  1  0  0  0  0
 36 33  1  0  0  0  0
 38 33  1  0  0  0  0
 39 29  1  6  0  0  0
 39 36  1  0  0  0  0
 40 41  1  0  0  0  0
 40  6  1  0  0  0  0
 41 42  1  6  0  0  0
 43 41  1  0  0  0  0
 43 44  1  1  0  0  0
 43 45  1  0  0  0  0
 46 47  1  0  0  0  0
 47 43  1  0  0  0  0
M  END
>  <MODEL>
7

>  <REMARK>
 VINA RESULT:      -6.1      3.187      9.446
  Name = 
  14 active torsions:
  status: ('A' for Active; 'I' for Inactive)
    1  A    between atoms: C_1  and  C_32
    2  A    between atoms: C_1  and  C_39
    3  A    between atoms: C_2  and  C_28
    4  A    between atoms: C_4  and  C_18
    5  A    between atoms: C_6  and  C_33
    6  A    between atoms: C_6  and  C_44
    7  A    between atoms: C_7  and  C_16
    8  A    between atoms: O_8  and  C_10
    9  A    between atoms: O_8  and  C_39
   10  A    between atoms: C_10  and  C_42
   11  A    between atoms: C_18  and  C_32
   12  A    between atoms: C_32  and  C_36
   13  A    between atoms: C_33  and  N_34
   14  A    between atoms: N_34  and  C_38
                            x       y       z     vdW  Elec       q    Type
                         _______ _______ _______ _____ _____    ______ ____

>  <TORSDO>
F 14

$$$$
=
 OpenBabel11042421413D

 47 51  0  0  1  0  0  0  0  0999 V2000
  161.6810  209.0960  149.9160 C   0  0  0  0  0  0  0  0  0  0  0  0
  161.2320  209.5450  151.1200 N   0  0  0  0  0  0  0  0  0  0  0  0
  161.1640  210.8730  151.4100 C   0  0  0  0  0  0  0  0  0  0  0  0
  161.5620  211.8160  150.4590 C   0  0  0  0  0  3  0  0  0  0  0  0
  162.0850  210.0110  148.9410 C   0  0  0  0  0  3  0  0  0  0  0  0
  162.0210  211.3830  149.2130 C   0  0  0  0  0  0  0  0  0  0  0  0
  159.1360  211.3680  152.7920 C   0  0  1  0  0  3  0  0  0  0  0  0
  161.0840  208.0950  156.5310 C   0  0  0  0  0  1  0  0  0  0  0  0
  160.6860  211.3310  152.7540 C   0  0  1  0  0  3  0  0  0  0  0  0
  159.9740  210.1740  157.1210 N   0  0  0  0  0  2  0  0  0  0  0  0
  159.2550  210.7120  155.1300 C   0  0  0  0  0  0  0  0  0  0  0  0
  160.9610  209.5740  156.2340 C   0  0  2  0  0  3  0  0  0  0  0  0
  161.2780  210.4610  153.8540 C   0  0  0  0  0  0  0  0  0  0  0  0
  162.4880  210.3010  153.9220 O   0  0  0  0  0  0  0  0  0  0  0  0
  159.0320  210.8890  156.3820 N   0  0  0  0  0  0  0  0  0  0  0  0
  160.3680  209.7770  154.8370 C   0  0  2  0  0  3  0  0  0  0  0  0
  158.6410  211.4570  154.1290 O   0  0  0  0  0  0  0  0  0  0  0  0
  157.3200  212.8510  152.3840 F   0  0  0  0  0  0  0  0  0  0  0  0
  158.5900  212.5160  151.9530 C   0  0  0  0  0  3  0  0  0  0  0  0
  159.4190  213.6200  152.0460 F   0  0  0  0  0  0  0  0  0  0  0  0
  161.7550  207.6300  149.6290 C   0  0  2  0  0  3  0  0  0  0  0  0
  163.0920  207.0550  150.0790 C   0  0  0  0  0  1  0  0  0  0  0  0
  161.4200  207.3260  148.1620 C   0  0  2  0  0  3  0  0  0  0  0  0
  159.6490  206.1130  149.2650 O   0  0  0  0  0  1  0  0  0  0  0  0
  160.0970  206.5730  148.0250 C   0  0  0  0  0  2  0  0  0  0  0  0
  162.5580  206.6360  147.4090 C   0  0  0  0  0  2  0  0  0  0  0  0
  162.0460  206.0280  146.1180 C   0  0  0  0  0  2  0  0  0  0  0  0
  162.4630  204.7010  146.0290 O   0  0  0  0  0  0  0  0  0  0  0  0
  161.2840  203.9570  146.1290 C   0  0  0  0  0  2  0  0  0  0  0  0
  161.1070  201.2010  150.4220 C   0  0  0  0  0  2  0  0  0  0  0  0
  160.7460  201.2900  148.9320 C   0  0  1  0  0  3  0  0  0  0  0  0
  160.8780  202.7150  148.3050 C   0  0  1  0  0  3  0  0  0  0  0  0
  160.8340  200.2140  146.9680 C   0  0  0  0  0  2  0  0  0  0  0  0
  160.7540  202.4930  151.1510 C   0  0  0  0  0  2  0  0  0  0  0  0
  161.5160  203.6190  150.5240 C   0  0  0  0  0  3  0  0  0  0  0  0
  161.0770  201.4500  146.0890 C   0  0  0  0  0  2  0  0  0  0  0  0
  161.5850  203.7120  149.1920 C   0  0  0  0  0  3  0  0  0  0  0  0
  161.4830  200.3380  148.2070 O   0  0  0  0  0  0  0  0  0  0  0  0
  161.5200  202.6690  146.9100 C   0  0  1  0  0  3  0  0  0  0  0  0
  162.4330  212.3530  148.2470 N   0  0  0  0  0  2  0  0  0  0  0  0
  161.5530  213.3880  147.7180 C   0  0  2  0  0  3  0  0  0  0  0  0
  160.5170  213.6280  148.6250 O   0  0  0  0  0  1  0  0  0  0  0  0
  160.9890  213.0080  146.3400 C   0  0  2  0  0  0  0  0  0  0  0  0
  160.4050  211.7540  146.3980 F   0  0  0  0  0  0  0  0  0  0  0  0
  162.0410  212.9600  145.4250 O   0  0  0  0  0  1  0  0  0  0  0  0
  158.8940  213.3890  145.2060 O   0  0  0  0  0  1  0  0  0  0  0  0
  159.9620  214.0250  145.8420 C   0  0  0  0  0  2  0  0  0  0  0  0
  1  2  1  0  0  0  0
  2  3  2  0  0  0  0
  4  3  1  0  0  0  0
  5  6  1  0  0  0  0
  5  1  2  0  0  0  0
  6  4  2  0  0  0  0
  7 19  1  6  0  0  0
  7 17  1  0  0  0  0
  9  3  1  6  0  0  0
  9  7  1  0  0  0  0
  9 13  1  0  0  0  0
 11 15  2  0  0  0  0
 12  8  1  1  0  0  0
 12 10  1  0  0  0  0
 13 14  2  0  0  0  0
 15 10  1  0  0  0  0
 16 13  1  6  0  0  0
 16 11  1  0  0  0  0
 16 12  1  0  0  0  0
 17 11  1  0  0  0  0
 19 20  1  0  0  0  0
 19 18  1  0  0  0  0
 21  1  1  0  0  0  0
 21 22  1  6  0  0  0
 23 26  1  1  0  0  0
 23 21  1  0  0  0  0
 25 23  1  0  0  0  0
 25 24  1  0  0  0  0
 27 26  1  0  0  0  0
 28 27  1  0  0  0  0
 28 29  1  0  0  0  0
 30 34  1  0  0  0  0
 31 30  1  1  0  0  0
 32 31  1  0  0  0  0
 32 37  1  1  0  0  0
 33 38  1  0  0  0  0
 35 34  1  0  0  0  0
 36 39  1  0  0  0  0
 36 33  1  0  0  0  0
 37 35  2  0  0  0  0
 38 31  1  0  0  0  0
 39 29  1  6  0  0  0
 39 32  1  0  0  0  0
 40  6  1  0  0  0  0
 41 40  1  0  0  0  0
 41 42  1  1  0  0  0
 43 45  1  6  0  0  0
 43 44  1  0  0  0  0
 43 41  1  0  0  0  0
 46 47  1  0  0  0  0
 47 43  1  0  0  0  0
M  END
>  <MODEL>
8

>  <REMARK>
 VINA RESULT:      -5.8      2.300      3.794
  Name = 
  14 active torsions:
  status: ('A' for Active; 'I' for Inactive)
    1  A    between atoms: C_1  and  C_32
    2  A    between atoms: C_1  and  C_39
    3  A    between atoms: C_2  and  C_28
    4  A    between atoms: C_4  and  C_18
    5  A    between atoms: C_6  and  C_33
    6  A    between atoms: C_6  and  C_44
    7  A    between atoms: C_7  and  C_16
    8  A    between atoms: O_8  and  C_10
    9  A    between atoms: O_8  and  C_39
   10  A    between atoms: C_10  and  C_42
   11  A    between atoms: C_18  and  C_32
   12  A    between atoms: C_32  and  C_36
   13  A    between atoms: C_33  and  N_34
   14  A    between atoms: N_34  and  C_38
                            x       y       z     vdW  Elec       q    Type
                         _______ _______ _______ _____ _____    ______ ____

>  <TORSDO>
F 14

$$$$
=
 OpenBabel11042421413D

 47 51  0  0  1  0  0  0  0  0999 V2000
  162.0030  207.7070  149.1370 C   0  0  0  0  0  0  0  0  0  0  0  0
  161.4490  207.5150  150.3660 N   0  0  0  0  0  0  0  0  0  0  0  0
  161.2070  208.5530  151.2130 C   0  0  0  0  0  0  0  0  0  0  0  0
  161.5290  209.8560  150.8290 C   0  0  0  0  0  3  0  0  0  0  0  0
  162.3370  208.9970  148.7200 C   0  0  0  0  0  3  0  0  0  0  0  0
  162.0930  210.0830  149.5710 C   0  0  0  0  0  0  0  0  0  0  0  0
  161.5390  207.3680  153.3930 C   0  0  1  0  0  3  0  0  0  0  0  0
  160.8120  212.0440  155.8600 C   0  0  0  0  0  1  0  0  0  0  0  0
  160.6170  208.3020  152.5670 C   0  0  1  0  0  3  0  0  0  0  0  0
  159.8930  209.9820  156.7580 N   0  0  0  0  0  2  0  0  0  0  0  0
  160.8640  208.5910  155.3840 C   0  0  0  0  0  0  0  0  0  0  0  0
  160.0590  210.7700  155.5450 C   0  0  2  0  0  3  0  0  0  0  0  0
  160.3300  209.6190  153.2750 C   0  0  0  0  0  0  0  0  0  0  0  0
  159.6530  210.4740  152.7250 O   0  0  0  0  0  0  0  0  0  0  0  0
  160.3380  208.6780  156.5510 N   0  0  0  0  0  0  0  0  0  0  0  0
  160.9090  209.8740  154.6400 C   0  0  2  0  0  3  0  0  0  0  0  0
  161.2020  207.3840  154.7820 O   0  0  0  0  0  0  0  0  0  0  0  0
  162.7210  205.6160  152.2990 F   0  0  0  0  0  0  0  0  0  0  0  0
  161.5010  205.9410  152.8610 C   0  0  0  0  0  3  0  0  0  0  0  0
  161.2050  205.0520  153.8790 F   0  0  0  0  0  0  0  0  0  0  0  0
  162.2680  206.5460  148.2320 C   0  0  2  0  0  3  0  0  0  0  0  0
  163.7530  206.2080  148.2030 C   0  0  0  0  0  1  0  0  0  0  0  0
  161.6630  206.7690  146.8390 C   0  0  2  0  0  3  0  0  0  0  0  0
  159.6870  206.2040  148.1040 O   0  0  0  0  0  1  0  0  0  0  0  0
  160.1450  206.5930  146.8430 C   0  0  0  0  0  2  0  0  0  0  0  0
  162.3380  205.9440  145.7440 C   0  0  0  0  0  2  0  0  0  0  0  0
  161.2970  205.2800  144.8630 C   0  0  0  0  0  2  0  0  0  0  0  0
  161.5150  203.9040  144.8360 O   0  0  0  0  0  0  0  0  0  0  0  0
  160.5790  203.3840  145.7340 C   0  0  0  0  0  2  0  0  0  0  0  0
  161.4500  201.1890  150.2600 C   0  0  0  0  0  2  0  0  0  0  0  0
  160.9740  201.0100  148.8110 C   0  0  1  0  0  3  0  0  0  0  0  0
  160.6750  202.3380  148.0450 C   0  0  1  0  0  3  0  0  0  0  0  0
  161.2070  199.7740  146.9550 C   0  0  0  0  0  2  0  0  0  0  0  0
  160.8180  202.4210  150.8980 C   0  0  0  0  0  2  0  0  0  0  0  0
  161.2040  203.6260  150.0970 C   0  0  0  0  0  3  0  0  0  0  0  0
  161.0470  200.9210  145.9470 C   0  0  0  0  0  2  0  0  0  0  0  0
  161.1510  203.5790  148.7610 C   0  0  0  0  0  3  0  0  0  0  0  0
  161.8850  200.2030  148.1080 O   0  0  0  0  0  0  0  0  0  0  0  0
  161.2050  202.2990  146.6030 C   0  0  1  0  0  3  0  0  0  0  0  0
  162.4270  211.4180  149.1870 N   0  0  0  0  0  2  0  0  0  0  0  0
  161.6250  212.2170  148.2670 C   0  0  2  0  0  3  0  0  0  0  0  0
  160.8300  211.3730  147.4880 O   0  0  0  0  0  1  0  0  0  0  0  0
  162.5010  213.1110  147.3750 C   0  0  2  0  0  0  0  0  0  0  0  0
  163.7520  212.5410  147.2180 F   0  0  0  0  0  0  0  0  0  0  0  0
  162.6580  214.3480  148.0010 O   0  0  0  0  0  1  0  0  0  0  0  0
  162.4850  214.4070  145.3400 O   0  0  0  0  0  1  0  0  0  0  0  0
  161.8710  213.3410  146.0010 C   0  0  0  0  0  2  0  0  0  0  0  0
  1  2  1  0  0  0  0
  2  3  2  0  0  0  0
  4  3  1  0  0  0  0
  5  1  2  0  0  0  0
  5  6  1  0  0  0  0
  6  4  2  0  0  0  0
  7 19  1  6  0  0  0
  7 17  1  0  0  0  0
  9  3  1  6  0  0  0
  9 13  1  0  0  0  0
  9  7  1  0  0  0  0
 11 15  2  0  0  0  0
 12  8  1  1  0  0  0
 12 10  1  0  0  0  0
 14 13  2  0  0  0  0
 15 10  1  0  0  0  0
 16 13  1  6  0  0  0
 16 11  1  0  0  0  0
 16 12  1  0  0  0  0
 17 11  1  0  0  0  0
 18 19  1  0  0  0  0
 19 20  1  0  0  0  0
 21 22  1  6  0  0  0
 21  1  1  0  0  0  0
 23 26  1  6  0  0  0
 23 25  1  0  0  0  0
 23 21  1  0  0  0  0
 25 24  1  0  0  0  0
 27 26  1  0  0  0  0
 28 27  1  0  0  0  0
 28 29  1  0  0  0  0
 30 34  1  0  0  0  0
 31 30  1  1  0  0  0
 32 37  1  1  0  0  0
 32 31  1  0  0  0  0
 33 38  1  0  0  0  0
 35 34  1  0  0  0  0
 36 39  1  0  0  0  0
 36 33  1  0  0  0  0
 37 35  2  0  0  0  0
 38 31  1  0  0  0  0
 39 29  1  6  0  0  0
 39 32  1  0  0  0  0
 40  6  1  0  0  0  0
 41 42  1  6  0  0  0
 41 40  1  0  0  0  0
 43 44  1  6  0  0  0
 43 45  1  0  0  0  0
 43 41  1  0  0  0  0
 46 47  1  0  0  0  0
 47 43  1  0  0  0  0
M  END
>  <MODEL>
9

>  <REMARK>
 VINA RESULT:      -5.7      2.594      4.186
  Name = 
  14 active torsions:
  status: ('A' for Active; 'I' for Inactive)
    1  A    between atoms: C_1  and  C_32
    2  A    between atoms: C_1  and  C_39
    3  A    between atoms: C_2  and  C_28
    4  A    between atoms: C_4  and  C_18
    5  A    between atoms: C_6  and  C_33
    6  A    between atoms: C_6  and  C_44
    7  A    between atoms: C_7  and  C_16
    8  A    between atoms: O_8  and  C_10
    9  A    between atoms: O_8  and  C_39
   10  A    between atoms: C_10  and  C_42
   11  A    between atoms: C_18  and  C_32
   12  A    between atoms: C_32  and  C_36
   13  A    between atoms: C_33  and  N_34
   14  A    between atoms: N_34  and  C_38
                            x       y       z     vdW  Elec       q    Type
                         _______ _______ _______ _____ _____    ______ ____

>  <TORSDO>
F 14

$$$$
