=
 OpenBabel11042421323D

 27 30  0  0  1  0  0  0  0  0999 V2000
  161.7220  209.6370  152.4520 C   0  0  1  0  0  0  0  0  0  0  0  0
  160.3420  207.1850  154.8600 N   0  0  0  0  0  0  0  0  0  0  0  0
  160.5620  208.5650  156.8090 C   0  0  0  0  0  3  0  0  0  0  0  0
  161.0930  208.2310  152.6690 C   0  0  2  0  0  3  0  0  0  0  0  0
  161.0910  209.5660  156.0470 N   0  0  0  0  0  0  0  0  0  0  0  0
  160.9140  210.8620  152.6640 N   0  0  0  0  0  0  0  0  0  0  0  0
  161.8260  210.3600  153.7420 C   0  0  1  0  0  3  0  0  0  0  0  0
  162.8070  209.8150  151.6100 F   0  0  0  0  0  0  0  0  0  0  0  0
  160.1770  207.3530  156.2050 C   0  0  0  0  0  3  0  0  0  0  0  0
  161.2390  209.3790  154.7120 C   0  0  0  0  0  0  0  0  0  0  0  0
  160.8850  208.1930  154.1310 C   0  0  0  0  0  0  0  0  0  0  0  0
  159.4950  210.5700  152.9060 C   0  0  0  0  0  2  0  0  0  0  0  0
  158.7060  211.8630  153.0220 C   0  0  0  0  0  2  0  0  0  0  0  0
  158.6710  212.3620  154.4600 C   0  0  0  0  0  2  0  0  0  0  0  0
  157.9680  211.3570  155.3530 C   0  0  0  0  0  2  0  0  0  0  0  0
  155.5330  212.7070  154.5740 O   0  0  0  0  0  0  0  0  0  0  0  0
  156.1800  211.4240  155.0470 P   0  0  1  0  0  4  0  0  0  0  0  0
  155.1810  210.0660  155.1870 O   0  0  0  0  0  1  0  0  0  0  0  0
  161.9380  207.1690  152.2090 O   0  0  0  0  0  0  0  0  0  0  0  0
  161.0830  204.8870  151.5550 C   0  0  0  0  0  3  0  0  0  0  0  0
  160.8660  203.9640  150.6200 C   0  0  0  0  0  3  0  0  0  0  0  0
  160.3700  206.2620  147.9800 C   0  0  0  0  0  1  0  0  0  0  0  0
  161.0490  203.3430  148.3520 O   0  0  0  0  0  0  0  0  0  0  0  0
  161.8350  206.5600  149.9400 C   0  0  0  0  0  3  0  0  0  0  0  0
  161.5100  205.6560  148.7770 C   0  0  1  0  0  3  0  0  0  0  0  0
  161.1440  204.2610  149.2080 C   0  0  0  0  0  0  0  0  0  0  0  0
  161.6230  206.2240  151.2180 C   0  0  0  0  0  0  0  0  0  0  0  0
  1  8  1  6  0  0  0
  1  6  1  0  0  0  0
  1  4  1  0  0  0  0
  1  7  1  0  0  0  0
  2  9  1  0  0  0  0
  4 19  1  1  0  0  0
  4 11  1  0  0  0  0
  5  3  1  0  0  0  0
  6 12  1  0  0  0  0
  6  7  1  0  0  0  0
  7 10  1  1  0  0  0
  9  3  2  0  0  0  0
 10  5  2  0  0  0  0
 11 10  1  0  0  0  0
 11  2  2  0  0  0  0
 12 13  1  0  0  0  0
 13 14  1  0  0  0  0
 14 15  1  0  0  0  0
 17 16  2  6  0  0  0
 17 18  1  0  0  0  0
 17 15  1  0  0  0  0
 21 20  2  0  0  0  0
 23 26  2  0  0  0  0
 24 27  2  0  0  0  0
 25 22  1  1  0  0  0
 25 26  1  0  0  0  0
 25 24  1  0  0  0  0
 26 21  1  0  0  0  0
 27 20  1  0  0  0  0
 27 19  1  0  0  0  0
M  END
>  <MODEL>
1

>  <REMARK>
 VINA RESULT:      -7.2      0.000      0.000
  Name = 
  7 active torsions:
  status: ('A' for Active; 'I' for Inactive)
    1  A    between atoms: C_3  and  C_11
    2  A    between atoms: C_3  and  N_18
    3  A    between atoms: C_8  and  O_24
    4  A    between atoms: C_11  and  C_13
    5  A    between atoms: C_12  and  C_13
    6  A    between atoms: C_12  and  P_17
    7  A    between atoms: O_24  and  C_27
                            x       y       z     vdW  Elec       q    Type
                         _______ _______ _______ _____ _____    ______ ____

>  <TORSDO>
F 7

$$$$
=
 OpenBabel11042421323D

 27 30  0  0  1  0  0  0  0  0999 V2000
  161.6510  209.9960  153.0210 C   0  0  1  0  0  0  0  0  0  0  0  0
  160.3210  207.1900  155.0400 N   0  0  0  0  0  0  0  0  0  0  0  0
  160.7700  208.1620  157.1860 C   0  0  0  0  0  3  0  0  0  0  0  0
  160.9600  208.6020  153.0260 C   0  0  2  0  0  3  0  0  0  0  0  0
  161.2960  209.2660  156.5810 N   0  0  0  0  0  0  0  0  0  0  0  0
  160.9340  211.1900  153.5280 N   0  0  0  0  0  0  0  0  0  0  0  0
  161.8960  210.4540  154.4100 C   0  0  1  0  0  3  0  0  0  0  0  0
  162.6760  210.2840  152.1360 F   0  0  0  0  0  0  0  0  0  0  0  0
  160.2700  207.1050  156.4010 C   0  0  0  0  0  3  0  0  0  0  0  0
  161.3290  209.3320  155.2270 C   0  0  0  0  0  0  0  0  0  0  0  0
  160.8640  208.2950  154.4680 C   0  0  0  0  0  0  0  0  0  0  0  0
  159.5240  210.9180  153.8330 C   0  0  0  0  0  2  0  0  0  0  0  0
  158.6290  211.5290  152.7680 C   0  0  0  0  0  2  0  0  0  0  0  0
  159.3260  212.6780  152.0530 C   0  0  0  0  0  2  0  0  0  0  0  0
  158.3370  213.7840  151.7380 C   0  0  0  0  0  2  0  0  0  0  0  0
  156.3100  213.6320  149.6820 O   0  0  0  0  0  0  0  0  0  0  0  0
  157.7860  213.6300  150.0150 P   0  0  1  0  0  4  0  0  0  0  0  0
  158.8680  213.5640  148.7150 O   0  0  0  0  0  1  0  0  0  0  0  0
  161.7040  207.6120  152.3040 O   0  0  0  0  0  0  0  0  0  0  0  0
  162.0270  208.0150  149.8350 C   0  0  0  0  0  3  0  0  0  0  0  0
  161.7580  207.6910  148.5710 C   0  0  0  0  0  3  0  0  0  0  0  0
  161.2650  204.2470  149.1980 C   0  0  0  0  0  1  0  0  0  0  0  0
  160.5870  206.2890  147.0780 O   0  0  0  0  0  0  0  0  0  0  0  0
  160.7920  206.1110  150.7410 C   0  0  0  0  0  3  0  0  0  0  0  0
  160.5260  205.5620  149.3620 C   0  0  1  0  0  3  0  0  0  0  0  0
  160.9330  206.5140  148.2680 C   0  0  0  0  0  0  0  0  0  0  0  0
  161.4980  207.2250  150.9690 C   0  0  0  0  0  0  0  0  0  0  0  0
  1  8  1  6  0  0  0
  1  4  1  0  0  0  0
  1  6  1  0  0  0  0
  1  7  1  0  0  0  0
  2  9  1  0  0  0  0
  4 19  1  6  0  0  0
  4 11  1  0  0  0  0
  5  3  1  0  0  0  0
  6 12  1  0  0  0  0
  6  7  1  0  0  0  0
  7 10  1  1  0  0  0
  9  3  2  0  0  0  0
 10  5  2  0  0  0  0
 11  2  2  0  0  0  0
 11 10  1  0  0  0  0
 13 12  1  0  0  0  0
 14 13  1  0  0  0  0
 15 14  1  0  0  0  0
 16 17  2  0  0  0  0
 17 18  1  6  0  0  0
 17 15  1  0  0  0  0
 20 27  1  0  0  0  0
 21 20  2  0  0  0  0
 23 26  2  0  0  0  0
 24 27  2  0  0  0  0
 25 22  1  6  0  0  0
 25 24  1  0  0  0  0
 26 21  1  0  0  0  0
 26 25  1  0  0  0  0
 27 19  1  0  0  0  0
M  END
>  <MODEL>
2

>  <REMARK>
 VINA RESULT:      -6.9      2.251      2.830
  Name = 
  7 active torsions:
  status: ('A' for Active; 'I' for Inactive)
    1  A    between atoms: C_3  and  C_11
    2  A    between atoms: C_3  and  N_18
    3  A    between atoms: C_8  and  O_24
    4  A    between atoms: C_11  and  C_13
    5  A    between atoms: C_12  and  C_13
    6  A    between atoms: C_12  and  P_17
    7  A    between atoms: O_24  and  C_27
                            x       y       z     vdW  Elec       q    Type
                         _______ _______ _______ _____ _____    ______ ____

>  <TORSDO>
F 7

$$$$
=
 OpenBabel11042421323D

 27 30  0  0  1  0  0  0  0  0999 V2000
  161.6320  209.2820  152.4170 C   0  0  1  0  0  0  0  0  0  0  0  0
  160.4090  207.6960  155.5330 N   0  0  0  0  0  0  0  0  0  0  0  0
  160.8750  209.5480  156.9820 C   0  0  0  0  0  3  0  0  0  0  0  0
  160.9750  208.0360  153.0790 C   0  0  2  0  0  3  0  0  0  0  0  0
  161.3630  210.2590  155.9250 N   0  0  0  0  0  0  0  0  0  0  0  0
  160.8950  210.5660  152.3410 N   0  0  0  0  0  0  0  0  0  0  0  0
  161.8910  210.3280  153.4340 C   0  0  1  0  0  3  0  0  0  0  0  0
  162.6320  209.1460  151.4690 F   0  0  0  0  0  0  0  0  0  0  0  0
  160.3870  208.2430  156.7830 C   0  0  0  0  0  3  0  0  0  0  0  0
  161.3680  209.6970  154.6900 C   0  0  0  0  0  0  0  0  0  0  0  0
  160.9140  208.4220  154.5030 C   0  0  0  0  0  0  0  0  0  0  0  0
  159.4980  210.4450  152.7760 C   0  0  0  0  0  2  0  0  0  0  0  0
  158.8270  211.8080  152.7690 C   0  0  0  0  0  2  0  0  0  0  0  0
  158.7280  212.3840  154.1750 C   0  0  0  0  0  2  0  0  0  0  0  0
  158.0630  211.3910  155.1090 C   0  0  0  0  0  2  0  0  0  0  0  0
  155.4070  211.0330  156.1950 O   0  0  0  0  0  0  0  0  0  0  0  0
  156.2780  211.7140  155.1610 P   0  0  1  0  0  4  0  0  0  0  0  0
  155.5240  212.8320  154.1390 O   0  0  0  0  0  1  0  0  0  0  0  0
  161.7290  206.8360  152.8690 O   0  0  0  0  0  0  0  0  0  0  0  0
  161.4760  206.0790  150.4750 C   0  0  0  0  0  3  0  0  0  0  0  0
  161.1240  205.1440  149.5940 C   0  0  0  0  0  3  0  0  0  0  0  0
  161.9380  202.3990  151.6690 C   0  0  0  0  0  1  0  0  0  0  0  0
  160.2630  202.9790  149.2230 O   0  0  0  0  0  0  0  0  0  0  0  0
  161.1300  204.6110  152.3970 C   0  0  0  0  0  3  0  0  0  0  0  0
  160.8370  203.4300  151.5060 C   0  0  1  0  0  3  0  0  0  0  0  0
  160.7070  203.8130  150.0560 C   0  0  0  0  0  0  0  0  0  0  0  0
  161.4450  205.8260  151.9330 C   0  0  0  0  0  0  0  0  0  0  0  0
  1  8  1  6  0  0  0
  1  4  1  0  0  0  0
  1  7  1  0  0  0  0
  2  9  1  0  0  0  0
  4 19  1  1  0  0  0
  4 11  1  0  0  0  0
  5  3  1  0  0  0  0
  6  1  1  0  0  0  0
  6 12  1  0  0  0  0
  6  7  1  0  0  0  0
  7 10  1  1  0  0  0
  9  3  2  0  0  0  0
 10  5  2  0  0  0  0
 11 10  1  0  0  0  0
 11  2  2  0  0  0  0
 13 12  1  0  0  0  0
 13 14  1  0  0  0  0
 14 15  1  0  0  0  0
 15 17  1  0  0  0  0
 17 18  1  1  0  0  0
 17 16  2  0  0  0  0
 20 27  1  0  0  0  0
 21 26  1  0  0  0  0
 21 20  2  0  0  0  0
 23 26  2  0  0  0  0
 25 22  1  6  0  0  0
 25 24  1  0  0  0  0
 26 25  1  0  0  0  0
 27 24  2  0  0  0  0
 27 19  1  0  0  0  0
M  END
>  <MODEL>
3

>  <REMARK>
 VINA RESULT:      -6.6      0.812      1.754
  Name = 
  7 active torsions:
  status: ('A' for Active; 'I' for Inactive)
    1  A    between atoms: C_3  and  C_11
    2  A    between atoms: C_3  and  N_18
    3  A    between atoms: C_8  and  O_24
    4  A    between atoms: C_11  and  C_13
    5  A    between atoms: C_12  and  C_13
    6  A    between atoms: C_12  and  P_17
    7  A    between atoms: O_24  and  C_27
                            x       y       z     vdW  Elec       q    Type
                         _______ _______ _______ _____ _____    ______ ____

>  <TORSDO>
F 7

$$$$
=
 OpenBabel11042421323D

 27 30  0  0  1  0  0  0  0  0999 V2000
  161.5690  207.7340  148.7890 C   0  0  1  0  0  0  0  0  0  0  0  0
  162.3420  205.4470  151.5970 N   0  0  0  0  0  0  0  0  0  0  0  0
  160.4750  203.9770  151.2730 C   0  0  0  0  0  3  0  0  0  0  0  0
  162.5410  207.3710  149.9480 C   0  0  2  0  0  3  0  0  0  0  0  0
  160.0620  204.7280  150.2120 N   0  0  0  0  0  0  0  0  0  0  0  0
  161.4430  206.8450  147.6100 N   0  0  0  0  0  0  0  0  0  0  0  0
  160.4510  206.7630  148.7290 C   0  0  1  0  0  3  0  0  0  0  0  0
  161.1980  209.0470  148.5500 F   0  0  0  0  0  0  0  0  0  0  0  0
  161.6390  204.3410  151.9770 C   0  0  0  0  0  3  0  0  0  0  0  0
  160.7810  205.8190  149.8470 C   0  0  0  0  0  0  0  0  0  0  0  0
  161.8980  206.1830  150.5470 C   0  0  0  0  0  0  0  0  0  0  0  0
  162.4290  205.7570  147.6110 C   0  0  0  0  0  2  0  0  0  0  0  0
  162.6860  205.2800  146.1920 C   0  0  0  0  0  2  0  0  0  0  0  0
  161.8740  204.0330  145.8720 C   0  0  0  0  0  2  0  0  0  0  0  0
  161.5210  203.2880  147.1460 C   0  0  0  0  0  2  0  0  0  0  0  0
  160.1560  201.3730  145.4650 O   0  0  0  0  0  0  0  0  0  0  0  0
  160.9500  201.6170  146.7300 P   0  0  1  0  0  4  0  0  0  0  0  0
  161.3380  200.2620  147.6660 O   0  0  0  0  0  1  0  0  0  0  0  0
  162.7020  208.4380  150.8910 O   0  0  0  0  0  0  0  0  0  0  0  0
  160.7380  209.7420  151.7910 C   0  0  0  0  0  3  0  0  0  0  0  0
  159.9690  210.1030  152.8160 C   0  0  0  0  0  3  0  0  0  0  0  0
  160.3720  207.0900  154.6220 C   0  0  0  0  0  1  0  0  0  0  0  0
  159.5260  209.9450  155.1280 O   0  0  0  0  0  0  0  0  0  0  0  0
  162.0210  208.1440  153.1220 C   0  0  0  0  0  3  0  0  0  0  0  0
  161.1410  208.3640  154.3270 C   0  0  1  0  0  3  0  0  0  0  0  0
  160.1780  209.5080  154.1440 C   0  0  0  0  0  0  0  0  0  0  0  0
  161.8310  208.7560  151.9470 C   0  0  0  0  0  0  0  0  0  0  0  0
  1  8  1  6  0  0  0
  1  4  1  0  0  0  0
  2  9  1  0  0  0  0
  3  9  2  0  0  0  0
  4 11  1  0  0  0  0
  4 19  1  1  0  0  0
  5  3  1  0  0  0  0
  6 12  1  0  0  0  0
  6  7  1  0  0  0  0
  6  1  1  0  0  0  0
  7  1  1  0  0  0  0
  7 10  1  1  0  0  0
 10  5  2  0  0  0  0
 10 11  1  0  0  0  0
 11  2  2  0  0  0  0
 13 12  1  0  0  0  0
 14 13  1  0  0  0  0
 14 15  1  0  0  0  0
 17 16  2  6  0  0  0
 17 15  1  0  0  0  0
 17 18  1  0  0  0  0
 19 27  1  0  0  0  0
 20 27  1  0  0  0  0
 20 21  2  0  0  0  0
 21 26  1  0  0  0  0
 24 25  1  0  0  0  0
 25 22  1  6  0  0  0
 26 25  1  0  0  0  0
 26 23  2  0  0  0  0
 27 24  2  0  0  0  0
M  END
>  <MODEL>
4

>  <REMARK>
 VINA RESULT:      -6.0      3.822      7.998
  Name = 
  7 active torsions:
  status: ('A' for Active; 'I' for Inactive)
    1  A    between atoms: C_3  and  C_11
    2  A    between atoms: C_3  and  N_18
    3  A    between atoms: C_8  and  O_24
    4  A    between atoms: C_11  and  C_13
    5  A    between atoms: C_12  and  C_13
    6  A    between atoms: C_12  and  P_17
    7  A    between atoms: O_24  and  C_27
                            x       y       z     vdW  Elec       q    Type
                         _______ _______ _______ _____ _____    ______ ____

>  <TORSDO>
F 7

$$$$
=
 OpenBabel11042421323D

 27 30  0  0  1  0  0  0  0  0999 V2000
  161.6310  207.9320  149.8240 C   0  0  1  0  0  0  0  0  0  0  0  0
  160.1430  204.7280  150.9370 N   0  0  0  0  0  0  0  0  0  0  0  0
  161.9720  204.0480  152.3310 C   0  0  0  0  0  3  0  0  0  0  0  0
  160.4060  206.9730  149.7770 C   0  0  2  0  0  3  0  0  0  0  0  0
  162.6480  205.1890  152.0090 N   0  0  0  0  0  0  0  0  0  0  0  0
  161.9860  208.6330  151.0810 N   0  0  0  0  0  0  0  0  0  0  0  0
  162.6920  207.3690  150.6930 C   0  0  1  0  0  3  0  0  0  0  0  0
  162.1010  208.5520  148.6790 F   0  0  0  0  0  0  0  0  0  0  0  0
  160.6950  203.8140  151.7870 C   0  0  0  0  0  3  0  0  0  0  0  0
  162.0770  206.0870  151.1680 C   0  0  0  0  0  0  0  0  0  0  0  0
  160.8460  205.8460  150.6250 C   0  0  0  0  0  0  0  0  0  0  0  0
  160.9820  208.4490  152.1360 C   0  0  0  0  0  2  0  0  0  0  0  0
  160.5050  209.7990  152.6470 C   0  0  0  0  0  2  0  0  0  0  0  0
  161.3070  210.2450  153.8610 C   0  0  0  0  0  2  0  0  0  0  0  0
  160.5060  210.0340  155.1320 C   0  0  0  0  0  2  0  0  0  0  0  0
  161.8070  208.4270  157.1530 O   0  0  0  0  0  0  0  0  0  0  0  0
  160.9770  208.4530  155.8880 P   0  0  1  0  0  4  0  0  0  0  0  0
  160.4540  206.9620  155.2820 O   0  0  0  0  0  1  0  0  0  0  0  0
  160.0780  206.5600  148.4440 O   0  0  0  0  0  0  0  0  0  0  0  0
  161.4570  204.5180  147.9020 C   0  0  0  0  0  3  0  0  0  0  0  0
  162.3140  203.8870  147.1010 C   0  0  0  0  0  3  0  0  0  0  0  0
  161.2170  205.4520  144.1260 C   0  0  0  0  0  1  0  0  0  0  0  0
  163.6330  203.9530  145.1460 O   0  0  0  0  0  0  0  0  0  0  0  0
  161.2190  206.4240  146.3920 C   0  0  0  0  0  3  0  0  0  0  0  0
  162.0730  205.7630  145.3400 C   0  0  1  0  0  3  0  0  0  0  0  0
  162.7330  204.5020  145.8340 C   0  0  0  0  0  0  0  0  0  0  0  0
  160.9130  205.8520  147.5620 C   0  0  0  0  0  0  0  0  0  0  0  0
  1  8  1  6  0  0  0
  1  7  1  0  0  0  0
  1  6  1  0  0  0  0
  2  9  1  0  0  0  0
  4 19  1  6  0  0  0
  4  1  1  0  0  0  0
  4 11  1  0  0  0  0
  5  3  1  0  0  0  0
  6 12  1  0  0  0  0
  7  6  1  0  0  0  0
  7 10  1  1  0  0  0
  9  3  2  0  0  0  0
 10  5  2  0  0  0  0
 11  2  2  0  0  0  0
 11 10  1  0  0  0  0
 12 13  1  0  0  0  0
 13 14  1  0  0  0  0
 14 15  1  0  0  0  0
 15 17  1  0  0  0  0
 17 18  1  1  0  0  0
 17 16  2  0  0  0  0
 21 20  2  0  0  0  0
 23 26  2  0  0  0  0
 24 27  2  0  0  0  0
 25 22  1  6  0  0  0
 25 26  1  0  0  0  0
 25 24  1  0  0  0  0
 26 21  1  0  0  0  0
 27 20  1  0  0  0  0
 27 19  1  0  0  0  0
M  END
>  <MODEL>
5

>  <REMARK>
 VINA RESULT:      -5.9      3.166      4.458
  Name = 
  7 active torsions:
  status: ('A' for Active; 'I' for Inactive)
    1  A    between atoms: C_3  and  C_11
    2  A    between atoms: C_3  and  N_18
    3  A    between atoms: C_8  and  O_24
    4  A    between atoms: C_11  and  C_13
    5  A    between atoms: C_12  and  C_13
    6  A    between atoms: C_12  and  P_17
    7  A    between atoms: O_24  and  C_27
                            x       y       z     vdW  Elec       q    Type
                         _______ _______ _______ _____ _____    ______ ____

>  <TORSDO>
F 7

$$$$
=
 OpenBabel11042421323D

 27 30  0  0  1  0  0  0  0  0999 V2000
  161.8140  209.8190  152.7970 C   0  0  1  0  0  0  0  0  0  0  0  0
  160.4510  207.1410  154.9620 N   0  0  0  0  0  0  0  0  0  0  0  0
  160.6770  208.3250  157.0350 C   0  0  0  0  0  3  0  0  0  0  0  0
  161.1890  208.3960  152.8790 C   0  0  2  0  0  3  0  0  0  0  0  0
  161.2000  209.3970  156.3710 N   0  0  0  0  0  0  0  0  0  0  0  0
  161.0030  211.0140  153.1300 N   0  0  0  0  0  0  0  0  0  0  0  0
  161.9220  210.4140  154.1500 C   0  0  1  0  0  3  0  0  0  0  0  0
  162.8930  210.0800  151.9710 F   0  0  0  0  0  0  0  0  0  0  0  0
  160.2930  207.1770  156.3170 C   0  0  0  0  0  3  0  0  0  0  0  0
  161.3410  209.3410  155.0230 C   0  0  0  0  0  0  0  0  0  0  0  0
  160.9880  208.2160  154.3320 C   0  0  0  0  0  0  0  0  0  0  0  0
  159.5870  210.6960  153.3490 C   0  0  0  0  0  2  0  0  0  0  0  0
  158.8510  211.9150  153.8810 C   0  0  0  0  0  2  0  0  0  0  0  0
  157.4530  211.5520  154.3600 C   0  0  0  0  0  2  0  0  0  0  0  0
  156.5570  212.7770  154.3580 C   0  0  0  0  0  2  0  0  0  0  0  0
  157.7340  213.2960  151.7690 O   0  0  0  0  0  0  0  0  0  0  0  0
  156.5710  213.5320  152.7080 P   0  0  1  0  0  4  0  0  0  0  0  0
  155.2780  214.4480  152.1130 O   0  0  0  0  0  1  0  0  0  0  0  0
  162.0340  207.3870  152.3140 O   0  0  0  0  0  0  0  0  0  0  0  0
  161.0670  205.1140  151.7970 C   0  0  0  0  0  3  0  0  0  0  0  0
  160.7860  204.1570  150.9150 C   0  0  0  0  0  3  0  0  0  0  0  0
  160.3170  206.3420  148.1760 C   0  0  0  0  0  1  0  0  0  0  0  0
  160.8820  203.4180  148.6770 O   0  0  0  0  0  0  0  0  0  0  0  0
  161.8450  206.6720  150.0820 C   0  0  0  0  0  3  0  0  0  0  0  0
  161.4510  205.7280  148.9740 C   0  0  1  0  0  3  0  0  0  0  0  0
  161.0380  204.3720  149.4830 C   0  0  0  0  0  0  0  0  0  0  0  0
  161.6530  206.4080  151.3800 C   0  0  0  0  0  0  0  0  0  0  0  0
  1  8  1  6  0  0  0
  1  4  1  0  0  0  0
  1  6  1  0  0  0  0
  1  7  1  0  0  0  0
  2  9  1  0  0  0  0
  4 19  1  1  0  0  0
  4 11  1  0  0  0  0
  5  3  1  0  0  0  0
  6 12  1  0  0  0  0
  6  7  1  0  0  0  0
  7 10  1  1  0  0  0
  9  3  2  0  0  0  0
 10  5  2  0  0  0  0
 11  2  2  0  0  0  0
 11 10  1  0  0  0  0
 12 13  1  0  0  0  0
 13 14  1  0  0  0  0
 15 14  1  0  0  0  0
 17 16  2  6  0  0  0
 17 15  1  0  0  0  0
 18 17  1  0  0  0  0
 21 20  2  0  0  0  0
 23 26  2  0  0  0  0
 24 27  2  0  0  0  0
 25 22  1  1  0  0  0
 25 26  1  0  0  0  0
 25 24  1  0  0  0  0
 26 21  1  0  0  0  0
 27 20  1  0  0  0  0
 27 19  1  0  0  0  0
M  END
>  <MODEL>
6

>  <REMARK>
 VINA RESULT:      -5.9      1.399      1.516
  Name = 
  7 active torsions:
  status: ('A' for Active; 'I' for Inactive)
    1  A    between atoms: C_3  and  C_11
    2  A    between atoms: C_3  and  N_18
    3  A    between atoms: C_8  and  O_24
    4  A    between atoms: C_11  and  C_13
    5  A    between atoms: C_12  and  C_13
    6  A    between atoms: C_12  and  P_17
    7  A    between atoms: O_24  and  C_27
                            x       y       z     vdW  Elec       q    Type
                         _______ _______ _______ _____ _____    ______ ____

>  <TORSDO>
F 7

$$$$
=
 OpenBabel11042421323D

 27 30  0  0  1  0  0  0  0  0999 V2000
  161.7520  207.5110  150.3690 C   0  0  1  0  0  0  0  0  0  0  0  0
  159.9800  204.2750  150.7000 N   0  0  0  0  0  0  0  0  0  0  0  0
  161.6500  203.1860  152.0330 C   0  0  0  0  0  3  0  0  0  0  0  0
  160.4760  206.6810  150.0480 C   0  0  2  0  0  3  0  0  0  0  0  0
  162.4200  204.3120  151.9970 N   0  0  0  0  0  0  0  0  0  0  0  0
  162.0550  207.9130  151.7630 N   0  0  0  0  0  0  0  0  0  0  0  0
  162.7050  206.7030  151.1660 C   0  0  1  0  0  3  0  0  0  0  0  0
  162.3470  208.3100  149.4080 F   0  0  0  0  0  0  0  0  0  0  0  0
  160.4050  203.1680  151.3750 C   0  0  0  0  0  3  0  0  0  0  0  0
  161.9740  205.4030  151.3260 C   0  0  0  0  0  0  0  0  0  0  0  0
  160.7750  205.3750  150.6700 C   0  0  0  0  0  0  0  0  0  0  0  0
  160.9620  207.6000  152.6930 C   0  0  0  0  0  2  0  0  0  0  0  0
  160.8220  208.7040  153.7270 C   0  0  0  0  0  2  0  0  0  0  0  0
  161.4010  210.0160  153.2190 C   0  0  0  0  0  2  0  0  0  0  0  0
  160.3020  210.9010  152.6600 C   0  0  0  0  0  2  0  0  0  0  0  0
  158.3760  212.7400  153.7850 O   0  0  0  0  0  0  0  0  0  0  0  0
  159.6740  211.9850  153.9730 P   0  0  1  0  0  4  0  0  0  0  0  0
  160.4420  212.1390  155.4730 O   0  0  0  0  0  1  0  0  0  0  0  0
  160.2240  206.5730  148.6420 O   0  0  0  0  0  0  0  0  0  0  0  0
  161.4900  204.4950  147.9750 C   0  0  0  0  0  3  0  0  0  0  0  0
  162.2970  203.8610  147.1250 C   0  0  0  0  0  3  0  0  0  0  0  0
  161.2060  205.6090  144.2510 C   0  0  0  0  0  1  0  0  0  0  0  0
  163.5710  203.9530  145.1420 O   0  0  0  0  0  0  0  0  0  0  0  0
  161.3080  206.4760  146.5570 C   0  0  0  0  0  3  0  0  0  0  0  0
  162.1050  205.8240  145.4550 C   0  0  1  0  0  3  0  0  0  0  0  0
  162.7150  204.5130  145.8760 C   0  0  0  0  0  0  0  0  0  0  0  0
  161.0030  205.8670  147.7080 C   0  0  0  0  0  0  0  0  0  0  0  0
  1  8  1  6  0  0  0
  1  7  1  0  0  0  0
  1  6  1  0  0  0  0
  2  9  1  0  0  0  0
  4 19  1  6  0  0  0
  4  1  1  0  0  0  0
  4 11  1  0  0  0  0
  5  3  1  0  0  0  0
  6 12  1  0  0  0  0
  7 10  1  1  0  0  0
  7  6  1  0  0  0  0
  9  3  2  0  0  0  0
 10  5  2  0  0  0  0
 11  2  2  0  0  0  0
 11 10  1  0  0  0  0
 12 13  1  0  0  0  0
 14 13  1  0  0  0  0
 15 14  1  0  0  0  0
 15 17  1  0  0  0  0
 17 16  2  1  0  0  0
 17 18  1  0  0  0  0
 21 20  2  0  0  0  0
 23 26  2  0  0  0  0
 24 27  2  0  0  0  0
 25 22  1  6  0  0  0
 25 26  1  0  0  0  0
 25 24  1  0  0  0  0
 26 21  1  0  0  0  0
 27 20  1  0  0  0  0
 27 19  1  0  0  0  0
M  END
>  <MODEL>
7

>  <REMARK>
 VINA RESULT:      -5.7      2.726      4.319
  Name = 
  7 active torsions:
  status: ('A' for Active; 'I' for Inactive)
    1  A    between atoms: C_3  and  C_11
    2  A    between atoms: C_3  and  N_18
    3  A    between atoms: C_8  and  O_24
    4  A    between atoms: C_11  and  C_13
    5  A    between atoms: C_12  and  C_13
    6  A    between atoms: C_12  and  P_17
    7  A    between atoms: O_24  and  C_27
                            x       y       z     vdW  Elec       q    Type
                         _______ _______ _______ _____ _____    ______ ____

>  <TORSDO>
F 7

$$$$
=
 OpenBabel11042421323D

 27 30  0  0  1  0  0  0  0  0999 V2000
  161.8500  206.3970  152.6770 C   0  0  1  0  0  0  0  0  0  0  0  0
  161.3540  208.9390  150.0290 N   0  0  0  0  0  0  0  0  0  0  0  0
  162.8470  207.9610  148.4290 C   0  0  0  0  0  3  0  0  0  0  0  0
  161.1090  207.6900  152.2290 C   0  0  2  0  0  3  0  0  0  0  0  0
  163.1340  206.9540  149.3040 N   0  0  0  0  0  0  0  0  0  0  0  0
  161.5740  205.1040  152.0070 N   0  0  0  0  0  0  0  0  0  0  0  0
  162.7600  205.9270  151.6050 C   0  0  1  0  0  3  0  0  0  0  0  0
  162.3640  206.2730  153.9570 F   0  0  0  0  0  0  0  0  0  0  0  0
  161.9380  208.9710  148.7960 C   0  0  0  0  0  3  0  0  0  0  0  0
  162.5350  206.9390  150.5220 C   0  0  0  0  0  0  0  0  0  0  0  0
  161.6700  207.9330  150.8840 C   0  0  0  0  0  0  0  0  0  0  0  0
  160.4520  205.1830  151.0630 C   0  0  0  0  0  2  0  0  0  0  0  0
  160.2380  203.8380  150.3890 C   0  0  0  0  0  2  0  0  0  0  0  0
  161.2070  203.6390  149.2310 C   0  0  0  0  0  2  0  0  0  0  0  0
  160.9450  204.6600  148.1390 C   0  0  0  0  0  2  0  0  0  0  0  0
  161.2060  203.3870  145.5570 O   0  0  0  0  0  0  0  0  0  0  0  0
  161.8700  204.1980  146.6480 P   0  0  1  0  0  4  0  0  0  0  0  0
  163.4580  204.7110  146.3660 O   0  0  0  0  0  1  0  0  0  0  0  0
  161.3280  208.7910  153.1200 O   0  0  0  0  0  0  0  0  0  0  0  0
  160.0030  209.7000  155.0660 C   0  0  0  0  0  3  0  0  0  0  0  0
  159.0150  210.4630  155.5290 C   0  0  0  0  0  3  0  0  0  0  0  0
  159.1980  212.8650  152.9400 C   0  0  0  0  0  1  0  0  0  0  0  0
  157.2370  211.9350  155.0420 O   0  0  0  0  0  0  0  0  0  0  0  0
  159.7110  210.4600  152.7620 C   0  0  0  0  0  3  0  0  0  0  0  0
  158.6630  211.4640  153.1730 C   0  0  1  0  0  3  0  0  0  0  0  0
  158.2430  211.3120  154.6110 C   0  0  0  0  0  0  0  0  0  0  0  0
  160.3470  209.6600  153.6260 C   0  0  0  0  0  0  0  0  0  0  0  0
  1  8  1  1  0  0  0
  2 11  1  0  0  0  0
  3  9  1  0  0  0  0
  3  5  2  0  0  0  0
  4  1  1  0  0  0  0
  4 19  1  1  0  0  0
  5 10  1  0  0  0  0
  6  1  1  0  0  0  0
  7 10  1  6  0  0  0
  7  6  1  0  0  0  0
  7  1  1  0  0  0  0
  9  2  2  0  0  0  0
 10 11  2  0  0  0  0
 11  4  1  0  0  0  0
 12  6  1  0  0  0  0
 13 12  1  0  0  0  0
 14 13  1  0  0  0  0
 15 14  1  0  0  0  0
 17 16  2  6  0  0  0
 17 15  1  0  0  0  0
 18 17  1  0  0  0  0
 19 27  1  0  0  0  0
 20 21  2  0  0  0  0
 24 25  1  0  0  0  0
 24 27  2  0  0  0  0
 25 22  1  1  0  0  0
 25 26  1  0  0  0  0
 26 23  2  0  0  0  0
 26 21  1  0  0  0  0
 27 20  1  0  0  0  0
M  END
>  <MODEL>
8

>  <REMARK>
 VINA RESULT:      -5.7      3.283      7.950
  Name = 
  7 active torsions:
  status: ('A' for Active; 'I' for Inactive)
    1  A    between atoms: C_3  and  C_11
    2  A    between atoms: C_3  and  N_18
    3  A    between atoms: C_8  and  O_24
    4  A    between atoms: C_11  and  C_13
    5  A    between atoms: C_12  and  C_13
    6  A    between atoms: C_12  and  P_17
    7  A    between atoms: O_24  and  C_27
                            x       y       z     vdW  Elec       q    Type
                         _______ _______ _______ _____ _____    ______ ____

>  <TORSDO>
F 7

$$$$
=
 OpenBabel11042421323D

 27 30  0  0  1  0  0  0  0  0999 V2000
  161.9630  206.6270  152.1080 C   0  0  1  0  0  0  0  0  0  0  0  0
  160.2560  209.9020  152.3800 N   0  0  0  0  0  0  0  0  0  0  0  0
  161.5650  211.0310  150.7180 C   0  0  0  0  0  3  0  0  0  0  0  0
  160.8320  207.4590  152.7770 C   0  0  2  0  0  3  0  0  0  0  0  0
  162.2880  209.8930  150.5080 N   0  0  0  0  0  0  0  0  0  0  0  0
  161.8920  206.2900  150.6650 N   0  0  0  0  0  0  0  0  0  0  0  0
  162.7060  207.4590  151.1320 C   0  0  1  0  0  3  0  0  0  0  0  0
  162.7580  205.7710  152.8500 F   0  0  0  0  0  0  0  0  0  0  0  0
  160.5270  211.0350  151.6700 C   0  0  0  0  0  3  0  0  0  0  0  0
  161.9940  208.7760  151.2200 C   0  0  0  0  0  0  0  0  0  0  0  0
  161.0010  208.7900  152.1590 C   0  0  0  0  0  0  0  0  0  0  0  0
  160.6100  206.6670  150.0570 C   0  0  0  0  0  2  0  0  0  0  0  0
  160.4810  206.0430  148.6780 C   0  0  0  0  0  2  0  0  0  0  0  0
  161.2810  206.8210  147.6420 C   0  0  0  0  0  2  0  0  0  0  0  0
  162.3390  205.9340  147.0140 C   0  0  0  0  0  2  0  0  0  0  0  0
  161.2880  205.3780  144.3790 O   0  0  0  0  0  0  0  0  0  0  0  0
  161.5670  204.8580  145.7730 P   0  0  1  0  0  4  0  0  0  0  0  0
  161.2080  203.2320  146.0730 O   0  0  0  0  0  1  0  0  0  0  0  0
  160.9460  207.5010  154.2050 O   0  0  0  0  0  0  0  0  0  0  0  0
  159.6440  209.1090  155.6480 C   0  0  0  0  0  3  0  0  0  0  0  0
  159.5840  210.2450  156.3410 C   0  0  0  0  0  3  0  0  0  0  0  0
  162.9980  210.2620  157.2610 C   0  0  0  0  0  1  0  0  0  0  0  0
  160.6900  212.2000  157.0620 O   0  0  0  0  0  0  0  0  0  0  0  0
  162.0320  209.3410  155.1880 C   0  0  0  0  0  3  0  0  0  0  0  0
  162.1310  210.5710  156.0540 C   0  0  1  0  0  3  0  0  0  0  0  0
  160.7860  211.0730  156.5090 C   0  0  0  0  0  0  0  0  0  0  0  0
  160.8990  208.6510  155.0120 C   0  0  0  0  0  0  0  0  0  0  0  0
  1  4  1  0  0  0  0
  1  8  1  1  0  0  0
  3  9  1  0  0  0  0
  4 19  1  1  0  0  0
  5  3  2  0  0  0  0
  5 10  1  0  0  0  0
  6  7  1  0  0  0  0
  6  1  1  0  0  0  0
  7 10  1  6  0  0  0
  7  1  1  0  0  0  0
  9  2  2  0  0  0  0
 10 11  2  0  0  0  0
 11  2  1  0  0  0  0
 11  4  1  0  0  0  0
 12  6  1  0  0  0  0
 13 12  1  0  0  0  0
 14 13  1  0  0  0  0
 15 14  1  0  0  0  0
 17 16  2  6  0  0  0
 17 18  1  0  0  0  0
 17 15  1  0  0  0  0
 19 27  1  0  0  0  0
 20 21  2  0  0  0  0
 21 26  1  0  0  0  0
 24 25  1  0  0  0  0
 25 26  1  0  0  0  0
 25 22  1  1  0  0  0
 26 23  2  0  0  0  0
 27 24  2  0  0  0  0
 27 20  1  0  0  0  0
M  END
>  <MODEL>
9

>  <REMARK>
 VINA RESULT:      -5.3      3.561      7.749
  Name = 
  7 active torsions:
  status: ('A' for Active; 'I' for Inactive)
    1  A    between atoms: C_3  and  C_11
    2  A    between atoms: C_3  and  N_18
    3  A    between atoms: C_8  and  O_24
    4  A    between atoms: C_11  and  C_13
    5  A    between atoms: C_12  and  C_13
    6  A    between atoms: C_12  and  P_17
    7  A    between atoms: O_24  and  C_27
                            x       y       z     vdW  Elec       q    Type
                         _______ _______ _______ _____ _____    ______ ____

>  <TORSDO>
F 7

$$$$
