=
 OpenBabel11052411093D

 44 48  0  0  1  0  0  0  0  0999 V2000
  161.6330  211.2040  152.9150 C   0  0  0  0  0  2  0  0  0  0  0  0
  160.3560  214.2500  148.4320 C   0  0  0  0  0  3  0  0  0  0  0  0
  161.9040  209.7210  152.6390 C   0  0  2  0  0  3  0  0  0  0  0  0
  162.4370  208.7180  150.4010 C   0  0  0  0  0  2  0  0  0  0  0  0
  161.9220  208.4040  148.9960 C   0  0  1  0  0  3  0  0  0  0  0  0
  160.5970  212.9790  148.9660 C   0  0  0  0  0  0  0  0  0  0  0  0
  161.3270  209.2780  151.2880 C   0  0  1  0  0  3  0  0  0  0  0  0
  160.4200  208.2420  151.6440 O   0  0  0  0  0  0  0  0  0  0  0  0
  161.0640  212.1300  146.7430 C   0  0  0  0  0  3  0  0  0  0  0  0
  161.1880  210.6770  148.7090 O   0  0  0  0  0  0  0  0  0  0  0  0
  160.3570  208.0270  152.9980 N   0  0  0  0  0  0  0  0  0  0  0  0
  160.4470  214.4530  147.0520 C   0  0  0  0  0  3  0  0  0  0  0  0
  161.3680  208.8480  155.0000 N   0  0  0  0  0  2  0  0  0  0  0  0
  161.1670  208.8350  153.5860 C   0  0  0  0  0  0  0  0  0  0  0  0
  160.9610  211.9230  148.1250 C   0  0  0  0  0  0  0  0  0  0  0  0
  160.6350  212.7500  150.3740 N   0  0  0  0  0  2  0  0  0  0  0  0
  160.8020  213.3950  146.2090 C   0  0  0  0  0  3  0  0  0  0  0  0
  159.7550  213.2040  151.4070 C   0  0  0  0  0  0  0  0  0  0  0  0
  160.0250  212.9220  152.8440 C   0  0  1  0  0  3  0  0  0  0  0  0
  158.7190  213.3520  153.4390 C   0  0  0  0  0  3  0  0  0  0  0  0
  157.8800  213.7570  152.5400 N   0  0  0  0  0  0  0  0  0  0  0  0
  158.5100  213.6460  151.2760 C   0  0  0  0  0  0  0  0  0  0  0  0
  160.2050  211.4890  153.0340 N   0  0  0  0  0  2  0  0  0  0  0  0
  161.9480  209.6440  148.1070 C   0  0  0  0  0  2  0  0  0  0  0  0
  157.7860  213.8280  150.0460 C   0  0  0  0  0  0  0  0  0  0  0  0
  157.2010  213.9780  149.0600 N   0  0  0  0  0  0  0  0  0  0  0  0
  160.4120  208.2500  155.9200 C   0  0  0  0  0  2  0  0  0  0  0  0
  159.7410  209.2840  156.6970 N   0  0  0  0  0  2  0  0  0  0  0  0
  158.4670  209.4900  156.1400 N   0  0  0  0  0  2  0  0  0  0  0  0
  158.2460  210.9230  155.9450 C   0  0  2  0  0  3  0  0  0  0  0  0
  158.2630  211.7180  157.2610 C   0  0  0  0  0  2  0  0  0  0  0  0
  157.6170  213.0830  157.0580 C   0  0  0  0  0  2  0  0  0  0  0  0
  155.2740  210.7070  156.6080 F   0  0  0  0  0  0  0  0  0  0  0  0
  155.8120  211.7140  155.8270 C   0  0  2  0  0  3  0  0  0  0  0  0
  157.0240  211.1940  155.0500 C   0  0  0  0  0  2  0  0  0  0  0  0
  156.1340  212.9390  156.6980 C   0  0  0  0  0  2  0  0  0  0  0  0
  162.7940  207.3270  148.3720 C   0  0  0  0  0  2  0  0  0  0  0  0
  162.1670  205.8970  146.4430 C   0  0  0  0  0  3  0  0  0  0  0  0
  161.4130  205.0610  145.8800 O   0  0  0  0  0  0  0  0  0  0  0  0
  161.9800  206.2560  147.8160 N   0  0  0  0  0  0  0  0  0  0  0  0
  160.8460  205.7660  148.5960 C   0  0  0  0  0  2  0  0  0  0  0  0
  160.9220  203.3260  149.0170 C   0  0  0  0  0  1  0  0  0  0  0  0
  161.2700  204.6860  149.5850 C   0  0  2  0  0  3  0  0  0  0  0  0
  160.5860  204.8650  150.8530 N   0  0  0  0  0  1  0  0  0  0  0  0
  1 23  1  0  0  0  0
  2  6  1  0  0  0  0
  3  1  1  1  0  0  0
  3 14  1  0  0  0  0
  5 37  1  6  0  0  0
  5  4  1  0  0  0  0
  6 16  1  0  0  0  0
  7  4  1  6  0  0  0
  7  8  1  0  0  0  0
  7  3  1  0  0  0  0
  8 11  1  0  0  0  0
  9 15  1  0  0  0  0
 11 14  2  0  0  0  0
 12  2  2  0  0  0  0
 13 27  1  0  0  0  0
 14 13  1  0  0  0  0
 15 10  1  0  0  0  0
 15  6  2  0  0  0  0
 16 18  1  0  0  0  0
 17  9  2  0  0  0  0
 17 12  1  0  0  0  0
 18 19  1  0  0  0  0
 19 23  1  0  0  0  0
 19 20  1  1  0  0  0
 21 20  2  0  0  0  0
 22 18  2  0  0  0  0
 22 21  1  0  0  0  0
 24 10  1  0  0  0  0
 24  5  1  0  0  0  0
 25 22  1  0  0  0  0
 26 25  3  0  0  0  0
 27 28  1  0  0  0  0
 29 28  1  0  0  0  0
 30 29  1  1  0  0  0
 30 31  1  0  0  0  0
 32 31  1  0  0  0  0
 34 33  1  1  0  0  0
 34 36  1  0  0  0  0
 35 34  1  0  0  0  0
 35 30  1  0  0  0  0
 36 32  1  0  0  0  0
 38 40  1  0  0  0  0
 39 38  2  0  0  0  0
 40 37  1  0  0  0  0
 40 41  1  0  0  0  0
 41 43  1  0  0  0  0
 43 42  1  6  0  0  0
 43 44  1  0  0  0  0
M  END
>  <MODEL>
1

>  <REMARK>
 VINA RESULT:      -5.1      0.000      0.000
  Name = 
  9 active torsions:
  status: ('A' for Active; 'I' for Inactive)
    1  A    between atoms: C_2  and  N_44
    2  A    between atoms: C_8  and  C_38
    3  A    between atoms: C_13  and  C_41
    4  A    between atoms: C_15  and  C_23
    5  A    between atoms: N_18  and  C_34
    6  A    between atoms: N_18  and  N_44
    7  A    between atoms: C_23  and  N_25
    8  A    between atoms: N_25  and  C_38
    9  A    between atoms: N_26  and  C_34
                            x       y       z     vdW  Elec       q    Type
                         _______ _______ _______ _____ _____    ______ ____

>  <TORSDO>
F 9

$$$$
=
 OpenBabel11052411093D

 44 48  0  0  1  0  0  0  0  0999 V2000
  161.7720  210.0490  152.8410 C   0  0  0  0  0  2  0  0  0  0  0  0
  160.7340  213.9540  149.0110 C   0  0  0  0  0  3  0  0  0  0  0  0
  162.0020  208.6380  152.2880 C   0  0  2  0  0  3  0  0  0  0  0  0
  162.5680  208.0690  149.9100 C   0  0  0  0  0  2  0  0  0  0  0  0
  162.0850  208.0540  148.4590 C   0  0  1  0  0  3  0  0  0  0  0  0
  160.9160  212.5960  149.2920 C   0  0  0  0  0  0  0  0  0  0  0  0
  161.4510  208.4890  150.8640 C   0  0  1  0  0  3  0  0  0  0  0  0
  160.5000  207.4390  150.9900 O   0  0  0  0  0  0  0  0  0  0  0  0
  161.4200  212.1760  146.9580 C   0  0  0  0  0  3  0  0  0  0  0  0
  161.4370  210.3660  148.6040 O   0  0  0  0  0  0  0  0  0  0  0  0
  160.3890  206.9680  152.2740 N   0  0  0  0  0  0  0  0  0  0  0  0
  160.8730  214.4180  147.6990 C   0  0  0  0  0  3  0  0  0  0  0  0
  161.3660  207.3450  154.4210 N   0  0  0  0  0  2  0  0  0  0  0  0
  161.2070  207.6150  153.0270 C   0  0  0  0  0  0  0  0  0  0  0  0
  161.2700  211.7100  148.2700 C   0  0  0  0  0  0  0  0  0  0  0  0
  160.9040  212.0960  150.6290 N   0  0  0  0  0  2  0  0  0  0  0  0
  161.2180  213.5310  146.6740 C   0  0  0  0  0  3  0  0  0  0  0  0
  160.0090  212.3740  151.7100 C   0  0  0  0  0  0  0  0  0  0  0  0
  160.2260  211.8090  153.0700 C   0  0  1  0  0  3  0  0  0  0  0  0
  158.9180  212.1650  153.7070 C   0  0  0  0  0  3  0  0  0  0  0  0
  158.1210  212.7700  152.8860 N   0  0  0  0  0  0  0  0  0  0  0  0
  158.7840  212.8820  151.6390 C   0  0  0  0  0  0  0  0  0  0  0  0
  160.3520  210.3610  152.9820 N   0  0  0  0  0  2  0  0  0  0  0  0
  162.1790  209.4410  147.8300 C   0  0  0  0  0  2  0  0  0  0  0  0
  158.1040  213.3270  150.4520 C   0  0  0  0  0  0  0  0  0  0  0  0
  157.5610  213.6870  149.4960 N   0  0  0  0  0  0  0  0  0  0  0  0
  160.3630  206.6170  155.1840 C   0  0  0  0  0  2  0  0  0  0  0  0
  159.8940  207.4240  156.3030 N   0  0  0  0  0  2  0  0  0  0  0  0
  159.7080  208.7400  155.8430 N   0  0  0  0  0  2  0  0  0  0  0  0
  160.2420  209.6800  156.8300 C   0  0  2  0  0  3  0  0  0  0  0  0
  160.0560  211.1500  156.4210 C   0  0  0  0  0  2  0  0  0  0  0  0
  160.9830  212.0430  157.2360 C   0  0  0  0  0  2  0  0  0  0  0  0
  162.8600  210.0290  155.2980 F   0  0  0  0  0  0  0  0  0  0  0  0
  162.7360  210.2430  156.6590 C   0  0  2  0  0  3  0  0  0  0  0  0
  161.6750  209.3100  157.2500 C   0  0  0  0  0  2  0  0  0  0  0  0
  162.4520  211.7290  156.9340 C   0  0  0  0  0  2  0  0  0  0  0  0
  162.9390  207.0850  147.6580 C   0  0  0  0  0  2  0  0  0  0  0  0
  161.4160  205.2990  148.4660 C   0  0  0  0  0  3  0  0  0  0  0  0
  160.8710  204.1710  148.3530 O   0  0  0  0  0  0  0  0  0  0  0  0
  162.2250  205.8400  147.4160 N   0  0  0  0  0  0  0  0  0  0  0  0
  162.5530  205.0700  146.2180 C   0  0  0  0  0  2  0  0  0  0  0  0
  160.4430  206.2160  145.6120 C   0  0  0  0  0  1  0  0  0  0  0  0
  161.4830  205.2210  145.1430 C   0  0  2  0  0  3  0  0  0  0  0  0
  160.8430  203.9440  144.8840 N   0  0  0  0  0  1  0  0  0  0  0  0
  1 23  1  0  0  0  0
  2  6  1  0  0  0  0
  3  1  1  1  0  0  0
  3 14  1  0  0  0  0
  5 37  1  6  0  0  0
  5  4  1  0  0  0  0
  6 16  1  0  0  0  0
  7  4  1  6  0  0  0
  7  8  1  0  0  0  0
  7  3  1  0  0  0  0
  8 11  1  0  0  0  0
  9 15  1  0  0  0  0
 11 14  2  0  0  0  0
 12  2  2  0  0  0  0
 13 27  1  0  0  0  0
 14 13  1  0  0  0  0
 15 10  1  0  0  0  0
 15  6  2  0  0  0  0
 16 18  1  0  0  0  0
 17  9  2  0  0  0  0
 17 12  1  0  0  0  0
 18 19  1  0  0  0  0
 19 20  1  1  0  0  0
 21 20  2  0  0  0  0
 22 18  2  0  0  0  0
 22 21  1  0  0  0  0
 23 19  1  0  0  0  0
 24  5  1  0  0  0  0
 24 10  1  0  0  0  0
 25 22  1  0  0  0  0
 26 25  3  0  0  0  0
 27 28  1  0  0  0  0
 29 28  1  0  0  0  0
 30 29  1  6  0  0  0
 30 35  1  0  0  0  0
 31 30  1  0  0  0  0
 31 32  1  0  0  0  0
 34 33  1  6  0  0  0
 34 36  1  0  0  0  0
 34 35  1  0  0  0  0
 36 32  1  0  0  0  0
 39 38  2  0  0  0  0
 40 37  1  0  0  0  0
 40 38  1  0  0  0  0
 41 40  1  0  0  0  0
 43 42  1  1  0  0  0
 43 41  1  0  0  0  0
 44 43  1  0  0  0  0
M  END
>  <MODEL>
2

>  <REMARK>
 VINA RESULT:      -4.6      1.942      2.763
  Name = 
  9 active torsions:
  status: ('A' for Active; 'I' for Inactive)
    1  A    between atoms: C_2  and  N_44
    2  A    between atoms: C_8  and  C_38
    3  A    between atoms: C_13  and  C_41
    4  A    between atoms: C_15  and  C_23
    5  A    between atoms: N_18  and  C_34
    6  A    between atoms: N_18  and  N_44
    7  A    between atoms: C_23  and  N_25
    8  A    between atoms: N_25  and  C_38
    9  A    between atoms: N_26  and  C_34
                            x       y       z     vdW  Elec       q    Type
                         _______ _______ _______ _____ _____    ______ ____

>  <TORSDO>
F 9

$$$$
=
 OpenBabel11052411093D

 44 48  0  0  1  0  0  0  0  0999 V2000
  161.5210  211.4490  152.7580 C   0  0  0  0  0  2  0  0  0  0  0  0
  160.2950  214.2610  148.1110 C   0  0  0  0  0  3  0  0  0  0  0  0
  161.8190  209.9590  152.5580 C   0  0  2  0  0  3  0  0  0  0  0  0
  162.4150  208.8600  150.3810 C   0  0  0  0  0  2  0  0  0  0  0  0
  161.9330  208.4730  148.9820 C   0  0  1  0  0  3  0  0  0  0  0  0
  160.5420  213.0210  148.7090 C   0  0  0  0  0  0  0  0  0  0  0  0
  161.2780  209.4450  151.2180 C   0  0  1  0  0  3  0  0  0  0  0  0
  160.3790  208.4120  151.6050 O   0  0  0  0  0  0  0  0  0  0  0  0
  161.0680  212.0750  146.5390 C   0  0  0  0  0  3  0  0  0  0  0  0
  161.1730  210.7180  148.5730 O   0  0  0  0  0  0  0  0  0  0  0  0
  160.2910  208.2600  152.9660 N   0  0  0  0  0  0  0  0  0  0  0  0
  160.4110  214.4000  146.7250 C   0  0  0  0  0  3  0  0  0  0  0  0
  161.2470  209.1900  154.9470 N   0  0  0  0  0  2  0  0  0  0  0  0
  161.0760  209.1080  153.5310 C   0  0  0  0  0  0  0  0  0  0  0  0
  160.9400  211.9320  147.9270 C   0  0  0  0  0  0  0  0  0  0  0  0
  160.5540  212.8580  150.1270 N   0  0  0  0  0  2  0  0  0  0  0  0
  160.7990  213.3100  145.9400 C   0  0  0  0  0  3  0  0  0  0  0  0
  159.6470  213.3460  151.1200 C   0  0  0  0  0  0  0  0  0  0  0  0
  159.8900  213.1370  152.5740 C   0  0  1  0  0  3  0  0  0  0  0  0
  158.5670  213.5740  153.1200 C   0  0  0  0  0  3  0  0  0  0  0  0
  157.7400  213.9230  152.1870 N   0  0  0  0  0  0  0  0  0  0  0  0
  158.3980  213.7630  150.9420 C   0  0  0  0  0  0  0  0  0  0  0  0
  160.0870  211.7180  152.8350 N   0  0  0  0  0  2  0  0  0  0  0  0
  161.9590  209.6700  148.0370 C   0  0  0  0  0  2  0  0  0  0  0  0
  157.6980  213.8760  149.6910 C   0  0  0  0  0  0  0  0  0  0  0  0
  157.1300  213.9640  148.6870 N   0  0  0  0  0  0  0  0  0  0  0  0
  160.2810  208.6210  155.8750 C   0  0  0  0  0  2  0  0  0  0  0  0
  159.9070  209.6040  156.8830 N   0  0  0  0  0  2  0  0  0  0  0  0
  159.4800  210.7680  156.2190 N   0  0  0  0  0  2  0  0  0  0  0  0
  158.0180  210.8350  156.2460 C   0  0  2  0  0  3  0  0  0  0  0  0
  157.3970  210.9550  154.8460 C   0  0  0  0  0  2  0  0  0  0  0  0
  155.9580  211.4450  154.9490 C   0  0  0  0  0  2  0  0  0  0  0  0
  158.0070  213.8820  156.0470 F   0  0  0  0  0  0  0  0  0  0  0  0
  156.9720  213.1480  156.5990 C   0  0  2  0  0  3  0  0  0  0  0  0
  157.5150  211.8770  157.2600 C   0  0  0  0  0  2  0  0  0  0  0  0
  155.9030  212.8620  155.5330 C   0  0  0  0  0  2  0  0  0  0  0  0
  162.8340  207.3810  148.4290 C   0  0  0  0  0  2  0  0  0  0  0  0
  161.2090  205.6630  149.1830 C   0  0  0  0  0  3  0  0  0  0  0  0
  160.6200  204.5590  149.0500 O   0  0  0  0  0  0  0  0  0  0  0  0
  162.0760  206.1670  148.1610 N   0  0  0  0  0  0  0  0  0  0  0  0
  162.4120  205.3830  146.9760 C   0  0  0  0  0  2  0  0  0  0  0  0
  161.3640  203.6790  145.5170 C   0  0  0  0  0  1  0  0  0  0  0  0
  161.1720  205.0340  146.1630 C   0  0  2  0  0  3  0  0  0  0  0  0
  160.9470  206.0290  145.1300 N   0  0  0  0  0  1  0  0  0  0  0  0
  1 23  1  0  0  0  0
  2  6  1  0  0  0  0
  3  1  1  1  0  0  0
  3 14  1  0  0  0  0
  5 37  1  6  0  0  0
  5  4  1  0  0  0  0
  6 16  1  0  0  0  0
  7  4  1  6  0  0  0
  7  8  1  0  0  0  0
  7  3  1  0  0  0  0
  8 11  1  0  0  0  0
  9 15  1  0  0  0  0
 11 14  2  0  0  0  0
 12  2  2  0  0  0  0
 13 27  1  0  0  0  0
 14 13  1  0  0  0  0
 15 10  1  0  0  0  0
 15  6  2  0  0  0  0
 16 18  1  0  0  0  0
 17  9  2  0  0  0  0
 17 12  1  0  0  0  0
 18 19  1  0  0  0  0
 19 23  1  0  0  0  0
 19 20  1  1  0  0  0
 21 20  2  0  0  0  0
 22 18  2  0  0  0  0
 22 21  1  0  0  0  0
 24 10  1  0  0  0  0
 24  5  1  0  0  0  0
 25 22  1  0  0  0  0
 26 25  3  0  0  0  0
 27 28  1  0  0  0  0
 29 28  1  0  0  0  0
 30 29  1  6  0  0  0
 30 35  1  0  0  0  0
 31 32  1  0  0  0  0
 31 30  1  0  0  0  0
 32 36  1  0  0  0  0
 34 33  1  6  0  0  0
 34 35  1  0  0  0  0
 36 34  1  0  0  0  0
 39 38  2  0  0  0  0
 40 37  1  0  0  0  0
 40 38  1  0  0  0  0
 41 40  1  0  0  0  0
 43 42  1  6  0  0  0
 43 41  1  0  0  0  0
 44 43  1  0  0  0  0
M  END
>  <MODEL>
3

>  <REMARK>
 VINA RESULT:      -4.5      1.131      1.750
  Name = 
  9 active torsions:
  status: ('A' for Active; 'I' for Inactive)
    1  A    between atoms: C_2  and  N_44
    2  A    between atoms: C_8  and  C_38
    3  A    between atoms: C_13  and  C_41
    4  A    between atoms: C_15  and  C_23
    5  A    between atoms: N_18  and  C_34
    6  A    between atoms: N_18  and  N_44
    7  A    between atoms: C_23  and  N_25
    8  A    between atoms: N_25  and  C_38
    9  A    between atoms: N_26  and  C_34
                            x       y       z     vdW  Elec       q    Type
                         _______ _______ _______ _____ _____    ______ ____

>  <TORSDO>
F 9

$$$$
=
 OpenBabel11052411093D

 44 48  0  0  1  0  0  0  0  0999 V2000
  163.1520  206.8420  147.8760 C   0  0  0  0  0  2  0  0  0  0  0  0
  161.7260  201.4830  147.3750 C   0  0  0  0  0  3  0  0  0  0  0  0
  162.7420  207.5050  149.1950 C   0  0  2  0  0  3  0  0  0  0  0  0
  162.1010  206.3040  151.3040 C   0  0  0  0  0  2  0  0  0  0  0  0
  161.0790  205.3930  151.9850 C   0  0  1  0  0  3  0  0  0  0  0  0
  161.6320  202.6650  148.1190 C   0  0  0  0  0  0  0  0  0  0  0  0
  161.6360  206.7170  149.9090 C   0  0  1  0  0  3  0  0  0  0  0  0
  160.5760  207.6610  150.0100 O   0  0  0  0  0  0  0  0  0  0  0  0
  160.9960  201.3860  150.0780 C   0  0  0  0  0  3  0  0  0  0  0  0
  161.2000  203.8240  150.1650 O   0  0  0  0  0  0  0  0  0  0  0  0
  160.8820  208.8720  149.4420 N   0  0  0  0  0  0  0  0  0  0  0  0
  161.4310  200.2570  147.9790 C   0  0  0  0  0  3  0  0  0  0  0  0
  162.7190  209.9340  148.3450 N   0  0  0  0  0  2  0  0  0  0  0  0
  162.0790  208.8220  148.9730 C   0  0  0  0  0  0  0  0  0  0  0  0
  161.2790  202.6160  149.4710 C   0  0  0  0  0  0  0  0  0  0  0  0
  162.0380  203.9240  147.5840 N   0  0  0  0  0  2  0  0  0  0  0  0
  161.0690  200.2080  149.3290 C   0  0  0  0  0  3  0  0  0  0  0  0
  161.7800  204.5090  146.3040 C   0  0  0  0  0  0  0  0  0  0  0  0
  162.3760  205.8140  145.9050 C   0  0  1  0  0  3  0  0  0  0  0  0
  161.5980  206.0800  144.6540 C   0  0  0  0  0  3  0  0  0  0  0  0
  160.7280  205.1520  144.4100 N   0  0  0  0  0  0  0  0  0  0  0  0
  160.8220  204.1860  145.4430 C   0  0  0  0  0  0  0  0  0  0  0  0
  162.0580  206.8210  146.9070 N   0  0  0  0  0  2  0  0  0  0  0  0
  161.2760  203.9360  151.5750 C   0  0  0  0  0  2  0  0  0  0  0  0
  159.8610  203.1240  145.5810 C   0  0  0  0  0  0  0  0  0  0  0  0
  159.0910  202.2680  145.6890 N   0  0  0  0  0  0  0  0  0  0  0  0
  161.9640  211.0650  147.8260 C   0  0  0  0  0  2  0  0  0  0  0  0
  161.9390  212.1480  148.8010 N   0  0  0  0  0  2  0  0  0  0  0  0
  162.0410  213.3650  148.1050 N   0  0  0  0  0  2  0  0  0  0  0  0
  160.8990  214.2150  148.4390 C   0  0  2  0  0  3  0  0  0  0  0  0
  160.1620  213.7590  149.7090 C   0  0  0  0  0  2  0  0  0  0  0  0
  158.7760  214.3880  149.7670 C   0  0  0  0  0  2  0  0  0  0  0  0
  158.9080  212.3140  147.1170 F   0  0  0  0  0  0  0  0  0  0  0  0
  158.6730  213.6650  147.2940 C   0  0  2  0  0  3  0  0  0  0  0  0
  159.9870  214.4480  147.2210 C   0  0  0  0  0  2  0  0  0  0  0  0
  157.9040  213.8990  148.6040 C   0  0  0  0  0  2  0  0  0  0  0  0
  161.2300  205.5110  153.4920 C   0  0  0  0  0  2  0  0  0  0  0  0
  160.4040  206.9550  155.3340 C   0  0  0  0  0  3  0  0  0  0  0  0
  159.8990  208.0260  155.7630 O   0  0  0  0  0  0  0  0  0  0  0  0
  160.7790  206.8140  153.9600 N   0  0  0  0  0  0  0  0  0  0  0  0
  160.4920  207.8480  152.9690 C   0  0  0  0  0  2  0  0  0  0  0  0
  160.0360  210.2760  153.1420 C   0  0  0  0  0  1  0  0  0  0  0  0
  161.0700  209.1960  153.3810 C   0  0  2  0  0  3  0  0  0  0  0  0
  162.2610  209.4940  152.6060 N   0  0  0  0  0  1  0  0  0  0  0  0
  2 12  2  0  0  0  0
  2  6  1  0  0  0  0
  3  1  1  6  0  0  0
  3  7  1  0  0  0  0
  4  5  1  0  0  0  0
  5 37  1  1  0  0  0
  6 15  2  0  0  0  0
  7  8  1  0  0  0  0
  7  4  1  1  0  0  0
 10 24  1  0  0  0  0
 11  8  1  0  0  0  0
 12 17  1  0  0  0  0
 13 14  1  0  0  0  0
 14  3  1  0  0  0  0
 14 11  2  0  0  0  0
 15  9  1  0  0  0  0
 15 10  1  0  0  0  0
 16  6  1  0  0  0  0
 17  9  2  0  0  0  0
 18 16  1  0  0  0  0
 19 20  1  6  0  0  0
 19 18  1  0  0  0  0
 19 23  1  0  0  0  0
 21 20  2  0  0  0  0
 21 22  1  0  0  0  0
 22 25  1  0  0  0  0
 22 18  2  0  0  0  0
 23  1  1  0  0  0  0
 24  5  1  0  0  0  0
 25 26  3  0  0  0  0
 27 13  1  0  0  0  0
 27 28  1  0  0  0  0
 29 28  1  0  0  0  0
 30 29  1  6  0  0  0
 30 31  1  0  0  0  0
 31 32  1  0  0  0  0
 34 33  1  1  0  0  0
 34 36  1  0  0  0  0
 35 34  1  0  0  0  0
 35 30  1  0  0  0  0
 36 32  1  0  0  0  0
 37 40  1  0  0  0  0
 38 39  2  0  0  0  0
 40 38  1  0  0  0  0
 41 43  1  0  0  0  0
 41 40  1  0  0  0  0
 43 42  1  6  0  0  0
 44 43  1  0  0  0  0
M  END
>  <MODEL>
4

>  <REMARK>
 VINA RESULT:      -3.0      3.248      8.812
  Name = 
  9 active torsions:
  status: ('A' for Active; 'I' for Inactive)
    1  A    between atoms: C_2  and  N_44
    2  A    between atoms: C_8  and  C_38
    3  A    between atoms: C_13  and  C_41
    4  A    between atoms: C_15  and  C_23
    5  A    between atoms: N_18  and  C_34
    6  A    between atoms: N_18  and  N_44
    7  A    between atoms: C_23  and  N_25
    8  A    between atoms: N_25  and  C_38
    9  A    between atoms: N_26  and  C_34
                            x       y       z     vdW  Elec       q    Type
                         _______ _______ _______ _____ _____    ______ ____

>  <TORSDO>
F 9

$$$$
