=
 OpenBabel11042420473D

 27 29  0  0  1  0  0  0  0  0999 V2000
  161.7860  207.5010  152.2510 C   0  0  1  0  0  3  0  0  0  0  0  0
  159.7760  208.6660  155.9400 C   0  0  0  0  0  2  0  0  0  0  0  0
  161.3760  209.3160  153.9720 C   0  0  1  0  0  3  0  0  0  0  0  0
  160.8820  207.9740  153.3960 C   0  0  2  0  0  3  0  0  0  0  0  0
  161.0740  210.4360  152.9890 C   0  0  0  0  0  1  0  0  0  0  0  0
  160.7190  206.9240  154.4720 C   0  0  0  0  0  3  0  0  0  0  0  0
  160.7500  209.6250  155.3150 C   0  0  0  0  0  0  0  0  0  0  0  0
  160.1980  207.2520  155.6600 C   0  0  0  0  0  3  0  0  0  0  0  0
  161.0430  210.6530  155.9050 O   0  0  0  0  0  0  0  0  0  0  0  0
  162.1530  206.0900  152.3670 N   0  0  0  0  0  2  0  0  0  0  0  0
  161.6570  205.4330  151.2300 N   0  0  0  0  0  2  0  0  0  0  0  0
  160.9290  204.2050  151.3290 C   0  0  0  0  0  0  0  0  0  0  0  0
  160.7810  203.6440  152.4480 O   0  0  0  0  0  0  0  0  0  0  0  0
  160.2040  201.4640  148.7990 C   0  0  0  0  0  2  0  0  0  0  0  0
  160.7740  202.0980  150.0500 C   0  0  2  0  0  3  0  0  0  0  0  0
  160.3830  203.5630  150.0960 C   0  0  2  0  0  3  0  0  0  0  0  0
  161.5190  203.1030  149.2010 C   0  0  2  0  0  3  0  0  0  0  0  0
  160.9510  202.4690  147.9500 C   0  0  0  0  0  2  0  0  0  0  0  0
  161.2660  207.8150  150.9770 O   0  0  0  0  0  0  0  0  0  0  0  0
  162.2280  208.4090  150.2930 O   0  0  0  0  0  0  0  0  0  0  0  0
  161.7270  208.5200  148.9920 C   0  0  1  0  0  3  0  0  0  0  0  0
  162.0870  209.7520  148.4470 O   0  0  0  0  0  1  0  0  0  0  0  0
  162.2330  207.3720  148.1220 C   0  0  0  0  0  2  0  0  0  0  0  0
  161.1140  206.4410  147.6620 C   0  0  0  0  0  2  0  0  0  0  0  0
  160.2940  206.1940  145.2850 N   0  0  0  0  0  1  0  0  0  0  0  0
  162.4130  205.4780  145.9110 O   0  0  0  0  0  0  0  0  0  0  0  0
  161.3240  206.0070  146.2500 C   0  0  0  0  0  0  0  0  0  0  0  0
  1 19  1  6  0  0  0
  1 10  1  0  0  0  0
  3  5  1  6  0  0  0
  3  7  1  0  0  0  0
  4  1  1  6  0  0  0
  4  3  1  0  0  0  0
  4  6  1  0  0  0  0
  6  8  2  0  0  0  0
  7  9  2  0  0  0  0
  7  2  1  0  0  0  0
  8  2  1  0  0  0  0
 11 12  1  0  0  0  0
 11 10  1  0  0  0  0
 12 13  2  0  0  0  0
 15 14  1  6  0  0  0
 15 16  1  0  0  0  0
 16 12  1  1  0  0  0
 17 18  1  6  0  0  0
 17 15  1  0  0  0  0
 17 16  1  0  0  0  0
 18 14  1  0  0  0  0
 20 19  1  0  0  0  0
 21 22  1  6  0  0  0
 21 20  1  0  0  0  0
 23 21  1  0  0  0  0
 24 23  1  0  0  0  0
 25 27  1  0  0  0  0
 26 27  2  0  0  0  0
 27 24  1  0  0  0  0
M  END
>  <MODEL>
1

>  <REMARK>
 VINA RESULT:      -7.9      0.000      0.000
  Name = 
  10 active torsions:
  status: ('A' for Active; 'I' for Inactive)
    1  A    between atoms: C_2  and  O_11
    2  A    between atoms: C_2  and  C_14
    3  A    between atoms: C_4  and  C_14
    4  A    between atoms: C_4  and  C_18
    5  A    between atoms: C_5  and  C_23
    6  A    between atoms: O_11  and  O_24
    7  A    between atoms: N_17  and  N_21
    8  A    between atoms: C_19  and  C_25
    9  A    between atoms: N_21  and  C_23
   10  A    between atoms: C_23  and  O_24
                            x       y       z     vdW  Elec       q    Type
                         _______ _______ _______ _____ _____    ______ ____

>  <TORSDO>
F 10

$$$$
=
 OpenBabel11042420473D

 27 29  0  0  1  0  0  0  0  0999 V2000
  161.3210  207.1050  148.4190 C   0  0  1  0  0  3  0  0  0  0  0  0
  160.5670  203.8340  151.2020 C   0  0  0  0  0  2  0  0  0  0  0  0
  161.3780  206.2940  150.8190 C   0  0  1  0  0  3  0  0  0  0  0  0
  160.8150  206.0450  149.4060 C   0  0  2  0  0  3  0  0  0  0  0  0
  160.6920  207.5020  151.4370 C   0  0  0  0  0  1  0  0  0  0  0  0
  161.0900  204.6370  148.9300 C   0  0  0  0  0  3  0  0  0  0  0  0
  161.2120  205.0890  151.7200 C   0  0  0  0  0  0  0  0  0  0  0  0
  160.9690  203.6050  149.7720 C   0  0  0  0  0  3  0  0  0  0  0  0
  161.6110  205.1270  152.8730 O   0  0  0  0  0  0  0  0  0  0  0  0
  162.3070  208.0070  149.0140 N   0  0  0  0  0  2  0  0  0  0  0  0
  161.9480  209.3150  148.6550 N   0  0  0  0  0  2  0  0  0  0  0  0
  162.0990  210.4120  149.5610 C   0  0  0  0  0  0  0  0  0  0  0  0
  162.4940  210.2110  150.7410 O   0  0  0  0  0  0  0  0  0  0  0  0
  161.1700  213.2370  147.1950 C   0  0  0  0  0  2  0  0  0  0  0  0
  161.5370  211.8310  147.6190 C   0  0  2  0  0  3  0  0  0  0  0  0
  161.7450  211.7940  149.1210 C   0  0  2  0  0  3  0  0  0  0  0  0
  162.8290  212.3460  148.2140 C   0  0  2  0  0  3  0  0  0  0  0  0
  162.4640  213.7530  147.7880 C   0  0  0  0  0  2  0  0  0  0  0  0
  161.7710  206.5500  147.2020 O   0  0  0  0  0  0  0  0  0  0  0  0
  160.7130  206.3890  146.4260 O   0  0  0  0  0  0  0  0  0  0  0  0
  161.2170  205.8340  145.2450 C   0  0  1  0  0  3  0  0  0  0  0  0
  162.6100  205.8210  145.2830 O   0  0  0  0  0  1  0  0  0  0  0  0
  160.6650  204.4260  145.0360 C   0  0  0  0  0  2  0  0  0  0  0  0
  161.5470  203.3460  145.6570 C   0  0  0  0  0  2  0  0  0  0  0  0
  159.8540  201.6320  144.8980 N   0  0  0  0  0  1  0  0  0  0  0  0
  160.9510  201.4250  146.9350 O   0  0  0  0  0  0  0  0  0  0  0  0
  160.7790  202.0880  145.8800 C   0  0  0  0  0  0  0  0  0  0  0  0
  1 19  1  6  0  0  0
  1 10  1  0  0  0  0
  2  7  1  0  0  0  0
  3  5  1  1  0  0  0
  3  7  1  0  0  0  0
  4  1  1  6  0  0  0
  4  3  1  0  0  0  0
  6  4  1  0  0  0  0
  6  8  2  0  0  0  0
  7  9  2  0  0  0  0
  8  2  1  0  0  0  0
 11 10  1  0  0  0  0
 11 12  1  0  0  0  0
 12 13  2  0  0  0  0
 14 18  1  0  0  0  0
 15 14  1  1  0  0  0
 15 17  1  0  0  0  0
 15 16  1  0  0  0  0
 16 12  1  6  0  0  0
 17 18  1  1  0  0  0
 17 16  1  0  0  0  0
 20 19  1  0  0  0  0
 21 22  1  1  0  0  0
 21 20  1  0  0  0  0
 23 21  1  0  0  0  0
 23 24  1  0  0  0  0
 24 27  1  0  0  0  0
 25 27  1  0  0  0  0
 27 26  2  0  0  0  0
M  END
>  <MODEL>
2

>  <REMARK>
 VINA RESULT:      -7.5      2.846      6.400
  Name = 
  10 active torsions:
  status: ('A' for Active; 'I' for Inactive)
    1  A    between atoms: C_2  and  O_11
    2  A    between atoms: C_2  and  C_14
    3  A    between atoms: C_4  and  C_14
    4  A    between atoms: C_4  and  C_18
    5  A    between atoms: C_5  and  C_23
    6  A    between atoms: O_11  and  O_24
    7  A    between atoms: N_17  and  N_21
    8  A    between atoms: C_19  and  C_25
    9  A    between atoms: N_21  and  C_23
   10  A    between atoms: C_23  and  O_24
                            x       y       z     vdW  Elec       q    Type
                         _______ _______ _______ _____ _____    ______ ____

>  <TORSDO>
F 10

$$$$
=
 OpenBabel11042420473D

 27 29  0  0  1  0  0  0  0  0999 V2000
  161.0360  207.1710  151.5190 C   0  0  1  0  0  3  0  0  0  0  0  0
  161.6800  210.1420  154.6450 C   0  0  0  0  0  2  0  0  0  0  0  0
  160.5110  207.9270  153.8810 C   0  0  1  0  0  3  0  0  0  0  0  0
  161.4680  208.0750  152.6810 C   0  0  2  0  0  3  0  0  0  0  0  0
  160.7440  206.5870  154.5580 C   0  0  0  0  0  1  0  0  0  0  0  0
  161.6270  209.5180  152.2600 C   0  0  0  0  0  3  0  0  0  0  0  0
  160.6760  209.0490  154.8830 C   0  0  0  0  0  0  0  0  0  0  0  0
  161.7290  210.4820  153.1830 C   0  0  0  0  0  3  0  0  0  0  0  0
  159.9860  209.0770  155.8900 O   0  0  0  0  0  0  0  0  0  0  0  0
  161.0900  207.8510  150.2250 N   0  0  0  0  0  2  0  0  0  0  0  0
  160.8070  206.8950  149.2380 N   0  0  0  0  0  2  0  0  0  0  0  0
  161.6770  206.6850  148.1220 C   0  0  0  0  0  0  0  0  0  0  0  0
  162.6930  207.4150  147.9630 O   0  0  0  0  0  0  0  0  0  0  0  0
  161.8690  204.7300  144.8690 C   0  0  0  0  0  2  0  0  0  0  0  0
  162.2020  205.8150  145.8700 C   0  0  2  0  0  3  0  0  0  0  0  0
  161.3580  205.6280  147.1170 C   0  0  2  0  0  3  0  0  0  0  0  0
  160.7550  206.2560  145.8740 C   0  0  2  0  0  3  0  0  0  0  0  0
  160.4210  205.1720  144.8710 C   0  0  0  0  0  2  0  0  0  0  0  0
  161.7190  205.9360  151.5030 O   0  0  0  0  0  0  0  0  0  0  0  0
  160.8100  204.9810  151.5930 O   0  0  0  0  0  0  0  0  0  0  0  0
  161.4500  203.8320  151.1190 C   0  0  1  0  0  3  0  0  0  0  0  0
  161.3410  202.8050  152.0570 O   0  0  0  0  0  1  0  0  0  0  0  0
  160.8630  203.4060  149.7760 C   0  0  0  0  0  2  0  0  0  0  0  0
  160.6060  201.9030  149.6920 C   0  0  0  0  0  2  0  0  0  0  0  0
  160.8530  202.1240  147.1880 N   0  0  0  0  0  1  0  0  0  0  0  0
  161.5700  200.2200  148.3080 O   0  0  0  0  0  0  0  0  0  0  0  0
  161.0380  201.3580  148.3730 C   0  0  0  0  0  0  0  0  0  0  0  0
  1 10  1  6  0  0  0
  2  7  1  0  0  0  0
  3  5  1  1  0  0  0
  3  7  1  0  0  0  0
  4  1  1  6  0  0  0
  4  3  1  0  0  0  0
  6  4  1  0  0  0  0
  6  8  2  0  0  0  0
  7  9  2  0  0  0  0
  8  2  1  0  0  0  0
 11 10  1  0  0  0  0
 12 11  1  0  0  0  0
 13 12  2  0  0  0  0
 14 18  1  0  0  0  0
 15 14  1  6  0  0  0
 15 17  1  0  0  0  0
 15 16  1  0  0  0  0
 16 12  1  1  0  0  0
 17 18  1  6  0  0  0
 17 16  1  0  0  0  0
 19  1  1  0  0  0  0
 19 20  1  0  0  0  0
 21 20  1  0  0  0  0
 21 22  1  1  0  0  0
 23 21  1  0  0  0  0
 24 23  1  0  0  0  0
 25 27  1  0  0  0  0
 26 27  2  0  0  0  0
 27 24  1  0  0  0  0
M  END
>  <MODEL>
3

>  <REMARK>
 VINA RESULT:      -7.3      1.921      4.237
  Name = 
  10 active torsions:
  status: ('A' for Active; 'I' for Inactive)
    1  A    between atoms: C_2  and  O_11
    2  A    between atoms: C_2  and  C_14
    3  A    between atoms: C_4  and  C_14
    4  A    between atoms: C_4  and  C_18
    5  A    between atoms: C_5  and  C_23
    6  A    between atoms: O_11  and  O_24
    7  A    between atoms: N_17  and  N_21
    8  A    between atoms: C_19  and  C_25
    9  A    between atoms: N_21  and  C_23
   10  A    between atoms: C_23  and  O_24
                            x       y       z     vdW  Elec       q    Type
                         _______ _______ _______ _____ _____    ______ ____

>  <TORSDO>
F 10

$$$$
=
 OpenBabel11042420473D

 27 29  0  0  1  0  0  0  0  0999 V2000
  160.7300  206.0390  149.9100 C   0  0  1  0  0  3  0  0  0  0  0  0
  160.8770  201.6920  150.2130 C   0  0  0  0  0  2  0  0  0  0  0  0
  161.4370  204.0210  151.2710 C   0  0  1  0  0  3  0  0  0  0  0  0
  160.5470  204.5300  150.1190 C   0  0  2  0  0  3  0  0  0  0  0  0
  160.8690  204.4890  152.6010 C   0  0  0  0  0  1  0  0  0  0  0  0
  160.7640  203.7420  148.8480 C   0  0  0  0  0  3  0  0  0  0  0  0
  161.5670  202.5130  151.2660 C   0  0  0  0  0  0  0  0  0  0  0  0
  160.9150  202.4130  148.8960 C   0  0  0  0  0  3  0  0  0  0  0  0
  162.2430  201.9540  152.1160 O   0  0  0  0  0  0  0  0  0  0  0  0
  162.0510  206.5110  150.3260 N   0  0  0  0  0  2  0  0  0  0  0  0
  161.8650  207.3540  151.4320 N   0  0  0  0  0  2  0  0  0  0  0  0
  161.9590  208.7770  151.3180 C   0  0  0  0  0  0  0  0  0  0  0  0
  162.2860  209.3050  150.2210 O   0  0  0  0  0  0  0  0  0  0  0  0
  160.6500  209.7720  154.7440 C   0  0  0  0  0  2  0  0  0  0  0  0
  160.8820  208.8870  153.5380 C   0  0  2  0  0  3  0  0  0  0  0  0
  161.7120  209.6370  152.5130 C   0  0  2  0  0  3  0  0  0  0  0  0
  160.2280  209.9230  152.6510 C   0  0  2  0  0  3  0  0  0  0  0  0
  159.9940  210.8090  153.8570 C   0  0  0  0  0  2  0  0  0  0  0  0
  160.4020  206.4540  148.6020 O   0  0  0  0  0  0  0  0  0  0  0  0
  161.3610  207.2670  148.1930 O   0  0  0  0  0  0  0  0  0  0  0  0
  161.7160  206.7930  146.9260 C   0  0  1  0  0  3  0  0  0  0  0  0
  162.7380  205.8510  147.0400 O   0  0  0  0  0  1  0  0  0  0  0  0
  160.5030  206.1950  146.2170 C   0  0  0  0  0  2  0  0  0  0  0  0
  160.8390  205.6360  144.8370 C   0  0  0  0  0  2  0  0  0  0  0  0
  161.5340  203.2830  145.4390 N   0  0  0  0  0  1  0  0  0  0  0  0
  159.6290  203.6920  144.1740 O   0  0  0  0  0  0  0  0  0  0  0  0
  160.6220  204.1610  144.7880 C   0  0  0  0  0  0  0  0  0  0  0  0
  1 19  1  6  0  0  0
  1 10  1  0  0  0  0
  2  7  1  0  0  0  0
  3  5  1  1  0  0  0
  4  1  1  6  0  0  0
  4  3  1  0  0  0  0
  6  8  2  0  0  0  0
  6  4  1  0  0  0  0
  7  3  1  0  0  0  0
  7  9  2  0  0  0  0
  8  2  1  0  0  0  0
 10 11  1  0  0  0  0
 12 11  1  0  0  0  0
 13 12  2  0  0  0  0
 15 14  1  1  0  0  0
 16 12  1  6  0  0  0
 16 17  1  0  0  0  0
 16 15  1  0  0  0  0
 17 15  1  0  0  0  0
 17 18  1  1  0  0  0
 18 14  1  0  0  0  0
 20 19  1  0  0  0  0
 21 22  1  1  0  0  0
 21 20  1  0  0  0  0
 23 21  1  0  0  0  0
 24 23  1  0  0  0  0
 26 27  2  0  0  0  0
 27 24  1  0  0  0  0
 27 25  1  0  0  0  0
M  END
>  <MODEL>
4

>  <REMARK>
 VINA RESULT:      -7.0      1.925      6.037
  Name = 
  10 active torsions:
  status: ('A' for Active; 'I' for Inactive)
    1  A    between atoms: C_2  and  O_11
    2  A    between atoms: C_2  and  C_14
    3  A    between atoms: C_4  and  C_14
    4  A    between atoms: C_4  and  C_18
    5  A    between atoms: C_5  and  C_23
    6  A    between atoms: O_11  and  O_24
    7  A    between atoms: N_17  and  N_21
    8  A    between atoms: C_19  and  C_25
    9  A    between atoms: N_21  and  C_23
   10  A    between atoms: C_23  and  O_24
                            x       y       z     vdW  Elec       q    Type
                         _______ _______ _______ _____ _____    ______ ____

>  <TORSDO>
F 10

$$$$
=
 OpenBabel11042420473D

 27 29  0  0  1  0  0  0  0  0999 V2000
  161.9060  207.3610  151.5990 C   0  0  1  0  0  3  0  0  0  0  0  0
  161.0970  210.3400  154.6790 C   0  0  0  0  0  2  0  0  0  0  0  0
  160.8170  207.8790  153.8290 C   0  0  1  0  0  3  0  0  0  0  0  0
  161.8490  208.3390  152.7800 C   0  0  2  0  0  3  0  0  0  0  0  0
  161.3550  206.6720  154.5800 C   0  0  0  0  0  1  0  0  0  0  0  0
  161.6060  209.7630  152.3360 C   0  0  0  0  0  3  0  0  0  0  0  0
  160.4660  208.9810  154.8040 C   0  0  0  0  0  0  0  0  0  0  0  0
  161.2570  210.6970  153.2290 C   0  0  0  0  0  3  0  0  0  0  0  0
  159.6570  208.7750  155.6960 O   0  0  0  0  0  0  0  0  0  0  0  0
  160.7410  206.4780  151.5410 N   0  0  0  0  0  2  0  0  0  0  0  0
  161.0930  205.3710  150.7530 N   0  0  0  0  0  2  0  0  0  0  0  0
  161.0490  204.0370  151.2670 C   0  0  0  0  0  0  0  0  0  0  0  0
  160.7590  203.8320  152.4770 O   0  0  0  0  0  0  0  0  0  0  0  0
  161.3050  201.9920  148.0740 C   0  0  0  0  0  2  0  0  0  0  0  0
  160.9410  203.1660  148.9580 C   0  0  2  0  0  3  0  0  0  0  0  0
  161.3920  202.8860  150.3800 C   0  0  2  0  0  3  0  0  0  0  0  0
  160.1240  202.2480  149.8410 C   0  0  2  0  0  3  0  0  0  0  0  0
  160.4860  201.0740  148.9560 C   0  0  0  0  0  2  0  0  0  0  0  0
  162.1520  208.0030  150.3670 O   0  0  0  0  0  0  0  0  0  0  0  0
  161.0730  207.8500  149.6190 O   0  0  0  0  0  0  0  0  0  0  0  0
  161.5410  207.8900  148.3020 C   0  0  1  0  0  3  0  0  0  0  0  0
  162.9350  207.9290  148.2950 O   0  0  0  0  0  1  0  0  0  0  0  0
  161.0260  206.6900  147.5130 C   0  0  0  0  0  2  0  0  0  0  0  0
  162.1450  205.8970  146.8420 C   0  0  0  0  0  2  0  0  0  0  0  0
  160.6180  205.7690  144.8350 N   0  0  0  0  0  1  0  0  0  0  0  0
  162.1450  204.0810  145.2990 O   0  0  0  0  0  0  0  0  0  0  0  0
  161.6490  205.1900  145.6270 C   0  0  0  0  0  0  0  0  0  0  0  0
  1 19  1  6  0  0  0
  2  7  1  0  0  0  0
  3  5  1  1  0  0  0
  3  7  1  0  0  0  0
  4  1  1  6  0  0  0
  4  3  1  0  0  0  0
  6  4  1  0  0  0  0
  6  8  2  0  0  0  0
  7  9  2  0  0  0  0
  8  2  1  0  0  0  0
 10  1  1  0  0  0  0
 11 12  1  0  0  0  0
 11 10  1  0  0  0  0
 12 13  2  0  0  0  0
 14 18  1  0  0  0  0
 15 14  1  6  0  0  0
 15 17  1  0  0  0  0
 15 16  1  0  0  0  0
 16 12  1  1  0  0  0
 17 18  1  6  0  0  0
 17 16  1  0  0  0  0
 20 19  1  0  0  0  0
 21 22  1  1  0  0  0
 21 20  1  0  0  0  0
 23 21  1  0  0  0  0
 24 23  1  0  0  0  0
 25 27  1  0  0  0  0
 26 27  2  0  0  0  0
 27 24  1  0  0  0  0
M  END
>  <MODEL>
5

>  <REMARK>
 VINA RESULT:      -6.8      1.081      1.906
  Name = 
  10 active torsions:
  status: ('A' for Active; 'I' for Inactive)
    1  A    between atoms: C_2  and  O_11
    2  A    between atoms: C_2  and  C_14
    3  A    between atoms: C_4  and  C_14
    4  A    between atoms: C_4  and  C_18
    5  A    between atoms: C_5  and  C_23
    6  A    between atoms: O_11  and  O_24
    7  A    between atoms: N_17  and  N_21
    8  A    between atoms: C_19  and  C_25
    9  A    between atoms: N_21  and  C_23
   10  A    between atoms: C_23  and  O_24
                            x       y       z     vdW  Elec       q    Type
                         _______ _______ _______ _____ _____    ______ ____

>  <TORSDO>
F 10

$$$$
=
 OpenBabel11042420473D

 27 29  0  0  1  0  0  0  0  0999 V2000
  161.3990  208.1380  150.8020 C   0  0  1  0  0  3  0  0  0  0  0  0
  160.4780  206.9540  154.8960 C   0  0  0  0  0  2  0  0  0  0  0  0
  161.0340  208.8700  153.2000 C   0  0  1  0  0  3  0  0  0  0  0  0
  160.8290  207.7420  152.1700 C   0  0  2  0  0  3  0  0  0  0  0  0
  160.0820  210.0170  152.8990 C   0  0  0  0  0  1  0  0  0  0  0  0
  161.3780  206.4220  152.6630 C   0  0  0  0  0  3  0  0  0  0  0  0
  160.8300  208.3890  154.6210 C   0  0  0  0  0  0  0  0  0  0  0  0
  161.2090  206.0560  153.9380 C   0  0  0  0  0  3  0  0  0  0  0  0
  160.9590  209.1650  155.5550 O   0  0  0  0  0  0  0  0  0  0  0  0
  162.6100  208.9520  150.9080 N   0  0  0  0  0  2  0  0  0  0  0  0
  162.2650  210.2630  150.5470 N   0  0  0  0  0  2  0  0  0  0  0  0
  161.9860  210.6220  149.1900 C   0  0  0  0  0  0  0  0  0  0  0  0
  162.1160  209.7710  148.2690 O   0  0  0  0  0  0  0  0  0  0  0  0
  161.0990  213.6250  147.0380 C   0  0  0  0  0  2  0  0  0  0  0  0
  161.5180  212.2050  147.3530 C   0  0  2  0  0  3  0  0  0  0  0  0
  161.5820  212.0200  148.8580 C   0  0  2  0  0  3  0  0  0  0  0  0
  162.7080  212.7280  148.1270 C   0  0  2  0  0  3  0  0  0  0  0  0
  162.2910  214.1480  147.8100 C   0  0  0  0  0  2  0  0  0  0  0  0
  161.5720  207.0340  149.9400 O   0  0  0  0  0  0  0  0  0  0  0  0
  160.4840  206.9380  149.1970 O   0  0  0  0  0  0  0  0  0  0  0  0
  160.7770  205.9430  148.2590 C   0  0  1  0  0  3  0  0  0  0  0  0
  161.8320  206.3550  147.4440 O   0  0  0  0  0  1  0  0  0  0  0  0
  161.1110  204.6280  148.9580 C   0  0  0  0  0  2  0  0  0  0  0  0
  161.3470  203.4800  147.9790 C   0  0  0  0  0  2  0  0  0  0  0  0
  160.0960  202.1630  149.7350 N   0  0  0  0  0  1  0  0  0  0  0  0
  161.2060  201.1010  147.9920 O   0  0  0  0  0  0  0  0  0  0  0  0
  160.8910  202.1820  148.5540 C   0  0  0  0  0  0  0  0  0  0  0  0
  1 19  1  6  0  0  0
  1 10  1  0  0  0  0
  3  5  1  6  0  0  0
  3  7  1  0  0  0  0
  4  1  1  6  0  0  0
  4  6  1  0  0  0  0
  4  3  1  0  0  0  0
  6  8  2  0  0  0  0
  7  2  1  0  0  0  0
  7  9  2  0  0  0  0
  8  2  1  0  0  0  0
 11 10  1  0  0  0  0
 12 11  1  0  0  0  0
 13 12  2  0  0  0  0
 14 18  1  0  0  0  0
 15 14  1  1  0  0  0
 15 17  1  0  0  0  0
 15 16  1  0  0  0  0
 16 12  1  6  0  0  0
 17 18  1  1  0  0  0
 17 16  1  0  0  0  0
 20 19  1  0  0  0  0
 21 22  1  1  0  0  0
 21 23  1  0  0  0  0
 21 20  1  0  0  0  0
 24 27  1  0  0  0  0
 24 23  1  0  0  0  0
 26 27  2  0  0  0  0
 27 25  1  0  0  0  0
M  END
>  <MODEL>
6

>  <REMARK>
 VINA RESULT:      -6.7      2.823      5.647
  Name = 
  10 active torsions:
  status: ('A' for Active; 'I' for Inactive)
    1  A    between atoms: C_2  and  O_11
    2  A    between atoms: C_2  and  C_14
    3  A    between atoms: C_4  and  C_14
    4  A    between atoms: C_4  and  C_18
    5  A    between atoms: C_5  and  C_23
    6  A    between atoms: O_11  and  O_24
    7  A    between atoms: N_17  and  N_21
    8  A    between atoms: C_19  and  C_25
    9  A    between atoms: N_21  and  C_23
   10  A    between atoms: C_23  and  O_24
                            x       y       z     vdW  Elec       q    Type
                         _______ _______ _______ _____ _____    ______ ____

>  <TORSDO>
F 10

$$$$
=
 OpenBabel11042420473D

 27 29  0  0  1  0  0  0  0  0999 V2000
  161.1940  205.4520  150.6410 C   0  0  1  0  0  3  0  0  0  0  0  0
  160.6480  201.5060  148.8680 C   0  0  0  0  0  2  0  0  0  0  0  0
  161.2040  202.9410  150.9860 C   0  0  1  0  0  3  0  0  0  0  0  0
  160.7530  204.0970  150.0720 C   0  0  2  0  0  3  0  0  0  0  0  0
  160.3560  202.9260  152.2480 C   0  0  0  0  0  1  0  0  0  0  0  0
  161.2070  203.8970  148.6440 C   0  0  0  0  0  3  0  0  0  0  0  0
  161.1210  201.5990  150.2910 C   0  0  0  0  0  0  0  0  0  0  0  0
  161.1530  202.6830  148.0830 C   0  0  0  0  0  3  0  0  0  0  0  0
  161.4470  200.5820  150.8830 O   0  0  0  0  0  0  0  0  0  0  0  0
  162.0590  205.3180  151.8120 N   0  0  0  0  0  2  0  0  0  0  0  0
  161.3490  205.8130  152.9160 N   0  0  0  0  0  2  0  0  0  0  0  0
  161.2580  207.2150  153.1850 C   0  0  0  0  0  0  0  0  0  0  0  0
  161.8840  208.0410  152.4670 O   0  0  0  0  0  0  0  0  0  0  0  0
  159.9580  209.6230  155.8210 C   0  0  0  0  0  2  0  0  0  0  0  0
  160.7870  209.1500  154.6460 C   0  0  2  0  0  3  0  0  0  0  0  0
  160.4560  207.6990  154.3480 C   0  0  2  0  0  3  0  0  0  0  0  0
  161.3750  208.0510  155.5040 C   0  0  2  0  0  3  0  0  0  0  0  0
  160.5480  208.5250  156.6800 C   0  0  0  0  0  2  0  0  0  0  0  0
  161.7490  206.3030  149.6610 O   0  0  0  0  0  0  0  0  0  0  0  0
  160.8310  207.2020  149.3530 O   0  0  0  0  0  0  0  0  0  0  0  0
  161.3650  207.8990  148.2640 C   0  0  1  0  0  3  0  0  0  0  0  0
  162.3290  208.8050  148.7050 O   0  0  0  0  0  1  0  0  0  0  0  0
  161.9570  206.9290  147.2440 C   0  0  0  0  0  2  0  0  0  0  0  0
  160.9090  206.3610  146.2900 C   0  0  0  0  0  2  0  0  0  0  0  0
  162.8310  204.8660  145.6180 N   0  0  0  0  0  1  0  0  0  0  0  0
  160.8300  204.8620  144.4390 O   0  0  0  0  0  0  0  0  0  0  0  0
  161.5030  205.3290  145.3930 C   0  0  0  0  0  0  0  0  0  0  0  0
  1 19  1  6  0  0  0
  1 10  1  0  0  0  0
  2  7  1  0  0  0  0
  3  5  1  1  0  0  0
  4  1  1  1  0  0  0
  4  3  1  0  0  0  0
  6  4  1  0  0  0  0
  7  9  2  0  0  0  0
  7  3  1  0  0  0  0
  8  6  2  0  0  0  0
  8  2  1  0  0  0  0
 10 11  1  0  0  0  0
 11 12  1  0  0  0  0
 13 12  2  0  0  0  0
 14 18  1  0  0  0  0
 15 17  1  0  0  0  0
 15 14  1  1  0  0  0
 16 12  1  6  0  0  0
 16 15  1  0  0  0  0
 16 17  1  0  0  0  0
 17 18  1  1  0  0  0
 20 19  1  0  0  0  0
 21 22  1  1  0  0  0
 21 20  1  0  0  0  0
 23 21  1  0  0  0  0
 24 23  1  0  0  0  0
 26 27  2  0  0  0  0
 27 25  1  0  0  0  0
 27 24  1  0  0  0  0
M  END
>  <MODEL>
7

>  <REMARK>
 VINA RESULT:      -6.4      1.630      6.225
  Name = 
  10 active torsions:
  status: ('A' for Active; 'I' for Inactive)
    1  A    between atoms: C_2  and  O_11
    2  A    between atoms: C_2  and  C_14
    3  A    between atoms: C_4  and  C_14
    4  A    between atoms: C_4  and  C_18
    5  A    between atoms: C_5  and  C_23
    6  A    between atoms: O_11  and  O_24
    7  A    between atoms: N_17  and  N_21
    8  A    between atoms: C_19  and  C_25
    9  A    between atoms: N_21  and  C_23
   10  A    between atoms: C_23  and  O_24
                            x       y       z     vdW  Elec       q    Type
                         _______ _______ _______ _____ _____    ______ ____

>  <TORSDO>
F 10

$$$$
=
 OpenBabel11042420473D

 27 29  0  0  1  0  0  0  0  0999 V2000
  161.2780  205.9240  149.2280 C   0  0  1  0  0  3  0  0  0  0  0  0
  161.5810  202.4220  146.6470 C   0  0  0  0  0  2  0  0  0  0  0  0
  161.1900  205.0020  146.8690 C   0  0  1  0  0  3  0  0  0  0  0  0
  161.6370  204.7400  148.3200 C   0  0  2  0  0  3  0  0  0  0  0  0
  162.1000  206.0400  146.2330 C   0  0  0  0  0  1  0  0  0  0  0  0
  161.1030  203.4280  148.8470 C   0  0  0  0  0  3  0  0  0  0  0  0
  161.1860  203.7380  146.0370 C   0  0  0  0  0  0  0  0  0  0  0  0
  161.0810  202.3450  148.0620 C   0  0  0  0  0  3  0  0  0  0  0  0
  160.8520  203.7790  144.8630 O   0  0  0  0  0  0  0  0  0  0  0  0
  160.4620  205.5280  150.3750 N   0  0  0  0  0  2  0  0  0  0  0  0
  160.8180  206.3570  151.4490 N   0  0  0  0  0  2  0  0  0  0  0  0
  161.1970  205.8210  152.7210 C   0  0  0  0  0  0  0  0  0  0  0  0
  161.1460  204.5780  152.9260 O   0  0  0  0  0  0  0  0  0  0  0  0
  160.9050  207.8680  155.9090 C   0  0  0  0  0  2  0  0  0  0  0  0
  160.4630  206.9420  154.7970 C   0  0  2  0  0  3  0  0  0  0  0  0
  161.6100  206.7400  153.8230 C   0  0  2  0  0  3  0  0  0  0  0  0
  160.7840  208.0120  153.7770 C   0  0  2  0  0  3  0  0  0  0  0  0
  161.2230  208.9410  154.8900 C   0  0  0  0  0  2  0  0  0  0  0  0
  162.4040  206.6830  149.6100 O   0  0  0  0  0  0  0  0  0  0  0  0
  162.5380  207.6610  148.7320 O   0  0  0  0  0  0  0  0  0  0  0  0
  161.8460  208.7400  149.2900 C   0  0  1  0  0  3  0  0  0  0  0  0
  162.3370  209.0110  150.5660 O   0  0  0  0  0  1  0  0  0  0  0  0
  161.9580  209.9710  148.3920 C   0  0  0  0  0  2  0  0  0  0  0  0
  161.9670  211.2790  149.1790 C   0  0  0  0  0  2  0  0  0  0  0  0
  161.2660  213.4770  148.1520 N   0  0  0  0  0  1  0  0  0  0  0  0
  163.3160  212.5090  147.6470 O   0  0  0  0  0  0  0  0  0  0  0  0
  162.2330  212.4410  148.2840 C   0  0  0  0  0  0  0  0  0  0  0  0
  1 19  1  1  0  0  0
  1 10  1  0  0  0  0
  2  8  1  0  0  0  0
  3  5  1  6  0  0  0
  3  4  1  0  0  0  0
  4  6  1  0  0  0  0
  4  1  1  1  0  0  0
  7  2  1  0  0  0  0
  7  3  1  0  0  0  0
  8  6  2  0  0  0  0
  9  7  2  0  0  0  0
 10 11  1  0  0  0  0
 11 12  1  0  0  0  0
 12 13  2  0  0  0  0
 15 14  1  1  0  0  0
 16 12  1  6  0  0  0
 16 15  1  0  0  0  0
 17 16  1  0  0  0  0
 17 15  1  0  0  0  0
 17 18  1  1  0  0  0
 18 14  1  0  0  0  0
 20 21  1  0  0  0  0
 20 19  1  0  0  0  0
 21 22  1  1  0  0  0
 23 24  1  0  0  0  0
 23 21  1  0  0  0  0
 25 27  1  0  0  0  0
 26 27  2  0  0  0  0
 27 24  1  0  0  0  0
M  END
>  <MODEL>
8

>  <REMARK>
 VINA RESULT:      -6.4      2.275      6.807
  Name = 
  10 active torsions:
  status: ('A' for Active; 'I' for Inactive)
    1  A    between atoms: C_2  and  O_11
    2  A    between atoms: C_2  and  C_14
    3  A    between atoms: C_4  and  C_14
    4  A    between atoms: C_4  and  C_18
    5  A    between atoms: C_5  and  C_23
    6  A    between atoms: O_11  and  O_24
    7  A    between atoms: N_17  and  N_21
    8  A    between atoms: C_19  and  C_25
    9  A    between atoms: N_21  and  C_23
   10  A    between atoms: C_23  and  O_24
                            x       y       z     vdW  Elec       q    Type
                         _______ _______ _______ _____ _____    ______ ____

>  <TORSDO>
F 10

$$$$
=
 OpenBabel11042420473D

 27 29  0  0  1  0  0  0  0  0999 V2000
  162.1510  208.8310  150.1280 C   0  0  1  0  0  3  0  0  0  0  0  0
  160.9260  208.2950  154.2780 C   0  0  0  0  0  2  0  0  0  0  0  0
  161.5350  207.2080  151.9750 C   0  0  1  0  0  3  0  0  0  0  0  0
  161.9720  208.6480  151.6410 C   0  0  2  0  0  3  0  0  0  0  0  0
  162.7080  206.2610  151.7850 C   0  0  0  0  0  1  0  0  0  0  0  0
  161.0370  209.6750  152.2380 C   0  0  0  0  0  3  0  0  0  0  0  0
  160.9960  207.0890  153.3840 C   0  0  0  0  0  0  0  0  0  0  0  0
  160.5520  209.5070  153.4740 C   0  0  0  0  0  3  0  0  0  0  0  0
  160.6040  206.0090  153.8000 O   0  0  0  0  0  0  0  0  0  0  0  0
  161.0490  208.2590  149.3550 N   0  0  0  0  0  2  0  0  0  0  0  0
  161.5880  207.2520  148.5390 N   0  0  0  0  0  2  0  0  0  0  0  0
  161.0340  205.9340  148.5060 C   0  0  0  0  0  0  0  0  0  0  0  0
  160.0830  205.6250  149.2740 O   0  0  0  0  0  0  0  0  0  0  0  0
  163.0960  204.5070  145.6510 C   0  0  0  0  0  2  0  0  0  0  0  0
  162.5120  205.5660  146.5620 C   0  0  2  0  0  3  0  0  0  0  0  0
  161.6130  204.9060  147.5910 C   0  0  2  0  0  3  0  0  0  0  0  0
  161.1160  205.1300  146.1750 C   0  0  2  0  0  3  0  0  0  0  0  0
  161.6990  204.0730  145.2610 C   0  0  0  0  0  2  0  0  0  0  0  0
  162.4200  210.1680  149.7660 O   0  0  0  0  0  0  0  0  0  0  0  0
  161.8770  210.3730  148.5790 O   0  0  0  0  0  0  0  0  0  0  0  0
  161.9600  211.7550  148.3800 C   0  0  1  0  0  3  0  0  0  0  0  0
  163.2720  212.1130  148.0730 O   0  0  0  0  0  1  0  0  0  0  0  0
  161.0020  212.1970  147.2770 C   0  0  0  0  0  2  0  0  0  0  0  0
  161.5050  213.4180  146.5110 C   0  0  0  0  0  2  0  0  0  0  0  0
  163.0500  213.3290  144.5140 N   0  0  0  0  0  1  0  0  0  0  0  0
  160.8550  212.5830  144.3760 O   0  0  0  0  0  0  0  0  0  0  0  0
  161.7670  213.0850  145.0810 C   0  0  0  0  0  0  0  0  0  0  0  0
  1 10  1  6  0  0  0
  3  5  1  1  0  0  0
  3  7  1  0  0  0  0
  4  1  1  6  0  0  0
  4  3  1  0  0  0  0
  4  6  1  0  0  0  0
  6  8  2  0  0  0  0
  7  9  2  0  0  0  0
  7  2  1  0  0  0  0
  8  2  1  0  0  0  0
 11 10  1  0  0  0  0
 12 11  1  0  0  0  0
 12 13  2  0  0  0  0
 15 14  1  6  0  0  0
 15 16  1  0  0  0  0
 16 12  1  1  0  0  0
 17 18  1  6  0  0  0
 17 15  1  0  0  0  0
 17 16  1  0  0  0  0
 18 14  1  0  0  0  0
 19  1  1  0  0  0  0
 20 19  1  0  0  0  0
 21 22  1  6  0  0  0
 21 20  1  0  0  0  0
 23 21  1  0  0  0  0
 24 23  1  0  0  0  0
 25 27  1  0  0  0  0
 26 27  2  0  0  0  0
 27 24  1  0  0  0  0
M  END
>  <MODEL>
9

>  <REMARK>
 VINA RESULT:      -6.4      3.071      4.382
  Name = 
  10 active torsions:
  status: ('A' for Active; 'I' for Inactive)
    1  A    between atoms: C_2  and  O_11
    2  A    between atoms: C_2  and  C_14
    3  A    between atoms: C_4  and  C_14
    4  A    between atoms: C_4  and  C_18
    5  A    between atoms: C_5  and  C_23
    6  A    between atoms: O_11  and  O_24
    7  A    between atoms: N_17  and  N_21
    8  A    between atoms: C_19  and  C_25
    9  A    between atoms: N_21  and  C_23
   10  A    between atoms: C_23  and  O_24
                            x       y       z     vdW  Elec       q    Type
                         _______ _______ _______ _____ _____    ______ ____

>  <TORSDO>
F 10

$$$$
