=
 OpenBabel11042423073D

 37 40  0  0  1  0  0  0  0  0999 V2000
  161.0450  207.2930  153.7890 C   0  0  0  0  0  0  0  0  0  0  0  0
  160.7640  207.9550  152.5660 C   0  0  0  0  0  0  0  0  0  0  0  0
  161.1310  205.1710  152.6140 C   0  0  0  0  0  3  0  0  0  0  0  0
  161.2270  205.9080  153.7960 C   0  0  0  0  0  3  0  0  0  0  0  0
  160.6680  207.2010  151.3910 C   0  0  0  0  0  3  0  0  0  0  0  0
  160.8360  205.8100  151.4070 C   0  0  0  0  0  0  0  0  0  0  0  0
  162.3130  206.9600  148.9800 Cl  0  0  0  0  0  0  0  0  0  0  0  0
  161.4060  205.4510  149.0330 C   0  0  0  0  0  0  0  0  0  0  0  0
  160.1590  202.6670  149.5100 C   0  0  0  0  0  3  0  0  0  0  0  0
  161.7560  203.3650  147.7570 C   0  0  0  0  0  3  0  0  0  0  0  0
  161.2250  204.7600  147.7220 C   0  0  0  0  0  2  0  0  0  0  0  0
  161.2530  202.4220  148.5520 C   0  0  0  0  0  0  0  0  0  0  0  0
  159.9510  203.7980  150.1970 C   0  0  0  0  0  3  0  0  0  0  0  0
  160.7780  205.0300  150.1550 C   0  0  0  0  0  0  0  0  0  0  0  0
  161.8630  200.7900  148.3920 Cl  0  0  0  0  0  0  0  0  0  0  0  0
  160.7630  207.1750  156.7440 O   0  0  0  0  0  0  0  0  0  0  0  0
  159.7800  208.0600  156.4790 C   0  0  0  0  0  1  0  0  0  0  0  0
  161.1900  208.1450  155.3640 P   0  0  1  0  0  0  0  0  0  0  0  0
  163.5060  210.8980  157.1600 C   0  0  0  0  0  1  0  0  0  0  0  0
  162.4260  209.3900  155.7100 C   0  0  0  0  0  3  0  0  0  0  0  0
  162.5090  209.9030  156.8810 N   0  0  0  0  0  0  0  0  0  0  0  0
  160.5850  209.4390  152.4270 C   0  0  2  0  0  3  0  0  0  0  0  0
  162.1480  210.7040  150.5240 C   0  0  0  0  0  0  0  0  0  0  0  0
  161.8730  211.3210  149.0390 S   0  0  0  0  0  0  0  0  0  0  0  0
  163.0230  210.4510  151.6060 N   0  0  0  0  0  2  0  0  0  0  0  0
  161.6800  210.0340  151.6790 N   0  0  0  0  0  0  0  0  0  0  0  0
  160.3910  210.1310  153.7740 C   0  0  2  0  0  3  0  0  0  0  0  0
  159.3540  211.1960  153.7660 C   0  0  1  0  0  0  0  0  0  0  0  0
  160.7230  211.4990  153.6640 O   0  0  0  0  0  0  0  0  0  0  0  0
  158.9640  212.5020  151.8360 O   0  0  0  0  0  0  0  0  0  0  0  0
  158.6140  211.5470  152.5080 C   0  0  0  0  0  3  0  0  0  0  0  0
  158.7800  211.5830  155.1240 C   0  0  0  0  0  2  0  0  0  0  0  0
  157.9140  212.8350  155.0410 C   0  0  0  0  0  2  0  0  0  0  0  0
  156.4480  212.5140  155.3020 C   0  0  1  0  0  3  0  0  0  0  0  0
  155.6240  212.9750  154.1960 N   0  0  0  0  0  1  0  0  0  0  0  0
  155.2660  210.5210  154.6620 O   0  0  0  0  0  1  0  0  0  0  0  0
  156.2540  211.0200  155.5140 C   0  0  0  0  0  2  0  0  0  0  0  0
  1  4  1  0  0  0  0
  1 18  1  0  0  0  0
  2  1  2  0  0  0  0
  3  4  2  0  0  0  0
  5  6  2  0  0  0  0
  5  2  1  0  0  0  0
  6  3  1  0  0  0  0
  7  8  1  0  0  0  0
  8 14  2  0  0  0  0
  9 13  2  0  0  0  0
 10 12  2  0  0  0  0
 11 10  1  0  0  0  0
 11  8  1  0  0  0  0
 12  9  1  0  0  0  0
 14 13  1  0  0  0  0
 14  6  1  0  0  0  0
 15 12  1  0  0  0  0
 17 16  1  0  0  0  0
 18 20  1  1  0  0  0
 18 16  1  0  0  0  0
 20 21  2  0  0  0  0
 21 19  1  0  0  0  0
 22  2  1  1  0  0  0
 23 25  1  0  0  0  0
 23 26  1  0  0  0  0
 24 23  2  0  0  0  0
 25 26  1  0  0  0  0
 26 22  1  0  0  0  0
 27 22  1  6  0  0  0
 28 31  1  6  0  0  0
 28 27  1  0  0  0  0
 28 32  1  0  0  0  0
 29 28  1  0  0  0  0
 29 27  1  0  0  0  0
 30 31  2  0  0  0  0
 33 32  1  0  0  0  0
 33 34  1  0  0  0  0
 34 35  1  6  0  0  0
 34 37  1  0  0  0  0
 36 37  1  0  0  0  0
M  END
>  <MODEL>
1

>  <REMARK>
 VINA RESULT:      -6.8      0.000      0.000
  Name = 
  11 active torsions:
  status: ('A' for Active; 'I' for Inactive)
    1  A    between atoms: C_2  and  P_36
    2  A    between atoms: C_3  and  C_20
    3  A    between atoms: C_6  and  C_20
    4  A    between atoms: C_14  and  P_36
    5  A    between atoms: C_16  and  CA_24
    6  A    between atoms: C_16  and  C_25
    7  A    between atoms: C_20  and  N_28
    8  A    between atoms: CA_24  and  C_31
    9  A    between atoms: C_25  and  C_34
   10  A    between atoms: C_26  and  C_33
   11  A    between atoms: C_30  and  C_34
                            x       y       z     vdW  Elec       q    Type
                         _______ _______ _______ _____ _____    ______ ____

>  <TORSDO>
F 11

$$$$
=
 OpenBabel11042423073D

 37 40  0  0  1  0  0  0  0  0999 V2000
  161.0310  207.2940  153.3510 C   0  0  0  0  0  0  0  0  0  0  0  0
  160.8510  208.0580  152.1690 C   0  0  0  0  0  0  0  0  0  0  0  0
  161.5300  205.3390  152.0020 C   0  0  0  0  0  3  0  0  0  0  0  0
  161.3720  205.9430  153.2500 C   0  0  0  0  0  3  0  0  0  0  0  0
  161.0110  207.4370  150.9250 C   0  0  0  0  0  3  0  0  0  0  0  0
  161.3370  206.0780  150.8320 C   0  0  0  0  0  0  0  0  0  0  0  0
  160.4340  203.1650  150.5300 Cl  0  0  0  0  0  0  0  0  0  0  0  0
  161.1740  204.1640  149.2830 C   0  0  0  0  0  0  0  0  0  0  0  0
  162.0550  206.2380  147.1710 C   0  0  0  0  0  3  0  0  0  0  0  0
  160.8720  204.0940  146.8330 C   0  0  0  0  0  3  0  0  0  0  0  0
  161.5250  203.4590  148.0140 C   0  0  0  0  0  2  0  0  0  0  0  0
  161.1340  205.3420  146.4480 C   0  0  0  0  0  0  0  0  0  0  0  0
  162.2380  206.2750  148.4980 C   0  0  0  0  0  3  0  0  0  0  0  0
  161.5490  205.4430  149.5160 C   0  0  0  0  0  0  0  0  0  0  0  0
  160.4160  205.9200  144.9600 Cl  0  0  0  0  0  0  0  0  0  0  0  0
  160.4100  206.8010  156.2130 O   0  0  0  0  0  0  0  0  0  0  0  0
  159.3440  207.5660  155.9010 C   0  0  0  0  0  1  0  0  0  0  0  0
  160.8500  207.9720  155.0040 P   0  0  1  0  0  0  0  0  0  0  0  0
  163.2300  210.3020  157.2580 C   0  0  0  0  0  1  0  0  0  0  0  0
  161.8300  209.3290  155.6350 C   0  0  0  0  0  3  0  0  0  0  0  0
  162.4380  209.2130  156.7560 N   0  0  0  0  0  0  0  0  0  0  0  0
  160.5200  209.5230  152.1490 C   0  0  2  0  0  3  0  0  0  0  0  0
  161.8440  211.2120  150.4010 C   0  0  0  0  0  0  0  0  0  0  0  0
  161.3840  212.1820  149.1710 S   0  0  0  0  0  0  0  0  0  0  0  0
  162.8560  210.6910  151.2420 N   0  0  0  0  0  2  0  0  0  0  0  0
  161.5200  210.2790  151.4120 N   0  0  0  0  0  0  0  0  0  0  0  0
  160.3130  210.0920  153.5500 C   0  0  2  0  0  3  0  0  0  0  0  0
  159.3010  211.1790  153.6210 C   0  0  1  0  0  0  0  0  0  0  0  0
  160.6780  211.4570  153.5740 O   0  0  0  0  0  0  0  0  0  0  0  0
  158.8800  212.7420  151.8990 O   0  0  0  0  0  0  0  0  0  0  0  0
  158.5950  211.6620  152.3870 C   0  0  0  0  0  3  0  0  0  0  0  0
  158.7070  211.4530  154.9980 C   0  0  0  0  0  2  0  0  0  0  0  0
  157.9630  212.7830  155.0430 C   0  0  0  0  0  2  0  0  0  0  0  0
  156.4670  212.5750  155.2380 C   0  0  1  0  0  3  0  0  0  0  0  0
  155.7170  213.3350  154.2500 N   0  0  0  0  0  1  0  0  0  0  0  0
  155.2710  210.7210  156.1940 O   0  0  0  0  0  1  0  0  0  0  0  0
  156.1110  211.0990  155.1440 C   0  0  0  0  0  2  0  0  0  0  0  0
  1 18  1  0  0  0  0
  2  1  2  0  0  0  0
  3  4  2  0  0  0  0
  4  1  1  0  0  0  0
  5  2  1  0  0  0  0
  6  5  2  0  0  0  0
  6  3  1  0  0  0  0
  8 14  2  0  0  0  0
  8  7  1  0  0  0  0
  9 13  2  0  0  0  0
 10 11  1  0  0  0  0
 11  8  1  0  0  0  0
 12 10  2  0  0  0  0
 12  9  1  0  0  0  0
 13 14  1  0  0  0  0
 14  6  1  0  0  0  0
 15 12  1  0  0  0  0
 17 16  1  0  0  0  0
 18 20  1  1  0  0  0
 18 16  1  0  0  0  0
 20 21  2  0  0  0  0
 21 19  1  0  0  0  0
 22  2  1  1  0  0  0
 23 25  1  0  0  0  0
 23 26  1  0  0  0  0
 24 23  2  0  0  0  0
 25 26  1  0  0  0  0
 26 22  1  0  0  0  0
 27 22  1  6  0  0  0
 27 29  1  0  0  0  0
 27 28  1  0  0  0  0
 28 31  1  6  0  0  0
 28 32  1  0  0  0  0
 29 28  1  0  0  0  0
 30 31  2  0  0  0  0
 32 33  1  0  0  0  0
 33 34  1  0  0  0  0
 34 35  1  6  0  0  0
 37 34  1  0  0  0  0
 37 36  1  0  0  0  0
M  END
>  <MODEL>
2

>  <REMARK>
 VINA RESULT:      -6.5      1.200      1.849
  Name = 
  11 active torsions:
  status: ('A' for Active; 'I' for Inactive)
    1  A    between atoms: C_2  and  P_36
    2  A    between atoms: C_3  and  C_20
    3  A    between atoms: C_6  and  C_20
    4  A    between atoms: C_14  and  P_36
    5  A    between atoms: C_16  and  CA_24
    6  A    between atoms: C_16  and  C_25
    7  A    between atoms: C_20  and  N_28
    8  A    between atoms: CA_24  and  C_31
    9  A    between atoms: C_25  and  C_34
   10  A    between atoms: C_26  and  C_33
   11  A    between atoms: C_30  and  C_34
                            x       y       z     vdW  Elec       q    Type
                         _______ _______ _______ _____ _____    ______ ____

>  <TORSDO>
F 11

$$$$
=
 OpenBabel11042423073D

 37 40  0  0  1  0  0  0  0  0999 V2000
  161.1060  208.1830  154.3440 C   0  0  0  0  0  0  0  0  0  0  0  0
  160.5630  209.0920  153.3990 C   0  0  0  0  0  0  0  0  0  0  0  0
  161.5660  206.6080  152.5550 C   0  0  0  0  0  3  0  0  0  0  0  0
  161.6030  206.9520  153.9070 C   0  0  0  0  0  3  0  0  0  0  0  0
  160.5310  208.7310  152.0470 C   0  0  0  0  0  3  0  0  0  0  0  0
  161.0160  207.4880  151.6190 C   0  0  0  0  0  0  0  0  0  0  0  0
  162.2690  209.5120  149.6880 Cl  0  0  0  0  0  0  0  0  0  0  0  0
  161.5580  207.9590  149.2580 C   0  0  0  0  0  0  0  0  0  0  0  0
  160.6800  205.0300  148.8290 C   0  0  0  0  0  3  0  0  0  0  0  0
  162.1270  206.4360  147.3990 C   0  0  0  0  0  3  0  0  0  0  0  0
  161.4270  207.6920  147.7950 C   0  0  0  0  0  2  0  0  0  0  0  0
  161.7680  205.2360  147.8550 C   0  0  0  0  0  0  0  0  0  0  0  0
  160.3530  205.8560  149.8320 C   0  0  0  0  0  3  0  0  0  0  0  0
  161.0190  207.1350  150.1850 C   0  0  0  0  0  0  0  0  0  0  0  0
  162.5710  203.8260  147.2010 Cl  0  0  0  0  0  0  0  0  0  0  0  0
  161.2290  207.1060  157.1090 O   0  0  0  0  0  0  0  0  0  0  0  0
  160.0160  207.6930  157.1720 C   0  0  0  0  0  1  0  0  0  0  0  0
  161.2020  208.5270  156.1050 P   0  0  1  0  0  0  0  0  0  0  0  0
  163.8600  211.4620  156.8040 C   0  0  0  0  0  1  0  0  0  0  0  0
  162.0790  209.9220  156.7990 C   0  0  0  0  0  3  0  0  0  0  0  0
  163.1590  210.3370  156.2490 N   0  0  0  0  0  0  0  0  0  0  0  0
  160.0330  210.4550  153.7410 C   0  0  2  0  0  3  0  0  0  0  0  0
  158.3580  210.8130  155.9160 C   0  0  0  0  0  0  0  0  0  0  0  0
  158.4040  211.7370  157.2600 S   0  0  0  0  0  0  0  0  0  0  0  0
  157.6960  209.8690  155.0960 N   0  0  0  0  0  2  0  0  0  0  0  0
  158.9540  210.3720  154.7110 N   0  0  0  0  0  0  0  0  0  0  0  0
  159.6100  211.2420  152.5040 C   0  0  2  0  0  3  0  0  0  0  0  0
  159.5070  212.7090  152.7230 C   0  0  1  0  0  0  0  0  0  0  0  0
  158.3720  211.8800  152.7400 O   0  0  0  0  0  0  0  0  0  0  0  0
  158.9030  213.9440  154.6450 O   0  0  0  0  0  0  0  0  0  0  0  0
  159.7740  213.3110  154.0720 C   0  0  0  0  0  3  0  0  0  0  0  0
  159.5630  213.5790  151.4730 C   0  0  0  0  0  2  0  0  0  0  0  0
  158.1730  213.8880  150.9300 C   0  0  0  0  0  2  0  0  0  0  0  0
  158.1900  214.0380  149.4140 C   0  0  1  0  0  3  0  0  0  0  0  0
  159.4460  213.5470  148.8710 N   0  0  0  0  0  1  0  0  0  0  0  0
  155.8120  213.9320  149.0720 O   0  0  0  0  0  1  0  0  0  0  0  0
  157.0210  213.2930  148.7860 C   0  0  0  0  0  2  0  0  0  0  0  0
  1 18  1  0  0  0  0
  2  1  2  0  0  0  0
  3  4  2  0  0  0  0
  4  1  1  0  0  0  0
  5  2  1  0  0  0  0
  6  5  2  0  0  0  0
  6  3  1  0  0  0  0
  8  7  1  0  0  0  0
  8 14  2  0  0  0  0
  9 13  2  0  0  0  0
 10 11  1  0  0  0  0
 10 12  2  0  0  0  0
 11  8  1  0  0  0  0
 12  9  1  0  0  0  0
 13 14  1  0  0  0  0
 14  6  1  0  0  0  0
 15 12  1  0  0  0  0
 16 17  1  0  0  0  0
 18 20  1  6  0  0  0
 18 16  1  0  0  0  0
 21 20  2  0  0  0  0
 21 19  1  0  0  0  0
 22  2  1  6  0  0  0
 22 26  1  0  0  0  0
 23 24  2  0  0  0  0
 25 23  1  0  0  0  0
 26 25  1  0  0  0  0
 26 23  1  0  0  0  0
 27 28  1  0  0  0  0
 27 29  1  0  0  0  0
 27 22  1  1  0  0  0
 28 32  1  6  0  0  0
 28 29  1  0  0  0  0
 28 31  1  0  0  0  0
 31 30  2  0  0  0  0
 33 32  1  0  0  0  0
 34 35  1  6  0  0  0
 34 33  1  0  0  0  0
 37 36  1  0  0  0  0
 37 34  1  0  0  0  0
M  END
>  <MODEL>
3

>  <REMARK>
 VINA RESULT:      -6.1      2.729      3.719
  Name = 
  11 active torsions:
  status: ('A' for Active; 'I' for Inactive)
    1  A    between atoms: C_2  and  P_36
    2  A    between atoms: C_3  and  C_20
    3  A    between atoms: C_6  and  C_20
    4  A    between atoms: C_14  and  P_36
    5  A    between atoms: C_16  and  CA_24
    6  A    between atoms: C_16  and  C_25
    7  A    between atoms: C_20  and  N_28
    8  A    between atoms: CA_24  and  C_31
    9  A    between atoms: C_25  and  C_34
   10  A    between atoms: C_26  and  C_33
   11  A    between atoms: C_30  and  C_34
                            x       y       z     vdW  Elec       q    Type
                         _______ _______ _______ _____ _____    ______ ____

>  <TORSDO>
F 11

$$$$
=
 OpenBabel11042423073D

 37 40  0  0  1  0  0  0  0  0999 V2000
  161.5920  210.1960  149.7550 C   0  0  0  0  0  0  0  0  0  0  0  0
  161.2830  209.7020  151.0480 C   0  0  0  0  0  0  0  0  0  0  0  0
  161.9520  207.9240  148.9790 C   0  0  0  0  0  3  0  0  0  0  0  0
  161.9210  209.2980  148.7360 C   0  0  0  0  0  3  0  0  0  0  0  0
  161.3220  208.3220  151.2770 C   0  0  0  0  0  3  0  0  0  0  0  0
  161.6680  207.4280  150.2550 C   0  0  0  0  0  0  0  0  0  0  0  0
  161.2190  206.4930  153.1390 Cl  0  0  0  0  0  0  0  0  0  0  0  0
  161.4620  205.4620  151.7320 C   0  0  0  0  0  0  0  0  0  0  0  0
  161.4520  203.8940  149.0720 C   0  0  0  0  0  3  0  0  0  0  0  0
  160.5990  203.1920  151.2830 C   0  0  0  0  0  3  0  0  0  0  0  0
  161.6120  204.0040  152.0180 C   0  0  0  0  0  2  0  0  0  0  0  0
  160.5490  203.1320  149.9530 C   0  0  0  0  0  0  0  0  0  0  0  0
  161.9390  205.1190  149.3110 C   0  0  0  0  0  3  0  0  0  0  0  0
  161.6620  205.9710  150.4950 C   0  0  0  0  0  0  0  0  0  0  0  0
  159.4090  202.0280  149.2150 Cl  0  0  0  0  0  0  0  0  0  0  0  0
  161.7590  212.2690  147.6340 O   0  0  0  0  0  0  0  0  0  0  0  0
  162.9100  212.5440  148.2810 C   0  0  0  0  0  1  0  0  0  0  0  0
  161.5810  211.9420  149.3340 P   0  0  1  0  0  0  0  0  0  0  0  0
  158.6110  214.3220  150.6340 C   0  0  0  0  0  1  0  0  0  0  0  0
  160.6200  213.1700  150.2110 C   0  0  0  0  0  3  0  0  0  0  0  0
  159.3830  213.3400  149.9240 N   0  0  0  0  0  0  0  0  0  0  0  0
  160.8820  210.5630  152.2110 C   0  0  2  0  0  3  0  0  0  0  0  0
  161.8520  209.6990  154.6560 C   0  0  0  0  0  0  0  0  0  0  0  0
  161.2160  208.8880  155.9210 S   0  0  0  0  0  0  0  0  0  0  0  0
  162.9540  210.3260  154.0260 N   0  0  0  0  0  2  0  0  0  0  0  0
  161.7040  210.2880  153.3780 N   0  0  0  0  0  0  0  0  0  0  0  0
  159.3950  210.4440  152.5370 C   0  0  2  0  0  3  0  0  0  0  0  0
  158.8530  211.5860  153.3210 C   0  0  1  0  0  0  0  0  0  0  0  0
  159.2140  210.3750  153.9370 O   0  0  0  0  0  0  0  0  0  0  0  0
  160.0810  212.8110  154.9250 O   0  0  0  0  0  0  0  0  0  0  0  0
  159.7390  212.7160  153.7590 C   0  0  0  0  0  3  0  0  0  0  0  0
  157.3410  211.7760  153.2710 C   0  0  0  0  0  2  0  0  0  0  0  0
  156.8660  212.8370  154.2560 C   0  0  0  0  0  2  0  0  0  0  0  0
  155.9900  212.2310  155.3440 C   0  0  1  0  0  3  0  0  0  0  0  0
  155.6800  210.8450  155.0320 N   0  0  0  0  0  1  0  0  0  0  0  0
  157.7500  211.4370  156.7760 O   0  0  0  0  0  1  0  0  0  0  0  0
  156.6740  212.3230  156.7000 C   0  0  0  0  0  2  0  0  0  0  0  0
  1  2  1  0  0  0  0
  2  5  2  0  0  0  0
  3  6  2  0  0  0  0
  4  3  1  0  0  0  0
  4  1  2  0  0  0  0
  6 14  1  0  0  0  0
  6  5  1  0  0  0  0
  8 11  1  0  0  0  0
  8  7  1  0  0  0  0
  9 13  2  0  0  0  0
  9 12  1  0  0  0  0
 10 11  1  0  0  0  0
 12 10  2  0  0  0  0
 13 14  1  0  0  0  0
 14  8  2  0  0  0  0
 15 12  1  0  0  0  0
 16 17  1  0  0  0  0
 16 18  1  0  0  0  0
 18  1  1  0  0  0  0
 18 20  1  6  0  0  0
 21 20  2  0  0  0  0
 21 19  1  0  0  0  0
 22  2  1  6  0  0  0
 22 26  1  0  0  0  0
 23 24  2  0  0  0  0
 25 23  1  0  0  0  0
 26 25  1  0  0  0  0
 26 23  1  0  0  0  0
 27 22  1  1  0  0  0
 27 28  1  0  0  0  0
 27 29  1  0  0  0  0
 28 32  1  6  0  0  0
 28 31  1  0  0  0  0
 28 29  1  0  0  0  0
 31 30  2  0  0  0  0
 32 33  1  0  0  0  0
 33 34  1  0  0  0  0
 34 35  1  6  0  0  0
 34 37  1  0  0  0  0
 37 36  1  0  0  0  0
M  END
>  <MODEL>
4

>  <REMARK>
 VINA RESULT:      -5.3      2.750      4.542
  Name = 
  11 active torsions:
  status: ('A' for Active; 'I' for Inactive)
    1  A    between atoms: C_2  and  P_36
    2  A    between atoms: C_3  and  C_20
    3  A    between atoms: C_6  and  C_20
    4  A    between atoms: C_14  and  P_36
    5  A    between atoms: C_16  and  CA_24
    6  A    between atoms: C_16  and  C_25
    7  A    between atoms: C_20  and  N_28
    8  A    between atoms: CA_24  and  C_31
    9  A    between atoms: C_25  and  C_34
   10  A    between atoms: C_26  and  C_33
   11  A    between atoms: C_30  and  C_34
                            x       y       z     vdW  Elec       q    Type
                         _______ _______ _______ _____ _____    ______ ____

>  <TORSDO>
F 11

$$$$
=
 OpenBabel11042423073D

 37 40  0  0  1  0  0  0  0  0999 V2000
  160.9880  208.9810  154.5120 C   0  0  0  0  0  0  0  0  0  0  0  0
  160.6420  209.5430  153.2570 C   0  0  0  0  0  0  0  0  0  0  0  0
  161.6640  206.9310  153.4020 C   0  0  0  0  0  3  0  0  0  0  0  0
  161.4980  207.6810  154.5670 C   0  0  0  0  0  3  0  0  0  0  0  0
  160.8120  208.7780  152.0980 C   0  0  0  0  0  3  0  0  0  0  0  0
  161.3090  207.4690  152.1610 C   0  0  0  0  0  0  0  0  0  0  0  0
  160.5140  204.5100  152.2340 Cl  0  0  0  0  0  0  0  0  0  0  0  0
  161.1990  205.3750  150.8610 C   0  0  0  0  0  0  0  0  0  0  0  0
  161.9720  207.2050  148.4970 C   0  0  0  0  0  3  0  0  0  0  0  0
  160.8670  204.9940  148.4430 C   0  0  0  0  0  3  0  0  0  0  0  0
  161.5600  204.5330  149.6820 C   0  0  0  0  0  2  0  0  0  0  0  0
  161.0770  206.1940  147.9040 C   0  0  0  0  0  0  0  0  0  0  0  0
  162.1710  207.4110  149.8050 C   0  0  0  0  0  3  0  0  0  0  0  0
  161.5270  206.6860  150.9290 C   0  0  0  0  0  0  0  0  0  0  0  0
  160.3180  206.5590  146.3700 Cl  0  0  0  0  0  0  0  0  0  0  0  0
  159.8620  209.0190  157.2610 O   0  0  0  0  0  0  0  0  0  0  0  0
  159.1500  210.0360  156.7340 C   0  0  0  0  0  1  0  0  0  0  0  0
  160.8140  209.8580  156.0700 P   0  0  1  0  0  0  0  0  0  0  0  0
  164.3270  211.5780  157.0010 C   0  0  0  0  0  1  0  0  0  0  0  0
  162.0830  210.9080  156.7670 C   0  0  0  0  0  3  0  0  0  0  0  0
  163.3090  210.7300  156.4450 N   0  0  0  0  0  0  0  0  0  0  0  0
  160.1200  210.9390  153.0670 C   0  0  2  0  0  3  0  0  0  0  0  0
  157.8350  211.7430  154.4070 C   0  0  0  0  0  0  0  0  0  0  0  0
  157.4980  212.8960  155.5110 S   0  0  0  0  0  0  0  0  0  0  0  0
  157.4120  210.6870  153.5650 N   0  0  0  0  0  2  0  0  0  0  0  0
  158.7680  211.0700  153.5840 N   0  0  0  0  0  0  0  0  0  0  0  0
  160.2080  211.4010  151.6140 C   0  0  2  0  0  3  0  0  0  0  0  0
  160.0130  212.8630  151.4300 C   0  0  1  0  0  0  0  0  0  0  0  0
  158.9700  211.9470  151.2080 O   0  0  0  0  0  0  0  0  0  0  0  0
  158.7180  214.4490  152.6090 O   0  0  0  0  0  0  0  0  0  0  0  0
  159.7240  213.7600  152.5980 C   0  0  0  0  0  3  0  0  0  0  0  0
  160.5460  213.4510  150.1290 C   0  0  0  0  0  2  0  0  0  0  0  0
  159.4350  213.6890  149.1120 C   0  0  0  0  0  2  0  0  0  0  0  0
  159.9450  213.5320  147.6860 C   0  0  1  0  0  3  0  0  0  0  0  0
  161.2730  212.9370  147.6850 N   0  0  0  0  0  1  0  0  0  0  0  0
  159.4480  212.5440  145.5510 O   0  0  0  0  0  1  0  0  0  0  0  0
  158.9890  212.6810  146.8630 C   0  0  0  0  0  2  0  0  0  0  0  0
  1  4  1  0  0  0  0
  1 18  1  0  0  0  0
  2  1  2  0  0  0  0
  3  4  2  0  0  0  0
  5  6  2  0  0  0  0
  5  2  1  0  0  0  0
  6  3  1  0  0  0  0
  8 14  2  0  0  0  0
  8  7  1  0  0  0  0
  9 13  2  0  0  0  0
 10 11  1  0  0  0  0
 11  8  1  0  0  0  0
 12 10  2  0  0  0  0
 12  9  1  0  0  0  0
 13 14  1  0  0  0  0
 14  6  1  0  0  0  0
 15 12  1  0  0  0  0
 17 16  1  0  0  0  0
 18 20  1  1  0  0  0
 18 16  1  0  0  0  0
 21 20  2  0  0  0  0
 21 19  1  0  0  0  0
 22  2  1  6  0  0  0
 22 26  1  0  0  0  0
 23 24  2  0  0  0  0
 25 26  1  0  0  0  0
 25 23  1  0  0  0  0
 26 23  1  0  0  0  0
 27 22  1  1  0  0  0
 28 32  1  6  0  0  0
 28 27  1  0  0  0  0
 28 31  1  0  0  0  0
 29 28  1  0  0  0  0
 29 27  1  0  0  0  0
 31 30  2  0  0  0  0
 33 32  1  0  0  0  0
 34 35  1  1  0  0  0
 34 33  1  0  0  0  0
 36 37  1  0  0  0  0
 37 34  1  0  0  0  0
M  END
>  <MODEL>
5

>  <REMARK>
 VINA RESULT:      -5.3      2.918      4.537
  Name = 
  11 active torsions:
  status: ('A' for Active; 'I' for Inactive)
    1  A    between atoms: C_2  and  P_36
    2  A    between atoms: C_3  and  C_20
    3  A    between atoms: C_6  and  C_20
    4  A    between atoms: C_14  and  P_36
    5  A    between atoms: C_16  and  CA_24
    6  A    between atoms: C_16  and  C_25
    7  A    between atoms: C_20  and  N_28
    8  A    between atoms: CA_24  and  C_31
    9  A    between atoms: C_25  and  C_34
   10  A    between atoms: C_26  and  C_33
   11  A    between atoms: C_30  and  C_34
                            x       y       z     vdW  Elec       q    Type
                         _______ _______ _______ _____ _____    ______ ____

>  <TORSDO>
F 11

$$$$
=
 OpenBabel11042423073D

 37 40  0  0  1  0  0  0  0  0999 V2000
  161.1680  207.3090  154.3130 C   0  0  0  0  0  0  0  0  0  0  0  0
  160.9500  208.0510  153.1230 C   0  0  0  0  0  0  0  0  0  0  0  0
  161.1310  205.2500  153.0270 C   0  0  0  0  0  3  0  0  0  0  0  0
  161.2580  205.9160  154.2470 C   0  0  0  0  0  3  0  0  0  0  0  0
  160.8230  207.3690  151.9080 C   0  0  0  0  0  3  0  0  0  0  0  0
  160.8980  205.9710  151.8520 C   0  0  0  0  0  0  0  0  0  0  0  0
  162.4320  207.1830  149.4910 Cl  0  0  0  0  0  0  0  0  0  0  0  0
  161.4570  205.7150  149.4630 C   0  0  0  0  0  0  0  0  0  0  0  0
  160.0840  202.9690  149.7870 C   0  0  0  0  0  3  0  0  0  0  0  0
  161.7150  203.6890  148.0740 C   0  0  0  0  0  3  0  0  0  0  0  0
  161.2490  205.1050  148.1150 C   0  0  0  0  0  2  0  0  0  0  0  0
  161.1680  202.7280  148.8170 C   0  0  0  0  0  0  0  0  0  0  0  0
  159.9260  204.0690  150.5340 C   0  0  0  0  0  3  0  0  0  0  0  0
  160.8080  205.2630  150.5590 C   0  0  0  0  0  0  0  0  0  0  0  0
  161.7050  201.0800  148.5690 Cl  0  0  0  0  0  0  0  0  0  0  0  0
  161.2140  206.9490  157.2600 O   0  0  0  0  0  0  0  0  0  0  0  0
  160.0870  207.6830  157.1610 C   0  0  0  0  0  1  0  0  0  0  0  0
  161.3450  208.0650  155.9320 P   0  0  1  0  0  0  0  0  0  0  0  0
  162.8080  211.5970  157.1800 C   0  0  0  0  0  1  0  0  0  0  0  0
  162.4070  209.4650  156.2650 C   0  0  0  0  0  3  0  0  0  0  0  0
  161.9520  210.4750  156.9080 N   0  0  0  0  0  0  0  0  0  0  0  0
  160.8710  209.5500  153.0620 C   0  0  2  0  0  3  0  0  0  0  0  0
  159.0590  211.1440  154.4170 C   0  0  0  0  0  0  0  0  0  0  0  0
  158.7370  212.7440  154.4490 S   0  0  0  0  0  0  0  0  0  0  0  0
  158.7760  209.8260  154.8440 N   0  0  0  0  0  2  0  0  0  0  0  0
  159.8260  210.0580  153.9350 N   0  0  0  0  0  0  0  0  0  0  0  0
  160.7040  210.0650  151.6340 C   0  0  2  0  0  3  0  0  0  0  0  0
  161.9810  210.4380  150.9710 C   0  0  1  0  0  0  0  0  0  0  0  0
  161.1440  211.4050  151.5530 O   0  0  0  0  0  0  0  0  0  0  0  0
  163.3850  210.7000  152.8530 O   0  0  0  0  0  0  0  0  0  0  0  0
  163.2910  210.3310  151.6950 C   0  0  0  0  0  3  0  0  0  0  0  0
  161.9520  210.4960  149.4470 C   0  0  0  0  0  2  0  0  0  0  0  0
  162.4700  211.8280  148.9180 C   0  0  0  0  0  2  0  0  0  0  0  0
  161.5290  212.4140  147.8740 C   0  0  1  0  0  3  0  0  0  0  0  0
  160.4290  213.1130  148.5190 N   0  0  0  0  0  1  0  0  0  0  0  0
  161.9560  213.1010  145.6090 O   0  0  0  0  0  1  0  0  0  0  0  0
  162.2770  213.3590  146.9440 C   0  0  0  0  0  2  0  0  0  0  0  0
  1 18  1  0  0  0  0
  2  1  2  0  0  0  0
  3  4  2  0  0  0  0
  4  1  1  0  0  0  0
  5  2  1  0  0  0  0
  6  5  2  0  0  0  0
  6  3  1  0  0  0  0
  8  7  1  0  0  0  0
  8 14  2  0  0  0  0
  9 13  2  0  0  0  0
 10 11  1  0  0  0  0
 10 12  2  0  0  0  0
 11  8  1  0  0  0  0
 12  9  1  0  0  0  0
 13 14  1  0  0  0  0
 14  6  1  0  0  0  0
 15 12  1  0  0  0  0
 17 16  1  0  0  0  0
 18 20  1  6  0  0  0
 18 16  1  0  0  0  0
 20 21  2  0  0  0  0
 21 19  1  0  0  0  0
 22  2  1  6  0  0  0
 22 26  1  0  0  0  0
 23 24  2  0  0  0  0
 23 25  1  0  0  0  0
 26 23  1  0  0  0  0
 26 25  1  0  0  0  0
 27 22  1  1  0  0  0
 28 32  1  6  0  0  0
 28 29  1  0  0  0  0
 28 27  1  0  0  0  0
 28 31  1  0  0  0  0
 29 27  1  0  0  0  0
 31 30  2  0  0  0  0
 33 32  1  0  0  0  0
 34 35  1  1  0  0  0
 34 33  1  0  0  0  0
 36 37  1  0  0  0  0
 37 34  1  0  0  0  0
M  END
>  <MODEL>
6

>  <REMARK>
 VINA RESULT:      -4.8      2.310      4.259
  Name = 
  11 active torsions:
  status: ('A' for Active; 'I' for Inactive)
    1  A    between atoms: C_2  and  P_36
    2  A    between atoms: C_3  and  C_20
    3  A    between atoms: C_6  and  C_20
    4  A    between atoms: C_14  and  P_36
    5  A    between atoms: C_16  and  CA_24
    6  A    between atoms: C_16  and  C_25
    7  A    between atoms: C_20  and  N_28
    8  A    between atoms: CA_24  and  C_31
    9  A    between atoms: C_25  and  C_34
   10  A    between atoms: C_26  and  C_33
   11  A    between atoms: C_30  and  C_34
                            x       y       z     vdW  Elec       q    Type
                         _______ _______ _______ _____ _____    ______ ____

>  <TORSDO>
F 11

$$$$
=
 OpenBabel11042423073D

 37 40  0  0  1  0  0  0  0  0999 V2000
  161.7820  209.1120  149.0600 C   0  0  0  0  0  0  0  0  0  0  0  0
  161.7640  208.2450  150.1820 C   0  0  0  0  0  0  0  0  0  0  0  0
  161.6900  207.1890  147.5810 C   0  0  0  0  0  3  0  0  0  0  0  0
  161.7420  208.5710  147.7720 C   0  0  0  0  0  3  0  0  0  0  0  0
  161.7140  206.8620  149.9740 C   0  0  0  0  0  3  0  0  0  0  0  0
  161.6910  206.3250  148.6800 C   0  0  0  0  0  0  0  0  0  0  0  0
  160.2120  204.7080  150.8230 Cl  0  0  0  0  0  0  0  0  0  0  0  0
  160.9510  204.0710  149.3560 C   0  0  0  0  0  0  0  0  0  0  0  0
  161.9130  203.2810  146.5300 C   0  0  0  0  0  3  0  0  0  0  0  0
  160.3050  202.1110  147.9990 C   0  0  0  0  0  3  0  0  0  0  0  0
  160.9810  202.5820  149.2420 C   0  0  0  0  0  2  0  0  0  0  0  0
  160.7460  202.4150  146.7790 C   0  0  0  0  0  0  0  0  0  0  0  0
  162.2810  204.3370  147.2670 C   0  0  0  0  0  3  0  0  0  0  0  0
  161.5920  204.8670  148.4710 C   0  0  0  0  0  0  0  0  0  0  0  0
  159.9540  201.6790  145.4030 Cl  0  0  0  0  0  0  0  0  0  0  0  0
  162.4650  211.7020  147.7770 O   0  0  0  0  0  0  0  0  0  0  0  0
  163.3970  211.7040  148.7520 C   0  0  0  0  0  1  0  0  0  0  0  0
  161.8480  210.9020  149.1940 P   0  0  1  0  0  0  0  0  0  0  0  0
  159.4590  213.8590  150.5050 C   0  0  0  0  0  1  0  0  0  0  0  0
  160.6640  211.8740  150.1160 C   0  0  0  0  0  3  0  0  0  0  0  0
  160.4150  213.0810  149.7670 N   0  0  0  0  0  0  0  0  0  0  0  0
  161.7670  208.7070  151.6110 C   0  0  2  0  0  3  0  0  0  0  0  0
  161.5250  206.9220  153.7130 C   0  0  0  0  0  0  0  0  0  0  0  0
  160.6370  206.8740  155.0820 S   0  0  0  0  0  0  0  0  0  0  0  0
  162.4660  206.3310  152.8380 N   0  0  0  0  0  2  0  0  0  0  0  0
  161.9120  207.5880  152.5270 N   0  0  0  0  0  0  0  0  0  0  0  0
  160.5390  209.5490  151.9530 C   0  0  2  0  0  3  0  0  0  0  0  0
  160.7340  210.4650  153.1080 C   0  0  1  0  0  0  0  0  0  0  0  0
  160.0820  209.2280  153.2500 O   0  0  0  0  0  0  0  0  0  0  0  0
  162.0500  210.2850  155.0620 O   0  0  0  0  0  0  0  0  0  0  0  0
  162.0320  210.4970  153.8620 C   0  0  0  0  0  3  0  0  0  0  0  0
  159.7660  211.6390  153.2040 C   0  0  0  0  0  2  0  0  0  0  0  0
  158.8910  211.5560  154.4490 C   0  0  0  0  0  2  0  0  0  0  0  0
  157.4400  211.8920  154.1310 C   0  0  1  0  0  3  0  0  0  0  0  0
  156.5580  211.3390  155.1460 N   0  0  0  0  0  1  0  0  0  0  0  0
  156.7200  213.7520  152.7880 O   0  0  0  0  0  1  0  0  0  0  0  0
  157.2460  213.3980  154.0320 C   0  0  0  0  0  2  0  0  0  0  0  0
  1 18  1  0  0  0  0
  1  2  1  0  0  0  0
  3  4  1  0  0  0  0
  3  6  2  0  0  0  0
  4  1  2  0  0  0  0
  5  2  2  0  0  0  0
  6  5  1  0  0  0  0
  8  7  1  0  0  0  0
  9 12  1  0  0  0  0
  9 13  2  0  0  0  0
 10 11  1  0  0  0  0
 11  8  1  0  0  0  0
 12 10  2  0  0  0  0
 13 14  1  0  0  0  0
 14  6  1  0  0  0  0
 14  8  2  0  0  0  0
 15 12  1  0  0  0  0
 16 17  1  0  0  0  0
 16 18  1  0  0  0  0
 18 20  1  6  0  0  0
 21 20  2  0  0  0  0
 21 19  1  0  0  0  0
 22  2  1  6  0  0  0
 22 26  1  0  0  0  0
 23 24  2  0  0  0  0
 25 23  1  0  0  0  0
 26 25  1  0  0  0  0
 26 23  1  0  0  0  0
 27 22  1  1  0  0  0
 27 28  1  0  0  0  0
 27 29  1  0  0  0  0
 28 32  1  1  0  0  0
 28 29  1  0  0  0  0
 28 31  1  0  0  0  0
 31 30  2  0  0  0  0
 32 33  1  0  0  0  0
 34 33  1  0  0  0  0
 34 35  1  1  0  0  0
 36 37  1  0  0  0  0
 37 34  1  0  0  0  0
M  END
>  <MODEL>
7

>  <REMARK>
 VINA RESULT:      -4.6      2.798      4.662
  Name = 
  11 active torsions:
  status: ('A' for Active; 'I' for Inactive)
    1  A    between atoms: C_2  and  P_36
    2  A    between atoms: C_3  and  C_20
    3  A    between atoms: C_6  and  C_20
    4  A    between atoms: C_14  and  P_36
    5  A    between atoms: C_16  and  CA_24
    6  A    between atoms: C_16  and  C_25
    7  A    between atoms: C_20  and  N_28
    8  A    between atoms: CA_24  and  C_31
    9  A    between atoms: C_25  and  C_34
   10  A    between atoms: C_26  and  C_33
   11  A    between atoms: C_30  and  C_34
                            x       y       z     vdW  Elec       q    Type
                         _______ _______ _______ _____ _____    ______ ____

>  <TORSDO>
F 11

$$$$
=
 OpenBabel11042423073D

 37 40  0  0  1  0  0  0  0  0999 V2000
  161.6730  209.1520  149.2920 C   0  0  0  0  0  0  0  0  0  0  0  0
  161.5480  208.3150  150.4300 C   0  0  0  0  0  0  0  0  0  0  0  0
  161.3790  207.2230  147.8490 C   0  0  0  0  0  3  0  0  0  0  0  0
  161.5840  208.5930  148.0140 C   0  0  0  0  0  3  0  0  0  0  0  0
  161.3460  206.9420  150.2470 C   0  0  0  0  0  3  0  0  0  0  0  0
  161.2730  206.3860  148.9640 C   0  0  0  0  0  0  0  0  0  0  0  0
  162.5950  205.0280  146.5550 Cl  0  0  0  0  0  0  0  0  0  0  0  0
  161.5610  204.2560  147.7540 C   0  0  0  0  0  0  0  0  0  0  0  0
  160.1130  203.0620  150.2060 C   0  0  0  0  0  3  0  0  0  0  0  0
  161.5800  201.9250  148.5730 C   0  0  0  0  0  3  0  0  0  0  0  0
  161.1820  202.8400  147.4630 C   0  0  0  0  0  2  0  0  0  0  0  0
  161.0750  202.0210  149.8020 C   0  0  0  0  0  0  0  0  0  0  0  0
  160.0830  204.3240  149.7580 C   0  0  0  0  0  3  0  0  0  0  0  0
  161.0140  204.9440  148.7810 C   0  0  0  0  0  0  0  0  0  0  0  0
  161.5100  200.7960  150.9740 Cl  0  0  0  0  0  0  0  0  0  0  0  0
  162.7920  211.5990  148.0340 O   0  0  0  0  0  0  0  0  0  0  0  0
  163.6100  211.5260  149.1030 C   0  0  0  0  0  1  0  0  0  0  0  0
  161.9380  210.9260  149.3930 P   0  0  1  0  0  0  0  0  0  0  0  0
  159.6440  214.1160  150.2470 C   0  0  0  0  0  1  0  0  0  0  0  0
  160.7890  212.0610  150.1600 C   0  0  0  0  0  3  0  0  0  0  0  0
  160.5720  213.2080  149.6330 N   0  0  0  0  0  0  0  0  0  0  0  0
  161.5910  208.8030  151.8500 C   0  0  2  0  0  3  0  0  0  0  0  0
  161.2180  207.1290  154.0240 C   0  0  0  0  0  0  0  0  0  0  0  0
  160.4570  207.2670  155.4610 S   0  0  0  0  0  0  0  0  0  0  0  0
  161.9600  206.3620  153.0950 N   0  0  0  0  0  2  0  0  0  0  0  0
  161.6130  207.6920  152.7880 N   0  0  0  0  0  0  0  0  0  0  0  0
  160.4570  209.7740  152.1660 C   0  0  2  0  0  3  0  0  0  0  0  0
  160.7710  210.7420  153.2500 C   0  0  1  0  0  0  0  0  0  0  0  0
  160.0150  209.5820  153.4940 O   0  0  0  0  0  0  0  0  0  0  0  0
  162.1400  210.4090  155.1480 O   0  0  0  0  0  0  0  0  0  0  0  0
  162.0900  210.7030  153.9650 C   0  0  0  0  0  3  0  0  0  0  0  0
  159.9160  212.0040  153.2920 C   0  0  0  0  0  2  0  0  0  0  0  0
  159.6930  212.4950  154.7170 C   0  0  0  0  0  2  0  0  0  0  0  0
  158.2140  212.4950  155.0790 C   0  0  1  0  0  3  0  0  0  0  0  0
  157.4040  212.2260  153.9010 N   0  0  0  0  0  1  0  0  0  0  0  0
  159.0750  210.7420  156.4810 O   0  0  0  0  0  1  0  0  0  0  0  0
  157.9240  211.4650  156.1610 C   0  0  0  0  0  2  0  0  0  0  0  0
  1 18  1  0  0  0  0
  1  2  1  0  0  0  0
  3  4  1  0  0  0  0
  3  6  2  0  0  0  0
  4  1  2  0  0  0  0
  5  2  2  0  0  0  0
  6  5  1  0  0  0  0
  7  8  1  0  0  0  0
  8 14  2  0  0  0  0
 10 12  2  0  0  0  0
 11  8  1  0  0  0  0
 11 10  1  0  0  0  0
 12  9  1  0  0  0  0
 12 15  1  0  0  0  0
 13  9  2  0  0  0  0
 14  6  1  0  0  0  0
 14 13  1  0  0  0  0
 16 17  1  0  0  0  0
 16 18  1  0  0  0  0
 18 20  1  6  0  0  0
 21 20  2  0  0  0  0
 21 19  1  0  0  0  0
 22  2  1  6  0  0  0
 22 26  1  0  0  0  0
 23 24  2  0  0  0  0
 25 23  1  0  0  0  0
 26 25  1  0  0  0  0
 26 23  1  0  0  0  0
 27 22  1  1  0  0  0
 27 28  1  0  0  0  0
 27 29  1  0  0  0  0
 28 32  1  6  0  0  0
 28 29  1  0  0  0  0
 28 31  1  0  0  0  0
 31 30  2  0  0  0  0
 32 33  1  0  0  0  0
 33 34  1  0  0  0  0
 34 35  1  6  0  0  0
 34 37  1  0  0  0  0
 37 36  1  0  0  0  0
M  END
>  <MODEL>
8

>  <REMARK>
 VINA RESULT:      -4.1      2.724      4.479
  Name = 
  11 active torsions:
  status: ('A' for Active; 'I' for Inactive)
    1  A    between atoms: C_2  and  P_36
    2  A    between atoms: C_3  and  C_20
    3  A    between atoms: C_6  and  C_20
    4  A    between atoms: C_14  and  P_36
    5  A    between atoms: C_16  and  CA_24
    6  A    between atoms: C_16  and  C_25
    7  A    between atoms: C_20  and  N_28
    8  A    between atoms: CA_24  and  C_31
    9  A    between atoms: C_25  and  C_34
   10  A    between atoms: C_26  and  C_33
   11  A    between atoms: C_30  and  C_34
                            x       y       z     vdW  Elec       q    Type
                         _______ _______ _______ _____ _____    ______ ____

>  <TORSDO>
F 11

$$$$
=
 OpenBabel11042423073D

 37 40  0  0  1  0  0  0  0  0999 V2000
  161.2560  206.8730  152.8750 C   0  0  0  0  0  0  0  0  0  0  0  0
  161.2560  208.1770  152.3160 C   0  0  0  0  0  0  0  0  0  0  0  0
  160.4630  207.7830  154.9810 C   0  0  0  0  0  3  0  0  0  0  0  0
  160.8560  206.6940  154.2010 C   0  0  0  0  0  3  0  0  0  0  0  0
  160.8610  209.2590  153.1110 C   0  0  0  0  0  3  0  0  0  0  0  0
  160.4770  209.0740  154.4450 C   0  0  0  0  0  0  0  0  0  0  0  0
  162.6330  210.7070  155.8870 Cl  0  0  0  0  0  0  0  0  0  0  0  0
  160.8970  211.0010  155.9280 C   0  0  0  0  0  0  0  0  0  0  0  0
  157.8960  211.5680  155.4730 C   0  0  0  0  0  3  0  0  0  0  0  0
  159.6720  213.1300  156.1910 C   0  0  0  0  0  3  0  0  0  0  0  0
  160.4430  212.0560  156.8830 C   0  0  0  0  0  2  0  0  0  0  0  0
  158.5130  212.9030  155.5760 C   0  0  0  0  0  0  0  0  0  0  0  0
  158.5500  210.4060  155.3440 C   0  0  0  0  0  3  0  0  0  0  0  0
  160.0200  210.2150  155.2630 C   0  0  0  0  0  0  0  0  0  0  0  0
  157.6340  214.2730  154.9320 Cl  0  0  0  0  0  0  0  0  0  0  0  0
  163.2750  204.7370  152.4450 O   0  0  0  0  0  0  0  0  0  0  0  0
  163.4030  205.3810  151.2660 C   0  0  0  0  0  1  0  0  0  0  0  0
  161.7430  205.4050  151.9610 P   0  0  1  0  0  0  0  0  0  0  0  0
  160.0790  202.2110  150.1730 C   0  0  0  0  0  1  0  0  0  0  0  0
  160.5860  204.1890  151.3430 C   0  0  0  0  0  3  0  0  0  0  0  0
  161.0090  203.1900  150.6630 N   0  0  0  0  0  0  0  0  0  0  0  0
  161.6290  208.4910  150.8950 C   0  0  2  0  0  3  0  0  0  0  0  0
  161.9540  211.0180  149.8140 C   0  0  0  0  0  0  0  0  0  0  0  0
  162.5210  211.5960  148.3970 S   0  0  0  0  0  0  0  0  0  0  0  0
  161.3780  211.2370  151.0880 N   0  0  0  0  0  2  0  0  0  0  0  0
  161.6720  209.9260  150.6670 N   0  0  0  0  0  0  0  0  0  0  0  0
  160.7190  207.7940  149.8870 C   0  0  2  0  0  3  0  0  0  0  0  0
  161.4430  207.1600  148.7530 C   0  0  1  0  0  0  0  0  0  0  0  0
  160.8310  208.4190  148.6250 O   0  0  0  0  0  0  0  0  0  0  0  0
  163.4430  208.0690  147.8850 O   0  0  0  0  0  0  0  0  0  0  0  0
  162.9360  207.2540  148.6370 C   0  0  0  0  0  3  0  0  0  0  0  0
  160.6850  206.0740  147.9970 C   0  0  0  0  0  2  0  0  0  0  0  0
  161.5810  204.8920  147.6460 C   0  0  0  0  0  2  0  0  0  0  0  0
  161.8480  204.8240  146.1480 C   0  0  1  0  0  3  0  0  0  0  0  0
  161.6080  203.4790  145.6510 N   0  0  0  0  0  1  0  0  0  0  0  0
  161.2040  205.7490  144.0240 O   0  0  0  0  0  1  0  0  0  0  0  0
  160.9760  205.8220  145.4000 C   0  0  0  0  0  2  0  0  0  0  0  0
  1  4  1  0  0  0  0
  2  1  2  0  0  0  0
  2  5  1  0  0  0  0
  4  3  2  0  0  0  0
  5  6  2  0  0  0  0
  6  3  1  0  0  0  0
  6 14  1  0  0  0  0
  7  8  1  0  0  0  0
  8 11  1  0  0  0  0
  9 12  1  0  0  0  0
 10 11  1  0  0  0  0
 12 10  2  0  0  0  0
 13  9  2  0  0  0  0
 14 13  1  0  0  0  0
 14  8  2  0  0  0  0
 15 12  1  0  0  0  0
 17 16  1  0  0  0  0
 18 20  1  1  0  0  0
 18 16  1  0  0  0  0
 18  1  1  0  0  0  0
 19 21  1  0  0  0  0
 21 20  2  0  0  0  0
 22  2  1  1  0  0  0
 23 26  1  0  0  0  0
 23 25  1  0  0  0  0
 24 23  2  0  0  0  0
 26 22  1  0  0  0  0
 26 25  1  0  0  0  0
 27 22  1  1  0  0  0
 28 32  1  6  0  0  0
 28 27  1  0  0  0  0
 29 28  1  0  0  0  0
 29 27  1  0  0  0  0
 30 31  2  0  0  0  0
 31 28  1  0  0  0  0
 33 32  1  0  0  0  0
 34 35  1  6  0  0  0
 34 33  1  0  0  0  0
 36 37  1  0  0  0  0
 37 34  1  0  0  0  0
M  END
>  <MODEL>
9

>  <REMARK>
 VINA RESULT:      -4.1      4.066      8.454
  Name = 
  11 active torsions:
  status: ('A' for Active; 'I' for Inactive)
    1  A    between atoms: C_2  and  P_36
    2  A    between atoms: C_3  and  C_20
    3  A    between atoms: C_6  and  C_20
    4  A    between atoms: C_14  and  P_36
    5  A    between atoms: C_16  and  CA_24
    6  A    between atoms: C_16  and  C_25
    7  A    between atoms: C_20  and  N_28
    8  A    between atoms: CA_24  and  C_31
    9  A    between atoms: C_25  and  C_34
   10  A    between atoms: C_26  and  C_33
   11  A    between atoms: C_30  and  C_34
                            x       y       z     vdW  Elec       q    Type
                         _______ _______ _______ _____ _____    ______ ____

>  <TORSDO>
F 11

$$$$
