=
 OpenBabel11042420303D

 31 35  0  0  1  0  0  0  0  0999 V2000
  161.4540  205.5130  147.2930 C   0  0  0  0  0  3  0  0  0  0  0  0
  160.9130  202.9400  148.3450 C   0  0  0  0  0  0  0  0  0  0  0  0
  161.7590  208.2900  151.0820 C   0  0  0  0  0  2  0  0  0  0  0  0
  161.1000  205.3370  148.6270 C   0  0  0  0  0  0  0  0  0  0  0  0
  160.9580  206.3290  149.6870 C   0  0  2  0  0  3  0  0  0  0  0  0
  161.2770  203.0930  146.9850 C   0  0  0  0  0  0  0  0  0  0  0  0
  160.5840  201.5980  148.9160 C   0  0  0  0  0  1  0  0  0  0  0  0
  161.2260  203.4370  151.5870 C   0  0  0  0  0  3  0  0  0  0  0  0
  161.2930  207.8080  149.6870 C   0  0  2  0  0  3  0  0  0  0  0  0
  160.4110  204.2080  150.5770 C   0  0  2  0  0  3  0  0  0  0  0  0
  160.8560  204.0820  149.1520 C   0  0  0  0  0  0  0  0  0  0  0  0
  160.5970  205.6800  150.7850 C   0  0  1  0  0  3  0  0  0  0  0  0
  160.8550  206.2410  152.1060 C   0  0  0  0  0  0  0  0  0  0  0  0
  161.5460  204.3820  146.4600 C   0  0  0  0  0  0  0  0  0  0  0  0
  161.6000  203.9950  152.7530 C   0  0  0  0  0  3  0  0  0  0  0  0
  160.9010  207.7290  152.2290 C   0  0  0  0  0  2  0  0  0  0  0  0
  161.3540  205.4330  153.0480 C   0  0  0  0  0  3  0  0  0  0  0  0
  161.3480  201.9010  146.0800 C   0  0  0  0  0  2  0  0  0  0  0  0
  160.0830  201.7970  145.2490 C   0  0  0  0  0  1  0  0  0  0  0  0
  162.3640  208.1440  148.6560 C   0  0  0  0  0  2  0  0  0  0  0  0
  162.6900  209.6280  148.6740 C   0  0  0  0  0  2  0  0  0  0  0  0
  161.5230  210.3960  148.2630 N   0  0  0  0  0  2  0  0  0  0  0  0
  160.4620  213.7540  147.2450 C   0  0  0  0  0  2  0  0  0  0  0  0
  161.5820  211.7870  147.9380 C   0  0  0  0  0  0  0  0  0  0  0  0
  160.4470  212.4320  147.5610 N   0  0  0  0  0  0  0  0  0  0  0  0
  162.7880  212.4950  148.0030 C   0  0  0  0  0  2  0  0  0  0  0  0
  162.7830  213.8490  147.6750 C   0  0  0  0  0  3  0  0  0  0  0  0
  161.6250  214.4530  147.3030 N   0  0  0  0  0  0  0  0  0  0  0  0
  161.9000  204.5150  145.1110 O   0  0  0  0  0  0  0  0  0  0  0  0
  161.2150  205.3810  144.2180 C   0  0  0  0  0  2  0  0  0  0  0  0
  160.0820  205.9820  144.9000 N   0  0  0  0  0  1  0  0  0  0  0  0
  1  4  1  0  0  0  0
  2  7  1  0  0  0  0
  2 11  1  0  0  0  0
  3 16  1  0  0  0  0
  4 11  2  0  0  0  0
  5  4  1  1  0  0  0
  5 12  1  0  0  0  0
  6  2  2  0  0  0  0
  8 15  2  0  0  0  0
  9 20  1  6  0  0  0
  9  5  1  0  0  0  0
  9  3  1  0  0  0  0
 10 12  1  0  0  0  0
 10  8  1  1  0  0  0
 11 10  1  0  0  0  0
 12 13  1  1  0  0  0
 13 16  1  0  0  0  0
 13 17  2  0  0  0  0
 14  6  1  0  0  0  0
 14  1  2  0  0  0  0
 15 17  1  0  0  0  0
 18  6  1  0  0  0  0
 19 18  1  0  0  0  0
 20 21  1  0  0  0  0
 22 21  1  0  0  0  0
 23 28  1  0  0  0  0
 23 25  1  0  0  0  0
 24 26  1  0  0  0  0
 24 22  1  0  0  0  0
 25 24  2  0  0  0  0
 27 26  1  0  0  0  0
 28 27  2  0  0  0  0
 29 14  1  0  0  0  0
 30 31  1  0  0  0  0
 30 29  1  0  0  0  0
M  END
>  <MODEL>
1

>  <REMARK>
 VINA RESULT:      -9.9      0.000      0.000
  Name = 
  6 active torsions:
  status: ('A' for Active; 'I' for Inactive)
    1  A    between atoms: N_2  and  C_27
    2  A    between atoms: C_3  and  C_13
    3  A    between atoms: C_6  and  O_30
    4  A    between atoms: C_16  and  C_25
    5  A    between atoms: C_24  and  O_30
    6  A    between atoms: C_25  and  C_27
                            x       y       z     vdW  Elec       q    Type
                         _______ _______ _______ _____ _____    ______ ____

>  <TORSDO>
F 6

$$$$
=
 OpenBabel11042420303D

 31 35  0  0  1  0  0  0  0  0999 V2000
  161.6660  206.3230  147.5390 C   0  0  0  0  0  3  0  0  0  0  0  0
  161.1890  203.7690  148.6670 C   0  0  0  0  0  0  0  0  0  0  0  0
  161.7050  209.2470  151.2280 C   0  0  0  0  0  2  0  0  0  0  0  0
  161.2660  206.1810  148.8640 C   0  0  0  0  0  0  0  0  0  0  0  0
  161.0420  207.2040  149.8790 C   0  0  2  0  0  3  0  0  0  0  0  0
  161.6000  203.8880  147.3170 C   0  0  0  0  0  0  0  0  0  0  0  0
  160.8920  202.4360  149.2750 C   0  0  0  0  0  1  0  0  0  0  0  0
  161.3500  204.3970  151.8970 C   0  0  0  0  0  3  0  0  0  0  0  0
  161.3160  208.6950  149.8350 C   0  0  2  0  0  3  0  0  0  0  0  0
  160.5460  205.0960  150.8280 C   0  0  2  0  0  3  0  0  0  0  0  0
  161.0530  204.9360  149.4260 C   0  0  0  0  0  0  0  0  0  0  0  0
  160.6640  206.5810  150.9860 C   0  0  1  0  0  3  0  0  0  0  0  0
  160.8450  207.2000  152.2940 C   0  0  0  0  0  0  0  0  0  0  0  0
  161.8380  205.1670  146.7540 C   0  0  0  0  0  0  0  0  0  0  0  0
  161.6540  205.0130  153.0550 C   0  0  0  0  0  3  0  0  0  0  0  0
  160.8250  208.6920  152.3610 C   0  0  0  0  0  2  0  0  0  0  0  0
  161.3380  206.4490  153.2840 C   0  0  0  0  0  3  0  0  0  0  0  0
  161.7560  202.6670  146.4620 C   0  0  0  0  0  2  0  0  0  0  0  0
  160.4740  202.3950  145.6980 C   0  0  0  0  0  1  0  0  0  0  0  0
  162.4130  209.0380  148.8340 C   0  0  0  0  0  2  0  0  0  0  0  0
  162.5470  210.5420  148.6680 C   0  0  0  0  0  2  0  0  0  0  0  0
  161.5100  211.0360  147.7730 N   0  0  0  0  0  2  0  0  0  0  0  0
  159.0420  213.7170  147.3790 C   0  0  0  0  0  3  0  0  0  0  0  0
  160.7430  212.2100  148.0450 C   0  0  0  0  0  0  0  0  0  0  0  0
  159.7930  212.6060  147.1560 N   0  0  0  0  0  0  0  0  0  0  0  0
  160.9510  212.9580  149.2100 C   0  0  0  0  0  3  0  0  0  0  0  0
  160.1720  214.0930  149.4200 C   0  0  0  0  0  3  0  0  0  0  0  0
  159.2340  214.4530  148.5050 N   0  0  0  0  0  0  0  0  0  0  0  0
  162.2400  205.2650  145.4160 O   0  0  0  0  0  0  0  0  0  0  0  0
  161.3560  205.6490  144.3730 C   0  0  0  0  0  2  0  0  0  0  0  0
  160.0870  206.0660  144.9430 N   0  0  0  0  0  1  0  0  0  0  0  0
  1  4  1  0  0  0  0
  2  7  1  0  0  0  0
  2 11  1  0  0  0  0
  3 16  1  0  0  0  0
  4 11  2  0  0  0  0
  5  4  1  1  0  0  0
  5 12  1  0  0  0  0
  6  2  2  0  0  0  0
  8 15  2  0  0  0  0
  9 20  1  6  0  0  0
  9  5  1  0  0  0  0
  9  3  1  0  0  0  0
 10 12  1  0  0  0  0
 10  8  1  1  0  0  0
 11 10  1  0  0  0  0
 12 13  1  1  0  0  0
 13 16  1  0  0  0  0
 13 17  2  0  0  0  0
 14  6  1  0  0  0  0
 14  1  2  0  0  0  0
 15 17  1  0  0  0  0
 18  6  1  0  0  0  0
 19 18  1  0  0  0  0
 21 20  1  0  0  0  0
 22 24  1  0  0  0  0
 22 21  1  0  0  0  0
 23 28  2  0  0  0  0
 24 26  1  0  0  0  0
 25 23  1  0  0  0  0
 25 24  2  0  0  0  0
 26 27  2  0  0  0  0
 28 27  1  0  0  0  0
 29 14  1  0  0  0  0
 30 31  1  0  0  0  0
 30 29  1  0  0  0  0
M  END
>  <MODEL>
2

>  <REMARK>
 VINA RESULT:      -9.5      1.100      1.215
  Name = 
  6 active torsions:
  status: ('A' for Active; 'I' for Inactive)
    1  A    between atoms: N_2  and  C_27
    2  A    between atoms: C_3  and  C_13
    3  A    between atoms: C_6  and  O_30
    4  A    between atoms: C_16  and  C_25
    5  A    between atoms: C_24  and  O_30
    6  A    between atoms: C_25  and  C_27
                            x       y       z     vdW  Elec       q    Type
                         _______ _______ _______ _____ _____    ______ ____

>  <TORSDO>
F 6

$$$$
=
 OpenBabel11042420303D

 31 35  0  0  1  0  0  0  0  0999 V2000
  161.5610  209.0780  151.5980 C   0  0  0  0  0  3  0  0  0  0  0  0
  161.0380  207.0100  153.4620 C   0  0  0  0  0  0  0  0  0  0  0  0
  161.8050  206.8790  147.4430 C   0  0  0  0  0  2  0  0  0  0  0  0
  161.6720  207.7380  151.2410 C   0  0  0  0  0  0  0  0  0  0  0  0
  162.0260  207.1470  149.9550 C   0  0  2  0  0  3  0  0  0  0  0  0
  160.9140  208.3670  153.8470 C   0  0  0  0  0  0  0  0  0  0  0  0
  160.8070  205.9000  154.4360 C   0  0  0  0  0  1  0  0  0  0  0  0
  160.5410  204.4140  151.4950 C   0  0  0  0  0  3  0  0  0  0  0  0
  162.2330  207.8070  148.6050 C   0  0  2  0  0  3  0  0  0  0  0  0
  161.6870  205.3960  151.5080 C   0  0  2  0  0  3  0  0  0  0  0  0
  161.3970  206.7240  152.1400 C   0  0  0  0  0  0  0  0  0  0  0  0
  162.0050  205.8310  150.1100 C   0  0  1  0  0  3  0  0  0  0  0  0
  161.8070  204.9450  148.9680 C   0  0  0  0  0  0  0  0  0  0  0  0
  161.1760  209.4010  152.9140 C   0  0  0  0  0  0  0  0  0  0  0  0
  160.2520  203.6950  150.3940 C   0  0  0  0  0  3  0  0  0  0  0  0
  162.2710  205.4250  147.6320 C   0  0  0  0  0  2  0  0  0  0  0  0
  160.9500  203.9280  149.1010 C   0  0  0  0  0  3  0  0  0  0  0  0
  160.5360  208.7240  155.2530 C   0  0  0  0  0  2  0  0  0  0  0  0
  161.7810  208.9730  156.0830 C   0  0  0  0  0  1  0  0  0  0  0  0
  161.4760  209.1260  148.5000 C   0  0  0  0  0  2  0  0  0  0  0  0
  162.4380  210.2980  148.3950 C   0  0  0  0  0  2  0  0  0  0  0  0
  161.8930  211.4500  149.1000 N   0  0  0  0  0  2  0  0  0  0  0  0
  159.8350  214.4440  148.6230 C   0  0  0  0  0  2  0  0  0  0  0  0
  161.0810  212.4380  148.4630 C   0  0  0  0  0  0  0  0  0  0  0  0
  160.6090  213.4830  149.1930 N   0  0  0  0  0  0  0  0  0  0  0  0
  160.7650  212.3480  147.1020 C   0  0  0  0  0  2  0  0  0  0  0  0
  159.9700  213.3430  146.5370 C   0  0  0  0  0  3  0  0  0  0  0  0
  159.5190  214.3700  147.3030 N   0  0  0  0  0  0  0  0  0  0  0  0
  161.0530  210.7370  153.3140 O   0  0  0  0  0  0  0  0  0  0  0  0
  160.2300  211.6720  152.6300 C   0  0  0  0  0  2  0  0  0  0  0  0
  158.8360  211.3040  152.8000 N   0  0  0  0  0  1  0  0  0  0  0  0
  1 14  1  0  0  0  0
  2  6  1  0  0  0  0
  2  7  1  0  0  0  0
  3 16  1  0  0  0  0
  3  9  1  0  0  0  0
  4  1  2  0  0  0  0
  4 11  1  0  0  0  0
  5 12  1  0  0  0  0
  5  4  1  6  0  0  0
  6 18  1  0  0  0  0
  9 20  1  1  0  0  0
  9  5  1  0  0  0  0
 10  8  1  6  0  0  0
 10 11  1  0  0  0  0
 11  2  2  0  0  0  0
 12 13  1  6  0  0  0
 12 10  1  0  0  0  0
 13 17  2  0  0  0  0
 14 29  1  0  0  0  0
 14  6  2  0  0  0  0
 15  8  2  0  0  0  0
 16 13  1  0  0  0  0
 17 15  1  0  0  0  0
 18 19  1  0  0  0  0
 21 20  1  0  0  0  0
 21 22  1  0  0  0  0
 23 25  1  0  0  0  0
 24 22  1  0  0  0  0
 24 25  2  0  0  0  0
 26 24  1  0  0  0  0
 27 26  1  0  0  0  0
 27 28  2  0  0  0  0
 28 23  1  0  0  0  0
 30 31  1  0  0  0  0
 30 29  1  0  0  0  0
M  END
>  <MODEL>
3

>  <REMARK>
 VINA RESULT:      -8.2      2.873      5.768
  Name = 
  6 active torsions:
  status: ('A' for Active; 'I' for Inactive)
    1  A    between atoms: N_2  and  C_27
    2  A    between atoms: C_3  and  C_13
    3  A    between atoms: C_6  and  O_30
    4  A    between atoms: C_16  and  C_25
    5  A    between atoms: C_24  and  O_30
    6  A    between atoms: C_25  and  C_27
                            x       y       z     vdW  Elec       q    Type
                         _______ _______ _______ _____ _____    ______ ____

>  <TORSDO>
F 6

$$$$
=
 OpenBabel11042420303D

 31 35  0  0  1  0  0  0  0  0999 V2000
  161.8030  208.7180  150.7230 C   0  0  0  0  0  3  0  0  0  0  0  0
  161.1660  211.4770  150.7030 C   0  0  0  0  0  0  0  0  0  0  0  0
  160.2040  207.1730  154.8730 C   0  0  0  0  0  2  0  0  0  0  0  0
  161.3780  209.3700  151.8760 C   0  0  0  0  0  0  0  0  0  0  0  0
  161.1650  208.8370  153.2170 C   0  0  2  0  0  3  0  0  0  0  0  0
  161.5910  210.8340  149.5150 C   0  0  0  0  0  0  0  0  0  0  0  0
  160.8610  212.9410  150.7290 C   0  0  0  0  0  1  0  0  0  0  0  0
  159.3530  211.7890  153.4370 C   0  0  0  0  0  3  0  0  0  0  0  0
  161.2030  207.4040  153.7130 C   0  0  2  0  0  3  0  0  0  0  0  0
  160.7130  211.1580  153.2600 C   0  0  2  0  0  3  0  0  0  0  0  0
  161.0450  210.7110  151.8680 C   0  0  0  0  0  0  0  0  0  0  0  0
  160.7650  209.8450  153.9800 C   0  0  1  0  0  3  0  0  0  0  0  0
  159.9950  209.6060  155.1950 C   0  0  0  0  0  0  0  0  0  0  0  0
  161.9110  209.4530  149.5270 C   0  0  0  0  0  0  0  0  0  0  0  0
  158.5650  211.4650  154.4790 C   0  0  0  0  0  3  0  0  0  0  0  0
  160.2120  208.3120  155.9080 C   0  0  0  0  0  2  0  0  0  0  0  0
  158.9250  210.3750  155.4250 C   0  0  0  0  0  3  0  0  0  0  0  0
  161.7400  211.6130  148.2430 C   0  0  0  0  0  2  0  0  0  0  0  0
  163.1400  212.1880  148.1420 C   0  0  0  0  0  1  0  0  0  0  0  0
  160.9100  206.4120  152.5930 C   0  0  0  0  0  2  0  0  0  0  0  0
  162.0990  205.4980  152.3530 C   0  0  0  0  0  2  0  0  0  0  0  0
  161.6480  204.1170  152.2510 N   0  0  0  0  0  2  0  0  0  0  0  0
  160.5410  201.5900  149.8370 C   0  0  0  0  0  2  0  0  0  0  0  0
  161.2960  203.5040  151.0090 C   0  0  0  0  0  0  0  0  0  0  0  0
  160.8860  202.2080  150.9980 N   0  0  0  0  0  0  0  0  0  0  0  0
  161.3650  204.2150  149.8050 C   0  0  0  0  0  2  0  0  0  0  0  0
  161.0080  203.5640  148.6260 C   0  0  0  0  0  3  0  0  0  0  0  0
  160.6040  202.2680  148.6620 N   0  0  0  0  0  0  0  0  0  0  0  0
  162.3340  208.8350  148.3440 O   0  0  0  0  0  0  0  0  0  0  0  0
  162.4280  207.4240  148.2040 C   0  0  0  0  0  2  0  0  0  0  0  0
  161.3140  206.9420  147.4070 N   0  0  0  0  0  1  0  0  0  0  0  0
  1  4  1  0  0  0  0
  2  7  1  0  0  0  0
  2 11  1  0  0  0  0
  3 16  1  0  0  0  0
  5  4  1  6  0  0  0
  5  9  1  0  0  0  0
  5 12  1  0  0  0  0
  6 14  1  0  0  0  0
  6  2  2  0  0  0  0
  8 15  2  0  0  0  0
  9 20  1  6  0  0  0
  9  3  1  0  0  0  0
 10  8  1  6  0  0  0
 10 12  1  0  0  0  0
 11  4  2  0  0  0  0
 11 10  1  0  0  0  0
 12 13  1  6  0  0  0
 13 17  2  0  0  0  0
 13 16  1  0  0  0  0
 14  1  2  0  0  0  0
 15 17  1  0  0  0  0
 18  6  1  0  0  0  0
 19 18  1  0  0  0  0
 21 20  1  0  0  0  0
 22 21  1  0  0  0  0
 23 25  1  0  0  0  0
 24 22  1  0  0  0  0
 25 24  2  0  0  0  0
 26 24  1  0  0  0  0
 27 28  2  0  0  0  0
 27 26  1  0  0  0  0
 28 23  1  0  0  0  0
 29 14  1  0  0  0  0
 30 29  1  0  0  0  0
 31 30  1  0  0  0  0
M  END
>  <MODEL>
4

>  <REMARK>
 VINA RESULT:      -8.0      3.293      7.707
  Name = 
  6 active torsions:
  status: ('A' for Active; 'I' for Inactive)
    1  A    between atoms: N_2  and  C_27
    2  A    between atoms: C_3  and  C_13
    3  A    between atoms: C_6  and  O_30
    4  A    between atoms: C_16  and  C_25
    5  A    between atoms: C_24  and  O_30
    6  A    between atoms: C_25  and  C_27
                            x       y       z     vdW  Elec       q    Type
                         _______ _______ _______ _____ _____    ______ ____

>  <TORSDO>
F 6

$$$$
=
 OpenBabel11042420303D

 31 35  0  0  1  0  0  0  0  0999 V2000
  161.3770  205.9580  147.7820 C   0  0  0  0  0  3  0  0  0  0  0  0
  161.0130  203.1510  147.8580 C   0  0  0  0  0  0  0  0  0  0  0  0
  161.5200  207.2460  152.3080 C   0  0  0  0  0  2  0  0  0  0  0  0
  161.0430  205.3040  148.9640 C   0  0  0  0  0  0  0  0  0  0  0  0
  160.8430  205.8510  150.3010 C   0  0  2  0  0  3  0  0  0  0  0  0
  161.3580  203.7940  146.6440 C   0  0  0  0  0  0  0  0  0  0  0  0
  160.7770  201.6760  147.9170 C   0  0  0  0  0  1  0  0  0  0  0  0
  161.3120  202.4990  151.0740 C   0  0  0  0  0  3  0  0  0  0  0  0
  161.0790  207.2550  150.8250 C   0  0  2  0  0  3  0  0  0  0  0  0
  160.4420  203.5210  150.3830 C   0  0  2  0  0  3  0  0  0  0  0  0
  160.8850  203.9320  149.0120 C   0  0  0  0  0  0  0  0  0  0  0  0
  160.5320  204.8360  151.0960 C   0  0  1  0  0  3  0  0  0  0  0  0
  160.7590  204.9140  152.5350 C   0  0  0  0  0  0  0  0  0  0  0  0
  161.5390  205.1990  146.6080 C   0  0  0  0  0  0  0  0  0  0  0  0
  161.6550  202.6370  152.3680 C   0  0  0  0  0  3  0  0  0  0  0  0
  160.7080  206.2640  153.1710 C   0  0  0  0  0  2  0  0  0  0  0  0
  161.3160  203.8610  153.1430 C   0  0  0  0  0  3  0  0  0  0  0  0
  161.5030  203.0010  145.3800 C   0  0  0  0  0  2  0  0  0  0  0  0
  160.1400  202.5610  144.8790 C   0  0  0  0  0  1  0  0  0  0  0  0
  162.1190  207.9980  149.9960 C   0  0  0  0  0  2  0  0  0  0  0  0
  162.6180  209.2320  150.7290 C   0  0  0  0  0  2  0  0  0  0  0  0
  161.5390  210.2010  150.8580 N   0  0  0  0  0  2  0  0  0  0  0  0
  159.6510  212.1390  153.3310 C   0  0  0  0  0  3  0  0  0  0  0  0
  161.1060  210.7190  152.1170 C   0  0  0  0  0  0  0  0  0  0  0  0
  160.0920  211.6240  152.1530 N   0  0  0  0  0  0  0  0  0  0  0  0
  161.7070  210.3110  153.3140 C   0  0  0  0  0  3  0  0  0  0  0  0
  161.2410  210.8510  154.5110 C   0  0  0  0  0  3  0  0  0  0  0  0
  160.2250  211.7520  154.4990 N   0  0  0  0  0  0  0  0  0  0  0  0
  161.8750  205.8190  145.3970 O   0  0  0  0  0  0  0  0  0  0  0  0
  160.9010  206.2640  144.4640 C   0  0  0  0  0  2  0  0  0  0  0  0
  161.2440  205.7820  143.1390 N   0  0  0  0  0  1  0  0  0  0  0  0
  1  4  1  0  0  0  0
  2  7  1  0  0  0  0
  2 11  1  0  0  0  0
  3 16  1  0  0  0  0
  4 11  2  0  0  0  0
  5  4  1  1  0  0  0
  5  9  1  0  0  0  0
  5 12  1  0  0  0  0
  6  2  2  0  0  0  0
  8 15  2  0  0  0  0
  9 20  1  6  0  0  0
  9  3  1  0  0  0  0
 10  8  1  1  0  0  0
 10 12  1  0  0  0  0
 11 10  1  0  0  0  0
 12 13  1  1  0  0  0
 13 17  2  0  0  0  0
 13 16  1  0  0  0  0
 14  6  1  0  0  0  0
 14  1  2  0  0  0  0
 15 17  1  0  0  0  0
 18  6  1  0  0  0  0
 19 18  1  0  0  0  0
 20 21  1  0  0  0  0
 21 22  1  0  0  0  0
 22 24  1  0  0  0  0
 23 28  2  0  0  0  0
 24 25  2  0  0  0  0
 24 26  1  0  0  0  0
 25 23  1  0  0  0  0
 26 27  2  0  0  0  0
 28 27  1  0  0  0  0
 29 14  1  0  0  0  0
 30 29  1  0  0  0  0
 31 30  1  0  0  0  0
M  END
>  <MODEL>
5

>  <REMARK>
 VINA RESULT:      -7.9      2.401      2.990
  Name = 
  6 active torsions:
  status: ('A' for Active; 'I' for Inactive)
    1  A    between atoms: N_2  and  C_27
    2  A    between atoms: C_3  and  C_13
    3  A    between atoms: C_6  and  O_30
    4  A    between atoms: C_16  and  C_25
    5  A    between atoms: C_24  and  O_30
    6  A    between atoms: C_25  and  C_27
                            x       y       z     vdW  Elec       q    Type
                         _______ _______ _______ _____ _____    ______ ____

>  <TORSDO>
F 6

$$$$
=
 OpenBabel11042420303D

 31 35  0  0  1  0  0  0  0  0999 V2000
  160.7740  210.9320  151.2240 C   0  0  0  0  0  3  0  0  0  0  0  0
  159.8030  212.0000  153.6600 C   0  0  0  0  0  0  0  0  0  0  0  0
  161.5770  206.3900  152.1700 C   0  0  0  0  0  2  0  0  0  0  0  0
  160.8540  210.2120  152.4120 C   0  0  0  0  0  0  0  0  0  0  0  0
  161.3820  208.8730  152.6510 C   0  0  2  0  0  3  0  0  0  0  0  0
  159.7060  212.7500  152.4630 C   0  0  0  0  0  0  0  0  0  0  0  0
  159.3350  212.5560  154.9670 C   0  0  0  0  0  1  0  0  0  0  0  0
  159.4750  209.2990  155.5190 C   0  0  0  0  0  3  0  0  0  0  0  0
  161.8610  207.8250  151.6640 C   0  0  2  0  0  3  0  0  0  0  0  0
  160.6660  209.7690  154.7190 C   0  0  2  0  0  3  0  0  0  0  0  0
  160.3620  210.7190  153.6000 C   0  0  0  0  0  0  0  0  0  0  0  0
  161.2460  208.6240  153.9460 C   0  0  1  0  0  3  0  0  0  0  0  0
  161.1880  207.2540  154.4440 C   0  0  0  0  0  0  0  0  0  0  0  0
  160.1930  212.2140  151.2450 C   0  0  0  0  0  0  0  0  0  0  0  0
  159.3310  208.0050  155.8600 C   0  0  0  0  0  3  0  0  0  0  0  0
  161.9040  206.2030  153.6620 C   0  0  0  0  0  2  0  0  0  0  0  0
  160.2540  206.9540  155.3520 C   0  0  0  0  0  3  0  0  0  0  0  0
  159.1190  214.1280  152.4770 C   0  0  0  0  0  2  0  0  0  0  0  0
  157.6360  214.0700  152.1620 C   0  0  0  0  0  1  0  0  0  0  0  0
  161.2240  208.0090  150.2920 C   0  0  0  0  0  2  0  0  0  0  0  0
  161.1120  206.6820  149.5620 C   0  0  0  0  0  2  0  0  0  0  0  0
  160.8320  206.9140  148.1520 N   0  0  0  0  0  2  0  0  0  0  0  0
  160.8530  205.2730  144.8750 C   0  0  0  0  0  3  0  0  0  0  0  0
  160.9940  205.9070  147.1510 C   0  0  0  0  0  0  0  0  0  0  0  0
  160.7100  206.2030  145.8550 N   0  0  0  0  0  0  0  0  0  0  0  0
  161.4420  204.6220  147.4820 C   0  0  0  0  0  3  0  0  0  0  0  0
  161.5810  203.6830  146.4630 C   0  0  0  0  0  3  0  0  0  0  0  0
  161.2850  204.0230  145.1810 N   0  0  0  0  0  0  0  0  0  0  0  0
  160.0930  212.9720  150.0710 O   0  0  0  0  0  0  0  0  0  0  0  0
  161.1740  213.1290  149.1620 C   0  0  0  0  0  2  0  0  0  0  0  0
  160.8250  212.5280  147.8870 N   0  0  0  0  0  1  0  0  0  0  0  0
  1 14  2  0  0  0  0
  1  4  1  0  0  0  0
  2  7  1  0  0  0  0
  3 16  1  0  0  0  0
  4 11  2  0  0  0  0
  5  4  1  6  0  0  0
  5 12  1  0  0  0  0
  6 18  1  0  0  0  0
  6  2  2  0  0  0  0
  8 15  2  0  0  0  0
  9 20  1  6  0  0  0
  9  3  1  0  0  0  0
  9  5  1  0  0  0  0
 10  8  1  6  0  0  0
 11  2  1  0  0  0  0
 11 10  1  0  0  0  0
 12 13  1  6  0  0  0
 12 10  1  0  0  0  0
 13 17  2  0  0  0  0
 14  6  1  0  0  0  0
 16 13  1  0  0  0  0
 17 15  1  0  0  0  0
 19 18  1  0  0  0  0
 21 20  1  0  0  0  0
 22 21  1  0  0  0  0
 23 28  2  0  0  0  0
 23 25  1  0  0  0  0
 24 26  1  0  0  0  0
 24 22  1  0  0  0  0
 25 24  2  0  0  0  0
 27 26  2  0  0  0  0
 28 27  1  0  0  0  0
 29 14  1  0  0  0  0
 30 29  1  0  0  0  0
 31 30  1  0  0  0  0
M  END
>  <MODEL>
6

>  <REMARK>
 VINA RESULT:      -7.9      3.444      7.888
  Name = 
  6 active torsions:
  status: ('A' for Active; 'I' for Inactive)
    1  A    between atoms: N_2  and  C_27
    2  A    between atoms: C_3  and  C_13
    3  A    between atoms: C_6  and  O_30
    4  A    between atoms: C_16  and  C_25
    5  A    between atoms: C_24  and  O_30
    6  A    between atoms: C_25  and  C_27
                            x       y       z     vdW  Elec       q    Type
                         _______ _______ _______ _____ _____    ______ ____

>  <TORSDO>
F 6

$$$$
=
 OpenBabel11042420303D

 31 35  0  0  1  0  0  0  0  0999 V2000
  161.4600  208.0580  151.6940 C   0  0  0  0  0  3  0  0  0  0  0  0
  161.6950  208.7630  148.9610 C   0  0  0  0  0  0  0  0  0  0  0  0
  161.0920  203.3650  151.6690 C   0  0  0  0  0  2  0  0  0  0  0  0
  161.2110  207.1330  150.6850 C   0  0  0  0  0  0  0  0  0  0  0  0
  160.8300  205.7290  150.7880 C   0  0  2  0  0  3  0  0  0  0  0  0
  161.9590  209.7200  149.9700 C   0  0  0  0  0  0  0  0  0  0  0  0
  161.7730  209.1190  147.5110 C   0  0  0  0  0  1  0  0  0  0  0  0
  161.9570  205.8180  147.5060 C   0  0  0  0  0  3  0  0  0  0  0  0
  160.7370  204.8330  152.0080 C   0  0  2  0  0  3  0  0  0  0  0  0
  160.9270  206.3050  148.4960 C   0  0  2  0  0  3  0  0  0  0  0  0
  161.3450  207.4650  149.3490 C   0  0  0  0  0  0  0  0  0  0  0  0
  160.7000  205.2670  149.5520 C   0  0  1  0  0  3  0  0  0  0  0  0
  160.8310  203.8420  149.2670 C   0  0  0  0  0  0  0  0  0  0  0  0
  161.8400  209.3660  151.3370 C   0  0  0  0  0  0  0  0  0  0  0  0
  162.1950  204.5030  147.3390 C   0  0  0  0  0  3  0  0  0  0  0  0
  160.4620  202.8840  150.3510 C   0  0  0  0  0  2  0  0  0  0  0  0
  161.5660  203.4760  148.2120 C   0  0  0  0  0  3  0  0  0  0  0  0
  162.3340  211.1250  149.6040 C   0  0  0  0  0  2  0  0  0  0  0  0
  161.0860  211.9670  149.4150 C   0  0  0  0  0  1  0  0  0  0  0  0
  161.6380  205.3200  153.1360 C   0  0  0  0  0  2  0  0  0  0  0  0
  160.8240  205.9840  154.2350 C   0  0  0  0  0  2  0  0  0  0  0  0
  161.6660  206.9030  154.9880 N   0  0  0  0  0  2  0  0  0  0  0  0
  161.5500  209.9520  157.0190 C   0  0  0  0  0  3  0  0  0  0  0  0
  161.1500  208.0460  155.6730 C   0  0  0  0  0  0  0  0  0  0  0  0
  162.0030  208.8550  156.3560 N   0  0  0  0  0  0  0  0  0  0  0  0
  159.7830  208.3470  155.6510 C   0  0  0  0  0  3  0  0  0  0  0  0
  159.3390  209.4750  156.3380 C   0  0  0  0  0  3  0  0  0  0  0  0
  160.2260  210.2560  157.0080 N   0  0  0  0  0  0  0  0  0  0  0  0
  162.1000  210.3280  152.3220 O   0  0  0  0  0  0  0  0  0  0  0  0
  161.1430  210.7050  153.3020 C   0  0  0  0  0  2  0  0  0  0  0  0
  159.8940  211.0550  152.6490 N   0  0  0  0  0  1  0  0  0  0  0  0
  2 11  2  0  0  0  0
  2  6  1  0  0  0  0
  3  9  1  0  0  0  0
  4  1  2  0  0  0  0
  5  4  1  6  0  0  0
  5  9  1  0  0  0  0
  6 14  2  0  0  0  0
  7  2  1  0  0  0  0
  9 20  1  1  0  0  0
 10  8  1  6  0  0  0
 10 11  1  0  0  0  0
 10 12  1  0  0  0  0
 11  4  1  0  0  0  0
 12 13  1  6  0  0  0
 12  5  1  0  0  0  0
 13 16  1  0  0  0  0
 14  1  1  0  0  0  0
 14 29  1  0  0  0  0
 15  8  2  0  0  0  0
 15 17  1  0  0  0  0
 16  3  1  0  0  0  0
 17 13  2  0  0  0  0
 18  6  1  0  0  0  0
 19 18  1  0  0  0  0
 20 21  1  0  0  0  0
 21 22  1  0  0  0  0
 22 24  1  0  0  0  0
 24 25  2  0  0  0  0
 25 23  1  0  0  0  0
 26 24  1  0  0  0  0
 26 27  2  0  0  0  0
 27 28  1  0  0  0  0
 28 23  2  0  0  0  0
 29 30  1  0  0  0  0
 31 30  1  0  0  0  0
M  END
>  <MODEL>
7

>  <REMARK>
 VINA RESULT:      -7.7      3.693      7.259
  Name = 
  6 active torsions:
  status: ('A' for Active; 'I' for Inactive)
    1  A    between atoms: N_2  and  C_27
    2  A    between atoms: C_3  and  C_13
    3  A    between atoms: C_6  and  O_30
    4  A    between atoms: C_16  and  C_25
    5  A    between atoms: C_24  and  O_30
    6  A    between atoms: C_25  and  C_27
                            x       y       z     vdW  Elec       q    Type
                         _______ _______ _______ _____ _____    ______ ____

>  <TORSDO>
F 6

$$$$
=
 OpenBabel11042420303D

 31 35  0  0  1  0  0  0  0  0999 V2000
  161.3760  206.7750  148.7480 C   0  0  0  0  0  3  0  0  0  0  0  0
  161.0480  204.3550  150.1820 C   0  0  0  0  0  0  0  0  0  0  0  0
  161.7660  210.0730  152.0840 C   0  0  0  0  0  2  0  0  0  0  0  0
  161.1180  206.7740  150.1150 C   0  0  0  0  0  0  0  0  0  0  0  0
  160.9890  207.8980  151.0340 C   0  0  2  0  0  3  0  0  0  0  0  0
  161.3150  204.3300  148.7910 C   0  0  0  0  0  0  0  0  0  0  0  0
  160.8310  203.0940  150.9550 C   0  0  0  0  0  1  0  0  0  0  0  0
  161.5380  205.3210  153.2930 C   0  0  0  0  0  3  0  0  0  0  0  0
  161.2400  209.3770  150.8050 C   0  0  2  0  0  3  0  0  0  0  0  0
  160.6180  205.9020  152.2470 C   0  0  2  0  0  3  0  0  0  0  0  0
  160.9780  205.5960  150.8240 C   0  0  0  0  0  0  0  0  0  0  0  0
  160.7350  207.3960  152.2350 C   0  0  1  0  0  3  0  0  0  0  0  0
  161.0440  208.1500  153.4440 C   0  0  0  0  0  0  0  0  0  0  0  0
  161.4780  205.5420  148.0750 C   0  0  0  0  0  0  0  0  0  0  0  0
  161.9530  206.0560  154.3410 C   0  0  0  0  0  3  0  0  0  0  0  0
  161.0150  209.6410  153.3560 C   0  0  0  0  0  2  0  0  0  0  0  0
  161.6460  207.5080  154.4510 C   0  0  0  0  0  3  0  0  0  0  0  0
  161.3950  203.0260  148.0570 C   0  0  0  0  0  2  0  0  0  0  0  0
  160.0660  202.2980  148.1350 C   0  0  0  0  0  1  0  0  0  0  0  0
  162.2230  209.6120  149.6650 C   0  0  0  0  0  2  0  0  0  0  0  0
  161.5710  210.3940  148.5380 C   0  0  0  0  0  2  0  0  0  0  0  0
  162.4320  211.4990  148.1390 N   0  0  0  0  0  2  0  0  0  0  0  0
  162.5580  214.4530  145.9730 C   0  0  0  0  0  3  0  0  0  0  0  0
  162.0350  212.4910  147.1900 C   0  0  0  0  0  0  0  0  0  0  0  0
  162.8980  213.4920  146.8720 N   0  0  0  0  0  0  0  0  0  0  0  0
  160.7750  212.4480  146.5820 C   0  0  0  0  0  3  0  0  0  0  0  0
  160.4450  213.4420  145.6640 C   0  0  0  0  0  3  0  0  0  0  0  0
  161.3380  214.4250  145.3760 N   0  0  0  0  0  0  0  0  0  0  0  0
  161.7380  205.4990  146.6990 O   0  0  0  0  0  0  0  0  0  0  0  0
  160.8600  206.0570  145.7320 C   0  0  0  0  0  2  0  0  0  0  0  0
  161.3450  205.7450  144.4000 N   0  0  0  0  0  1  0  0  0  0  0  0
  1  4  1  0  0  0  0
  2 11  1  0  0  0  0
  2  7  1  0  0  0  0
  3 16  1  0  0  0  0
  4 11  2  0  0  0  0
  5  4  1  1  0  0  0
  5 12  1  0  0  0  0
  6  2  2  0  0  0  0
  8 15  2  0  0  0  0
  9 20  1  6  0  0  0
  9  5  1  0  0  0  0
  9  3  1  0  0  0  0
 10  8  1  1  0  0  0
 11 10  1  0  0  0  0
 12 10  1  0  0  0  0
 12 13  1  1  0  0  0
 13 17  2  0  0  0  0
 14  1  2  0  0  0  0
 14  6  1  0  0  0  0
 15 17  1  0  0  0  0
 16 13  1  0  0  0  0
 18 19  1  0  0  0  0
 18  6  1  0  0  0  0
 21 20  1  0  0  0  0
 22 21  1  0  0  0  0
 23 25  1  0  0  0  0
 24 22  1  0  0  0  0
 25 24  2  0  0  0  0
 26 24  1  0  0  0  0
 27 26  2  0  0  0  0
 28 27  1  0  0  0  0
 28 23  2  0  0  0  0
 29 14  1  0  0  0  0
 30 29  1  0  0  0  0
 31 30  1  0  0  0  0
M  END
>  <MODEL>
8

>  <REMARK>
 VINA RESULT:      -7.7      1.367      2.207
  Name = 
  6 active torsions:
  status: ('A' for Active; 'I' for Inactive)
    1  A    between atoms: N_2  and  C_27
    2  A    between atoms: C_3  and  C_13
    3  A    between atoms: C_6  and  O_30
    4  A    between atoms: C_16  and  C_25
    5  A    between atoms: C_24  and  O_30
    6  A    between atoms: C_25  and  C_27
                            x       y       z     vdW  Elec       q    Type
                         _______ _______ _______ _____ _____    ______ ____

>  <TORSDO>
F 6

$$$$
=
 OpenBabel11042420303D

 31 35  0  0  1  0  0  0  0  0999 V2000
  161.3540  210.7800  150.5890 C   0  0  0  0  0  3  0  0  0  0  0  0
  160.1750  212.0000  152.8570 C   0  0  0  0  0  0  0  0  0  0  0  0
  161.9590  206.2860  151.8530 C   0  0  0  0  0  2  0  0  0  0  0  0
  161.3020  210.1270  151.8160 C   0  0  0  0  0  0  0  0  0  0  0  0
  161.7740  208.7950  152.1770 C   0  0  2  0  0  3  0  0  0  0  0  0
  160.2110  212.6830  151.6170 C   0  0  0  0  0  0  0  0  0  0  0  0
  159.5950  212.6360  154.0790 C   0  0  0  0  0  1  0  0  0  0  0  0
  159.6080  209.4130  154.8180 C   0  0  0  0  0  3  0  0  0  0  0  0
  162.3230  207.6860  151.3010 C   0  0  2  0  0  3  0  0  0  0  0  0
  160.8810  209.8170  154.1140 C   0  0  2  0  0  3  0  0  0  0  0  0
  160.7080  210.7080  152.9210 C   0  0  0  0  0  0  0  0  0  0  0  0
  161.5080  208.6210  153.4650 C   0  0  1  0  0  3  0  0  0  0  0  0
  161.3710  207.2830  154.0270 C   0  0  0  0  0  0  0  0  0  0  0  0
  160.8030  212.0720  150.4830 C   0  0  0  0  0  0  0  0  0  0  0  0
  159.4030  208.1430  155.2120 C   0  0  0  0  0  3  0  0  0  0  0  0
  162.1360  206.1770  153.3770 C   0  0  0  0  0  2  0  0  0  0  0  0
  160.3460  207.0490  154.8550 C   0  0  0  0  0  3  0  0  0  0  0  0
  159.6560  214.0700  151.4990 C   0  0  0  0  0  2  0  0  0  0  0  0
  158.2130  214.0190  151.0350 C   0  0  0  0  0  1  0  0  0  0  0  0
  161.8260  207.8030  149.8650 C   0  0  0  0  0  2  0  0  0  0  0  0
  160.7530  206.7680  149.5740 C   0  0  0  0  0  2  0  0  0  0  0  0
  161.1100  206.0060  148.3850 N   0  0  0  0  0  2  0  0  0  0  0  0
  161.4220  202.5850  147.1090 C   0  0  0  0  0  3  0  0  0  0  0  0
  161.0860  204.5780  148.3410 C   0  0  0  0  0  0  0  0  0  0  0  0
  161.4310  203.9410  147.1900 N   0  0  0  0  0  0  0  0  0  0  0  0
  160.7140  203.8250  149.4610 C   0  0  0  0  0  3  0  0  0  0  0  0
  160.7100  202.4360  149.3570 C   0  0  0  0  0  3  0  0  0  0  0  0
  161.0620  201.8410  148.1870 N   0  0  0  0  0  0  0  0  0  0  0  0
  160.8340  212.7640  149.2660 O   0  0  0  0  0  0  0  0  0  0  0  0
  161.4880  212.2600  148.1100 C   0  0  0  0  0  2  0  0  0  0  0  0
  160.5070  212.0050  147.0710 N   0  0  0  0  0  1  0  0  0  0  0  0
  1  4  1  0  0  0  0
  2 11  1  0  0  0  0
  2  7  1  0  0  0  0
  3 16  1  0  0  0  0
  4 11  2  0  0  0  0
  5  4  1  6  0  0  0
  5 12  1  0  0  0  0
  6  2  2  0  0  0  0
  8 15  2  0  0  0  0
  9 20  1  6  0  0  0
  9  3  1  0  0  0  0
  9  5  1  0  0  0  0
 10  8  1  6  0  0  0
 11 10  1  0  0  0  0
 12 13  1  6  0  0  0
 12 10  1  0  0  0  0
 13 17  2  0  0  0  0
 14  1  2  0  0  0  0
 14  6  1  0  0  0  0
 16 13  1  0  0  0  0
 17 15  1  0  0  0  0
 18  6  1  0  0  0  0
 19 18  1  0  0  0  0
 21 20  1  0  0  0  0
 22 21  1  0  0  0  0
 23 25  1  0  0  0  0
 23 28  2  0  0  0  0
 24 22  1  0  0  0  0
 24 26  1  0  0  0  0
 25 24  2  0  0  0  0
 27 26  2  0  0  0  0
 28 27  1  0  0  0  0
 29 14  1  0  0  0  0
 30 29  1  0  0  0  0
 31 30  1  0  0  0  0
M  END
>  <MODEL>
9

>  <REMARK>
 VINA RESULT:      -7.3      3.222      7.972
  Name = 
  6 active torsions:
  status: ('A' for Active; 'I' for Inactive)
    1  A    between atoms: N_2  and  C_27
    2  A    between atoms: C_3  and  C_13
    3  A    between atoms: C_6  and  O_30
    4  A    between atoms: C_16  and  C_25
    5  A    between atoms: C_24  and  O_30
    6  A    between atoms: C_25  and  C_27
                            x       y       z     vdW  Elec       q    Type
                         _______ _______ _______ _____ _____    ______ ____

>  <TORSDO>
F 6

$$$$
