=
 OpenBabel11052410143D

 25 28  0  0  1  0  0  0  0  0999 V2000
  161.1940  207.7480  149.8270 C   0  0  0  0  0  2  0  0  0  0  0  0
  161.5240  207.0200  151.9960 C   0  0  0  0  0  2  0  0  0  0  0  0
  161.6530  206.6090  150.6050 N   0  0  0  0  0  0  0  0  0  0  0  0
  161.6850  208.5310  152.0580 C   0  0  1  0  0  3  0  0  0  0  0  0
  161.4670  208.9980  150.6310 C   0  0  1  0  0  3  0  0  0  0  0  0
  162.6330  209.6040  150.1630 O   0  0  0  0  0  1  0  0  0  0  0  0
  161.3710  209.5140  154.2010 C   0  0  2  0  0  3  0  0  0  0  0  0
  160.9800  210.8660  154.5310 N   0  0  0  0  0  2  0  0  0  0  0  0
  160.5450  211.4080  153.2660 C   0  0  0  0  0  2  0  0  0  0  0  0
  160.2100  210.3040  152.3790 N   0  0  0  0  0  2  0  0  0  0  0  0
  160.6940  209.1190  152.9670 N   0  0  1  0  0  0  0  0  0  0  0  0
  160.0730  206.9650  156.4850 N   0  0  0  0  0  0  0  0  0  0  0  0
  162.6570  209.2850  157.0650 N   0  0  0  0  0  1  0  0  0  0  0  0
  161.0060  207.5000  157.2600 N   0  0  0  0  0  2  0  0  0  0  0  0
  161.0140  208.5900  155.3230 C   0  0  0  0  0  0  0  0  0  0  0  0
  161.5880  208.4870  156.5660 C   0  0  0  0  0  0  0  0  0  0  0  0
  160.0520  207.6010  155.2920 C   0  0  0  0  0  3  0  0  0  0  0  0
  160.7020  205.5320  150.3740 C   0  0  0  0  0  2  0  0  0  0  0  0
  161.5790  203.5910  146.6410 C   0  0  0  0  0  3  0  0  0  0  0  0
  161.2270  205.6070  147.9330 C   0  0  0  0  0  3  0  0  0  0  0  0
  161.3520  202.8190  147.7830 C   0  0  0  0  0  3  0  0  0  0  0  0
  160.9990  204.8390  149.0810 C   0  0  0  0  0  0  0  0  0  0  0  0
  160.7740  202.4220  150.4110 Cl  0  0  0  0  0  0  0  0  0  0  0  0
  161.5150  204.9850  146.7160 C   0  0  0  0  0  3  0  0  0  0  0  0
  161.0630  203.4360  149.0050 C   0  0  0  0  0  0  0  0  0  0  0  0
  1  3  1  0  0  0  0
  1  5  1  0  0  0  0
  3  2  1  0  0  0  0
  4  2  1  6  0  0  0
  4 11  1  0  0  0  0
  5  6  1  6  0  0  0
  5  4  1  0  0  0  0
  7  8  1  0  0  0  0
  7 15  1  1  0  0  0
  9  8  1  0  0  0  0
 10  9  1  0  0  0  0
 11 10  1  6  0  0  0
 11  7  1  0  0  0  0
 12 14  1  0  0  0  0
 15 16  2  0  0  0  0
 16 13  1  0  0  0  0
 16 14  1  0  0  0  0
 17 15  1  0  0  0  0
 17 12  2  0  0  0  0
 18  3  1  0  0  0  0
 19 24  2  0  0  0  0
 19 21  1  0  0  0  0
 20 22  2  0  0  0  0
 21 25  2  0  0  0  0
 22 18  1  0  0  0  0
 24 20  1  0  0  0  0
 25 22  1  0  0  0  0
 25 23  1  0  0  0  0
M  END
>  <MODEL>
1

>  <REMARK>
 VINA RESULT:      -7.9      0.000      0.000
  Name = 
  4 active torsions:
  status: ('A' for Active; 'I' for Inactive)
    1  A    between atoms: C_2  and  C_18
    2  A    between atoms: N_6  and  C_11
    3  A    between atoms: C_11  and  C_19
    4  A    between atoms: C_12  and  N_15
                            x       y       z     vdW  Elec       q    Type
                         _______ _______ _______ _____ _____    ______ ____

>  <TORSDO>
F 4

$$$$
=
 OpenBabel11052410143D

 25 28  0  0  1  0  0  0  0  0999 V2000
  161.5180  206.8870  154.1910 C   0  0  0  0  0  2  0  0  0  0  0  0
  160.6320  208.3750  152.6600 C   0  0  0  0  0  2  0  0  0  0  0  0
  160.9360  206.9650  152.8610 N   0  0  0  0  0  0  0  0  0  0  0  0
  160.3540  208.9970  154.0200 C   0  0  1  0  0  3  0  0  0  0  0  0
  160.9380  208.0130  155.0170 C   0  0  1  0  0  3  0  0  0  0  0  0
  159.9160  207.5160  155.8250 O   0  0  0  0  0  1  0  0  0  0  0  0
  159.9900  211.2940  154.5170 C   0  0  2  0  0  3  0  0  0  0  0  0
  160.5060  212.0780  155.6160 N   0  0  0  0  0  2  0  0  0  0  0  0
  161.5220  211.2270  156.1880 C   0  0  0  0  0  2  0  0  0  0  0  0
  161.9300  210.2550  155.1850 N   0  0  0  0  0  2  0  0  0  0  0  0
  161.0000  210.3110  154.1290 N   0  0  1  0  0  0  0  0  0  0  0  0
  159.6490  213.1320  151.3690 N   0  0  0  0  0  0  0  0  0  0  0  0
  157.6640  213.4000  154.2650 N   0  0  0  0  0  1  0  0  0  0  0  0
  158.6390  213.6630  152.0440 N   0  0  0  0  0  0  0  0  0  0  0  0
  159.6500  212.1890  153.3660 C   0  0  0  0  0  0  0  0  0  0  0  0
  158.6250  213.0960  153.2590 C   0  0  0  0  0  0  0  0  0  0  0  0
  160.2870  212.2240  152.1430 C   0  0  0  0  0  2  0  0  0  0  0  0
  161.9870  206.6030  151.9210 C   0  0  0  0  0  2  0  0  0  0  0  0
  160.7760  203.1900  149.6080 C   0  0  0  0  0  3  0  0  0  0  0  0
  161.4740  204.1680  151.7090 C   0  0  0  0  0  3  0  0  0  0  0  0
  160.8710  204.4400  148.9930 C   0  0  0  0  0  3  0  0  0  0  0  0
  161.5700  205.4250  151.0990 C   0  0  0  0  0  0  0  0  0  0  0  0
  161.3820  207.1110  148.9120 Cl  0  0  0  0  0  0  0  0  0  0  0  0
  161.0780  203.0530  150.9660 C   0  0  0  0  0  3  0  0  0  0  0  0
  161.2660  205.5600  149.7320 C   0  0  0  0  0  0  0  0  0  0  0  0
  1  5  1  0  0  0  0
  2  3  1  0  0  0  0
  3  1  1  0  0  0  0
  4  2  1  6  0  0  0
  4 11  1  0  0  0  0
  4  5  1  0  0  0  0
  5  6  1  1  0  0  0
  7 15  1  6  0  0  0
  7  8  1  0  0  0  0
  8  9  1  0  0  0  0
 10  9  1  0  0  0  0
 11  7  1  0  0  0  0
 11 10  1  1  0  0  0
 12 14  2  0  0  0  0
 12 17  1  0  0  0  0
 14 16  1  0  0  0  0
 16 15  2  0  0  0  0
 16 13  1  0  0  0  0
 17 15  1  0  0  0  0
 18  3  1  0  0  0  0
 19 24  1  0  0  0  0
 21 19  2  0  0  0  0
 21 25  1  0  0  0  0
 22 20  1  0  0  0  0
 22 18  1  0  0  0  0
 23 25  1  0  0  0  0
 24 20  2  0  0  0  0
 25 22  2  0  0  0  0
M  END
>  <MODEL>
2

>  <REMARK>
 VINA RESULT:      -7.8      2.498      4.462
  Name = 
  4 active torsions:
  status: ('A' for Active; 'I' for Inactive)
    1  A    between atoms: C_2  and  C_18
    2  A    between atoms: N_6  and  C_11
    3  A    between atoms: C_11  and  C_19
    4  A    between atoms: C_12  and  N_15
                            x       y       z     vdW  Elec       q    Type
                         _______ _______ _______ _____ _____    ______ ____

>  <TORSDO>
F 4

$$$$
=
 OpenBabel11052410143D

 25 28  0  0  1  0  0  0  0  0999 V2000
  162.2250  207.6750  148.6040 C   0  0  0  0  0  2  0  0  0  0  0  0
  161.2880  205.8100  149.5980 C   0  0  0  0  0  2  0  0  0  0  0  0
  161.5430  207.2290  149.8070 N   0  0  0  0  0  0  0  0  0  0  0  0
  161.1470  205.5720  148.1020 C   0  0  1  0  0  3  0  0  0  0  0  0
  161.7650  206.8000  147.4600 C   0  0  1  0  0  3  0  0  0  0  0  0
  160.7890  207.4740  146.7260 O   0  0  0  0  0  1  0  0  0  0  0  0
  160.8740  203.2940  147.4790 C   0  0  2  0  0  3  0  0  0  0  0  0
  161.1610  202.6580  146.2120 N   0  0  0  0  0  2  0  0  0  0  0  0
  161.9190  203.6580  145.4990 C   0  0  0  0  0  2  0  0  0  0  0  0
  162.4810  204.5900  146.4650 N   0  0  0  0  0  2  0  0  0  0  0  0
  161.8580  204.3500  147.7050 N   0  0  1  0  0  0  0  0  0  0  0  0
  160.7410  201.3290  150.5650 N   0  0  0  0  0  0  0  0  0  0  0  0
  161.5200  200.2160  147.3160 N   0  0  0  0  0  1  0  0  0  0  0  0
  161.0810  200.3740  149.7110 N   0  0  0  0  0  0  0  0  0  0  0  0
  160.9180  202.2810  148.5800 C   0  0  0  0  0  0  0  0  0  0  0  0
  161.1880  200.9370  148.4990 C   0  0  0  0  0  0  0  0  0  0  0  0
  160.6280  202.5070  149.9100 C   0  0  0  0  0  2  0  0  0  0  0  0
  162.4990  207.3470  150.8990 C   0  0  0  0  0  2  0  0  0  0  0  0
  160.4780  208.0070  154.6340 C   0  0  0  0  0  3  0  0  0  0  0  0
  161.5470  206.5180  153.0540 C   0  0  0  0  0  3  0  0  0  0  0  0
  160.7150  209.0850  153.7790 C   0  0  0  0  0  3  0  0  0  0  0  0
  161.7880  207.5940  152.1920 C   0  0  0  0  0  0  0  0  0  0  0  0
  161.6330  210.2720  151.5100 Cl  0  0  0  0  0  0  0  0  0  0  0  0
  160.8930  206.7220  154.2720 C   0  0  0  0  0  3  0  0  0  0  0  0
  161.3680  208.8860  152.5580 C   0  0  0  0  0  0  0  0  0  0  0  0
  1  3  1  0  0  0  0
  2  3  1  0  0  0  0
  3 18  1  0  0  0  0
  4  2  1  1  0  0  0
  5  6  1  1  0  0  0
  5  4  1  0  0  0  0
  5  1  1  0  0  0  0
  7 11  1  0  0  0  0
  7 15  1  1  0  0  0
  8  7  1  0  0  0  0
  9  8  1  0  0  0  0
  9 10  1  0  0  0  0
 11 10  1  6  0  0  0
 11  4  1  0  0  0  0
 13 16  1  0  0  0  0
 14 12  2  0  0  0  0
 15 17  1  0  0  0  0
 16 15  2  0  0  0  0
 16 14  1  0  0  0  0
 17 12  1  0  0  0  0
 18 22  1  0  0  0  0
 20 24  2  0  0  0  0
 21 19  2  0  0  0  0
 22 25  2  0  0  0  0
 22 20  1  0  0  0  0
 23 25  1  0  0  0  0
 24 19  1  0  0  0  0
 25 21  1  0  0  0  0
M  END
>  <MODEL>
3

>  <REMARK>
 VINA RESULT:      -7.7      3.699      7.830
  Name = 
  4 active torsions:
  status: ('A' for Active; 'I' for Inactive)
    1  A    between atoms: C_2  and  C_18
    2  A    between atoms: N_6  and  C_11
    3  A    between atoms: C_11  and  C_19
    4  A    between atoms: C_12  and  N_15
                            x       y       z     vdW  Elec       q    Type
                         _______ _______ _______ _____ _____    ______ ____

>  <TORSDO>
F 4

$$$$
=
 OpenBabel11052410143D

 25 28  0  0  1  0  0  0  0  0999 V2000
  161.4000  208.6200  149.6490 C   0  0  0  0  0  2  0  0  0  0  0  0
  161.1630  207.2670  151.5070 C   0  0  0  0  0  2  0  0  0  0  0  0
  161.4580  207.2340  150.0810 N   0  0  0  0  0  0  0  0  0  0  0  0
  161.6230  208.6090  152.0540 C   0  0  1  0  0  3  0  0  0  0  0  0
  161.7760  209.4900  150.8270 C   0  0  1  0  0  3  0  0  0  0  0  0
  163.1090  209.8820  150.7070 O   0  0  0  0  0  1  0  0  0  0  0  0
  161.3070  209.5660  154.2080 C   0  0  2  0  0  3  0  0  0  0  0  0
  160.8760  210.9020  154.5540 N   0  0  0  0  0  2  0  0  0  0  0  0
  160.4060  211.4390  153.2980 C   0  0  0  0  0  2  0  0  0  0  0  0
  160.0950  210.3310  152.4090 N   0  0  0  0  0  2  0  0  0  0  0  0
  160.6260  209.1580  152.9810 N   0  0  1  0  0  0  0  0  0  0  0  0
  160.1320  206.9550  156.4880 N   0  0  0  0  0  0  0  0  0  0  0  0
  162.6200  209.3790  157.0630 N   0  0  0  0  0  1  0  0  0  0  0  0
  161.0460  207.5260  157.2600 N   0  0  0  0  0  2  0  0  0  0  0  0
  160.9960  208.6230  155.3270 C   0  0  0  0  0  0  0  0  0  0  0  0
  161.5820  208.5400  156.5670 C   0  0  0  0  0  0  0  0  0  0  0  0
  160.0760  207.5950  155.2980 C   0  0  0  0  0  3  0  0  0  0  0  0
  160.3620  206.5420  149.4200 C   0  0  0  0  0  2  0  0  0  0  0  0
  161.5090  202.5430  148.3420 C   0  0  0  0  0  3  0  0  0  0  0  0
  160.4590  204.0890  149.8800 C   0  0  0  0  0  3  0  0  0  0  0  0
  161.8290  203.6050  147.4920 C   0  0  0  0  0  3  0  0  0  0  0  0
  160.7750  205.1570  149.0320 C   0  0  0  0  0  0  0  0  0  0  0  0
  161.8990  206.2160  146.7350 Cl  0  0  0  0  0  0  0  0  0  0  0  0
  160.8250  202.7850  149.5370 C   0  0  0  0  0  3  0  0  0  0  0  0
  161.4650  204.9120  147.8310 C   0  0  0  0  0  0  0  0  0  0  0  0
  1  3  1  0  0  0  0
  1  5  1  0  0  0  0
  3  2  1  0  0  0  0
  4  2  1  6  0  0  0
  4 11  1  0  0  0  0
  5  6  1  6  0  0  0
  5  4  1  0  0  0  0
  7  8  1  0  0  0  0
  7 15  1  1  0  0  0
  9  8  1  0  0  0  0
 10  9  1  0  0  0  0
 11 10  1  6  0  0  0
 11  7  1  0  0  0  0
 12 14  1  0  0  0  0
 15 16  2  0  0  0  0
 16 13  1  0  0  0  0
 16 14  1  0  0  0  0
 17 15  1  0  0  0  0
 17 12  2  0  0  0  0
 18  3  1  0  0  0  0
 19 24  1  0  0  0  0
 21 25  1  0  0  0  0
 21 19  2  0  0  0  0
 22 18  1  0  0  0  0
 22 20  1  0  0  0  0
 23 25  1  0  0  0  0
 24 20  2  0  0  0  0
 25 22  2  0  0  0  0
M  END
>  <MODEL>
4

>  <REMARK>
 VINA RESULT:      -7.4      1.240      1.588
  Name = 
  4 active torsions:
  status: ('A' for Active; 'I' for Inactive)
    1  A    between atoms: C_2  and  C_18
    2  A    between atoms: N_6  and  C_11
    3  A    between atoms: C_11  and  C_19
    4  A    between atoms: C_12  and  N_15
                            x       y       z     vdW  Elec       q    Type
                         _______ _______ _______ _____ _____    ______ ____

>  <TORSDO>
F 4

$$$$
=
 OpenBabel11052410143D

 25 28  0  0  1  0  0  0  0  0999 V2000
  161.3050  207.2650  154.2450 C   0  0  0  0  0  2  0  0  0  0  0  0
  160.5870  209.0010  152.8990 C   0  0  0  0  0  2  0  0  0  0  0  0
  160.8300  207.5650  152.9040 N   0  0  0  0  0  0  0  0  0  0  0  0
  160.2240  209.4240  154.3140 C   0  0  1  0  0  3  0  0  0  0  0  0
  160.6980  208.2790  155.1890 C   0  0  1  0  0  3  0  0  0  0  0  0
  159.6020  207.7100  155.8360 O   0  0  0  0  0  1  0  0  0  0  0  0
  160.5360  211.0310  156.0380 C   0  0  2  0  0  3  0  0  0  0  0  0
  161.7410  211.3590  156.7660 N   0  0  0  0  0  2  0  0  0  0  0  0
  162.7790  210.6930  156.0150 C   0  0  0  0  0  2  0  0  0  0  0  0
  162.2880  210.4420  154.6690 N   0  0  0  0  0  2  0  0  0  0  0  0
  160.8990  210.6780  154.6670 N   0  0  1  0  0  0  0  0  0  0  0  0
  158.8090  214.2580  156.1140 N   0  0  0  0  0  0  0  0  0  0  0  0
  157.4100  211.0580  155.6650 N   0  0  0  0  0  1  0  0  0  0  0  0
  157.7700  213.4570  155.9200 N   0  0  0  0  0  0  0  0  0  0  0  0
  159.5960  212.1950  156.0560 C   0  0  0  0  0  0  0  0  0  0  0  0
  158.2330  212.2000  155.8790 C   0  0  0  0  0  0  0  0  0  0  0  0
  159.9410  213.5230  156.1970 C   0  0  0  0  0  2  0  0  0  0  0  0
  161.9390  207.3040  151.9980 C   0  0  0  0  0  2  0  0  0  0  0  0
  160.9190  204.1030  149.3180 C   0  0  0  0  0  3  0  0  0  0  0  0
  161.4600  204.8960  151.5390 C   0  0  0  0  0  3  0  0  0  0  0  0
  161.0480  205.4020  148.8220 C   0  0  0  0  0  3  0  0  0  0  0  0
  161.5900  206.2000  151.0490 C   0  0  0  0  0  0  0  0  0  0  0  0
  161.5440  208.0700  149.0090 Cl  0  0  0  0  0  0  0  0  0  0  0  0
  161.1260  203.8490  150.6760 C   0  0  0  0  0  3  0  0  0  0  0  0
  161.3820  206.4540  149.6810 C   0  0  0  0  0  0  0  0  0  0  0  0
  1  5  1  0  0  0  0
  2  3  1  0  0  0  0
  3  1  1  0  0  0  0
  4  2  1  6  0  0  0
  4 11  1  0  0  0  0
  4  5  1  0  0  0  0
  5  6  1  6  0  0  0
  7 15  1  6  0  0  0
  7  8  1  0  0  0  0
  9  8  1  0  0  0  0
 10  9  1  0  0  0  0
 11 10  1  1  0  0  0
 11  7  1  0  0  0  0
 12 17  1  0  0  0  0
 13 16  1  0  0  0  0
 14 12  2  0  0  0  0
 15 17  1  0  0  0  0
 16 14  1  0  0  0  0
 16 15  2  0  0  0  0
 18  3  1  0  0  0  0
 19 24  1  0  0  0  0
 21 19  2  0  0  0  0
 21 25  1  0  0  0  0
 22 20  1  0  0  0  0
 22 18  1  0  0  0  0
 23 25  1  0  0  0  0
 24 20  2  0  0  0  0
 25 22  2  0  0  0  0
M  END
>  <MODEL>
5

>  <REMARK>
 VINA RESULT:      -7.4      2.868      4.306
  Name = 
  4 active torsions:
  status: ('A' for Active; 'I' for Inactive)
    1  A    between atoms: C_2  and  C_18
    2  A    between atoms: N_6  and  C_11
    3  A    between atoms: C_11  and  C_19
    4  A    between atoms: C_12  and  N_15
                            x       y       z     vdW  Elec       q    Type
                         _______ _______ _______ _____ _____    ______ ____

>  <TORSDO>
F 4

$$$$
=
 OpenBabel11052410143D

 25 28  0  0  1  0  0  0  0  0999 V2000
  160.5240  204.5580  151.2730 C   0  0  0  0  0  2  0  0  0  0  0  0
  161.4560  204.9800  149.2010 C   0  0  0  0  0  2  0  0  0  0  0  0
  161.2950  205.5440  150.5340 N   0  0  0  0  0  0  0  0  0  0  0  0
  161.4410  203.4650  149.3240 C   0  0  1  0  0  3  0  0  0  0  0  0
  160.8280  203.1980  150.6860 C   0  0  1  0  0  3  0  0  0  0  0  0
  161.7620  202.5450  151.4900 O   0  0  0  0  0  1  0  0  0  0  0  0
  161.5230  202.4960  147.1540 C   0  0  2  0  0  3  0  0  0  0  0  0
  161.2200  201.1410  146.7520 N   0  0  0  0  0  2  0  0  0  0  0  0
  160.5810  200.5790  147.9190 C   0  0  0  0  0  2  0  0  0  0  0  0
  160.0770  201.6690  148.7400 N   0  0  0  0  0  2  0  0  0  0  0  0
  160.6340  202.8680  148.2520 N   0  0  1  0  0  0  0  0  0  0  0  0
  160.4700  204.4870  144.2680 N   0  0  0  0  0  0  0  0  0  0  0  0
  163.4480  204.7640  146.1250 N   0  0  0  0  0  1  0  0  0  0  0  0
  161.6440  205.0540  144.5090 N   0  0  0  0  0  0  0  0  0  0  0  0
  161.3490  203.4240  145.9920 C   0  0  0  0  0  0  0  0  0  0  0  0
  162.1890  204.4200  145.5570 C   0  0  0  0  0  0  0  0  0  0  0  0
  160.2540  203.4900  145.1560 C   0  0  0  0  0  2  0  0  0  0  0  0
  160.4560  206.7270  150.4130 C   0  0  0  0  0  2  0  0  0  0  0  0
  162.1150  209.9530  152.7170 C   0  0  0  0  0  3  0  0  0  0  0  0
  160.8260  207.9090  152.5820 C   0  0  0  0  0  3  0  0  0  0  0  0
  162.3270  209.9120  151.3380 C   0  0  0  0  0  3  0  0  0  0  0  0
  161.0350  207.8620  151.1980 C   0  0  0  0  0  0  0  0  0  0  0  0
  162.0750  208.8670  148.8390 Cl  0  0  0  0  0  0  0  0  0  0  0  0
  161.3630  208.9530  153.3400 C   0  0  0  0  0  3  0  0  0  0  0  0
  161.7910  208.8700  150.5730 C   0  0  0  0  0  0  0  0  0  0  0  0
  2  3  1  0  0  0  0
  3  1  1  0  0  0  0
  4  2  1  6  0  0  0
  4  5  1  0  0  0  0
  5  1  1  0  0  0  0
  5  6  1  1  0  0  0
  7 15  1  6  0  0  0
  7 11  1  0  0  0  0
  8  7  1  0  0  0  0
  8  9  1  0  0  0  0
  9 10  1  0  0  0  0
 11 10  1  1  0  0  0
 11  4  1  0  0  0  0
 12 14  2  0  0  0  0
 12 17  1  0  0  0  0
 14 16  1  0  0  0  0
 16 15  2  0  0  0  0
 16 13  1  0  0  0  0
 17 15  1  0  0  0  0
 18  3  1  0  0  0  0
 18 22  1  0  0  0  0
 19 24  1  0  0  0  0
 20 24  2  0  0  0  0
 21 19  2  0  0  0  0
 22 20  1  0  0  0  0
 23 25  1  0  0  0  0
 25 22  2  0  0  0  0
 25 21  1  0  0  0  0
M  END
>  <MODEL>
6

>  <REMARK>
 VINA RESULT:      -7.4      3.883      8.610
  Name = 
  4 active torsions:
  status: ('A' for Active; 'I' for Inactive)
    1  A    between atoms: C_2  and  C_18
    2  A    between atoms: N_6  and  C_11
    3  A    between atoms: C_11  and  C_19
    4  A    between atoms: C_12  and  N_15
                            x       y       z     vdW  Elec       q    Type
                         _______ _______ _______ _____ _____    ______ ____

>  <TORSDO>
F 4

$$$$
=
 OpenBabel11052410143D

 25 28  0  0  1  0  0  0  0  0999 V2000
  162.6500  205.8490  151.0400 C   0  0  0  0  0  2  0  0  0  0  0  0
  160.4580  206.4870  150.6780 C   0  0  0  0  0  2  0  0  0  0  0  0
  161.4290  205.4500  150.3590 N   0  0  0  0  0  0  0  0  0  0  0  0
  160.8190  207.0710  152.0350 C   0  0  1  0  0  3  0  0  0  0  0  0
  162.2580  206.6470  152.2630 C   0  0  1  0  0  3  0  0  0  0  0  0
  162.3230  205.8280  153.3900 O   0  0  0  0  0  1  0  0  0  0  0  0
  161.5460  209.0860  153.0660 C   0  0  2  0  0  3  0  0  0  0  0  0
  162.3310  210.1620  152.5040 N   0  0  0  0  0  2  0  0  0  0  0  0
  162.3340  209.8720  151.0890 C   0  0  0  0  0  2  0  0  0  0  0  0
  161.2060  209.0030  150.7930 N   0  0  0  0  0  2  0  0  0  0  0  0
  160.6920  208.5330  152.0170 N   0  0  1  0  0  0  0  0  0  0  0  0
  159.3030  210.7940  155.4010 N   0  0  0  0  0  0  0  0  0  0  0  0
  161.2000  207.8790  155.9530 N   0  0  0  0  0  1  0  0  0  0  0  0
  159.7060  209.7950  156.1740 N   0  0  0  0  0  2  0  0  0  0  0  0
  160.7230  209.5970  154.2080 C   0  0  0  0  0  0  0  0  0  0  0  0
  160.5680  209.0570  155.4610 C   0  0  0  0  0  0  0  0  0  0  0  0
  159.8990  210.7030  154.1910 C   0  0  0  0  0  3  0  0  0  0  0  0
  161.7010  205.5250  148.9310 C   0  0  0  0  0  2  0  0  0  0  0  0
  160.8310  201.7420  147.0860 C   0  0  0  0  0  3  0  0  0  0  0  0
  160.9480  203.1470  149.0540 C   0  0  0  0  0  3  0  0  0  0  0  0
  161.2920  202.8020  146.3020 C   0  0  0  0  0  3  0  0  0  0  0  0
  161.4100  204.2130  148.2730 C   0  0  0  0  0  0  0  0  0  0  0  0
  162.1700  205.3380  145.8620 Cl  0  0  0  0  0  0  0  0  0  0  0  0
  160.6600  201.9140  148.4630 C   0  0  0  0  0  3  0  0  0  0  0  0
  161.5820  204.0380  146.8880 C   0  0  0  0  0  0  0  0  0  0  0  0
  1  5  1  0  0  0  0
  3  2  1  0  0  0  0
  3  1  1  0  0  0  0
  4  2  1  6  0  0  0
  4  5  1  0  0  0  0
  5  6  1  1  0  0  0
  7 15  1  1  0  0  0
  8  7  1  0  0  0  0
  9  8  1  0  0  0  0
 10  9  1  0  0  0  0
 11 10  1  6  0  0  0
 11  4  1  0  0  0  0
 11  7  1  0  0  0  0
 12 14  1  0  0  0  0
 15 16  2  0  0  0  0
 16 13  1  0  0  0  0
 16 14  1  0  0  0  0
 17 15  1  0  0  0  0
 17 12  2  0  0  0  0
 18  3  1  0  0  0  0
 19 24  1  0  0  0  0
 21 25  1  0  0  0  0
 21 19  2  0  0  0  0
 22 18  1  0  0  0  0
 22 20  1  0  0  0  0
 23 25  1  0  0  0  0
 24 20  2  0  0  0  0
 25 22  2  0  0  0  0
M  END
>  <MODEL>
7

>  <REMARK>
 VINA RESULT:      -7.3      1.971      2.729
  Name = 
  4 active torsions:
  status: ('A' for Active; 'I' for Inactive)
    1  A    between atoms: C_2  and  C_18
    2  A    between atoms: N_6  and  C_11
    3  A    between atoms: C_11  and  C_19
    4  A    between atoms: C_12  and  N_15
                            x       y       z     vdW  Elec       q    Type
                         _______ _______ _______ _____ _____    ______ ____

>  <TORSDO>
F 4

$$$$
=
 OpenBabel11052410143D

 25 28  0  0  1  0  0  0  0  0999 V2000
  160.6140  207.4920  152.6370 C   0  0  0  0  0  2  0  0  0  0  0  0
  162.4600  208.1610  151.4190 C   0  0  0  0  0  2  0  0  0  0  0  0
  161.6400  208.5200  152.5670 N   0  0  0  0  0  0  0  0  0  0  0  0
  162.4050  206.6510  151.2520 C   0  0  1  0  0  3  0  0  0  0  0  0
  161.1910  206.2220  152.0550 C   0  0  1  0  0  3  0  0  0  0  0  0
  161.5980  205.3810  153.0910 O   0  0  0  0  0  1  0  0  0  0  0  0
  160.9180  205.7500  149.6300 C   0  0  2  0  0  3  0  0  0  0  0  0
  160.3290  206.3980  148.4790 N   0  0  0  0  0  2  0  0  0  0  0  0
  161.0700  207.6330  148.3730 C   0  0  0  0  0  2  0  0  0  0  0  0
  162.3340  207.4760  149.0750 N   0  0  0  0  0  2  0  0  0  0  0  0
  162.2590  206.2920  149.8360 N   0  0  1  0  0  0  0  0  0  0  0  0
  160.7230  202.0960  149.7030 N   0  0  0  0  0  0  0  0  0  0  0  0
  161.8830  204.1550  147.0930 N   0  0  0  0  0  1  0  0  0  0  0  0
  161.2280  202.2640  148.4890 N   0  0  0  0  0  0  0  0  0  0  0  0
  160.9700  204.2700  149.4120 C   0  0  0  0  0  0  0  0  0  0  0  0
  161.3810  203.5820  148.2970 C   0  0  0  0  0  0  0  0  0  0  0  0
  160.5470  203.2990  150.2950 C   0  0  0  0  0  2  0  0  0  0  0  0
  160.9620  209.7680  152.2500 C   0  0  0  0  0  2  0  0  0  0  0  0
  160.4560  212.1070  155.8200 C   0  0  0  0  0  3  0  0  0  0  0  0
  161.6280  210.3950  154.5740 C   0  0  0  0  0  3  0  0  0  0  0  0
  159.5930  212.3030  154.7400 C   0  0  0  0  0  3  0  0  0  0  0  0
  160.7660  210.5870  153.4880 C   0  0  0  0  0  0  0  0  0  0  0  0
  158.6250  211.8220  152.2440 Cl  0  0  0  0  0  0  0  0  0  0  0  0
  161.4730  211.1520  155.7380 C   0  0  0  0  0  3  0  0  0  0  0  0
  159.7430  211.5480  153.5720 C   0  0  0  0  0  0  0  0  0  0  0  0
  2  3  1  0  0  0  0
  3  1  1  0  0  0  0
  4  2  1  6  0  0  0
  4  5  1  0  0  0  0
  5  1  1  0  0  0  0
  5  6  1  1  0  0  0
  7 15  1  6  0  0  0
  7 11  1  0  0  0  0
  8  7  1  0  0  0  0
  9  8  1  0  0  0  0
  9 10  1  0  0  0  0
 11 10  1  6  0  0  0
 11  4  1  0  0  0  0
 12 17  1  0  0  0  0
 13 16  1  0  0  0  0
 14 12  2  0  0  0  0
 15 17  1  0  0  0  0
 16 14  1  0  0  0  0
 16 15  2  0  0  0  0
 18  3  1  0  0  0  0
 18 22  1  0  0  0  0
 20 24  2  0  0  0  0
 21 19  2  0  0  0  0
 22 25  2  0  0  0  0
 22 20  1  0  0  0  0
 23 25  1  0  0  0  0
 24 19  1  0  0  0  0
 25 21  1  0  0  0  0
M  END
>  <MODEL>
8

>  <REMARK>
 VINA RESULT:      -7.3      3.143      7.669
  Name = 
  4 active torsions:
  status: ('A' for Active; 'I' for Inactive)
    1  A    between atoms: C_2  and  C_18
    2  A    between atoms: N_6  and  C_11
    3  A    between atoms: C_11  and  C_19
    4  A    between atoms: C_12  and  N_15
                            x       y       z     vdW  Elec       q    Type
                         _______ _______ _______ _____ _____    ______ ____

>  <TORSDO>
F 4

$$$$
=
 OpenBabel11052410143D

 25 28  0  0  1  0  0  0  0  0999 V2000
  162.2610  209.4810  150.5780 C   0  0  0  0  0  2  0  0  0  0  0  0
  160.8970  207.6270  150.7910 C   0  0  0  0  0  2  0  0  0  0  0  0
  161.1630  208.9400  151.3620 N   0  0  0  0  0  0  0  0  0  0  0  0
  161.2840  207.6650  149.3210 C   0  0  1  0  0  3  0  0  0  0  0  0
  162.1780  208.8840  149.1910 C   0  0  1  0  0  3  0  0  0  0  0  0
  161.5810  209.8020  148.3270 O   0  0  0  0  0  1  0  0  0  0  0  0
  161.0150  205.3980  148.6550 C   0  0  2  0  0  3  0  0  0  0  0  0
  161.3560  204.7740  147.3960 N   0  0  0  0  0  2  0  0  0  0  0  0
  162.1610  205.7740  146.7340 C   0  0  0  0  0  2  0  0  0  0  0  0
  162.6850  206.6870  147.7380 N   0  0  0  0  0  2  0  0  0  0  0  0
  161.9990  206.4390  148.9430 N   0  0  1  0  0  0  0  0  0  0  0  0
  160.9660  203.4310  151.7420 N   0  0  0  0  0  0  0  0  0  0  0  0
  160.6930  202.2740  148.4270 N   0  0  0  0  0  1  0  0  0  0  0  0
  160.8280  202.4540  150.8570 N   0  0  0  0  0  0  0  0  0  0  0  0
  160.9930  204.3720  149.7440 C   0  0  0  0  0  0  0  0  0  0  0  0
  160.8390  203.0110  149.6380 C   0  0  0  0  0  0  0  0  0  0  0  0
  161.0650  204.6170  151.1000 C   0  0  0  0  0  2  0  0  0  0  0  0
  161.6700  208.7390  152.7110 C   0  0  0  0  0  2  0  0  0  0  0  0
  159.1190  210.7360  155.5350 C   0  0  0  0  0  3  0  0  0  0  0  0
  160.2850  210.6950  153.4140 C   0  0  0  0  0  3  0  0  0  0  0  0
  159.6200  209.4670  155.8350 C   0  0  0  0  0  3  0  0  0  0  0  0
  160.7890  209.4230  153.7090 C   0  0  0  0  0  0  0  0  0  0  0  0
  161.0680  207.2150  155.3560 Cl  0  0  0  0  0  0  0  0  0  0  0  0
  159.4530  211.3510  154.3250 C   0  0  0  0  0  3  0  0  0  0  0  0
  160.4540  208.8060  154.9280 C   0  0  0  0  0  0  0  0  0  0  0  0
  1  3  1  0  0  0  0
  2  3  1  0  0  0  0
  3 18  1  0  0  0  0
  4  2  1  1  0  0  0
  5  6  1  6  0  0  0
  5  4  1  0  0  0  0
  5  1  1  0  0  0  0
  7 11  1  0  0  0  0
  7 15  1  1  0  0  0
  8  7  1  0  0  0  0
  9  8  1  0  0  0  0
  9 10  1  0  0  0  0
 11 10  1  6  0  0  0
 11  4  1  0  0  0  0
 13 16  1  0  0  0  0
 14 12  2  0  0  0  0
 15 17  1  0  0  0  0
 16 15  2  0  0  0  0
 16 14  1  0  0  0  0
 17 12  1  0  0  0  0
 18 22  1  0  0  0  0
 19 21  1  0  0  0  0
 20 22  2  0  0  0  0
 20 24  1  0  0  0  0
 22 25  1  0  0  0  0
 24 19  2  0  0  0  0
 25 23  1  0  0  0  0
 25 21  2  0  0  0  0
M  END
>  <MODEL>
9

>  <REMARK>
 VINA RESULT:      -7.1      2.849      7.130
  Name = 
  4 active torsions:
  status: ('A' for Active; 'I' for Inactive)
    1  A    between atoms: C_2  and  C_18
    2  A    between atoms: N_6  and  C_11
    3  A    between atoms: C_11  and  C_19
    4  A    between atoms: C_12  and  N_15
                            x       y       z     vdW  Elec       q    Type
                         _______ _______ _______ _____ _____    ______ ____

>  <TORSDO>
F 4

$$$$
