=
 OpenBabel11052410593D

 37 40  0  0  0  0  0  0  0  0999 V2000
  161.6670  206.8920  148.2280 C   0  0  0  0  0  0  0  0  0  0  0  0
  161.9560  208.2730  148.3450 C   0  0  0  0  0  3  0  0  0  0  0  0
  161.5640  208.1610  150.7060 C   0  0  0  0  0  0  0  0  0  0  0  0
  161.2070  207.4450  152.7210 C   0  0  0  0  0  0  0  0  0  0  0  0
  161.4810  208.5530  151.9950 N   0  0  0  0  0  0  0  0  0  0  0  0
  161.3460  206.1470  149.3830 C   0  0  0  0  0  3  0  0  0  0  0  0
  161.3070  206.8150  150.6040 C   0  0  0  0  0  0  0  0  0  0  0  0
  161.9140  208.9210  149.5910 C   0  0  0  0  0  3  0  0  0  0  0  0
  161.0800  206.3420  151.8820 C   0  0  0  0  0  0  0  0  0  0  0  0
  161.0630  207.4280  154.2050 C   0  0  0  0  0  1  0  0  0  0  0  0
  162.7510  205.6240  146.5390 O   0  0  0  0  0  0  0  0  0  0  0  0
  161.7120  206.2370  146.9050 C   0  0  0  0  0  0  0  0  0  0  0  0
  160.5500  206.3080  145.9670 C   0  0  0  0  0  2  0  0  0  0  0  0
  160.3690  204.3030  144.6930 O   0  0  0  0  0  1  0  0  0  0  0  0
  161.5080  206.0170  143.6830 O   0  0  0  0  0  0  0  0  0  0  0  0
  160.8090  205.4800  144.7560 C   0  0  0  0  0  0  0  0  0  0  0  0
  160.7400  204.9440  152.2750 C   0  0  0  0  0  2  0  0  0  0  0  0
  161.7980  203.9900  151.7510 C   0  0  0  0  0  2  0  0  0  0  0  0
  161.2070  202.7370  151.4190 O   0  0  0  0  0  0  0  0  0  0  0  0
  160.8920  202.3500  150.1100 C   0  0  0  0  0  0  0  0  0  0  0  0
  161.5320  200.5570  147.6950 C   0  0  0  0  0  3  0  0  0  0  0  0
  161.3430  200.1990  148.9650 C   0  0  0  0  0  3  0  0  0  0  0  0
  160.4410  200.9430  149.8930 C   0  0  0  0  0  2  0  0  0  0  0  0
  160.9420  203.2300  149.1000 C   0  0  0  0  0  3  0  0  0  0  0  0
  160.7120  202.9260  147.6740 C   0  0  0  0  0  3  0  0  0  0  0  0
  160.9700  201.7650  147.0620 C   0  0  0  0  0  3  0  0  0  0  0  0
  161.7710  209.8220  152.5290 N   0  0  0  0  0  2  0  0  0  0  0  0
  161.0820  211.1630  154.4480 C   0  0  0  0  0  3  0  0  0  0  0  0
  160.1380  211.9490  155.1140 C   0  0  0  0  0  3  0  0  0  0  0  0
  159.5610  210.9210  152.5820 C   0  0  0  0  0  3  0  0  0  0  0  0
  158.9020  212.2320  154.5180 C   0  0  0  0  0  0  0  0  0  0  0  0
  158.6180  211.7080  153.2480 C   0  0  0  0  0  3  0  0  0  0  0  0
  160.8040  210.6590  153.1740 C   0  0  0  0  0  0  0  0  0  0  0  0
  156.5170  212.9130  154.9370 N   0  0  0  0  0  2  0  0  0  0  0  0
  157.9090  213.0640  155.2200 C   0  0  0  0  0  0  0  0  0  0  0  0
  158.2850  213.9120  156.0750 O   0  0  0  0  0  0  0  0  0  0  0  0
  155.5560  213.6940  155.5920 N   0  0  0  0  0  1  0  0  0  0  0  0
  1  2  2  0  0  0  0
  1  6  1  0  0  0  0
  2  8  1  0  0  0  0
  3  5  1  0  0  0  0
  4 10  1  0  0  0  0
  5 27  1  0  0  0  0
  5  4  1  0  0  0  0
  6  7  2  0  0  0  0
  7  3  1  0  0  0  0
  7  9  1  0  0  0  0
  8  3  2  0  0  0  0
  9 17  1  0  0  0  0
  9  4  2  0  0  0  0
 11 12  2  0  0  0  0
 12  1  1  0  0  0  0
 13 12  1  0  0  0  0
 14 16  1  0  0  0  0
 15 16  2  0  0  0  0
 16 13  1  0  0  0  0
 18 17  1  0  0  0  0
 19 18  1  0  0  0  0
 20 19  1  0  0  0  0
 21 22  2  0  0  0  0
 22 23  1  0  0  0  0
 23 20  1  0  0  0  0
 24 20  2  0  0  0  0
 25 24  1  0  0  0  0
 26 25  2  0  0  0  0
 26 21  1  0  0  0  0
 27 33  1  0  0  0  0
 28 29  1  0  0  0  0
 30 33  1  0  0  0  0
 30 32  2  0  0  0  0
 31 29  2  0  0  0  0
 31 35  1  0  0  0  0
 32 31  1  0  0  0  0
 33 28  2  0  0  0  0
 34 35  1  0  0  0  0
 34 37  1  0  0  0  0
 35 36  2  0  0  0  0
M  END
>  <MODEL>
1

>  <REMARK>
 VINA RESULT:      -9.1      0.000      0.000
  Name = 
  10 active torsions:
  status: ('A' for Active; 'I' for Inactive)
    1  A    between atoms: C_5  and  C_37
    2  A    between atoms: C_10  and  C_22
    3  A    between atoms: C_10  and  C_33
    4  A    between atoms: C_12  and  O_35
    5  A    between atoms: C_14  and  C_21
    6  A    between atoms: N_16  and  N_34
    7  A    between atoms: C_22  and  O_35
    8  A    between atoms: C_29  and  C_31
    9  A    between atoms: C_29  and  C_37
   10  A    between atoms: C_32  and  N_34
                            x       y       z     vdW  Elec       q    Type
                         _______ _______ _______ _____ _____    ______ ____

>  <TORSDO>
F 10

$$$$
=
 OpenBabel11052410593D

 37 40  0  0  0  0  0  0  0  0999 V2000
  161.1500  205.0020  151.5570 C   0  0  0  0  0  0  0  0  0  0  0  0
  161.0090  205.4090  152.9050 C   0  0  0  0  0  3  0  0  0  0  0  0
  161.5070  207.6680  152.2800 C   0  0  0  0  0  0  0  0  0  0  0  0
  161.8900  209.4710  151.1390 C   0  0  0  0  0  0  0  0  0  0  0  0
  161.6930  209.0000  152.3920 N   0  0  0  0  0  0  0  0  0  0  0  0
  161.4500  205.9600  150.5660 C   0  0  0  0  0  3  0  0  0  0  0  0
  161.6190  207.2840  150.9660 C   0  0  0  0  0  0  0  0  0  0  0  0
  161.1800  206.7530  153.2800 C   0  0  0  0  0  3  0  0  0  0  0  0
  161.8610  208.4240  150.2240 C   0  0  0  0  0  0  0  0  0  0  0  0
  162.1060  210.9090  150.8080 C   0  0  0  0  0  1  0  0  0  0  0  0
  161.2360  202.6770  152.0290 O   0  0  0  0  0  0  0  0  0  0  0  0
  160.9720  203.5820  151.1920 C   0  0  0  0  0  0  0  0  0  0  0  0
  160.5050  203.1860  149.8280 C   0  0  0  0  0  2  0  0  0  0  0  0
  159.2320  201.1730  149.7950 O   0  0  0  0  0  1  0  0  0  0  0  0
  161.4960  200.9140  149.5490 O   0  0  0  0  0  0  0  0  0  0  0  0
  160.3700  201.7050  149.7350 C   0  0  0  0  0  0  0  0  0  0  0  0
  162.0760  208.5080  148.7500 C   0  0  0  0  0  2  0  0  0  0  0  0
  161.4510  207.3040  148.0690 C   0  0  0  0  0  2  0  0  0  0  0  0
  162.4610  206.5030  147.4650 O   0  0  0  0  0  0  0  0  0  0  0  0
  162.1880  205.4000  146.6440 C   0  0  0  0  0  0  0  0  0  0  0  0
  160.3900  204.1300  144.4960 C   0  0  0  0  0  3  0  0  0  0  0  0
  160.9810  205.3250  144.4810 C   0  0  0  0  0  3  0  0  0  0  0  0
  162.2780  205.5980  145.1660 C   0  0  0  0  0  2  0  0  0  0  0  0
  161.9100  204.2000  147.1710 C   0  0  0  0  0  3  0  0  0  0  0  0
  161.5300  202.9890  146.4160 C   0  0  0  0  0  3  0  0  0  0  0  0
  160.8670  202.9580  145.2540 C   0  0  0  0  0  3  0  0  0  0  0  0
  161.5620  209.7940  153.5460 N   0  0  0  0  0  2  0  0  0  0  0  0
  159.4440  210.9790  153.2920 C   0  0  0  0  0  3  0  0  0  0  0  0
  158.2310  211.4390  153.8100 C   0  0  0  0  0  3  0  0  0  0  0  0
  159.9590  209.9460  155.4170 C   0  0  0  0  0  3  0  0  0  0  0  0
  157.8690  211.1520  155.1330 C   0  0  0  0  0  0  0  0  0  0  0  0
  158.7450  210.4050  155.9350 C   0  0  0  0  0  3  0  0  0  0  0  0
  160.3060  210.2180  154.0870 C   0  0  0  0  0  0  0  0  0  0  0  0
  156.5370  212.8580  156.4130 N   0  0  0  0  0  2  0  0  0  0  0  0
  156.5880  211.6350  155.6780 C   0  0  0  0  0  0  0  0  0  0  0  0
  155.5320  210.9680  155.4960 O   0  0  0  0  0  0  0  0  0  0  0  0
  155.3300  213.3350  156.9400 N   0  0  0  0  0  1  0  0  0  0  0  0
  1  2  1  0  0  0  0
  2  8  2  0  0  0  0
  3  5  1  0  0  0  0
  3  8  1  0  0  0  0
  4  5  1  0  0  0  0
  5 27  1  0  0  0  0
  6  7  1  0  0  0  0
  6  1  2  0  0  0  0
  7  3  2  0  0  0  0
  9  7  1  0  0  0  0
  9  4  2  0  0  0  0
 10  4  1  0  0  0  0
 12  1  1  0  0  0  0
 12 11  2  0  0  0  0
 13 12  1  0  0  0  0
 15 16  2  0  0  0  0
 16 14  1  0  0  0  0
 16 13  1  0  0  0  0
 17  9  1  0  0  0  0
 18 17  1  0  0  0  0
 19 18  1  0  0  0  0
 20 24  2  0  0  0  0
 20 19  1  0  0  0  0
 21 26  1  0  0  0  0
 22 21  2  0  0  0  0
 22 23  1  0  0  0  0
 23 20  1  0  0  0  0
 25 24  1  0  0  0  0
 26 25  2  0  0  0  0
 27 33  1  0  0  0  0
 28 29  2  0  0  0  0
 28 33  1  0  0  0  0
 29 31  1  0  0  0  0
 30 32  1  0  0  0  0
 31 35  1  0  0  0  0
 31 32  2  0  0  0  0
 33 30  2  0  0  0  0
 34 37  1  0  0  0  0
 35 34  1  0  0  0  0
 36 35  2  0  0  0  0
M  END
>  <MODEL>
2

>  <REMARK>
 VINA RESULT:      -9.1      1.646      4.130
  Name = 
  10 active torsions:
  status: ('A' for Active; 'I' for Inactive)
    1  A    between atoms: C_5  and  C_37
    2  A    between atoms: C_10  and  C_22
    3  A    between atoms: C_10  and  C_33
    4  A    between atoms: C_12  and  O_35
    5  A    between atoms: C_14  and  C_21
    6  A    between atoms: N_16  and  N_34
    7  A    between atoms: C_22  and  O_35
    8  A    between atoms: C_29  and  C_31
    9  A    between atoms: C_29  and  C_37
   10  A    between atoms: C_32  and  N_34
                            x       y       z     vdW  Elec       q    Type
                         _______ _______ _______ _____ _____    ______ ____

>  <TORSDO>
F 10

$$$$
=
 OpenBabel11052410593D

 37 40  0  0  0  0  0  0  0  0999 V2000
  161.2360  204.6140  151.6890 C   0  0  0  0  0  0  0  0  0  0  0  0
  161.5900  205.4210  152.7970 C   0  0  0  0  0  3  0  0  0  0  0  0
  161.8340  207.3140  151.3480 C   0  0  0  0  0  0  0  0  0  0  0  0
  161.7850  208.6330  149.6280 C   0  0  0  0  0  0  0  0  0  0  0  0
  162.0510  208.5860  150.9530 N   0  0  0  0  0  0  0  0  0  0  0  0
  161.1620  205.1890  150.4030 C   0  0  0  0  0  3  0  0  0  0  0  0
  161.4650  206.5420  150.2720 C   0  0  0  0  0  0  0  0  0  0  0  0
  161.8880  206.7850  152.6370 C   0  0  0  0  0  3  0  0  0  0  0  0
  161.4270  207.3700  149.1670 C   0  0  0  0  0  0  0  0  0  0  0  0
  161.8700  209.8690  148.7980 C   0  0  0  0  0  1  0  0  0  0  0  0
  160.0240  202.8310  152.6820 O   0  0  0  0  0  0  0  0  0  0  0  0
  160.9350  203.1810  151.8850 C   0  0  0  0  0  0  0  0  0  0  0  0
  161.7150  202.1240  151.1730 C   0  0  0  0  0  2  0  0  0  0  0  0
  161.3360  200.5510  149.4240 O   0  0  0  0  0  0  0  0  0  0  0  0
  159.6930  202.1230  149.7140 O   0  0  0  0  0  1  0  0  0  0  0  0
  160.9170  201.5590  150.0490 C   0  0  0  0  0  0  0  0  0  0  0  0
  161.0970  206.9820  147.7640 C   0  0  0  0  0  2  0  0  0  0  0  0
  162.3540  206.5150  147.0510 C   0  0  0  0  0  2  0  0  0  0  0  0
  162.5330  205.1150  147.2410 O   0  0  0  0  0  0  0  0  0  0  0  0
  161.9620  204.1410  146.4120 C   0  0  0  0  0  0  0  0  0  0  0  0
  159.7150  203.3720  144.4570 C   0  0  0  0  0  3  0  0  0  0  0  0
  160.5160  204.4370  144.4210 C   0  0  0  0  0  3  0  0  0  0  0  0
  161.9130  204.4210  144.9460 C   0  0  0  0  0  2  0  0  0  0  0  0
  161.5250  202.9770  146.9150 C   0  0  0  0  0  3  0  0  0  0  0  0
  160.8370  201.9120  146.1600 C   0  0  0  0  0  3  0  0  0  0  0  0
  160.0470  202.0830  145.0930 C   0  0  0  0  0  3  0  0  0  0  0  0
  162.3450  209.6990  151.7620 N   0  0  0  0  0  2  0  0  0  0  0  0
  161.8640  210.3690  154.0590 C   0  0  0  0  0  3  0  0  0  0  0  0
  160.9900  210.8620  155.0310 C   0  0  0  0  0  3  0  0  0  0  0  0
  160.1300  210.5900  152.3870 C   0  0  0  0  0  3  0  0  0  0  0  0
  159.6810  211.2280  154.6880 C   0  0  0  0  0  0  0  0  0  0  0  0
  159.2560  211.0840  153.3590 C   0  0  0  0  0  3  0  0  0  0  0  0
  161.4440  210.2450  152.7310 C   0  0  0  0  0  0  0  0  0  0  0  0
  157.3810  211.3790  155.6960 N   0  0  0  0  0  2  0  0  0  0  0  0
  158.7610  211.7500  155.7130 C   0  0  0  0  0  0  0  0  0  0  0  0
  159.1880  212.5290  156.6100 O   0  0  0  0  0  0  0  0  0  0  0  0
  156.4890  211.8650  156.6600 N   0  0  0  0  0  1  0  0  0  0  0  0
  1 12  1  0  0  0  0
  1  2  1  0  0  0  0
  3  8  1  0  0  0  0
  4  5  1  0  0  0  0
  5  3  1  0  0  0  0
  5 27  1  0  0  0  0
  6  1  2  0  0  0  0
  7  6  1  0  0  0  0
  7  3  2  0  0  0  0
  8  2  2  0  0  0  0
  9  4  2  0  0  0  0
  9  7  1  0  0  0  0
 10  4  1  0  0  0  0
 12 11  2  0  0  0  0
 13 12  1  0  0  0  0
 14 16  2  0  0  0  0
 15 16  1  0  0  0  0
 16 13  1  0  0  0  0
 17  9  1  0  0  0  0
 18 19  1  0  0  0  0
 18 17  1  0  0  0  0
 20 24  2  0  0  0  0
 20 19  1  0  0  0  0
 21 26  1  0  0  0  0
 22 21  2  0  0  0  0
 22 23  1  0  0  0  0
 23 20  1  0  0  0  0
 25 24  1  0  0  0  0
 26 25  2  0  0  0  0
 27 33  1  0  0  0  0
 28 29  1  0  0  0  0
 30 33  1  0  0  0  0
 30 32  2  0  0  0  0
 31 29  2  0  0  0  0
 31 35  1  0  0  0  0
 32 31  1  0  0  0  0
 33 28  2  0  0  0  0
 34 35  1  0  0  0  0
 34 37  1  0  0  0  0
 35 36  2  0  0  0  0
M  END
>  <MODEL>
3

>  <REMARK>
 VINA RESULT:      -8.9      1.516      4.097
  Name = 
  10 active torsions:
  status: ('A' for Active; 'I' for Inactive)
    1  A    between atoms: C_5  and  C_37
    2  A    between atoms: C_10  and  C_22
    3  A    between atoms: C_10  and  C_33
    4  A    between atoms: C_12  and  O_35
    5  A    between atoms: C_14  and  C_21
    6  A    between atoms: N_16  and  N_34
    7  A    between atoms: C_22  and  O_35
    8  A    between atoms: C_29  and  C_31
    9  A    between atoms: C_29  and  C_37
   10  A    between atoms: C_32  and  N_34
                            x       y       z     vdW  Elec       q    Type
                         _______ _______ _______ _____ _____    ______ ____

>  <TORSDO>
F 10

$$$$
=
 OpenBabel11052410593D

 37 40  0  0  0  0  0  0  0  0999 V2000
  161.6950  206.1130  148.6370 C   0  0  0  0  0  0  0  0  0  0  0  0
  162.2610  207.1400  147.8450 C   0  0  0  0  0  3  0  0  0  0  0  0
  161.9160  208.7090  149.6230 C   0  0  0  0  0  0  0  0  0  0  0  0
  161.4760  209.6020  151.5490 C   0  0  0  0  0  0  0  0  0  0  0  0
  161.9490  209.8700  150.3110 N   0  0  0  0  0  0  0  0  0  0  0  0
  161.2620  206.4020  149.9480 C   0  0  0  0  0  3  0  0  0  0  0  0
  161.3910  207.7100  150.4070 C   0  0  0  0  0  0  0  0  0  0  0  0
  162.3830  208.4520  148.3350 C   0  0  0  0  0  3  0  0  0  0  0  0
  161.1060  208.2630  151.6410 C   0  0  0  0  0  0  0  0  0  0  0  0
  161.3700  210.6090  152.6440 C   0  0  0  0  0  1  0  0  0  0  0  0
  160.8040  203.9130  148.6480 O   0  0  0  0  0  0  0  0  0  0  0  0
  161.5720  204.7450  148.0940 C   0  0  0  0  0  0  0  0  0  0  0  0
  162.3670  204.3110  146.9040 C   0  0  0  0  0  2  0  0  0  0  0  0
  161.1950  202.8900  145.3930 O   0  0  0  0  0  1  0  0  0  0  0  0
  160.9040  205.1400  145.0630 O   0  0  0  0  0  0  0  0  0  0  0  0
  161.4680  204.0680  145.7410 C   0  0  0  0  0  0  0  0  0  0  0  0
  160.5010  207.5730  152.8170 C   0  0  0  0  0  2  0  0  0  0  0  0
  161.5970  207.0030  153.6990 C   0  0  0  0  0  2  0  0  0  0  0  0
  161.2270  207.1080  155.0710 O   0  0  0  0  0  0  0  0  0  0  0  0
  161.0490  208.3290  155.7350 C   0  0  0  0  0  0  0  0  0  0  0  0
  159.7370  211.1110  155.7690 C   0  0  0  0  0  3  0  0  0  0  0  0
  159.1580  209.9240  155.5890 C   0  0  0  0  0  3  0  0  0  0  0  0
  159.6720  208.6660  156.2060 C   0  0  0  0  0  2  0  0  0  0  0  0
  162.0890  209.1370  155.9830 C   0  0  0  0  0  3  0  0  0  0  0  0
  162.0170  210.4760  156.6000 C   0  0  0  0  0  3  0  0  0  0  0  0
  160.9960  211.3370  156.5050 C   0  0  0  0  0  3  0  0  0  0  0  0
  162.5030  211.0970  149.9020 N   0  0  0  0  0  2  0  0  0  0  0  0
  160.8140  211.8320  148.3010 C   0  0  0  0  0  3  0  0  0  0  0  0
  160.4550  212.4440  147.0970 C   0  0  0  0  0  3  0  0  0  0  0  0
  163.1440  212.2880  147.8370 C   0  0  0  0  0  3  0  0  0  0  0  0
  161.4370  212.9870  146.2560 C   0  0  0  0  0  0  0  0  0  0  0  0
  162.7850  212.9010  146.6340 C   0  0  0  0  0  3  0  0  0  0  0  0
  162.1570  211.7650  148.6840 C   0  0  0  0  0  0  0  0  0  0  0  0
  161.7840  213.3500  143.7920 N   0  0  0  0  0  2  0  0  0  0  0  0
  161.0570  213.6340  144.9890 C   0  0  0  0  0  0  0  0  0  0  0  0
  160.0880  214.4420  144.9560 O   0  0  0  0  0  0  0  0  0  0  0  0
  161.4410  213.9550  142.5760 N   0  0  0  0  0  1  0  0  0  0  0  0
  1  6  1  0  0  0  0
  2  8  1  0  0  0  0
  2  1  2  0  0  0  0
  3  5  1  0  0  0  0
  3  7  1  0  0  0  0
  4  9  2  0  0  0  0
  4 10  1  0  0  0  0
  5  4  1  0  0  0  0
  6  7  2  0  0  0  0
  7  9  1  0  0  0  0
  8  3  2  0  0  0  0
  9 17  1  0  0  0  0
 12  1  1  0  0  0  0
 12 11  2  0  0  0  0
 13 12  1  0  0  0  0
 14 16  1  0  0  0  0
 15 16  2  0  0  0  0
 16 13  1  0  0  0  0
 17 18  1  0  0  0  0
 18 19  1  0  0  0  0
 19 20  1  0  0  0  0
 20 24  2  0  0  0  0
 20 23  1  0  0  0  0
 21 26  1  0  0  0  0
 22 21  2  0  0  0  0
 22 23  1  0  0  0  0
 24 25  1  0  0  0  0
 26 25  2  0  0  0  0
 27  5  1  0  0  0  0
 28 33  1  0  0  0  0
 29 28  2  0  0  0  0
 30 33  2  0  0  0  0
 31 32  2  0  0  0  0
 31 29  1  0  0  0  0
 32 30  1  0  0  0  0
 33 27  1  0  0  0  0
 34 35  1  0  0  0  0
 35 31  1  0  0  0  0
 36 35  2  0  0  0  0
 37 34  1  0  0  0  0
M  END
>  <MODEL>
4

>  <REMARK>
 VINA RESULT:      -7.8      3.826      7.206
  Name = 
  10 active torsions:
  status: ('A' for Active; 'I' for Inactive)
    1  A    between atoms: C_5  and  C_37
    2  A    between atoms: C_10  and  C_22
    3  A    between atoms: C_10  and  C_33
    4  A    between atoms: C_12  and  O_35
    5  A    between atoms: C_14  and  C_21
    6  A    between atoms: N_16  and  N_34
    7  A    between atoms: C_22  and  O_35
    8  A    between atoms: C_29  and  C_31
    9  A    between atoms: C_29  and  C_37
   10  A    between atoms: C_32  and  N_34
                            x       y       z     vdW  Elec       q    Type
                         _______ _______ _______ _____ _____    ______ ____

>  <TORSDO>
F 10

$$$$
=
 OpenBabel11052410593D

 37 40  0  0  0  0  0  0  0  0999 V2000
  161.6340  210.5860  150.4280 C   0  0  0  0  0  0  0  0  0  0  0  0
  162.2800  209.4050  149.9910 C   0  0  0  0  0  3  0  0  0  0  0  0
  161.6880  208.3160  152.0420 C   0  0  0  0  0  0  0  0  0  0  0  0
  160.8000  207.8450  153.9620 C   0  0  0  0  0  0  0  0  0  0  0  0
  161.5630  207.3410  152.9670 N   0  0  0  0  0  0  0  0  0  0  0  0
  160.9910  210.6050  151.6840 C   0  0  0  0  0  3  0  0  0  0  0  0
  161.0370  209.4500  152.4610 C   0  0  0  0  0  0  0  0  0  0  0  0
  162.3070  208.2520  150.7940 C   0  0  0  0  0  3  0  0  0  0  0  0
  160.4620  209.1660  153.6850 C   0  0  0  0  0  0  0  0  0  0  0  0
  160.3910  207.0810  155.1760 C   0  0  0  0  0  1  0  0  0  0  0  0
  160.8250  212.7290  149.8040 O   0  0  0  0  0  0  0  0  0  0  0  0
  161.6270  211.7860  149.5670 C   0  0  0  0  0  0  0  0  0  0  0  0
  162.5420  211.8980  148.3900 C   0  0  0  0  0  2  0  0  0  0  0  0
  161.2450  212.8060  146.6100 O   0  0  0  0  0  0  0  0  0  0  0  0
  162.6320  214.2860  147.6780 O   0  0  0  0  0  1  0  0  0  0  0  0
  162.1080  213.0120  147.5010 C   0  0  0  0  0  0  0  0  0  0  0  0
  159.6700  210.0940  154.5430 C   0  0  0  0  0  2  0  0  0  0  0  0
  160.6060  210.9660  155.3600 C   0  0  0  0  0  2  0  0  0  0  0  0
  160.4290  212.3360  155.0140 O   0  0  0  0  0  0  0  0  0  0  0  0
  159.1810  212.9090  154.7350 C   0  0  0  0  0  0  0  0  0  0  0  0
  156.1210  212.6020  154.6910 C   0  0  0  0  0  3  0  0  0  0  0  0
  156.9630  212.3670  155.6980 C   0  0  0  0  0  3  0  0  0  0  0  0
  158.2420  213.1140  155.8790 C   0  0  0  0  0  2  0  0  0  0  0  0
  158.8670  213.3080  153.4950 C   0  0  0  0  0  3  0  0  0  0  0  0
  157.5630  213.8490  153.0630 C   0  0  0  0  0  3  0  0  0  0  0  0
  156.3680  213.5410  153.5810 C   0  0  0  0  0  3  0  0  0  0  0  0
  161.9970  206.0060  152.8730 N   0  0  0  0  0  2  0  0  0  0  0  0
  161.4480  203.7360  152.1630 C   0  0  0  0  0  3  0  0  0  0  0  0
  161.0720  202.8220  151.1750 C   0  0  0  0  0  3  0  0  0  0  0  0
  161.3460  205.5280  150.5410 C   0  0  0  0  0  3  0  0  0  0  0  0
  160.8250  203.2530  149.8650 C   0  0  0  0  0  0  0  0  0  0  0  0
  160.9690  204.6140  149.5530 C   0  0  0  0  0  3  0  0  0  0  0  0
  161.5710  205.0950  151.8540 C   0  0  0  0  0  0  0  0  0  0  0  0
  161.0900  202.2820  147.5600 N   0  0  0  0  0  2  0  0  0  0  0  0
  160.4270  202.2890  148.8250 C   0  0  0  0  0  0  0  0  0  0  0  0
  159.4970  201.4650  149.0490 O   0  0  0  0  0  0  0  0  0  0  0  0
  160.7260  201.3750  146.5570 N   0  0  0  0  0  1  0  0  0  0  0  0
  1  6  1  0  0  0  0
  2  1  2  0  0  0  0
  2  8  1  0  0  0  0
  3  7  1  0  0  0  0
  3  5  1  0  0  0  0
  4 10  1  0  0  0  0
  5  4  1  0  0  0  0
  6  7  2  0  0  0  0
  7  9  1  0  0  0  0
  8  3  2  0  0  0  0
  9  4  2  0  0  0  0
  9 17  1  0  0  0  0
 12 11  2  0  0  0  0
 12  1  1  0  0  0  0
 13 12  1  0  0  0  0
 14 16  2  0  0  0  0
 16 15  1  0  0  0  0
 16 13  1  0  0  0  0
 17 18  1  0  0  0  0
 19 18  1  0  0  0  0
 20 19  1  0  0  0  0
 20 23  1  0  0  0  0
 21 22  2  0  0  0  0
 22 23  1  0  0  0  0
 24 20  2  0  0  0  0
 25 24  1  0  0  0  0
 25 26  2  0  0  0  0
 26 21  1  0  0  0  0
 27  5  1  0  0  0  0
 29 28  2  0  0  0  0
 30 33  2  0  0  0  0
 31 29  1  0  0  0  0
 32 31  2  0  0  0  0
 32 30  1  0  0  0  0
 33 28  1  0  0  0  0
 33 27  1  0  0  0  0
 34 35  1  0  0  0  0
 35 36  2  0  0  0  0
 35 31  1  0  0  0  0
 37 34  1  0  0  0  0
M  END
>  <MODEL>
5

>  <REMARK>
 VINA RESULT:      -7.7      3.422      9.208
  Name = 
  10 active torsions:
  status: ('A' for Active; 'I' for Inactive)
    1  A    between atoms: C_5  and  C_37
    2  A    between atoms: C_10  and  C_22
    3  A    between atoms: C_10  and  C_33
    4  A    between atoms: C_12  and  O_35
    5  A    between atoms: C_14  and  C_21
    6  A    between atoms: N_16  and  N_34
    7  A    between atoms: C_22  and  O_35
    8  A    between atoms: C_29  and  C_31
    9  A    between atoms: C_29  and  C_37
   10  A    between atoms: C_32  and  N_34
                            x       y       z     vdW  Elec       q    Type
                         _______ _______ _______ _____ _____    ______ ____

>  <TORSDO>
F 10

$$$$
=
 OpenBabel11052410593D

 37 40  0  0  0  0  0  0  0  0999 V2000
  160.9160  203.6150  150.8370 C   0  0  0  0  0  0  0  0  0  0  0  0
  161.0030  203.4940  152.2460 C   0  0  0  0  0  3  0  0  0  0  0  0
  161.2700  205.8680  152.4370 C   0  0  0  0  0  0  0  0  0  0  0  0
  161.3530  207.9900  152.0050 C   0  0  0  0  0  0  0  0  0  0  0  0
  161.4100  207.0840  153.0060 N   0  0  0  0  0  0  0  0  0  0  0  0
  160.9860  204.8920  150.2410 C   0  0  0  0  0  3  0  0  0  0  0  0
  161.1610  205.9950  151.0740 C   0  0  0  0  0  0  0  0  0  0  0  0
  161.1750  204.6250  153.0620 C   0  0  0  0  0  3  0  0  0  0  0  0
  161.2090  207.3440  150.7810 C   0  0  0  0  0  0  0  0  0  0  0  0
  161.4370  209.4660  152.2020 C   0  0  0  0  0  1  0  0  0  0  0  0
  160.8870  201.2640  150.5100 O   0  0  0  0  0  0  0  0  0  0  0  0
  160.7430  202.4090  150.0030 C   0  0  0  0  0  0  0  0  0  0  0  0
  160.4240  202.5160  148.5460 C   0  0  0  0  0  2  0  0  0  0  0  0
  161.5690  200.4300  148.4320 O   0  0  0  0  0  1  0  0  0  0  0  0
  160.8470  201.2730  146.4260 O   0  0  0  0  0  0  0  0  0  0  0  0
  160.9900  201.3540  147.8050 C   0  0  0  0  0  0  0  0  0  0  0  0
  161.1500  207.9730  149.4300 C   0  0  0  0  0  2  0  0  0  0  0  0
  162.5480  208.3560  148.9780 C   0  0  0  0  0  2  0  0  0  0  0  0
  163.0140  207.4380  147.9940 O   0  0  0  0  0  0  0  0  0  0  0  0
  162.1780  206.5490  147.3050 C   0  0  0  0  0  0  0  0  0  0  0  0
  161.8530  204.5170  145.0200 C   0  0  0  0  0  3  0  0  0  0  0  0
  162.7860  204.5510  145.9710 C   0  0  0  0  0  3  0  0  0  0  0  0
  162.5350  205.0990  147.3360 C   0  0  0  0  0  2  0  0  0  0  0  0
  161.0710  206.9820  146.6880 C   0  0  0  0  0  3  0  0  0  0  0  0
  160.1590  206.1600  145.8670 C   0  0  0  0  0  3  0  0  0  0  0  0
  160.4990  205.0900  145.1390 C   0  0  0  0  0  3  0  0  0  0  0  0
  161.4530  207.3920  154.3790 N   0  0  0  0  0  2  0  0  0  0  0  0
  159.7040  209.0090  154.9110 C   0  0  0  0  0  3  0  0  0  0  0  0
  159.2970  210.2510  155.4060 C   0  0  0  0  0  3  0  0  0  0  0  0
  162.0040  209.5630  155.4160 C   0  0  0  0  0  3  0  0  0  0  0  0
  160.2390  211.1560  155.9140 C   0  0  0  0  0  0  0  0  0  0  0  0
  161.5970  210.8040  155.9120 C   0  0  0  0  0  3  0  0  0  0  0  0
  161.0560  208.6530  154.9280 C   0  0  0  0  0  0  0  0  0  0  0  0
  158.4940  212.9500  156.1620 N   0  0  0  0  0  2  0  0  0  0  0  0
  159.8080  212.4640  156.4380 C   0  0  0  0  0  0  0  0  0  0  0  0
  160.6010  213.1590  157.1320 O   0  0  0  0  0  0  0  0  0  0  0  0
  158.0640  214.1910  156.6490 N   0  0  0  0  0  1  0  0  0  0  0  0
  1  2  1  0  0  0  0
  2  8  2  0  0  0  0
  3  5  1  0  0  0  0
  3  8  1  0  0  0  0
  4 10  1  0  0  0  0
  4  5  1  0  0  0  0
  5 27  1  0  0  0  0
  6  1  2  0  0  0  0
  6  7  1  0  0  0  0
  7  3  2  0  0  0  0
  9  7  1  0  0  0  0
  9  4  2  0  0  0  0
 12 11  2  0  0  0  0
 12  1  1  0  0  0  0
 13 12  1  0  0  0  0
 15 16  2  0  0  0  0
 16 14  1  0  0  0  0
 16 13  1  0  0  0  0
 17  9  1  0  0  0  0
 18 17  1  0  0  0  0
 19 18  1  0  0  0  0
 20 23  1  0  0  0  0
 20 19  1  0  0  0  0
 21 26  1  0  0  0  0
 21 22  2  0  0  0  0
 22 23  1  0  0  0  0
 24 20  2  0  0  0  0
 25 24  1  0  0  0  0
 26 25  2  0  0  0  0
 27 33  1  0  0  0  0
 28 33  2  0  0  0  0
 28 29  1  0  0  0  0
 29 31  2  0  0  0  0
 30 32  2  0  0  0  0
 31 35  1  0  0  0  0
 32 31  1  0  0  0  0
 33 30  1  0  0  0  0
 34 35  1  0  0  0  0
 34 37  1  0  0  0  0
 35 36  2  0  0  0  0
M  END
>  <MODEL>
6

>  <REMARK>
 VINA RESULT:      -7.4      1.850      4.078
  Name = 
  10 active torsions:
  status: ('A' for Active; 'I' for Inactive)
    1  A    between atoms: C_5  and  C_37
    2  A    between atoms: C_10  and  C_22
    3  A    between atoms: C_10  and  C_33
    4  A    between atoms: C_12  and  O_35
    5  A    between atoms: C_14  and  C_21
    6  A    between atoms: N_16  and  N_34
    7  A    between atoms: C_22  and  O_35
    8  A    between atoms: C_29  and  C_31
    9  A    between atoms: C_29  and  C_37
   10  A    between atoms: C_32  and  N_34
                            x       y       z     vdW  Elec       q    Type
                         _______ _______ _______ _____ _____    ______ ____

>  <TORSDO>
F 10

$$$$
=
 OpenBabel11052410593D

 37 40  0  0  0  0  0  0  0  0999 V2000
  159.0360  211.7050  154.5080 C   0  0  0  0  0  0  0  0  0  0  0  0
  159.7410  210.4910  154.6960 C   0  0  0  0  0  3  0  0  0  0  0  0
  160.6810  210.6920  152.5010 C   0  0  0  0  0  0  0  0  0  0  0  0
  161.2800  211.4470  150.5590 C   0  0  0  0  0  0  0  0  0  0  0  0
  161.4340  210.4120  151.4160 N   0  0  0  0  0  0  0  0  0  0  0  0
  159.1880  212.4200  153.3020 C   0  0  0  0  0  3  0  0  0  0  0  0
  160.0210  211.8840  152.3230 C   0  0  0  0  0  0  0  0  0  0  0  0
  160.5780  209.9750  153.6920 C   0  0  0  0  0  3  0  0  0  0  0  0
  160.3940  212.3800  151.0890 C   0  0  0  0  0  0  0  0  0  0  0  0
  161.9680  211.5530  149.2400 C   0  0  0  0  0  1  0  0  0  0  0  0
  158.4220  213.3180  156.1380 O   0  0  0  0  0  0  0  0  0  0  0  0
  158.1570  212.2210  155.5770 C   0  0  0  0  0  0  0  0  0  0  0  0
  156.9600  211.4500  156.0320 C   0  0  0  0  0  2  0  0  0  0  0  0
  155.6280  212.5690  154.4050 O   0  0  0  0  0  0  0  0  0  0  0  0
  155.2120  210.3280  154.6510 O   0  0  0  0  0  1  0  0  0  0  0  0
  155.8920  211.4890  154.9940 C   0  0  0  0  0  0  0  0  0  0  0  0
  159.9220  213.6410  150.4460 C   0  0  0  0  0  2  0  0  0  0  0  0
  158.8220  213.3280  149.4480 C   0  0  0  0  0  2  0  0  0  0  0  0
  158.8090  214.3030  148.4100 O   0  0  0  0  0  0  0  0  0  0  0  0
  159.3570  214.0890  147.1380 C   0  0  0  0  0  0  0  0  0  0  0  0
  159.7070  212.2040  144.7330 C   0  0  0  0  0  3  0  0  0  0  0  0
  158.5780  212.5770  145.3360 C   0  0  0  0  0  3  0  0  0  0  0  0
  158.4100  213.9040  145.9980 C   0  0  0  0  0  2  0  0  0  0  0  0
  160.6840  214.1050  146.9470 C   0  0  0  0  0  3  0  0  0  0  0  0
  161.3800  213.8150  145.6780 C   0  0  0  0  0  3  0  0  0  0  0  0
  160.9570  212.9860  144.7160 C   0  0  0  0  0  3  0  0  0  0  0  0
  162.3320  209.3420  151.2450 N   0  0  0  0  0  2  0  0  0  0  0  0
  161.8420  207.0170  151.8000 C   0  0  0  0  0  3  0  0  0  0  0  0
  161.5010  205.7160  151.4220 C   0  0  0  0  0  3  0  0  0  0  0  0
  161.7270  207.7180  149.4880 C   0  0  0  0  0  3  0  0  0  0  0  0
  161.2650  205.4060  150.0750 C   0  0  0  0  0  0  0  0  0  0  0  0
  161.3850  206.4170  149.1100 C   0  0  0  0  0  3  0  0  0  0  0  0
  161.9410  208.0260  150.8380 C   0  0  0  0  0  0  0  0  0  0  0  0
  161.1680  203.5780  148.3510 N   0  0  0  0  0  2  0  0  0  0  0  0
  160.9030  204.0340  149.6780 C   0  0  0  0  0  0  0  0  0  0  0  0
  160.3570  203.2580  150.5100 O   0  0  0  0  0  0  0  0  0  0  0  0
  160.8310  202.2780  147.9520 N   0  0  0  0  0  1  0  0  0  0  0  0
  1  2  1  0  0  0  0
  1 12  1  0  0  0  0
  3  8  1  0  0  0  0
  4  9  2  0  0  0  0
  4  5  1  0  0  0  0
  5  3  1  0  0  0  0
  6  1  2  0  0  0  0
  7  3  2  0  0  0  0
  7  6  1  0  0  0  0
  8  2  2  0  0  0  0
  9  7  1  0  0  0  0
 10  4  1  0  0  0  0
 12 13  1  0  0  0  0
 12 11  2  0  0  0  0
 14 16  2  0  0  0  0
 15 16  1  0  0  0  0
 16 13  1  0  0  0  0
 17  9  1  0  0  0  0
 18 17  1  0  0  0  0
 19 18  1  0  0  0  0
 20 19  1  0  0  0  0
 21 22  2  0  0  0  0
 22 23  1  0  0  0  0
 23 20  1  0  0  0  0
 24 20  2  0  0  0  0
 25 24  1  0  0  0  0
 26 21  1  0  0  0  0
 26 25  2  0  0  0  0
 27  5  1  0  0  0  0
 29 28  1  0  0  0  0
 30 33  1  0  0  0  0
 31 29  2  0  0  0  0
 32 30  2  0  0  0  0
 32 31  1  0  0  0  0
 33 27  1  0  0  0  0
 33 28  2  0  0  0  0
 34 35  1  0  0  0  0
 35 31  1  0  0  0  0
 35 36  2  0  0  0  0
 37 34  1  0  0  0  0
M  END
>  <MODEL>
7

>  <REMARK>
 VINA RESULT:      -7.3      3.812      9.802
  Name = 
  10 active torsions:
  status: ('A' for Active; 'I' for Inactive)
    1  A    between atoms: C_5  and  C_37
    2  A    between atoms: C_10  and  C_22
    3  A    between atoms: C_10  and  C_33
    4  A    between atoms: C_12  and  O_35
    5  A    between atoms: C_14  and  C_21
    6  A    between atoms: N_16  and  N_34
    7  A    between atoms: C_22  and  O_35
    8  A    between atoms: C_29  and  C_31
    9  A    between atoms: C_29  and  C_37
   10  A    between atoms: C_32  and  N_34
                            x       y       z     vdW  Elec       q    Type
                         _______ _______ _______ _____ _____    ______ ____

>  <TORSDO>
F 10

$$$$
=
 OpenBabel11052410593D

 37 40  0  0  0  0  0  0  0  0999 V2000
  161.0160  208.6380  152.6720 C   0  0  0  0  0  0  0  0  0  0  0  0
  161.8260  209.2280  151.6720 C   0  0  0  0  0  3  0  0  0  0  0  0
  160.4900  211.2160  151.7550 C   0  0  0  0  0  0  0  0  0  0  0  0
  159.0500  212.7270  152.3390 C   0  0  0  0  0  0  0  0  0  0  0  0
  160.0710  212.4710  151.4900 N   0  0  0  0  0  0  0  0  0  0  0  0
  159.9470  209.3730  153.2270 C   0  0  0  0  0  3  0  0  0  0  0  0
  159.7160  210.6590  152.7450 C   0  0  0  0  0  0  0  0  0  0  0  0
  161.5730  210.5300  151.2070 C   0  0  0  0  0  3  0  0  0  0  0  0
  158.7930  211.6120  153.1300 C   0  0  0  0  0  0  0  0  0  0  0  0
  158.3160  214.0240  152.4010 C   0  0  0  0  0  1  0  0  0  0  0  0
  160.7730  206.8370  154.1990 O   0  0  0  0  0  0  0  0  0  0  0  0
  161.2990  207.2650  153.1370 C   0  0  0  0  0  0  0  0  0  0  0  0
  162.2280  206.3700  152.3820 C   0  0  0  0  0  2  0  0  0  0  0  0
  160.7450  205.7650  150.6180 O   0  0  0  0  0  0  0  0  0  0  0  0
  161.5480  204.0240  151.8740 O   0  0  0  0  0  1  0  0  0  0  0  0
  161.4560  205.3790  151.5810 C   0  0  0  0  0  0  0  0  0  0  0  0
  157.7250  211.4640  154.1610 C   0  0  0  0  0  2  0  0  0  0  0  0
  158.1570  212.1370  155.4510 C   0  0  0  0  0  2  0  0  0  0  0  0
  158.3510  211.1630  156.4710 O   0  0  0  0  0  0  0  0  0  0  0  0
  159.5930  210.5850  156.7650 C   0  0  0  0  0  0  0  0  0  0  0  0
  162.4620  209.9610  155.8480 C   0  0  0  0  0  3  0  0  0  0  0  0
  161.8280  211.1340  155.8470 C   0  0  0  0  0  3  0  0  0  0  0  0
  160.7770  211.4910  156.8450 C   0  0  0  0  0  2  0  0  0  0  0  0
  159.7000  209.2730  157.0180 C   0  0  0  0  0  3  0  0  0  0  0  0
  160.9570  208.5370  157.2610 C   0  0  0  0  0  3  0  0  0  0  0  0
  162.1580  208.8350  156.7500 C   0  0  0  0  0  3  0  0  0  0  0  0
  160.6580  213.4080  150.6190 N   0  0  0  0  0  2  0  0  0  0  0  0
  159.5670  213.3920  148.4360 C   0  0  0  0  0  3  0  0  0  0  0  0
  159.6040  213.1990  147.0530 C   0  0  0  0  0  3  0  0  0  0  0  0
  161.9260  212.8720  148.5700 C   0  0  0  0  0  3  0  0  0  0  0  0
  160.8020  212.8460  146.4160 C   0  0  0  0  0  0  0  0  0  0  0  0
  161.9630  212.6790  147.1870 C   0  0  0  0  0  3  0  0  0  0  0  0
  160.7300  213.2440  149.1980 C   0  0  0  0  0  0  0  0  0  0  0  0
  162.0280  212.9450  144.2220 N   0  0  0  0  0  2  0  0  0  0  0  0
  160.8400  212.6450  144.9580 C   0  0  0  0  0  0  0  0  0  0  0  0
  159.8230  212.2070  144.3530 O   0  0  0  0  0  0  0  0  0  0  0  0
  162.0850  212.7620  142.8350 N   0  0  0  0  0  1  0  0  0  0  0  0
  1 12  1  0  0  0  0
  1  6  1  0  0  0  0
  2  1  2  0  0  0  0
  3  7  1  0  0  0  0
  4 10  1  0  0  0  0
  4  9  2  0  0  0  0
  5  3  1  0  0  0  0
  5  4  1  0  0  0  0
  7  9  1  0  0  0  0
  7  6  2  0  0  0  0
  8  2  1  0  0  0  0
  8  3  2  0  0  0  0
  9 17  1  0  0  0  0
 12 11  2  0  0  0  0
 13 12  1  0  0  0  0
 14 16  2  0  0  0  0
 16 15  1  0  0  0  0
 16 13  1  0  0  0  0
 17 18  1  0  0  0  0
 18 19  1  0  0  0  0
 19 20  1  0  0  0  0
 20 23  1  0  0  0  0
 20 24  2  0  0  0  0
 21 26  1  0  0  0  0
 22 21  2  0  0  0  0
 22 23  1  0  0  0  0
 24 25  1  0  0  0  0
 26 25  2  0  0  0  0
 27  5  1  0  0  0  0
 28 33  1  0  0  0  0
 29 28  2  0  0  0  0
 30 33  2  0  0  0  0
 31 29  1  0  0  0  0
 31 32  2  0  0  0  0
 32 30  1  0  0  0  0
 33 27  1  0  0  0  0
 34 35  1  0  0  0  0
 35 31  1  0  0  0  0
 36 35  2  0  0  0  0
 37 34  1  0  0  0  0
M  END
>  <MODEL>
8

>  <REMARK>
 VINA RESULT:      -7.2      3.803      8.488
  Name = 
  10 active torsions:
  status: ('A' for Active; 'I' for Inactive)
    1  A    between atoms: C_5  and  C_37
    2  A    between atoms: C_10  and  C_22
    3  A    between atoms: C_10  and  C_33
    4  A    between atoms: C_12  and  O_35
    5  A    between atoms: C_14  and  C_21
    6  A    between atoms: N_16  and  N_34
    7  A    between atoms: C_22  and  O_35
    8  A    between atoms: C_29  and  C_31
    9  A    between atoms: C_29  and  C_37
   10  A    between atoms: C_32  and  N_34
                            x       y       z     vdW  Elec       q    Type
                         _______ _______ _______ _____ _____    ______ ____

>  <TORSDO>
F 10

$$$$
=
 OpenBabel11052410593D

 37 40  0  0  0  0  0  0  0  0999 V2000
  161.0540  204.2630  151.1150 C   0  0  0  0  0  0  0  0  0  0  0  0
  160.9970  204.4680  152.5150 C   0  0  0  0  0  3  0  0  0  0  0  0
  161.4580  206.7980  152.1970 C   0  0  0  0  0  0  0  0  0  0  0  0
  161.7740  208.7510  151.3100 C   0  0  0  0  0  0  0  0  0  0  0  0
  161.6540  208.1010  152.4900 N   0  0  0  0  0  0  0  0  0  0  0  0
  161.2950  205.3580  150.2590 C   0  0  0  0  0  3  0  0  0  0  0  0
  161.4900  206.6100  150.8360 C   0  0  0  0  0  0  0  0  0  0  0  0
  161.1930  205.7440  153.0700 C   0  0  0  0  0  3  0  0  0  0  0  0
  161.6880  207.8480  150.2550 C   0  0  0  0  0  0  0  0  0  0  0  0
  161.9710  210.2230  151.1790 C   0  0  0  0  0  1  0  0  0  0  0  0
  161.3390  201.9060  151.1470 O   0  0  0  0  0  0  0  0  0  0  0  0
  160.8520  202.9090  150.5590 C   0  0  0  0  0  0  0  0  0  0  0  0
  160.0980  202.7020  149.2850 C   0  0  0  0  0  2  0  0  0  0  0  0
  161.2070  201.0570  147.9660 O   0  0  0  0  0  1  0  0  0  0  0  0
  161.6590  203.2350  147.4150 O   0  0  0  0  0  0  0  0  0  0  0  0
  161.0240  202.2800  148.1970 C   0  0  0  0  0  0  0  0  0  0  0  0
  161.8130  208.1470  148.7980 C   0  0  0  0  0  2  0  0  0  0  0  0
  162.3130  209.5680  148.6070 C   0  0  0  0  0  2  0  0  0  0  0  0
  161.2730  210.3880  148.0830 O   0  0  0  0  0  0  0  0  0  0  0  0
  161.4420  211.7390  147.7520 C   0  0  0  0  0  0  0  0  0  0  0  0
  161.8770  213.8520  145.5610 C   0  0  0  0  0  3  0  0  0  0  0  0
  160.9480  212.8980  145.6190 C   0  0  0  0  0  3  0  0  0  0  0  0
  160.3940  212.3810  146.9040 C   0  0  0  0  0  2  0  0  0  0  0  0
  162.4810  212.4400  148.2270 C   0  0  0  0  0  3  0  0  0  0  0  0
  162.8090  213.8380  147.8890 C   0  0  0  0  0  3  0  0  0  0  0  0
  162.5500  214.4530  146.7280 C   0  0  0  0  0  3  0  0  0  0  0  0
  161.5940  208.7170  153.7530 N   0  0  0  0  0  2  0  0  0  0  0  0
  159.7920  210.3160  153.3650 C   0  0  0  0  0  3  0  0  0  0  0  0
  158.7090  211.0720  153.8210 C   0  0  0  0  0  3  0  0  0  0  0  0
  160.0590  209.3680  155.5740 C   0  0  0  0  0  3  0  0  0  0  0  0
  158.2890  210.9780  155.1550 C   0  0  0  0  0  0  0  0  0  0  0  0
  158.9750  210.1230  156.0300 C   0  0  0  0  0  3  0  0  0  0  0  0
  160.4620  209.4500  154.2340 C   0  0  0  0  0  0  0  0  0  0  0  0
  157.3380  213.1220  156.0620 N   0  0  0  0  0  2  0  0  0  0  0  0
  157.1450  211.7730  155.6340 C   0  0  0  0  0  0  0  0  0  0  0  0
  155.9910  211.2640  155.6680 O   0  0  0  0  0  0  0  0  0  0  0  0
  156.2650  213.8950  156.5230 N   0  0  0  0  0  1  0  0  0  0  0  0
  1  2  1  0  0  0  0
  2  8  2  0  0  0  0
  3  5  1  0  0  0  0
  3  8  1  0  0  0  0
  4  5  1  0  0  0  0
  5 27  1  0  0  0  0
  6  7  1  0  0  0  0
  6  1  2  0  0  0  0
  7  3  2  0  0  0  0
  9  7  1  0  0  0  0
  9  4  2  0  0  0  0
 10  4  1  0  0  0  0
 12  1  1  0  0  0  0
 12 11  2  0  0  0  0
 13 12  1  0  0  0  0
 14 16  1  0  0  0  0
 15 16  2  0  0  0  0
 16 13  1  0  0  0  0
 17  9  1  0  0  0  0
 18 17  1  0  0  0  0
 19 18  1  0  0  0  0
 20 19  1  0  0  0  0
 20 24  2  0  0  0  0
 21 22  2  0  0  0  0
 21 26  1  0  0  0  0
 22 23  1  0  0  0  0
 23 20  1  0  0  0  0
 25 24  1  0  0  0  0
 26 25  2  0  0  0  0
 27 33  1  0  0  0  0
 28 29  2  0  0  0  0
 28 33  1  0  0  0  0
 29 31  1  0  0  0  0
 30 32  1  0  0  0  0
 31 35  1  0  0  0  0
 31 32  2  0  0  0  0
 33 30  2  0  0  0  0
 34 37  1  0  0  0  0
 35 36  2  0  0  0  0
 35 34  1  0  0  0  0
M  END
>  <MODEL>
9

>  <REMARK>
 VINA RESULT:      -7.0      2.787      6.173
  Name = 
  10 active torsions:
  status: ('A' for Active; 'I' for Inactive)
    1  A    between atoms: C_5  and  C_37
    2  A    between atoms: C_10  and  C_22
    3  A    between atoms: C_10  and  C_33
    4  A    between atoms: C_12  and  O_35
    5  A    between atoms: C_14  and  C_21
    6  A    between atoms: N_16  and  N_34
    7  A    between atoms: C_22  and  O_35
    8  A    between atoms: C_29  and  C_31
    9  A    between atoms: C_29  and  C_37
   10  A    between atoms: C_32  and  N_34
                            x       y       z     vdW  Elec       q    Type
                         _______ _______ _______ _____ _____    ______ ____

>  <TORSDO>
F 10

$$$$
