=
 OpenBabel11042421473D

 63 68  0  0  1  0  0  0  0  0999 V2000
  162.2800  210.1360  148.8970 C   0  0  0  0  0  2  0  0  0  0  0  0
  163.1540  211.1600  148.3660 N   0  0  0  0  0  2  0  0  0  0  0  0
  163.6520  213.3630  147.9060 O   0  0  0  0  0  0  0  0  0  0  0  0
  160.4880  212.5250  149.5400 C   0  0  0  0  0  0  0  0  0  0  0  0
  162.7660  212.5260  148.2270 C   0  0  0  0  0  0  0  0  0  0  0  0
  160.8560  213.8990  147.6300 N   0  0  0  0  0  0  0  0  0  0  0  0
  160.7360  211.3560  150.3340 N   0  0  0  0  0  2  0  0  0  0  0  0
  161.3590  212.9910  148.4200 C   0  0  0  0  0  0  0  0  0  0  0  0
  161.9220  210.5180  150.3140 C   0  0  1  0  0  3  0  0  0  0  0  0
  159.4450  213.1860  149.7940 O   0  0  0  0  0  0  0  0  0  0  0  0
  161.7130  209.2950  151.1510 C   0  0  0  0  0  0  0  0  0  0  0  0
  162.1690  209.1400  152.3890 C   0  0  0  0  0  0  0  0  0  0  0  0
  161.3730  206.9970  151.6850 C   0  0  0  0  0  3  0  0  0  0  0  0
  161.0920  208.0520  150.6210 C   0  0  0  0  0  3  0  0  0  0  0  0
  161.9970  207.7370  152.8680 C   0  0  2  0  0  3  0  0  0  0  0  0
  160.4910  206.2030  154.2820 C   0  0  0  0  0  2  0  0  0  0  0  0
  161.1060  207.6120  154.1150 C   0  0  2  0  0  3  0  0  0  0  0  0
  159.9600  209.8060  156.7060 O   0  0  0  0  0  1  0  0  0  0  0  0
  160.0710  208.7310  154.1860 C   0  0  0  0  0  2  0  0  0  0  0  0
  159.4460  206.0720  155.4090 C   0  0  0  0  0  2  0  0  0  0  0  0
  157.6620  209.0170  155.7080 O   0  0  0  0  0  0  0  0  0  0  0  0
  159.6300  207.0890  156.5300 C   0  0  0  0  0  2  0  0  0  0  0  0
  159.3260  208.7410  155.8370 P   0  0  2  0  0  0  0  0  0  0  0  0
  162.3680  210.8330  154.1610 C   0  0  0  0  0  0  0  0  0  0  0  0
  161.8910  211.5050  155.1760 C   0  0  0  0  0  0  0  0  0  0  0  0
  162.9020  210.1440  153.1870 C   0  0  0  0  0  3  0  0  0  0  0  0
  163.3760  210.4510  156.8730 O   0  0  0  0  0  0  0  0  0  0  0  0
  162.6290  212.5940  157.1620 O   0  0  0  0  0  1  0  0  0  0  0  0
  162.6390  211.5520  156.4500 C   0  0  0  0  0  0  0  0  0  0  0  0
  160.5270  212.1050  155.0840 C   0  0  0  0  0  2  0  0  0  0  0  0
  159.9200  211.8490  153.7200 C   0  0  0  0  0  2  0  0  0  0  0  0
  158.6540  212.6670  153.5720 C   0  0  0  0  0  2  0  0  0  0  0  0
  157.5300  211.9990  154.3500 C   0  0  0  0  0  2  0  0  0  0  0  0
  155.7020  212.8850  155.8020 C   0  0  0  0  0  1  0  0  0  0  0  0
  157.7690  212.1500  156.7100 O   0  0  0  0  0  1  0  0  0  0  0  0
  157.2050  212.7890  155.6090 C   0  0  1  0  0  3  0  0  0  0  0  0
  161.5230  214.4470  146.4540 C   0  0  0  0  0  2  0  0  0  0  0  0
  160.7100  214.1540  145.2100 C   0  0  2  0  0  3  0  0  0  0  0  0
  159.6140  213.1550  145.5560 C   0  0  0  0  0  2  0  0  0  0  0  0
  160.4720  212.2340  143.6200 C   0  0  0  0  0  0  0  0  0  0  0  0
  159.4830  212.2340  144.4420 N   0  0  0  0  0  0  0  0  0  0  0  0
  160.4710  211.3850  142.4740 N   0  0  0  0  0  2  0  0  0  0  0  0
  161.7850  213.3900  143.9510 S   0  0  0  0  0  0  0  0  0  0  0  0
  161.5860  211.3260  141.6250 N   0  0  0  0  0  2  0  0  0  0  0  0
  160.2760  211.5920  139.6650 N   0  0  0  0  0  0  0  0  0  0  0  0
  162.4990  212.0650  138.1200 N   0  0  0  0  0  0  0  0  0  0  0  0
  160.1030  211.6610  138.2110 C   0  0  1  0  0  3  0  0  0  0  0  0
  162.6630  211.2840  139.3340 C   0  0  0  0  0  2  0  0  0  0  0  0
  161.4470  211.4130  140.2090 C   0  0  0  0  0  0  0  0  0  0  0  0
  161.3420  212.2460  137.5760 C   0  0  0  0  0  3  0  0  0  0  0  0
  159.8370  210.2650  137.6600 C   0  0  0  0  0  2  0  0  0  0  0  0
  156.4130  210.0620  138.8340 C   0  0  0  0  0  2  0  0  0  0  0  0
  157.8880  209.7540  138.8430 C   0  0  0  0  0  2  0  0  0  0  0  0
  157.6940  211.5880  137.0220 S   0  0  0  0  0  0  0  0  0  0  0  0
  158.4070  210.0460  137.5200 N   0  0  0  0  0  0  0  0  0  0  0  0
  156.2520  211.3870  138.1200 C   0  0  2  0  0  3  0  0  0  0  0  0
  156.1790  212.5400  139.1300 C   0  0  2  0  0  3  0  0  0  0  0  0
  154.7940  212.8560  139.4630 N   0  0  0  0  0  2  0  0  0  0  0  0
  153.9570  211.9220  138.7290 C   0  0  0  0  0  1  0  0  0  0  0  0
  156.8810  213.7400  138.6590 N   0  0  0  0  0  2  0  0  0  0  0  0
  157.9270  214.1290  139.6030 C   0  0  0  0  0  2  0  0  0  0  0  0
  157.7150  213.4290  140.9330 C   0  0  0  0  0  2  0  0  0  0  0  0
  158.0910  214.3470  142.0810 C   0  0  0  0  0  1  0  0  0  0  0  0
  1  9  1  0  0  0  0
  2  1  1  0  0  0  0
  3  5  2  0  0  0  0
  4 10  2  0  0  0  0
  4  7  1  0  0  0  0
  5  2  1  0  0  0  0
  5  8  1  0  0  0  0
  6  8  2  0  0  0  0
  8  4  1  0  0  0  0
  9  7  1  0  0  0  0
  9 11  1  1  0  0  0
 11 12  2  0  0  0  0
 12 15  1  0  0  0  0
 12 26  1  0  0  0  0
 14 11  1  0  0  0  0
 14 13  2  0  0  0  0
 15 13  1  6  0  0  0
 15 17  1  0  0  0  0
 16 20  1  0  0  0  0
 17 19  1  6  0  0  0
 17 16  1  0  0  0  0
 19 23  1  0  0  0  0
 20 22  1  0  0  0  0
 23 21  2  6  0  0  0
 23 22  1  0  0  0  0
 23 18  1  0  0  0  0
 24 25  2  0  0  0  0
 25 29  1  0  0  0  0
 26 24  2  0  0  0  0
 29 27  2  0  0  0  0
 29 28  1  0  0  0  0
 30 25  1  0  0  0  0
 31 30  1  0  0  0  0
 32 31  1  0  0  0  0
 32 33  1  0  0  0  0
 33 36  1  0  0  0  0
 36 34  1  1  0  0  0
 36 35  1  0  0  0  0
 37  6  1  0  0  0  0
 38 39  1  0  0  0  0
 38 37  1  1  0  0  0
 40 43  1  0  0  0  0
 40 41  2  0  0  0  0
 41 39  1  0  0  0  0
 42 40  1  0  0  0  0
 43 38  1  0  0  0  0
 44 42  1  0  0  0  0
 45 49  2  0  0  0  0
 46 48  1  0  0  0  0
 47 51  1  6  0  0  0
 47 45  1  0  0  0  0
 48 49  1  0  0  0  0
 49 44  1  0  0  0  0
 50 46  2  0  0  0  0
 50 47  1  0  0  0  0
 52 53  1  0  0  0  0
 54 55  1  0  0  0  0
 54 56  1  0  0  0  0
 55 51  1  0  0  0  0
 55 53  1  0  0  0  0
 56 52  1  0  0  0  0
 56 57  1  1  0  0  0
 57 60  1  6  0  0  0
 57 58  1  0  0  0  0
 59 58  1  0  0  0  0
 60 61  1  0  0  0  0
 61 62  1  0  0  0  0
 62 63  1  0  0  0  0
M  END
>  <MODEL>
1

>  <REMARK>
 VINA RESULT:      -1.0      0.000      0.000
  Name = 
  19 active torsions:
  status: ('A' for Active; 'I' for Inactive)
    1  A    between atoms: C_3  and  C_5
    2  A    between atoms: C_3  and  N_59
    3  A    between atoms: C_7  and  C_53
    4  A    between atoms: C_8  and  C_16
    5  A    between atoms: C_8  and  C_55
    6  A    between atoms: C_9  and  C_19
    7  A    between atoms: C_10  and  N_40
    8  A    between atoms: C_10  and  C_46
    9  A    between atoms: C_14  and  C_48
   10  A    between atoms: C_16  and  C_25
   11  A    between atoms: N_17  and  C_47
   12  A    between atoms: C_18  and  C_44
   13  A    between atoms: C_18  and  C_56
   14  A    between atoms: C_25  and  C_56
   15  A    between atoms: C_28  and  C_33
   16  A    between atoms: N_31  and  N_54
   17  A    between atoms: C_33  and  N_39
   18  A    between atoms: C_47  and  N_59
   19  A    between atoms: C_47  and  C_63
                            x       y       z     vdW  Elec       q    Type
                         _______ _______ _______ _____ _____    ______ ____

>  <TORSDO>
F 19

$$$$
=
 OpenBabel11042421473D

 63 68  0  0  1  0  0  0  0  0999 V2000
  162.1530  210.1670  149.0180 C   0  0  0  0  0  2  0  0  0  0  0  0
  163.0240  211.1620  148.4320 N   0  0  0  0  0  2  0  0  0  0  0  0
  163.5440  213.3440  147.9000 O   0  0  0  0  0  0  0  0  0  0  0  0
  160.4270  212.6030  149.6650 C   0  0  0  0  0  0  0  0  0  0  0  0
  162.6560  212.5310  148.2730 C   0  0  0  0  0  0  0  0  0  0  0  0
  160.7500  213.9240  147.7100 N   0  0  0  0  0  0  0  0  0  0  0  0
  160.6830  211.4490  150.4790 N   0  0  0  0  0  2  0  0  0  0  0  0
  161.2650  213.0260  148.5040 C   0  0  0  0  0  0  0  0  0  0  0  0
  161.8520  210.5900  150.4380 C   0  0  1  0  0  3  0  0  0  0  0  0
  159.4050  213.2890  149.9400 O   0  0  0  0  0  0  0  0  0  0  0  0
  161.6530  209.3910  151.3120 C   0  0  0  0  0  0  0  0  0  0  0  0
  162.0220  209.3160  152.5850 C   0  0  0  0  0  0  0  0  0  0  0  0
  161.4080  207.1010  151.9220 C   0  0  0  0  0  3  0  0  0  0  0  0
  161.1470  208.0920  150.7940 C   0  0  0  0  0  3  0  0  0  0  0  0
  161.8960  207.9250  153.1130 C   0  0  2  0  0  3  0  0  0  0  0  0
  160.2530  206.4050  154.3820 C   0  0  0  0  0  2  0  0  0  0  0  0
  160.9230  207.7960  154.2960 C   0  0  2  0  0  3  0  0  0  0  0  0
  159.6800  209.9560  156.8710 O   0  0  0  0  0  1  0  0  0  0  0  0
  159.9220  208.9480  154.3330 C   0  0  0  0  0  2  0  0  0  0  0  0
  159.1340  206.2790  155.4350 C   0  0  0  0  0  2  0  0  0  0  0  0
  157.4290  209.2720  155.7050 O   0  0  0  0  0  0  0  0  0  0  0  0
  159.2760  207.2580  156.5950 C   0  0  0  0  0  2  0  0  0  0  0  0
  159.0710  208.9380  155.9320 P   0  0  2  0  0  0  0  0  0  0  0  0
  161.9620  211.1690  154.1980 C   0  0  0  0  0  0  0  0  0  0  0  0
  161.3400  211.9320  155.0600 C   0  0  0  0  0  0  0  0  0  0  0  0
  162.6330  210.3940  153.3880 C   0  0  0  0  0  3  0  0  0  0  0  0
  161.3820  213.0980  157.2580 O   0  0  0  0  0  1  0  0  0  0  0  0
  162.7960  211.3470  156.8530 O   0  0  0  0  0  0  0  0  0  0  0  0
  161.8830  212.1040  156.4240 C   0  0  0  0  0  0  0  0  0  0  0  0
  160.0130  212.5140  154.7020 C   0  0  0  0  0  2  0  0  0  0  0  0
  159.6690  212.2160  153.2570 C   0  0  0  0  0  2  0  0  0  0  0  0
  158.1640  212.2020  153.0920 C   0  0  0  0  0  2  0  0  0  0  0  0
  157.7410  213.3760  152.2230 C   0  0  0  0  0  2  0  0  0  0  0  0
  155.3070  213.2480  152.7650 C   0  0  0  0  0  1  0  0  0  0  0  0
  156.8390  214.3840  154.1770 O   0  0  0  0  0  1  0  0  0  0  0  0
  156.5580  214.1050  152.8430 C   0  0  1  0  0  3  0  0  0  0  0  0
  161.3830  214.4310  146.4980 C   0  0  0  0  0  2  0  0  0  0  0  0
  160.5300  214.1070  145.2880 C   0  0  2  0  0  3  0  0  0  0  0  0
  159.5440  213.0060  145.6570 C   0  0  0  0  0  2  0  0  0  0  0  0
  160.3680  212.2230  143.6470 C   0  0  0  0  0  0  0  0  0  0  0  0
  159.4290  212.1120  144.5200 N   0  0  0  0  0  0  0  0  0  0  0  0
  160.3750  211.4110  142.4740 N   0  0  0  0  0  2  0  0  0  0  0  0
  161.5940  213.4770  143.9490 S   0  0  0  0  0  0  0  0  0  0  0  0
  161.4420  211.4750  141.5660 N   0  0  0  0  0  2  0  0  0  0  0  0
  160.0120  211.8100  139.7020 N   0  0  0  0  0  0  0  0  0  0  0  0
  162.1180  212.5140  138.0830 N   0  0  0  0  0  0  0  0  0  0  0  0
  159.7540  211.9730  138.2680 C   0  0  1  0  0  3  0  0  0  0  0  0
  162.3890  211.6580  139.2250 C   0  0  0  0  0  2  0  0  0  0  0  0
  161.2200  211.6570  140.1700 C   0  0  0  0  0  0  0  0  0  0  0  0
  160.9250  212.6700  137.6150 C   0  0  0  0  0  3  0  0  0  0  0  0
  159.5290  210.6090  137.6300 C   0  0  0  0  0  2  0  0  0  0  0  0
  156.5200  210.4960  139.6480 C   0  0  0  0  0  2  0  0  0  0  0  0
  157.9850  210.7210  139.3800 C   0  0  0  0  0  2  0  0  0  0  0  0
  157.0260  210.2900  137.0110 S   0  0  0  0  0  0  0  0  0  0  0  0
  158.3290  209.9940  138.1720 N   0  0  0  0  0  0  0  0  0  0  0  0
  155.8080  210.6460  138.3200 C   0  0  2  0  0  3  0  0  0  0  0  0
  155.2510  212.0670  138.1650 C   0  0  2  0  0  3  0  0  0  0  0  0
  155.6730  212.9190  139.2710 N   0  0  0  0  0  2  0  0  0  0  0  0
  154.5550  213.7930  139.5840 C   0  0  0  0  0  1  0  0  0  0  0  0
  153.7880  212.0830  138.0330 N   0  0  0  0  0  2  0  0  0  0  0  0
  153.2380  210.7450  138.2450 C   0  0  0  0  0  2  0  0  0  0  0  0
  153.3790  210.3490  139.7040 C   0  0  0  0  0  2  0  0  0  0  0  0
  152.2070  210.8780  140.5120 C   0  0  0  0  0  1  0  0  0  0  0  0
  1  9  1  0  0  0  0
  2  1  1  0  0  0  0
  3  5  2  0  0  0  0
  4 10  2  0  0  0  0
  4  7  1  0  0  0  0
  5  2  1  0  0  0  0
  5  8  1  0  0  0  0
  6  8  2  0  0  0  0
  8  4  1  0  0  0  0
  9  7  1  0  0  0  0
  9 11  1  1  0  0  0
 11 12  2  0  0  0  0
 12 15  1  0  0  0  0
 12 26  1  0  0  0  0
 14 11  1  0  0  0  0
 14 13  2  0  0  0  0
 15 13  1  6  0  0  0
 15 17  1  0  0  0  0
 16 20  1  0  0  0  0
 17 19  1  6  0  0  0
 17 16  1  0  0  0  0
 19 23  1  0  0  0  0
 20 22  1  0  0  0  0
 23 21  2  6  0  0  0
 23 22  1  0  0  0  0
 23 18  1  0  0  0  0
 24 25  2  0  0  0  0
 25 29  1  0  0  0  0
 26 24  2  0  0  0  0
 29 28  2  0  0  0  0
 29 27  1  0  0  0  0
 30 25  1  0  0  0  0
 31 30  1  0  0  0  0
 32 31  1  0  0  0  0
 33 36  1  0  0  0  0
 33 32  1  0  0  0  0
 36 34  1  1  0  0  0
 36 35  1  0  0  0  0
 37  6  1  0  0  0  0
 38 39  1  0  0  0  0
 38 37  1  1  0  0  0
 40 43  1  0  0  0  0
 40 41  2  0  0  0  0
 41 39  1  0  0  0  0
 42 40  1  0  0  0  0
 43 38  1  0  0  0  0
 44 42  1  0  0  0  0
 45 49  2  0  0  0  0
 46 48  1  0  0  0  0
 47 51  1  6  0  0  0
 47 45  1  0  0  0  0
 48 49  1  0  0  0  0
 49 44  1  0  0  0  0
 50 46  2  0  0  0  0
 50 47  1  0  0  0  0
 51 55  1  0  0  0  0
 53 52  1  0  0  0  0
 54 55  1  0  0  0  0
 54 56  1  0  0  0  0
 55 53  1  0  0  0  0
 56 57  1  6  0  0  0
 56 52  1  0  0  0  0
 57 60  1  1  0  0  0
 57 58  1  0  0  0  0
 58 59  1  0  0  0  0
 60 61  1  0  0  0  0
 61 62  1  0  0  0  0
 62 63  1  0  0  0  0
M  END
>  <MODEL>
2

>  <REMARK>
 VINA RESULT:       0.6      1.140      1.771
  Name = 
  19 active torsions:
  status: ('A' for Active; 'I' for Inactive)
    1  A    between atoms: C_3  and  C_5
    2  A    between atoms: C_3  and  N_59
    3  A    between atoms: C_7  and  C_53
    4  A    between atoms: C_8  and  C_16
    5  A    between atoms: C_8  and  C_55
    6  A    between atoms: C_9  and  C_19
    7  A    between atoms: C_10  and  N_40
    8  A    between atoms: C_10  and  C_46
    9  A    between atoms: C_14  and  C_48
   10  A    between atoms: C_16  and  C_25
   11  A    between atoms: N_17  and  C_47
   12  A    between atoms: C_18  and  C_44
   13  A    between atoms: C_18  and  C_56
   14  A    between atoms: C_25  and  C_56
   15  A    between atoms: C_28  and  C_33
   16  A    between atoms: N_31  and  N_54
   17  A    between atoms: C_33  and  N_39
   18  A    between atoms: C_47  and  N_59
   19  A    between atoms: C_47  and  C_63
                            x       y       z     vdW  Elec       q    Type
                         _______ _______ _______ _____ _____    ______ ____

>  <TORSDO>
F 19

$$$$
=
 OpenBabel11042421473D

 63 68  0  0  1  0  0  0  0  0999 V2000
  161.4830  208.7020  147.9880 C   0  0  0  0  0  2  0  0  0  0  0  0
  161.8870  210.0670  148.2480 N   0  0  0  0  0  2  0  0  0  0  0  0
  162.6580  211.7210  149.6560 O   0  0  0  0  0  0  0  0  0  0  0  0
  162.1520  208.3360  150.9460 C   0  0  0  0  0  0  0  0  0  0  0  0
  162.1610  210.5670  149.5550 C   0  0  0  0  0  0  0  0  0  0  0  0
  161.3810  210.4010  151.8480 N   0  0  0  0  0  0  0  0  0  0  0  0
  162.4110  207.4400  149.8550 N   0  0  0  0  0  2  0  0  0  0  0  0
  161.8600  209.7930  150.7980 C   0  0  0  0  0  0  0  0  0  0  0  0
  162.5930  207.7910  148.4580 C   0  0  1  0  0  3  0  0  0  0  0  0
  162.1460  207.8450  152.1070 O   0  0  0  0  0  0  0  0  0  0  0  0
  162.6550  206.5580  147.6120 C   0  0  0  0  0  0  0  0  0  0  0  0
  161.9310  205.4640  147.8190 C   0  0  0  0  0  0  0  0  0  0  0  0
  163.5660  204.8960  146.1680 C   0  0  0  0  0  3  0  0  0  0  0  0
  163.6550  206.3740  146.5260 C   0  0  0  0  0  3  0  0  0  0  0  0
  162.3820  204.3340  146.9530 C   0  0  2  0  0  3  0  0  0  0  0  0
  160.3280  204.9210  145.5180 C   0  0  0  0  0  2  0  0  0  0  0  0
  161.2950  203.8140  145.9960 C   0  0  2  0  0  3  0  0  0  0  0  0
  160.3270  200.6310  144.6670 O   0  0  0  0  0  0  0  0  0  0  0  0
  160.5780  202.5940  146.5650 C   0  0  0  0  0  2  0  0  0  0  0  0
  159.1130  204.4260  144.7070 C   0  0  0  0  0  2  0  0  0  0  0  0
  158.1010  201.3340  145.8700 O   0  0  0  0  0  1  0  0  0  0  0  0
  159.3600  203.1050  143.9880 C   0  0  0  0  0  2  0  0  0  0  0  0
  159.5990  201.8210  145.2520 P   0  0  2  0  0  0  0  0  0  0  0  0
  161.1390  204.7270  150.0260 C   0  0  0  0  0  0  0  0  0  0  0  0
  161.3400  204.2350  151.2210 C   0  0  0  0  0  0  0  0  0  0  0  0
  160.9040  205.2740  148.8620 C   0  0  0  0  0  3  0  0  0  0  0  0
  160.4250  206.2800  152.3060 O   0  0  0  0  0  0  0  0  0  0  0  0
  160.7910  204.3850  153.5340 O   0  0  0  0  0  1  0  0  0  0  0  0
  160.8470  204.9580  152.4120 C   0  0  0  0  0  0  0  0  0  0  0  0
  162.1850  203.0150  151.3810 C   0  0  0  0  0  2  0  0  0  0  0  0
  161.3900  201.7660  151.0600 C   0  0  0  0  0  2  0  0  0  0  0  0
  161.6950  201.3260  149.6440 C   0  0  0  0  0  2  0  0  0  0  0  0
  160.4100  200.8670  148.9720 C   0  0  0  0  0  2  0  0  0  0  0  0
  157.9270  201.1260  148.9550 C   0  0  0  0  0  1  0  0  0  0  0  0
  159.1100  200.5850  150.9410 O   0  0  0  0  0  1  0  0  0  0  0  0
  159.1960  201.3250  149.7650 C   0  0  1  0  0  3  0  0  0  0  0  0
  160.9840  211.8040  151.8940 C   0  0  0  0  0  2  0  0  0  0  0  0
  159.8430  212.0560  150.9290 C   0  0  2  0  0  3  0  0  0  0  0  0
  160.0790  213.3800  150.2160 C   0  0  0  0  0  2  0  0  0  0  0  0
  157.8650  213.5880  150.8360 C   0  0  0  0  0  0  0  0  0  0  0  0
  158.7980  214.0470  150.0780 N   0  0  0  0  0  0  0  0  0  0  0  0
  156.5520  214.1440  150.7970 N   0  0  0  0  0  2  0  0  0  0  0  0
  158.2830  212.1950  151.8620 S   0  0  0  0  0  0  0  0  0  0  0  0
  155.5590  213.6980  151.6810 N   0  0  0  0  0  2  0  0  0  0  0  0
  156.8280  214.2600  153.6050 N   0  0  0  0  0  0  0  0  0  0  0  0
  154.6570  213.9390  155.2580 N   0  0  0  0  0  0  0  0  0  0  0  0
  157.0520  214.3060  155.0530 C   0  0  1  0  0  3  0  0  0  0  0  0
  154.6760  213.2080  154.0040 C   0  0  0  0  0  2  0  0  0  0  0  0
  155.7410  213.7530  153.0940 C   0  0  0  0  0  0  0  0  0  0  0  0
  155.7300  214.4440  155.7700 C   0  0  0  0  0  3  0  0  0  0  0  0
  157.7660  213.0370  155.5020 C   0  0  0  0  0  2  0  0  0  0  0  0
  160.9360  213.1010  157.2590 C   0  0  0  0  0  2  0  0  0  0  0  0
  159.4720  213.3930  157.0580 C   0  0  0  0  0  2  0  0  0  0  0  0
  160.0270  211.8350  155.0620 S   0  0  0  0  0  0  0  0  0  0  0  0
  159.1910  213.2860  155.6380 N   0  0  0  0  0  0  0  0  0  0  0  0
  161.2580  211.8920  156.4070 C   0  0  2  0  0  3  0  0  0  0  0  0
  161.1980  210.6090  157.2460 C   0  0  2  0  0  3  0  0  0  0  0  0
  162.4910  209.9330  157.2610 N   0  0  0  0  0  2  0  0  0  0  0  0
  163.4040  210.7480  156.4780 C   0  0  0  0  0  1  0  0  0  0  0  0
  160.1440  209.6930  156.7920 N   0  0  0  0  0  2  0  0  0  0  0  0
  160.5040  208.3070  157.0850 C   0  0  0  0  0  2  0  0  0  0  0  0
  160.3870  207.4610  155.8290 C   0  0  0  0  0  2  0  0  0  0  0  0
  159.1790  206.5470  155.9180 C   0  0  0  0  0  1  0  0  0  0  0  0
  1  2  1  0  0  0  0
  1  9  1  0  0  0  0
  2  5  1  0  0  0  0
  4 10  2  0  0  0  0
  5  3  2  0  0  0  0
  5  8  1  0  0  0  0
  6 37  1  0  0  0  0
  7  4  1  0  0  0  0
  8  4  1  0  0  0  0
  8  6  2  0  0  0  0
  9 11  1  6  0  0  0
  9  7  1  0  0  0  0
 11 12  2  0  0  0  0
 12 26  1  0  0  0  0
 13 14  2  0  0  0  0
 14 11  1  0  0  0  0
 15 13  1  6  0  0  0
 15 12  1  0  0  0  0
 17 16  1  1  0  0  0
 17 19  1  0  0  0  0
 17 15  1  0  0  0  0
 20 16  1  0  0  0  0
 22 20  1  0  0  0  0
 22 23  1  0  0  0  0
 23 18  2  6  0  0  0
 23 21  1  0  0  0  0
 23 19  1  0  0  0  0
 24 25  2  0  0  0  0
 25 30  1  0  0  0  0
 25 29  1  0  0  0  0
 26 24  2  0  0  0  0
 27 29  2  0  0  0  0
 29 28  1  0  0  0  0
 31 30  1  0  0  0  0
 32 31  1  0  0  0  0
 33 32  1  0  0  0  0
 33 36  1  0  0  0  0
 36 34  1  6  0  0  0
 36 35  1  0  0  0  0
 38 43  1  0  0  0  0
 38 37  1  1  0  0  0
 39 38  1  0  0  0  0
 40 43  1  0  0  0  0
 41 39  1  0  0  0  0
 41 40  2  0  0  0  0
 42 40  1  0  0  0  0
 42 44  1  0  0  0  0
 44 49  1  0  0  0  0
 45 47  1  0  0  0  0
 46 50  2  0  0  0  0
 47 51  1  1  0  0  0
 47 50  1  0  0  0  0
 48 46  1  0  0  0  0
 49 45  2  0  0  0  0
 49 48  1  0  0  0  0
 51 55  1  0  0  0  0
 53 52  1  0  0  0  0
 54 55  1  0  0  0  0
 54 56  1  0  0  0  0
 55 53  1  0  0  0  0
 56 57  1  1  0  0  0
 56 52  1  0  0  0  0
 57 60  1  6  0  0  0
 57 58  1  0  0  0  0
 59 58  1  0  0  0  0
 60 61  1  0  0  0  0
 62 63  1  0  0  0  0
 62 61  1  0  0  0  0
M  END
>  <MODEL>
3

>  <REMARK>
 VINA RESULT:       1.8      6.561     12.286
  Name = 
  19 active torsions:
  status: ('A' for Active; 'I' for Inactive)
    1  A    between atoms: C_3  and  C_5
    2  A    between atoms: C_3  and  N_59
    3  A    between atoms: C_7  and  C_53
    4  A    between atoms: C_8  and  C_16
    5  A    between atoms: C_8  and  C_55
    6  A    between atoms: C_9  and  C_19
    7  A    between atoms: C_10  and  N_40
    8  A    between atoms: C_10  and  C_46
    9  A    between atoms: C_14  and  C_48
   10  A    between atoms: C_16  and  C_25
   11  A    between atoms: N_17  and  C_47
   12  A    between atoms: C_18  and  C_44
   13  A    between atoms: C_18  and  C_56
   14  A    between atoms: C_25  and  C_56
   15  A    between atoms: C_28  and  C_33
   16  A    between atoms: N_31  and  N_54
   17  A    between atoms: C_33  and  N_39
   18  A    between atoms: C_47  and  N_59
   19  A    between atoms: C_47  and  C_63
                            x       y       z     vdW  Elec       q    Type
                         _______ _______ _______ _____ _____    ______ ____

>  <TORSDO>
F 19

$$$$
=
 OpenBabel11042421473D

 63 68  0  0  1  0  0  0  0  0999 V2000
  162.4090  210.4830  150.9130 C   0  0  0  0  0  2  0  0  0  0  0  0
  162.5180  210.6720  149.4830 N   0  0  0  0  0  2  0  0  0  0  0  0
  162.0800  210.0310  147.3120 O   0  0  0  0  0  0  0  0  0  0  0  0
  160.8060  208.0160  150.0870 C   0  0  0  0  0  0  0  0  0  0  0  0
  162.0890  209.7030  148.5290 C   0  0  0  0  0  0  0  0  0  0  0  0
  162.0230  207.3030  148.1680 N   0  0  0  0  0  0  0  0  0  0  0  0
  160.5520  208.9250  151.1680 N   0  0  0  0  0  2  0  0  0  0  0  0
  161.6780  208.3170  148.9120 C   0  0  0  0  0  0  0  0  0  0  0  0
  160.9450  210.3210  151.2510 C   0  0  1  0  0  3  0  0  0  0  0  0
  160.2750  206.8760  150.1540 O   0  0  0  0  0  0  0  0  0  0  0  0
  160.6560  210.8660  152.6140 C   0  0  0  0  0  0  0  0  0  0  0  0
  159.8780  211.9130  152.8600 C   0  0  0  0  0  0  0  0  0  0  0  0
  160.9940  211.3990  154.9120 C   0  0  0  0  0  3  0  0  0  0  0  0
  161.3400  210.3730  153.8400 C   0  0  0  0  0  3  0  0  0  0  0  0
  159.9720  212.3470  154.2850 C   0  0  2  0  0  3  0  0  0  0  0  0
  158.7920  211.8170  156.5090 C   0  0  0  0  0  2  0  0  0  0  0  0
  158.6360  212.2810  155.0430 C   0  0  2  0  0  3  0  0  0  0  0  0
  155.1820  212.8060  154.2470 O   0  0  0  0  0  0  0  0  0  0  0  0
  157.5860  211.4880  154.2700 C   0  0  0  0  0  2  0  0  0  0  0  0
  157.4710  211.5560  157.2600 C   0  0  0  0  0  2  0  0  0  0  0  0
  155.1000  210.3150  155.0750 O   0  0  0  0  0  1  0  0  0  0  0  0
  156.2930  212.3530  156.7130 C   0  0  0  0  0  2  0  0  0  0  0  0
  155.9630  211.7690  155.0240 P   0  0  2  0  0  0  0  0  0  0  0  0
  159.5770  213.0260  150.6890 C   0  0  0  0  0  0  0  0  0  0  0  0
  159.9790  213.3370  149.4840 C   0  0  0  0  0  0  0  0  0  0  0  0
  159.1140  212.6920  151.8650 C   0  0  0  0  0  3  0  0  0  0  0  0
  157.8500  213.6540  148.2330 O   0  0  0  0  0  1  0  0  0  0  0  0
  159.4990  212.3110  147.3870 O   0  0  0  0  0  0  0  0  0  0  0  0
  159.1080  213.0660  148.3200 C   0  0  0  0  0  0  0  0  0  0  0  0
  161.3710  213.8360  149.2790 C   0  0  0  0  0  2  0  0  0  0  0  0
  161.5220  214.4530  147.9030 C   0  0  0  0  0  2  0  0  0  0  0  0
  162.6960  213.8120  147.1930 C   0  0  0  0  0  2  0  0  0  0  0  0
  162.1830  212.9420  146.0560 C   0  0  0  0  0  2  0  0  0  0  0  0
  163.7370  213.9060  144.3560 C   0  0  0  0  0  1  0  0  0  0  0  0
  161.6680  212.9230  143.7350 O   0  0  0  0  0  1  0  0  0  0  0  0
  162.2830  213.6800  144.7290 C   0  0  1  0  0  3  0  0  0  0  0  0
  162.9070  207.3780  147.0100 C   0  0  0  0  0  2  0  0  0  0  0  0
  162.2650  206.6970  145.8180 C   0  0  2  0  0  3  0  0  0  0  0  0
  160.7840  207.0490  145.7830 C   0  0  0  0  0  2  0  0  0  0  0  0
  160.7150  204.7630  145.4640 C   0  0  0  0  0  0  0  0  0  0  0  0
  160.0540  205.8640  145.3750 N   0  0  0  0  0  0  0  0  0  0  0  0
  160.1230  203.5220  145.0860 N   0  0  0  0  0  2  0  0  0  0  0  0
  162.4050  204.8890  146.0070 S   0  0  0  0  0  0  0  0  0  0  0  0
  160.8150  202.3150  145.2610 N   0  0  0  0  0  2  0  0  0  0  0  0
  160.2180  202.1490  147.5520 N   0  0  0  0  0  0  0  0  0  0  0  0
  161.0650  199.5390  147.6890 N   0  0  0  0  0  0  0  0  0  0  0  0
  160.2670  201.5090  148.8700 C   0  0  1  0  0  3  0  0  0  0  0  0
  161.6630  200.4000  146.6840 C   0  0  0  0  0  2  0  0  0  0  0  0
  160.8590  201.6600  146.5270 C   0  0  0  0  0  0  0  0  0  0  0  0
  160.4300  200.0160  148.7070 C   0  0  0  0  0  3  0  0  0  0  0  0
  161.4280  202.0820  149.6740 C   0  0  0  0  0  2  0  0  0  0  0  0
  161.8270  203.2140  153.0950 C   0  0  0  0  0  2  0  0  0  0  0  0
  162.2560  202.5650  151.8050 C   0  0  0  0  0  2  0  0  0  0  0  0
  159.9460  203.5720  151.2010 S   0  0  0  0  0  0  0  0  0  0  0  0
  161.0570  202.2000  151.0740 N   0  0  0  0  0  0  0  0  0  0  0  0
  160.7070  204.1710  152.7470 C   0  0  2  0  0  3  0  0  0  0  0  0
  161.2490  205.5940  152.5640 C   0  0  2  0  0  3  0  0  0  0  0  0
  162.7030  205.6190  152.6840 N   0  0  0  0  0  2  0  0  0  0  0  0
  163.2190  206.2220  151.4670 C   0  0  0  0  0  1  0  0  0  0  0  0
  160.6390  206.5490  153.4970 N   0  0  0  0  0  2  0  0  0  0  0  0
  161.6560  207.1450  154.3620 C   0  0  0  0  0  2  0  0  0  0  0  0
  161.0560  207.4810  155.7160 C   0  0  0  0  0  2  0  0  0  0  0  0
  159.5780  207.1400  155.7400 C   0  0  0  0  0  1  0  0  0  0  0  0
  1  9  1  0  0  0  0
  2  1  1  0  0  0  0
  3  5  2  0  0  0  0
  4 10  2  0  0  0  0
  4  7  1  0  0  0  0
  5  8  1  0  0  0  0
  5  2  1  0  0  0  0
  6  8  2  0  0  0  0
  7  9  1  0  0  0  0
  8  4  1  0  0  0  0
  9 11  1  1  0  0  0
 11 12  2  0  0  0  0
 11 14  1  0  0  0  0
 12 15  1  0  0  0  0
 14 13  2  0  0  0  0
 15 13  1  1  0  0  0
 15 17  1  0  0  0  0
 16 20  1  0  0  0  0
 17 19  1  6  0  0  0
 17 16  1  0  0  0  0
 19 23  1  0  0  0  0
 22 20  1  0  0  0  0
 23 18  2  6  0  0  0
 23 21  1  0  0  0  0
 23 22  1  0  0  0  0
 24 26  2  0  0  0  0
 25 24  2  0  0  0  0
 26 12  1  0  0  0  0
 27 29  1  0  0  0  0
 28 29  2  0  0  0  0
 29 25  1  0  0  0  0
 30 25  1  0  0  0  0
 31 30  1  0  0  0  0
 32 31  1  0  0  0  0
 33 32  1  0  0  0  0
 35 36  1  0  0  0  0
 36 34  1  6  0  0  0
 36 33  1  0  0  0  0
 37  6  1  0  0  0  0
 38 43  1  0  0  0  0
 38 37  1  1  0  0  0
 39 38  1  0  0  0  0
 40 43  1  0  0  0  0
 41 40  2  0  0  0  0
 41 39  1  0  0  0  0
 42 44  1  0  0  0  0
 42 40  1  0  0  0  0
 44 49  1  0  0  0  0
 45 47  1  0  0  0  0
 46 50  2  0  0  0  0
 47 51  1  1  0  0  0
 48 46  1  0  0  0  0
 49 48  1  0  0  0  0
 49 45  2  0  0  0  0
 50 47  1  0  0  0  0
 51 55  1  0  0  0  0
 53 52  1  0  0  0  0
 54 56  1  0  0  0  0
 55 54  1  0  0  0  0
 55 53  1  0  0  0  0
 56 57  1  6  0  0  0
 56 52  1  0  0  0  0
 57 58  1  1  0  0  0
 57 60  1  0  0  0  0
 59 58  1  0  0  0  0
 60 61  1  0  0  0  0
 61 62  1  0  0  0  0
 62 63  1  0  0  0  0
M  END
>  <MODEL>
4

>  <REMARK>
 VINA RESULT:       1.9      5.446     10.357
  Name = 
  19 active torsions:
  status: ('A' for Active; 'I' for Inactive)
    1  A    between atoms: C_3  and  C_5
    2  A    between atoms: C_3  and  N_59
    3  A    between atoms: C_7  and  C_53
    4  A    between atoms: C_8  and  C_16
    5  A    between atoms: C_8  and  C_55
    6  A    between atoms: C_9  and  C_19
    7  A    between atoms: C_10  and  N_40
    8  A    between atoms: C_10  and  C_46
    9  A    between atoms: C_14  and  C_48
   10  A    between atoms: C_16  and  C_25
   11  A    between atoms: N_17  and  C_47
   12  A    between atoms: C_18  and  C_44
   13  A    between atoms: C_18  and  C_56
   14  A    between atoms: C_25  and  C_56
   15  A    between atoms: C_28  and  C_33
   16  A    between atoms: N_31  and  N_54
   17  A    between atoms: C_33  and  N_39
   18  A    between atoms: C_47  and  N_59
   19  A    between atoms: C_47  and  C_63
                            x       y       z     vdW  Elec       q    Type
                         _______ _______ _______ _____ _____    ______ ____

>  <TORSDO>
F 19

$$$$
