=
 OpenBabel11052411033D

 67 75  0  0  1  0  0  0  0  0999 V2000
  161.1490  207.6170  148.0630 C   0  0  1  0  0  3  0  0  0  0  0  0
  160.7250  208.6420  155.0240 N   0  0  0  0  0  0  0  0  0  0  0  0
  160.0960  210.4400  153.5820 C   0  0  0  0  0  3  0  0  0  0  0  0
  160.6030  206.4980  151.6020 C   0  0  1  0  0  3  0  0  0  0  0  0
  160.5680  207.8120  151.6380 C   0  0  1  0  0  3  0  0  0  0  0  0
  159.6510  211.1420  154.7140 C   0  0  0  0  0  3  0  0  0  0  0  0
  160.8180  206.0600  150.1910 C   0  0  1  0  0  3  0  0  0  0  0  0
  161.1210  208.2610  152.8930 C   0  0  1  0  0  3  0  0  0  0  0  0
  161.1320  205.8950  152.8820 C   0  0  0  0  0  2  0  0  0  0  0  0
  160.8490  207.4150  149.5230 C   0  0  0  0  0  0  0  0  0  0  0  0
  161.1120  207.3760  154.9540 N   0  0  0  0  0  2  0  0  0  0  0  0
  159.7530  210.5740  155.9980 C   0  0  0  0  0  0  0  0  0  0  0  0
  160.7640  208.3990  150.3660 N   0  0  0  0  0  0  0  0  0  0  0  0
  160.6630  209.1880  153.7960 C   0  0  2  0  0  3  0  0  0  0  0  0
  160.2860  209.2790  156.1370 C   0  0  0  0  0  3  0  0  0  0  0  0
  161.3880  207.1530  153.6490 C   0  0  2  0  0  3  0  0  0  0  0  0
  162.0660  205.4460  150.0650 O   0  0  0  0  0  0  0  0  0  0  0  0
  162.3710  204.9860  151.3480 C   0  0  0  0  0  1  0  0  0  0  0  0
  159.3040  211.3180  157.1350 N   0  0  0  0  0  2  0  0  0  0  0  0
  157.0820  211.0880  156.4840 O   0  0  0  0  0  1  0  0  0  0  0  0
  157.9590  211.8700  157.2370 C   0  0  2  0  0  3  0  0  0  0  0  0
  159.0100  214.0130  154.8210 C   0  0  0  0  0  2  0  0  0  0  0  0
  159.2030  213.6390  156.1780 O   0  0  0  0  0  0  0  0  0  0  0  0
  157.6150  213.8430  154.4810 N   0  0  0  0  0  0  0  0  0  0  0  0
  157.9400  213.3120  156.7360 C   0  0  1  0  0  3  0  0  0  0  0  0
  156.9510  213.4660  155.6540 C   0  0  0  0  0  0  0  0  0  0  0  0
  155.3610  213.7570  155.9200 S   0  0  0  0  0  0  0  0  0  0  0  0
  157.0540  213.4520  152.1390 C   0  0  0  0  0  1  0  0  0  0  0  0
  156.9870  214.4240  153.3020 C   0  0  0  0  0  2  0  0  0  0  0  0
  161.9800  209.9700  148.4250 N   0  0  0  0  0  2  0  0  0  0  0  0
  162.1920  208.6750  147.8680 C   0  0  0  0  0  0  0  0  0  0  0  0
  163.2520  208.4170  147.2350 O   0  0  0  0  0  0  0  0  0  0  0  0
  162.7010  213.5330  148.1270 C   0  0  0  0  0  2  0  0  0  0  0  0
  162.3560  212.2230  147.4510 C   0  0  2  0  0  0  0  0  0  0  0  0
  162.4370  212.3000  148.9650 C   0  0  1  0  0  3  0  0  0  0  0  0
  162.9360  211.0580  148.2530 C   0  0  1  0  0  3  0  0  0  0  0  0
  160.8740  212.1270  147.0950 C   0  0  0  0  0  2  0  0  0  0  0  0
  160.2630  213.3740  147.2360 O   0  0  0  0  0  0  0  0  0  0  0  0
  160.6900  214.1100  146.1290 C   0  0  0  0  0  2  0  0  0  0  0  0
  160.6710  213.2410  144.8710 C   0  0  1  0  0  3  0  0  0  0  0  0
  159.2530  213.0860  144.2540 C   0  0  0  0  0  0  0  0  0  0  0  0
  158.6600  214.4520  143.9460 C   0  0  0  0  0  1  0  0  0  0  0  0
  158.2890  212.3790  145.2120 C   0  0  0  0  0  2  0  0  0  0  0  0
  157.2580  213.2290  145.6240 O   0  0  0  0  0  1  0  0  0  0  0  0
  158.6440  212.9920  141.9080 O   0  0  0  0  0  1  0  0  0  0  0  0
  159.3060  212.3090  142.9330 C   0  0  0  0  0  2  0  0  0  0  0  0
  161.6790  213.7950  143.8620 C   0  0  0  0  0  2  0  0  0  0  0  0
  162.7780  213.0950  141.8550 O   0  0  0  0  0  1  0  0  0  0  0  0
  162.3970  212.6730  143.1300 C   0  0  0  0  0  2  0  0  0  0  0  0
  161.5640  206.3180  147.3750 C   0  0  0  0  0  2  0  0  0  0  0  0
  160.6500  205.9950  146.2010 C   0  0  1  0  0  3  0  0  0  0  0  0
  160.5080  207.1030  145.3610 O   0  0  0  0  0  1  0  0  0  0  0  0
  161.1820  204.7990  145.4190 C   0  0  0  0  0  2  0  0  0  0  0  0
  162.9950  204.6410  145.5510 S   0  0  0  0  0  0  0  0  0  0  0  0
  162.8620  203.2940  146.7550 C   0  0  0  0  0  2  0  0  0  0  0  0
  161.4870  203.3260  147.4030 C   0  0  0  0  0  2  0  0  0  0  0  0
  161.2600  198.8620  145.5740 C   0  0  2  0  0  3  0  0  0  0  0  0
  160.4770  197.8870  146.2040 O   0  0  0  0  0  1  0  0  0  0  0  0
  161.4840  201.0540  148.9940 S   0  0  0  0  0  0  0  0  0  0  0  0
  160.8730  201.9310  147.5170 C   0  0  2  0  0  3  0  0  0  0  0  0
  161.6540  199.5020  148.0510 C   0  0  0  0  0  2  0  0  0  0  0  0
  159.1370  199.1800  144.4170 O   0  0  0  0  0  1  0  0  0  0  0  0
  161.8600  199.8640  146.5890 C   0  0  2  0  0  3  0  0  0  0  0  0
  159.6500  201.9740  144.8070 O   0  0  0  0  0  0  0  0  0  0  0  0
  161.1970  201.1230  146.3570 N   0  0  0  0  0  0  0  0  0  0  0  0
  160.3690  201.0230  145.2170 C   0  0  0  0  0  0  0  0  0  0  0  0
  160.4270  199.6950  144.5750 C   0  0  1  0  0  3  0  0  0  0  0  0
  1 50  1  1  0  0  0
  1 10  1  0  0  0  0
  2 15  1  0  0  0  0
  3 14  1  0  0  0  0
  3  6  2  0  0  0  0
  4  5  1  0  0  0  0
  4  9  1  1  0  0  0
  5 13  1  6  0  0  0
  5  8  1  0  0  0  0
  6 12  1  0  0  0  0
  7 17  1  1  0  0  0
  7  4  1  0  0  0  0
  8 16  1  0  0  0  0
  8 14  1  0  0  0  0
  9 16  1  0  0  0  0
 10  7  1  0  0  0  0
 10 13  2  0  0  0  0
 11  2  1  0  0  0  0
 12 15  2  0  0  0  0
 12 19  1  0  0  0  0
 14  2  1  0  0  0  0
 16 11  1  0  0  0  0
 17 18  1  0  0  0  0
 19 21  1  0  0  0  0
 20 21  1  0  0  0  0
 22 23  1  0  0  0  0
 23 25  1  0  0  0  0
 24 22  1  0  0  0  0
 24 26  1  0  0  0  0
 25 21  1  0  0  0  0
 26 27  2  0  0  0  0
 26 25  1  0  0  0  0
 28 29  1  0  0  0  0
 29 24  1  0  0  0  0
 31  1  1  0  0  0  0
 31 30  1  0  0  0  0
 32 31  2  0  0  0  0
 33 35  1  0  0  0  0
 34 33  1  0  0  0  0
 34 36  1  0  0  0  0
 34 35  1  0  0  0  0
 36 30  1  0  0  0  0
 36 35  1  0  0  0  0
 37 38  1  0  0  0  0
 37 34  1  0  0  0  0
 39 38  1  0  0  0  0
 40 39  1  0  0  0  0
 41 40  1  0  0  0  0
 41 43  1  0  0  0  0
 42 41  1  0  0  0  0
 43 44  1  0  0  0  0
 45 46  1  0  0  0  0
 46 41  1  0  0  0  0
 47 40  1  0  0  0  0
 48 49  1  0  0  0  0
 49 47  1  0  0  0  0
 51 50  1  0  0  0  0
 52 51  1  0  0  0  0
 53 54  1  0  0  0  0
 53 51  1  0  0  0  0
 54 55  1  0  0  0  0
 55 56  1  0  0  0  0
 56 60  1  0  0  0  0
 57 58  1  0  0  0  0
 57 63  1  0  0  0  0
 60 59  1  0  0  0  0
 61 59  1  0  0  0  0
 62 67  1  0  0  0  0
 63 61  1  0  0  0  0
 64 66  2  0  0  0  0
 65 63  1  0  0  0  0
 65 60  1  0  0  0  0
 66 65  1  0  0  0  0
 67 66  1  0  0  0  0
 67 57  1  0  0  0  0
M  END
>  <MODEL>
1

>  <REMARK>
 VINA RESULT:      -0.4      0.000      0.000
  Name = 
  24 active torsions:
  status: ('A' for Active; 'I' for Inactive)
    1  A    between atoms: C_3  and  C_15
    2  A    between atoms: C_3  and  C_17
    3  A    between atoms: C_3  and  C_27
    4  A    between atoms: O_7  and  C_20
    5  A    between atoms: O_7  and  C_45
    6  A    between atoms: C_8  and  C_31
    7  A    between atoms: N_11  and  C_61
    8  A    between atoms: C_12  and  C_37
    9  A    between atoms: C_12  and  C_49
   10  A    between atoms: O_18  and  C_29
   11  A    between atoms: C_19  and  C_60
   12  A    between atoms: C_20  and  C_27
   13  A    between atoms: C_23  and  C_45
   14  A    between atoms: C_25  and  C_59
   15  A    between atoms: C_27  and  C_59
   16  A    between atoms: C_30  and  C_31
   17  A    between atoms: C_30  and  S_51
   18  A    between atoms: N_34  and  C_42
   19  A    between atoms: N_34  and  C_54
   20  A    between atoms: C_36  and  C_60
   21  A    between atoms: C_37  and  S_51
   22  A    between atoms: N_43  and  C_55
   23  A    between atoms: C_47  and  C_54
   24  A    between atoms: C_49  and  C_60
                            x       y       z     vdW  Elec       q    Type
                         _______ _______ _______ _____ _____    ______ ____

>  <TORSDO>
F 24

$$$$
=
 OpenBabel11052411033D

 67 75  0  0  1  0  0  0  0  0999 V2000
  161.2560  208.4360  148.9270 C   0  0  1  0  0  3  0  0  0  0  0  0
  161.0430  213.8050  144.3640 N   0  0  0  0  0  0  0  0  0  0  0  0
  160.1290  211.7070  143.6760 C   0  0  0  0  0  3  0  0  0  0  0  0
  161.0220  212.0670  148.0110 C   0  0  1  0  0  3  0  0  0  0  0  0
  160.8280  211.4070  146.8910 C   0  0  1  0  0  3  0  0  0  0  0  0
  159.6570  212.3370  142.5140 C   0  0  0  0  0  3  0  0  0  0  0  0
  161.2210  211.0870  149.1190 C   0  0  1  0  0  3  0  0  0  0  0  0
  161.3800  212.1680  145.7970 C   0  0  1  0  0  3  0  0  0  0  0  0
  161.6810  213.4080  147.7900 C   0  0  0  0  0  2  0  0  0  0  0  0
  161.0530  209.8060  148.3370 C   0  0  0  0  0  0  0  0  0  0  0  0
  161.5790  214.3730  145.4350 N   0  0  0  0  0  2  0  0  0  0  0  0
  159.8890  213.7080  142.2940 C   0  0  0  0  0  0  0  0  0  0  0  0
  160.8890  210.0040  147.0650 N   0  0  0  0  0  0  0  0  0  0  0  0
  160.8560  212.4880  144.5690 C   0  0  2  0  0  3  0  0  0  0  0  0
  160.5830  214.4530  143.2660 C   0  0  0  0  0  3  0  0  0  0  0  0
  161.8180  213.3630  146.3010 C   0  0  2  0  0  3  0  0  0  0  0  0
  162.5280  211.1720  149.6060 O   0  0  0  0  0  0  0  0  0  0  0  0
  163.3080  211.4650  148.4850 C   0  0  0  0  0  1  0  0  0  0  0  0
  159.4060  214.3210  141.0950 N   0  0  0  0  0  2  0  0  0  0  0  0
  157.6030  213.4480  139.9120 O   0  0  0  0  0  1  0  0  0  0  0  0
  158.9950  213.5550  139.9250 C   0  0  2  0  0  3  0  0  0  0  0  0
  159.4940  210.6670  138.2080 C   0  0  0  0  0  2  0  0  0  0  0  0
  158.7770  211.2430  139.2920 O   0  0  0  0  0  0  0  0  0  0  0  0
  160.7950  211.2930  138.1220 N   0  0  0  0  0  0  0  0  0  0  0  0
  159.6280  212.1670  139.9520 C   0  0  1  0  0  3  0  0  0  0  0  0
  160.9010  212.1680  139.2090 C   0  0  0  0  0  0  0  0  0  0  0  0
  162.3330  212.6050  139.8740 S   0  0  0  0  0  0  0  0  0  0  0  0
  161.6510  209.2960  137.0120 C   0  0  0  0  0  1  0  0  0  0  0  0
  161.9110  210.7490  137.3600 C   0  0  0  0  0  2  0  0  0  0  0  0
  162.1030  207.0910  146.9700 N   0  0  0  0  0  2  0  0  0  0  0  0
  161.0540  207.3690  147.8950 C   0  0  0  0  0  0  0  0  0  0  0  0
  159.9770  206.7130  147.8570 O   0  0  0  0  0  0  0  0  0  0  0  0
  161.6140  203.6240  145.9470 C   0  0  0  0  0  2  0  0  0  0  0  0
  162.5670  204.7400  146.3200 C   0  0  2  0  0  0  0  0  0  0  0  0
  161.0680  204.9650  146.3920 C   0  0  1  0  0  3  0  0  0  0  0  0
  161.9690  206.0880  145.9190 C   0  0  1  0  0  3  0  0  0  0  0  0
  163.0640  204.6220  147.7590 C   0  0  0  0  0  2  0  0  0  0  0  0
  161.9910  204.6980  148.6480 O   0  0  0  0  0  0  0  0  0  0  0  0
  161.2210  203.5660  148.3770 C   0  0  0  0  0  2  0  0  0  0  0  0
  160.6490  202.9870  149.6720 C   0  0  1  0  0  3  0  0  0  0  0  0
  160.1670  201.5160  149.5260 C   0  0  0  0  0  0  0  0  0  0  0  0
  160.9230  200.6160  150.4920 C   0  0  0  0  0  1  0  0  0  0  0  0
  160.4140  200.9720  148.1150 C   0  0  0  0  0  2  0  0  0  0  0  0
  161.6940  200.4240  147.9920 O   0  0  0  0  0  1  0  0  0  0  0  0
  157.9790  200.7210  148.8470 O   0  0  0  0  0  1  0  0  0  0  0  0
  158.6770  201.3850  149.8600 C   0  0  0  0  0  2  0  0  0  0  0  0
  161.6770  203.1450  150.7930 C   0  0  0  0  0  2  0  0  0  0  0  0
  162.6140  204.9330  152.0780 O   0  0  0  0  0  1  0  0  0  0  0  0
  161.4120  204.3990  151.6090 C   0  0  0  0  0  2  0  0  0  0  0  0
  162.6250  208.2920  149.5900 C   0  0  0  0  0  2  0  0  0  0  0  0
  162.5080  208.2920  151.1080 C   0  0  1  0  0  3  0  0  0  0  0  0
  163.1370  209.4130  151.6570 O   0  0  0  0  0  1  0  0  0  0  0  0
  161.0450  208.2420  151.5340 C   0  0  0  0  0  2  0  0  0  0  0  0
  160.8190  207.3760  153.1240 S   0  0  0  0  0  0  0  0  0  0  0  0
  160.1180  208.8510  153.9090 C   0  0  0  0  0  2  0  0  0  0  0  0
  160.9650  210.0640  153.5580 C   0  0  0  0  0  2  0  0  0  0  0  0
  157.2200  212.3950  155.5260 C   0  0  2  0  0  3  0  0  0  0  0  0
  157.4150  213.6390  156.1390 O   0  0  0  0  0  1  0  0  0  0  0  0
  161.1530  211.4420  155.9570 S   0  0  0  0  0  0  0  0  0  0  0  0
  160.4800  211.3280  154.2670 C   0  0  2  0  0  3  0  0  0  0  0  0
  159.5430  212.0080  156.6030 C   0  0  0  0  0  2  0  0  0  0  0  0
  156.8400  213.8870  153.6350 O   0  0  0  0  0  1  0  0  0  0  0  0
  158.4570  211.4770  155.6790 C   0  0  2  0  0  3  0  0  0  0  0  0
  158.4750  212.0290  152.1860 O   0  0  0  0  0  0  0  0  0  0  0  0
  159.0330  211.3480  154.3640 N   0  0  0  0  0  0  0  0  0  0  0  0
  158.1930  211.9700  153.4130 C   0  0  0  0  0  0  0  0  0  0  0  0
  156.9720  212.5460  154.0090 C   0  0  1  0  0  3  0  0  0  0  0  0
  1 50  1  6  0  0  0
  2 14  1  0  0  0  0
  2 11  1  0  0  0  0
  3 14  1  0  0  0  0
  4  9  1  6  0  0  0
  4  7  1  0  0  0  0
  5 13  1  1  0  0  0
  5  4  1  0  0  0  0
  6  3  2  0  0  0  0
  7 17  1  6  0  0  0
  8 16  1  0  0  0  0
  8  5  1  0  0  0  0
 10  1  1  0  0  0  0
 10  7  1  0  0  0  0
 11 16  1  0  0  0  0
 12  6  1  0  0  0  0
 12 15  2  0  0  0  0
 13 10  2  0  0  0  0
 14  8  1  0  0  0  0
 15  2  1  0  0  0  0
 16  9  1  0  0  0  0
 18 17  1  0  0  0  0
 19 12  1  0  0  0  0
 20 21  1  0  0  0  0
 21 25  1  0  0  0  0
 21 19  1  0  0  0  0
 22 23  1  0  0  0  0
 23 25  1  0  0  0  0
 24 22  1  0  0  0  0
 24 26  1  0  0  0  0
 26 27  2  0  0  0  0
 26 25  1  0  0  0  0
 28 29  1  0  0  0  0
 29 24  1  0  0  0  0
 30 31  1  0  0  0  0
 31  1  1  0  0  0  0
 32 31  2  0  0  0  0
 33 34  1  0  0  0  0
 33 35  1  0  0  0  0
 34 35  1  0  0  0  0
 34 37  1  0  0  0  0
 36 34  1  0  0  0  0
 36 35  1  0  0  0  0
 36 30  1  0  0  0  0
 37 38  1  0  0  0  0
 39 38  1  0  0  0  0
 39 40  1  0  0  0  0
 40 47  1  0  0  0  0
 41 40  1  0  0  0  0
 41 46  1  0  0  0  0
 41 42  1  0  0  0  0
 43 41  1  0  0  0  0
 44 43  1  0  0  0  0
 45 46  1  0  0  0  0
 47 49  1  0  0  0  0
 49 48  1  0  0  0  0
 50 51  1  0  0  0  0
 51 53  1  0  0  0  0
 51 52  1  0  0  0  0
 53 54  1  0  0  0  0
 54 55  1  0  0  0  0
 56 55  1  0  0  0  0
 56 60  1  0  0  0  0
 57 63  1  0  0  0  0
 57 58  1  0  0  0  0
 59 61  1  0  0  0  0
 60 65  1  0  0  0  0
 60 59  1  0  0  0  0
 62 67  1  0  0  0  0
 63 61  1  0  0  0  0
 64 66  2  0  0  0  0
 65 63  1  0  0  0  0
 66 67  1  0  0  0  0
 66 65  1  0  0  0  0
 67 57  1  0  0  0  0
M  END
>  <MODEL>
2

>  <REMARK>
 VINA RESULT:       0.3      3.523     12.067
  Name = 
  24 active torsions:
  status: ('A' for Active; 'I' for Inactive)
    1  A    between atoms: C_3  and  C_15
    2  A    between atoms: C_3  and  C_17
    3  A    between atoms: C_3  and  C_27
    4  A    between atoms: O_7  and  C_20
    5  A    between atoms: O_7  and  C_45
    6  A    between atoms: C_8  and  C_31
    7  A    between atoms: N_11  and  C_61
    8  A    between atoms: C_12  and  C_37
    9  A    between atoms: C_12  and  C_49
   10  A    between atoms: O_18  and  C_29
   11  A    between atoms: C_19  and  C_60
   12  A    between atoms: C_20  and  C_27
   13  A    between atoms: C_23  and  C_45
   14  A    between atoms: C_25  and  C_59
   15  A    between atoms: C_27  and  C_59
   16  A    between atoms: C_30  and  C_31
   17  A    between atoms: C_30  and  S_51
   18  A    between atoms: N_34  and  C_42
   19  A    between atoms: N_34  and  C_54
   20  A    between atoms: C_36  and  C_60
   21  A    between atoms: C_37  and  S_51
   22  A    between atoms: N_43  and  C_55
   23  A    between atoms: C_47  and  C_54
   24  A    between atoms: C_49  and  C_60
                            x       y       z     vdW  Elec       q    Type
                         _______ _______ _______ _____ _____    ______ ____

>  <TORSDO>
F 24

$$$$
=
 OpenBabel11052411033D

 67 75  0  0  1  0  0  0  0  0999 V2000
  161.9490  207.1520  149.1930 C   0  0  1  0  0  3  0  0  0  0  0  0
  161.1760  205.2900  142.4380 N   0  0  0  0  0  0  0  0  0  0  0  0
  162.0620  207.4570  142.9140 C   0  0  0  0  0  3  0  0  0  0  0  0
  161.8650  204.6800  146.3730 C   0  0  1  0  0  3  0  0  0  0  0  0
  161.9060  205.8640  145.8030 C   0  0  1  0  0  3  0  0  0  0  0  0
  162.3120  207.6150  141.5410 C   0  0  0  0  0  3  0  0  0  0  0  0
  161.8930  204.8570  147.8540 C   0  0  1  0  0  3  0  0  0  0  0  0
  161.1500  205.8200  144.5750 C   0  0  1  0  0  3  0  0  0  0  0  0
  161.1180  203.6610  145.5440 C   0  0  0  0  0  2  0  0  0  0  0  0
  161.9910  206.3630  147.9130 C   0  0  0  0  0  0  0  0  0  0  0  0
  160.7950  204.1900  143.0740 N   0  0  0  0  0  2  0  0  0  0  0  0
  161.9840  206.5930  140.6290 C   0  0  0  0  0  0  0  0  0  0  0  0
  161.9380  206.9220  146.7420 N   0  0  0  0  0  0  0  0  0  0  0  0
  161.4550  206.2720  143.3150 C   0  0  2  0  0  3  0  0  0  0  0  0
  161.4230  205.3960  141.1100 C   0  0  0  0  0  3  0  0  0  0  0  0
  160.7450  204.5270  144.3830 C   0  0  2  0  0  3  0  0  0  0  0  0
  160.6790  204.4430  148.4090 O   0  0  0  0  0  0  0  0  0  0  0  0
  160.9600  203.2140  149.0090 C   0  0  0  0  0  1  0  0  0  0  0  0
  162.2390  206.7860  139.2340 N   0  0  0  0  0  2  0  0  0  0  0  0
  161.9040  207.6110  137.0850 O   0  0  0  0  0  1  0  0  0  0  0  0
  161.3630  207.5680  138.3710 C   0  0  2  0  0  3  0  0  0  0  0  0
  162.0940  210.8530  137.9160 C   0  0  0  0  0  2  0  0  0  0  0  0
  162.3990  209.7140  138.7090 O   0  0  0  0  0  0  0  0  0  0  0  0
  160.6970  210.8050  137.5440 N   0  0  0  0  0  0  0  0  0  0  0  0
  161.2020  208.9820  138.9210 C   0  0  1  0  0  3  0  0  0  0  0  0
  160.1380  209.6990  138.1930 C   0  0  0  0  0  0  0  0  0  0  0  0
  158.5510  209.5910  138.5810 S   0  0  0  0  0  0  0  0  0  0  0  0
  159.1020  212.5630  138.1110 C   0  0  0  0  0  1  0  0  0  0  0  0
  159.9550  211.9430  137.0190 C   0  0  0  0  0  2  0  0  0  0  0  0
  162.0020  209.6500  149.5350 N   0  0  0  0  0  2  0  0  0  0  0  0
  162.6360  208.4740  149.0350 C   0  0  0  0  0  0  0  0  0  0  0  0
  163.7680  208.5440  148.4820 O   0  0  0  0  0  0  0  0  0  0  0  0
  161.7460  213.1370  148.4980 C   0  0  0  0  0  2  0  0  0  0  0  0
  162.0950  211.7060  148.1470 C   0  0  2  0  0  0  0  0  0  0  0  0
  161.5200  212.0360  149.5120 C   0  0  1  0  0  3  0  0  0  0  0  0
  162.5950  210.9740  149.3910 C   0  0  1  0  0  3  0  0  0  0  0  0
  160.9850  211.0160  147.3570 C   0  0  0  0  0  2  0  0  0  0  0  0
  160.9240  211.5300  146.0610 O   0  0  0  0  0  0  0  0  0  0  0  0
  159.6350  212.0520  145.9430 C   0  0  0  0  0  2  0  0  0  0  0  0
  159.6650  213.3910  145.2040 C   0  0  1  0  0  3  0  0  0  0  0  0
  160.2740  213.2910  143.7770 C   0  0  0  0  0  0  0  0  0  0  0  0
  159.9410  211.9430  143.1570 C   0  0  0  0  0  1  0  0  0  0  0  0
  161.8010  213.4140  143.7990 C   0  0  0  0  0  2  0  0  0  0  0  0
  162.2530  214.3730  142.8880 O   0  0  0  0  0  1  0  0  0  0  0  0
  159.5730  213.9070  141.5390 O   0  0  0  0  0  1  0  0  0  0  0  0
  159.6970  214.3690  142.8520 C   0  0  0  0  0  2  0  0  0  0  0  0
  158.2580  213.9890  145.1870 C   0  0  0  0  0  2  0  0  0  0  0  0
  156.5490  214.4250  146.8050 O   0  0  0  0  0  1  0  0  0  0  0  0
  157.4120  213.4390  146.3230 C   0  0  0  0  0  2  0  0  0  0  0  0
  160.5220  207.3440  149.7040 C   0  0  0  0  0  2  0  0  0  0  0  0
  160.3710  206.8340  151.1310 C   0  0  1  0  0  3  0  0  0  0  0  0
  161.1660  205.7050  151.3430 O   0  0  0  0  0  1  0  0  0  0  0  0
  160.7230  207.9280  152.1320 C   0  0  0  0  0  2  0  0  0  0  0  0
  161.4680  207.2550  153.6550 S   0  0  0  0  0  0  0  0  0  0  0  0
  160.6230  208.4760  154.6940 C   0  0  0  0  0  2  0  0  0  0  0  0
  160.8220  209.8660  154.1090 C   0  0  0  0  0  2  0  0  0  0  0  0
  158.3240  213.7010  155.6480 C   0  0  2  0  0  3  0  0  0  0  0  0
  157.0510  213.9620  155.1260 O   0  0  0  0  0  1  0  0  0  0  0  0
  159.3170  211.4530  152.4050 S   0  0  0  0  0  0  0  0  0  0  0  0
  159.5130  210.6490  154.0290 C   0  0  2  0  0  3  0  0  0  0  0  0
  158.6890  212.9760  153.1900 C   0  0  0  0  0  2  0  0  0  0  0  0
  156.9340  212.4680  157.2280 O   0  0  0  0  0  1  0  0  0  0  0  0
  159.2520  213.0400  154.6020 C   0  0  2  0  0  3  0  0  0  0  0  0
  158.8960  210.3990  156.9270 O   0  0  0  0  0  0  0  0  0  0  0  0
  159.4640  211.6840  155.0450 N   0  0  0  0  0  0  0  0  0  0  0  0
  158.8820  211.5030  156.3190 C   0  0  0  0  0  0  0  0  0  0  0  0
  158.2530  212.7300  156.8480 C   0  0  1  0  0  3  0  0  0  0  0  0
  1 50  1  6  0  0  0
  2 11  1  0  0  0  0
  2 14  1  0  0  0  0
  3 14  1  0  0  0  0
  4  9  1  1  0  0  0
  4  7  1  0  0  0  0
  5  4  1  0  0  0  0
  5 13  1  1  0  0  0
  6  3  2  0  0  0  0
  7 10  1  0  0  0  0
  7 17  1  1  0  0  0
  8  5  1  0  0  0  0
 10  1  1  0  0  0  0
 11 16  1  0  0  0  0
 12 15  2  0  0  0  0
 12  6  1  0  0  0  0
 13 10  2  0  0  0  0
 14  8  1  0  0  0  0
 15  2  1  0  0  0  0
 16  8  1  0  0  0  0
 16  9  1  0  0  0  0
 17 18  1  0  0  0  0
 19 12  1  0  0  0  0
 20 21  1  0  0  0  0
 21 25  1  0  0  0  0
 21 19  1  0  0  0  0
 22 23  1  0  0  0  0
 23 25  1  0  0  0  0
 24 22  1  0  0  0  0
 24 26  1  0  0  0  0
 26 27  2  0  0  0  0
 26 25  1  0  0  0  0
 29 24  1  0  0  0  0
 29 28  1  0  0  0  0
 31  1  1  0  0  0  0
 31 30  1  0  0  0  0
 32 31  2  0  0  0  0
 33 35  1  0  0  0  0
 34 33  1  0  0  0  0
 34 36  1  0  0  0  0
 34 35  1  0  0  0  0
 36 35  1  0  0  0  0
 36 30  1  0  0  0  0
 37 34  1  0  0  0  0
 38 37  1  0  0  0  0
 39 38  1  0  0  0  0
 40 39  1  0  0  0  0
 41 43  1  0  0  0  0
 41 40  1  0  0  0  0
 42 41  1  0  0  0  0
 44 43  1  0  0  0  0
 45 46  1  0  0  0  0
 46 41  1  0  0  0  0
 47 40  1  0  0  0  0
 47 49  1  0  0  0  0
 49 48  1  0  0  0  0
 50 51  1  0  0  0  0
 51 52  1  0  0  0  0
 51 53  1  0  0  0  0
 53 54  1  0  0  0  0
 54 55  1  0  0  0  0
 56 55  1  0  0  0  0
 57 67  1  0  0  0  0
 58 57  1  0  0  0  0
 59 61  1  0  0  0  0
 59 60  1  0  0  0  0
 60 56  1  0  0  0  0
 60 65  1  0  0  0  0
 61 63  1  0  0  0  0
 63 65  1  0  0  0  0
 63 57  1  0  0  0  0
 65 66  1  0  0  0  0
 66 67  1  0  0  0  0
 66 64  2  0  0  0  0
 67 62  1  0  0  0  0
M  END
>  <MODEL>
3

>  <REMARK>
 VINA RESULT:       0.5      3.682     11.242
  Name = 
  24 active torsions:
  status: ('A' for Active; 'I' for Inactive)
    1  A    between atoms: C_3  and  C_15
    2  A    between atoms: C_3  and  C_17
    3  A    between atoms: C_3  and  C_27
    4  A    between atoms: O_7  and  C_20
    5  A    between atoms: O_7  and  C_45
    6  A    between atoms: C_8  and  C_31
    7  A    between atoms: N_11  and  C_61
    8  A    between atoms: C_12  and  C_37
    9  A    between atoms: C_12  and  C_49
   10  A    between atoms: O_18  and  C_29
   11  A    between atoms: C_19  and  C_60
   12  A    between atoms: C_20  and  C_27
   13  A    between atoms: C_23  and  C_45
   14  A    between atoms: C_25  and  C_59
   15  A    between atoms: C_27  and  C_59
   16  A    between atoms: C_30  and  C_31
   17  A    between atoms: C_30  and  S_51
   18  A    between atoms: N_34  and  C_42
   19  A    between atoms: N_34  and  C_54
   20  A    between atoms: C_36  and  C_60
   21  A    between atoms: C_37  and  S_51
   22  A    between atoms: N_43  and  C_55
   23  A    between atoms: C_47  and  C_54
   24  A    between atoms: C_49  and  C_60
                            x       y       z     vdW  Elec       q    Type
                         _______ _______ _______ _____ _____    ______ ____

>  <TORSDO>
F 24

$$$$
=
 OpenBabel11052411033D

 67 75  0  0  1  0  0  0  0  0999 V2000
  161.3090  208.5970  148.8510 C   0  0  1  0  0  3  0  0  0  0  0  0
  161.1140  213.6740  143.9630 N   0  0  0  0  0  0  0  0  0  0  0  0
  159.7970  211.7130  143.6020 C   0  0  0  0  0  3  0  0  0  0  0  0
  161.4590  212.1630  147.6950 C   0  0  1  0  0  3  0  0  0  0  0  0
  160.9810  211.4830  146.6760 C   0  0  1  0  0  3  0  0  0  0  0  0
  159.2310  212.3450  142.4830 C   0  0  0  0  0  3  0  0  0  0  0  0
  161.6970  211.2270  148.8320 C   0  0  1  0  0  3  0  0  0  0  0  0
  161.4460  212.0850  145.4500 C   0  0  1  0  0  3  0  0  0  0  0  0
  162.2610  213.3690  147.2640 C   0  0  0  0  0  2  0  0  0  0  0  0
  161.2120  209.9470  148.1920 C   0  0  0  0  0  0  0  0  0  0  0  0
  161.9020  214.2080  144.8860 N   0  0  0  0  0  2  0  0  0  0  0  0
  159.6220  213.6480  142.1190 C   0  0  0  0  0  0  0  0  0  0  0  0
  160.8640  210.0990  146.9510 N   0  0  0  0  0  0  0  0  0  0  0  0
  160.7720  212.4160  144.3010 C   0  0  2  0  0  3  0  0  0  0  0  0
  160.5740  214.3240  142.9050 C   0  0  0  0  0  3  0  0  0  0  0  0
  162.1340  213.2210  145.7810 C   0  0  2  0  0  3  0  0  0  0  0  0
  163.0660  211.1300  149.0950 O   0  0  0  0  0  0  0  0  0  0  0  0
  163.6470  212.1600  148.3510 C   0  0  0  0  0  1  0  0  0  0  0  0
  159.0380  214.2620  140.9670 N   0  0  0  0  0  2  0  0  0  0  0  0
  158.7770  214.3060  138.6560 O   0  0  0  0  0  1  0  0  0  0  0  0
  158.6260  213.5070  139.7910 C   0  0  2  0  0  3  0  0  0  0  0  0
  155.3750  214.3370  139.2610 C   0  0  0  0  0  2  0  0  0  0  0  0
  156.3640  214.1760  140.2700 O   0  0  0  0  0  0  0  0  0  0  0  0
  155.6070  213.3640  138.2170 N   0  0  0  0  0  0  0  0  0  0  0  0
  157.1730  213.0610  139.9300 C   0  0  1  0  0  3  0  0  0  0  0  0
  156.6670  212.5540  138.6410 C   0  0  0  0  0  0  0  0  0  0  0  0
  156.8740  211.0090  138.1360 S   0  0  0  0  0  0  0  0  0  0  0  0
  153.6150  214.1320  137.0360 C   0  0  0  0  0  1  0  0  0  0  0  0
  154.6270  213.0130  137.1990 C   0  0  0  0  0  2  0  0  0  0  0  0
  161.8850  207.3340  146.7450 N   0  0  0  0  0  2  0  0  0  0  0  0
  161.0260  207.4990  147.8720 C   0  0  0  0  0  0  0  0  0  0  0  0
  160.0510  206.7180  148.0520 O   0  0  0  0  0  0  0  0  0  0  0  0
  161.7070  203.8190  145.7900 C   0  0  0  0  0  2  0  0  0  0  0  0
  162.5370  205.0760  145.9460 C   0  0  2  0  0  0  0  0  0  0  0  0
  161.0840  205.0630  146.3860 C   0  0  1  0  0  3  0  0  0  0  0  0
  161.6560  206.3070  145.7360 C   0  0  1  0  0  3  0  0  0  0  0  0
  163.3820  205.0580  147.2170 C   0  0  0  0  0  2  0  0  0  0  0  0
  162.5760  204.8130  148.3300 O   0  0  0  0  0  0  0  0  0  0  0  0
  162.1150  203.5070  148.1570 C   0  0  0  0  0  2  0  0  0  0  0  0
  160.9460  203.2240  149.1020 C   0  0  1  0  0  3  0  0  0  0  0  0
  160.3360  201.8070  148.9150 C   0  0  0  0  0  0  0  0  0  0  0  0
  161.2290  200.7590  149.5600 C   0  0  0  0  0  1  0  0  0  0  0  0
  160.2000  201.4350  147.4340 C   0  0  0  0  0  2  0  0  0  0  0  0
  160.7940  200.2010  147.1570 O   0  0  0  0  0  1  0  0  0  0  0  0
  158.2230  200.6270  149.0820 O   0  0  0  0  0  1  0  0  0  0  0  0
  158.9610  201.7020  149.5850 C   0  0  0  0  0  2  0  0  0  0  0  0
  161.3920  203.4700  150.5430 C   0  0  0  0  0  2  0  0  0  0  0  0
  160.6710  204.9910  152.2450 O   0  0  0  0  0  1  0  0  0  0  0  0
  161.1780  204.9200  150.9460 C   0  0  0  0  0  2  0  0  0  0  0  0
  162.6620  208.3820  149.5260 C   0  0  0  0  0  2  0  0  0  0  0  0
  162.5420  208.4520  151.0420 C   0  0  1  0  0  3  0  0  0  0  0  0
  163.1330  209.6190  151.5350 O   0  0  0  0  0  1  0  0  0  0  0  0
  161.0810  208.3740  151.4690 C   0  0  0  0  0  2  0  0  0  0  0  0
  160.8990  207.8960  153.2200 S   0  0  0  0  0  0  0  0  0  0  0  0
  161.0510  209.6120  153.7800 C   0  0  0  0  0  2  0  0  0  0  0  0
  159.7320  210.3370  153.5610 C   0  0  0  0  0  2  0  0  0  0  0  0
  157.0320  212.8270  156.6970 C   0  0  2  0  0  3  0  0  0  0  0  0
  157.5230  214.0140  157.2530 O   0  0  0  0  0  1  0  0  0  0  0  0
  160.7950  211.5540  155.8140 S   0  0  0  0  0  0  0  0  0  0  0  0
  159.6140  211.5900  154.4260 C   0  0  2  0  0  3  0  0  0  0  0  0
  159.5310  212.2020  156.9590 C   0  0  0  0  0  2  0  0  0  0  0  0
  156.2090  214.4500  155.0740 O   0  0  0  0  0  1  0  0  0  0  0  0
  158.1650  211.8100  156.4170 C   0  0  2  0  0  3  0  0  0  0  0  0
  157.1250  212.5610  153.1210 O   0  0  0  0  0  0  0  0  0  0  0  0
  158.2800  211.7150  154.9830 N   0  0  0  0  0  0  0  0  0  0  0  0
  157.2420  212.4520  154.3710 C   0  0  0  0  0  0  0  0  0  0  0  0
  156.3300  213.0840  155.3450 C   0  0  1  0  0  3  0  0  0  0  0  0
  1 50  1  6  0  0  0
  2 14  1  0  0  0  0
  2 11  1  0  0  0  0
  3 14  1  0  0  0  0
  4  9  1  6  0  0  0
  4  7  1  0  0  0  0
  5 13  1  1  0  0  0
  5  4  1  0  0  0  0
  6  3  2  0  0  0  0
  7 17  1  6  0  0  0
  8 16  1  0  0  0  0
  8  5  1  0  0  0  0
 10  7  1  0  0  0  0
 10  1  1  0  0  0  0
 11 16  1  0  0  0  0
 12  6  1  0  0  0  0
 12 15  2  0  0  0  0
 13 10  2  0  0  0  0
 14  8  1  0  0  0  0
 15  2  1  0  0  0  0
 16  9  1  0  0  0  0
 18 17  1  0  0  0  0
 19 12  1  0  0  0  0
 20 21  1  0  0  0  0
 21 25  1  0  0  0  0
 21 19  1  0  0  0  0
 22 23  1  0  0  0  0
 24 26  1  0  0  0  0
 24 22  1  0  0  0  0
 25 23  1  0  0  0  0
 26 25  1  0  0  0  0
 27 26  2  0  0  0  0
 28 29  1  0  0  0  0
 29 24  1  0  0  0  0
 30 31  1  0  0  0  0
 31 32  2  0  0  0  0
 31  1  1  0  0  0  0
 33 34  1  0  0  0  0
 33 35  1  0  0  0  0
 34 35  1  0  0  0  0
 34 37  1  0  0  0  0
 36 34  1  0  0  0  0
 36 35  1  0  0  0  0
 36 30  1  0  0  0  0
 37 38  1  0  0  0  0
 39 38  1  0  0  0  0
 39 40  1  0  0  0  0
 40 47  1  0  0  0  0
 41 40  1  0  0  0  0
 41 42  1  0  0  0  0
 41 46  1  0  0  0  0
 43 41  1  0  0  0  0
 44 43  1  0  0  0  0
 45 46  1  0  0  0  0
 47 49  1  0  0  0  0
 49 48  1  0  0  0  0
 50 51  1  0  0  0  0
 51 53  1  0  0  0  0
 51 52  1  0  0  0  0
 53 54  1  0  0  0  0
 54 55  1  0  0  0  0
 56 55  1  0  0  0  0
 56 60  1  0  0  0  0
 57 58  1  0  0  0  0
 59 61  1  0  0  0  0
 60 65  1  0  0  0  0
 60 59  1  0  0  0  0
 62 67  1  0  0  0  0
 63 57  1  0  0  0  0
 63 61  1  0  0  0  0
 64 66  2  0  0  0  0
 65 63  1  0  0  0  0
 66 65  1  0  0  0  0
 66 67  1  0  0  0  0
 67 57  1  0  0  0  0
M  END
>  <MODEL>
4

>  <REMARK>
 VINA RESULT:       0.5      3.794     12.214
  Name = 
  24 active torsions:
  status: ('A' for Active; 'I' for Inactive)
    1  A    between atoms: C_3  and  C_15
    2  A    between atoms: C_3  and  C_17
    3  A    between atoms: C_3  and  C_27
    4  A    between atoms: O_7  and  C_20
    5  A    between atoms: O_7  and  C_45
    6  A    between atoms: C_8  and  C_31
    7  A    between atoms: N_11  and  C_61
    8  A    between atoms: C_12  and  C_37
    9  A    between atoms: C_12  and  C_49
   10  A    between atoms: O_18  and  C_29
   11  A    between atoms: C_19  and  C_60
   12  A    between atoms: C_20  and  C_27
   13  A    between atoms: C_23  and  C_45
   14  A    between atoms: C_25  and  C_59
   15  A    between atoms: C_27  and  C_59
   16  A    between atoms: C_30  and  C_31
   17  A    between atoms: C_30  and  S_51
   18  A    between atoms: N_34  and  C_42
   19  A    between atoms: N_34  and  C_54
   20  A    between atoms: C_36  and  C_60
   21  A    between atoms: C_37  and  S_51
   22  A    between atoms: N_43  and  C_55
   23  A    between atoms: C_47  and  C_54
   24  A    between atoms: C_49  and  C_60
                            x       y       z     vdW  Elec       q    Type
                         _______ _______ _______ _____ _____    ______ ____

>  <TORSDO>
F 24

$$$$
=
 OpenBabel11052411033D

 67 75  0  0  1  0  0  0  0  0999 V2000
  161.2920  207.8020  148.0750 C   0  0  1  0  0  3  0  0  0  0  0  0
  160.5600  208.4150  155.0590 N   0  0  0  0  0  0  0  0  0  0  0  0
  159.8970  210.2590  153.6920 C   0  0  0  0  0  3  0  0  0  0  0  0
  160.6700  206.4630  151.5230 C   0  0  1  0  0  3  0  0  0  0  0  0
  160.5700  207.7690  151.6290 C   0  0  1  0  0  3  0  0  0  0  0  0
  159.3770  210.8750  154.8420 C   0  0  0  0  0  3  0  0  0  0  0  0
  160.9580  206.1150  150.1010 C   0  0  1  0  0  3  0  0  0  0  0  0
  161.0530  208.1730  152.9280 C   0  0  1  0  0  3  0  0  0  0  0  0
  161.1800  205.8140  152.7890 C   0  0  0  0  0  2  0  0  0  0  0  0
  160.9480  207.5050  149.5090 C   0  0  0  0  0  0  0  0  0  0  0  0
  161.0100  207.1740  154.9360 N   0  0  0  0  0  2  0  0  0  0  0  0
  159.4590  210.2420  156.0970 C   0  0  0  0  0  0  0  0  0  0  0  0
  160.7840  208.4350  150.3990 N   0  0  0  0  0  0  0  0  0  0  0  0
  160.5170  209.0250  153.8600 C   0  0  2  0  0  3  0  0  0  0  0  0
  160.0490  208.9670  156.1860 C   0  0  0  0  0  3  0  0  0  0  0  0
  161.3460  207.0370  153.6330 C   0  0  2  0  0  3  0  0  0  0  0  0
  162.2390  205.5680  149.9910 O   0  0  0  0  0  0  0  0  0  0  0  0
  163.0760  206.4860  150.6290 C   0  0  0  0  0  1  0  0  0  0  0  0
  158.9320  210.8980  157.2530 N   0  0  0  0  0  2  0  0  0  0  0  0
  156.7980  210.9770  156.3300 O   0  0  0  0  0  1  0  0  0  0  0  0
  157.6470  211.5860  157.2550 C   0  0  2  0  0  3  0  0  0  0  0  0
  159.6030  213.8630  155.6670 C   0  0  0  0  0  2  0  0  0  0  0  0
  159.2150  213.3870  156.9480 O   0  0  0  0  0  0  0  0  0  0  0  0
  158.4760  213.7600  154.7670 N   0  0  0  0  0  0  0  0  0  0  0  0
  157.8350  213.0590  156.9050 C   0  0  1  0  0  3  0  0  0  0  0  0
  157.3850  213.3200  155.5250 C   0  0  0  0  0  0  0  0  0  0  0  0
  155.8280  213.6400  155.1290 S   0  0  0  0  0  0  0  0  0  0  0  0
  158.8000  213.5040  152.3620 C   0  0  0  0  0  1  0  0  0  0  0  0
  158.3940  214.4430  153.4820 C   0  0  0  0  0  2  0  0  0  0  0  0
  161.9140  210.2230  148.4130 N   0  0  0  0  0  2  0  0  0  0  0  0
  162.2890  208.9170  147.9790 C   0  0  0  0  0  0  0  0  0  0  0  0
  163.4500  208.6990  147.5380 O   0  0  0  0  0  0  0  0  0  0  0  0
  162.4600  213.8150  148.0910 C   0  0  0  0  0  2  0  0  0  0  0  0
  162.2770  212.4690  147.4200 C   0  0  2  0  0  0  0  0  0  0  0  0
  162.1660  212.5890  148.9290 C   0  0  1  0  0  3  0  0  0  0  0  0
  162.8190  211.3620  148.3240 C   0  0  1  0  0  3  0  0  0  0  0  0
  160.8590  212.2740  146.8890 C   0  0  0  0  0  2  0  0  0  0  0  0
  160.1000  213.4260  147.1050 O   0  0  0  0  0  0  0  0  0  0  0  0
  160.3830  214.2500  146.0140 C   0  0  0  0  0  2  0  0  0  0  0  0
  160.9650  213.4310  144.8610 C   0  0  1  0  0  3  0  0  0  0  0  0
  159.9370  213.1480  143.7300 C   0  0  0  0  0  0  0  0  0  0  0  0
  159.9320  211.6680  143.3820 C   0  0  0  0  0  1  0  0  0  0  0  0
  160.2760  213.9140  142.4460 C   0  0  0  0  0  2  0  0  0  0  0  0
  160.0920  213.1200  141.3110 O   0  0  0  0  0  1  0  0  0  0  0  0
  157.9240  212.4850  144.9100 O   0  0  0  0  0  1  0  0  0  0  0  0
  158.5140  213.5140  144.1700 C   0  0  0  0  0  2  0  0  0  0  0  0
  162.2210  214.1250  144.3340 C   0  0  0  0  0  2  0  0  0  0  0  0
  164.0320  213.9450  142.7800 O   0  0  0  0  0  1  0  0  0  0  0  0
  162.9530  213.2500  143.3300 C   0  0  0  0  0  2  0  0  0  0  0  0
  161.7960  206.5640  147.3350 C   0  0  0  0  0  2  0  0  0  0  0  0
  160.8790  206.2000  146.1750 C   0  0  1  0  0  3  0  0  0  0  0  0
  160.3690  207.3490  145.5640 O   0  0  0  0  0  1  0  0  0  0  0  0
  161.6180  205.3400  145.1560 C   0  0  0  0  0  2  0  0  0  0  0  0
  163.3840  205.1480  145.5680 S   0  0  0  0  0  0  0  0  0  0  0  0
  163.1250  203.4800  146.2250 C   0  0  0  0  0  2  0  0  0  0  0  0
  161.6450  203.1350  146.1650 C   0  0  0  0  0  2  0  0  0  0  0  0
  159.5070  201.8330  150.2960 C   0  0  2  0  0  3  0  0  0  0  0  0
  159.4340  200.4800  150.6480 O   0  0  0  0  0  1  0  0  0  0  0  0
  160.0230  200.8960  146.3700 S   0  0  0  0  0  0  0  0  0  0  0  0
  161.2830  201.9870  147.1060 C   0  0  2  0  0  3  0  0  0  0  0  0
  159.1370  200.7780  147.9610 C   0  0  0  0  0  2  0  0  0  0  0  0
  161.5700  201.5970  151.5740 O   0  0  0  0  0  1  0  0  0  0  0  0
  159.4480  202.0320  148.7620 C   0  0  2  0  0  3  0  0  0  0  0  0
  162.7500  203.1050  149.4400 O   0  0  0  0  0  0  0  0  0  0  0  0
  160.7550  202.4890  148.3610 N   0  0  0  0  0  0  0  0  0  0  0  0
  161.5490  202.7260  149.5050 C   0  0  0  0  0  0  0  0  0  0  0  0
  160.8320  202.4700  150.7700 C   0  0  1  0  0  3  0  0  0  0  0  0
  1 50  1  1  0  0  0
  1 10  1  0  0  0  0
  2 15  1  0  0  0  0
  3 14  1  0  0  0  0
  3  6  2  0  0  0  0
  4  5  1  0  0  0  0
  4  9  1  1  0  0  0
  5 13  1  6  0  0  0
  5  8  1  0  0  0  0
  6 12  1  0  0  0  0
  7 17  1  1  0  0  0
  7  4  1  0  0  0  0
  8 16  1  0  0  0  0
  8 14  1  0  0  0  0
  9 16  1  0  0  0  0
 10  7  1  0  0  0  0
 10 13  2  0  0  0  0
 11  2  1  0  0  0  0
 12 15  2  0  0  0  0
 12 19  1  0  0  0  0
 14  2  1  0  0  0  0
 16 11  1  0  0  0  0
 17 18  1  0  0  0  0
 19 21  1  0  0  0  0
 20 21  1  0  0  0  0
 22 23  1  0  0  0  0
 24 26  1  0  0  0  0
 24 22  1  0  0  0  0
 25 23  1  0  0  0  0
 25 21  1  0  0  0  0
 26 25  1  0  0  0  0
 27 26  2  0  0  0  0
 28 29  1  0  0  0  0
 29 24  1  0  0  0  0
 31  1  1  0  0  0  0
 31 30  1  0  0  0  0
 32 31  2  0  0  0  0
 33 35  1  0  0  0  0
 34 33  1  0  0  0  0
 34 36  1  0  0  0  0
 34 35  1  0  0  0  0
 36 30  1  0  0  0  0
 36 35  1  0  0  0  0
 37 38  1  0  0  0  0
 37 34  1  0  0  0  0
 39 38  1  0  0  0  0
 40 39  1  0  0  0  0
 41 46  1  0  0  0  0
 41 40  1  0  0  0  0
 42 41  1  0  0  0  0
 43 41  1  0  0  0  0
 44 43  1  0  0  0  0
 46 45  1  0  0  0  0
 47 40  1  0  0  0  0
 48 49  1  0  0  0  0
 49 47  1  0  0  0  0
 51 50  1  0  0  0  0
 52 51  1  0  0  0  0
 53 54  1  0  0  0  0
 53 51  1  0  0  0  0
 54 55  1  0  0  0  0
 56 55  1  0  0  0  0
 56 60  1  0  0  0  0
 57 58  1  0  0  0  0
 57 67  1  0  0  0  0
 59 60  1  0  0  0  0
 59 61  1  0  0  0  0
 60 65  1  0  0  0  0
 61 63  1  0  0  0  0
 63 57  1  0  0  0  0
 64 66  2  0  0  0  0
 65 63  1  0  0  0  0
 65 66  1  0  0  0  0
 66 67  1  0  0  0  0
 67 62  1  0  0  0  0
M  END
>  <MODEL>
5

>  <REMARK>
 VINA RESULT:       1.0      1.673      2.292
  Name = 
  24 active torsions:
  status: ('A' for Active; 'I' for Inactive)
    1  A    between atoms: C_3  and  C_15
    2  A    between atoms: C_3  and  C_17
    3  A    between atoms: C_3  and  C_27
    4  A    between atoms: O_7  and  C_20
    5  A    between atoms: O_7  and  C_45
    6  A    between atoms: C_8  and  C_31
    7  A    between atoms: N_11  and  C_61
    8  A    between atoms: C_12  and  C_37
    9  A    between atoms: C_12  and  C_49
   10  A    between atoms: O_18  and  C_29
   11  A    between atoms: C_19  and  C_60
   12  A    between atoms: C_20  and  C_27
   13  A    between atoms: C_23  and  C_45
   14  A    between atoms: C_25  and  C_59
   15  A    between atoms: C_27  and  C_59
   16  A    between atoms: C_30  and  C_31
   17  A    between atoms: C_30  and  S_51
   18  A    between atoms: N_34  and  C_42
   19  A    between atoms: N_34  and  C_54
   20  A    between atoms: C_36  and  C_60
   21  A    between atoms: C_37  and  S_51
   22  A    between atoms: N_43  and  C_55
   23  A    between atoms: C_47  and  C_54
   24  A    between atoms: C_49  and  C_60
                            x       y       z     vdW  Elec       q    Type
                         _______ _______ _______ _____ _____    ______ ____

>  <TORSDO>
F 24

$$$$
