=
 OpenBabel11052409573D

 29 32  0  0  1  0  0  0  0  0999 V2000
  159.3400  208.7540  155.5690 O   0  0  0  0  0  1  0  0  0  0  0  0
  160.8200  209.7370  153.9520 C   0  0  0  0  0  2  0  0  0  0  0  0
  161.5140  207.8730  155.3940 N   0  0  0  0  0  2  0  0  0  0  0  0
  161.0940  206.9030  154.3800 C   0  0  0  0  0  2  0  0  0  0  0  0
  160.6850  209.0850  155.3350 C   0  0  2  0  0  0  0  0  0  0  0  0
  160.4450  208.7520  152.8480 C   0  0  0  0  0  2  0  0  0  0  0  0
  161.2790  207.4800  152.9790 C   0  0  2  0  0  3  0  0  0  0  0  0
  160.9450  211.4000  156.0340 N   0  0  0  0  0  0  0  0  0  0  0  0
  161.2180  210.0760  156.3890 C   0  0  2  0  0  3  0  0  0  0  0  0
  162.3450  210.7770  155.9750 C   0  0  0  0  0  0  0  0  0  0  0  0
  163.5760  210.8480  155.7200 O   0  0  0  0  0  0  0  0  0  0  0  0
  160.0320  212.5090  155.8160 C   0  0  0  0  0  2  0  0  0  0  0  0
  158.6130  212.1000  156.1650 C   0  0  0  0  0  2  0  0  0  0  0  0
  156.6260  211.0940  155.2070 N   0  0  0  0  0  1  0  0  0  0  0  0
  157.7980  211.8940  154.9020 C   0  0  0  0  0  2  0  0  0  0  0  0
  160.8430  206.5000  151.9990 N   0  0  0  0  0  2  0  0  0  0  0  0
  162.7220  207.4370  150.7690 C   0  0  0  0  0  1  0  0  0  0  0  0
  161.2860  206.9510  150.6880 C   0  0  1  0  0  3  0  0  0  0  0  0
  161.7740  204.6490  146.5710 O   0  0  0  0  0  0  0  0  0  0  0  0
  161.4790  205.9110  148.4020 N   0  0  0  0  0  0  0  0  0  0  0  0
  162.1930  205.9680  146.1840 C   0  0  0  0  0  3  0  0  0  0  0  0
  162.0240  206.8540  147.4540 C   0  0  0  0  0  3  0  0  0  0  0  0
  160.9720  203.8020  148.8170 C   0  0  0  0  0  0  0  0  0  0  0  0
  161.3830  204.7220  147.8840 C   0  0  0  0  0  0  0  0  0  0  0  0
  160.8390  204.5070  150.0200 C   0  0  0  0  0  3  0  0  0  0  0  0
  161.1640  205.8320  149.7050 C   0  0  0  0  0  0  0  0  0  0  0  0
  160.7900  202.3340  148.6170 C   0  0  0  0  0  2  0  0  0  0  0  0
  161.2140  201.0100  150.4480 N   0  0  0  0  0  1  0  0  0  0  0  0
  160.2010  201.7280  149.8010 N   0  0  0  0  0  2  0  0  0  0  0  0
  2  5  1  0  0  0  0
  4  3  1  0  0  0  0
  5  3  1  0  0  0  0
  5  1  1  1  0  0  0
  5  9  1  0  0  0  0
  6  7  1  0  0  0  0
  6  2  1  0  0  0  0
  7 16  1  6  0  0  0
  7  4  1  0  0  0  0
  8  9  1  0  0  0  0
  9 10  1  6  0  0  0
 10  8  1  0  0  0  0
 11 10  2  0  0  0  0
 12  8  1  0  0  0  0
 12 13  1  0  0  0  0
 15 14  1  0  0  0  0
 15 13  1  0  0  0  0
 18 17  1  1  0  0  0
 18 16  1  0  0  0  0
 19 24  1  0  0  0  0
 20 26  1  0  0  0  0
 21 19  1  0  0  0  0
 21 22  2  0  0  0  0
 22 20  1  0  0  0  0
 23 25  1  0  0  0  0
 24 20  1  0  0  0  0
 24 23  2  0  0  0  0
 26 25  2  0  0  0  0
 26 18  1  0  0  0  0
 27 23  1  0  0  0  0
 27 29  1  0  0  0  0
 29 28  1  0  0  0  0
M  END
>  <MODEL>
1

>  <REMARK>
 VINA RESULT:      -6.9      0.000      0.000
  Name = 
  9 active torsions:
  status: ('A' for Active; 'I' for Inactive)
    1  A    between atoms: C_1  and  N_6
    2  A    between atoms: C_1  and  C_23
    3  A    between atoms: C_2  and  C_16
    4  A    between atoms: C_2  and  N_27
    5  A    between atoms: CA_8  and  C_15
    6  A    between atoms: C_10  and  C_23
    7  A    between atoms: N_17  and  C_28
    8  A    between atoms: N_17  and  C_29
    9  A    between atoms: C_24  and  C_28
                            x       y       z     vdW  Elec       q    Type
                         _______ _______ _______ _____ _____    ______ ____

>  <TORSDO>
F 9

$$$$
=
 OpenBabel11052409573D

 29 32  0  0  1  0  0  0  0  0999 V2000
  162.0600  209.8160  154.1280 O   0  0  0  0  0  1  0  0  0  0  0  0
  160.8370  207.7500  154.0210 C   0  0  0  0  0  2  0  0  0  0  0  0
  160.2900  209.6670  152.5850 N   0  0  0  0  0  2  0  0  0  0  0  0
  161.1810  209.1630  151.5360 C   0  0  0  0  0  2  0  0  0  0  0  0
  160.7780  209.2810  153.9170 C   0  0  2  0  0  0  0  0  0  0  0  0
  161.7120  207.1640  152.9160 C   0  0  0  0  0  2  0  0  0  0  0  0
  161.2160  207.6380  151.5530 C   0  0  2  0  0  3  0  0  0  0  0  0
  159.8490  211.1830  155.1130 N   0  0  0  0  0  0  0  0  0  0  0  0
  159.7670  209.7960  154.9600 C   0  0  2  0  0  3  0  0  0  0  0  0
  160.3550  210.1830  156.1600 C   0  0  0  0  0  0  0  0  0  0  0  0
  160.9050  209.9200  157.2610 O   0  0  0  0  0  0  0  0  0  0  0  0
  159.6640  212.5410  154.6310 C   0  0  0  0  0  2  0  0  0  0  0  0
  158.4100  212.6330  153.7810 C   0  0  0  0  0  2  0  0  0  0  0  0
  157.9890  213.3390  151.5010 N   0  0  0  0  0  1  0  0  0  0  0  0
  158.5340  213.7630  152.7780 C   0  0  0  0  0  2  0  0  0  0  0  0
  162.1150  207.1710  150.5110 N   0  0  0  0  0  2  0  0  0  0  0  0
  161.9540  208.3370  148.3810 C   0  0  0  0  0  1  0  0  0  0  0  0
  161.3980  207.2200  149.2450 C   0  0  1  0  0  3  0  0  0  0  0  0
  160.9530  202.5470  148.5750 O   0  0  0  0  0  0  0  0  0  0  0  0
  161.2330  204.7110  149.0940 N   0  0  0  0  0  0  0  0  0  0  0  0
  160.5670  202.6510  149.9560 C   0  0  0  0  0  3  0  0  0  0  0  0
  160.7260  204.1560  150.3260 C   0  0  0  0  0  3  0  0  0  0  0  0
  161.6910  204.3520  146.9640 C   0  0  0  0  0  0  0  0  0  0  0  0
  161.3180  203.8040  148.1660 C   0  0  0  0  0  0  0  0  0  0  0  0
  161.8130  205.7290  147.1900 C   0  0  0  0  0  3  0  0  0  0  0  0
  161.5190  205.9040  148.5480 C   0  0  0  0  0  0  0  0  0  0  0  0
  161.8510  203.6440  145.6600 C   0  0  0  0  0  2  0  0  0  0  0  0
  160.5360  201.7900  145.3120 N   0  0  0  0  0  1  0  0  0  0  0  0
  160.5610  203.1830  145.1700 N   0  0  0  0  0  2  0  0  0  0  0  0
  3  5  1  0  0  0  0
  4  7  1  0  0  0  0
  4  3  1  0  0  0  0
  5  2  1  0  0  0  0
  5  1  1  1  0  0  0
  5  9  1  0  0  0  0
  6  2  1  0  0  0  0
  7 16  1  6  0  0  0
  7  6  1  0  0  0  0
  8 10  1  0  0  0  0
  9  8  1  0  0  0  0
  9 10  1  1  0  0  0
 10 11  2  0  0  0  0
 12  8  1  0  0  0  0
 13 12  1  0  0  0  0
 14 15  1  0  0  0  0
 15 13  1  0  0  0  0
 18 17  1  6  0  0  0
 18 16  1  0  0  0  0
 19 21  1  0  0  0  0
 20 22  1  0  0  0  0
 21 22  2  0  0  0  0
 23 25  1  0  0  0  0
 23 24  2  0  0  0  0
 24 19  1  0  0  0  0
 24 20  1  0  0  0  0
 25 26  2  0  0  0  0
 26 20  1  0  0  0  0
 26 18  1  0  0  0  0
 27 23  1  0  0  0  0
 29 28  1  0  0  0  0
 29 27  1  0  0  0  0
M  END
>  <MODEL>
2

>  <REMARK>
 VINA RESULT:      -6.9      2.177      2.971
  Name = 
  9 active torsions:
  status: ('A' for Active; 'I' for Inactive)
    1  A    between atoms: C_1  and  N_6
    2  A    between atoms: C_1  and  C_23
    3  A    between atoms: C_2  and  C_16
    4  A    between atoms: C_2  and  N_27
    5  A    between atoms: CA_8  and  C_15
    6  A    between atoms: C_10  and  C_23
    7  A    between atoms: N_17  and  C_28
    8  A    between atoms: N_17  and  C_29
    9  A    between atoms: C_24  and  C_28
                            x       y       z     vdW  Elec       q    Type
                         _______ _______ _______ _____ _____    ______ ____

>  <TORSDO>
F 9

$$$$
=
 OpenBabel11052409573D

 29 32  0  0  1  0  0  0  0  0999 V2000
  162.0020  209.1150  156.1060 O   0  0  0  0  0  1  0  0  0  0  0  0
  160.1190  207.8310  155.3450 C   0  0  0  0  0  2  0  0  0  0  0  0
  160.7360  209.9760  154.3200 N   0  0  0  0  0  2  0  0  0  0  0  0
  161.5700  209.2880  153.3310 C   0  0  0  0  0  2  0  0  0  0  0  0
  160.7010  209.2300  155.5850 C   0  0  2  0  0  0  0  0  0  0  0  0
  160.9180  207.0850  154.2810 C   0  0  0  0  0  2  0  0  0  0  0  0
  160.9880  207.9160  153.0030 C   0  0  2  0  0  3  0  0  0  0  0  0
  158.8750  210.8100  155.8680 N   0  0  0  0  0  0  0  0  0  0  0  0
  159.7670  209.9820  156.5540 C   0  0  2  0  0  3  0  0  0  0  0  0
  160.0660  211.3340  156.6780 C   0  0  0  0  0  0  0  0  0  0  0  0
  160.7810  212.2780  157.1070 O   0  0  0  0  0  0  0  0  0  0  0  0
  157.7310  211.0230  154.9960 C   0  0  0  0  0  2  0  0  0  0  0  0
  156.5160  211.4300  155.8100 C   0  0  0  0  0  2  0  0  0  0  0  0
  155.6090  213.6480  155.4460 N   0  0  0  0  0  1  0  0  0  0  0  0
  156.6030  212.8960  156.1900 C   0  0  0  0  0  2  0  0  0  0  0  0
  161.8430  207.2560  152.0300 N   0  0  0  0  0  2  0  0  0  0  0  0
  162.0300  208.2760  149.8290 C   0  0  0  0  0  1  0  0  0  0  0  0
  161.2070  207.3690  150.7260 C   0  0  1  0  0  3  0  0  0  0  0  0
  161.5170  203.9880  147.4160 O   0  0  0  0  0  0  0  0  0  0  0  0
  161.2910  205.7180  148.8260 N   0  0  0  0  0  0  0  0  0  0  0  0
  161.8500  205.1490  146.6360 C   0  0  0  0  0  3  0  0  0  0  0  0
  161.7280  206.3590  147.6090 C   0  0  0  0  0  3  0  0  0  0  0  0
  160.9070  203.8070  149.8650 C   0  0  0  0  0  0  0  0  0  0  0  0
  161.2130  204.4280  148.6790 C   0  0  0  0  0  0  0  0  0  0  0  0
  160.8240  204.8270  150.8220 C   0  0  0  0  0  3  0  0  0  0  0  0
  161.0680  206.0120  150.1170 C   0  0  0  0  0  0  0  0  0  0  0  0
  160.7760  202.3410  150.1080 C   0  0  0  0  0  2  0  0  0  0  0  0
  161.1290  200.7720  148.4640 N   0  0  0  0  0  1  0  0  0  0  0  0
  160.1840  201.6830  148.9530 N   0  0  0  0  0  2  0  0  0  0  0  0
  2  5  1  0  0  0  0
  3  5  1  0  0  0  0
  4  3  1  0  0  0  0
  5  1  1  1  0  0  0
  5  9  1  0  0  0  0
  6  2  1  0  0  0  0
  7 16  1  6  0  0  0
  7  4  1  0  0  0  0
  7  6  1  0  0  0  0
  8  9  1  0  0  0  0
  8 10  1  0  0  0  0
  9 10  1  1  0  0  0
 10 11  2  0  0  0  0
 12 13  1  0  0  0  0
 12  8  1  0  0  0  0
 13 15  1  0  0  0  0
 14 15  1  0  0  0  0
 18 17  1  6  0  0  0
 18 16  1  0  0  0  0
 19 24  1  0  0  0  0
 20 26  1  0  0  0  0
 21 19  1  0  0  0  0
 21 22  2  0  0  0  0
 22 20  1  0  0  0  0
 23 27  1  0  0  0  0
 23 25  1  0  0  0  0
 24 20  1  0  0  0  0
 24 23  2  0  0  0  0
 26 18  1  0  0  0  0
 26 25  2  0  0  0  0
 28 29  1  0  0  0  0
 29 27  1  0  0  0  0
M  END
>  <MODEL>
3

>  <REMARK>
 VINA RESULT:      -6.7      1.498      1.838
  Name = 
  9 active torsions:
  status: ('A' for Active; 'I' for Inactive)
    1  A    between atoms: C_1  and  N_6
    2  A    between atoms: C_1  and  C_23
    3  A    between atoms: C_2  and  C_16
    4  A    between atoms: C_2  and  N_27
    5  A    between atoms: CA_8  and  C_15
    6  A    between atoms: C_10  and  C_23
    7  A    between atoms: N_17  and  C_28
    8  A    between atoms: N_17  and  C_29
    9  A    between atoms: C_24  and  C_28
                            x       y       z     vdW  Elec       q    Type
                         _______ _______ _______ _____ _____    ______ ____

>  <TORSDO>
F 9

$$$$
=
 OpenBabel11052409573D

 29 32  0  0  1  0  0  0  0  0999 V2000
  162.0630  209.5360  154.1950 O   0  0  0  0  0  1  0  0  0  0  0  0
  160.7630  207.5160  154.1300 C   0  0  0  0  0  2  0  0  0  0  0  0
  160.3150  209.4060  152.6270 N   0  0  0  0  0  2  0  0  0  0  0  0
  161.2020  208.8360  151.6090 C   0  0  0  0  0  2  0  0  0  0  0  0
  160.7650  209.0430  153.9780 C   0  0  2  0  0  0  0  0  0  0  0  0
  161.6320  206.8620  153.0590 C   0  0  0  0  0  2  0  0  0  0  0  0
  161.1780  207.3110  151.6730 C   0  0  2  0  0  3  0  0  0  0  0  0
  159.8280  211.0240  155.0310 N   0  0  0  0  0  0  0  0  0  0  0  0
  159.7580  209.6300  154.9870 C   0  0  2  0  0  3  0  0  0  0  0  0
  160.3520  210.1130  156.1480 C   0  0  0  0  0  0  0  0  0  0  0  0
  160.9140  209.9420  157.2610 O   0  0  0  0  0  0  0  0  0  0  0  0
  159.6260  212.3390  154.4460 C   0  0  0  0  0  2  0  0  0  0  0  0
  158.3380  212.3680  153.6440 C   0  0  0  0  0  2  0  0  0  0  0  0
  159.3270  213.8120  151.9660 N   0  0  0  0  0  1  0  0  0  0  0  0
  158.6390  212.5490  152.1690 C   0  0  0  0  0  2  0  0  0  0  0  0
  162.0750  206.7780  150.6620 N   0  0  0  0  0  2  0  0  0  0  0  0
  162.2280  207.8650  148.4900 C   0  0  0  0  0  1  0  0  0  0  0  0
  161.4260  206.9200  149.3670 C   0  0  1  0  0  3  0  0  0  0  0  0
  161.5980  203.6790  145.9110 O   0  0  0  0  0  0  0  0  0  0  0  0
  161.4170  205.3440  147.4030 N   0  0  0  0  0  0  0  0  0  0  0  0
  161.8000  204.8820  145.1510 C   0  0  0  0  0  3  0  0  0  0  0  0
  161.7080  206.0500  146.1780 C   0  0  0  0  0  3  0  0  0  0  0  0
  161.2250  203.3800  148.3950 C   0  0  0  0  0  0  0  0  0  0  0  0
  161.3890  204.0580  147.2120 C   0  0  0  0  0  0  0  0  0  0  0  0
  161.1800  204.3600  149.3960 C   0  0  0  0  0  3  0  0  0  0  0  0
  161.2990  205.5800  148.7200 C   0  0  0  0  0  0  0  0  0  0  0  0
  161.1910  201.9020  148.5910 C   0  0  0  0  0  2  0  0  0  0  0  0
  159.1420  201.2560  149.4120 N   0  0  0  0  0  1  0  0  0  0  0  0
  160.4530  201.5640  149.7990 N   0  0  0  0  0  2  0  0  0  0  0  0
  3  5  1  0  0  0  0
  4  7  1  0  0  0  0
  4  3  1  0  0  0  0
  5  2  1  0  0  0  0
  5  1  1  1  0  0  0
  5  9  1  0  0  0  0
  6  2  1  0  0  0  0
  7 16  1  6  0  0  0
  7  6  1  0  0  0  0
  8 10  1  0  0  0  0
  9  8  1  0  0  0  0
  9 10  1  1  0  0  0
 10 11  2  0  0  0  0
 12  8  1  0  0  0  0
 13 12  1  0  0  0  0
 14 15  1  0  0  0  0
 15 13  1  0  0  0  0
 18 17  1  6  0  0  0
 18 16  1  0  0  0  0
 19 24  1  0  0  0  0
 20 26  1  0  0  0  0
 21 19  1  0  0  0  0
 21 22  2  0  0  0  0
 22 20  1  0  0  0  0
 23 27  1  0  0  0  0
 23 25  1  0  0  0  0
 24 20  1  0  0  0  0
 24 23  2  0  0  0  0
 26 18  1  0  0  0  0
 26 25  2  0  0  0  0
 27 29  1  0  0  0  0
 28 29  1  0  0  0  0
M  END
>  <MODEL>
4

>  <REMARK>
 VINA RESULT:      -6.6      1.725      2.175
  Name = 
  9 active torsions:
  status: ('A' for Active; 'I' for Inactive)
    1  A    between atoms: C_1  and  N_6
    2  A    between atoms: C_1  and  C_23
    3  A    between atoms: C_2  and  C_16
    4  A    between atoms: C_2  and  N_27
    5  A    between atoms: CA_8  and  C_15
    6  A    between atoms: C_10  and  C_23
    7  A    between atoms: N_17  and  C_28
    8  A    between atoms: N_17  and  C_29
    9  A    between atoms: C_24  and  C_28
                            x       y       z     vdW  Elec       q    Type
                         _______ _______ _______ _____ _____    ______ ____

>  <TORSDO>
F 9

$$$$
=
 OpenBabel11052409573D

 29 32  0  0  1  0  0  0  0  0999 V2000
  162.9170  207.3680  149.5730 O   0  0  0  0  0  1  0  0  0  0  0  0
  162.4570  206.4190  151.7320 C   0  0  0  0  0  2  0  0  0  0  0  0
  160.7340  207.5830  150.4240 N   0  0  0  0  0  2  0  0  0  0  0  0
  160.3160  206.3200  149.8090 C   0  0  0  0  0  2  0  0  0  0  0  0
  162.1680  207.5600  150.7460 C   0  0  2  0  0  0  0  0  0  0  0  0
  161.9920  205.0800  151.1650 C   0  0  0  0  0  2  0  0  0  0  0  0
  160.5170  205.1610  150.7820 C   0  0  2  0  0  3  0  0  0  0  0  0
  161.4220  209.4310  152.1080 N   0  0  0  0  0  0  0  0  0  0  0  0
  162.5220  208.8930  151.4340 C   0  0  2  0  0  3  0  0  0  0  0  0
  161.9810  210.0060  150.8010 C   0  0  0  0  0  0  0  0  0  0  0  0
  161.9510  210.8420  149.8600 O   0  0  0  0  0  0  0  0  0  0  0  0
  160.4460  209.4230  153.1840 C   0  0  0  0  0  2  0  0  0  0  0  0
  160.7350  208.2880  154.1500 C   0  0  0  0  0  2  0  0  0  0  0  0
  160.0730  207.7180  156.4120 N   0  0  0  0  0  1  0  0  0  0  0  0
  160.6260  208.7740  155.5830 C   0  0  0  0  0  2  0  0  0  0  0  0
  160.1040  203.9240  150.1390 N   0  0  0  0  0  2  0  0  0  0  0  0
  161.1770  201.7430  150.0160 C   0  0  0  0  0  1  0  0  0  0  0  0
  161.3040  203.2240  149.7050 C   0  0  1  0  0  3  0  0  0  0  0  0
  160.8480  202.4550  145.0490 O   0  0  0  0  0  0  0  0  0  0  0  0
  161.0960  202.6040  147.2730 N   0  0  0  0  0  0  0  0  0  0  0  0
  160.2300  201.2670  145.5710 C   0  0  0  0  0  3  0  0  0  0  0  0
  160.3650  201.3680  147.1200 C   0  0  0  0  0  3  0  0  0  0  0  0
  161.9090  204.3980  146.2740 C   0  0  0  0  0  0  0  0  0  0  0  0
  161.3150  203.1690  146.1230 C   0  0  0  0  0  0  0  0  0  0  0  0
  162.0290  204.5990  147.6550 C   0  0  0  0  0  3  0  0  0  0  0  0
  161.5080  203.4380  148.2410 C   0  0  0  0  0  0  0  0  0  0  0  0
  162.2730  205.3630  145.1960 C   0  0  0  0  0  2  0  0  0  0  0  0
  160.1490  206.2440  145.2270 N   0  0  0  0  0  1  0  0  0  0  0  0
  161.1110  205.6770  144.3800 N   0  0  0  0  0  2  0  0  0  0  0  0
  3  5  1  0  0  0  0
  4  3  1  0  0  0  0
  4  7  1  0  0  0  0
  5  1  1  6  0  0  0
  5  9  1  0  0  0  0
  5  2  1  0  0  0  0
  6  2  1  0  0  0  0
  7 16  1  6  0  0  0
  7  6  1  0  0  0  0
  8 12  1  0  0  0  0
  9 10  1  6  0  0  0
  9  8  1  0  0  0  0
 10  8  1  0  0  0  0
 11 10  2  0  0  0  0
 12 13  1  0  0  0  0
 13 15  1  0  0  0  0
 15 14  1  0  0  0  0
 18 17  1  6  0  0  0
 18 16  1  0  0  0  0
 19 21  1  0  0  0  0
 19 24  1  0  0  0  0
 20 26  1  0  0  0  0
 21 22  2  0  0  0  0
 22 20  1  0  0  0  0
 23 25  1  0  0  0  0
 24 23  2  0  0  0  0
 24 20  1  0  0  0  0
 25 26  2  0  0  0  0
 26 18  1  0  0  0  0
 27 23  1  0  0  0  0
 29 27  1  0  0  0  0
 29 28  1  0  0  0  0
M  END
>  <MODEL>
5

>  <REMARK>
 VINA RESULT:      -6.4      2.827      4.768
  Name = 
  9 active torsions:
  status: ('A' for Active; 'I' for Inactive)
    1  A    between atoms: C_1  and  N_6
    2  A    between atoms: C_1  and  C_23
    3  A    between atoms: C_2  and  C_16
    4  A    between atoms: C_2  and  N_27
    5  A    between atoms: CA_8  and  C_15
    6  A    between atoms: C_10  and  C_23
    7  A    between atoms: N_17  and  C_28
    8  A    between atoms: N_17  and  C_29
    9  A    between atoms: C_24  and  C_28
                            x       y       z     vdW  Elec       q    Type
                         _______ _______ _______ _____ _____    ______ ____

>  <TORSDO>
F 9

$$$$
=
 OpenBabel11052409573D

 29 32  0  0  1  0  0  0  0  0999 V2000
  160.0590  210.2120  153.0250 O   0  0  0  0  0  1  0  0  0  0  0  0
  162.2110  209.8470  152.0210 C   0  0  0  0  0  2  0  0  0  0  0  0
  161.2790  208.3180  153.7030 N   0  0  0  0  0  2  0  0  0  0  0  0
  160.6780  207.4930  152.6530 C   0  0  0  0  0  2  0  0  0  0  0  0
  161.3510  209.7260  153.2870 C   0  0  2  0  0  0  0  0  0  0  0  0
  161.6620  208.9630  150.9050 C   0  0  0  0  0  2  0  0  0  0  0  0
  161.5390  207.5220  151.3930 C   0  0  2  0  0  3  0  0  0  0  0  0
  161.7970  209.9490  155.6670 N   0  0  0  0  0  0  0  0  0  0  0  0
  162.0390  210.5200  154.4150 C   0  0  2  0  0  3  0  0  0  0  0  0
  161.1560  211.2590  155.1940 C   0  0  0  0  0  0  0  0  0  0  0  0
  160.3900  212.2420  155.3730 O   0  0  0  0  0  0  0  0  0  0  0  0
  161.9630  208.8920  156.6500 C   0  0  0  0  0  2  0  0  0  0  0  0
  160.6210  208.5160  157.2530 C   0  0  0  0  0  2  0  0  0  0  0  0
  159.1870  206.9440  156.0930 N   0  0  0  0  0  1  0  0  0  0  0  0
  160.3180  207.0530  156.9960 C   0  0  0  0  0  2  0  0  0  0  0  0
  160.9120  206.7050  150.3680 N   0  0  0  0  0  2  0  0  0  0  0  0
  160.4350  204.5450  151.3820 C   0  0  0  0  0  1  0  0  0  0  0  0
  161.3990  205.3420  150.5210 C   0  0  1  0  0  3  0  0  0  0  0  0
  161.0370  202.0070  147.1710 O   0  0  0  0  0  0  0  0  0  0  0  0
  161.2760  203.4270  148.8910 N   0  0  0  0  0  0  0  0  0  0  0  0
  160.6310  201.2590  148.3290 C   0  0  0  0  0  3  0  0  0  0  0  0
  160.7610  202.2410  149.5320 C   0  0  0  0  0  3  0  0  0  0  0  0
  161.7700  204.4210  146.9820 C   0  0  0  0  0  0  0  0  0  0  0  0
  161.3880  203.2590  147.6060 C   0  0  0  0  0  0  0  0  0  0  0  0
  161.8670  205.3860  147.9920 C   0  0  0  0  0  3  0  0  0  0  0  0
  161.5510  204.7100  149.1770 C   0  0  0  0  0  0  0  0  0  0  0  0
  161.9590  204.6380  145.5180 C   0  0  0  0  0  2  0  0  0  0  0  0
  160.2670  206.0910  144.9550 N   0  0  0  0  0  1  0  0  0  0  0  0
  160.6710  204.7540  144.8500 N   0  0  0  0  0  2  0  0  0  0  0  0
  2  5  1  0  0  0  0
  4  3  1  0  0  0  0
  5  1  1  6  0  0  0
  5  3  1  0  0  0  0
  5  9  1  0  0  0  0
  6  7  1  0  0  0  0
  6  2  1  0  0  0  0
  7 16  1  6  0  0  0
  7  4  1  0  0  0  0
  8 12  1  0  0  0  0
  9 10  1  1  0  0  0
  9  8  1  0  0  0  0
 10 11  2  0  0  0  0
 10  8  1  0  0  0  0
 12 13  1  0  0  0  0
 14 15  1  0  0  0  0
 15 13  1  0  0  0  0
 16 18  1  0  0  0  0
 18 17  1  1  0  0  0
 19 24  1  0  0  0  0
 19 21  1  0  0  0  0
 20 26  1  0  0  0  0
 20 22  1  0  0  0  0
 21 22  2  0  0  0  0
 23 24  2  0  0  0  0
 23 25  1  0  0  0  0
 24 20  1  0  0  0  0
 25 26  2  0  0  0  0
 26 18  1  0  0  0  0
 27 23  1  0  0  0  0
 29 28  1  0  0  0  0
 29 27  1  0  0  0  0
M  END
>  <MODEL>
6

>  <REMARK>
 VINA RESULT:      -6.4      2.118      3.534
  Name = 
  9 active torsions:
  status: ('A' for Active; 'I' for Inactive)
    1  A    between atoms: C_1  and  N_6
    2  A    between atoms: C_1  and  C_23
    3  A    between atoms: C_2  and  C_16
    4  A    between atoms: C_2  and  N_27
    5  A    between atoms: CA_8  and  C_15
    6  A    between atoms: C_10  and  C_23
    7  A    between atoms: N_17  and  C_28
    8  A    between atoms: N_17  and  C_29
    9  A    between atoms: C_24  and  C_28
                            x       y       z     vdW  Elec       q    Type
                         _______ _______ _______ _____ _____    ______ ____

>  <TORSDO>
F 9

$$$$
=
 OpenBabel11052409573D

 29 32  0  0  1  0  0  0  0  0999 V2000
  162.5400  210.3380  153.8290 O   0  0  0  0  0  1  0  0  0  0  0  0
  160.5550  208.9960  153.6490 C   0  0  0  0  0  2  0  0  0  0  0  0
  161.1710  210.6520  151.9420 N   0  0  0  0  0  2  0  0  0  0  0  0
  161.8970  209.6320  151.1820 C   0  0  0  0  0  2  0  0  0  0  0  0
  161.2080  210.3600  153.3820 C   0  0  2  0  0  0  0  0  0  0  0  0
  161.2380  207.8980  152.8390 C   0  0  0  0  0  2  0  0  0  0  0  0
  161.2380  208.2660  151.3580 C   0  0  2  0  0  3  0  0  0  0  0  0
  159.9870  211.0170  155.3780 N   0  0  0  0  0  0  0  0  0  0  0  0
  160.3830  211.4400  154.1080 C   0  0  2  0  0  3  0  0  0  0  0  0
  159.0270  211.1440  154.1890 C   0  0  0  0  0  0  0  0  0  0  0  0
  157.8820  211.0360  153.6780 O   0  0  0  0  0  0  0  0  0  0  0  0
  160.2680  210.6600  156.7590 C   0  0  0  0  0  2  0  0  0  0  0  0
  160.7620  209.2270  156.8430 C   0  0  0  0  0  2  0  0  0  0  0  0
  162.7950  210.5200  157.1080 N   0  0  0  0  0  1  0  0  0  0  0  0
  162.2210  209.1950  157.2560 C   0  0  0  0  0  2  0  0  0  0  0  0
  161.9880  207.2750  150.6030 N   0  0  0  0  0  2  0  0  0  0  0  0
  162.3360  208.2320  148.3920 C   0  0  0  0  0  1  0  0  0  0  0  0
  161.4940  207.2890  149.2340 C   0  0  1  0  0  3  0  0  0  0  0  0
  160.8110  202.6000  149.0590 O   0  0  0  0  0  0  0  0  0  0  0  0
  161.2070  204.7890  149.3450 N   0  0  0  0  0  0  0  0  0  0  0  0
  160.4720  202.8620  150.4310 C   0  0  0  0  0  3  0  0  0  0  0  0
  160.7120  204.3870  150.6400 C   0  0  0  0  0  3  0  0  0  0  0  0
  161.5850  204.1930  147.2520 C   0  0  0  0  0  0  0  0  0  0  0  0
  161.2220  203.7890  148.5140 C   0  0  0  0  0  0  0  0  0  0  0  0
  161.7780  205.5790  147.3330 C   0  0  0  0  0  3  0  0  0  0  0  0
  161.5330  205.9050  148.6730 C   0  0  0  0  0  0  0  0  0  0  0  0
  161.6720  203.3500  146.0250 C   0  0  0  0  0  2  0  0  0  0  0  0
  160.1620  204.1900  144.5070 N   0  0  0  0  0  1  0  0  0  0  0  0
  161.5250  204.1690  144.8320 N   0  0  0  0  0  2  0  0  0  0  0  0
  3  5  1  0  0  0  0
  4  7  1  0  0  0  0
  4  3  1  0  0  0  0
  5  2  1  0  0  0  0
  5  1  1  1  0  0  0
  5  9  1  0  0  0  0
  6  2  1  0  0  0  0
  7 16  1  6  0  0  0
  7  6  1  0  0  0  0
  8 12  1  0  0  0  0
  9 10  1  6  0  0  0
  9  8  1  0  0  0  0
 10  8  1  0  0  0  0
 11 10  2  0  0  0  0
 12 13  1  0  0  0  0
 13 15  1  0  0  0  0
 14 15  1  0  0  0  0
 18 17  1  6  0  0  0
 18 16  1  0  0  0  0
 19 21  1  0  0  0  0
 20 22  1  0  0  0  0
 21 22  2  0  0  0  0
 23 25  1  0  0  0  0
 23 24  2  0  0  0  0
 24 19  1  0  0  0  0
 24 20  1  0  0  0  0
 25 26  2  0  0  0  0
 26 18  1  0  0  0  0
 26 20  1  0  0  0  0
 27 23  1  0  0  0  0
 28 29  1  0  0  0  0
 29 27  1  0  0  0  0
M  END
>  <MODEL>
7

>  <REMARK>
 VINA RESULT:      -6.3      2.123      3.686
  Name = 
  9 active torsions:
  status: ('A' for Active; 'I' for Inactive)
    1  A    between atoms: C_1  and  N_6
    2  A    between atoms: C_1  and  C_23
    3  A    between atoms: C_2  and  C_16
    4  A    between atoms: C_2  and  N_27
    5  A    between atoms: CA_8  and  C_15
    6  A    between atoms: C_10  and  C_23
    7  A    between atoms: N_17  and  C_28
    8  A    between atoms: N_17  and  C_29
    9  A    between atoms: C_24  and  C_28
                            x       y       z     vdW  Elec       q    Type
                         _______ _______ _______ _____ _____    ______ ____

>  <TORSDO>
F 9

$$$$
=
 OpenBabel11052409573D

 29 32  0  0  1  0  0  0  0  0999 V2000
  160.0800  206.5680  146.4930 O   0  0  0  0  0  1  0  0  0  0  0  0
  160.8720  205.0520  148.1810 C   0  0  0  0  0  2  0  0  0  0  0  0
  162.3050  206.8010  147.2210 N   0  0  0  0  0  2  0  0  0  0  0  0
  161.9130  207.7350  148.2800 C   0  0  0  0  0  2  0  0  0  0  0  0
  161.2160  205.8600  146.9220 C   0  0  2  0  0  0  0  0  0  0  0  0
  160.5070  205.9770  149.3380 C   0  0  0  0  0  2  0  0  0  0  0  0
  161.6310  206.9810  149.5770 C   0  0  2  0  0  3  0  0  0  0  0  0
  161.5960  203.5530  146.2560 N   0  0  0  0  0  0  0  0  0  0  0  0
  161.7170  204.8820  145.8420 C   0  0  2  0  0  3  0  0  0  0  0  0
  162.9370  204.2890  146.1510 C   0  0  0  0  0  0  0  0  0  0  0  0
  164.1890  204.3270  146.2750 O   0  0  0  0  0  0  0  0  0  0  0  0
  160.8070  202.3810  146.5960 C   0  0  0  0  0  2  0  0  0  0  0  0
  161.4190  201.6600  147.7840 C   0  0  0  0  0  2  0  0  0  0  0  0
  160.8240  201.9730  150.1130 N   0  0  0  0  0  1  0  0  0  0  0  0
  160.3690  201.4170  148.8510 C   0  0  0  0  0  2  0  0  0  0  0  0
  161.2350  207.9320  150.6030 N   0  0  0  0  0  2  0  0  0  0  0  0
  162.4180  206.4590  152.1370 C   0  0  0  0  0  1  0  0  0  0  0  0
  161.1280  207.2120  151.8630 C   0  0  1  0  0  3  0  0  0  0  0  0
  160.3110  208.6990  156.2910 O   0  0  0  0  0  0  0  0  0  0  0  0
  160.5570  207.8330  154.2360 N   0  0  0  0  0  0  0  0  0  0  0  0
  160.2550  207.2750  156.4790 C   0  0  0  0  0  3  0  0  0  0  0  0
  160.4570  206.6540  155.0640 C   0  0  0  0  0  3  0  0  0  0  0  0
  160.7030  210.0350  154.1790 C   0  0  0  0  0  0  0  0  0  0  0  0
  160.4950  208.9180  154.9490 C   0  0  0  0  0  0  0  0  0  0  0  0
  160.9440  209.5670  152.8800 C   0  0  0  0  0  3  0  0  0  0  0  0
  160.8350  208.1740  152.9680 C   0  0  0  0  0  0  0  0  0  0  0  0
  160.7530  211.4530  154.6400 C   0  0  0  0  0  2  0  0  0  0  0  0
  159.0420  212.5280  153.5420 N   0  0  0  0  0  1  0  0  0  0  0  0
  159.4080  211.9900  154.7830 N   0  0  0  0  0  2  0  0  0  0  0  0
  2  6  1  0  0  0  0
  3  4  1  0  0  0  0
  4  7  1  0  0  0  0
  5  1  1  6  0  0  0
  5  3  1  0  0  0  0
  5  2  1  0  0  0  0
  6  7  1  0  0  0  0
  7 16  1  1  0  0  0
  8 12  1  0  0  0  0
  9 10  1  1  0  0  0
  9  8  1  0  0  0  0
  9  5  1  0  0  0  0
 10  8  1  0  0  0  0
 10 11  2  0  0  0  0
 12 13  1  0  0  0  0
 13 15  1  0  0  0  0
 15 14  1  0  0  0  0
 16 18  1  0  0  0  0
 18 17  1  1  0  0  0
 18 26  1  0  0  0  0
 19 21  1  0  0  0  0
 20 24  1  0  0  0  0
 20 22  1  0  0  0  0
 22 21  2  0  0  0  0
 23 27  1  0  0  0  0
 23 24  2  0  0  0  0
 24 19  1  0  0  0  0
 25 26  2  0  0  0  0
 25 23  1  0  0  0  0
 26 20  1  0  0  0  0
 27 29  1  0  0  0  0
 28 29  1  0  0  0  0
M  END
>  <MODEL>
8

>  <REMARK>
 VINA RESULT:      -6.3      1.778      9.286
  Name = 
  9 active torsions:
  status: ('A' for Active; 'I' for Inactive)
    1  A    between atoms: C_1  and  N_6
    2  A    between atoms: C_1  and  C_23
    3  A    between atoms: C_2  and  C_16
    4  A    between atoms: C_2  and  N_27
    5  A    between atoms: CA_8  and  C_15
    6  A    between atoms: C_10  and  C_23
    7  A    between atoms: N_17  and  C_28
    8  A    between atoms: N_17  and  C_29
    9  A    between atoms: C_24  and  C_28
                            x       y       z     vdW  Elec       q    Type
                         _______ _______ _______ _____ _____    ______ ____

>  <TORSDO>
F 9

$$$$
=
 OpenBabel11052409573D

 29 32  0  0  1  0  0  0  0  0999 V2000
  159.7050  204.0060  150.1090 O   0  0  0  0  0  1  0  0  0  0  0  0
  161.8050  204.5110  151.1640 C   0  0  0  0  0  2  0  0  0  0  0  0
  161.1630  205.4840  149.0020 N   0  0  0  0  0  2  0  0  0  0  0  0
  160.5760  206.6470  149.6740 C   0  0  0  0  0  2  0  0  0  0  0  0
  161.0570  204.2840  149.8430 C   0  0  2  0  0  0  0  0  0  0  0  0
  161.2700  205.7450  151.8860 C   0  0  0  0  0  2  0  0  0  0  0  0
  161.3350  206.9580  150.9620 C   0  0  2  0  0  3  0  0  0  0  0  0
  161.3580  203.0770  147.7530 N   0  0  0  0  0  0  0  0  0  0  0  0
  161.7390  203.1200  149.0960 C   0  0  2  0  0  3  0  0  0  0  0  0
  160.8800  202.0670  148.8030 C   0  0  0  0  0  0  0  0  0  0  0  0
  160.2020  201.0610  149.1400 O   0  0  0  0  0  0  0  0  0  0  0  0
  161.3530  203.6120  146.4020 C   0  0  0  0  0  2  0  0  0  0  0  0
  162.6200  204.4080  146.1450 C   0  0  0  0  0  2  0  0  0  0  0  0
  161.3680  205.4840  144.3700 N   0  0  0  0  0  1  0  0  0  0  0  0
  162.2880  205.7230  145.4670 C   0  0  0  0  0  2  0  0  0  0  0  0
  160.7220  208.1060  151.6100 N   0  0  0  0  0  2  0  0  0  0  0  0
  162.3610  209.9010  151.4950 C   0  0  0  0  0  1  0  0  0  0  0  0
  161.7580  208.8040  152.3560 C   0  0  1  0  0  3  0  0  0  0  0  0
  160.0390  208.8600  156.7740 O   0  0  0  0  0  0  0  0  0  0  0  0
  160.7270  208.6590  154.6490 N   0  0  0  0  0  0  0  0  0  0  0  0
  160.1120  207.4440  156.5400 C   0  0  0  0  0  3  0  0  0  0  0  0
  160.6190  207.2840  155.0760 C   0  0  0  0  0  3  0  0  0  0  0  0
  160.6330  210.7840  155.2420 C   0  0  0  0  0  0  0  0  0  0  0  0
  160.4230  209.4780  155.6120 C   0  0  0  0  0  0  0  0  0  0  0  0
  161.1420  210.7370  153.9380 C   0  0  0  0  0  3  0  0  0  0  0  0
  161.1760  209.3770  153.6070 C   0  0  0  0  0  0  0  0  0  0  0  0
  160.4450  212.0010  156.0840 C   0  0  0  0  0  2  0  0  0  0  0  0
  158.4060  213.0430  155.8700 N   0  0  0  0  0  1  0  0  0  0  0  0
  159.7070  213.0180  155.3510 N   0  0  0  0  0  2  0  0  0  0  0  0
  2  6  1  0  0  0  0
  3  4  1  0  0  0  0
  3  5  1  0  0  0  0
  4  7  1  0  0  0  0
  5  1  1  1  0  0  0
  5  2  1  0  0  0  0
  7 16  1  1  0  0  0
  7  6  1  0  0  0  0
  8 10  1  0  0  0  0
  8  9  1  0  0  0  0
  9 10  1  1  0  0  0
  9  5  1  0  0  0  0
 10 11  2  0  0  0  0
 12  8  1  0  0  0  0
 13 12  1  0  0  0  0
 14 15  1  0  0  0  0
 15 13  1  0  0  0  0
 16 18  1  0  0  0  0
 18 17  1  6  0  0  0
 18 26  1  0  0  0  0
 20 22  1  0  0  0  0
 20 24  1  0  0  0  0
 21 19  1  0  0  0  0
 22 21  2  0  0  0  0
 23 24  2  0  0  0  0
 23 27  1  0  0  0  0
 24 19  1  0  0  0  0
 25 23  1  0  0  0  0
 26 25  2  0  0  0  0
 26 20  1  0  0  0  0
 29 28  1  0  0  0  0
 29 27  1  0  0  0  0
M  END
>  <MODEL>
9

>  <REMARK>
 VINA RESULT:      -6.3      1.990      9.316
  Name = 
  9 active torsions:
  status: ('A' for Active; 'I' for Inactive)
    1  A    between atoms: C_1  and  N_6
    2  A    between atoms: C_1  and  C_23
    3  A    between atoms: C_2  and  C_16
    4  A    between atoms: C_2  and  N_27
    5  A    between atoms: CA_8  and  C_15
    6  A    between atoms: C_10  and  C_23
    7  A    between atoms: N_17  and  C_28
    8  A    between atoms: N_17  and  C_29
    9  A    between atoms: C_24  and  C_28
                            x       y       z     vdW  Elec       q    Type
                         _______ _______ _______ _____ _____    ______ ____

>  <TORSDO>
F 9

$$$$
