=
 OpenBabel11042422573D

 62 70  0  0  1  0  0  0  0  0999 V2000
  161.5640  211.8670  150.4520 C   0  0  0  0  0  0  0  0  0  0  0  0
  160.4580  210.8720  152.8280 C   0  0  0  0  0  0  0  0  0  0  0  0
  160.8440  205.9260  151.5750 C   0  0  0  0  0  0  0  0  0  0  0  0
  163.8970  209.7710  147.7900 O   0  0  0  0  0  0  0  0  0  0  0  0
  161.0350  207.2110  151.3860 C   0  0  0  0  0  0  0  0  0  0  0  0
  160.2230  205.0500  150.5260 C   0  0  1  0  0  3  0  0  0  0  0  0
  159.8410  213.2570  150.0480 N   0  0  0  0  0  0  0  0  0  0  0  0
  161.8540  208.3420  149.2680 C   0  0  0  0  0  0  0  0  0  0  0  0
  159.7950  207.0780  149.2780 O   0  0  0  0  0  0  0  0  0  0  0  0
  161.7080  212.3150  149.0790 C   0  0  0  0  0  0  0  0  0  0  0  0
  162.0790  210.8170  151.0040 N   0  0  0  0  0  0  0  0  0  0  0  0
  159.7920  212.1230  152.2660 C   0  0  0  0  0  2  0  0  0  0  0  0
  162.6540  211.7920  148.0300 C   0  0  0  0  0  2  0  0  0  0  0  0
  161.5330  210.2840  152.2250 C   0  0  0  0  0  0  0  0  0  0  0  0
  162.7990  210.3050  148.1040 C   0  0  0  0  0  0  0  0  0  0  0  0
  161.7190  209.5310  148.5460 O   0  0  0  0  0  0  0  0  0  0  0  0
  162.1860  209.0490  152.7730 C   0  0  0  0  0  2  0  0  0  0  0  0
  161.3570  207.8570  152.6180 N   0  0  0  0  0  0  0  0  0  0  0  0
  162.9340  207.6930  149.2660 O   0  0  0  0  0  0  0  0  0  0  0  0
  161.3720  206.8120  153.6390 C   0  0  0  0  0  3  0  0  0  0  0  0
  160.2970  205.7570  149.1670 C   0  0  0  0  0  2  0  0  0  0  0  0
  160.9790  205.5840  152.9490 N   0  0  0  0  0  0  0  0  0  0  0  0
  160.3810  212.4970  150.9440 C   0  0  0  0  0  0  0  0  0  0  0  0
  160.6780  213.1430  148.8800 C   0  0  0  0  0  0  0  0  0  0  0  0
  160.6790  207.8670  150.0660 C   0  0  1  0  0  3  0  0  0  0  0  0
  161.3080  201.5240  151.5930 C   0  0  0  0  0  2  0  0  0  0  0  0
  160.8300  203.6790  150.4730 C   0  0  0  0  0  0  0  0  0  0  0  0
  162.4830  201.3680  150.6270 C   0  0  0  0  0  2  0  0  0  0  0  0
  160.8130  202.9440  151.5930 C   0  0  0  0  0  3  0  0  0  0  0  0
  162.1530  201.9880  149.2970 C   0  0  0  0  0  3  0  0  0  0  0  0
  161.4080  203.1060  149.2250 C   0  0  0  0  0  0  0  0  0  0  0  0
  161.1650  203.7270  147.9930 O   0  0  0  0  0  0  0  0  0  0  0  0
  162.1110  204.5920  147.3720 C   0  0  0  0  0  2  0  0  0  0  0  0
  162.3420  204.1570  145.9390 C   0  0  0  0  0  2  0  0  0  0  0  0
  160.9970  204.7600  144.8810 P   0  0  2  0  0  0  0  0  0  0  0  0
  161.5900  205.3600  143.6230 O   0  0  0  0  0  0  0  0  0  0  0  0
  160.1080  205.9380  145.7070 O   0  0  0  0  0  1  0  0  0  0  0  0
  159.9870  203.4550  144.4880 O   0  0  0  0  0  0  0  0  0  0  0  0
  160.5800  202.3310  145.0680 C   0  0  2  0  0  3  0  0  0  0  0  0
  159.8520  201.1320  144.6700 C   0  0  0  0  0  2  0  0  0  0  0  0
  159.6240  201.7180  146.0010 N   0  0  0  0  0  2  0  0  0  0  0  0
  159.4560  209.8970  155.0200 N   0  0  0  0  0  0  0  0  0  0  0  0
  159.9020  210.3300  154.0430 C   0  0  0  0  0  0  0  0  0  0  0  0
  159.6720  212.8880  146.6650 C   0  0  0  0  0  3  0  0  0  0  0  0
  160.2870  213.6510  147.5620 C   0  0  0  0  0  3  0  0  0  0  0  0
  159.4010  213.3850  145.3070 C   0  0  0  0  0  0  0  0  0  0  0  0
  158.4080  214.1370  145.1080 O   0  0  0  0  0  0  0  0  0  0  0  0
  162.0090  212.4110  142.0510 C   0  0  0  0  0  3  0  0  0  0  0  0
  160.3100  213.0730  144.1880 C   0  0  0  0  0  0  0  0  0  0  0  0
  161.6810  213.3570  144.2620 C   0  0  0  0  0  3  0  0  0  0  0  0
  159.8000  212.4640  143.0320 C   0  0  0  0  0  3  0  0  0  0  0  0
  160.6430  212.1190  141.9650 C   0  0  0  0  0  0  0  0  0  0  0  0
  162.5270  213.0270  143.1960 C   0  0  0  0  0  3  0  0  0  0  0  0
  159.9640  212.6350  138.5100 C   0  0  0  0  0  2  0  0  0  0  0  0
  160.7850  211.0710  138.1230 S   0  0  0  0  0  0  0  0  0  0  0  0
  161.2210  210.8980  139.8750 C   0  0  1  0  0  3  0  0  0  0  0  0
  160.0960  211.4890  140.7130 C   0  0  2  0  0  3  0  0  0  0  0  0
  159.3020  212.4890  139.8650 C   0  0  2  0  0  3  0  0  0  0  0  0
  161.1360  208.7410  138.9830 C   0  0  0  0  0  1  0  0  0  0  0  0
  161.3830  209.4910  140.2030 N   0  0  0  0  0  2  0  0  0  0  0  0
  157.8580  212.0340  139.6920 C   0  0  0  0  0  2  0  0  0  0  0  0
  157.0280  213.1620  139.3020 N   0  0  0  0  0  1  0  0  0  0  0  0
  1 23  1  0  0  0  0
  1 11  2  0  0  0  0
  2 43  1  0  0  0  0
  3 22  1  0  0  0  0
  4 15  2  0  0  0  0
  5  3  2  0  0  0  0
  5 18  1  0  0  0  0
  6 27  1  6  0  0  0
  6  3  1  0  0  0  0
  7 23  2  0  0  0  0
  9 25  1  0  0  0  0
 10  1  1  0  0  0  0
 11 14  1  0  0  0  0
 12  2  1  0  0  0  0
 13 15  1  0  0  0  0
 13 10  1  0  0  0  0
 14 17  1  0  0  0  0
 14  2  2  0  0  0  0
 15 16  1  0  0  0  0
 16  8  1  0  0  0  0
 18 17  1  0  0  0  0
 18 20  1  0  0  0  0
 19  8  2  0  0  0  0
 21  9  1  0  0  0  0
 21  6  1  0  0  0  0
 22 20  2  0  0  0  0
 23 12  1  0  0  0  0
 24 10  2  0  0  0  0
 24  7  1  0  0  0  0
 25  8  1  6  0  0  0
 25  5  1  0  0  0  0
 26 29  1  0  0  0  0
 27 29  2  0  0  0  0
 28 26  1  0  0  0  0
 30 28  1  0  0  0  0
 31 30  2  0  0  0  0
 31 27  1  0  0  0  0
 32 31  1  0  0  0  0
 33 32  1  0  0  0  0
 34 33  1  0  0  0  0
 35 36  2  6  0  0  0
 35 37  1  0  0  0  0
 35 34  1  0  0  0  0
 38 35  1  0  0  0  0
 39 38  1  6  0  0  0
 39 41  1  0  0  0  0
 40 39  1  0  0  0  0
 40 41  1  0  0  0  0
 43 42  3  0  0  0  0
 44 45  2  0  0  0  0
 45 24  1  0  0  0  0
 46 44  1  0  0  0  0
 47 46  2  0  0  0  0
 48 53  1  0  0  0  0
 49 50  1  0  0  0  0
 49 46  1  0  0  0  0
 51 49  2  0  0  0  0
 52 48  2  0  0  0  0
 52 51  1  0  0  0  0
 53 50  2  0  0  0  0
 54 58  1  0  0  0  0
 55 54  1  0  0  0  0
 55 56  1  0  0  0  0
 56 60  1  1  0  0  0
 56 57  1  0  0  0  0
 57 52  1  1  0  0  0
 58 61  1  6  0  0  0
 58 57  1  0  0  0  0
 59 60  1  0  0  0  0
 62 61  1  0  0  0  0
M  END
>  <MODEL>
1

>  <REMARK>
 VINA RESULT:      -3.2      0.000      0.000
  Name = 
  14 active torsions:
  status: ('A' for Active; 'I' for Inactive)
    1  A    between atoms: P_1  and  O_6
    2  A    between atoms: P_1  and  C_60
    3  A    between atoms: O_6  and  C_15
    4  A    between atoms: C_8  and  C_10
    5  A    between atoms: C_9  and  C_11
    6  A    between atoms: C_11  and  C_14
    7  A    between atoms: C_18  and  C_26
    8  A    between atoms: O_29  and  C_44
    9  A    between atoms: O_29  and  C_61
   10  A    between atoms: C_30  and  C_55
   11  A    between atoms: C_36  and  N_49
   12  A    between atoms: C_43  and  C_47
   13  A    between atoms: C_44  and  C_60
   14  A    between atoms: C_57  and  C_58
                            x       y       z     vdW  Elec       q    Type
                         _______ _______ _______ _____ _____    ______ ____

>  <TORSDO>
F 14

$$$$
=
 OpenBabel11042422573D

 62 70  0  0  1  0  0  0  0  0999 V2000
  161.5800  211.3700  150.9720 C   0  0  0  0  0  0  0  0  0  0  0  0
  160.6550  209.9980  153.2350 C   0  0  0  0  0  0  0  0  0  0  0  0
  160.8390  205.3280  151.1500 C   0  0  0  0  0  0  0  0  0  0  0  0
  163.6410  209.7360  147.8100 O   0  0  0  0  0  0  0  0  0  0  0  0
  161.0380  206.6260  151.1620 C   0  0  0  0  0  0  0  0  0  0  0  0
  160.1160  204.6440  150.0270 C   0  0  1  0  0  3  0  0  0  0  0  0
  159.8560  212.8180  150.9520 N   0  0  0  0  0  0  0  0  0  0  0  0
  161.7010  208.0910  149.1990 C   0  0  0  0  0  0  0  0  0  0  0  0
  159.6250  206.8540  149.1740 O   0  0  0  0  0  0  0  0  0  0  0  0
  161.6180  212.0400  149.6850 C   0  0  0  0  0  0  0  0  0  0  0  0
  162.1170  210.2400  151.2960 N   0  0  0  0  0  0  0  0  0  0  0  0
  159.9690  211.3290  152.9470 C   0  0  0  0  0  2  0  0  0  0  0  0
  162.4620  211.6950  148.4880 C   0  0  0  0  0  2  0  0  0  0  0  0
  161.6640  209.5140  152.4530 C   0  0  0  0  0  0  0  0  0  0  0  0
  162.5840  210.2160  148.3000 C   0  0  0  0  0  0  0  0  0  0  0  0
  161.5290  209.3850  148.6980 O   0  0  0  0  0  0  0  0  0  0  0  0
  162.3370  208.2010  152.7310 C   0  0  0  0  0  2  0  0  0  0  0  0
  161.4740  207.0560  152.4520 N   0  0  0  0  0  0  0  0  0  0  0  0
  162.7640  207.4460  148.9970 O   0  0  0  0  0  0  0  0  0  0  0  0
  161.5530  205.8550  153.2790 C   0  0  0  0  0  3  0  0  0  0  0  0
  160.0900  205.5680  148.8030 C   0  0  0  0  0  2  0  0  0  0  0  0
  161.0810  204.7610  152.4310 N   0  0  0  0  0  0  0  0  0  0  0  0
  160.4540  211.9160  151.6610 C   0  0  0  0  0  0  0  0  0  0  0  0
  160.5900  212.8960  149.7150 C   0  0  0  0  0  0  0  0  0  0  0  0
  160.5870  207.4960  150.0040 C   0  0  1  0  0  3  0  0  0  0  0  0
  160.7370  200.8550  150.0910 C   0  0  0  0  0  2  0  0  0  0  0  0
  160.6890  203.2980  149.6960 C   0  0  0  0  0  0  0  0  0  0  0  0
  162.1670  200.8710  149.5480 C   0  0  0  0  0  2  0  0  0  0  0  0
  160.2880  202.2500  150.4270 C   0  0  0  0  0  3  0  0  0  0  0  0
  162.3110  201.9230  148.4830 C   0  0  0  0  0  3  0  0  0  0  0  0
  161.6470  203.0890  148.5730 C   0  0  0  0  0  0  0  0  0  0  0  0
  161.8410  204.0990  147.6220 O   0  0  0  0  0  0  0  0  0  0  0  0
  162.9240  204.0830  146.6970 C   0  0  0  0  0  2  0  0  0  0  0  0
  162.7690  205.2180  145.7060 C   0  0  0  0  0  2  0  0  0  0  0  0
  161.1020  205.1970  144.9910 P   0  0  2  0  0  0  0  0  0  0  0  0
  161.2130  205.0920  143.4840 O   0  0  0  0  0  0  0  0  0  0  0  0
  160.2880  206.6210  145.4020 O   0  0  0  0  0  1  0  0  0  0  0  0
  160.2610  203.8600  145.6110 O   0  0  0  0  0  0  0  0  0  0  0  0
  160.5720  202.7930  144.7650 C   0  0  2  0  0  3  0  0  0  0  0  0
  159.4050  201.9320  144.6140 C   0  0  0  0  0  2  0  0  0  0  0  0
  160.4890  201.5410  145.5290 N   0  0  0  0  0  2  0  0  0  0  0  0
  159.8180  208.6750  155.3100 N   0  0  0  0  0  0  0  0  0  0  0  0
  160.1920  209.2630  154.3860 C   0  0  0  0  0  0  0  0  0  0  0  0
  159.7740  212.9960  147.4120 C   0  0  0  0  0  3  0  0  0  0  0  0
  160.1020  213.6190  148.5370 C   0  0  0  0  0  3  0  0  0  0  0  0
  159.4040  213.7530  146.2070 C   0  0  0  0  0  0  0  0  0  0  0  0
  158.2800  214.3260  146.1540 O   0  0  0  0  0  0  0  0  0  0  0  0
  162.1330  214.1470  142.9280 C   0  0  0  0  0  3  0  0  0  0  0  0
  160.3510  213.9120  145.0860 C   0  0  0  0  0  0  0  0  0  0  0  0
  161.6700  214.3360  145.3030 C   0  0  0  0  0  3  0  0  0  0  0  0
  159.9340  213.6170  143.7810 C   0  0  0  0  0  3  0  0  0  0  0  0
  160.8200  213.7190  142.6980 C   0  0  0  0  0  0  0  0  0  0  0  0
  162.5570  214.4530  144.2260 C   0  0  0  0  0  3  0  0  0  0  0  0
  160.4200  211.1780  140.2390 C   0  0  0  0  0  2  0  0  0  0  0  0
  158.7300  211.7460  139.9390 S   0  0  0  0  0  0  0  0  0  0  0  0
  158.9250  212.9490  141.2810 C   0  0  1  0  0  3  0  0  0  0  0  0
  160.3690  213.4300  141.2920 C   0  0  2  0  0  3  0  0  0  0  0  0
  161.2570  212.3870  140.6060 C   0  0  2  0  0  3  0  0  0  0  0  0
  157.0600  213.6630  140.0690 C   0  0  0  0  0  1  0  0  0  0  0  0
  158.0390  214.0800  141.0580 N   0  0  0  0  0  2  0  0  0  0  0  0
  161.9140  212.9630  139.3570 C   0  0  0  0  0  2  0  0  0  0  0  0
  163.3030  212.5410  139.2890 N   0  0  0  0  0  1  0  0  0  0  0  0
  1 11  2  0  0  0  0
  1 23  1  0  0  0  0
  2 43  1  0  0  0  0
  3  5  2  0  0  0  0
  3 22  1  0  0  0  0
  4 15  2  0  0  0  0
  5 18  1  0  0  0  0
  6 27  1  6  0  0  0
  6  3  1  0  0  0  0
  7 23  2  0  0  0  0
  8 25  1  0  0  0  0
 10 24  2  0  0  0  0
 10  1  1  0  0  0  0
 11 14  1  0  0  0  0
 12  2  1  0  0  0  0
 13 10  1  0  0  0  0
 14 17  1  0  0  0  0
 14  2  2  0  0  0  0
 15 13  1  0  0  0  0
 15 16  1  0  0  0  0
 16  8  1  0  0  0  0
 18 17  1  0  0  0  0
 18 20  1  0  0  0  0
 19  8  2  0  0  0  0
 21  9  1  0  0  0  0
 21  6  1  0  0  0  0
 22 20  2  0  0  0  0
 23 12  1  0  0  0  0
 24  7  1  0  0  0  0
 25  9  1  6  0  0  0
 25  5  1  0  0  0  0
 26 29  1  0  0  0  0
 27 29  2  0  0  0  0
 28 26  1  0  0  0  0
 30 31  2  0  0  0  0
 30 28  1  0  0  0  0
 31 27  1  0  0  0  0
 32 31  1  0  0  0  0
 33 32  1  0  0  0  0
 34 33  1  0  0  0  0
 35 36  2  6  0  0  0
 35 37  1  0  0  0  0
 35 38  1  0  0  0  0
 35 34  1  0  0  0  0
 39 41  1  0  0  0  0
 39 38  1  1  0  0  0
 40 39  1  0  0  0  0
 40 41  1  0  0  0  0
 43 42  3  0  0  0  0
 44 45  2  0  0  0  0
 45 24  1  0  0  0  0
 46 44  1  0  0  0  0
 47 46  2  0  0  0  0
 48 53  1  0  0  0  0
 49 50  1  0  0  0  0
 49 46  1  0  0  0  0
 51 49  2  0  0  0  0
 52 48  2  0  0  0  0
 52 51  1  0  0  0  0
 53 50  2  0  0  0  0
 54 58  1  0  0  0  0
 55 54  1  0  0  0  0
 55 56  1  0  0  0  0
 56 60  1  6  0  0  0
 56 57  1  0  0  0  0
 57 52  1  1  0  0  0
 58 61  1  6  0  0  0
 58 57  1  0  0  0  0
 59 60  1  0  0  0  0
 62 61  1  0  0  0  0
M  END
>  <MODEL>
2

>  <REMARK>
 VINA RESULT:      -3.0      1.216      1.872
  Name = 
  14 active torsions:
  status: ('A' for Active; 'I' for Inactive)
    1  A    between atoms: P_1  and  O_6
    2  A    between atoms: P_1  and  C_60
    3  A    between atoms: O_6  and  C_15
    4  A    between atoms: C_8  and  C_10
    5  A    between atoms: C_9  and  C_11
    6  A    between atoms: C_11  and  C_14
    7  A    between atoms: C_18  and  C_26
    8  A    between atoms: O_29  and  C_44
    9  A    between atoms: O_29  and  C_61
   10  A    between atoms: C_30  and  C_55
   11  A    between atoms: C_36  and  N_49
   12  A    between atoms: C_43  and  C_47
   13  A    between atoms: C_44  and  C_60
   14  A    between atoms: C_57  and  C_58
                            x       y       z     vdW  Elec       q    Type
                         _______ _______ _______ _____ _____    ______ ____

>  <TORSDO>
F 14

$$$$
=
 OpenBabel11042422573D

 62 70  0  0  1  0  0  0  0  0999 V2000
  161.3240  211.7720  150.3700 C   0  0  0  0  0  0  0  0  0  0  0  0
  160.2020  210.9070  152.7890 C   0  0  0  0  0  0  0  0  0  0  0  0
  160.9270  205.9090  151.9650 C   0  0  0  0  0  0  0  0  0  0  0  0
  163.8640  209.6180  147.9580 O   0  0  0  0  0  0  0  0  0  0  0  0
  161.0460  207.1840  151.6750 C   0  0  0  0  0  0  0  0  0  0  0  0
  160.3950  204.9140  150.9760 C   0  0  1  0  0  3  0  0  0  0  0  0
  159.5340  213.0140  149.8040 N   0  0  0  0  0  0  0  0  0  0  0  0
  161.8650  208.1880  149.4930 C   0  0  0  0  0  0  0  0  0  0  0  0
  159.8860  206.8020  149.5510 O   0  0  0  0  0  0  0  0  0  0  0  0
  161.4850  212.1150  148.9690 C   0  0  0  0  0  0  0  0  0  0  0  0
  161.8820  210.8060  151.0220 N   0  0  0  0  0  0  0  0  0  0  0  0
  159.4810  212.0640  152.1070 C   0  0  0  0  0  3  0  0  0  0  0  0
  162.4940  211.5690  147.9940 C   0  0  0  0  0  2  0  0  0  0  0  0
  161.3300  210.3410  152.2670 C   0  0  0  0  0  0  0  0  0  0  0  0
  162.7270  210.1050  148.1960 C   0  0  0  0  0  0  0  0  0  0  0  0
  161.6810  209.3040  148.6700 O   0  0  0  0  0  0  0  0  0  0  0  0
  162.0380  209.1980  152.9350 C   0  0  0  0  0  2  0  0  0  0  0  0
  161.2880  207.9480  152.8570 N   0  0  0  0  0  0  0  0  0  0  0  0
  162.9810  207.6110  149.5750 O   0  0  0  0  0  0  0  0  0  0  0  0
  161.3320  206.9920  153.9610 C   0  0  0  0  0  3  0  0  0  0  0  0
  160.4700  205.5110  149.5650 C   0  0  0  0  0  2  0  0  0  0  0  0
  161.0380  205.6890  153.3650 N   0  0  0  0  0  0  0  0  0  0  0  0
  160.0890  212.3650  150.7750 C   0  0  1  0  0  3  0  0  0  0  0  0
  160.4130  212.8580  148.6740 C   0  0  0  0  0  0  0  0  0  0  0  0
  160.6950  207.7070  150.2950 C   0  0  1  0  0  3  0  0  0  0  0  0
  162.6980  202.0920  152.1950 C   0  0  0  0  0  2  0  0  0  0  0  0
  161.0850  203.5840  151.0540 C   0  0  0  0  0  0  0  0  0  0  0  0
  162.8410  201.3530  150.8630 C   0  0  0  0  0  2  0  0  0  0  0  0
  162.0340  203.4250  151.9860 C   0  0  0  0  0  3  0  0  0  0  0  0
  161.5380  201.3700  150.1120 C   0  0  0  0  0  3  0  0  0  0  0  0
  160.7270  202.4410  150.1660 C   0  0  0  0  0  0  0  0  0  0  0  0
  159.5510  202.4890  149.4050 O   0  0  0  0  0  0  0  0  0  0  0  0
  159.0700  201.3680  148.6700 C   0  0  0  0  0  2  0  0  0  0  0  0
  158.9310  201.7370  147.2060 C   0  0  0  0  0  2  0  0  0  0  0  0
  160.5530  201.6820  146.3950 P   0  0  2  0  0  0  0  0  0  0  0  0
  160.3530  201.6540  144.8940 O   0  0  0  0  0  0  0  0  0  0  0  0
  161.3860  200.2940  146.8810 O   0  0  0  0  0  1  0  0  0  0  0  0
  161.4320  203.0620  146.8440 O   0  0  0  0  0  0  0  0  0  0  0  0
  161.6520  203.7710  145.6600 C   0  0  2  0  0  3  0  0  0  0  0  0
  162.8070  204.6460  145.8210 C   0  0  0  0  0  2  0  0  0  0  0  0
  161.4490  205.2030  145.9190 N   0  0  0  0  0  2  0  0  0  0  0  0
  159.1890  210.0520  155.0260 N   0  0  0  0  0  0  0  0  0  0  0  0
  159.6410  210.4320  154.0300 C   0  0  0  0  0  0  0  0  0  0  0  0
  159.6290  212.3340  146.4170 C   0  0  0  0  0  3  0  0  0  0  0  0
  160.0360  213.2320  147.3070 C   0  0  0  0  0  3  0  0  0  0  0  0
  159.3740  212.7150  145.0200 C   0  0  0  0  0  0  0  0  0  0  0  0
  158.2570  213.2120  144.7050 O   0  0  0  0  0  0  0  0  0  0  0  0
  162.4050  212.2800  142.0240 C   0  0  0  0  0  3  0  0  0  0  0  0
  160.4250  212.5890  143.9930 C   0  0  0  0  0  0  0  0  0  0  0  0
  161.7440  212.9930  144.2470 C   0  0  0  0  0  3  0  0  0  0  0  0
  160.1090  212.0400  142.7420 C   0  0  0  0  0  3  0  0  0  0  0  0
  161.0930  211.8700  141.7570 C   0  0  0  0  0  0  0  0  0  0  0  0
  162.7300  212.8380  143.2660 C   0  0  0  0  0  3  0  0  0  0  0  0
  161.3120  212.4040  138.2450 C   0  0  0  0  0  2  0  0  0  0  0  0
  161.9370  210.7200  138.0360 S   0  0  0  0  0  0  0  0  0  0  0  0
  161.9300  210.5230  139.8390 C   0  0  1  0  0  3  0  0  0  0  0  0
  160.7530  211.3060  140.4050 C   0  0  2  0  0  3  0  0  0  0  0  0
  160.3440  212.3970  139.4110 C   0  0  2  0  0  3  0  0  0  0  0  0
  160.9620  208.5140  139.1420 C   0  0  0  0  0  1  0  0  0  0  0  0
  161.7850  209.1160  140.1770 N   0  0  0  0  0  2  0  0  0  0  0  0
  158.9230  212.1740  138.9060 C   0  0  0  0  0  2  0  0  0  0  0  0
  158.3450  211.0090  139.5560 N   0  0  0  0  0  1  0  0  0  0  0  0
  1 23  1  0  0  0  0
  1 11  1  0  0  0  0
  2 43  1  0  0  0  0
  3 22  1  0  0  0  0
  4 15  2  0  0  0  0
  5  3  2  0  0  0  0
  5 18  1  0  0  0  0
  6 27  1  6  0  0  0
  6  3  1  0  0  0  0
  7 23  1  0  0  0  0
  8 19  2  0  0  0  0
  9 21  1  0  0  0  0
  9 25  1  0  0  0  0
 10  1  2  0  0  0  0
 11 14  2  0  0  0  0
 12  2  2  0  0  0  0
 13 15  1  0  0  0  0
 13 10  1  0  0  0  0
 14  2  1  0  0  0  0
 14 17  1  0  0  0  0
 15 16  1  0  0  0  0
 16  8  1  0  0  0  0
 18 17  1  0  0  0  0
 18 20  1  0  0  0  0
 21  6  1  0  0  0  0
 22 20  2  0  0  0  0
 23 12  1  6  0  0  0
 24 10  1  0  0  0  0
 24  7  2  0  0  0  0
 25  8  1  6  0  0  0
 25  5  1  0  0  0  0
 27 29  2  0  0  0  0
 28 26  1  0  0  0  0
 29 26  1  0  0  0  0
 30 31  2  0  0  0  0
 30 28  1  0  0  0  0
 31 27  1  0  0  0  0
 32 31  1  0  0  0  0
 33 32  1  0  0  0  0
 34 33  1  0  0  0  0
 35 36  2  6  0  0  0
 35 38  1  0  0  0  0
 35 37  1  0  0  0  0
 35 34  1  0  0  0  0
 39 40  1  0  0  0  0
 39 41  1  0  0  0  0
 39 38  1  1  0  0  0
 40 41  1  0  0  0  0
 43 42  3  0  0  0  0
 44 45  2  0  0  0  0
 45 24  1  0  0  0  0
 46 44  1  0  0  0  0
 47 46  2  0  0  0  0
 48 53  1  0  0  0  0
 49 50  1  0  0  0  0
 49 46  1  0  0  0  0
 51 49  2  0  0  0  0
 52 48  2  0  0  0  0
 52 51  1  0  0  0  0
 53 50  2  0  0  0  0
 54 58  1  0  0  0  0
 55 54  1  0  0  0  0
 55 56  1  0  0  0  0
 56 60  1  6  0  0  0
 56 57  1  0  0  0  0
 57 52  1  1  0  0  0
 58 61  1  6  0  0  0
 58 57  1  0  0  0  0
 59 60  1  0  0  0  0
 61 62  1  0  0  0  0
M  END
>  <MODEL>
3

>  <REMARK>
 VINA RESULT:      -2.9      1.278      1.746
  Name = 
  14 active torsions:
  status: ('A' for Active; 'I' for Inactive)
    1  A    between atoms: P_1  and  O_6
    2  A    between atoms: P_1  and  C_60
    3  A    between atoms: O_6  and  C_15
    4  A    between atoms: C_8  and  C_10
    5  A    between atoms: C_9  and  C_11
    6  A    between atoms: C_11  and  C_14
    7  A    between atoms: C_18  and  C_26
    8  A    between atoms: O_29  and  C_44
    9  A    between atoms: O_29  and  C_61
   10  A    between atoms: C_30  and  C_55
   11  A    between atoms: C_36  and  N_49
   12  A    between atoms: C_43  and  C_47
   13  A    between atoms: C_44  and  C_60
   14  A    between atoms: C_57  and  C_58
                            x       y       z     vdW  Elec       q    Type
                         _______ _______ _______ _____ _____    ______ ____

>  <TORSDO>
F 14

$$$$
=
 OpenBabel11042422573D

 62 70  0  0  1  0  0  0  0  0999 V2000
  159.4280  213.9740  147.4090 C   0  0  0  0  0  0  0  0  0  0  0  0
  157.1800  213.8830  149.0820 C   0  0  0  0  0  0  0  0  0  0  0  0
  159.5170  211.5660  153.0010 C   0  0  0  0  0  0  0  0  0  0  0  0
  163.3530  213.6200  148.5850 O   0  0  0  0  0  0  0  0  0  0  0  0
  159.4780  212.1400  151.8210 C   0  0  0  0  0  0  0  0  0  0  0  0
  160.1430  210.2180  153.2100 C   0  0  1  0  0  3  0  0  0  0  0  0
  158.3690  213.0080  145.6730 N   0  0  0  0  0  0  0  0  0  0  0  0
  161.3230  212.1910  150.0810 C   0  0  0  0  0  0  0  0  0  0  0  0
  160.3630  210.0950  150.8040 O   0  0  0  0  0  0  0  0  0  0  0  0
  160.4560  213.5930  146.4580 C   0  0  0  0  0  0  0  0  0  0  0  0
  159.5630  214.2170  148.6710 N   0  0  0  0  0  0  0  0  0  0  0  0
  156.9140  213.5990  147.6080 C   0  0  0  0  0  3  0  0  0  0  0  0
  161.9480  213.5960  146.6590 C   0  0  0  0  0  2  0  0  0  0  0  0
  158.4270  214.1790  149.5540 C   0  0  0  0  0  0  0  0  0  0  0  0
  162.3250  213.1430  148.0330 C   0  0  0  0  0  0  0  0  0  0  0  0
  161.5150  212.2130  148.6950 O   0  0  0  0  0  0  0  0  0  0  0  0
  158.6920  214.4530  151.0060 C   0  0  0  0  0  2  0  0  0  0  0  0
  158.5850  213.2550  151.8340 N   0  0  0  0  0  0  0  0  0  0  0  0
  162.1300  212.7610  150.8620 O   0  0  0  0  0  0  0  0  0  0  0  0
  158.0600  213.3440  153.1950 C   0  0  0  0  0  3  0  0  0  0  0  0
  161.0580  209.8940  152.0220 C   0  0  0  0  0  2  0  0  0  0  0  0
  158.6330  212.2060  153.9120 N   0  0  0  0  0  0  0  0  0  0  0  0
  158.1900  213.5570  146.8300 C   0  0  1  0  0  3  0  0  0  0  0  0
  159.7900  213.0350  145.4410 C   0  0  0  0  0  0  0  0  0  0  0  0
  160.1140  211.4840  150.6110 C   0  0  1  0  0  3  0  0  0  0  0  0
  161.8270  211.2090  156.5160 C   0  0  0  0  0  2  0  0  0  0  0  0
  160.8700  210.1060  154.5180 C   0  0  0  0  0  0  0  0  0  0  0  0
  162.7590  210.0030  156.6430 C   0  0  0  0  0  2  0  0  0  0  0  0
  161.1910  211.2400  155.1540 C   0  0  0  0  0  3  0  0  0  0  0  0
  162.0660  208.7540  156.1710 C   0  0  0  0  0  3  0  0  0  0  0  0
  161.2060  208.7930  155.1380 C   0  0  0  0  0  0  0  0  0  0  0  0
  160.6200  207.6180  154.6490 O   0  0  0  0  0  0  0  0  0  0  0  0
  161.3850  206.5610  154.0770 C   0  0  0  0  0  2  0  0  0  0  0  0
  160.5570  205.8320  153.0390 C   0  0  0  0  0  2  0  0  0  0  0  0
  161.5250  205.6000  151.5210 P   0  0  2  0  0  0  0  0  0  0  0  0
  161.4310  204.1510  151.0930 O   0  0  0  0  0  0  0  0  0  0  0  0
  163.1410  206.0020  151.8110 O   0  0  0  0  0  1  0  0  0  0  0  0
  160.8930  206.6110  150.3140 O   0  0  0  0  0  0  0  0  0  0  0  0
  161.9230  206.7770  149.3850 C   0  0  2  0  0  3  0  0  0  0  0  0
  161.5350  207.7780  148.3970 C   0  0  0  0  0  2  0  0  0  0  0  0
  161.4440  206.3480  148.0630 N   0  0  0  0  0  2  0  0  0  0  0  0
  155.1340  213.7880  150.6830 N   0  0  0  0  0  0  0  0  0  0  0  0
  156.0450  213.8310  149.9700 C   0  0  0  0  0  0  0  0  0  0  0  0
  160.4530  212.7370  143.1050 C   0  0  0  0  0  3  0  0  0  0  0  0
  160.4390  212.2920  144.3560 C   0  0  0  0  0  3  0  0  0  0  0  0
  161.0030  211.9160  142.0160 C   0  0  0  0  0  0  0  0  0  0  0  0
  161.9570  211.1250  142.2550 O   0  0  0  0  0  0  0  0  0  0  0  0
  159.2370  211.9890  138.1140 C   0  0  0  0  0  3  0  0  0  0  0  0
  160.4150  211.9540  140.6630 C   0  0  0  0  0  0  0  0  0  0  0  0
  161.1780  211.6440  139.5280 C   0  0  0  0  0  3  0  0  0  0  0  0
  159.0630  212.2890  140.5060 C   0  0  0  0  0  3  0  0  0  0  0  0
  158.4630  212.2970  139.2380 C   0  0  0  0  0  0  0  0  0  0  0  0
  160.5900  211.6610  138.2580 C   0  0  0  0  0  3  0  0  0  0  0  0
  155.1170  211.0860  139.1820 C   0  0  0  0  0  2  0  0  0  0  0  0
  154.6260  212.4110  140.3100 S   0  0  0  0  0  0  0  0  0  0  0  0
  156.3610  212.9280  140.4130 C   0  0  1  0  0  3  0  0  0  0  0  0
  157.0190  212.6820  139.0620 C   0  0  2  0  0  3  0  0  0  0  0  0
  156.2270  211.6160  138.2980 C   0  0  2  0  0  3  0  0  0  0  0  0
  156.8940  214.4410  142.1110 C   0  0  0  0  0  1  0  0  0  0  0  0
  156.4320  214.3440  140.7370 N   0  0  0  0  0  2  0  0  0  0  0  0
  155.6410  212.1870  137.0120 C   0  0  0  0  0  2  0  0  0  0  0  0
  155.1190  213.5210  137.2560 N   0  0  0  0  0  1  0  0  0  0  0  0
  1 11  1  0  0  0  0
  2 14  1  0  0  0  0
  2 43  1  0  0  0  0
  3  6  1  0  0  0  0
  3 22  1  0  0  0  0
  5 18  1  0  0  0  0
  5  3  2  0  0  0  0
  6 27  1  1  0  0  0
  7 23  1  0  0  0  0
  8 19  2  0  0  0  0
  9 21  1  0  0  0  0
 10 13  1  0  0  0  0
 10  1  2  0  0  0  0
 11 14  2  0  0  0  0
 12  2  2  0  0  0  0
 13 15  1  0  0  0  0
 14 17  1  0  0  0  0
 15  4  2  0  0  0  0
 15 16  1  0  0  0  0
 16  8  1  0  0  0  0
 17 18  1  0  0  0  0
 18 20  1  0  0  0  0
 20 22  2  0  0  0  0
 21  6  1  0  0  0  0
 23  1  1  0  0  0  0
 23 12  1  1  0  0  0
 24  7  2  0  0  0  0
 24 10  1  0  0  0  0
 25  8  1  1  0  0  0
 25  9  1  0  0  0  0
 25  5  1  0  0  0  0
 26 28  1  0  0  0  0
 27 31  1  0  0  0  0
 27 29  2  0  0  0  0
 29 26  1  0  0  0  0
 30 28  1  0  0  0  0
 31 30  2  0  0  0  0
 32 31  1  0  0  0  0
 33 32  1  0  0  0  0
 34 33  1  0  0  0  0
 35 36  2  6  0  0  0
 35 37  1  0  0  0  0
 35 34  1  0  0  0  0
 38 35  1  0  0  0  0
 39 38  1  1  0  0  0
 40 39  1  0  0  0  0
 41 40  1  0  0  0  0
 41 39  1  0  0  0  0
 43 42  3  0  0  0  0
 44 45  2  0  0  0  0
 45 24  1  0  0  0  0
 46 47  2  0  0  0  0
 46 44  1  0  0  0  0
 48 53  2  0  0  0  0
 48 52  1  0  0  0  0
 49 46  1  0  0  0  0
 50 49  2  0  0  0  0
 51 49  1  0  0  0  0
 52 51  2  0  0  0  0
 53 50  1  0  0  0  0
 54 55  1  0  0  0  0
 55 56  1  0  0  0  0
 56 60  1  6  0  0  0
 57 52  1  1  0  0  0
 57 56  1  0  0  0  0
 58 61  1  6  0  0  0
 58 57  1  0  0  0  0
 58 54  1  0  0  0  0
 60 59  1  0  0  0  0
 61 62  1  0  0  0  0
M  END
>  <MODEL>
4

>  <REMARK>
 VINA RESULT:      -2.0      3.400      5.920
  Name = 
  14 active torsions:
  status: ('A' for Active; 'I' for Inactive)
    1  A    between atoms: P_1  and  O_6
    2  A    between atoms: P_1  and  C_60
    3  A    between atoms: O_6  and  C_15
    4  A    between atoms: C_8  and  C_10
    5  A    between atoms: C_9  and  C_11
    6  A    between atoms: C_11  and  C_14
    7  A    between atoms: C_18  and  C_26
    8  A    between atoms: O_29  and  C_44
    9  A    between atoms: O_29  and  C_61
   10  A    between atoms: C_30  and  C_55
   11  A    between atoms: C_36  and  N_49
   12  A    between atoms: C_43  and  C_47
   13  A    between atoms: C_44  and  C_60
   14  A    between atoms: C_57  and  C_58
                            x       y       z     vdW  Elec       q    Type
                         _______ _______ _______ _____ _____    ______ ____

>  <TORSDO>
F 14

$$$$
