=
 OpenBabel11042422593D

 32 35  0  0  1  0  0  0  0  0999 V2000
  161.8530  204.8260  148.1020 N   0  0  0  0  0  0  0  0  0  0  0  0
  161.2390  207.0720  147.8230 C   0  0  0  0  0  2  0  0  0  0  0  0
  161.5490  209.8910  152.2910 C   0  0  0  0  0  0  0  0  0  0  0  0
  160.8410  207.8390  153.6660 C   0  0  0  0  0  0  0  0  0  0  0  0
  162.2260  206.3470  151.7650 N   0  0  0  0  0  0  0  0  0  0  0  0
  161.6770  205.7730  147.2410 C   0  0  0  0  0  0  0  0  0  0  0  0
  160.2630  208.3820  154.7320 C   0  0  0  0  0  3  0  0  0  0  0  0
  161.7660  207.6270  151.3850 C   0  0  1  0  0  3  0  0  0  0  0  0
  161.6040  205.3220  149.4460 C   0  0  1  0  0  3  0  0  0  0  0  0
  161.2060  207.7600  150.2130 N   0  0  0  0  0  2  0  0  0  0  0  0
  161.6480  205.7180  152.7240 C   0  0  0  0  0  0  0  0  0  0  0  0
  162.1720  210.3530  151.0920 N   0  0  0  0  0  1  0  0  0  0  0  0
  160.4220  210.8640  154.4410 C   0  0  0  0  0  3  0  0  0  0  0  0
  161.1630  210.9020  153.2240 N   0  0  0  0  0  2  0  0  0  0  0  0
  160.9030  206.4300  153.6740 O   0  0  0  0  0  0  0  0  0  0  0  0
  160.0280  209.7780  155.0820 C   0  0  0  0  0  3  0  0  0  0  0  0
  160.8980  206.6770  149.2490 C   0  0  1  0  0  3  0  0  0  0  0  0
  160.8170  204.4040  150.3060 N   0  0  0  0  0  0  0  0  0  0  0  0
  161.7320  203.6960  151.2150 C   0  0  0  0  0  2  0  0  0  0  0  0
  161.3900  208.5600  152.4710 C   0  0  0  0  0  0  0  0  0  0  0  0
  161.6480  204.2220  152.6750 C   0  0  0  0  0  2  0  0  0  0  0  0
  161.2920  205.5410  143.4960 C   0  0  0  0  0  1  0  0  0  0  0  0
  161.8640  205.5980  145.8310 N   0  0  0  0  0  0  0  0  0  0  0  0
  159.6810  206.1220  145.2480 F   0  0  0  0  0  0  0  0  0  0  0  0
  160.9480  205.7590  144.9240 C   0  0  0  0  0  0  0  0  0  0  0  0
  160.0820  203.4000  149.5420 C   0  0  0  0  0  2  0  0  0  0  0  0
  160.2620  202.0340  150.1770 C   0  0  0  0  0  2  0  0  0  0  0  0
  161.1600  200.9330  149.0450 S   0  0  0  0  0  0  0  0  0  0  0  0
  160.4580  202.2060  145.3280 N   0  0  0  0  0  2  0  0  0  0  0  0
  160.7480  201.9290  147.6440 N   0  0  0  0  0  2  0  0  0  0  0  0
  161.1060  200.0010  146.0250 C   0  0  0  0  0  1  0  0  0  0  0  0
  160.7570  201.4210  146.3080 C   0  0  0  0  0  0  0  0  0  0  0  0
  3 20  2  0  0  0  0
  3 14  1  0  0  0  0
  4 15  1  0  0  0  0
  4  7  2  0  0  0  0
  5 11  2  0  0  0  0
  6  2  1  0  0  0  0
  6  1  2  0  0  0  0
  7 16  1  0  0  0  0
  8 10  1  6  0  0  0
  8  5  1  0  0  0  0
  8 20  1  0  0  0  0
  9  1  1  6  0  0  0
  9 18  1  0  0  0  0
 11 15  1  0  0  0  0
 12  3  1  0  0  0  0
 13 16  2  0  0  0  0
 14 13  1  0  0  0  0
 17  2  1  6  0  0  0
 17  9  1  0  0  0  0
 17 10  1  0  0  0  0
 18 19  1  0  0  0  0
 19 21  1  0  0  0  0
 20  4  1  0  0  0  0
 21 11  1  0  0  0  0
 22 25  1  0  0  0  0
 23  6  1  0  0  0  0
 25 24  1  0  0  0  0
 25 23  2  0  0  0  0
 26 27  1  0  0  0  0
 26 18  1  0  0  0  0
 28 27  1  0  0  0  0
 29 32  2  0  0  0  0
 30 28  1  0  0  0  0
 31 32  1  0  0  0  0
 32 30  1  0  0  0  0
M  END
>  <MODEL>
1

>  <REMARK>
 VINA RESULT:      -8.4      0.000      0.000
  Name = 
  5 active torsions:
  status: ('A' for Active; 'I' for Inactive)
    1  A    between atoms: S_5  and  N_15
    2  A    between atoms: S_5  and  C_18
    3  A    between atoms: C_9  and  N_10
    4  A    between atoms: C_13  and  C_18
    5  A    between atoms: C_13  and  N_29
                            x       y       z     vdW  Elec       q    Type
                         _______ _______ _______ _____ _____    ______ ____

>  <TORSDO>
F 5

$$$$
=
 OpenBabel11042422593D

 32 35  0  0  1  0  0  0  0  0999 V2000
  160.8950  205.2130  149.8370 N   0  0  0  0  0  0  0  0  0  0  0  0
  161.0200  204.4180  152.0390 C   0  0  0  0  0  2  0  0  0  0  0  0
  160.6670  208.2540  155.6680 C   0  0  0  0  0  0  0  0  0  0  0  0
  161.9150  209.8750  154.1130 C   0  0  0  0  0  0  0  0  0  0  0  0
  160.6460  208.5280  152.0320 N   0  0  0  0  0  0  0  0  0  0  0  0
  160.7830  204.1700  150.5910 C   0  0  0  0  0  0  0  0  0  0  0  0
  162.4920  210.7170  154.9650 C   0  0  0  0  0  3  0  0  0  0  0  0
  160.7990  207.8440  153.2570 C   0  0  1  0  0  3  0  0  0  0  0  0
  161.1910  206.3840  150.6480 C   0  0  1  0  0  3  0  0  0  0  0  0
  161.1860  206.5970  153.2260 N   0  0  0  0  0  2  0  0  0  0  0  0
  161.4400  209.4920  151.7330 C   0  0  0  0  0  0  0  0  0  0  0  0
  159.8340  207.0970  155.7470 N   0  0  0  0  0  1  0  0  0  0  0  0
  161.8150  209.9810  157.2610 C   0  0  0  0  0  3  0  0  0  0  0  0
  160.9490  208.9060  156.9080 N   0  0  0  0  0  2  0  0  0  0  0  0
  162.1330  210.1630  152.7500 O   0  0  0  0  0  0  0  0  0  0  0  0
  162.4850  210.7520  156.4220 C   0  0  0  0  0  3  0  0  0  0  0  0
  161.5900  205.8240  152.0280 C   0  0  1  0  0  3  0  0  0  0  0  0
  162.2360  207.2750  150.0850 N   0  0  0  0  0  0  0  0  0  0  0  0
  161.5860  208.4310  149.4470 C   0  0  0  0  0  2  0  0  0  0  0  0
  161.1040  208.6600  154.4540 C   0  0  0  0  0  0  0  0  0  0  0  0
  161.7290  209.7320  150.2840 C   0  0  0  0  0  2  0  0  0  0  0  0
  160.5840  200.9580  148.6220 C   0  0  0  0  0  1  0  0  0  0  0  0
  160.4760  202.8640  150.0840 N   0  0  0  0  0  0  0  0  0  0  0  0
  161.9260  202.9780  148.2770 F   0  0  0  0  0  0  0  0  0  0  0  0
  161.0020  202.3250  149.0260 C   0  0  0  0  0  0  0  0  0  0  0  0
  163.0630  206.6160  149.0780 C   0  0  0  0  0  2  0  0  0  0  0  0
  162.3350  206.5950  147.7470 C   0  0  0  0  0  2  0  0  0  0  0  0
  162.7410  205.0750  146.8390 S   0  0  0  0  0  0  0  0  0  0  0  0
  161.2530  205.8620  143.2210 N   0  0  0  0  0  2  0  0  0  0  0  0
  162.3810  205.8290  145.2820 N   0  0  0  0  0  2  0  0  0  0  0  0
  160.7350  204.0000  144.6460 C   0  0  0  0  0  1  0  0  0  0  0  0
  161.4610  205.2660  144.3460 C   0  0  0  0  0  0  0  0  0  0  0  0
  1  6  2  0  0  0  0
  3 12  1  0  0  0  0
  3 14  1  0  0  0  0
  4 20  1  0  0  0  0
  4  7  2  0  0  0  0
  6  2  1  0  0  0  0
  7 16  1  0  0  0  0
  8  5  1  6  0  0  0
  8 20  1  0  0  0  0
  9  1  1  6  0  0  0
  9 17  1  0  0  0  0
 10  8  1  0  0  0  0
 11  5  2  0  0  0  0
 11 15  1  0  0  0  0
 14 13  1  0  0  0  0
 15  4  1  0  0  0  0
 16 13  2  0  0  0  0
 17  2  1  1  0  0  0
 17 10  1  0  0  0  0
 18  9  1  0  0  0  0
 19 18  1  0  0  0  0
 19 21  1  0  0  0  0
 20  3  2  0  0  0  0
 21 11  1  0  0  0  0
 22 25  1  0  0  0  0
 23  6  1  0  0  0  0
 24 25  1  0  0  0  0
 25 23  2  0  0  0  0
 26 18  1  0  0  0  0
 27 26  1  0  0  0  0
 28 27  1  0  0  0  0
 29 32  2  0  0  0  0
 30 28  1  0  0  0  0
 32 31  1  0  0  0  0
 32 30  1  0  0  0  0
M  END
>  <MODEL>
2

>  <REMARK>
 VINA RESULT:      -7.1      2.365      4.230
  Name = 
  5 active torsions:
  status: ('A' for Active; 'I' for Inactive)
    1  A    between atoms: S_5  and  N_15
    2  A    between atoms: S_5  and  C_18
    3  A    between atoms: C_9  and  N_10
    4  A    between atoms: C_13  and  C_18
    5  A    between atoms: C_13  and  N_29
                            x       y       z     vdW  Elec       q    Type
                         _______ _______ _______ _____ _____    ______ ____

>  <TORSDO>
F 5

$$$$
=
 OpenBabel11042422593D

 32 35  0  0  1  0  0  0  0  0999 V2000
  161.6400  207.6290  152.9890 N   0  0  0  0  0  0  0  0  0  0  0  0
  160.7210  205.5010  152.6310 C   0  0  0  0  0  2  0  0  0  0  0  0
  161.4990  203.6880  147.7210 C   0  0  0  0  0  0  0  0  0  0  0  0
  161.3050  206.0720  146.7820 C   0  0  0  0  0  0  0  0  0  0  0  0
  162.4890  206.8860  149.1680 N   0  0  0  0  0  0  0  0  0  0  0  0
  161.1980  206.5600  153.5640 C   0  0  0  0  0  0  0  0  0  0  0  0
  160.8700  205.8670  145.5430 C   0  0  0  0  0  3  0  0  0  0  0  0
  161.8180  205.6440  149.1600 C   0  0  1  0  0  3  0  0  0  0  0  0
  161.5820  207.4770  151.5430 C   0  0  1  0  0  3  0  0  0  0  0  0
  161.0410  205.3530  150.1690 N   0  0  0  0  0  2  0  0  0  0  0  0
  162.1750  207.7880  148.3100 C   0  0  0  0  0  0  0  0  0  0  0  0
  161.8340  202.8880  148.8550 N   0  0  0  0  0  1  0  0  0  0  0  0
  160.6750  203.3870  145.2580 C   0  0  0  0  0  3  0  0  0  0  0  0
  161.1720  202.9740  146.5280 N   0  0  0  0  0  0  0  0  0  0  0  0
  161.5350  207.4220  147.1180 O   0  0  0  0  0  0  0  0  0  0  0  0
  160.5370  204.6340  144.8400 C   0  0  0  0  0  3  0  0  0  0  0  0
  160.6950  206.2400  151.3050 C   0  0  1  0  0  3  0  0  0  0  0  0
  161.0800  208.6710  150.8170 N   0  0  0  0  0  0  0  0  0  0  0  0
  162.2240  209.4020  150.2510 C   0  0  0  0  0  2  0  0  0  0  0  0
  161.5360  205.0350  147.8400 C   0  0  1  0  0  3  0  0  0  0  0  0
  162.3440  209.2200  148.7120 C   0  0  0  0  0  2  0  0  0  0  0  0
  160.5080  206.8550  157.2610 C   0  0  0  0  0  1  0  0  0  0  0  0
  161.1450  206.3980  154.9870 N   0  0  0  0  0  0  0  0  0  0  0  0
  159.7190  208.1890  155.3630 F   0  0  0  0  0  0  0  0  0  0  0  0
  160.4670  207.1460  155.8040 C   0  0  0  0  0  0  0  0  0  0  0  0
  160.3440  209.5910  151.6790 C   0  0  0  0  0  2  0  0  0  0  0  0
  161.2790  210.6640  152.2050 C   0  0  0  0  0  2  0  0  0  0  0  0
  160.6100  211.3780  153.7360 S   0  0  0  0  0  0  0  0  0  0  0  0
  162.8450  210.0880  156.7800 N   0  0  0  0  0  2  0  0  0  0  0  0
  161.9170  210.6900  154.7070 N   0  0  0  0  0  2  0  0  0  0  0  0
  160.6490  211.0540  156.8800 C   0  0  0  0  0  1  0  0  0  0  0  0
  161.8490  210.5890  156.1300 C   0  0  0  0  0  0  0  0  0  0  0  0
  1  6  2  0  0  0  0
  2  6  1  0  0  0  0
  3 20  1  0  0  0  0
  3 12  1  0  0  0  0
  4 15  1  0  0  0  0
  6 23  1  0  0  0  0
  7  4  2  0  0  0  0
  8  5  1  6  0  0  0
  8 10  1  0  0  0  0
  9  1  1  1  0  0  0
 10 17  1  0  0  0  0
 11 21  1  0  0  0  0
 11  5  2  0  0  0  0
 13 14  1  0  0  0  0
 14  3  2  0  0  0  0
 15 11  1  0  0  0  0
 16 13  2  0  0  0  0
 16  7  1  0  0  0  0
 17  9  1  0  0  0  0
 17  2  1  1  0  0  0
 18  9  1  0  0  0  0
 18 26  1  0  0  0  0
 19 18  1  0  0  0  0
 20  4  1  1  0  0  0
 20  8  1  0  0  0  0
 21 19  1  0  0  0  0
 23 25  2  0  0  0  0
 24 25  1  0  0  0  0
 25 22  1  0  0  0  0
 26 27  1  0  0  0  0
 27 28  1  0  0  0  0
 28 30  1  0  0  0  0
 30 32  1  0  0  0  0
 32 29  2  0  0  0  0
 32 31  1  0  0  0  0
M  END
>  <MODEL>
3

>  <REMARK>
 VINA RESULT:      -6.6      3.464      8.800
  Name = 
  5 active torsions:
  status: ('A' for Active; 'I' for Inactive)
    1  A    between atoms: S_5  and  N_15
    2  A    between atoms: S_5  and  C_18
    3  A    between atoms: C_9  and  N_10
    4  A    between atoms: C_13  and  C_18
    5  A    between atoms: C_13  and  N_29
                            x       y       z     vdW  Elec       q    Type
                         _______ _______ _______ _____ _____    ______ ____

>  <TORSDO>
F 5

$$$$
=
 OpenBabel11042422593D

 32 35  0  0  1  0  0  0  0  0999 V2000
  160.8100  211.8260  153.5920 N   0  0  0  0  0  0  0  0  0  0  0  0
  159.9740  209.8820  154.6010 C   0  0  0  0  0  2  0  0  0  0  0  0
  161.4170  205.4470  152.1010 C   0  0  0  0  0  0  0  0  0  0  0  0
  161.3170  206.6590  149.8380 C   0  0  0  0  0  0  0  0  0  0  0  0
  162.1650  208.9100  151.2410 N   0  0  0  0  0  0  0  0  0  0  0  0
  160.3100  211.3300  154.6750 C   0  0  0  0  0  0  0  0  0  0  0  0
  161.0520  205.6740  148.9860 C   0  0  0  0  0  3  0  0  0  0  0  0
  161.5170  207.8890  151.9700 C   0  0  1  0  0  3  0  0  0  0  0  0
  160.9460  210.7860  152.5850 C   0  0  1  0  0  3  0  0  0  0  0  0
  160.6180  208.2350  152.8520 N   0  0  0  0  0  2  0  0  0  0  0  0
  161.9550  209.0270  149.9800 C   0  0  0  0  0  0  0  0  0  0  0  0
  161.6090  205.5850  153.5090 N   0  0  0  0  0  1  0  0  0  0  0  0
  160.9290  203.5730  150.3430 C   0  0  0  0  0  3  0  0  0  0  0  0
  161.2590  204.1100  151.6210 N   0  0  0  0  0  2  0  0  0  0  0  0
  161.4840  207.9290  149.2480 O   0  0  0  0  0  0  0  0  0  0  0  0
  160.8310  204.2500  149.2120 C   0  0  0  0  0  3  0  0  0  0  0  0
  160.1130  209.6030  153.1150 C   0  0  1  0  0  3  0  0  0  0  0  0
  160.5280  211.1930  151.2190 N   0  0  0  0  0  0  0  0  0  0  0  0
  161.7270  211.5010  150.4240 C   0  0  0  0  0  2  0  0  0  0  0  0
  161.4200  206.5580  151.3310 C   0  0  0  0  0  0  0  0  0  0  0  0
  162.0520  210.3960  149.3820 C   0  0  0  0  0  2  0  0  0  0  0  0
  159.0740  213.7880  157.2570 C   0  0  0  0  0  1  0  0  0  0  0  0
  160.0710  212.1060  155.8570 N   0  0  0  0  0  0  0  0  0  0  0  0
  158.4300  213.4490  154.9180 F   0  0  0  0  0  0  0  0  0  0  0  0
  159.2110  213.0730  155.9620 C   0  0  0  0  0  0  0  0  0  0  0  0
  159.6730  212.3760  151.2150 C   0  0  0  0  0  2  0  0  0  0  0  0
  160.1690  213.3670  150.1790 C   0  0  0  0  0  2  0  0  0  0  0  0
  158.8110  213.8400  149.0680 S   0  0  0  0  0  0  0  0  0  0  0  0
  159.6650  212.2030  145.5300 N   0  0  0  0  0  2  0  0  0  0  0  0
  159.6630  213.2140  147.6520 N   0  0  0  0  0  2  0  0  0  0  0  0
  157.4950  212.5820  146.4850 C   0  0  0  0  0  1  0  0  0  0  0  0
  158.9820  212.6550  146.5270 C   0  0  0  0  0  0  0  0  0  0  0  0
  1  6  2  0  0  0  0
  2  6  1  0  0  0  0
  3 12  1  0  0  0  0
  4 20  1  0  0  0  0
  6 23  1  0  0  0  0
  7 16  1  0  0  0  0
  7  4  2  0  0  0  0
  8  5  1  6  0  0  0
  8 10  1  0  0  0  0
  9 17  1  0  0  0  0
  9  1  1  1  0  0  0
 10 17  1  0  0  0  0
 11  5  2  0  0  0  0
 13 14  1  0  0  0  0
 14  3  1  0  0  0  0
 15  4  1  0  0  0  0
 15 11  1  0  0  0  0
 16 13  2  0  0  0  0
 17  2  1  1  0  0  0
 18  9  1  0  0  0  0
 19 18  1  0  0  0  0
 20  8  1  0  0  0  0
 20  3  2  0  0  0  0
 21 11  1  0  0  0  0
 21 19  1  0  0  0  0
 23 25  2  0  0  0  0
 24 25  1  0  0  0  0
 25 22  1  0  0  0  0
 26 18  1  0  0  0  0
 27 26  1  0  0  0  0
 28 27  1  0  0  0  0
 29 32  2  0  0  0  0
 30 28  1  0  0  0  0
 31 32  1  0  0  0  0
 32 30  1  0  0  0  0
M  END
>  <MODEL>
4

>  <REMARK>
 VINA RESULT:      -6.6      4.365      8.744
  Name = 
  5 active torsions:
  status: ('A' for Active; 'I' for Inactive)
    1  A    between atoms: S_5  and  N_15
    2  A    between atoms: S_5  and  C_18
    3  A    between atoms: C_9  and  N_10
    4  A    between atoms: C_13  and  C_18
    5  A    between atoms: C_13  and  N_29
                            x       y       z     vdW  Elec       q    Type
                         _______ _______ _______ _____ _____    ______ ____

>  <TORSDO>
F 5

$$$$
=
 OpenBabel11042422593D

 32 35  0  0  1  0  0  0  0  0999 V2000
  161.9350  206.5510  151.7300 N   0  0  0  0  0  0  0  0  0  0  0  0
  160.6710  204.5830  151.8870 C   0  0  0  0  0  2  0  0  0  0  0  0
  160.8900  201.6060  147.5180 C   0  0  0  0  0  0  0  0  0  0  0  0
  161.0310  203.7140  146.0560 C   0  0  0  0  0  0  0  0  0  0  0  0
  162.4530  204.8340  148.1730 N   0  0  0  0  0  0  0  0  0  0  0  0
  161.3590  205.7290  152.5430 C   0  0  0  0  0  0  0  0  0  0  0  0
  160.5040  203.3110  144.9050 C   0  0  0  0  0  3  0  0  0  0  0  0
  161.5920  203.7530  148.4610 C   0  0  1  0  0  3  0  0  0  0  0  0
  161.7790  206.0890  150.3600 C   0  0  1  0  0  3  0  0  0  0  0  0
  160.8340  203.8330  149.5220 N   0  0  0  0  0  2  0  0  0  0  0  0
  162.2430  205.5600  147.1340 C   0  0  0  0  0  0  0  0  0  0  0  0
  161.1510  201.0370  148.8010 N   0  0  0  0  0  1  0  0  0  0  0  0
  159.9000  200.9000  145.2030 C   0  0  0  0  0  3  0  0  0  0  0  0
  160.3900  200.7060  146.5270 N   0  0  0  0  0  0  0  0  0  0  0  0
  161.4920  205.0470  146.0680 O   0  0  0  0  0  0  0  0  0  0  0  0
  159.9420  202.0250  144.5110 C   0  0  0  0  0  3  0  0  0  0  0  0
  160.6940  204.9980  150.4270 C   0  0  1  0  0  3  0  0  0  0  0  0
  161.4370  207.1560  149.3850 N   0  0  0  0  0  0  0  0  0  0  0  0
  162.6520  207.5380  148.6480 C   0  0  0  0  0  2  0  0  0  0  0  0
  161.1480  202.9190  147.3220 C   0  0  1  0  0  3  0  0  0  0  0  0
  162.6610  206.9960  147.1920 C   0  0  0  0  0  2  0  0  0  0  0  0
  160.9050  206.9530  156.0820 C   0  0  0  0  0  1  0  0  0  0  0  0
  161.3550  205.9040  153.9660 N   0  0  0  0  0  0  0  0  0  0  0  0
  160.2160  207.9240  153.9410 F   0  0  0  0  0  0  0  0  0  0  0  0
  160.8310  206.9090  154.5990 C   0  0  0  0  0  0  0  0  0  0  0  0
  160.9040  208.3570  150.0210 C   0  0  0  0  0  2  0  0  0  0  0  0
  161.9560  209.4500  150.0220 C   0  0  0  0  0  2  0  0  0  0  0  0
  162.3310  209.9530  151.7260 S   0  0  0  0  0  0  0  0  0  0  0  0
  159.0540  211.5870  153.3130 N   0  0  0  0  0  2  0  0  0  0  0  0
  160.7150  210.6340  151.9520 N   0  0  0  0  0  2  0  0  0  0  0  0
  161.1230  211.0780  154.4220 C   0  0  0  0  0  1  0  0  0  0  0  0
  160.2510  211.1140  153.2140 C   0  0  0  0  0  0  0  0  0  0  0  0
  1  6  2  0  0  0  0
  2  6  1  0  0  0  0
  3 12  1  0  0  0  0
  4 15  1  0  0  0  0
  6 23  1  0  0  0  0
  7  4  2  0  0  0  0
  8  5  1  6  0  0  0
  8 10  1  0  0  0  0
  9 17  1  0  0  0  0
  9  1  1  1  0  0  0
 10 17  1  0  0  0  0
 11 21  1  0  0  0  0
 11  5  2  0  0  0  0
 13 14  1  0  0  0  0
 14  3  2  0  0  0  0
 15 11  1  0  0  0  0
 16  7  1  0  0  0  0
 16 13  2  0  0  0  0
 17  2  1  1  0  0  0
 18 26  1  0  0  0  0
 18  9  1  0  0  0  0
 19 18  1  0  0  0  0
 20  4  1  1  0  0  0
 20  3  1  0  0  0  0
 20  8  1  0  0  0  0
 21 19  1  0  0  0  0
 23 25  2  0  0  0  0
 24 25  1  0  0  0  0
 25 22  1  0  0  0  0
 26 27  1  0  0  0  0
 27 28  1  0  0  0  0
 28 30  1  0  0  0  0
 30 32  1  0  0  0  0
 32 29  2  0  0  0  0
 32 31  1  0  0  0  0
M  END
>  <MODEL>
5

>  <REMARK>
 VINA RESULT:      -6.4      3.112      8.649
  Name = 
  5 active torsions:
  status: ('A' for Active; 'I' for Inactive)
    1  A    between atoms: S_5  and  N_15
    2  A    between atoms: S_5  and  C_18
    3  A    between atoms: C_9  and  N_10
    4  A    between atoms: C_13  and  C_18
    5  A    between atoms: C_13  and  N_29
                            x       y       z     vdW  Elec       q    Type
                         _______ _______ _______ _____ _____    ______ ____

>  <TORSDO>
F 5

$$$$
=
 OpenBabel11042422593D

 32 35  0  0  1  0  0  0  0  0999 V2000
  161.3570  207.7460  149.8410 N   0  0  0  0  0  0  0  0  0  0  0  0
  162.0610  207.2320  147.6640 C   0  0  0  0  0  2  0  0  0  0  0  0
  160.8130  202.3100  146.1740 C   0  0  0  0  0  0  0  0  0  0  0  0
  161.1540  201.4680  148.5770 C   0  0  0  0  0  0  0  0  0  0  0  0
  160.2020  203.9630  149.3660 N   0  0  0  0  0  0  0  0  0  0  0  0
  161.7400  208.2410  148.7110 C   0  0  0  0  0  0  0  0  0  0  0  0
  161.4890  200.1940  148.3990 C   0  0  0  0  0  3  0  0  0  0  0  0
  160.7600  203.8530  148.0740 C   0  0  1  0  0  3  0  0  0  0  0  0
  161.3080  206.2950  149.7580 C   0  0  1  0  0  3  0  0  0  0  0  0
  161.5710  204.7930  147.6690 N   0  0  0  0  0  2  0  0  0  0  0  0
  160.5380  203.1270  150.2810 C   0  0  0  0  0  0  0  0  0  0  0  0
  160.4830  203.4280  145.3490 N   0  0  0  0  0  1  0  0  0  0  0  0
  161.4470  199.7850  145.9290 C   0  0  0  0  0  3  0  0  0  0  0  0
  160.9990  201.0660  145.4950 N   0  0  0  0  0  0  0  0  0  0  0  0
  161.0650  201.8780  149.9230 O   0  0  0  0  0  0  0  0  0  0  0  0
  161.6660  199.4160  147.1790 C   0  0  0  0  0  3  0  0  0  0  0  0
  162.0660  205.9420  148.4640 C   0  0  1  0  0  3  0  0  0  0  0  0
  161.8650  205.5900  150.9400 N   0  0  0  0  0  0  0  0  0  0  0  0
  160.7550  205.1360  151.7930 C   0  0  0  0  0  2  0  0  0  0  0  0
  160.9010  202.4920  147.5110 C   0  0  1  0  0  3  0  0  0  0  0  0
  160.5210  203.6030  151.7000 C   0  0  0  0  0  2  0  0  0  0  0  0
  162.2350  211.9710  148.9810 C   0  0  0  0  0  1  0  0  0  0  0  0
  161.8700  209.6490  148.4740 N   0  0  0  0  0  0  0  0  0  0  0  0
  162.3060  210.2090  150.6820 F   0  0  0  0  0  0  0  0  0  0  0  0
  162.1290  210.5440  149.3790 C   0  0  0  0  0  0  0  0  0  0  0  0
  162.7330  206.4400  151.7510 C   0  0  0  0  0  2  0  0  0  0  0  0
  162.2420  206.4580  153.1860 C   0  0  0  0  0  2  0  0  0  0  0  0
  161.3060  207.9820  153.5060 S   0  0  0  0  0  0  0  0  0  0  0  0
  160.1420  207.0800  157.2150 N   0  0  0  0  0  2  0  0  0  0  0  0
  160.4850  207.2660  154.8970 N   0  0  0  0  0  2  0  0  0  0  0  0
  161.7770  208.7060  156.5460 C   0  0  0  0  0  1  0  0  0  0  0  0
  160.7690  207.6520  156.2430 C   0  0  0  0  0  0  0  0  0  0  0  0
  2  6  1  0  0  0  0
  4 15  1  0  0  0  0
  5 11  2  0  0  0  0
  6  1  2  0  0  0  0
  7  4  2  0  0  0  0
  8 10  1  1  0  0  0
  8  5  1  0  0  0  0
  9  1  1  1  0  0  0
  9 18  1  0  0  0  0
 10 17  1  0  0  0  0
 11 21  1  0  0  0  0
 12  3  1  0  0  0  0
 13 16  2  0  0  0  0
 14 13  1  0  0  0  0
 14  3  2  0  0  0  0
 15 11  1  0  0  0  0
 16  7  1  0  0  0  0
 17  2  1  6  0  0  0
 17  9  1  0  0  0  0
 18 26  1  0  0  0  0
 18 19  1  0  0  0  0
 20  3  1  6  0  0  0
 20  8  1  0  0  0  0
 20  4  1  0  0  0  0
 21 19  1  0  0  0  0
 22 25  1  0  0  0  0
 23  6  1  0  0  0  0
 23 25  2  0  0  0  0
 25 24  1  0  0  0  0
 26 27  1  0  0  0  0
 27 28  1  0  0  0  0
 28 30  1  0  0  0  0
 30 32  1  0  0  0  0
 32 31  1  0  0  0  0
 32 29  2  0  0  0  0
M  END
>  <MODEL>
6

>  <REMARK>
 VINA RESULT:      -6.3      2.965      7.841
  Name = 
  5 active torsions:
  status: ('A' for Active; 'I' for Inactive)
    1  A    between atoms: S_5  and  N_15
    2  A    between atoms: S_5  and  C_18
    3  A    between atoms: C_9  and  N_10
    4  A    between atoms: C_13  and  C_18
    5  A    between atoms: C_13  and  N_29
                            x       y       z     vdW  Elec       q    Type
                         _______ _______ _______ _____ _____    ______ ____

>  <TORSDO>
F 5

$$$$
=
 OpenBabel11042422593D

 32 35  0  0  1  0  0  0  0  0999 V2000
  162.0760  206.6190  151.3160 N   0  0  0  0  0  0  0  0  0  0  0  0
  160.8650  204.6520  151.7140 C   0  0  0  0  0  2  0  0  0  0  0  0
  161.0000  201.2580  147.6570 C   0  0  0  0  0  0  0  0  0  0  0  0
  161.0400  203.2120  145.9890 C   0  0  0  0  0  0  0  0  0  0  0  0
  162.5090  204.5660  147.9290 N   0  0  0  0  0  0  0  0  0  0  0  0
  161.5480  205.8710  152.2270 C   0  0  0  0  0  0  0  0  0  0  0  0
  160.4820  202.6850  144.9030 C   0  0  0  0  0  3  0  0  0  0  0  0
  161.6850  203.5020  148.3560 C   0  0  1  0  0  3  0  0  0  0  0  0
  161.8830  206.0190  150.0050 C   0  0  1  0  0  3  0  0  0  0  0  0
  160.9620  203.6720  149.4300 N   0  0  0  0  0  2  0  0  0  0  0  0
  162.2450  205.1800  146.8330 C   0  0  0  0  0  0  0  0  0  0  0  0
  161.3200  200.8260  148.9790 N   0  0  0  0  0  1  0  0  0  0  0  0
  159.9470  200.3040  145.4620 C   0  0  0  0  0  3  0  0  0  0  0  0
  160.4870  200.2530  146.7790 N   0  0  0  0  0  0  0  0  0  0  0  0
  161.4690  204.5480  145.8510 O   0  0  0  0  0  0  0  0  0  0  0  0
  159.9380  201.3550  144.6600 C   0  0  0  0  0  3  0  0  0  0  0  0
  160.8260  204.9180  150.2200 C   0  0  1  0  0  3  0  0  0  0  0  0
  161.4810  206.9760  148.9420 N   0  0  0  0  0  0  0  0  0  0  0  0
  162.6600  207.3070  148.1270 C   0  0  0  0  0  2  0  0  0  0  0  0
  161.2210  202.5490  147.3220 C   0  0  1  0  0  3  0  0  0  0  0  0
  162.6310  206.6220  146.7320 C   0  0  0  0  0  2  0  0  0  0  0  0
  161.1870  207.4320  155.6420 C   0  0  0  0  0  1  0  0  0  0  0  0
  161.5910  206.1870  153.6240 N   0  0  0  0  0  0  0  0  0  0  0  0
  160.3960  208.1670  153.4430 F   0  0  0  0  0  0  0  0  0  0  0  0
  161.0620  207.2380  154.1750 C   0  0  0  0  0  0  0  0  0  0  0  0
  160.9430  208.2240  149.4760 C   0  0  0  0  0  2  0  0  0  0  0  0
  161.6550  209.4050  148.8420 C   0  0  0  0  0  2  0  0  0  0  0  0
  161.9840  210.6790  150.0950 S   0  0  0  0  0  0  0  0  0  0  0  0
  162.1300  213.8280  147.6470 N   0  0  0  0  0  2  0  0  0  0  0  0
  162.4810  211.8500  148.8680 N   0  0  0  0  0  2  0  0  0  0  0  0
  160.4500  213.3210  149.2860 C   0  0  0  0  0  1  0  0  0  0  0  0
  161.7170  213.0190  148.5640 C   0  0  0  0  0  0  0  0  0  0  0  0
  1  6  2  0  0  0  0
  2  6  1  0  0  0  0
  3 12  1  0  0  0  0
  6 23  1  0  0  0  0
  7  4  2  0  0  0  0
  8  5  1  6  0  0  0
  8 10  1  0  0  0  0
  9 17  1  0  0  0  0
  9  1  1  1  0  0  0
 10 17  1  0  0  0  0
 11  5  2  0  0  0  0
 13 14  1  0  0  0  0
 14  3  2  0  0  0  0
 15  4  1  0  0  0  0
 15 11  1  0  0  0  0
 16  7  1  0  0  0  0
 16 13  2  0  0  0  0
 17  2  1  1  0  0  0
 18 26  1  0  0  0  0
 18  9  1  0  0  0  0
 19 18  1  0  0  0  0
 20  4  1  1  0  0  0
 20  3  1  0  0  0  0
 20  8  1  0  0  0  0
 21 11  1  0  0  0  0
 21 19  1  0  0  0  0
 23 25  2  0  0  0  0
 24 25  1  0  0  0  0
 25 22  1  0  0  0  0
 27 26  1  0  0  0  0
 27 28  1  0  0  0  0
 29 32  2  0  0  0  0
 30 28  1  0  0  0  0
 32 30  1  0  0  0  0
 32 31  1  0  0  0  0
M  END
>  <MODEL>
7

>  <REMARK>
 VINA RESULT:      -6.0      3.391      8.694
  Name = 
  5 active torsions:
  status: ('A' for Active; 'I' for Inactive)
    1  A    between atoms: S_5  and  N_15
    2  A    between atoms: S_5  and  C_18
    3  A    between atoms: C_9  and  N_10
    4  A    between atoms: C_13  and  C_18
    5  A    between atoms: C_13  and  N_29
                            x       y       z     vdW  Elec       q    Type
                         _______ _______ _______ _____ _____    ______ ____

>  <TORSDO>
F 5

$$$$
=
 OpenBabel11042422593D

 32 35  0  0  1  0  0  0  0  0999 V2000
  161.6920  207.7850  152.9840 N   0  0  0  0  0  0  0  0  0  0  0  0
  160.7820  205.6520  152.6420 C   0  0  0  0  0  2  0  0  0  0  0  0
  161.5620  203.8110  147.7420 C   0  0  0  0  0  0  0  0  0  0  0  0
  161.3570  206.1880  146.7880 C   0  0  0  0  0  0  0  0  0  0  0  0
  162.5400  207.0210  149.1680 N   0  0  0  0  0  0  0  0  0  0  0  0
  161.2550  206.7180  153.5670 C   0  0  0  0  0  0  0  0  0  0  0  0
  160.9210  205.9740  145.5510 C   0  0  0  0  0  3  0  0  0  0  0  0
  161.8740  205.7770  149.1680 C   0  0  1  0  0  3  0  0  0  0  0  0
  161.6340  207.6240  151.5400 C   0  0  1  0  0  3  0  0  0  0  0  0
  161.1000  205.4900  150.1800 N   0  0  0  0  0  2  0  0  0  0  0  0
  162.2220  207.9170  148.3050 C   0  0  0  0  0  0  0  0  0  0  0  0
  161.9010  203.0200  148.8810 N   0  0  0  0  0  1  0  0  0  0  0  0
  160.7360  203.4910  145.2820 C   0  0  0  0  0  3  0  0  0  0  0  0
  161.2360  203.0880  146.5530 N   0  0  0  0  0  0  0  0  0  0  0  0
  161.5820  207.5410  147.1150 O   0  0  0  0  0  0  0  0  0  0  0  0
  160.5930  204.7350  144.8560 C   0  0  0  0  0  3  0  0  0  0  0  0
  160.7510  206.3820  151.3110 C   0  0  1  0  0  3  0  0  0  0  0  0
  161.1260  208.8110  150.8070 N   0  0  0  0  0  0  0  0  0  0  0  0
  162.2670  209.5430  150.2350 C   0  0  0  0  0  2  0  0  0  0  0  0
  161.5940  205.1590  147.8530 C   0  0  1  0  0  3  0  0  0  0  0  0
  162.3860  209.3520  148.6970 C   0  0  0  0  0  2  0  0  0  0  0  0
  160.5540  207.0220  157.2610 C   0  0  0  0  0  1  0  0  0  0  0  0
  161.2040  206.5650  154.9910 N   0  0  0  0  0  0  0  0  0  0  0  0
  159.7350  208.3230  155.3530 F   0  0  0  0  0  0  0  0  0  0  0  0
  160.5070  207.3020  155.8020 C   0  0  0  0  0  0  0  0  0  0  0  0
  160.3870  209.7350  151.6640 C   0  0  0  0  0  2  0  0  0  0  0  0
  161.0460  211.1010  151.6370 C   0  0  0  0  0  2  0  0  0  0  0  0
  159.8200  212.3910  152.0030 S   0  0  0  0  0  0  0  0  0  0  0  0
  159.2950  214.3170  148.5480 N   0  0  0  0  0  2  0  0  0  0  0  0
  160.0900  213.1820  150.4460 N   0  0  0  0  0  2  0  0  0  0  0  0
  157.6260  213.7480  150.1780 C   0  0  0  0  0  1  0  0  0  0  0  0
  159.0310  213.7650  149.6840 C   0  0  0  0  0  0  0  0  0  0  0  0
  1  6  2  0  0  0  0
  2  6  1  0  0  0  0
  3 20  1  0  0  0  0
  3 12  1  0  0  0  0
  4 15  1  0  0  0  0
  6 23  1  0  0  0  0
  7  4  2  0  0  0  0
  8  5  1  6  0  0  0
  8 10  1  0  0  0  0
  9  1  1  1  0  0  0
 10 17  1  0  0  0  0
 11 21  1  0  0  0  0
 11  5  2  0  0  0  0
 13 14  1  0  0  0  0
 14  3  2  0  0  0  0
 15 11  1  0  0  0  0
 16 13  2  0  0  0  0
 16  7  1  0  0  0  0
 17  9  1  0  0  0  0
 17  2  1  1  0  0  0
 18  9  1  0  0  0  0
 18 26  1  0  0  0  0
 19 18  1  0  0  0  0
 20  4  1  1  0  0  0
 20  8  1  0  0  0  0
 21 19  1  0  0  0  0
 23 25  2  0  0  0  0
 24 25  1  0  0  0  0
 25 22  1  0  0  0  0
 27 26  1  0  0  0  0
 27 28  1  0  0  0  0
 29 32  2  0  0  0  0
 30 28  1  0  0  0  0
 32 31  1  0  0  0  0
 32 30  1  0  0  0  0
M  END
>  <MODEL>
8

>  <REMARK>
 VINA RESULT:      -5.9      3.846      8.698
  Name = 
  5 active torsions:
  status: ('A' for Active; 'I' for Inactive)
    1  A    between atoms: S_5  and  N_15
    2  A    between atoms: S_5  and  C_18
    3  A    between atoms: C_9  and  N_10
    4  A    between atoms: C_13  and  C_18
    5  A    between atoms: C_13  and  N_29
                            x       y       z     vdW  Elec       q    Type
                         _______ _______ _______ _____ _____    ______ ____

>  <TORSDO>
F 5

$$$$
=
 OpenBabel11042422593D

 32 35  0  0  1  0  0  0  0  0999 V2000
  162.3650  209.4950  148.7490 N   0  0  0  0  0  0  0  0  0  0  0  0
  161.5910  211.1510  150.2180 C   0  0  0  0  0  2  0  0  0  0  0  0
  161.3950  209.5470  155.2570 C   0  0  0  0  0  0  0  0  0  0  0  0
  160.7710  207.1710  154.5040 C   0  0  0  0  0  0  0  0  0  0  0  0
  162.3860  207.6720  152.2910 N   0  0  0  0  0  0  0  0  0  0  0  0
  162.1670  210.7620  148.9010 C   0  0  0  0  0  0  0  0  0  0  0  0
  160.0860  206.7030  155.5420 C   0  0  0  0  0  3  0  0  0  0  0  0
  161.8500  208.7840  152.9750 C   0  0  1  0  0  3  0  0  0  0  0  0
  161.9940  208.7840  149.9630 C   0  0  1  0  0  3  0  0  0  0  0  0
  161.3540  209.7650  152.2690 N   0  0  0  0  0  2  0  0  0  0  0  0
  161.8020  206.5310  152.3680 C   0  0  0  0  0  0  0  0  0  0  0  0
  162.0530  210.7640  154.9040 N   0  0  0  0  0  1  0  0  0  0  0  0
  160.0630  208.5230  157.2600 C   0  0  0  0  0  3  0  0  0  0  0  0
  160.8730  209.4820  156.5850 N   0  0  0  0  0  2  0  0  0  0  0  0
  160.9450  206.2590  153.4430 O   0  0  0  0  0  0  0  0  0  0  0  0
  159.7190  207.3320  156.8050 C   0  0  0  0  0  3  0  0  0  0  0  0
  161.1950  209.8050  150.7960 C   0  0  1  0  0  3  0  0  0  0  0  0
  161.2310  207.5310  149.7350 N   0  0  0  0  0  0  0  0  0  0  0  0
  162.1420  206.3840  149.8710 C   0  0  0  0  0  2  0  0  0  0  0  0
  161.3330  208.5520  154.3430 C   0  0  0  0  0  0  0  0  0  0  0  0
  161.9250  205.6050  151.1980 C   0  0  0  0  0  2  0  0  0  0  0  0
  162.0220  213.3970  146.2040 C   0  0  0  0  0  1  0  0  0  0  0  0
  162.4550  211.7300  147.8830 N   0  0  0  0  0  0  0  0  0  0  0  0
  160.2430  212.2960  147.4790 F   0  0  0  0  0  0  0  0  0  0  0  0
  161.5710  212.4280  147.2360 C   0  0  0  0  0  0  0  0  0  0  0  0
  160.6280  207.4670  148.4060 C   0  0  0  0  0  2  0  0  0  0  0  0
  160.6540  206.0390  147.8960 C   0  0  0  0  0  2  0  0  0  0  0  0
  162.0450  205.8120  146.7500 S   0  0  0  0  0  0  0  0  0  0  0  0
  160.8870  202.1580  145.6380 N   0  0  0  0  0  2  0  0  0  0  0  0
  161.7860  204.0650  146.6770 N   0  0  0  0  0  2  0  0  0  0  0  0
  160.4660  204.2360  144.5110 C   0  0  0  0  0  1  0  0  0  0  0  0
  161.0500  203.4380  145.6250 C   0  0  0  0  0  0  0  0  0  0  0  0
  1  6  2  0  0  0  0
  3 14  1  0  0  0  0
  4  7  2  0  0  0  0
  5 11  2  0  0  0  0
  5  8  1  0  0  0  0
  6  2  1  0  0  0  0
  7 16  1  0  0  0  0
  8 10  1  6  0  0  0
  8 20  1  0  0  0  0
  9  1  1  6  0  0  0
  9 17  1  0  0  0  0
 11 15  1  0  0  0  0
 12  3  1  0  0  0  0
 14 13  1  0  0  0  0
 15  4  1  0  0  0  0
 16 13  2  0  0  0  0
 17  2  1  6  0  0  0
 17 10  1  0  0  0  0
 18 19  1  0  0  0  0
 18  9  1  0  0  0  0
 19 21  1  0  0  0  0
 20  4  1  0  0  0  0
 20  3  2  0  0  0  0
 21 11  1  0  0  0  0
 22 25  1  0  0  0  0
 23  6  1  0  0  0  0
 25 24  1  0  0  0  0
 25 23  2  0  0  0  0
 26 18  1  0  0  0  0
 27 26  1  0  0  0  0
 28 27  1  0  0  0  0
 30 28  1  0  0  0  0
 31 32  1  0  0  0  0
 32 29  2  0  0  0  0
 32 30  1  0  0  0  0
M  END
>  <MODEL>
9

>  <REMARK>
 VINA RESULT:      -5.8      2.783      3.996
  Name = 
  5 active torsions:
  status: ('A' for Active; 'I' for Inactive)
    1  A    between atoms: S_5  and  N_15
    2  A    between atoms: S_5  and  C_18
    3  A    between atoms: C_9  and  N_10
    4  A    between atoms: C_13  and  C_18
    5  A    between atoms: C_13  and  N_29
                            x       y       z     vdW  Elec       q    Type
                         _______ _______ _______ _____ _____    ______ ____

>  <TORSDO>
F 5

$$$$
