=
 OpenBabel11042420513D

 52 59  0  0  1  0  0  0  0  0999 V2000
  160.5970  209.2200  152.4730 N   0  0  2  0  0  0  0  0  0  0  0  0
  162.3190  210.0870  154.1120 C   0  0  0  0  0  2  0  0  0  0  0  0
  162.0300  209.4820  152.7340 C   0  0  2  0  0  3  0  0  0  0  0  0
  159.7190  209.5360  153.6140 C   0  0  0  0  0  2  0  0  0  0  0  0
  160.2180  208.9130  154.9360 C   0  0  2  0  0  3  0  0  0  0  0  0
  160.5890  209.9270  156.0300 C   0  0  1  0  0  3  0  0  0  0  0  0
  161.6900  209.2300  155.2150 C   0  0  2  0  0  3  0  0  0  0  0  0
  161.9110  205.5620  144.6860 C   0  0  1  0  0  3  0  0  0  0  0  0
  160.3980  207.8120  152.1020 C   0  0  1  0  0  3  0  0  0  0  0  0
  161.7040  205.4420  148.7980 C   0  0  0  0  0  0  0  0  0  0  0  0
  161.7900  206.9580  150.6840 C   0  0  2  0  0  3  0  0  0  0  0  0
  160.9030  205.7070  154.2020 O   0  0  0  0  0  1  0  0  0  0  0  0
  160.2540  206.7760  146.0510 C   0  0  0  0  0  2  0  0  0  0  0  0
  160.4540  207.6730  150.5830 C   0  0  0  0  0  2  0  0  0  0  0  0
  161.6750  205.3250  147.5010 C   0  0  0  0  0  0  0  0  0  0  0  0
  161.4010  205.6950  152.9040 C   0  0  0  0  0  0  0  0  0  0  0  0
  162.1710  204.4180  150.9270 C   0  0  0  0  0  2  0  0  0  0  0  0
  162.8260  204.7310  146.8130 C   0  0  0  0  0  3  0  0  0  0  0  0
  162.9130  204.7890  145.4900 C   0  0  0  0  0  3  0  0  0  0  0  0
  161.7330  205.5760  150.0960 C   0  0  0  0  0  0  0  0  0  0  0  0
  161.9150  205.1070  143.3810 F   0  0  0  0  0  0  0  0  0  0  0  0
  161.6950  207.0120  152.2180 C   0  0  2  0  0  3  0  0  0  0  0  0
  160.4860  205.5060  145.2530 C   0  0  2  0  0  3  0  0  0  0  0  0
  160.3580  205.4590  146.7860 C   0  0  2  0  0  3  0  0  0  0  0  0
  161.6020  204.5220  152.3050 C   0  0  0  0  0  3  0  0  0  0  0  0
  162.5740  210.4000  151.6520 C   0  0  0  0  0  2  0  0  0  0  0  0
  161.4810  211.0120  150.9140 N   0  0  0  0  0  2  0  0  0  0  0  0
  161.8910  211.0990  149.5200 C   0  0  0  0  0  2  0  0  0  0  0  0
  158.2250  213.7890  148.9070 C   0  0  0  0  0  1  0  0  0  0  0  0
  158.9030  213.2550  146.2280 O   0  0  0  0  0  0  0  0  0  0  0  0
  160.4620  213.6480  150.6140 O   0  0  0  0  0  0  0  0  0  0  0  0
  159.5520  213.3710  148.4770 N   0  0  0  0  0  0  0  0  0  0  0  0
  161.1960  212.8140  146.6580 C   0  0  0  0  0  0  0  0  0  0  0  0
  162.1490  212.5800  147.5640 C   0  0  0  0  0  3  0  0  0  0  0  0
  161.8970  212.5490  149.0470 C   0  0  1  0  0  3  0  0  0  0  0  0
  159.8240  213.1430  147.0870 C   0  0  0  0  0  0  0  0  0  0  0  0
  160.6140  213.2350  149.4300 C   0  0  0  0  0  0  0  0  0  0  0  0
  161.5420  212.7380  145.2120 C   0  0  0  0  0  2  0  0  0  0  0  0
  162.6330  213.5670  144.9490 O   0  0  0  0  0  1  0  0  0  0  0  0
  160.3180  211.4050  155.6660 C   0  0  1  0  0  3  0  0  0  0  0  0
  158.2990  211.3330  157.2560 C   0  0  0  0  0  1  0  0  0  0  0  0
  158.8870  211.8870  155.9600 C   0  0  2  0  0  3  0  0  0  0  0  0
  157.9870  211.5720  154.7650 C   0  0  2  0  0  3  0  0  0  0  0  0
  158.2420  212.7370  152.5860 C   0  0  0  0  0  2  0  0  0  0  0  0
  157.6610  212.8360  153.9840 C   0  0  0  0  0  3  0  0  0  0  0  0
  158.9550  213.5530  153.6470 C   0  0  0  0  0  2  0  0  0  0  0  0
  156.8080  210.9390  155.1810 O   0  0  0  0  0  0  0  0  0  0  0  0
  155.7920  211.8650  154.9260 C   0  0  0  0  0  2  0  0  0  0  0  0
  155.0120  212.1460  156.2060 C   0  0  0  0  0  2  0  0  0  0  0  0
  155.4020  213.5080  156.7710 C   0  0  0  0  0  1  0  0  0  0  0  0
  160.3240  213.7920  156.9210 C   0  0  0  0  0  1  0  0  0  0  0  0
  161.5360  212.5120  156.4680 S   0  0  0  0  0  0  0  0  0  0  0  0
  1  3  1  0  0  0  0
  1  4  1  1  0  0  0
  3 26  1  6  0  0  0
  3  2  1  0  0  0  0
  5  4  1  6  0  0  0
  5  7  1  0  0  0  0
  5  6  1  0  0  0  0
  6 40  1  6  0  0  0
  7  2  1  6  0  0  0
  7  6  1  0  0  0  0
  8 21  1  6  0  0  0
  8 23  1  0  0  0  0
  8 19  1  0  0  0  0
  9 14  1  6  0  0  0
  9 22  1  0  0  0  0
  9  1  1  0  0  0  0
 10 20  2  0  0  0  0
 11 14  1  6  0  0  0
 11 22  1  0  0  0  0
 15 10  2  0  0  0  0
 16 12  1  0  0  0  0
 17 25  1  0  0  0  0
 18 15  1  0  0  0  0
 19 18  2  0  0  0  0
 20 11  1  0  0  0  0
 20 17  1  0  0  0  0
 22 16  1  6  0  0  0
 23 13  1  1  0  0  0
 23 24  1  0  0  0  0
 24 13  1  1  0  0  0
 24 15  1  0  0  0  0
 25 16  2  0  0  0  0
 27 26  1  0  0  0  0
 28 27  1  0  0  0  0
 30 36  2  0  0  0  0
 32 29  1  0  0  0  0
 32 37  1  0  0  0  0
 33 36  1  0  0  0  0
 33 34  2  0  0  0  0
 34 35  1  0  0  0  0
 35 37  1  0  0  0  0
 35 28  1  6  0  0  0
 36 32  1  0  0  0  0
 37 31  2  0  0  0  0
 38 33  1  0  0  0  0
 39 38  1  0  0  0  0
 40 42  1  0  0  0  0
 40 52  1  1  0  0  0
 42 41  1  1  0  0  0
 43 47  1  1  0  0  0
 43 42  1  0  0  0  0
 44 46  1  0  0  0  0
 44 45  1  0  0  0  0
 45 43  1  0  0  0  0
 46 45  1  0  0  0  0
 48 47  1  0  0  0  0
 48 49  1  0  0  0  0
 49 50  1  0  0  0  0
 52 51  1  0  0  0  0
M  END
>  <MODEL>
1

>  <REMARK>
 VINA RESULT:      -4.1      0.000      0.000
  Name = 
  14 active torsions:
  status: ('A' for Active; 'I' for Inactive)
    1  A    between atoms: C_2  and  C_19
    2  A    between atoms: N_3  and  C_6
    3  A    between atoms: O_4  and  C_7
    4  A    between atoms: O_4  and  C_19
    5  A    between atoms: C_7  and  C_15
    6  A    between atoms: C_7  and  C_22
    7  A    between atoms: C_8  and  C_34
    8  A    between atoms: C_8  and  N_43
    9  A    between atoms: C_15  and  C_51
   10  A    between atoms: C_24  and  C_28
   11  A    between atoms: C_31  and  C_35
   12  A    between atoms: C_31  and  N_43
   13  A    between atoms: S_41  and  C_51
   14  A    between atoms: C_48  and  C_51
                            x       y       z     vdW  Elec       q    Type
                         _______ _______ _______ _____ _____    ______ ____

>  <TORSDO>
F 14

$$$$
=
 OpenBabel11042420513D

 52 59  0  0  1  0  0  0  0  0999 V2000
  162.2880  210.7190  151.0130 N   0  0  2  0  0  0  0  0  0  0  0  0
  160.7870  208.6960  151.2520 C   0  0  0  0  0  2  0  0  0  0  0  0
  161.5710  209.6250  150.3190 C   0  0  2  0  0  3  0  0  0  0  0  0
  162.0650  210.7440  152.4690 C   0  0  0  0  0  2  0  0  0  0  0  0
  160.5680  210.6700  152.8400 C   0  0  2  0  0  3  0  0  0  0  0  0
  160.1630  209.4300  153.6530 C   0  0  1  0  0  3  0  0  0  0  0  0
  159.8490  209.5070  152.1510 C   0  0  2  0  0  3  0  0  0  0  0  0
  162.1990  213.0680  142.6330 C   0  0  1  0  0  3  0  0  0  0  0  0
  161.8940  212.0190  150.4530 C   0  0  1  0  0  3  0  0  0  0  0  0
  160.8600  213.3220  146.5200 C   0  0  0  0  0  0  0  0  0  0  0  0
  160.8640  212.0050  148.5520 C   0  0  2  0  0  3  0  0  0  0  0  0
  159.7270  213.5710  151.8650 O   0  0  0  0  0  1  0  0  0  0  0  0
  163.6350  212.9130  144.6330 C   0  0  0  0  0  2  0  0  0  0  0  0
  162.3160  212.0920  148.9890 C   0  0  0  0  0  2  0  0  0  0  0  0
  161.2820  213.4230  145.2910 C   0  0  0  0  0  0  0  0  0  0  0  0
  159.7800  213.3070  150.5010 C   0  0  0  0  0  0  0  0  0  0  0  0
  159.2380  213.9730  148.1780 C   0  0  0  0  0  2  0  0  0  0  0  0
  160.3140  213.3210  144.1940 C   0  0  0  0  0  3  0  0  0  0  0  0
  160.7390  213.2120  142.9410 C   0  0  0  0  0  3  0  0  0  0  0  0
  160.4450  213.2060  147.7510 C   0  0  0  0  0  0  0  0  0  0  0  0
  162.4350  213.4400  141.3230 F   0  0  0  0  0  0  0  0  0  0  0  0
  160.4260  212.0240  150.0250 C   0  0  2  0  0  3  0  0  0  0  0  0
  163.1130  213.8670  143.5730 C   0  0  2  0  0  3  0  0  0  0  0  0
  162.6520  213.9900  145.0370 C   0  0  2  0  0  3  0  0  0  0  0  0
  159.2600  214.1960  149.6550 C   0  0  0  0  0  3  0  0  0  0  0  0
  162.5670  208.8110  149.5100 C   0  0  0  0  0  2  0  0  0  0  0  0
  161.9440  208.3160  148.2940 N   0  0  0  0  0  2  0  0  0  0  0  0
  162.2130  206.8870  148.2150 C   0  0  0  0  0  2  0  0  0  0  0  0
  160.9800  203.0500  150.4060 C   0  0  0  0  0  1  0  0  0  0  0  0
  161.6250  201.9930  147.8790 O   0  0  0  0  0  0  0  0  0  0  0  0
  160.1460  205.7370  150.2510 O   0  0  0  0  0  0  0  0  0  0  0  0
  160.9960  203.8370  149.1820 N   0  0  0  0  0  0  0  0  0  0  0  0
  161.2280  204.0070  146.6840 C   0  0  0  0  0  0  0  0  0  0  0  0
  161.0120  205.3230  146.7330 C   0  0  0  0  0  3  0  0  0  0  0  0
  160.9200  206.1040  148.0170 C   0  0  1  0  0  3  0  0  0  0  0  0
  161.3100  203.2170  147.9270 C   0  0  0  0  0  0  0  0  0  0  0  0
  160.6450  205.2260  149.2090 C   0  0  0  0  0  0  0  0  0  0  0  0
  161.3840  203.3510  145.3560 C   0  0  0  0  0  2  0  0  0  0  0  0
  160.3210  203.7140  144.5290 O   0  0  0  0  0  1  0  0  0  0  0  0
  161.3330  208.5000  154.0480 C   0  0  1  0  0  3  0  0  0  0  0  0
  161.5040  207.3700  156.3520 C   0  0  0  0  0  1  0  0  0  0  0  0
  161.7810  208.6180  155.5150 C   0  0  2  0  0  3  0  0  0  0  0  0
  161.1460  209.8590  156.1440 C   0  0  2  0  0  3  0  0  0  0  0  0
  162.3680  211.8560  156.9730 C   0  0  0  0  0  2  0  0  0  0  0  0
  162.0220  210.4070  157.2610 C   0  0  0  0  0  3  0  0  0  0  0  0
  163.3810  210.7640  156.6900 C   0  0  0  0  0  2  0  0  0  0  0  0
  159.8630  209.5710  156.6280 O   0  0  0  0  0  0  0  0  0  0  0  0
  159.3170  210.8140  156.9630 C   0  0  0  0  0  2  0  0  0  0  0  0
  158.1530  211.1370  156.0330 C   0  0  0  0  0  2  0  0  0  0  0  0
  158.4390  212.4190  155.2570 C   0  0  0  0  0  1  0  0  0  0  0  0
  162.5110  206.4480  152.7540 C   0  0  0  0  0  1  0  0  0  0  0  0
  160.9520  206.7570  153.6410 S   0  0  0  0  0  0  0  0  0  0  0  0
  1  4  1  1  0  0  0
  3 26  1  1  0  0  0
  3  1  1  0  0  0  0
  3  2  1  0  0  0  0
  5  4  1  6  0  0  0
  5  6  1  0  0  0  0
  6 40  1  6  0  0  0
  7  2  1  6  0  0  0
  7  5  1  0  0  0  0
  7  6  1  0  0  0  0
  8 21  1  6  0  0  0
  8 19  1  0  0  0  0
  8 23  1  0  0  0  0
  9 14  1  6  0  0  0
  9  1  1  0  0  0  0
 10 20  2  0  0  0  0
 11 14  1  1  0  0  0
 11 22  1  0  0  0  0
 15 10  2  0  0  0  0
 16 12  1  0  0  0  0
 17 25  1  0  0  0  0
 18 15  1  0  0  0  0
 19 18  2  0  0  0  0
 20 17  1  0  0  0  0
 20 11  1  0  0  0  0
 22  9  1  0  0  0  0
 22 16  1  6  0  0  0
 23 13  1  1  0  0  0
 23 24  1  0  0  0  0
 24 13  1  1  0  0  0
 24 15  1  0  0  0  0
 25 16  2  0  0  0  0
 27 26  1  0  0  0  0
 28 27  1  0  0  0  0
 30 36  2  0  0  0  0
 32 37  1  0  0  0  0
 32 29  1  0  0  0  0
 33 34  2  0  0  0  0
 33 36  1  0  0  0  0
 34 35  1  0  0  0  0
 35 28  1  1  0  0  0
 35 37  1  0  0  0  0
 36 32  1  0  0  0  0
 37 31  2  0  0  0  0
 38 33  1  0  0  0  0
 39 38  1  0  0  0  0
 40 52  1  1  0  0  0
 40 42  1  0  0  0  0
 42 43  1  0  0  0  0
 42 41  1  1  0  0  0
 43 47  1  1  0  0  0
 43 45  1  0  0  0  0
 44 45  1  0  0  0  0
 46 44  1  0  0  0  0
 46 45  1  0  0  0  0
 47 48  1  0  0  0  0
 49 48  1  0  0  0  0
 50 49  1  0  0  0  0
 51 52  1  0  0  0  0
M  END
>  <MODEL>
2

>  <REMARK>
 VINA RESULT:      -3.8      2.980      7.051
  Name = 
  14 active torsions:
  status: ('A' for Active; 'I' for Inactive)
    1  A    between atoms: C_2  and  C_19
    2  A    between atoms: N_3  and  C_6
    3  A    between atoms: O_4  and  C_7
    4  A    between atoms: O_4  and  C_19
    5  A    between atoms: C_7  and  C_15
    6  A    between atoms: C_7  and  C_22
    7  A    between atoms: C_8  and  C_34
    8  A    between atoms: C_8  and  N_43
    9  A    between atoms: C_15  and  C_51
   10  A    between atoms: C_24  and  C_28
   11  A    between atoms: C_31  and  C_35
   12  A    between atoms: C_31  and  N_43
   13  A    between atoms: S_41  and  C_51
   14  A    between atoms: C_48  and  C_51
                            x       y       z     vdW  Elec       q    Type
                         _______ _______ _______ _____ _____    ______ ____

>  <TORSDO>
F 14

$$$$
=
 OpenBabel11042420513D

 52 59  0  0  1  0  0  0  0  0999 V2000
  160.7800  212.9540  150.5750 N   0  0  2  0  0  0  0  0  0  0  0  0
  159.9290  210.8810  151.7500 C   0  0  0  0  0  2  0  0  0  0  0  0
  160.5300  211.4980  150.4820 C   0  0  2  0  0  3  0  0  0  0  0  0
  160.3480  213.5490  151.8520 C   0  0  0  0  0  2  0  0  0  0  0  0
  158.9030  213.1580  152.2300 C   0  0  2  0  0  3  0  0  0  0  0  0
  158.7710  212.3540  153.5340 C   0  0  1  0  0  3  0  0  0  0  0  0
  158.6720  211.6450  152.1730 C   0  0  2  0  0  3  0  0  0  0  0  0
  162.5460  212.4180  142.0700 C   0  0  1  0  0  3  0  0  0  0  0  0
  160.1040  213.6560  149.4760 C   0  0  1  0  0  3  0  0  0  0  0  0
  160.0070  213.0710  145.2470 C   0  0  0  0  0  0  0  0  0  0  0  0
  159.8670  212.5820  147.6150 C   0  0  2  0  0  3  0  0  0  0  0  0
  157.1600  214.2430  149.7670 O   0  0  0  0  0  1  0  0  0  0  0  0
  163.1640  213.5860  144.1520 C   0  0  0  0  0  2  0  0  0  0  0  0
  160.9220  213.5070  148.1970 C   0  0  0  0  0  2  0  0  0  0  0  0
  160.7350  213.0120  144.1680 C   0  0  0  0  0  0  0  0  0  0  0  0
  157.7660  213.6620  148.6600 C   0  0  0  0  0  0  0  0  0  0  0  0
  157.8100  213.2660  146.2150 C   0  0  0  0  0  2  0  0  0  0  0  0
  160.3190  212.1280  143.0750 C   0  0  0  0  0  3  0  0  0  0  0  0
  161.1430  211.8920  142.0600 C   0  0  0  0  0  3  0  0  0  0  0  0
  159.2900  213.1230  146.3360 C   0  0  0  0  0  0  0  0  0  0  0  0
  163.0330  212.4630  140.7770 F   0  0  0  0  0  0  0  0  0  0  0  0
  158.9950  212.8020  148.8610 C   0  0  2  0  0  3  0  0  0  0  0  0
  162.6860  213.7980  142.7270 C   0  0  2  0  0  3  0  0  0  0  0  0
  161.7570  214.0880  143.9190 C   0  0  2  0  0  3  0  0  0  0  0  0
  157.2450  213.8840  147.4530 C   0  0  0  0  0  3  0  0  0  0  0  0
  161.8290  210.7910  150.1390 C   0  0  0  0  0  2  0  0  0  0  0  0
  162.3190  210.0480  151.2890 N   0  0  0  0  0  2  0  0  0  0  0  0
  162.4740  208.6600  150.8790 C   0  0  0  0  0  2  0  0  0  0  0  0
  161.2920  204.5040  152.4210 C   0  0  0  0  0  1  0  0  0  0  0  0
  161.5050  203.9690  149.6660 O   0  0  0  0  0  0  0  0  0  0  0  0
  160.6350  207.1960  152.9310 O   0  0  0  0  0  0  0  0  0  0  0  0
  161.1930  205.5260  151.3890 N   0  0  0  0  0  0  0  0  0  0  0  0
  161.0880  206.2010  148.9700 C   0  0  0  0  0  0  0  0  0  0  0  0
  160.9720  207.4860  149.3120 C   0  0  0  0  0  3  0  0  0  0  0  0
  161.1150  207.9860  150.7250 C   0  0  1  0  0  3  0  0  0  0  0  0
  161.2860  205.1680  150.0040 C   0  0  0  0  0  0  0  0  0  0  0  0
  160.9470  206.8930  151.7450 C   0  0  0  0  0  0  0  0  0  0  0  0
  161.0120  205.8290  147.5300 C   0  0  0  0  0  2  0  0  0  0  0  0
  160.8110  206.9770  146.7610 O   0  0  0  0  0  1  0  0  0  0  0  0
  160.0930  212.1430  154.3060 C   0  0  1  0  0  3  0  0  0  0  0  0
  161.2370  212.0080  156.6050 C   0  0  0  0  0  1  0  0  0  0  0  0
  160.0200  212.4730  155.8060 C   0  0  2  0  0  3  0  0  0  0  0  0
  158.7250  211.9090  156.3920 C   0  0  2  0  0  3  0  0  0  0  0  0
  156.6980  213.3440  156.3790 C   0  0  0  0  0  2  0  0  0  0  0  0
  157.9580  212.9850  157.1450 C   0  0  0  0  0  3  0  0  0  0  0  0
  157.9160  214.2430  156.2990 C   0  0  0  0  0  2  0  0  0  0  0  0
  158.9910  210.8210  157.2330 O   0  0  0  0  0  0  0  0  0  0  0  0
  158.9480  209.7000  156.3980 C   0  0  0  0  0  2  0  0  0  0  0  0
  159.9680  208.6660  156.8640 C   0  0  0  0  0  2  0  0  0  0  0  0
  159.6170  207.2910  156.3030 C   0  0  0  0  0  1  0  0  0  0  0  0
  162.3570  210.7690  154.8160 C   0  0  0  0  0  1  0  0  0  0  0  0
  160.7320  210.4450  154.0620 S   0  0  0  0  0  0  0  0  0  0  0  0
  1  4  1  1  0  0  0
  3 26  1  1  0  0  0
  3  1  1  0  0  0  0
  3  2  1  0  0  0  0
  5  4  1  1  0  0  0
  5  6  1  0  0  0  0
  6 40  1  1  0  0  0
  7  2  1  1  0  0  0
  7  5  1  0  0  0  0
  7  6  1  0  0  0  0
  8 21  1  6  0  0  0
  8 23  1  0  0  0  0
  9 14  1  6  0  0  0
  9  1  1  0  0  0  0
 10 20  2  0  0  0  0
 11 14  1  1  0  0  0
 11 22  1  0  0  0  0
 15 10  2  0  0  0  0
 16 12  1  0  0  0  0
 17 20  1  0  0  0  0
 17 25  1  0  0  0  0
 18 15  1  0  0  0  0
 19  8  1  0  0  0  0
 19 18  2  0  0  0  0
 20 11  1  0  0  0  0
 22 16  1  6  0  0  0
 22  9  1  0  0  0  0
 23 24  1  0  0  0  0
 23 13  1  1  0  0  0
 24 13  1  1  0  0  0
 24 15  1  0  0  0  0
 25 16  2  0  0  0  0
 26 27  1  0  0  0  0
 28 27  1  0  0  0  0
 30 36  2  0  0  0  0
 32 37  1  0  0  0  0
 32 29  1  0  0  0  0
 33 34  2  0  0  0  0
 33 36  1  0  0  0  0
 34 35  1  0  0  0  0
 35 28  1  6  0  0  0
 35 37  1  0  0  0  0
 36 32  1  0  0  0  0
 37 31  2  0  0  0  0
 38 33  1  0  0  0  0
 39 38  1  0  0  0  0
 40 52  1  1  0  0  0
 40 42  1  0  0  0  0
 42 43  1  0  0  0  0
 42 41  1  1  0  0  0
 43 45  1  0  0  0  0
 43 47  1  1  0  0  0
 44 45  1  0  0  0  0
 46 44  1  0  0  0  0
 46 45  1  0  0  0  0
 48 49  1  0  0  0  0
 48 47  1  0  0  0  0
 50 49  1  0  0  0  0
 52 51  1  0  0  0  0
M  END
>  <MODEL>
3

>  <REMARK>
 VINA RESULT:      -3.0      2.416      6.695
  Name = 
  14 active torsions:
  status: ('A' for Active; 'I' for Inactive)
    1  A    between atoms: C_2  and  C_19
    2  A    between atoms: N_3  and  C_6
    3  A    between atoms: O_4  and  C_7
    4  A    between atoms: O_4  and  C_19
    5  A    between atoms: C_7  and  C_15
    6  A    between atoms: C_7  and  C_22
    7  A    between atoms: C_8  and  C_34
    8  A    between atoms: C_8  and  N_43
    9  A    between atoms: C_15  and  C_51
   10  A    between atoms: C_24  and  C_28
   11  A    between atoms: C_31  and  C_35
   12  A    between atoms: C_31  and  N_43
   13  A    between atoms: S_41  and  C_51
   14  A    between atoms: C_48  and  C_51
                            x       y       z     vdW  Elec       q    Type
                         _______ _______ _______ _____ _____    ______ ____

>  <TORSDO>
F 14

$$$$
=
 OpenBabel11042420513D

 52 59  0  0  1  0  0  0  0  0999 V2000
  160.6820  208.6030  152.4510 N   0  0  2  0  0  0  0  0  0  0  0  0
  162.5430  209.2510  154.0380 C   0  0  0  0  0  2  0  0  0  0  0  0
  162.1390  208.7900  152.6340 C   0  0  2  0  0  3  0  0  0  0  0  0
  159.8960  208.8390  153.6740 C   0  0  0  0  0  2  0  0  0  0  0  0
  160.4560  208.0760  154.8950 C   0  0  2  0  0  3  0  0  0  0  0  0
  160.9400  208.9690  156.0490 C   0  0  1  0  0  3  0  0  0  0  0  0
  161.9550  208.3160  155.0980 C   0  0  2  0  0  3  0  0  0  0  0  0
  161.8330  205.5140  144.3960 C   0  0  1  0  0  3  0  0  0  0  0  0
  160.4020  207.2440  151.9660 C   0  0  1  0  0  3  0  0  0  0  0  0
  161.5880  205.0750  148.4840 C   0  0  0  0  0  0  0  0  0  0  0  0
  161.7500  206.4250  150.4880 C   0  0  2  0  0  3  0  0  0  0  0  0
  160.7640  204.9500  153.8890 O   0  0  0  0  0  1  0  0  0  0  0  0
  160.2420  206.7120  145.8500 C   0  0  0  0  0  2  0  0  0  0  0  0
  160.4610  207.2260  150.4410 C   0  0  0  0  0  2  0  0  0  0  0  0
  161.5630  205.0650  147.1810 C   0  0  0  0  0  0  0  0  0  0  0  0
  161.2700  205.0130  152.5960 C   0  0  0  0  0  0  0  0  0  0  0  0
  161.9780  203.8550  150.5240 C   0  0  0  0  0  2  0  0  0  0  0  0
  162.6810  204.4600  146.4510 C   0  0  0  0  0  3  0  0  0  0  0  0
  162.7810  204.6190  145.1370 C   0  0  0  0  0  3  0  0  0  0  0  0
  161.6150  205.1010  149.7880 C   0  0  0  0  0  0  0  0  0  0  0  0
  161.8200  205.1670  143.0580 F   0  0  0  0  0  0  0  0  0  0  0  0
  161.6480  206.3610  152.0200 C   0  0  2  0  0  3  0  0  0  0  0  0
  160.4030  205.4980  144.9520 C   0  0  2  0  0  3  0  0  0  0  0  0
  160.2610  205.3350  146.4770 C   0  0  2  0  0  3  0  0  0  0  0  0
  161.4050  203.8820  151.9040 C   0  0  0  0  0  3  0  0  0  0  0  0
  162.6460  209.7870  151.6060 C   0  0  0  0  0  2  0  0  0  0  0  0
  161.5470  210.5920  151.0990 N   0  0  0  0  0  2  0  0  0  0  0  0
  161.8280  210.8860  149.7010 C   0  0  0  0  0  2  0  0  0  0  0  0
  157.9780  213.2870  149.0240 C   0  0  0  0  0  1  0  0  0  0  0  0
  158.9860  213.2140  146.3970 O   0  0  0  0  0  0  0  0  0  0  0  0
  160.0260  213.1060  150.9510 O   0  0  0  0  0  0  0  0  0  0  0  0
  159.3800  213.0610  148.7020 N   0  0  0  0  0  0  0  0  0  0  0  0
  161.2560  212.9290  147.0340 C   0  0  0  0  0  0  0  0  0  0  0  0
  162.1290  212.6540  148.0070 C   0  0  0  0  0  3  0  0  0  0  0  0
  161.7270  212.3830  149.4320 C   0  0  1  0  0  3  0  0  0  0  0  0
  159.8190  213.0640  147.3370 C   0  0  0  0  0  0  0  0  0  0  0  0
  160.3440  212.8860  149.7490 C   0  0  0  0  0  0  0  0  0  0  0  0
  161.7580  213.0970  145.6420 C   0  0  0  0  0  2  0  0  0  0  0  0
  161.9810  214.4510  145.3860 O   0  0  0  0  0  1  0  0  0  0  0  0
  160.7050  210.4830  155.8440 C   0  0  1  0  0  3  0  0  0  0  0  0
  158.3600  209.9140  156.7290 C   0  0  0  0  0  1  0  0  0  0  0  0
  159.3740  211.0090  156.4060 C   0  0  2  0  0  3  0  0  0  0  0  0
  158.7860  212.0420  155.4440 C   0  0  2  0  0  3  0  0  0  0  0  0
  159.3040  214.4490  155.7740 C   0  0  0  0  0  2  0  0  0  0  0  0
  158.3910  213.3100  156.1860 C   0  0  0  0  0  3  0  0  0  0  0  0
  159.5360  213.7290  157.0880 C   0  0  0  0  0  2  0  0  0  0  0  0
  157.6830  211.5140  154.7590 O   0  0  0  0  0  0  0  0  0  0  0  0
  156.9010  212.6240  154.4270 C   0  0  0  0  0  2  0  0  0  0  0  0
  157.0510  212.9390  152.9430 C   0  0  0  0  0  2  0  0  0  0  0  0
  156.4990  214.3300  152.6420 C   0  0  0  0  0  1  0  0  0  0  0  0
  162.9660  210.0370  157.2450 C   0  0  0  0  0  1  0  0  0  0  0  0
  162.1040  211.4600  156.5090 S   0  0  0  0  0  0  0  0  0  0  0  0
  1  3  1  0  0  0  0
  1  4  1  1  0  0  0
  3 26  1  6  0  0  0
  3  2  1  0  0  0  0
  5  4  1  6  0  0  0
  5  7  1  0  0  0  0
  5  6  1  0  0  0  0
  6 40  1  6  0  0  0
  7  2  1  6  0  0  0
  7  6  1  0  0  0  0
  8 21  1  6  0  0  0
  8 23  1  0  0  0  0
  8 19  1  0  0  0  0
  9 14  1  6  0  0  0
  9 22  1  0  0  0  0
  9  1  1  0  0  0  0
 10 20  2  0  0  0  0
 11 14  1  6  0  0  0
 11 22  1  0  0  0  0
 15 10  2  0  0  0  0
 16 12  1  0  0  0  0
 17 25  1  0  0  0  0
 18 15  1  0  0  0  0
 19 18  2  0  0  0  0
 20 11  1  0  0  0  0
 20 17  1  0  0  0  0
 22 16  1  6  0  0  0
 23 13  1  1  0  0  0
 23 24  1  0  0  0  0
 24 13  1  1  0  0  0
 24 15  1  0  0  0  0
 25 16  2  0  0  0  0
 27 26  1  0  0  0  0
 28 27  1  0  0  0  0
 30 36  2  0  0  0  0
 32 29  1  0  0  0  0
 32 37  1  0  0  0  0
 33 36  1  0  0  0  0
 33 34  2  0  0  0  0
 34 35  1  0  0  0  0
 35 28  1  6  0  0  0
 35 37  1  0  0  0  0
 36 32  1  0  0  0  0
 37 31  2  0  0  0  0
 38 33  1  0  0  0  0
 39 38  1  0  0  0  0
 40 42  1  0  0  0  0
 40 52  1  1  0  0  0
 42 41  1  6  0  0  0
 43 47  1  1  0  0  0
 43 45  1  0  0  0  0
 43 42  1  0  0  0  0
 44 45  1  0  0  0  0
 44 46  1  0  0  0  0
 45 46  1  0  0  0  0
 48 47  1  0  0  0  0
 49 48  1  0  0  0  0
 50 49  1  0  0  0  0
 52 51  1  0  0  0  0
M  END
>  <MODEL>
4

>  <REMARK>
 VINA RESULT:      -3.0      0.944      1.474
  Name = 
  14 active torsions:
  status: ('A' for Active; 'I' for Inactive)
    1  A    between atoms: C_2  and  C_19
    2  A    between atoms: N_3  and  C_6
    3  A    between atoms: O_4  and  C_7
    4  A    between atoms: O_4  and  C_19
    5  A    between atoms: C_7  and  C_15
    6  A    between atoms: C_7  and  C_22
    7  A    between atoms: C_8  and  C_34
    8  A    between atoms: C_8  and  N_43
    9  A    between atoms: C_15  and  C_51
   10  A    between atoms: C_24  and  C_28
   11  A    between atoms: C_31  and  C_35
   12  A    between atoms: C_31  and  N_43
   13  A    between atoms: S_41  and  C_51
   14  A    between atoms: C_48  and  C_51
                            x       y       z     vdW  Elec       q    Type
                         _______ _______ _______ _____ _____    ______ ____

>  <TORSDO>
F 14

$$$$
=
 OpenBabel11042420513D

 52 59  0  0  1  0  0  0  0  0999 V2000
  161.0270  212.6910  150.3540 N   0  0  2  0  0  0  0  0  0  0  0  0
  160.2380  210.5910  151.5260 C   0  0  0  0  0  2  0  0  0  0  0  0
  160.7980  211.2320  150.2510 C   0  0  2  0  0  3  0  0  0  0  0  0
  160.6160  213.2650  151.6470 C   0  0  0  0  0  2  0  0  0  0  0  0
  159.1860  212.8460  152.0550 C   0  0  2  0  0  3  0  0  0  0  0  0
  159.0980  212.0260  153.3520 C   0  0  1  0  0  3  0  0  0  0  0  0
  158.9790  211.3300  151.9870 C   0  0  2  0  0  3  0  0  0  0  0  0
  162.5450  212.2090  141.7980 C   0  0  1  0  0  3  0  0  0  0  0  0
  160.3130  213.3930  149.2790 C   0  0  1  0  0  3  0  0  0  0  0  0
  160.0960  212.8270  145.0520 C   0  0  0  0  0  0  0  0  0  0  0  0
  160.0300  212.3260  147.4200 C   0  0  2  0  0  3  0  0  0  0  0  0
  157.3750  213.9560  149.6590 O   0  0  0  0  0  1  0  0  0  0  0  0
  163.2150  213.3710  143.8670 C   0  0  0  0  0  2  0  0  0  0  0  0
  161.0940  213.2560  147.9750 C   0  0  0  0  0  2  0  0  0  0  0  0
  160.7930  212.7790  143.9520 C   0  0  0  0  0  0  0  0  0  0  0  0
  157.9530  213.3850  148.5320 C   0  0  0  0  0  0  0  0  0  0  0  0
  157.9270  213.0010  146.0850 C   0  0  0  0  0  2  0  0  0  0  0  0
  160.3510  211.8970  142.8660 C   0  0  0  0  0  3  0  0  0  0  0  0
  161.1460  211.6720  141.8270 C   0  0  0  0  0  3  0  0  0  0  0  0
  159.4120  212.8680  146.1610 C   0  0  0  0  0  0  0  0  0  0  0  0
  162.9930  212.2640  140.4910 F   0  0  0  0  0  0  0  0  0  0  0  0
  159.1930  212.5330  148.6930 C   0  0  2  0  0  3  0  0  0  0  0  0
  162.6950  213.5870  142.4580 C   0  0  2  0  0  3  0  0  0  0  0  0
  161.7980  213.8640  143.6780 C   0  0  2  0  0  3  0  0  0  0  0  0
  157.3940  213.6090  147.3420 C   0  0  0  0  0  3  0  0  0  0  0  0
  162.1010  210.5500  149.8700 C   0  0  0  0  0  2  0  0  0  0  0  0
  162.2840  209.3380  150.6530 N   0  0  0  0  0  2  0  0  0  0  0  0
  162.4050  208.2290  149.7190 C   0  0  0  0  0  2  0  0  0  0  0  0
  161.3030  204.0610  151.2890 C   0  0  0  0  0  1  0  0  0  0  0  0
  161.5810  203.5000  148.5450 O   0  0  0  0  0  0  0  0  0  0  0  0
  160.5660  206.7410  151.7540 O   0  0  0  0  0  0  0  0  0  0  0  0
  161.1960  205.0690  150.2430 N   0  0  0  0  0  0  0  0  0  0  0  0
  161.1190  205.7120  147.8140 C   0  0  0  0  0  0  0  0  0  0  0  0
  160.9640  206.9980  148.1390 C   0  0  0  0  0  3  0  0  0  0  0  0
  161.0670  207.5180  149.5480 C   0  0  1  0  0  3  0  0  0  0  0  0
  161.3250  204.6970  148.8640 C   0  0  0  0  0  0  0  0  0  0  0  0
  160.9090  206.4320  150.5780 C   0  0  0  0  0  0  0  0  0  0  0  0
  161.0800  205.3220  146.3780 C   0  0  0  0  0  2  0  0  0  0  0  0
  162.3820  205.1360  145.9100 O   0  0  0  0  0  1  0  0  0  0  0  0
  160.4410  211.8290  154.0910 C   0  0  1  0  0  3  0  0  0  0  0  0
  161.2170  211.5040  156.5210 C   0  0  0  0  0  1  0  0  0  0  0  0
  160.4760  212.3920  155.5220 C   0  0  2  0  0  3  0  0  0  0  0  0
  159.0500  212.6820  155.9920 C   0  0  2  0  0  3  0  0  0  0  0  0
  157.2660  211.2340  156.9350 C   0  0  0  0  0  2  0  0  0  0  0  0
  158.1390  211.4940  155.7220 C   0  0  0  0  0  3  0  0  0  0  0  0
  158.4910  210.3760  156.6830 C   0  0  0  0  0  2  0  0  0  0  0  0
  158.5460  213.8340  155.3740 O   0  0  0  0  0  0  0  0  0  0  0  0
  157.1790  213.8300  155.6650 C   0  0  0  0  0  2  0  0  0  0  0  0
  156.3850  214.2610  154.4360 C   0  0  0  0  0  2  0  0  0  0  0  0
  154.9100  214.4210  154.7920 C   0  0  0  0  0  1  0  0  0  0  0  0
  162.7140  210.3950  154.3200 C   0  0  0  0  0  1  0  0  0  0  0  0
  160.9380  210.0680  154.0910 S   0  0  0  0  0  0  0  0  0  0  0  0
  1  4  1  1  0  0  0
  3 26  1  1  0  0  0
  3  1  1  0  0  0  0
  3  2  1  0  0  0  0
  5  4  1  6  0  0  0
  5  6  1  0  0  0  0
  6 40  1  6  0  0  0
  7  2  1  6  0  0  0
  7  5  1  0  0  0  0
  7  6  1  0  0  0  0
  8 21  1  6  0  0  0
  8 19  1  0  0  0  0
  8 23  1  0  0  0  0
  9 14  1  6  0  0  0
  9  1  1  0  0  0  0
 10 20  2  0  0  0  0
 11 14  1  1  0  0  0
 11 22  1  0  0  0  0
 15 10  2  0  0  0  0
 16 12  1  0  0  0  0
 17 20  1  0  0  0  0
 17 25  1  0  0  0  0
 18 15  1  0  0  0  0
 19 18  2  0  0  0  0
 20 11  1  0  0  0  0
 22 16  1  6  0  0  0
 22  9  1  0  0  0  0
 23 24  1  0  0  0  0
 23 13  1  1  0  0  0
 24 13  1  1  0  0  0
 24 15  1  0  0  0  0
 25 16  2  0  0  0  0
 26 27  1  0  0  0  0
 28 27  1  0  0  0  0
 30 36  2  0  0  0  0
 32 37  1  0  0  0  0
 32 29  1  0  0  0  0
 33 34  2  0  0  0  0
 33 36  1  0  0  0  0
 34 35  1  0  0  0  0
 35 28  1  6  0  0  0
 35 37  1  0  0  0  0
 36 32  1  0  0  0  0
 37 31  2  0  0  0  0
 38 33  1  0  0  0  0
 39 38  1  0  0  0  0
 40 52  1  1  0  0  0
 40 42  1  0  0  0  0
 42 43  1  0  0  0  0
 42 41  1  1  0  0  0
 43 47  1  6  0  0  0
 45 43  1  0  0  0  0
 45 46  1  0  0  0  0
 45 44  1  0  0  0  0
 46 44  1  0  0  0  0
 47 48  1  0  0  0  0
 49 50  1  0  0  0  0
 49 48  1  0  0  0  0
 52 51  1  0  0  0  0
M  END
>  <MODEL>
5

>  <REMARK>
 VINA RESULT:      -2.0      2.642      6.585
  Name = 
  14 active torsions:
  status: ('A' for Active; 'I' for Inactive)
    1  A    between atoms: C_2  and  C_19
    2  A    between atoms: N_3  and  C_6
    3  A    between atoms: O_4  and  C_7
    4  A    between atoms: O_4  and  C_19
    5  A    between atoms: C_7  and  C_15
    6  A    between atoms: C_7  and  C_22
    7  A    between atoms: C_8  and  C_34
    8  A    between atoms: C_8  and  N_43
    9  A    between atoms: C_15  and  C_51
   10  A    between atoms: C_24  and  C_28
   11  A    between atoms: C_31  and  C_35
   12  A    between atoms: C_31  and  N_43
   13  A    between atoms: S_41  and  C_51
   14  A    between atoms: C_48  and  C_51
                            x       y       z     vdW  Elec       q    Type
                         _______ _______ _______ _____ _____    ______ ____

>  <TORSDO>
F 14

$$$$
=
 OpenBabel11042420513D

 52 59  0  0  1  0  0  0  0  0999 V2000
  159.4550  212.5060  149.2680 N   0  0  2  0  0  0  0  0  0  0  0  0
  161.7260  212.2890  150.3630 C   0  0  0  0  0  2  0  0  0  0  0  0
  160.4450  213.1130  150.1850 C   0  0  2  0  0  3  0  0  0  0  0  0
  159.9120  211.2490  148.6500 C   0  0  0  0  0  2  0  0  0  0  0  0
  161.3190  211.3720  148.0260 C   0  0  2  0  0  3  0  0  0  0  0  0
  162.3870  210.4630  148.6540 C   0  0  1  0  0  3  0  0  0  0  0  0
  162.3430  211.9600  149.0020 C   0  0  2  0  0  3  0  0  0  0  0  0
  162.7660  212.9010  141.2290 C   0  0  1  0  0  3  0  0  0  0  0  0
  159.1030  213.4540  148.2020 C   0  0  1  0  0  3  0  0  0  0  0  0
  159.7610  213.4930  143.9820 C   0  0  0  0  0  0  0  0  0  0  0  0
  159.0990  212.7040  146.1740 C   0  0  2  0  0  3  0  0  0  0  0  0
  156.2610  214.4530  148.0740 O   0  0  0  0  0  1  0  0  0  0  0  0
  163.1110  213.6510  143.5530 C   0  0  0  0  0  2  0  0  0  0  0  0
  160.1300  213.3590  147.0770 C   0  0  0  0  0  2  0  0  0  0  0  0
  160.6730  213.4720  143.0520 C   0  0  0  0  0  0  0  0  0  0  0  0
  156.9920  213.9450  147.0060 C   0  0  0  0  0  0  0  0  0  0  0  0
  157.4610  213.8960  144.5750 C   0  0  0  0  0  2  0  0  0  0  0  0
  160.3670  212.8280  141.7700 C   0  0  0  0  0  3  0  0  0  0  0  0
  161.3360  212.6100  140.8880 C   0  0  0  0  0  3  0  0  0  0  0  0
  158.8580  213.5040  144.9240 C   0  0  0  0  0  0  0  0  0  0  0  0
  163.4980  213.0500  140.0660 F   0  0  0  0  0  0  0  0  0  0  0  0
  158.0360  212.8810  147.2700 C   0  0  2  0  0  3  0  0  0  0  0  0
  162.9530  214.1350  142.1230 C   0  0  2  0  0  3  0  0  0  0  0  0
  161.8530  214.3970  143.1680 C   0  0  2  0  0  3  0  0  0  0  0  0
  156.7500  214.4150  145.7820 C   0  0  0  0  0  3  0  0  0  0  0  0
  159.7960  213.3410  151.5400 C   0  0  0  0  0  2  0  0  0  0  0  0
  158.8140  212.3030  151.8100 N   0  0  0  0  0  2  0  0  0  0  0  0
  157.7940  212.8810  152.6720 C   0  0  0  0  0  2  0  0  0  0  0  0
  157.1300  214.4530  156.9310 C   0  0  0  0  0  1  0  0  0  0  0  0
  159.8000  213.5880  157.1320 O   0  0  0  0  0  0  0  0  0  0  0  0
  155.6940  213.0180  154.9770 O   0  0  0  0  0  0  0  0  0  0  0  0
  157.7280  213.4640  156.0450 N   0  0  0  0  0  0  0  0  0  0  0  0
  159.6510  211.9860  155.3860 C   0  0  0  0  0  0  0  0  0  0  0  0
  158.9510  211.5000  154.3580 C   0  0  0  0  0  3  0  0  0  0  0  0
  157.6130  212.0420  153.9330 C   0  0  1  0  0  3  0  0  0  0  0  0
  159.0900  213.0570  156.2300 C   0  0  0  0  0  0  0  0  0  0  0  0
  156.9460  212.8480  155.0140 C   0  0  0  0  0  0  0  0  0  0  0  0
  161.0030  211.4280  155.6650 C   0  0  0  0  0  2  0  0  0  0  0  0
  161.3000  210.4340  154.7310 O   0  0  0  0  0  1  0  0  0  0  0  0
  161.8650  209.5040  149.7480 C   0  0  1  0  0  3  0  0  0  0  0  0
  162.7140  207.6850  148.1420 C   0  0  0  0  0  1  0  0  0  0  0  0
  162.2750  208.0340  149.5630 C   0  0  2  0  0  3  0  0  0  0  0  0
  161.1380  207.1230  150.0290 C   0  0  2  0  0  3  0  0  0  0  0  0
  161.1360  205.8250  152.1460 C   0  0  0  0  0  2  0  0  0  0  0  0
  161.6850  205.8910  150.7330 C   0  0  0  0  0  3  0  0  0  0  0  0
  162.5430  206.3340  151.9030 C   0  0  0  0  0  2  0  0  0  0  0  0
  160.3250  206.7480  148.9510 O   0  0  0  0  0  0  0  0  0  0  0  0
  160.5710  205.3840  148.7720 C   0  0  0  0  0  2  0  0  0  0  0  0
  161.0450  205.1230  147.3470 C   0  0  0  0  0  2  0  0  0  0  0  0
  162.0470  203.9720  147.3270 C   0  0  0  0  0  1  0  0  0  0  0  0
  160.8270  209.5010  152.2380 C   0  0  0  0  0  1  0  0  0  0  0  0
  162.3410  210.0890  151.4160 S   0  0  0  0  0  0  0  0  0  0  0  0
  1  4  1  6  0  0  0
  1  3  1  0  0  0  0
  3  2  1  0  0  0  0
  3 26  1  1  0  0  0
  5  4  1  1  0  0  0
  5  6  1  0  0  0  0
  5  7  1  0  0  0  0
  6  7  1  0  0  0  0
  6 40  1  1  0  0  0
  7  2  1  1  0  0  0
  8 21  1  6  0  0  0
  8 23  1  0  0  0  0
  9 14  1  6  0  0  0
  9  1  1  0  0  0  0
 10 20  2  0  0  0  0
 11 14  1  1  0  0  0
 11 22  1  0  0  0  0
 15 24  1  0  0  0  0
 15 10  2  0  0  0  0
 16 12  1  0  0  0  0
 17 20  1  0  0  0  0
 17 25  1  0  0  0  0
 18 15  1  0  0  0  0
 19  8  1  0  0  0  0
 19 18  2  0  0  0  0
 20 11  1  0  0  0  0
 22 16  1  6  0  0  0
 22  9  1  0  0  0  0
 23 24  1  0  0  0  0
 23 13  1  1  0  0  0
 24 13  1  1  0  0  0
 25 16  2  0  0  0  0
 26 27  1  0  0  0  0
 27 28  1  0  0  0  0
 31 37  2  0  0  0  0
 32 36  1  0  0  0  0
 32 29  1  0  0  0  0
 33 38  1  0  0  0  0
 33 36  1  0  0  0  0
 34 33  2  0  0  0  0
 35 28  1  6  0  0  0
 35 34  1  0  0  0  0
 35 37  1  0  0  0  0
 36 30  2  0  0  0  0
 37 32  1  0  0  0  0
 39 38  1  0  0  0  0
 40 52  1  1  0  0  0
 42 41  1  6  0  0  0
 42 40  1  0  0  0  0
 42 43  1  0  0  0  0
 43 47  1  6  0  0  0
 43 45  1  0  0  0  0
 45 46  1  0  0  0  0
 45 44  1  0  0  0  0
 46 44  1  0  0  0  0
 48 47  1  0  0  0  0
 49 48  1  0  0  0  0
 50 49  1  0  0  0  0
 52 51  1  0  0  0  0
M  END
>  <MODEL>
6

>  <REMARK>
 VINA RESULT:      -1.2      2.843      8.638
  Name = 
  14 active torsions:
  status: ('A' for Active; 'I' for Inactive)
    1  A    between atoms: C_2  and  C_19
    2  A    between atoms: N_3  and  C_6
    3  A    between atoms: O_4  and  C_7
    4  A    between atoms: O_4  and  C_19
    5  A    between atoms: C_7  and  C_15
    6  A    between atoms: C_7  and  C_22
    7  A    between atoms: C_8  and  C_34
    8  A    between atoms: C_8  and  N_43
    9  A    between atoms: C_15  and  C_51
   10  A    between atoms: C_24  and  C_28
   11  A    between atoms: C_31  and  C_35
   12  A    between atoms: C_31  and  N_43
   13  A    between atoms: S_41  and  C_51
   14  A    between atoms: C_48  and  C_51
                            x       y       z     vdW  Elec       q    Type
                         _______ _______ _______ _____ _____    ______ ____

>  <TORSDO>
F 14

$$$$
