=
 OpenBabel11042422233D

 58 66  0  0  1  0  0  0  0  0999 V2000
  157.5670  212.4350  153.9560 C   0  0  1  0  0  3  0  0  0  0  0  0
  158.7850  213.5520  149.7870 C   0  0  1  0  0  3  0  0  0  0  0  0
  159.1060  212.2870  148.9660 C   0  0  1  0  0  3  0  0  0  0  0  0
  158.5070  212.4180  147.5860 C   0  0  0  0  0  3  0  0  0  0  0  0
  157.3170  213.0180  147.4400 C   0  0  0  0  0  3  0  0  0  0  0  0
  156.6530  213.5820  148.5870 N   0  0  0  0  0  0  0  0  0  0  0  0
  156.2400  211.8840  154.4040 C   0  0  0  0  0  0  0  0  0  0  0  0
  156.3750  213.5460  156.2640 C   0  0  0  0  0  2  0  0  0  0  0  0
  157.8060  213.0530  156.4650 C   0  0  0  0  0  2  0  0  0  0  0  0
  159.5750  211.6160  155.2860 C   0  0  2  0  0  3  0  0  0  0  0  0
  155.7070  210.9940  153.7650 O   0  0  0  0  0  0  0  0  0  0  0  0
  155.5410  212.4480  155.6110 C   0  0  0  0  0  2  0  0  0  0  0  0
  157.3320  213.8400  149.6670 C   0  0  0  0  0  0  0  0  0  0  0  0
  161.0790  212.4860  153.3670 C   0  0  0  0  0  2  0  0  0  0  0  0
  160.2170  213.8200  151.8040 C   0  0  0  0  0  2  0  0  0  0  0  0
  156.7270  213.9850  150.9340 N   0  0  0  0  0  0  0  0  0  0  0  0
  160.2640  211.3180  153.9290 C   0  0  1  0  0  3  0  0  0  0  0  0
  157.6580  213.7200  151.7900 C   0  0  0  0  0  0  0  0  0  0  0  0
  160.2560  213.6030  153.1800 O   0  0  0  0  0  0  0  0  0  0  0  0
  157.3580  213.6540  153.1840 N   0  0  0  0  0  2  0  0  0  0  0  0
  158.5140  212.7220  155.1370 C   0  0  1  0  0  3  0  0  0  0  0  0
  158.9450  213.3880  151.2250 N   0  0  0  0  0  0  0  0  0  0  0  0
  162.2910  213.5180  147.9860 C   0  0  2  0  0  3  0  0  0  0  0  0
  160.5970  211.9450  148.8800 C   0  0  2  0  0  3  0  0  0  0  0  0
  162.3070  210.0010  148.5940 C   0  0  0  0  0  2  0  0  0  0  0  0
  161.1960  212.5220  147.5950 C   0  0  2  0  0  3  0  0  0  0  0  0
  162.6150  214.4260  146.8380 C   0  0  0  0  0  2  0  0  0  0  0  0
  160.9230  210.4440  149.0980 C   0  0  1  0  0  3  0  0  0  0  0  0
  163.1820  212.2410  146.1440 O   0  0  0  0  0  0  0  0  0  0  0  0
  162.6690  212.1690  147.4470 C   0  0  1  0  0  0  0  0  0  0  0  0
  163.2700  211.1700  148.4280 C   0  0  0  0  0  2  0  0  0  0  0  0
  163.5070  213.5910  145.9480 C   0  0  0  0  0  2  0  0  0  0  0  0
  160.6950  210.0070  150.5440 C   0  0  0  0  0  2  0  0  0  0  0  0
  161.5780  208.8320  150.9280 C   0  0  0  0  0  2  0  0  0  0  0  0
  162.9600  207.3390  148.9580 O   0  0  0  0  0  1  0  0  0  0  0  0
  160.8690  207.5860  150.6680 N   0  0  0  0  0  0  0  0  0  0  0  0
  161.5940  206.7770  149.2970 P   0  0  1  0  0  0  0  0  0  0  0  0
  162.3840  206.2280  152.1590 C   0  0  0  0  0  2  0  0  0  0  0  0
  160.5750  206.8210  147.9460 O   0  0  0  0  0  0  0  0  0  0  0  0
  161.4200  205.2720  151.4760 C   0  0  1  0  0  3  0  0  0  0  0  0
  160.9610  206.6960  151.8460 C   0  0  2  0  0  3  0  0  0  0  0  0
  161.7480  205.1360  149.9860 C   0  0  1  0  0  3  0  0  0  0  0  0
  160.7640  204.2660  149.3600 N   0  0  0  0  0  2  0  0  0  0  0  0
  160.9950  201.8810  149.0150 C   0  0  0  0  0  1  0  0  0  0  0  0
  161.4780  203.2570  148.5940 C   0  0  1  0  0  3  0  0  0  0  0  0
  162.4670  203.4240  146.0520 O   0  0  0  0  0  0  0  0  0  0  0  0
  160.4500  205.0060  146.5560 O   0  0  0  0  0  1  0  0  0  0  0  0
  161.1660  203.4940  146.8160 P   0  0  0  0  0  0  0  0  0  0  0  0
  160.1260  202.2840  146.2520 O   0  0  0  0  0  1  0  0  0  0  0  0
  161.0740  210.0660  153.9680 C   0  0  0  0  0  0  0  0  0  0  0  0
  160.4550  208.8270  153.9970 O   0  0  0  0  0  1  0  0  0  0  0  0
  162.3300  210.1290  153.9310 O   0  0  0  0  0  0  0  0  0  0  0  0
  160.6030  211.9610  156.3760 C   0  0  0  0  0  2  0  0  0  0  0  0
  161.7640  210.9620  156.4540 C   0  0  2  0  0  3  0  0  0  0  0  0
  161.3340  209.6110  156.9920 C   0  0  0  0  0  1  0  0  0  0  0  0
  162.9380  211.4940  157.2610 C   0  0  0  0  0  2  0  0  0  0  0  0
  164.0780  211.7250  156.3850 N   0  0  0  0  0  2  0  0  0  0  0  0
  165.2590  211.8210  157.2330 C   0  0  0  0  0  1  0  0  0  0  0  0
  1 20  1  1  0  0  0
  1  7  1  0  0  0  0
  1 21  1  0  0  0  0
  2 13  1  1  0  0  0
  2 22  1  0  0  0  0
  3  4  1  6  0  0  0
  3  2  1  0  0  0  0
  5  4  2  0  0  0  0
  5  6  1  0  0  0  0
  6 13  2  0  0  0  0
  7 12  1  0  0  0  0
  8  9  1  0  0  0  0
 10 53  1  1  0  0  0
 11  7  2  0  0  0  0
 12  8  1  0  0  0  0
 13 16  1  0  0  0  0
 14 17  1  0  0  0  0
 15 19  1  0  0  0  0
 16 18  2  0  0  0  0
 17 50  1  1  0  0  0
 17 10  1  0  0  0  0
 18 20  1  0  0  0  0
 19 14  1  0  0  0  0
 21 10  1  0  0  0  0
 21  9  1  1  0  0  0
 22 18  1  0  0  0  0
 22 15  1  0  0  0  0
 23 27  1  6  0  0  0
 24  3  1  6  0  0  0
 24 28  1  0  0  0  0
 25 28  1  0  0  0  0
 26 23  1  0  0  0  0
 26 24  1  0  0  0  0
 28 33  1  0  0  0  0
 29 30  1  0  0  0  0
 30 26  1  0  0  0  0
 30 23  1  0  0  0  0
 30 31  1  0  0  0  0
 31 25  1  0  0  0  0
 32 29  1  0  0  0  0
 32 27  1  0  0  0  0
 33 34  1  0  0  0  0
 35 37  1  0  0  0  0
 36 34  1  0  0  0  0
 36 41  1  0  0  0  0
 37 42  1  0  0  0  0
 37 36  1  0  0  0  0
 39 37  2  0  0  0  0
 40 41  1  0  0  0  0
 40 38  1  0  0  0  0
 41 38  1  0  0  0  0
 42 40  1  0  0  0  0
 43 42  1  0  0  0  0
 45 44  1  0  0  0  0
 45 43  1  0  0  0  0
 46 48  2  0  0  0  0
 47 48  1  0  0  0  0
 48 45  1  0  0  0  0
 49 48  1  0  0  0  0
 50 51  1  0  0  0  0
 52 50  2  0  0  0  0
 53 54  1  0  0  0  0
 54 55  1  0  0  0  0
 54 56  1  0  0  0  0
 57 58  1  0  0  0  0
 57 56  1  0  0  0  0
M  END
>  <MODEL>
1

>  <REMARK>
 VINA RESULT:       2.6      0.000      0.000
  Name = 
  12 active torsions:
  status: ('A' for Active; 'I' for Inactive)
    1  A    between atoms: C_4  and  C_17
    2  A    between atoms: C_4  and  C_35
    3  A    between atoms: N_6  and  C_29
    4  A    between atoms: N_7  and  C_17
    5  A    between atoms: C_10  and  C_12
    6  A    between atoms: C_16  and  C_44
    7  A    between atoms: C_22  and  C_42
    8  A    between atoms: C_28  and  N_32
    9  A    between atoms: C_28  and  P_34
   10  A    between atoms: C_29  and  C_42
   11  A    between atoms: C_30  and  C_35
   12  A    between atoms: N_32  and  C_53
                            x       y       z     vdW  Elec       q    Type
                         _______ _______ _______ _____ _____    ______ ____

>  <TORSDO>
F 12

$$$$
