=
 OpenBabel11052410113D

 48 56  0  0  1  0  0  0  0  0999 V2000
  163.2960  213.7470  144.3170 F   0  0  0  0  0  0  0  0  0  0  0  0
  159.7590  212.4640  146.0740 C   0  0  0  0  0  3  0  0  0  0  0  0
  159.9780  212.2470  144.7130 C   0  0  0  0  0  3  0  0  0  0  0  0
  161.9230  213.5420  146.2550 C   0  0  0  0  0  0  0  0  0  0  0  0
  162.8300  214.2570  146.9620 F   0  0  0  0  0  0  0  0  0  0  0  0
  162.1440  213.3170  144.8900 C   0  0  0  0  0  0  0  0  0  0  0  0
  160.7330  213.0930  146.8590 C   0  0  0  0  0  0  0  0  0  0  0  0
  161.1740  212.6570  144.1190 C   0  0  0  0  0  0  0  0  0  0  0  0
  157.1090  213.9240  150.8610 O   0  0  0  0  0  0  0  0  0  0  0  0
  158.6800  212.4680  151.8960 N   0  0  0  0  0  0  0  0  0  0  0  0
  161.0970  212.6610  149.3580 C   0  0  0  0  0  0  0  0  0  0  0  0
  159.3340  213.9130  148.7310 N   0  0  0  0  0  0  0  0  0  0  0  0
  160.3940  212.9690  150.4650 N   0  0  0  0  0  0  0  0  0  0  0  0
  159.3810  213.7210  150.0620 C   0  0  0  0  0  0  0  0  0  0  0  0
  159.9210  212.2040  151.5840 C   0  0  0  0  0  0  0  0  0  0  0  0
  158.2710  213.4500  150.9440 C   0  0  0  0  0  0  0  0  0  0  0  0
  160.4620  213.3010  148.2910 C   0  0  0  0  0  0  0  0  0  0  0  0
  160.7450  211.1880  152.3150 C   0  0  0  0  0  3  0  0  0  0  0  0
  160.6400  211.4520  153.8070 C   0  0  0  0  0  2  0  0  0  0  0  0
  159.8720  210.3050  153.1910 C   0  0  0  0  0  2  0  0  0  0  0  0
  162.0870  211.5390  149.2440 C   0  0  2  0  0  3  0  0  0  0  0  0
  162.1140  211.0410  147.9280 O   0  0  0  0  0  0  0  0  0  0  0  0
  161.3930  210.2900  148.8620 C   0  0  1  0  0  3  0  0  0  0  0  0
  162.1770  209.1380  149.2640 N   0  0  0  0  0  2  0  0  0  0  0  0
  161.7480  207.2250  147.4510 F   0  0  0  0  0  0  0  0  0  0  0  0
  160.7260  204.9370  150.0700 C   0  0  0  0  0  3  0  0  0  0  0  0
  161.5210  205.3310  151.2660 C   0  0  0  0  0  2  0  0  0  0  0  0
  161.5920  207.8940  149.6720 C   0  0  0  0  0  0  0  0  0  0  0  0
  160.7050  205.6560  148.9460 C   0  0  0  0  0  3  0  0  0  0  0  0
  161.1340  207.7710  151.0780 C   0  0  0  0  0  3  0  0  0  0  0  0
  161.0660  206.6470  151.7890 C   0  0  0  0  0  3  0  0  0  0  0  0
  161.3910  206.9480  148.7270 C   0  0  0  0  0  0  0  0  0  0  0  0
  161.3890  212.4140  142.6600 C   0  0  0  0  0  2  0  0  0  0  0  0
  160.9580  209.0140  137.5860 C   0  0  1  0  0  3  0  0  0  0  0  0
  159.5780  212.0080  140.7520 C   0  0  0  0  0  0  0  0  0  0  0  0
  158.3230  212.6150  140.4720 N   0  0  0  0  0  0  0  0  0  0  0  0
  161.4040  210.3580  140.3260 C   0  0  2  0  0  3  0  0  0  0  0  0
  160.9340  207.6620  137.0540 N   0  0  0  0  0  1  0  0  0  0  0  0
  160.1570  212.7400  141.8800 C   0  0  0  0  0  0  0  0  0  0  0  0
  159.3430  213.6710  142.2390 N   0  0  0  0  0  0  0  0  0  0  0  0
  157.1190  214.4460  141.3990 N   0  0  0  0  0  1  0  0  0  0  0  0
  162.7460  211.0690  140.2770 C   0  0  0  0  0  2  0  0  0  0  0  0
  162.1020  210.6100  139.0020 C   0  0  1  0  0  3  0  0  0  0  0  0
  160.0770  210.9760  140.0500 C   0  0  0  0  0  0  0  0  0  0  0  0
  159.5730  209.3890  138.1160 C   0  0  0  0  0  3  0  0  0  0  0  0
  159.2000  210.2480  139.0920 C   0  0  0  0  0  3  0  0  0  0  0  0
  162.1720  209.2000  138.5010 C   0  0  0  0  0  2  0  0  0  0  0  0
  158.2400  213.5700  141.3370 C   0  0  0  0  0  0  0  0  0  0  0  0
  1  6  1  0  0  0  0
  2  7  1  0  0  0  0
  3  2  2  0  0  0  0
  4  7  2  0  0  0  0
  4  5  1  0  0  0  0
  6  4  1  0  0  0  0
  7 17  1  0  0  0  0
  8  3  1  0  0  0  0
  8  6  2  0  0  0  0
  9 16  2  0  0  0  0
 11 13  1  0  0  0  0
 12 14  2  0  0  0  0
 13 15  1  0  0  0  0
 14 13  1  0  0  0  0
 14 16  1  0  0  0  0
 15 10  2  0  0  0  0
 15 18  1  0  0  0  0
 16 10  1  0  0  0  0
 17 12  1  0  0  0  0
 17 11  2  0  0  0  0
 18 20  1  0  0  0  0
 18 19  1  0  0  0  0
 20 19  1  0  0  0  0
 21 11  1  6  0  0  0
 22 23  1  0  0  0  0
 22 21  1  0  0  0  0
 23 21  1  0  0  0  0
 23 24  1  1  0  0  0
 24 28  1  0  0  0  0
 25 32  1  0  0  0  0
 26 27  1  0  0  0  0
 27 31  1  0  0  0  0
 28 30  1  0  0  0  0
 29 26  2  0  0  0  0
 30 31  2  0  0  0  0
 32 29  1  0  0  0  0
 32 28  2  0  0  0  0
 33  8  1  0  0  0  0
 34 38  1  1  0  0  0
 34 45  1  0  0  0  0
 34 47  1  0  0  0  0
 35 39  1  0  0  0  0
 36 35  1  0  0  0  0
 36 48  2  0  0  0  0
 37 42  1  1  0  0  0
 39 40  2  0  0  0  0
 39 33  1  0  0  0  0
 43 47  1  1  0  0  0
 43 42  1  0  0  0  0
 43 37  1  0  0  0  0
 44 37  1  0  0  0  0
 44 35  2  0  0  0  0
 45 46  2  0  0  0  0
 46 44  1  0  0  0  0
 48 41  1  0  0  0  0
 48 40  1  0  0  0  0
M  END
>  <MODEL>
1

>  <REMARK>
 VINA RESULT:      -9.0      0.000      0.000
  Name = 
  7 active torsions:
  status: ('A' for Active; 'I' for Inactive)
    1  A    between atoms: C_8  and  C_36
    2  A    between atoms: C_11  and  C_17
    3  A    between atoms: C_15  and  C_16
    4  A    between atoms: C_15  and  C_30
    5  A    between atoms: C_22  and  N_32
    6  A    between atoms: C_26  and  C_48
    7  A    between atoms: N_32  and  C_47
                            x       y       z     vdW  Elec       q    Type
                         _______ _______ _______ _____ _____    ______ ____

>  <TORSDO>
F 7

$$$$
=
 OpenBabel11052410113D

 48 56  0  0  1  0  0  0  0  0999 V2000
  159.9590  214.3630  149.5260 F   0  0  0  0  0  0  0  0  0  0  0  0
  162.3060  211.0710  148.5790 C   0  0  0  0  0  3  0  0  0  0  0  0
  162.1110  212.0800  147.6350 C   0  0  0  0  0  3  0  0  0  0  0  0
  160.9250  212.2790  150.1630 C   0  0  0  0  0  0  0  0  0  0  0  0
  160.2640  212.3440  151.3440 F   0  0  0  0  0  0  0  0  0  0  0  0
  160.7350  213.2940  149.2170 C   0  0  0  0  0  0  0  0  0  0  0  0
  161.7350  211.1700  149.8540 C   0  0  0  0  0  0  0  0  0  0  0  0
  161.3390  213.2010  147.9530 C   0  0  0  0  0  0  0  0  0  0  0  0
  161.0690  209.1650  154.8910 O   0  0  0  0  0  0  0  0  0  0  0  0
  160.8390  207.2220  153.5390 N   0  0  0  0  0  0  0  0  0  0  0  0
  161.9250  208.7130  150.5530 C   0  0  0  0  0  0  0  0  0  0  0  0
  161.9410  210.2910  152.1600 N   0  0  0  0  0  0  0  0  0  0  0  0
  161.9660  208.0880  151.7460 N   0  0  0  0  0  0  0  0  0  0  0  0
  161.9960  209.0430  152.6630 C   0  0  0  0  0  0  0  0  0  0  0  0
  161.2350  206.9910  152.3160 C   0  0  0  0  0  0  0  0  0  0  0  0
  161.3050  208.5400  153.8260 C   0  0  0  0  0  0  0  0  0  0  0  0
  161.9690  210.0830  150.8190 C   0  0  0  0  0  0  0  0  0  0  0  0
  160.9320  205.7170  151.5890 C   0  0  0  0  0  3  0  0  0  0  0  0
  162.1030  204.7650  151.7540 C   0  0  0  0  0  2  0  0  0  0  0  0
  160.8400  204.5460  152.5540 C   0  0  0  0  0  2  0  0  0  0  0  0
  161.5010  208.0840  149.2590 C   0  0  2  0  0  3  0  0  0  0  0  0
  160.9280  206.8200  149.4930 O   0  0  0  0  0  0  0  0  0  0  0  0
  162.2500  206.8280  149.0380 C   0  0  1  0  0  3  0  0  0  0  0  0
  162.2760  206.5020  147.6240 N   0  0  0  0  0  2  0  0  0  0  0  0
  162.1010  206.1950  144.9770 F   0  0  0  0  0  0  0  0  0  0  0  0
  160.9540  202.7860  145.4240 C   0  0  0  0  0  3  0  0  0  0  0  0
  161.6180  202.3100  146.6680 C   0  0  0  0  0  2  0  0  0  0  0  0
  161.7140  205.2980  147.0860 C   0  0  0  0  0  0  0  0  0  0  0  0
  161.0000  204.0560  145.0190 C   0  0  0  0  0  3  0  0  0  0  0  0
  161.1380  204.3160  148.0380 C   0  0  0  0  0  3  0  0  0  0  0  0
  161.0580  202.9990  147.8610 C   0  0  0  0  0  3  0  0  0  0  0  0
  161.6430  205.1760  145.7410 C   0  0  0  0  0  0  0  0  0  0  0  0
  161.1430  214.2710  146.9290 C   0  0  0  0  0  2  0  0  0  0  0  0
  161.8660  212.0360  141.2740 C   0  0  1  0  0  3  0  0  0  0  0  0
  159.5580  213.3970  144.9760 C   0  0  0  0  0  0  0  0  0  0  0  0
  158.1440  213.3710  144.8240 N   0  0  0  0  0  0  0  0  0  0  0  0
  161.8920  212.9200  144.2280 C   0  0  2  0  0  3  0  0  0  0  0  0
  162.4250  210.9550  140.4810 N   0  0  0  0  0  1  0  0  0  0  0  0
  159.8330  214.1020  146.2290 C   0  0  0  0  0  0  0  0  0  0  0  0
  158.7170  214.4530  146.7670 N   0  0  0  0  0  0  0  0  0  0  0  0
  156.3190  214.2100  146.0990 N   0  0  0  0  0  1  0  0  0  0  0  0
  162.7360  214.1800  144.3240 C   0  0  0  0  0  2  0  0  0  0  0  0
  162.2620  213.7040  142.9830 C   0  0  1  0  0  3  0  0  0  0  0  0
  160.4110  212.8690  144.0810 C   0  0  0  0  0  0  0  0  0  0  0  0
  160.5240  211.6050  141.8670 C   0  0  0  0  0  3  0  0  0  0  0  0
  159.8880  211.9950  142.9970 C   0  0  0  0  0  3  0  0  0  0  0  0
  162.9340  212.6120  142.2080 C   0  0  0  0  0  2  0  0  0  0  0  0
  157.7080  214.0010  145.8640 C   0  0  0  0  0  0  0  0  0  0  0  0
  2  7  1  0  0  0  0
  3  8  1  0  0  0  0
  3  2  2  0  0  0  0
  4  5  1  0  0  0  0
  6  1  1  0  0  0  0
  6  4  1  0  0  0  0
  7  4  2  0  0  0  0
  7 17  1  0  0  0  0
  8  6  2  0  0  0  0
 10 16  1  0  0  0  0
 11 17  2  0  0  0  0
 11 13  1  0  0  0  0
 12 14  2  0  0  0  0
 13 15  1  0  0  0  0
 13 14  1  0  0  0  0
 14 16  1  0  0  0  0
 15 10  2  0  0  0  0
 16  9  2  0  0  0  0
 17 12  1  0  0  0  0
 18 19  1  0  0  0  0
 18 15  1  0  0  0  0
 18 20  1  0  0  0  0
 19 20  1  0  0  0  0
 21 22  1  0  0  0  0
 21 11  1  1  0  0  0
 23 24  1  6  0  0  0
 23 21  1  0  0  0  0
 23 22  1  0  0  0  0
 25 32  1  0  0  0  0
 26 27  1  0  0  0  0
 27 31  1  0  0  0  0
 28 24  1  0  0  0  0
 28 30  1  0  0  0  0
 29 26  2  0  0  0  0
 29 32  1  0  0  0  0
 31 30  2  0  0  0  0
 32 28  2  0  0  0  0
 33  8  1  0  0  0  0
 34 38  1  1  0  0  0
 34 45  1  0  0  0  0
 34 47  1  0  0  0  0
 35 39  1  0  0  0  0
 36 35  1  0  0  0  0
 36 48  2  0  0  0  0
 37 42  1  1  0  0  0
 39 40  2  0  0  0  0
 39 33  1  0  0  0  0
 43 47  1  6  0  0  0
 43 37  1  0  0  0  0
 43 42  1  0  0  0  0
 44 37  1  0  0  0  0
 44 35  2  0  0  0  0
 45 46  2  0  0  0  0
 46 44  1  0  0  0  0
 48 41  1  0  0  0  0
 48 40  1  0  0  0  0
M  END
>  <MODEL>
2

>  <REMARK>
 VINA RESULT:      -8.8      2.888      4.871
  Name = 
  7 active torsions:
  status: ('A' for Active; 'I' for Inactive)
    1  A    between atoms: C_8  and  C_36
    2  A    between atoms: C_11  and  C_17
    3  A    between atoms: C_15  and  C_16
    4  A    between atoms: C_15  and  C_30
    5  A    between atoms: C_22  and  N_32
    6  A    between atoms: C_26  and  C_48
    7  A    between atoms: N_32  and  C_47
                            x       y       z     vdW  Elec       q    Type
                         _______ _______ _______ _____ _____    ______ ____

>  <TORSDO>
F 7

$$$$
=
 OpenBabel11052410113D

 48 56  0  0  1  0  0  0  0  0999 V2000
  162.6540  210.1500  148.2870 F   0  0  0  0  0  0  0  0  0  0  0  0
  160.7910  212.1200  151.4320 C   0  0  0  0  0  3  0  0  0  0  0  0
  160.6720  212.6160  150.1330 C   0  0  0  0  0  3  0  0  0  0  0  0
  162.1610  210.2950  150.6150 C   0  0  0  0  0  0  0  0  0  0  0  0
  162.9660  209.2290  150.8420 F   0  0  0  0  0  0  0  0  0  0  0  0
  162.0350  210.7900  149.3100 C   0  0  0  0  0  0  0  0  0  0  0  0
  161.5170  210.9490  151.6820 C   0  0  0  0  0  0  0  0  0  0  0  0
  161.2790  211.9470  149.0670 C   0  0  0  0  0  0  0  0  0  0  0  0
  161.2200  211.9780  157.0390 O   0  0  0  0  0  0  0  0  0  0  0  0
  160.2530  209.8100  156.8860 N   0  0  0  0  0  0  0  0  0  0  0  0
  161.1660  209.2280  153.5470 C   0  0  0  0  0  0  0  0  0  0  0  0
  161.8760  211.2900  154.1090 N   0  0  0  0  0  0  0  0  0  0  0  0
  161.2440  209.2870  154.8910 N   0  0  0  0  0  0  0  0  0  0  0  0
  161.6830  210.5010  155.1830 C   0  0  0  0  0  0  0  0  0  0  0  0
  160.3580  208.9010  155.9530 C   0  0  0  0  0  0  0  0  0  0  0  0
  161.0940  210.8760  156.4460 C   0  0  0  0  0  0  0  0  0  0  0  0
  161.6160  210.4600  153.0680 C   0  0  0  0  0  0  0  0  0  0  0  0
  159.6070  207.6060  155.9910 C   0  0  0  0  0  3  0  0  0  0  0  0
  160.6020  206.4590  155.9410 C   0  0  0  0  0  2  0  0  0  0  0  0
  159.9380  206.8200  157.2500 C   0  0  0  0  0  2  0  0  0  0  0  0
  160.3730  208.2200  152.7680 C   0  0  2  0  0  3  0  0  0  0  0  0
  160.8480  206.9200  153.0240 O   0  0  0  0  0  0  0  0  0  0  0  0
  161.2570  207.5060  151.8210 C   0  0  1  0  0  3  0  0  0  0  0  0
  160.4780  206.9560  150.7270 N   0  0  0  0  0  2  0  0  0  0  0  0
  160.0970  204.3130  150.7200 F   0  0  0  0  0  0  0  0  0  0  0  0
  161.7240  204.0620  147.4910 C   0  0  0  0  0  3  0  0  0  0  0  0
  161.4160  205.3420  146.7970 C   0  0  0  0  0  2  0  0  0  0  0  0
  161.0500  206.1600  149.6800 C   0  0  0  0  0  0  0  0  0  0  0  0
  161.4330  203.8460  148.7750 C   0  0  0  0  0  3  0  0  0  0  0  0
  161.9390  206.8360  148.7030 C   0  0  0  0  0  3  0  0  0  0  0  0
  162.1380  206.4740  147.4370 C   0  0  0  0  0  3  0  0  0  0  0  0
  160.8340  204.8260  149.7080 C   0  0  0  0  0  0  0  0  0  0  0  0
  161.1380  212.4940  147.6830 C   0  0  0  0  0  2  0  0  0  0  0  0
  160.2560  214.1280  141.8480 C   0  0  1  0  0  3  0  0  0  0  0  0
  159.0880  213.3020  146.1890 C   0  0  0  0  0  0  0  0  0  0  0  0
  157.7380  213.6250  146.5010 N   0  0  0  0  0  0  0  0  0  0  0  0
  161.0010  212.9850  144.6150 C   0  0  2  0  0  3  0  0  0  0  0  0
  160.3070  213.6860  140.4650 N   0  0  0  0  0  1  0  0  0  0  0  0
  159.7580  213.0250  147.4610 C   0  0  0  0  0  0  0  0  0  0  0  0
  158.9110  213.1610  148.4210 N   0  0  0  0  0  0  0  0  0  0  0  0
  156.4970  213.8070  148.5220 N   0  0  0  0  0  1  0  0  0  0  0  0
  162.2170  213.7450  145.1150 C   0  0  0  0  0  2  0  0  0  0  0  0
  161.4240  214.2880  143.9630 C   0  0  1  0  0  3  0  0  0  0  0  0
  159.5800  213.2970  144.9380 C   0  0  0  0  0  0  0  0  0  0  0  0
  158.9480  213.6670  142.4930 C   0  0  0  0  0  3  0  0  0  0  0  0
  158.6470  213.3840  143.7820 C   0  0  0  0  0  3  0  0  0  0  0  0
  161.5780  213.8070  142.5530 C   0  0  0  0  0  2  0  0  0  0  0  0
  157.6900  213.5470  147.7890 C   0  0  0  0  0  0  0  0  0  0  0  0
  1  6  1  0  0  0  0
  2  7  1  0  0  0  0
  3  2  2  0  0  0  0
  4  5  1  0  0  0  0
  4  7  2  0  0  0  0
  6  4  1  0  0  0  0
  7 17  1  0  0  0  0
  8  6  2  0  0  0  0
  8  3  1  0  0  0  0
 11 13  1  0  0  0  0
 12 14  2  0  0  0  0
 13 14  1  0  0  0  0
 13 15  1  0  0  0  0
 14 16  1  0  0  0  0
 15 18  1  0  0  0  0
 15 10  2  0  0  0  0
 16 10  1  0  0  0  0
 16  9  2  0  0  0  0
 17 11  2  0  0  0  0
 17 12  1  0  0  0  0
 18 20  1  0  0  0  0
 19 18  1  0  0  0  0
 19 20  1  0  0  0  0
 21 22  1  0  0  0  0
 21 11  1  1  0  0  0
 23 24  1  6  0  0  0
 23 21  1  0  0  0  0
 23 22  1  0  0  0  0
 26 29  2  0  0  0  0
 27 31  1  0  0  0  0
 27 26  1  0  0  0  0
 28 32  2  0  0  0  0
 28 24  1  0  0  0  0
 29 32  1  0  0  0  0
 30 28  1  0  0  0  0
 31 30  2  0  0  0  0
 32 25  1  0  0  0  0
 33  8  1  0  0  0  0
 34 38  1  6  0  0  0
 34 45  1  0  0  0  0
 34 47  1  0  0  0  0
 35 36  1  0  0  0  0
 35 39  1  0  0  0  0
 36 48  2  0  0  0  0
 37 44  1  0  0  0  0
 37 42  1  1  0  0  0
 39 33  1  0  0  0  0
 39 40  2  0  0  0  0
 43 47  1  6  0  0  0
 43 37  1  0  0  0  0
 43 42  1  0  0  0  0
 44 35  2  0  0  0  0
 45 46  2  0  0  0  0
 46 44  1  0  0  0  0
 48 40  1  0  0  0  0
 48 41  1  0  0  0  0
M  END
>  <MODEL>
3

>  <REMARK>
 VINA RESULT:      -7.2      3.281      5.484
  Name = 
  7 active torsions:
  status: ('A' for Active; 'I' for Inactive)
    1  A    between atoms: C_8  and  C_36
    2  A    between atoms: C_11  and  C_17
    3  A    between atoms: C_15  and  C_16
    4  A    between atoms: C_15  and  C_30
    5  A    between atoms: C_22  and  N_32
    6  A    between atoms: C_26  and  C_48
    7  A    between atoms: N_32  and  C_47
                            x       y       z     vdW  Elec       q    Type
                         _______ _______ _______ _____ _____    ______ ____

>  <TORSDO>
F 7

$$$$
=
 OpenBabel11052410113D

 48 56  0  0  1  0  0  0  0  0999 V2000
  162.7670  211.0190  148.0270 F   0  0  0  0  0  0  0  0  0  0  0  0
  160.4340  212.8350  150.9430 C   0  0  0  0  0  3  0  0  0  0  0  0
  160.4640  213.3600  149.6510 C   0  0  0  0  0  3  0  0  0  0  0  0
  161.9710  211.0840  150.2730 C   0  0  0  0  0  0  0  0  0  0  0  0
  162.7820  210.0430  150.5800 F   0  0  0  0  0  0  0  0  0  0  0  0
  161.9950  211.6080  148.9740 C   0  0  0  0  0  0  0  0  0  0  0  0
  161.1680  211.6850  151.2610 C   0  0  0  0  0  0  0  0  0  0  0  0
  161.2310  212.7420  148.6580 C   0  0  0  0  0  0  0  0  0  0  0  0
  159.3320  212.1970  156.3800 O   0  0  0  0  0  0  0  0  0  0  0  0
  159.2070  209.8470  156.0310 N   0  0  0  0  0  0  0  0  0  0  0  0
  160.9970  209.8220  153.0110 C   0  0  0  0  0  0  0  0  0  0  0  0
  160.8290  211.9610  153.6980 N   0  0  0  0  0  0  0  0  0  0  0  0
  160.7420  209.8130  154.3340 N   0  0  0  0  0  0  0  0  0  0  0  0
  160.6720  211.0820  154.7070 C   0  0  0  0  0  0  0  0  0  0  0  0
  159.8190  209.0880  155.1610 C   0  0  0  0  0  0  0  0  0  0  0  0
  159.7200  211.1570  155.7890 C   0  0  0  0  0  0  0  0  0  0  0  0
  161.1060  211.1630  152.6360 C   0  0  0  0  0  0  0  0  0  0  0  0
  159.5560  207.6190  155.0370 C   0  0  0  0  0  3  0  0  0  0  0  0
  160.7630  206.8580  155.5560 C   0  0  0  0  0  2  0  0  0  0  0  0
  159.5160  206.9540  156.4030 C   0  0  0  0  0  2  0  0  0  0  0  0
  160.7860  208.6660  152.0800 C   0  0  2  0  0  3  0  0  0  0  0  0
  160.7440  207.4580  152.8000 O   0  0  0  0  0  0  0  0  0  0  0  0
  161.9440  207.7480  152.1440 C   0  0  1  0  0  3  0  0  0  0  0  0
  162.0310  206.9640  150.9250 N   0  0  0  0  0  2  0  0  0  0  0  0
  161.6430  205.9040  148.5050 F   0  0  0  0  0  0  0  0  0  0  0  0
  160.7770  202.7230  150.0110 C   0  0  0  0  0  3  0  0  0  0  0  0
  161.5800  202.6500  151.2620 C   0  0  0  0  0  2  0  0  0  0  0  0
  161.5070  205.6340  150.8100 C   0  0  0  0  0  0  0  0  0  0  0  0
  160.7000  203.8250  149.2620 C   0  0  0  0  0  3  0  0  0  0  0  0
  161.0860  204.9450  152.0550 C   0  0  0  0  0  3  0  0  0  0  0  0
  161.0820  203.6300  152.2640 C   0  0  0  0  0  3  0  0  0  0  0  0
  161.3260  205.1290  149.5690 C   0  0  0  0  0  0  0  0  0  0  0  0
  161.2480  213.3200  147.2810 C   0  0  0  0  0  2  0  0  0  0  0  0
  162.1360  212.9330  141.2340 C   0  0  1  0  0  3  0  0  0  0  0  0
  159.8120  212.6050  145.1560 C   0  0  0  0  0  0  0  0  0  0  0  0
  158.4450  212.2470  144.9950 N   0  0  0  0  0  0  0  0  0  0  0  0
  162.1350  212.9800  144.3180 C   0  0  2  0  0  3  0  0  0  0  0  0
  162.9000  212.2880  140.1800 N   0  0  0  0  0  1  0  0  0  0  0  0
  159.9810  213.0020  146.5550 C   0  0  0  0  0  0  0  0  0  0  0  0
  158.8510  212.8890  147.1630 N   0  0  0  0  0  0  0  0  0  0  0  0
  156.5560  212.2050  146.4410 N   0  0  0  0  0  1  0  0  0  0  0  0
  162.6320  214.3460  144.7580 C   0  0  0  0  0  2  0  0  0  0  0  0
  162.2070  214.1330  143.3350 C   0  0  1  0  0  3  0  0  0  0  0  0
  160.7090  212.5790  144.1550 C   0  0  0  0  0  0  0  0  0  0  0  0
  160.9930  212.0200  141.6810 C   0  0  0  0  0  3  0  0  0  0  0  0
  160.3560  211.9160  142.8710 C   0  0  0  0  0  3  0  0  0  0  0  0
  163.0820  213.5030  142.2960 C   0  0  0  0  0  2  0  0  0  0  0  0
  157.9330  212.4420  146.1650 C   0  0  0  0  0  0  0  0  0  0  0  0
  1  6  1  0  0  0  0
  2  7  1  0  0  0  0
  3  2  2  0  0  0  0
  4  5  1  0  0  0  0
  4  7  2  0  0  0  0
  6  4  1  0  0  0  0
  7 17  1  0  0  0  0
  8  6  2  0  0  0  0
  8  3  1  0  0  0  0
 11 13  1  0  0  0  0
 12 14  2  0  0  0  0
 13 14  1  0  0  0  0
 13 15  1  0  0  0  0
 14 16  1  0  0  0  0
 15 10  2  0  0  0  0
 16 10  1  0  0  0  0
 16  9  2  0  0  0  0
 17 11  2  0  0  0  0
 17 12  1  0  0  0  0
 18 15  1  0  0  0  0
 18 19  1  0  0  0  0
 18 20  1  0  0  0  0
 19 20  1  0  0  0  0
 21 23  1  0  0  0  0
 21 22  1  0  0  0  0
 21 11  1  1  0  0  0
 23 24  1  6  0  0  0
 23 22  1  0  0  0  0
 25 32  1  0  0  0  0
 26 27  1  0  0  0  0
 27 31  1  0  0  0  0
 28 24  1  0  0  0  0
 28 30  1  0  0  0  0
 29 32  1  0  0  0  0
 29 26  2  0  0  0  0
 30 31  2  0  0  0  0
 32 28  2  0  0  0  0
 33  8  1  0  0  0  0
 34 38  1  6  0  0  0
 34 45  1  0  0  0  0
 34 47  1  0  0  0  0
 35 39  1  0  0  0  0
 36 35  1  0  0  0  0
 36 48  2  0  0  0  0
 37 42  1  1  0  0  0
 39 40  2  0  0  0  0
 39 33  1  0  0  0  0
 43 47  1  6  0  0  0
 43 37  1  0  0  0  0
 43 42  1  0  0  0  0
 44 37  1  0  0  0  0
 44 35  2  0  0  0  0
 45 46  2  0  0  0  0
 46 44  1  0  0  0  0
 48 41  1  0  0  0  0
 48 40  1  0  0  0  0
M  END
>  <MODEL>
4

>  <REMARK>
 VINA RESULT:      -7.0      2.824      4.652
  Name = 
  7 active torsions:
  status: ('A' for Active; 'I' for Inactive)
    1  A    between atoms: C_8  and  C_36
    2  A    between atoms: C_11  and  C_17
    3  A    between atoms: C_15  and  C_16
    4  A    between atoms: C_15  and  C_30
    5  A    between atoms: C_22  and  N_32
    6  A    between atoms: C_26  and  C_48
    7  A    between atoms: N_32  and  C_47
                            x       y       z     vdW  Elec       q    Type
                         _______ _______ _______ _____ _____    ______ ____

>  <TORSDO>
F 7

$$$$
=
 OpenBabel11052410113D

 48 56  0  0  1  0  0  0  0  0999 V2000
  162.7110  209.5350  150.4120 F   0  0  0  0  0  0  0  0  0  0  0  0
  160.6150  208.1950  153.7360 C   0  0  0  0  0  3  0  0  0  0  0  0
  161.1960  207.2740  152.8630 C   0  0  0  0  0  3  0  0  0  0  0  0
  161.4480  210.0190  152.3740 C   0  0  0  0  0  0  0  0  0  0  0  0
  161.4960  211.3380  152.0680 F   0  0  0  0  0  0  0  0  0  0  0  0
  162.0370  209.0930  151.5030 C   0  0  0  0  0  0  0  0  0  0  0  0
  160.7520  209.5700  153.5130 C   0  0  0  0  0  0  0  0  0  0  0  0
  161.9210  207.7170  151.7540 C   0  0  0  0  0  0  0  0  0  0  0  0
  161.3040  213.5070  157.2600 O   0  0  0  0  0  0  0  0  0  0  0  0
  159.3610  214.2030  156.0770 N   0  0  0  0  0  0  0  0  0  0  0  0
  158.9490  211.2330  154.2530 C   0  0  0  0  0  0  0  0  0  0  0  0
  160.7940  211.0130  155.5260 N   0  0  0  0  0  0  0  0  0  0  0  0
  158.8660  212.1240  155.2600 N   0  0  0  0  0  0  0  0  0  0  0  0
  159.9520  211.9520  155.9970 C   0  0  0  0  0  0  0  0  0  0  0  0
  158.5410  213.5220  155.3230 C   0  0  0  0  0  0  0  0  0  0  0  0
  160.3020  213.2390  156.5490 C   0  0  0  0  0  0  0  0  0  0  0  0
  160.1240  210.5070  154.4600 C   0  0  0  0  0  0  0  0  0  0  0  0
  157.3980  214.1510  154.5870 C   0  0  0  0  0  3  0  0  0  0  0  0
  156.2040  213.2150  154.6410 C   0  0  0  0  0  2  0  0  0  0  0  0
  156.2370  214.4380  155.5260 C   0  0  0  0  0  2  0  0  0  0  0  0
  158.1730  211.2980  152.9710 C   0  0  2  0  0  3  0  0  0  0  0  0
  159.0160  211.0450  151.8740 O   0  0  0  0  0  0  0  0  0  0  0  0
  158.6990  212.3850  152.1170 C   0  0  1  0  0  3  0  0  0  0  0  0
  157.6830  212.8190  151.1760 N   0  0  0  0  0  2  0  0  0  0  0  0
  160.0960  213.8450  150.6740 F   0  0  0  0  0  0  0  0  0  0  0  0
  159.2730  214.1240  147.1550 C   0  0  0  0  0  3  0  0  0  0  0  0
  158.3450  212.9930  146.8800 C   0  0  0  0  0  2  0  0  0  0  0  0
  157.9870  213.3030  149.8610 C   0  0  0  0  0  0  0  0  0  0  0  0
  159.6680  214.4530  148.3860 C   0  0  0  0  0  3  0  0  0  0  0  0
  156.8930  213.3230  148.8590 C   0  0  0  0  0  3  0  0  0  0  0  0
  157.0310  213.2180  147.5390 C   0  0  0  0  0  3  0  0  0  0  0  0
  159.2200  213.8140  149.6430 C   0  0  0  0  0  0  0  0  0  0  0  0
  162.5360  206.7150  150.8320 C   0  0  0  0  0  2  0  0  0  0  0  0
  160.7580  204.9950  145.2310 C   0  0  1  0  0  3  0  0  0  0  0  0
  161.3860  204.5770  149.7390 C   0  0  0  0  0  0  0  0  0  0  0  0
  160.8390  203.3890  150.2960 N   0  0  0  0  0  0  0  0  0  0  0  0
  162.0190  206.0640  147.8340 C   0  0  2  0  0  3  0  0  0  0  0  0
  161.1970  204.7000  143.8780 N   0  0  0  0  0  1  0  0  0  0  0  0
  161.7770  205.4280  150.8640 C   0  0  0  0  0  0  0  0  0  0  0  0
  161.5020  204.8200  151.9650 N   0  0  0  0  0  0  0  0  0  0  0  0
  160.4550  202.6160  152.5120 N   0  0  0  0  0  1  0  0  0  0  0  0
  161.4780  207.4650  148.0670 C   0  0  0  0  0  2  0  0  0  0  0  0
  160.8040  206.5640  147.0740 C   0  0  1  0  0  3  0  0  0  0  0  0
  161.4700  204.8080  148.4170 C   0  0  0  0  0  0  0  0  0  0  0  0
  160.9900  203.7800  146.1300 C   0  0  0  0  0  3  0  0  0  0  0  0
  161.2220  203.6950  147.4610 C   0  0  0  0  0  3  0  0  0  0  0  0
  161.3010  206.3570  145.6760 C   0  0  0  0  0  2  0  0  0  0  0  0
  160.9120  203.5810  151.5710 C   0  0  0  0  0  0  0  0  0  0  0  0
  1  6  1  0  0  0  0
  3  2  2  0  0  0  0
  4  7  2  0  0  0  0
  5  4  1  0  0  0  0
  6  8  2  0  0  0  0
  6  4  1  0  0  0  0
  7  2  1  0  0  0  0
  7 17  1  0  0  0  0
  8  3  1  0  0  0  0
 10 16  1  0  0  0  0
 11 17  2  0  0  0  0
 11 13  1  0  0  0  0
 12 14  2  0  0  0  0
 13 15  1  0  0  0  0
 13 14  1  0  0  0  0
 14 16  1  0  0  0  0
 15 10  2  0  0  0  0
 16  9  2  0  0  0  0
 17 12  1  0  0  0  0
 18 19  1  0  0  0  0
 18 15  1  0  0  0  0
 18 20  1  0  0  0  0
 19 20  1  0  0  0  0
 21 11  1  1  0  0  0
 22 23  1  0  0  0  0
 22 21  1  0  0  0  0
 23 24  1  6  0  0  0
 23 21  1  0  0  0  0
 26 29  2  0  0  0  0
 27 26  1  0  0  0  0
 27 31  1  0  0  0  0
 28 24  1  0  0  0  0
 29 32  1  0  0  0  0
 30 28  1  0  0  0  0
 31 30  2  0  0  0  0
 32 28  2  0  0  0  0
 32 25  1  0  0  0  0
 33 39  1  0  0  0  0
 33  8  1  0  0  0  0
 34 38  1  6  0  0  0
 34 47  1  0  0  0  0
 34 45  1  0  0  0  0
 35 36  1  0  0  0  0
 35 39  1  0  0  0  0
 36 48  2  0  0  0  0
 37 42  1  1  0  0  0
 37 44  1  0  0  0  0
 39 40  2  0  0  0  0
 43 47  1  6  0  0  0
 43 37  1  0  0  0  0
 43 42  1  0  0  0  0
 44 35  2  0  0  0  0
 45 46  2  0  0  0  0
 46 44  1  0  0  0  0
 48 40  1  0  0  0  0
 48 41  1  0  0  0  0
M  END
>  <MODEL>
5

>  <REMARK>
 VINA RESULT:      -6.7      4.985      8.618
  Name = 
  7 active torsions:
  status: ('A' for Active; 'I' for Inactive)
    1  A    between atoms: C_8  and  C_36
    2  A    between atoms: C_11  and  C_17
    3  A    between atoms: C_15  and  C_16
    4  A    between atoms: C_15  and  C_30
    5  A    between atoms: C_22  and  N_32
    6  A    between atoms: C_26  and  C_48
    7  A    between atoms: N_32  and  C_47
                            x       y       z     vdW  Elec       q    Type
                         _______ _______ _______ _____ _____    ______ ____

>  <TORSDO>
F 7

$$$$
=
 OpenBabel11052410113D

 48 56  0  0  1  0  0  0  0  0999 V2000
  159.9270  213.3520  151.9770 F   0  0  0  0  0  0  0  0  0  0  0  0
  161.9750  210.3300  149.9990 C   0  0  0  0  0  3  0  0  0  0  0  0
  161.7190  211.5370  149.3470 C   0  0  0  0  0  3  0  0  0  0  0  0
  160.8570  211.1570  151.9840 C   0  0  0  0  0  0  0  0  0  0  0  0
  160.3480  210.9550  153.2230 F   0  0  0  0  0  0  0  0  0  0  0  0
  160.6060  212.3710  151.3310 C   0  0  0  0  0  0  0  0  0  0  0  0
  161.5680  210.1360  151.3240 C   0  0  0  0  0  0  0  0  0  0  0  0
  161.0480  212.5660  150.0130 C   0  0  0  0  0  0  0  0  0  0  0  0
  160.8850  206.7800  155.5800 O   0  0  0  0  0  0  0  0  0  0  0  0
  160.8910  205.2700  153.7410 N   0  0  0  0  0  0  0  0  0  0  0  0
  161.9560  207.6040  151.3450 C   0  0  0  0  0  0  0  0  0  0  0  0
  161.7600  208.6770  153.3160 N   0  0  0  0  0  0  0  0  0  0  0  0
  162.0050  206.6810  152.3250 N   0  0  0  0  0  0  0  0  0  0  0  0
  161.9090  207.3470  153.4660 C   0  0  0  0  0  0  0  0  0  0  0  0
  161.3570  205.4160  152.5290 C   0  0  0  0  0  0  0  0  0  0  0  0
  161.2200  206.4920  154.4030 C   0  0  0  0  0  0  0  0  0  0  0  0
  161.8610  208.8480  151.9740 C   0  0  0  0  0  0  0  0  0  0  0  0
  161.2030  204.3710  151.4670 C   0  0  0  0  0  3  0  0  0  0  0  0
  160.3030  203.2660  151.9920 C   0  0  0  0  0  2  0  0  0  0  0  0
  159.7580  204.2720  151.0050 C   0  0  0  0  0  2  0  0  0  0  0  0
  161.6450  207.3230  149.9050 C   0  0  2  0  0  3  0  0  0  0  0  0
  161.9920  206.0000  149.5770 O   0  0  0  0  0  0  0  0  0  0  0  0
  162.8880  206.9950  149.1740 C   0  0  1  0  0  3  0  0  0  0  0  0
  162.7180  207.2520  147.7560 N   0  0  0  0  0  2  0  0  0  0  0  0
  160.1880  207.5330  146.9510 F   0  0  0  0  0  0  0  0  0  0  0  0
  160.5900  204.7670  144.6420 C   0  0  0  0  0  3  0  0  0  0  0  0
  162.0170  204.8120  144.2230 C   0  0  0  0  0  2  0  0  0  0  0  0
  162.1540  206.2970  146.8480 C   0  0  0  0  0  0  0  0  0  0  0  0
  160.0980  205.5310  145.6190 C   0  0  0  0  0  3  0  0  0  0  0  0
  162.9740  205.1130  146.4880 C   0  0  0  0  0  3  0  0  0  0  0  0
  162.9090  204.4260  145.3490 C   0  0  0  0  0  3  0  0  0  0  0  0
  160.8700  206.4720  146.4600 C   0  0  0  0  0  0  0  0  0  0  0  0
  160.7830  213.8510  149.2980 C   0  0  0  0  0  2  0  0  0  0  0  0
  161.1170  212.8800  143.2610 C   0  0  1  0  0  3  0  0  0  0  0  0
  159.0660  213.4170  147.3100 C   0  0  0  0  0  0  0  0  0  0  0  0
  157.6450  213.4260  147.2480 N   0  0  0  0  0  0  0  0  0  0  0  0
  161.3420  213.1110  146.3290 C   0  0  2  0  0  3  0  0  0  0  0  0
  161.6090  211.9930  142.2210 N   0  0  0  0  0  1  0  0  0  0  0  0
  159.4290  213.8380  148.6650 C   0  0  0  0  0  0  0  0  0  0  0  0
  158.3550  214.0660  149.3360 N   0  0  0  0  0  0  0  0  0  0  0  0
  155.9170  213.9740  148.7880 N   0  0  0  0  0  1  0  0  0  0  0  0
  162.2080  214.3190  146.6370 C   0  0  0  0  0  2  0  0  0  0  0  0
  161.6440  214.1430  145.2580 C   0  0  1  0  0  3  0  0  0  0  0  0
  159.8530  213.0930  146.2700 C   0  0  0  0  0  0  0  0  0  0  0  0
  159.8080  212.3330  143.8340 C   0  0  0  0  0  3  0  0  0  0  0  0
  159.2510  212.4720  145.0600 C   0  0  0  0  0  3  0  0  0  0  0  0
  162.2500  213.2410  144.2270 C   0  0  0  0  0  2  0  0  0  0  0  0
  157.2850  213.8190  148.4240 C   0  0  0  0  0  0  0  0  0  0  0  0
  2  7  1  0  0  0  0
  3  2  2  0  0  0  0
  3  8  1  0  0  0  0
  4  5  1  0  0  0  0
  6  1  1  0  0  0  0
  6  4  1  0  0  0  0
  7 17  1  0  0  0  0
  7  4  2  0  0  0  0
  8  6  2  0  0  0  0
 10 16  1  0  0  0  0
 11 17  2  0  0  0  0
 11 13  1  0  0  0  0
 12 14  2  0  0  0  0
 13 15  1  0  0  0  0
 13 14  1  0  0  0  0
 14 16  1  0  0  0  0
 15 10  2  0  0  0  0
 16  9  2  0  0  0  0
 17 12  1  0  0  0  0
 18 19  1  0  0  0  0
 18 15  1  0  0  0  0
 20 18  1  0  0  0  0
 20 19  1  0  0  0  0
 21 11  1  1  0  0  0
 22 21  1  0  0  0  0
 23 24  1  6  0  0  0
 23 22  1  0  0  0  0
 23 21  1  0  0  0  0
 26 29  2  0  0  0  0
 27 26  1  0  0  0  0
 27 31  1  0  0  0  0
 28 24  1  0  0  0  0
 29 32  1  0  0  0  0
 30 28  1  0  0  0  0
 31 30  2  0  0  0  0
 32 28  2  0  0  0  0
 32 25  1  0  0  0  0
 33  8  1  0  0  0  0
 34 38  1  6  0  0  0
 34 45  1  0  0  0  0
 34 47  1  0  0  0  0
 35 39  1  0  0  0  0
 36 35  1  0  0  0  0
 36 48  2  0  0  0  0
 37 42  1  1  0  0  0
 39 33  1  0  0  0  0
 39 40  2  0  0  0  0
 43 47  1  6  0  0  0
 43 37  1  0  0  0  0
 43 42  1  0  0  0  0
 44 37  1  0  0  0  0
 44 35  2  0  0  0  0
 45 46  2  0  0  0  0
 46 44  1  0  0  0  0
 48 41  1  0  0  0  0
 48 40  1  0  0  0  0
M  END
>  <MODEL>
6

>  <REMARK>
 VINA RESULT:      -6.6      3.557      6.440
  Name = 
  7 active torsions:
  status: ('A' for Active; 'I' for Inactive)
    1  A    between atoms: C_8  and  C_36
    2  A    between atoms: C_11  and  C_17
    3  A    between atoms: C_15  and  C_16
    4  A    between atoms: C_15  and  C_30
    5  A    between atoms: C_22  and  N_32
    6  A    between atoms: C_26  and  C_48
    7  A    between atoms: N_32  and  C_47
                            x       y       z     vdW  Elec       q    Type
                         _______ _______ _______ _____ _____    ______ ____

>  <TORSDO>
F 7

$$$$
=
 OpenBabel11052410113D

 48 56  0  0  1  0  0  0  0  0999 V2000
  159.3240  208.7620  153.4430 F   0  0  0  0  0  0  0  0  0  0  0  0
  159.7940  212.8250  152.7230 C   0  0  0  0  0  3  0  0  0  0  0  0
  160.8280  211.9400  152.4160 C   0  0  0  0  0  3  0  0  0  0  0  0
  158.4400  210.9750  153.5120 C   0  0  0  0  0  0  0  0  0  0  0  0
  157.3320  210.5030  154.1320 F   0  0  0  0  0  0  0  0  0  0  0  0
  159.4770  210.0870  153.1960 C   0  0  0  0  0  0  0  0  0  0  0  0
  158.5870  212.3510  153.2530 C   0  0  0  0  0  0  0  0  0  0  0  0
  160.6700  210.5700  152.6360 C   0  0  0  0  0  0  0  0  0  0  0  0
  153.6570  214.4040  152.1040 O   0  0  0  0  0  0  0  0  0  0  0  0
  153.6840  214.4530  154.4820 N   0  0  0  0  0  0  0  0  0  0  0  0
  157.0960  213.7070  154.8330 C   0  0  0  0  0  0  0  0  0  0  0  0
  156.6110  213.7090  152.6340 N   0  0  0  0  0  0  0  0  0  0  0  0
  155.9650  214.4180  154.6600 N   0  0  0  0  0  0  0  0  0  0  0  0
  155.7230  214.4170  153.3580 C   0  0  0  0  0  0  0  0  0  0  0  0
  154.6880  214.4280  155.3170 C   0  0  0  0  0  0  0  0  0  0  0  0
  154.2900  214.4500  153.1900 C   0  0  0  0  0  0  0  0  0  0  0  0
  157.5210  213.3190  153.5610 C   0  0  0  0  0  0  0  0  0  0  0  0
  154.5100  214.3890  156.8040 C   0  0  0  0  0  3  0  0  0  0  0  0
  153.0430  214.1510  157.1170 C   0  0  0  0  0  2  0  0  0  0  0  0
  154.0330  213.0190  157.2610 C   0  0  0  0  0  2  0  0  0  0  0  0
  157.5540  213.1110  156.1310 C   0  0  2  0  0  3  0  0  0  0  0  0
  158.1230  214.1020  156.9520 O   0  0  0  0  0  0  0  0  0  0  0  0
  159.0180  213.2710  156.2720 C   0  0  1  0  0  3  0  0  0  0  0  0
  159.5450  212.2760  157.1870 N   0  0  0  0  0  2  0  0  0  0  0  0
  162.1280  212.3100  156.5130 F   0  0  0  0  0  0  0  0  0  0  0  0
  162.0990  208.7070  156.1210 C   0  0  0  0  0  3  0  0  0  0  0  0
  161.1010  208.2140  157.1090 C   0  0  0  0  0  2  0  0  0  0  0  0
  160.1790  211.0670  156.7510 C   0  0  0  0  0  0  0  0  0  0  0  0
  162.2720  210.0020  155.8510 C   0  0  0  0  0  3  0  0  0  0  0  0
  159.3300  209.8620  156.5760 C   0  0  0  0  0  3  0  0  0  0  0  0
  159.7230  208.5960  156.7000 C   0  0  0  0  0  3  0  0  0  0  0  0
  161.4890  211.1210  156.4190 C   0  0  0  0  0  0  0  0  0  0  0  0
  161.7900  209.6390  152.2990 C   0  0  0  0  0  2  0  0  0  0  0  0
  161.1380  203.9950  150.0160 C   0  0  1  0  0  3  0  0  0  0  0  0
  161.7530  208.5220  149.8830 C   0  0  0  0  0  0  0  0  0  0  0  0
  161.9910  209.0400  148.5800 N   0  0  0  0  0  0  0  0  0  0  0  0
  161.1480  206.7060  151.4870 C   0  0  2  0  0  3  0  0  0  0  0  0
  160.2480  202.8540  149.8940 N   0  0  0  0  0  1  0  0  0  0  0  0
  162.0290  209.6090  150.8240 C   0  0  0  0  0  0  0  0  0  0  0  0
  162.3850  210.6560  150.1640 N   0  0  0  0  0  0  0  0  0  0  0  0
  162.7130  211.1420  147.7330 N   0  0  0  0  0  1  0  0  0  0  0  0
  162.1830  206.6250  152.5950 C   0  0  0  0  0  2  0  0  0  0  0  0
  162.1800  205.5950  151.5050 C   0  0  1  0  0  3  0  0  0  0  0  0
  161.3700  207.2550  150.1200 C   0  0  0  0  0  0  0  0  0  0  0  0
  160.7720  205.0540  148.9760 C   0  0  0  0  0  3  0  0  0  0  0  0
  160.9260  206.3990  148.9880 C   0  0  0  0  0  3  0  0  0  0  0  0
  161.2570  204.4150  151.4850 C   0  0  0  0  0  2  0  0  0  0  0  0
  162.3660  210.2570  148.7930 C   0  0  0  0  0  0  0  0  0  0  0  0
  2  7  1  0  0  0  0
  3  8  1  0  0  0  0
  3  2  2  0  0  0  0
  4  5  1  0  0  0  0
  6  1  1  0  0  0  0
  6  4  1  0  0  0  0
  7  4  2  0  0  0  0
  7 17  1  0  0  0  0
  8  6  2  0  0  0  0
  9 16  2  0  0  0  0
 10 15  2  0  0  0  0
 12 14  2  0  0  0  0
 12 17  1  0  0  0  0
 13 11  1  0  0  0  0
 13 15  1  0  0  0  0
 14 13  1  0  0  0  0
 15 18  1  0  0  0  0
 16 14  1  0  0  0  0
 16 10  1  0  0  0  0
 17 11  2  0  0  0  0
 18 19  1  0  0  0  0
 18 20  1  0  0  0  0
 19 20  1  0  0  0  0
 21 11  1  6  0  0  0
 21 23  1  0  0  0  0
 21 22  1  0  0  0  0
 23 22  1  0  0  0  0
 23 24  1  1  0  0  0
 26 27  1  0  0  0  0
 28 24  1  0  0  0  0
 29 26  2  0  0  0  0
 29 32  1  0  0  0  0
 30 31  2  0  0  0  0
 30 28  1  0  0  0  0
 31 27  1  0  0  0  0
 32 25  1  0  0  0  0
 32 28  2  0  0  0  0
 33  8  1  0  0  0  0
 34 38  1  1  0  0  0
 34 47  1  0  0  0  0
 35 44  2  0  0  0  0
 35 39  1  0  0  0  0
 36 48  2  0  0  0  0
 36 35  1  0  0  0  0
 37 43  1  0  0  0  0
 37 42  1  1  0  0  0
 39 33  1  0  0  0  0
 40 39  2  0  0  0  0
 41 48  1  0  0  0  0
 43 47  1  1  0  0  0
 43 42  1  0  0  0  0
 44 37  1  0  0  0  0
 45 46  2  0  0  0  0
 45 34  1  0  0  0  0
 46 44  1  0  0  0  0
 48 40  1  0  0  0  0
M  END
>  <MODEL>
7

>  <REMARK>
 VINA RESULT:      -6.4      6.394      9.080
  Name = 
  7 active torsions:
  status: ('A' for Active; 'I' for Inactive)
    1  A    between atoms: C_8  and  C_36
    2  A    between atoms: C_11  and  C_17
    3  A    between atoms: C_15  and  C_16
    4  A    between atoms: C_15  and  C_30
    5  A    between atoms: C_22  and  N_32
    6  A    between atoms: C_26  and  C_48
    7  A    between atoms: N_32  and  C_47
                            x       y       z     vdW  Elec       q    Type
                         _______ _______ _______ _____ _____    ______ ____

>  <TORSDO>
F 7

$$$$
