=
 OpenBabel11052411173D

 27 30  0  0  1  0  0  0  0  0999 V2000
  160.3240  206.2190  148.0310 C   0  0  0  0  0  3  0  0  0  0  0  0
  161.5230  206.9470  151.8140 C   0  0  1  0  0  3  0  0  0  0  0  0
  161.1760  210.2870  154.0610 N   0  0  0  0  0  0  0  0  0  0  0  0
  160.4880  209.1920  154.5080 C   0  0  0  0  0  0  0  0  0  0  0  0
  160.7650  206.1760  149.2990 N   0  0  0  0  0  0  0  0  0  0  0  0
  160.5900  205.8670  151.6670 N   0  0  0  0  0  2  0  0  0  0  0  0
  162.4040  207.4070  150.6900 C   0  0  2  0  0  3  0  0  0  0  0  0
  161.3630  207.9360  152.6720 C   0  0  0  0  0  0  0  0  0  0  0  0
  160.9130  207.2270  147.3460 N   0  0  0  0  0  0  0  0  0  0  0  0
  162.6100  208.8540  151.0520 C   0  0  0  0  0  2  0  0  0  0  0  0
  161.9300  210.2540  152.9240 C   0  0  0  0  0  3  0  0  0  0  0  0
  161.6430  207.1830  149.4210 C   0  0  0  0  0  0  0  0  0  0  0  0
  160.5560  207.9760  153.8070 C   0  0  0  0  0  3  0  0  0  0  0  0
  161.7560  207.8350  148.2140 C   0  0  0  0  0  3  0  0  0  0  0  0
  162.0170  209.0560  152.2210 C   0  0  0  0  0  0  0  0  0  0  0  0
  160.4330  205.2150  150.3580 C   0  0  2  0  0  3  0  0  0  0  0  0
  160.1280  208.2210  156.7410 C   0  0  0  0  0  1  0  0  0  0  0  0
  159.6800  209.2820  155.7560 C   0  0  0  0  0  2  0  0  0  0  0  0
  161.3480  203.9790  150.2740 C   0  0  1  0  0  3  0  0  0  0  0  0
  161.8830  203.5240  151.6330 C   0  0  0  0  0  2  0  0  0  0  0  0
  161.1210  202.4750  152.1530 O   0  0  0  0  0  1  0  0  0  0  0  0
  160.7490  202.8240  149.4630 C   0  0  0  0  0  2  0  0  0  0  0  0
  161.1990  202.8080  148.0080 C   0  0  0  0  0  2  0  0  0  0  0  0
  160.7830  201.6270  147.3940 O   0  0  0  0  0  0  0  0  0  0  0  0
  161.1550  203.3560  145.2550 O   0  0  0  0  0  0  0  0  0  0  0  0
  159.9790  201.0620  144.7980 O   0  0  0  0  0  0  0  0  0  0  0  0
  160.6350  202.0280  145.7580 P   0  0  0  0  0  0  0  0  0  0  0  0
  1  5  1  0  0  0  0
  2  6  1  6  0  0  0
  2  8  1  0  0  0  0
  3  4  1  0  0  0  0
  4 18  1  0  0  0  0
  5 12  1  0  0  0  0
  5 16  1  0  0  0  0
  7 10  1  1  0  0  0
  7  2  1  0  0  0  0
  8 13  1  0  0  0  0
  9  1  2  0  0  0  0
  9 14  1  0  0  0  0
 10 15  1  0  0  0  0
 11  3  2  0  0  0  0
 12  7  1  0  0  0  0
 13  4  2  0  0  0  0
 14 12  2  0  0  0  0
 15  8  2  0  0  0  0
 15 11  1  0  0  0  0
 16 19  1  1  0  0  0
 16  6  1  0  0  0  0
 18 17  1  0  0  0  0
 19 22  1  1  0  0  0
 19 20  1  0  0  0  0
 20 21  1  0  0  0  0
 23 22  1  0  0  0  0
 24 23  1  0  0  0  0
 25 27  2  0  0  0  0
 26 27  2  0  0  0  0
 27 24  1  0  0  0  0
M  END
>  <MODEL>
1

>  <REMARK>
 VINA RESULT:      -7.1      0.000      0.000
  Name = 
  7 active torsions:
  status: ('A' for Active; 'I' for Inactive)
    1  A    between atoms: C_1  and  C_26
    2  A    between atoms: C_5  and  C_15
    3  A    between atoms: O_10  and  P_24
    4  A    between atoms: O_10  and  C_27
    5  A    between atoms: C_22  and  C_26
    6  A    between atoms: C_22  and  C_27
    7  A    between atoms: C_25  and  C_26
                            x       y       z     vdW  Elec       q    Type
                         _______ _______ _______ _____ _____    ______ ____

>  <TORSDO>
F 7

$$$$
=
 OpenBabel11052411173D

 27 30  0  0  1  0  0  0  0  0999 V2000
  161.2040  206.5260  148.5920 C   0  0  0  0  0  3  0  0  0  0  0  0
  161.1250  208.7870  151.9330 C   0  0  1  0  0  3  0  0  0  0  0  0
  159.5040  212.4320  152.5740 N   0  0  0  0  0  0  0  0  0  0  0  0
  158.9510  211.3990  153.2820 C   0  0  0  0  0  0  0  0  0  0  0  0
  161.2720  207.0370  149.8320 N   0  0  0  0  0  0  0  0  0  0  0  0
  160.5060  207.4980  152.0540 N   0  0  0  0  0  2  0  0  0  0  0  0
  162.1750  209.0810  150.9020 C   0  0  2  0  0  3  0  0  0  0  0  0
  160.5380  209.9140  152.2850 C   0  0  0  0  0  0  0  0  0  0  0  0
  161.7470  207.3720  147.6870 N   0  0  0  0  0  0  0  0  0  0  0  0
  161.9790  210.5600  150.6950 C   0  0  0  0  0  2  0  0  0  0  0  0
  160.5370  212.2420  151.7030 C   0  0  0  0  0  3  0  0  0  0  0  0
  161.8600  208.2360  149.7070 C   0  0  0  0  0  0  0  0  0  0  0  0
  159.4540  210.0950  153.1420 C   0  0  0  0  0  3  0  0  0  0  0  0
  162.1750  208.4520  148.3840 C   0  0  0  0  0  3  0  0  0  0  0  0
  161.0550  210.9580  151.5580 C   0  0  0  0  0  0  0  0  0  0  0  0
  160.8550  206.4320  151.1040 C   0  0  2  0  0  3  0  0  0  0  0  0
  158.0820  210.9700  155.5450 C   0  0  0  0  0  1  0  0  0  0  0  0
  157.8250  211.6620  154.2200 C   0  0  0  0  0  2  0  0  0  0  0  0
  161.9840  205.5610  151.6840 C   0  0  1  0  0  3  0  0  0  0  0  0
  162.3270  205.8970  153.1370 C   0  0  0  0  0  2  0  0  0  0  0  0
  161.3260  205.4620  154.0080 O   0  0  0  0  0  1  0  0  0  0  0  0
  161.7780  204.0580  151.4630 C   0  0  0  0  0  2  0  0  0  0  0  0
  160.5850  203.7340  150.5720 C   0  0  0  0  0  2  0  0  0  0  0  0
  160.4320  202.3520  150.4660 O   0  0  0  0  0  0  0  0  0  0  0  0
  161.1890  203.0960  147.9020 O   0  0  0  0  0  0  0  0  0  0  0  0
  161.1970  200.5470  148.5010 O   0  0  0  0  0  0  0  0  0  0  0  0
  160.9590  201.9850  148.9020 P   0  0  0  0  0  0  0  0  0  0  0  0
  1  5  1  0  0  0  0
  2  6  1  6  0  0  0
  2  8  1  0  0  0  0
  3  4  1  0  0  0  0
  4 18  1  0  0  0  0
  5 16  1  0  0  0  0
  7 10  1  6  0  0  0
  7  2  1  0  0  0  0
  8 13  1  0  0  0  0
  9 14  1  0  0  0  0
  9  1  2  0  0  0  0
 10 15  1  0  0  0  0
 11  3  2  0  0  0  0
 12  5  1  0  0  0  0
 12  7  1  0  0  0  0
 13  4  2  0  0  0  0
 14 12  2  0  0  0  0
 15 11  1  0  0  0  0
 15  8  2  0  0  0  0
 16 19  1  1  0  0  0
 16  6  1  0  0  0  0
 18 17  1  0  0  0  0
 19 22  1  1  0  0  0
 19 20  1  0  0  0  0
 20 21  1  0  0  0  0
 23 22  1  0  0  0  0
 24 23  1  0  0  0  0
 25 27  2  0  0  0  0
 26 27  2  0  0  0  0
 27 24  1  0  0  0  0
M  END
>  <MODEL>
2

>  <REMARK>
 VINA RESULT:      -5.9      1.962      2.499
  Name = 
  7 active torsions:
  status: ('A' for Active; 'I' for Inactive)
    1  A    between atoms: C_1  and  C_26
    2  A    between atoms: C_5  and  C_15
    3  A    between atoms: O_10  and  P_24
    4  A    between atoms: O_10  and  C_27
    5  A    between atoms: C_22  and  C_26
    6  A    between atoms: C_22  and  C_27
    7  A    between atoms: C_25  and  C_26
                            x       y       z     vdW  Elec       q    Type
                         _______ _______ _______ _____ _____    ______ ____

>  <TORSDO>
F 7

$$$$
=
 OpenBabel11052411173D

 27 30  0  0  1  0  0  0  0  0999 V2000
  160.2890  209.0920  152.6500 C   0  0  0  0  0  3  0  0  0  0  0  0
  161.7040  205.9180  150.6000 C   0  0  1  0  0  3  0  0  0  0  0  0
  160.8460  201.9860  150.9650 N   0  0  0  0  0  0  0  0  0  0  0  0
  160.4860  202.5690  149.7800 C   0  0  0  0  0  0  0  0  0  0  0  0
  160.8680  208.2370  151.7910 N   0  0  0  0  0  0  0  0  0  0  0  0
  161.0370  206.9100  149.8050 N   0  0  0  0  0  2  0  0  0  0  0  0
  162.3210  206.2360  151.9300 C   0  0  2  0  0  3  0  0  0  0  0  0
  161.4170  204.6320  150.5520 C   0  0  0  0  0  0  0  0  0  0  0  0
  160.5460  208.7420  153.9320 N   0  0  0  0  0  0  0  0  0  0  0  0
  162.2260  204.9030  152.6240 C   0  0  0  0  0  2  0  0  0  0  0  0
  161.4540  202.6910  151.9630 C   0  0  0  0  0  3  0  0  0  0  0  0
  161.4960  207.3220  152.5440 C   0  0  0  0  0  0  0  0  0  0  0  0
  160.7550  203.9280  149.5470 C   0  0  0  0  0  3  0  0  0  0  0  0
  161.3180  207.6300  153.8750 C   0  0  0  0  0  3  0  0  0  0  0  0
  161.7380  204.0360  151.7480 C   0  0  0  0  0  0  0  0  0  0  0  0
  160.8900  208.2770  150.3230 C   0  0  2  0  0  3  0  0  0  0  0  0
  160.8290  201.3860  147.6490 C   0  0  0  0  0  1  0  0  0  0  0  0
  159.8250  201.7540  148.7240 C   0  0  0  0  0  2  0  0  0  0  0  0
  162.0500  209.1560  149.8240 C   0  0  1  0  0  3  0  0  0  0  0  0
  162.3510  208.9790  148.3330 C   0  0  0  0  0  2  0  0  0  0  0  0
  163.0480  207.7910  148.0950 O   0  0  0  0  0  1  0  0  0  0  0  0
  161.9240  210.6310  150.2240 C   0  0  0  0  0  2  0  0  0  0  0  0
  162.1320  211.5940  149.0630 C   0  0  0  0  0  2  0  0  0  0  0  0
  161.1940  212.6250  149.1250 O   0  0  0  0  0  0  0  0  0  0  0  0
  159.9920  212.1970  146.6610 O   0  0  0  0  0  0  0  0  0  0  0  0
  161.5880  214.2570  146.9150 O   0  0  0  0  0  0  0  0  0  0  0  0
  160.9140  213.0420  147.5100 P   0  0  0  0  0  0  0  0  0  0  0  0
  1  9  2  0  0  0  0
  2  6  1  1  0  0  0
  2  7  1  0  0  0  0
  3 11  1  0  0  0  0
  4  3  2  0  0  0  0
  5 12  1  0  0  0  0
  5  1  1  0  0  0  0
  6 16  1  0  0  0  0
  7 12  1  0  0  0  0
  7 10  1  1  0  0  0
  8  2  1  0  0  0  0
  8 15  1  0  0  0  0
 12 14  2  0  0  0  0
 13  4  1  0  0  0  0
 13  8  2  0  0  0  0
 14  9  1  0  0  0  0
 15 11  2  0  0  0  0
 15 10  1  0  0  0  0
 16 19  1  1  0  0  0
 16  5  1  0  0  0  0
 17 18  1  0  0  0  0
 18  4  1  0  0  0  0
 19 20  1  6  0  0  0
 19 22  1  0  0  0  0
 21 20  1  0  0  0  0
 23 24  1  0  0  0  0
 23 22  1  0  0  0  0
 25 27  2  0  0  0  0
 26 27  2  0  0  0  0
 27 24  1  0  0  0  0
M  END
>  <MODEL>
3

>  <REMARK>
 VINA RESULT:      -5.8      4.409      7.330
  Name = 
  7 active torsions:
  status: ('A' for Active; 'I' for Inactive)
    1  A    between atoms: C_1  and  C_26
    2  A    between atoms: C_5  and  C_15
    3  A    between atoms: O_10  and  P_24
    4  A    between atoms: O_10  and  C_27
    5  A    between atoms: C_22  and  C_26
    6  A    between atoms: C_22  and  C_27
    7  A    between atoms: C_25  and  C_26
                            x       y       z     vdW  Elec       q    Type
                         _______ _______ _______ _____ _____    ______ ____

>  <TORSDO>
F 7

$$$$
=
 OpenBabel11052411173D

 27 30  0  0  1  0  0  0  0  0999 V2000
  162.6110  205.2130  151.2680 C   0  0  0  0  0  3  0  0  0  0  0  0
  161.1350  208.3970  153.2580 C   0  0  1  0  0  3  0  0  0  0  0  0
  161.4160  209.3890  157.1640 N   0  0  0  0  0  0  0  0  0  0  0  0
  162.0260  210.2430  156.2850 C   0  0  0  0  0  0  0  0  0  0  0  0
  162.0670  206.3740  151.6650 N   0  0  0  0  0  0  0  0  0  0  0  0
  162.0370  208.7110  152.1870 N   0  0  0  0  0  2  0  0  0  0  0  0
  160.3660  207.1100  153.3090 C   0  0  2  0  0  3  0  0  0  0  0  0
  161.2590  208.8760  154.4800 C   0  0  0  0  0  0  0  0  0  0  0  0
  162.1170  204.1750  151.9830 N   0  0  0  0  0  0  0  0  0  0  0  0
  160.1820  206.9360  154.7930 C   0  0  0  0  0  2  0  0  0  0  0  0
  160.7580  208.2700  156.7470 C   0  0  0  0  0  3  0  0  0  0  0  0
  161.2190  206.0670  152.6580 C   0  0  0  0  0  0  0  0  0  0  0  0
  161.9720  209.9960  154.9030 C   0  0  0  0  0  3  0  0  0  0  0  0
  161.2280  204.7050  152.8560 C   0  0  0  0  0  3  0  0  0  0  0  0
  160.6850  208.0130  155.3810 C   0  0  0  0  0  0  0  0  0  0  0  0
  162.2760  207.7240  151.1250 C   0  0  2  0  0  3  0  0  0  0  0  0
  164.1270  211.0790  157.2570 C   0  0  0  0  0  1  0  0  0  0  0  0
  162.7320  211.4510  156.7940 C   0  0  0  0  0  2  0  0  0  0  0  0
  161.3280  207.9850  149.9400 C   0  0  1  0  0  3  0  0  0  0  0  0
  161.9530  208.8440  148.8380 C   0  0  0  0  0  2  0  0  0  0  0  0
  161.9570  210.1960  149.1910 O   0  0  0  0  0  1  0  0  0  0  0  0
  160.6650  206.7170  149.3900 C   0  0  0  0  0  2  0  0  0  0  0  0
  161.0490  206.4090  147.9490 C   0  0  0  0  0  2  0  0  0  0  0  0
  161.7460  205.2030  147.8890 O   0  0  0  0  0  0  0  0  0  0  0  0
  161.3080  203.4950  145.7460 O   0  0  0  0  0  0  0  0  0  0  0  0
  162.3800  205.8340  145.2620 O   0  0  0  0  0  0  0  0  0  0  0  0
  161.8120  204.8320  146.2400 P   0  0  0  0  0  0  0  0  0  0  0  0
  1  5  1  0  0  0  0
  1  9  2  0  0  0  0
  2  6  1  1  0  0  0
  2  7  1  0  0  0  0
  2  8  1  0  0  0  0
  4 18  1  0  0  0  0
  4  3  2  0  0  0  0
  5 12  1  0  0  0  0
  7 10  1  1  0  0  0
  8 13  2  0  0  0  0
  8 15  1  0  0  0  0
  9 14  1  0  0  0  0
 10 15  1  0  0  0  0
 11  3  1  0  0  0  0
 12 14  2  0  0  0  0
 12  7  1  0  0  0  0
 13  4  1  0  0  0  0
 15 11  2  0  0  0  0
 16 19  1  6  0  0  0
 16  5  1  0  0  0  0
 16  6  1  0  0  0  0
 18 17  1  0  0  0  0
 19 20  1  6  0  0  0
 20 21  1  0  0  0  0
 22 19  1  0  0  0  0
 23 22  1  0  0  0  0
 24 23  1  0  0  0  0
 25 27  2  0  0  0  0
 26 27  2  0  0  0  0
 27 24  1  0  0  0  0
M  END
>  <MODEL>
4

>  <REMARK>
 VINA RESULT:      -5.5      2.618      4.139
  Name = 
  7 active torsions:
  status: ('A' for Active; 'I' for Inactive)
    1  A    between atoms: C_1  and  C_26
    2  A    between atoms: C_5  and  C_15
    3  A    between atoms: O_10  and  P_24
    4  A    between atoms: O_10  and  C_27
    5  A    between atoms: C_22  and  C_26
    6  A    between atoms: C_22  and  C_27
    7  A    between atoms: C_25  and  C_26
                            x       y       z     vdW  Elec       q    Type
                         _______ _______ _______ _____ _____    ______ ____

>  <TORSDO>
F 7

$$$$
=
 OpenBabel11052411173D

 27 30  0  0  1  0  0  0  0  0999 V2000
  162.5470  210.7620  155.6480 C   0  0  0  0  0  3  0  0  0  0  0  0
  159.2800  211.0800  153.3020 C   0  0  1  0  0  3  0  0  0  0  0  0
  156.9380  214.2770  152.5150 N   0  0  0  0  0  0  0  0  0  0  0  0
  157.6300  213.7660  151.4500 C   0  0  0  0  0  0  0  0  0  0  0  0
  161.5390  210.6060  154.7740 N   0  0  0  0  0  0  0  0  0  0  0  0
  160.4750  210.6590  152.6300 N   0  0  0  0  0  2  0  0  0  0  0  0
  159.0790  210.8910  154.7770 C   0  0  2  0  0  3  0  0  0  0  0  0
  158.5200  212.0750  152.8860 C   0  0  0  0  0  0  0  0  0  0  0  0
  162.0940  211.2300  156.8340 N   0  0  0  0  0  0  0  0  0  0  0  0
  158.1440  212.0290  155.0950 C   0  0  0  0  0  2  0  0  0  0  0  0
  157.0350  213.7410  153.7660 C   0  0  0  0  0  3  0  0  0  0  0  0
  160.4280  210.9930  155.4170 C   0  0  0  0  0  0  0  0  0  0  0  0
  158.4610  212.6450  151.6160 C   0  0  0  0  0  3  0  0  0  0  0  0
  160.7530  211.3690  156.7010 C   0  0  0  0  0  3  0  0  0  0  0  0
  157.8450  212.6230  153.9480 C   0  0  0  0  0  0  0  0  0  0  0  0
  161.5790  210.0750  153.4060 C   0  0  2  0  0  3  0  0  0  0  0  0
  156.2330  213.8770  149.4270 C   0  0  0  0  0  1  0  0  0  0  0  0
  157.4880  214.3900  150.1060 C   0  0  0  0  0  2  0  0  0  0  0  0
  161.4580  208.5400  153.4180 C   0  0  1  0  0  3  0  0  0  0  0  0
  160.7560  207.9950  154.6640 C   0  0  0  0  0  2  0  0  0  0  0  0
  160.5600  206.6140  154.5720 O   0  0  0  0  0  1  0  0  0  0  0  0
  160.8880  207.9560  152.1210 C   0  0  0  0  0  2  0  0  0  0  0  0
  161.9420  207.3070  151.2330 C   0  0  0  0  0  2  0  0  0  0  0  0
  162.4830  206.1930  151.8730 O   0  0  0  0  0  0  0  0  0  0  0  0
  161.2440  204.6380  149.9370 O   0  0  0  0  0  0  0  0  0  0  0  0
  160.8400  204.0320  152.4510 O   0  0  0  0  0  0  0  0  0  0  0  0
  161.4880  204.9080  151.4040 P   0  0  0  0  0  0  0  0  0  0  0  0
  1  9  2  0  0  0  0
  2  6  1  1  0  0  0
  2  7  1  0  0  0  0
  3 11  1  0  0  0  0
  4 13  1  0  0  0  0
  4  3  2  0  0  0  0
  5 12  1  0  0  0  0
  5  1  1  0  0  0  0
  6 16  1  0  0  0  0
  7 10  1  1  0  0  0
  7 12  1  0  0  0  0
  8  2  1  0  0  0  0
  8 15  1  0  0  0  0
 11 15  2  0  0  0  0
 12 14  2  0  0  0  0
 13  8  2  0  0  0  0
 14  9  1  0  0  0  0
 15 10  1  0  0  0  0
 16 19  1  1  0  0  0
 16  5  1  0  0  0  0
 17 18  1  0  0  0  0
 18  4  1  0  0  0  0
 19 22  1  6  0  0  0
 19 20  1  0  0  0  0
 21 20  1  0  0  0  0
 23 24  1  0  0  0  0
 23 22  1  0  0  0  0
 25 27  2  0  0  0  0
 27 24  1  0  0  0  0
 27 26  2  0  0  0  0
M  END
>  <MODEL>
5

>  <REMARK>
 VINA RESULT:      -5.5      3.857      6.769
  Name = 
  7 active torsions:
  status: ('A' for Active; 'I' for Inactive)
    1  A    between atoms: C_1  and  C_26
    2  A    between atoms: C_5  and  C_15
    3  A    between atoms: O_10  and  P_24
    4  A    between atoms: O_10  and  C_27
    5  A    between atoms: C_22  and  C_26
    6  A    between atoms: C_22  and  C_27
    7  A    between atoms: C_25  and  C_26
                            x       y       z     vdW  Elec       q    Type
                         _______ _______ _______ _____ _____    ______ ____

>  <TORSDO>
F 7

$$$$
=
 OpenBabel11052411173D

 27 30  0  0  1  0  0  0  0  0999 V2000
  162.7360  209.0690  151.7430 C   0  0  0  0  0  3  0  0  0  0  0  0
  160.6670  205.7350  150.8020 C   0  0  1  0  0  3  0  0  0  0  0  0
  161.2190  203.0850  147.8020 N   0  0  0  0  0  0  0  0  0  0  0  0
  161.3920  202.5980  149.0700 C   0  0  0  0  0  0  0  0  0  0  0  0
  161.9260  207.9990  151.6890 N   0  0  0  0  0  0  0  0  0  0  0  0
  161.2540  205.7400  152.1120 N   0  0  0  0  0  2  0  0  0  0  0  0
  160.3520  207.0000  150.0580 C   0  0  2  0  0  3  0  0  0  0  0  0
  160.8220  204.7520  149.9370 C   0  0  0  0  0  0  0  0  0  0  0  0
  162.7030  209.7630  150.5820 N   0  0  0  0  0  0  0  0  0  0  0  0
  160.4590  206.5350  148.6300 C   0  0  0  0  0  2  0  0  0  0  0  0
  160.8840  204.3870  147.5670 C   0  0  0  0  0  3  0  0  0  0  0  0
  161.3770  208.0110  150.4650 C   0  0  0  0  0  0  0  0  0  0  0  0
  161.2080  203.4350  150.1830 C   0  0  0  0  0  3  0  0  0  0  0  0
  161.8370  209.1080  149.7720 C   0  0  0  0  0  3  0  0  0  0  0  0
  160.6870  205.2290  148.6570 C   0  0  0  0  0  0  0  0  0  0  0  0
  161.6230  207.0170  152.7380 C   0  0  2  0  0  3  0  0  0  0  0  0
  161.5600  200.3970  147.9810 C   0  0  0  0  0  1  0  0  0  0  0  0
  161.7590  201.1690  149.2710 C   0  0  0  0  0  2  0  0  0  0  0  0
  160.4720  207.5170  153.6300 C   0  0  1  0  0  3  0  0  0  0  0  0
  160.5640  207.0250  155.0760 C   0  0  0  0  0  2  0  0  0  0  0  0
  159.3260  207.1070  155.7190 O   0  0  0  0  0  1  0  0  0  0  0  0
  160.2340  209.0290  153.5390 C   0  0  0  0  0  2  0  0  0  0  0  0
  160.7240  209.7940  154.7610 C   0  0  0  0  0  2  0  0  0  0  0  0
  161.2230  211.0380  154.3760 O   0  0  0  0  0  0  0  0  0  0  0  0
  160.1530  211.9380  151.9780 O   0  0  0  0  0  0  0  0  0  0  0  0
  158.6900  212.1480  154.1390 O   0  0  0  0  0  0  0  0  0  0  0  0
  159.9770  211.7310  153.4650 P   0  0  0  0  0  0  0  0  0  0  0  0
  2  8  1  6  0  0  0
  2  6  1  0  0  0  0
  3  4  1  0  0  0  0
  4 18  1  0  0  0  0
  4 13  2  0  0  0  0
  5  1  1  0  0  0  0
  5 16  1  0  0  0  0
  6 16  1  0  0  0  0
  7 10  1  6  0  0  0
  7 12  1  0  0  0  0
  7  2  1  0  0  0  0
  8 13  1  0  0  0  0
  9  1  2  0  0  0  0
 10 15  1  0  0  0  0
 11  3  2  0  0  0  0
 11 15  1  0  0  0  0
 12  5  1  0  0  0  0
 14 12  2  0  0  0  0
 14  9  1  0  0  0  0
 15  8  2  0  0  0  0
 16 19  1  6  0  0  0
 17 18  1  0  0  0  0
 19 22  1  1  0  0  0
 19 20  1  0  0  0  0
 20 21  1  0  0  0  0
 22 23  1  0  0  0  0
 24 23  1  0  0  0  0
 25 27  2  0  0  0  0
 27 26  2  0  0  0  0
 27 24  1  0  0  0  0
M  END
>  <MODEL>
6

>  <REMARK>
 VINA RESULT:      -5.4      4.843      7.509
  Name = 
  7 active torsions:
  status: ('A' for Active; 'I' for Inactive)
    1  A    between atoms: C_1  and  C_26
    2  A    between atoms: C_5  and  C_15
    3  A    between atoms: O_10  and  P_24
    4  A    between atoms: O_10  and  C_27
    5  A    between atoms: C_22  and  C_26
    6  A    between atoms: C_22  and  C_27
    7  A    between atoms: C_25  and  C_26
                            x       y       z     vdW  Elec       q    Type
                         _______ _______ _______ _____ _____    ______ ____

>  <TORSDO>
F 7

$$$$
=
 OpenBabel11052411173D

 27 30  0  0  1  0  0  0  0  0999 V2000
  160.2310  208.1330  153.3200 C   0  0  0  0  0  3  0  0  0  0  0  0
  161.6640  205.4820  150.6370 C   0  0  1  0  0  3  0  0  0  0  0  0
  160.8310  201.5590  150.1490 N   0  0  0  0  0  0  0  0  0  0  0  0
  160.4670  202.3810  149.1160 C   0  0  0  0  0  0  0  0  0  0  0  0
  160.8150  207.4860  152.2980 N   0  0  0  0  0  0  0  0  0  0  0  0
  160.9910  206.6180  150.0740 N   0  0  0  0  0  2  0  0  0  0  0  0
  162.2800  205.5110  152.0050 C   0  0  2  0  0  3  0  0  0  0  0  0
  161.3850  204.2350  150.3140 C   0  0  0  0  0  0  0  0  0  0  0  0
  160.4900  207.5170  154.4970 N   0  0  0  0  0  0  0  0  0  0  0  0
  162.1930  204.0600  152.3970 C   0  0  0  0  0  2  0  0  0  0  0  0
  161.4340  202.0370  151.2750 C   0  0  0  0  0  3  0  0  0  0  0  0
  161.4480  206.4350  152.8380 C   0  0  0  0  0  0  0  0  0  0  0  0
  160.7270  203.7600  149.1810 C   0  0  0  0  0  3  0  0  0  0  0  0
  161.2690  206.4490  154.2030 C   0  0  0  0  0  3  0  0  0  0  0  0
  161.7090  203.3990  151.3540 C   0  0  0  0  0  0  0  0  0  0  0  0
  160.8360  207.8410  150.8730 C   0  0  2  0  0  3  0  0  0  0  0  0
  160.8200  201.6730  146.7850 C   0  0  0  0  0  1  0  0  0  0  0  0
  159.8100  201.8080  147.9080 C   0  0  0  0  0  2  0  0  0  0  0  0
  161.9910  208.8140  150.5750 C   0  0  1  0  0  3  0  0  0  0  0  0
  161.9550  209.3860  149.1560 C   0  0  0  0  0  2  0  0  0  0  0  0
  162.6940  208.5960  148.2730 O   0  0  0  0  0  1  0  0  0  0  0  0
  162.1720  209.9010  151.6410 C   0  0  0  0  0  2  0  0  0  0  0  0
  160.9890  210.8560  151.7400 C   0  0  0  0  0  2  0  0  0  0  0  0
  160.9280  211.4080  153.0190 O   0  0  0  0  0  0  0  0  0  0  0  0
  158.9630  212.8410  154.3550 O   0  0  0  0  0  0  0  0  0  0  0  0
  158.5420  212.2120  151.8490 O   0  0  0  0  0  0  0  0  0  0  0  0
  159.4250  212.1820  153.0750 P   0  0  0  0  0  0  0  0  0  0  0  0
  1  9  2  0  0  0  0
  2  6  1  1  0  0  0
  2  7  1  0  0  0  0
  3 11  1  0  0  0  0
  4 13  1  0  0  0  0
  4  3  2  0  0  0  0
  5 12  1  0  0  0  0
  5  1  1  0  0  0  0
  6 16  1  0  0  0  0
  7 10  1  1  0  0  0
  7 12  1  0  0  0  0
  8  2  1  0  0  0  0
  8 15  1  0  0  0  0
 11 15  2  0  0  0  0
 12 14  2  0  0  0  0
 13  8  2  0  0  0  0
 14  9  1  0  0  0  0
 15 10  1  0  0  0  0
 16 19  1  1  0  0  0
 16  5  1  0  0  0  0
 17 18  1  0  0  0  0
 18  4  1  0  0  0  0
 19 20  1  6  0  0  0
 19 22  1  0  0  0  0
 21 20  1  0  0  0  0
 22 23  1  0  0  0  0
 23 24  1  0  0  0  0
 24 27  1  0  0  0  0
 26 27  2  0  0  0  0
 27 25  2  0  0  0  0
M  END
>  <MODEL>
7

>  <REMARK>
 VINA RESULT:      -5.0      4.550      7.868
  Name = 
  7 active torsions:
  status: ('A' for Active; 'I' for Inactive)
    1  A    between atoms: C_1  and  C_26
    2  A    between atoms: C_5  and  C_15
    3  A    between atoms: O_10  and  P_24
    4  A    between atoms: O_10  and  C_27
    5  A    between atoms: C_22  and  C_26
    6  A    between atoms: C_22  and  C_27
    7  A    between atoms: C_25  and  C_26
                            x       y       z     vdW  Elec       q    Type
                         _______ _______ _______ _____ _____    ______ ____

>  <TORSDO>
F 7

$$$$
=
 OpenBabel11052411173D

 27 30  0  0  1  0  0  0  0  0999 V2000
  156.6790  213.1650  154.1570 C   0  0  0  0  0  3  0  0  0  0  0  0
  160.0980  211.0780  153.6790 C   0  0  1  0  0  3  0  0  0  0  0  0
  161.3980  207.7410  155.5510 N   0  0  0  0  0  0  0  0  0  0  0  0
  161.1570  207.6180  154.2090 C   0  0  0  0  0  0  0  0  0  0  0  0
  157.8480  212.6350  153.7630 N   0  0  0  0  0  0  0  0  0  0  0  0
  159.2790  211.1840  152.5060 N   0  0  0  0  0  2  0  0  0  0  0  0
  160.0220  212.0670  154.8050 C   0  0  2  0  0  3  0  0  0  0  0  0
  160.5680  209.9340  154.1390 C   0  0  0  0  0  0  0  0  0  0  0  0
  156.6870  213.4260  155.4850 N   0  0  0  0  0  0  0  0  0  0  0  0
  160.4480  211.2170  155.9730 C   0  0  0  0  0  2  0  0  0  0  0  0
  161.2080  208.9170  156.2160 C   0  0  0  0  0  3  0  0  0  0  0  0
  158.6070  212.5500  154.8650 C   0  0  0  0  0  0  0  0  0  0  0  0
  160.7170  208.7250  153.4630 C   0  0  0  0  0  3  0  0  0  0  0  0
  157.9060  213.0500  155.9390 C   0  0  0  0  0  3  0  0  0  0  0  0
  160.7820  210.0270  155.4920 C   0  0  0  0  0  0  0  0  0  0  0  0
  158.2810  212.2590  152.4110 C   0  0  2  0  0  3  0  0  0  0  0  0
  161.8140  206.5390  152.0970 C   0  0  0  0  0  1  0  0  0  0  0  0
  161.3800  206.3110  153.5320 C   0  0  0  0  0  2  0  0  0  0  0  0
  158.8840  213.4730  151.6800 C   0  0  1  0  0  3  0  0  0  0  0  0
  160.1060  213.1250  150.8280 C   0  0  0  0  0  2  0  0  0  0  0  0
  160.5010  214.2100  150.0410 O   0  0  0  0  0  1  0  0  0  0  0  0
  157.8510  214.3040  150.9110 C   0  0  0  0  0  2  0  0  0  0  0  0
  157.0690  213.4980  149.8810 C   0  0  0  0  0  2  0  0  0  0  0  0
  156.6770  214.3240  148.8280 O   0  0  0  0  0  0  0  0  0  0  0  0
  156.6550  213.7090  146.1220 O   0  0  0  0  0  0  0  0  0  0  0  0
  158.6790  212.8800  147.5600 O   0  0  0  0  0  0  0  0  0  0  0  0
  157.3620  213.6140  147.4550 P   0  0  0  0  0  0  0  0  0  0  0  0
  1  9  2  0  0  0  0
  2  6  1  1  0  0  0
  2  8  1  0  0  0  0
  2  7  1  0  0  0  0
  3 11  1  0  0  0  0
  4  3  2  0  0  0  0
  5  1  1  0  0  0  0
  5 12  1  0  0  0  0
  7 12  1  0  0  0  0
  7 10  1  1  0  0  0
  8 15  1  0  0  0  0
  9 14  1  0  0  0  0
 12 14  2  0  0  0  0
 13  8  2  0  0  0  0
 13  4  1  0  0  0  0
 15 10  1  0  0  0  0
 15 11  2  0  0  0  0
 16 19  1  1  0  0  0
 16  6  1  0  0  0  0
 16  5  1  0  0  0  0
 17 18  1  0  0  0  0
 18  4  1  0  0  0  0
 19 20  1  6  0  0  0
 21 20  1  0  0  0  0
 22 19  1  0  0  0  0
 23 22  1  0  0  0  0
 24 23  1  0  0  0  0
 25 27  2  0  0  0  0
 27 26  2  0  0  0  0
 27 24  1  0  0  0  0
M  END
>  <MODEL>
8

>  <REMARK>
 VINA RESULT:      -4.9      5.948      8.520
  Name = 
  7 active torsions:
  status: ('A' for Active; 'I' for Inactive)
    1  A    between atoms: C_1  and  C_26
    2  A    between atoms: C_5  and  C_15
    3  A    between atoms: O_10  and  P_24
    4  A    between atoms: O_10  and  C_27
    5  A    between atoms: C_22  and  C_26
    6  A    between atoms: C_22  and  C_27
    7  A    between atoms: C_25  and  C_26
                            x       y       z     vdW  Elec       q    Type
                         _______ _______ _______ _____ _____    ______ ____

>  <TORSDO>
F 7

$$$$
=
 OpenBabel11052411173D

 27 30  0  0  1  0  0  0  0  0999 V2000
  160.1310  207.6960  154.2210 C   0  0  0  0  0  3  0  0  0  0  0  0
  161.7570  207.1300  150.5720 C   0  0  1  0  0  3  0  0  0  0  0  0
  160.9040  204.3820  147.7360 N   0  0  0  0  0  0  0  0  0  0  0  0
  160.6510  205.6850  147.4010 C   0  0  0  0  0  0  0  0  0  0  0  0
  160.7940  207.7650  153.0550 N   0  0  0  0  0  0  0  0  0  0  0  0
  161.1580  208.4170  150.7800 N   0  0  0  0  0  2  0  0  0  0  0  0
  162.2460  206.2780  151.7070 C   0  0  2  0  0  3  0  0  0  0  0  0
  161.4870  206.3590  149.5370 C   0  0  0  0  0  0  0  0  0  0  0  0
  160.2710  206.4750  154.7880 N   0  0  0  0  0  0  0  0  0  0  0  0
  162.0980  204.8980  151.1230 C   0  0  0  0  0  2  0  0  0  0  0  0
  161.4100  204.0330  148.9540 C   0  0  0  0  0  3  0  0  0  0  0  0
  161.3570  206.5600  152.8770 C   0  0  0  0  0  0  0  0  0  0  0  0
  160.9280  206.7180  148.3120 C   0  0  0  0  0  3  0  0  0  0  0  0
  161.0540  205.7540  153.9510 C   0  0  0  0  0  3  0  0  0  0  0  0
  161.7010  205.0430  149.8660 C   0  0  0  0  0  0  0  0  0  0  0  0
  160.9520  208.9100  152.1500 C   0  0  2  0  0  3  0  0  0  0  0  0
  161.0770  205.5920  144.9790 C   0  0  0  0  0  1  0  0  0  0  0  0
  160.0970  206.0110  146.0580 C   0  0  0  0  0  2  0  0  0  0  0  0
  162.1460  209.7800  152.5810 C   0  0  1  0  0  3  0  0  0  0  0  0
  162.8040  210.5300  151.4210 C   0  0  0  0  0  2  0  0  0  0  0  0
  161.8460  211.1020  150.5800 O   0  0  0  0  0  1  0  0  0  0  0  0
  161.8440  210.6950  153.7740 C   0  0  0  0  0  2  0  0  0  0  0  0
  160.5020  211.4070  153.6660 C   0  0  0  0  0  2  0  0  0  0  0  0
  159.7850  211.2540  154.8520 O   0  0  0  0  0  0  0  0  0  0  0  0
  157.0260  211.2820  154.5530 O   0  0  0  0  0  0  0  0  0  0  0  0
  158.3140  213.5510  154.3350 O   0  0  0  0  0  0  0  0  0  0  0  0
  158.3230  212.0580  154.5720 P   0  0  0  0  0  0  0  0  0  0  0  0
  1  9  2  0  0  0  0
  2  8  1  1  0  0  0
  2  6  1  0  0  0  0
  2  7  1  0  0  0  0
  3 11  1  0  0  0  0
  4  3  2  0  0  0  0
  4 13  1  0  0  0  0
  5  1  1  0  0  0  0
  6 16  1  0  0  0  0
  7 10  1  6  0  0  0
  7 12  1  0  0  0  0
  8 15  1  0  0  0  0
 11 15  2  0  0  0  0
 12  5  1  0  0  0  0
 12 14  2  0  0  0  0
 13  8  2  0  0  0  0
 14  9  1  0  0  0  0
 15 10  1  0  0  0  0
 16 19  1  1  0  0  0
 16  5  1  0  0  0  0
 17 18  1  0  0  0  0
 18  4  1  0  0  0  0
 19 20  1  6  0  0  0
 19 22  1  0  0  0  0
 21 20  1  0  0  0  0
 23 22  1  0  0  0  0
 23 24  1  0  0  0  0
 25 27  2  0  0  0  0
 26 27  2  0  0  0  0
 27 24  1  0  0  0  0
M  END
>  <MODEL>
9

>  <REMARK>
 VINA RESULT:      -4.7      4.910      8.215
  Name = 
  7 active torsions:
  status: ('A' for Active; 'I' for Inactive)
    1  A    between atoms: C_1  and  C_26
    2  A    between atoms: C_5  and  C_15
    3  A    between atoms: O_10  and  P_24
    4  A    between atoms: O_10  and  C_27
    5  A    between atoms: C_22  and  C_26
    6  A    between atoms: C_22  and  C_27
    7  A    between atoms: C_25  and  C_26
                            x       y       z     vdW  Elec       q    Type
                         _______ _______ _______ _____ _____    ______ ____

>  <TORSDO>
F 7

$$$$
