=
 OpenBabel11052411563D

 32 36  0  0  1  0  0  0  0  0999 V2000
  160.7660  206.6920  154.1250 C   0  0  0  0  0  0  0  0  0  0  0  0
  159.5420  211.6640  155.8350 C   0  0  0  0  0  0  0  0  0  0  0  0
  161.6590  209.2710  149.8410 C   0  0  0  0  0  0  0  0  0  0  0  0
  161.3470  209.5740  151.2460 C   0  0  0  0  0  0  0  0  0  0  0  0
  159.6570  210.2380  155.6970 N   0  0  0  0  0  2  0  0  0  0  0  0
  159.9840  212.1170  153.4250 O   0  0  0  0  0  0  0  0  0  0  0  0
  161.5750  204.5020  150.7570 O   0  0  0  0  0  0  0  0  0  0  0  0
  161.3960  207.6540  156.3520 C   0  0  2  0  0  3  0  0  0  0  0  0
  159.0320  207.2290  155.6380 N   0  0  0  0  0  2  0  0  0  0  0  0
  159.4800  213.9140  154.9090 C   0  0  0  0  0  3  0  0  0  0  0  0
  161.1990  206.1190  152.8100 C   0  0  1  0  0  3  0  0  0  0  0  0
  159.1730  214.4370  156.1650 C   0  0  0  0  0  3  0  0  0  0  0  0
  162.4560  204.1660  151.7990 C   0  0  0  0  0  2  0  0  0  0  0  0
  161.7460  210.3150  148.8710 N   0  0  0  0  0  1  0  0  0  0  0  0
  161.4530  207.1850  151.7690 C   0  0  0  0  0  0  0  0  0  0  0  0
  159.8970  207.9170  156.5950 C   0  0  2  0  0  3  0  0  0  0  0  0
  161.2660  208.5180  152.1510 O   0  0  0  0  0  0  0  0  0  0  0  0
  161.6740  210.6250  153.9490 O   0  0  0  0  0  0  0  0  0  0  0  0
  159.5150  206.6360  154.4580 N   0  0  0  0  0  0  0  0  0  0  0  0
  162.3200  208.7210  156.9140 C   0  0  0  0  0  1  0  0  0  0  0  0
  162.2310  207.6990  148.1730 O   0  0  0  0  0  1  0  0  0  0  0  0
  162.2150  205.5150  150.0360 C   0  0  0  0  0  2  0  0  0  0  0  0
  161.6930  207.4030  154.9490 N   0  0  0  0  0  2  0  0  0  0  0  0
  162.3700  205.1550  152.9700 C   0  0  0  0  0  2  0  0  0  0  0  0
  159.6840  212.5410  154.7270 C   0  0  0  0  0  0  0  0  0  0  0  0
  160.9310  211.1520  153.0780 C   0  0  0  0  0  0  0  0  0  0  0  0
  159.4530  209.3600  156.8460 C   0  0  0  0  0  2  0  0  0  0  0  0
  161.8970  207.9980  149.4910 C   0  0  0  0  0  0  0  0  0  0  0  0
  159.0580  213.5850  157.2610 C   0  0  0  0  0  3  0  0  0  0  0  0
  161.1170  210.8190  151.6590 C   0  0  0  0  0  3  0  0  0  0  0  0
  161.7970  206.8970  150.4870 C   0  0  0  0  0  0  0  0  0  0  0  0
  159.2350  212.2120  157.0950 C   0  0  0  0  0  3  0  0  0  0  0  0
  1 19  2  0  0  0  0
  1 23  1  0  0  0  0
  2 32  1  0  0  0  0
  3  4  1  0  0  0  0
  4 30  2  0  0  0  0
  4 17  1  0  0  0  0
  5  2  1  0  0  0  0
  5 27  1  0  0  0  0
  6 25  1  0  0  0  0
  7 13  1  0  0  0  0
  8 16  1  0  0  0  0
  8 20  1  6  0  0  0
  9 16  1  0  0  0  0
 10 12  2  0  0  0  0
 11 24  1  1  0  0  0
 11  1  1  0  0  0  0
 12 29  1  0  0  0  0
 13 24  1  0  0  0  0
 14  3  1  0  0  0  0
 15 17  1  0  0  0  0
 15 11  1  0  0  0  0
 16 27  1  6  0  0  0
 19  9  1  0  0  0  0
 21 28  1  0  0  0  0
 22 31  1  0  0  0  0
 22  7  1  0  0  0  0
 23  8  1  0  0  0  0
 25 10  1  0  0  0  0
 25  2  2  0  0  0  0
 26  6  1  0  0  0  0
 26 18  2  0  0  0  0
 28  3  2  0  0  0  0
 28 31  1  0  0  0  0
 30 26  1  0  0  0  0
 31 15  2  0  0  0  0
 32 29  2  0  0  0  0
M  END
>  <MODEL>
1

>  <REMARK>
 VINA RESULT:      -3.1      0.000      0.000
  Name = 
  0 active torsions:
  status: ('A' for Active; 'I' for Inactive)
                            x       y       z     vdW  Elec       q    Type
                         _______ _______ _______ _____ _____    ______ ____

>  <TORSDO>
F 0

$$$$
=
 OpenBabel11052411563D

 32 36  0  0  1  0  0  0  0  0999 V2000
  161.2060  206.9360  147.5100 C   0  0  0  0  0  0  0  0  0  0  0  0
  160.8790  201.7110  146.1900 C   0  0  0  0  0  0  0  0  0  0  0  0
  161.1710  204.9190  152.1710 C   0  0  0  0  0  0  0  0  0  0  0  0
  161.2590  204.4420  150.7830 C   0  0  0  0  0  0  0  0  0  0  0  0
  160.8370  203.1470  146.1720 N   0  0  0  0  0  2  0  0  0  0  0  0
  160.7190  201.5560  148.6720 O   0  0  0  0  0  0  0  0  0  0  0  0
  160.9340  209.5320  150.6690 O   0  0  0  0  0  0  0  0  0  0  0  0
  162.4670  205.8310  145.6470 C   0  0  2  0  0  3  0  0  0  0  0  0
  159.9720  206.0580  145.6950 N   0  0  0  0  0  2  0  0  0  0  0  0
  160.7650  199.5730  147.3490 C   0  0  0  0  0  3  0  0  0  0  0  0
  161.2360  207.6830  148.8080 C   0  0  1  0  0  3  0  0  0  0  0  0
  160.8380  198.8960  146.1320 C   0  0  0  0  0  3  0  0  0  0  0  0
  162.0240  209.8570  149.8440 C   0  0  0  0  0  2  0  0  0  0  0  0
  161.0890  203.9940  153.2560 N   0  0  0  0  0  1  0  0  0  0  0  0
  161.2990  206.7630  150.0050 C   0  0  0  0  0  0  0  0  0  0  0  0
  161.1080  205.3790  145.0760 C   0  0  2  0  0  3  0  0  0  0  0  0
  161.3280  205.3860  149.7600 O   0  0  0  0  0  0  0  0  0  0  0  0
  162.3590  203.1670  148.3980 O   0  0  0  0  0  0  0  0  0  0  0  0
  160.0830  206.8180  146.8730 N   0  0  0  0  0  0  0  0  0  0  0  0
  163.5900  204.8220  145.4690 C   0  0  0  0  0  1  0  0  0  0  0  0
  161.1610  206.7050  153.7170 O   0  0  0  0  0  1  0  0  0  0  0  0
  161.4470  208.6740  151.6480 C   0  0  0  0  0  2  0  0  0  0  0  0
  162.3700  206.2530  147.0370 N   0  0  0  0  0  2  0  0  0  0  0  0
  162.3250  208.7510  148.8220 C   0  0  0  0  0  2  0  0  0  0  0  0
  160.8020  200.9720  147.4010 C   0  0  0  0  0  0  0  0  0  0  0  0
  161.4610  202.6510  149.1180 C   0  0  0  0  0  0  0  0  0  0  0  0
  160.8650  203.8770  144.9070 C   0  0  0  0  0  2  0  0  0  0  0  0
  161.2040  206.2390  152.4060 C   0  0  0  0  0  0  0  0  0  0  0  0
  160.9400  199.6140  144.9430 C   0  0  0  0  0  3  0  0  0  0  0  0
  161.2460  203.1440  150.4850 C   0  0  0  0  0  3  0  0  0  0  0  0
  161.2750  207.2160  151.2860 C   0  0  0  0  0  0  0  0  0  0  0  0
  160.9550  201.0080  144.9740 C   0  0  0  0  0  3  0  0  0  0  0  0
  1 11  1  0  0  0  0
  2 25  1  0  0  0  0
  3 28  2  0  0  0  0
  3 14  1  0  0  0  0
  4  3  1  0  0  0  0
  5  2  1  0  0  0  0
  6 26  1  0  0  0  0
  7 22  1  0  0  0  0
  8 20  1  1  0  0  0
  8 23  1  0  0  0  0
  9 19  1  0  0  0  0
 10 25  2  0  0  0  0
 11 24  1  6  0  0  0
 11 15  1  0  0  0  0
 12 10  1  0  0  0  0
 13  7  1  0  0  0  0
 15 31  2  0  0  0  0
 16 27  1  1  0  0  0
 16  8  1  0  0  0  0
 16  9  1  0  0  0  0
 17 15  1  0  0  0  0
 17  4  1  0  0  0  0
 18 26  2  0  0  0  0
 19  1  2  0  0  0  0
 23  1  1  0  0  0  0
 24 13  1  0  0  0  0
 25  6  1  0  0  0  0
 26 30  1  0  0  0  0
 27  5  1  0  0  0  0
 28 21  1  0  0  0  0
 29 32  1  0  0  0  0
 29 12  2  0  0  0  0
 30  4  2  0  0  0  0
 31 22  1  0  0  0  0
 31 28  1  0  0  0  0
 32  2  2  0  0  0  0
M  END
>  <MODEL>
2

>  <REMARK>
 VINA RESULT:      -2.8      4.245     10.123
  Name = 
  0 active torsions:
  status: ('A' for Active; 'I' for Inactive)
                            x       y       z     vdW  Elec       q    Type
                         _______ _______ _______ _____ _____    ______ ____

>  <TORSDO>
F 0

$$$$
=
 OpenBabel11052411563D

 32 36  0  0  1  0  0  0  0  0999 V2000
  161.2600  205.0790  152.7070 C   0  0  0  0  0  0  0  0  0  0  0  0
  161.6880  204.4160  147.3660 C   0  0  0  0  0  0  0  0  0  0  0  0
  161.5580  209.9510  151.3020 C   0  0  0  0  0  0  0  0  0  0  0  0
  161.4250  208.6390  150.6490 C   0  0  0  0  0  0  0  0  0  0  0  0
  161.6850  204.2140  148.7890 N   0  0  0  0  0  2  0  0  0  0  0  0
  161.9600  206.8870  147.5320 O   0  0  0  0  0  0  0  0  0  0  0  0
  161.5900  207.8700  155.6900 O   0  0  0  0  0  0  0  0  0  0  0  0
  159.9540  203.4320  151.3430 C   0  0  2  0  0  3  0  0  0  0  0  0
  162.4410  203.3340  151.6360 N   0  0  0  0  0  2  0  0  0  0  0  0
  161.9170  205.8280  145.3960 C   0  0  0  0  0  3  0  0  0  0  0  0
  161.2640  206.2730  153.6120 C   0  0  1  0  0  3  0  0  0  0  0  0
  161.8120  204.7110  144.5680 C   0  0  0  0  0  3  0  0  0  0  0  0
  160.4560  207.0620  155.8800 C   0  0  0  0  0  2  0  0  0  0  0  0
  161.7140  211.1390  150.5240 N   0  0  0  0  0  1  0  0  0  0  0  0
  161.2810  207.5780  152.8510 C   0  0  0  0  0  0  0  0  0  0  0  0
  161.3000  202.8600  150.8550 C   0  0  2  0  0  3  0  0  0  0  0  0
  161.2830  207.5100  151.4530 O   0  0  0  0  0  0  0  0  0  0  0  0
  160.2620  206.4890  149.0540 O   0  0  0  0  0  0  0  0  0  0  0  0
  162.3580  204.4110  152.5360 N   0  0  0  0  0  0  0  0  0  0  0  0
  158.8560  203.4360  150.2920 C   0  0  0  0  0  1  0  0  0  0  0  0
  161.5810  211.2570  153.2690 O   0  0  0  0  0  1  0  0  0  0  0  0
  161.1460  208.9720  154.9510 C   0  0  0  0  0  2  0  0  0  0  0  0
  160.0980  204.7510  151.9410 N   0  0  0  0  0  2  0  0  0  0  0  0
  160.1450  206.2030  154.6460 C   0  0  0  0  0  2  0  0  0  0  0  0
  161.8400  205.7050  146.7890 C   0  0  0  0  0  0  0  0  0  0  0  0
  161.2050  207.2250  148.6570 C   0  0  0  0  0  0  0  0  0  0  0  0
  161.5810  202.8700  149.3510 C   0  0  0  0  0  2  0  0  0  0  0  0
  161.4950  210.0190  152.6390 C   0  0  0  0  0  0  0  0  0  0  0  0
  161.6370  203.4470  145.1260 C   0  0  0  0  0  3  0  0  0  0  0  0
  161.4640  208.5080  149.3240 C   0  0  0  0  0  3  0  0  0  0  0  0
  161.3460  208.7890  153.4640 C   0  0  0  0  0  0  0  0  0  0  0  0
  161.5810  203.3020  146.5120 C   0  0  0  0  0  3  0  0  0  0  0  0
  1 11  1  0  0  0  0
  2  5  1  0  0  0  0
  3 28  2  0  0  0  0
  4  3  1  0  0  0  0
  4 17  1  0  0  0  0
  5 27  1  0  0  0  0
  6 26  1  0  0  0  0
  7 13  1  0  0  0  0
  8 20  1  6  0  0  0
  8 23  1  0  0  0  0
  9 19  1  0  0  0  0
 10 25  2  0  0  0  0
 11 24  1  6  0  0  0
 12 29  2  0  0  0  0
 12 10  1  0  0  0  0
 14  3  1  0  0  0  0
 15 31  2  0  0  0  0
 15 11  1  0  0  0  0
 16 27  1  6  0  0  0
 16  8  1  0  0  0  0
 16  9  1  0  0  0  0
 17 15  1  0  0  0  0
 19  1  2  0  0  0  0
 22  7  1  0  0  0  0
 23  1  1  0  0  0  0
 24 13  1  0  0  0  0
 25  2  1  0  0  0  0
 25  6  1  0  0  0  0
 26 18  2  0  0  0  0
 26 30  1  0  0  0  0
 28 21  1  0  0  0  0
 28 31  1  0  0  0  0
 29 32  1  0  0  0  0
 30  4  2  0  0  0  0
 31 22  1  0  0  0  0
 32  2  2  0  0  0  0
M  END
>  <MODEL>
3

>  <REMARK>
 VINA RESULT:      -2.8      2.989      7.706
  Name = 
  0 active torsions:
  status: ('A' for Active; 'I' for Inactive)
                            x       y       z     vdW  Elec       q    Type
                         _______ _______ _______ _____ _____    ______ ____

>  <TORSDO>
F 0

$$$$
=
 OpenBabel11052411563D

 32 36  0  0  1  0  0  0  0  0999 V2000
  161.5200  207.9910  148.0090 C   0  0  0  0  0  0  0  0  0  0  0  0
  160.9980  202.6680  148.7430 C   0  0  0  0  0  0  0  0  0  0  0  0
  161.1060  207.9040  153.0700 C   0  0  0  0  0  0  0  0  0  0  0  0
  161.2500  206.9310  151.9760 C   0  0  0  0  0  0  0  0  0  0  0  0
  161.0330  203.9900  148.1800 N   0  0  0  0  0  2  0  0  0  0  0  0
  160.6850  203.4740  151.0800 O   0  0  0  0  0  0  0  0  0  0  0  0
  161.2000  211.6010  149.9220 O   0  0  0  0  0  0  0  0  0  0  0  0
  162.8280  206.2270  146.8010 C   0  0  2  0  0  3  0  0  0  0  0  0
  160.3500  206.5210  146.5750 N   0  0  0  0  0  2  0  0  0  0  0  0
  160.7050  201.1360  150.6120 C   0  0  0  0  0  3  0  0  0  0  0  0
  161.5130  209.1750  148.9260 C   0  0  1  0  0  3  0  0  0  0  0  0
  160.8130  200.0450  149.7510 C   0  0  0  0  0  3  0  0  0  0  0  0
  162.3510  211.5590  149.1180 C   0  0  0  0  0  2  0  0  0  0  0  0
  160.9130  207.4640  154.4150 N   0  0  0  0  0  1  0  0  0  0  0  0
  161.4570  208.7790  150.3830 C   0  0  0  0  0  0  0  0  0  0  0  0
  161.4840  205.6270  146.3450 C   0  0  2  0  0  3  0  0  0  0  0  0
  161.4280  207.4120  150.6800 O   0  0  0  0  0  0  0  0  0  0  0  0
  162.4200  204.8160  150.3400 O   0  0  0  0  0  0  0  0  0  0  0  0
  160.4320  207.6690  147.3830 N   0  0  0  0  0  0  0  0  0  0  0  0
  163.9050  205.1980  147.1020 C   0  0  0  0  0  1  0  0  0  0  0  0
  161.0990  210.1430  153.8200 O   0  0  0  0  0  1  0  0  0  0  0  0
  161.6090  211.1670  151.1880 C   0  0  0  0  0  2  0  0  0  0  0  0
  162.6730  207.1490  147.9170 N   0  0  0  0  0  2  0  0  0  0  0  0
  162.6540  210.1390  148.6160 C   0  0  0  0  0  2  0  0  0  0  0  0
  160.8110  202.4480  150.1340 C   0  0  0  0  0  0  0  0  0  0  0  0
  161.4560  204.6370  151.1320 C   0  0  0  0  0  0  0  0  0  0  0  0
  161.1730  204.1810  146.7390 C   0  0  0  0  0  2  0  0  0  0  0  0
  161.1940  209.2120  152.7900 C   0  0  0  0  0  0  0  0  0  0  0  0
  161.0220  200.2530  148.3900 C   0  0  0  0  0  3  0  0  0  0  0  0
  161.1870  205.6180  152.1920 C   0  0  0  0  0  3  0  0  0  0  0  0
  161.3820  209.6860  151.3920 C   0  0  0  0  0  0  0  0  0  0  0  0
  161.1080  201.5530  147.8920 C   0  0  0  0  0  3  0  0  0  0  0  0
  1 11  1  0  0  0  0
  2 25  1  0  0  0  0
  3 14  1  0  0  0  0
  4 30  2  0  0  0  0
  4  3  1  0  0  0  0
  5  2  1  0  0  0  0
  6 26  1  0  0  0  0
  7 22  1  0  0  0  0
  8 20  1  1  0  0  0
  8 23  1  0  0  0  0
  9 19  1  0  0  0  0
 11 24  1  1  0  0  0
 11 15  1  0  0  0  0
 12 10  1  0  0  0  0
 13  7  1  0  0  0  0
 15 17  1  0  0  0  0
 15 31  2  0  0  0  0
 16  9  1  0  0  0  0
 16 27  1  1  0  0  0
 16  8  1  0  0  0  0
 17  4  1  0  0  0  0
 18 26  2  0  0  0  0
 19  1  2  0  0  0  0
 22 31  1  0  0  0  0
 23  1  1  0  0  0  0
 24 13  1  0  0  0  0
 25 10  2  0  0  0  0
 25  6  1  0  0  0  0
 26 30  1  0  0  0  0
 27  5  1  0  0  0  0
 28  3  2  0  0  0  0
 28 21  1  0  0  0  0
 29 12  2  0  0  0  0
 31 28  1  0  0  0  0
 32 29  1  0  0  0  0
 32  2  2  0  0  0  0
M  END
>  <MODEL>
4

>  <REMARK>
 VINA RESULT:      -2.6      3.088      8.793
  Name = 
  0 active torsions:
  status: ('A' for Active; 'I' for Inactive)
                            x       y       z     vdW  Elec       q    Type
                         _______ _______ _______ _____ _____    ______ ____

>  <TORSDO>
F 0

$$$$
=
 OpenBabel11052411563D

 32 36  0  0  1  0  0  0  0  0999 V2000
  161.7190  205.9820  152.4290 C   0  0  0  0  0  0  0  0  0  0  0  0
  161.2500  203.1580  147.8510 C   0  0  0  0  0  0  0  0  0  0  0  0
  161.7450  209.8170  149.1000 C   0  0  0  0  0  0  0  0  0  0  0  0
  161.5130  208.3650  149.0810 C   0  0  0  0  0  0  0  0  0  0  0  0
  161.4870  203.5590  149.2110 N   0  0  0  0  0  2  0  0  0  0  0  0
  161.5290  205.4570  146.9310 O   0  0  0  0  0  0  0  0  0  0  0  0
  162.5250  209.7230  153.8930 O   0  0  0  0  0  0  0  0  0  0  0  0
  160.2140  204.0060  152.0930 C   0  0  2  0  0  3  0  0  0  0  0  0
  162.7150  203.8790  152.0110 N   0  0  0  0  0  2  0  0  0  0  0  0
  161.1360  203.6200  145.4640 C   0  0  0  0  0  3  0  0  0  0  0  0
  161.8670  207.4380  152.7440 C   0  0  1  0  0  3  0  0  0  0  0  0
  160.9010  202.2710  145.2010 C   0  0  0  0  0  3  0  0  0  0  0  0
  161.4450  209.1390  154.5750 C   0  0  0  0  0  2  0  0  0  0  0  0
  161.7600  210.5690  147.8860 N   0  0  0  0  0  1  0  0  0  0  0  0
  161.7470  208.3120  151.5170 C   0  0  0  0  0  0  0  0  0  0  0  0
  161.4620  203.1990  151.6850 C   0  0  2  0  0  3  0  0  0  0  0  0
  161.5150  207.6760  150.2920 O   0  0  0  0  0  0  0  0  0  0  0  0
  160.1130  205.8280  148.7250 O   0  0  0  0  0  0  0  0  0  0  0  0
  162.7770  205.2340  152.3840 N   0  0  0  0  0  0  0  0  0  0  0  0
  158.9550  203.6480  151.3210 C   0  0  0  0  0  1  0  0  0  0  0  0
  162.0880  211.8110  150.3180 O   0  0  0  0  0  1  0  0  0  0  0  0
  161.9560  210.4510  152.8420 C   0  0  0  0  0  2  0  0  0  0  0  0
  160.4470  205.4420  152.0590 N   0  0  0  0  0  2  0  0  0  0  0  0
  160.9370  207.8710  153.8740 C   0  0  0  0  0  2  0  0  0  0  0  0
  161.2940  204.0840  146.7750 C   0  0  0  0  0  0  0  0  0  0  0  0
  160.9710  206.2740  147.9160 C   0  0  0  0  0  0  0  0  0  0  0  0
  161.4870  202.5740  150.2890 C   0  0  0  0  0  2  0  0  0  0  0  0
  161.9060  210.4320  150.2810 C   0  0  0  0  0  0  0  0  0  0  0  0
  160.8310  201.3610  146.2540 C   0  0  0  0  0  3  0  0  0  0  0  0
  161.3300  207.6990  147.9420 C   0  0  0  0  0  3  0  0  0  0  0  0
  161.9060  209.6610  151.5530 C   0  0  0  0  0  0  0  0  0  0  0  0
  161.0090  201.8020  147.5650 C   0  0  0  0  0  3  0  0  0  0  0  0
  1 11  1  0  0  0  0
  2  5  1  0  0  0  0
  3 28  2  0  0  0  0
  4  3  1  0  0  0  0
  4 17  1  0  0  0  0
  5 27  1  0  0  0  0
  6 26  1  0  0  0  0
  7 13  1  0  0  0  0
  8 20  1  6  0  0  0
  9 19  1  0  0  0  0
 10 25  1  0  0  0  0
 11 24  1  1  0  0  0
 12 10  2  0  0  0  0
 12 29  1  0  0  0  0
 14  3  1  0  0  0  0
 15 31  2  0  0  0  0
 15 11  1  0  0  0  0
 16 27  1  6  0  0  0
 16  9  1  0  0  0  0
 16  8  1  0  0  0  0
 17 15  1  0  0  0  0
 19  1  2  0  0  0  0
 22  7  1  0  0  0  0
 23  8  1  0  0  0  0
 23  1  1  0  0  0  0
 24 13  1  0  0  0  0
 25  6  1  0  0  0  0
 25  2  2  0  0  0  0
 26 30  1  0  0  0  0
 26 18  2  0  0  0  0
 28 21  1  0  0  0  0
 28 31  1  0  0  0  0
 29 32  2  0  0  0  0
 30  4  2  0  0  0  0
 31 22  1  0  0  0  0
 32  2  1  0  0  0  0
M  END
>  <MODEL>
5

>  <REMARK>
 VINA RESULT:      -2.6      3.112      7.926
  Name = 
  0 active torsions:
  status: ('A' for Active; 'I' for Inactive)
                            x       y       z     vdW  Elec       q    Type
                         _______ _______ _______ _____ _____    ______ ____

>  <TORSDO>
F 0

$$$$
=
 OpenBabel11052411563D

 32 36  0  0  1  0  0  0  0  0999 V2000
  160.9510  203.9720  150.9090 C   0  0  0  0  0  0  0  0  0  0  0  0
  161.6600  209.2770  150.1920 C   0  0  0  0  0  0  0  0  0  0  0  0
  161.2150  204.0820  145.8370 C   0  0  0  0  0  0  0  0  0  0  0  0
  161.4190  205.0160  146.9560 C   0  0  0  0  0  0  0  0  0  0  0  0
  161.3430  207.9840  150.7360 N   0  0  0  0  0  2  0  0  0  0  0  0
  161.4850  208.5250  147.8230 O   0  0  0  0  0  0  0  0  0  0  0  0
  160.1250  200.4880  148.9170 O   0  0  0  0  0  0  0  0  0  0  0  0
  162.4360  205.4360  152.2990 C   0  0  2  0  0  3  0  0  0  0  0  0
  159.9440  205.6740  152.2030 N   0  0  0  0  0  2  0  0  0  0  0  0
  161.9370  210.8120  148.3240 C   0  0  0  0  0  3  0  0  0  0  0  0
  160.8120  202.8050  149.9810 C   0  0  1  0  0  3  0  0  0  0  0  0
  162.1620  211.8670  149.2080 C   0  0  0  0  0  3  0  0  0  0  0  0
  161.1470  200.2960  149.8610 C   0  0  0  0  0  2  0  0  0  0  0  0
  161.2920  204.5360  144.4860 N   0  0  0  0  0  1  0  0  0  0  0  0
  161.0280  203.1850  148.5340 C   0  0  0  0  0  0  0  0  0  0  0  0
  161.2010  206.3120  152.5890 C   0  0  2  0  0  3  0  0  0  0  0  0
  161.3250  204.5250  148.2560 O   0  0  0  0  0  0  0  0  0  0  0  0
  162.7890  206.8580  148.7590 O   0  0  0  0  0  0  0  0  0  0  0  0
  159.8840  204.5250  151.3950 N   0  0  0  0  0  0  0  0  0  0  0  0
  163.7350  206.2120  152.1530 C   0  0  0  0  0  1  0  0  0  0  0  0
  160.8320  201.8850  145.0600 O   0  0  0  0  0  1  0  0  0  0  0  0
  160.7750  200.8090  147.7200 C   0  0  0  0  0  2  0  0  0  0  0  0
  162.2340  204.5540  151.1590 N   0  0  0  0  0  2  0  0  0  0  0  0
  161.6750  201.6260  150.4190 C   0  0  0  0  0  2  0  0  0  0  0  0
  161.7030  209.5140  148.7930 C   0  0  0  0  0  0  0  0  0  0  0  0
  161.9940  207.2260  147.8520 C   0  0  0  0  0  0  0  0  0  0  0  0
  161.2540  207.7850  152.1800 C   0  0  0  0  0  2  0  0  0  0  0  0
  160.9900  202.7880  146.1070 C   0  0  0  0  0  0  0  0  0  0  0  0
  162.1460  211.6360  150.5810 C   0  0  0  0  0  3  0  0  0  0  0  0
  161.6630  206.3100  146.7530 C   0  0  0  0  0  3  0  0  0  0  0  0
  160.8930  202.3020  147.5100 C   0  0  0  0  0  0  0  0  0  0  0  0
  161.8920  210.3540  151.0670 C   0  0  0  0  0  3  0  0  0  0  0  0
  1 23  1  0  0  0  0
  1 19  2  0  0  0  0
  2  5  1  0  0  0  0
  2 32  1  0  0  0  0
  3 28  2  0  0  0  0
  3  4  1  0  0  0  0
  4 17  1  0  0  0  0
  5 27  1  0  0  0  0
  6 26  1  0  0  0  0
  6 25  1  0  0  0  0
  7 13  1  0  0  0  0
  8 20  1  6  0  0  0
  8 16  1  0  0  0  0
  9 16  1  0  0  0  0
 10 25  1  0  0  0  0
 10 12  2  0  0  0  0
 11 24  1  1  0  0  0
 11  1  1  0  0  0  0
 12 29  1  0  0  0  0
 13 24  1  0  0  0  0
 14  3  1  0  0  0  0
 15 11  1  0  0  0  0
 16 27  1  6  0  0  0
 17 15  1  0  0  0  0
 19  9  1  0  0  0  0
 21 28  1  0  0  0  0
 22  7  1  0  0  0  0
 23  8  1  0  0  0  0
 25  2  2  0  0  0  0
 26 18  2  0  0  0  0
 28 31  1  0  0  0  0
 29 32  2  0  0  0  0
 30  4  2  0  0  0  0
 30 26  1  0  0  0  0
 31 22  1  0  0  0  0
 31 15  2  0  0  0  0
M  END
>  <MODEL>
6

>  <REMARK>
 VINA RESULT:      -1.7      4.098      5.910
  Name = 
  0 active torsions:
  status: ('A' for Active; 'I' for Inactive)
                            x       y       z     vdW  Elec       q    Type
                         _______ _______ _______ _____ _____    ______ ____

>  <TORSDO>
F 0

$$$$
=
 OpenBabel11052411563D

 32 36  0  0  1  0  0  0  0  0999 V2000
  160.9470  203.2930  150.3710 C   0  0  0  0  0  0  0  0  0  0  0  0
  161.1900  208.4320  152.0090 C   0  0  0  0  0  0  0  0  0  0  0  0
  160.9980  205.5910  145.8410 C   0  0  0  0  0  0  0  0  0  0  0  0
  161.1700  205.9690  147.2530 C   0  0  0  0  0  0  0  0  0  0  0  0
  161.0020  207.0090  151.9430 N   0  0  0  0  0  2  0  0  0  0  0  0
  160.9830  208.7570  149.5470 O   0  0  0  0  0  0  0  0  0  0  0  0
  160.3300  200.9400  147.0730 O   0  0  0  0  0  0  0  0  0  0  0  0
  162.3620  204.1480  152.2550 C   0  0  2  0  0  3  0  0  0  0  0  0
  159.8560  204.1760  152.2730 N   0  0  0  0  0  2  0  0  0  0  0  0
  161.2660  210.6390  150.9840 C   0  0  0  0  0  3  0  0  0  0  0  0
  160.8670  202.6300  149.0310 C   0  0  1  0  0  3  0  0  0  0  0  0
  161.4390  211.2280  152.2360 C   0  0  0  0  0  3  0  0  0  0  0  0
  161.4020  200.4560  147.8420 C   0  0  0  0  0  2  0  0  0  0  0  0
  160.9840  206.5850  144.8170 N   0  0  0  0  0  1  0  0  0  0  0  0
  160.9930  203.6110  147.8890 C   0  0  0  0  0  0  0  0  0  0  0  0
  161.0720  204.6980  152.8950 C   0  0  2  0  0  3  0  0  0  0  0  0
  161.1690  204.9610  148.2150 O   0  0  0  0  0  0  0  0  0  0  0  0
  162.4560  206.9760  149.6720 O   0  0  0  0  0  0  0  0  0  0  0  0
  159.8590  203.4830  151.0490 N   0  0  0  0  0  0  0  0  0  0  0  0
  163.5860  205.0260  152.4560 C   0  0  0  0  0  1  0  0  0  0  0  0
  160.7660  203.9150  144.1940 O   0  0  0  0  0  1  0  0  0  0  0  0
  160.9030  201.8020  146.1310 C   0  0  0  0  0  2  0  0  0  0  0  0
  162.1870  203.8250  150.8470 N   0  0  0  0  0  2  0  0  0  0  0  0
  161.8410  201.4600  148.9180 C   0  0  0  0  0  2  0  0  0  0  0  0
  161.1580  209.2500  150.8480 C   0  0  0  0  0  0  0  0  0  0  0  0
  161.5980  207.6230  149.0130 C   0  0  0  0  0  0  0  0  0  0  0  0
  160.9880  206.2020  153.1610 C   0  0  0  0  0  2  0  0  0  0  0  0
  160.8900  204.2910  145.5280 C   0  0  0  0  0  0  0  0  0  0  0  0
  161.4970  210.4300  153.3760 C   0  0  0  0  0  3  0  0  0  0  0  0
  161.2980  207.2410  147.6270 C   0  0  0  0  0  3  0  0  0  0  0  0
  160.8900  203.2440  146.5850 C   0  0  0  0  0  0  0  0  0  0  0  0
  161.3690  209.0460  153.2620 C   0  0  0  0  0  3  0  0  0  0  0  0
  1 23  1  0  0  0  0
  1 19  2  0  0  0  0
  2 32  1  0  0  0  0
  3  4  1  0  0  0  0
  4 30  2  0  0  0  0
  4 17  1  0  0  0  0
  5  2  1  0  0  0  0
  5 27  1  0  0  0  0
  6 25  1  0  0  0  0
  7 13  1  0  0  0  0
  8 20  1  6  0  0  0
  8 16  1  0  0  0  0
  9 16  1  0  0  0  0
 10 12  2  0  0  0  0
 11 24  1  1  0  0  0
 11  1  1  0  0  0  0
 12 29  1  0  0  0  0
 13 24  1  0  0  0  0
 14  3  1  0  0  0  0
 15 17  1  0  0  0  0
 15 11  1  0  0  0  0
 16 27  1  6  0  0  0
 19  9  1  0  0  0  0
 21 28  1  0  0  0  0
 22 31  1  0  0  0  0
 22  7  1  0  0  0  0
 23  8  1  0  0  0  0
 25 10  1  0  0  0  0
 25  2  2  0  0  0  0
 26  6  1  0  0  0  0
 26 18  2  0  0  0  0
 28  3  2  0  0  0  0
 28 31  1  0  0  0  0
 30 26  1  0  0  0  0
 31 15  2  0  0  0  0
 32 29  2  0  0  0  0
M  END
>  <MODEL>
7

>  <REMARK>
 VINA RESULT:      -1.5      3.380      5.362
  Name = 
  0 active torsions:
  status: ('A' for Active; 'I' for Inactive)
                            x       y       z     vdW  Elec       q    Type
                         _______ _______ _______ _____ _____    ______ ____

>  <TORSDO>
F 0

$$$$
