=
 OpenBabel11052411483D

 40 43  0  0  1  0  0  0  0  0999 V2000
  161.3130  209.9540  155.9050 C   0  0  0  0  0  0  0  0  0  0  0  0
  162.2870  207.3920  148.9830 C   0  0  0  0  0  0  0  0  0  0  0  0
  161.3130  210.1430  154.6350 N   0  0  0  0  0  0  0  0  0  0  0  0
  161.9110  208.7250  156.5030 C   0  0  0  0  0  2  0  0  0  0  0  0
  160.2080  211.7910  153.2470 C   0  0  0  0  0  0  0  0  0  0  0  0
  161.3310  207.4350  153.7800 C   0  0  0  0  0  3  0  0  0  0  0  0
  160.4730  206.9850  157.2350 O   0  0  0  0  0  0  0  0  0  0  0  0
  160.5000  211.0330  152.0650 N   0  0  0  0  0  2  0  0  0  0  0  0
  160.8490  206.9210  154.9140 C   0  0  0  0  0  3  0  0  0  0  0  0
  160.1750  211.8110  155.7700 C   0  0  0  0  0  3  0  0  0  0  0  0
  160.5460  205.4830  152.4180 C   0  0  0  0  0  1  0  0  0  0  0  0
  161.0910  206.8360  152.4940 N   0  0  0  0  0  0  0  0  0  0  0  0
  162.1010  208.7720  148.8400 C   0  0  0  0  0  3  0  0  0  0  0  0
  161.2450  208.9140  151.1070 C   0  0  0  0  0  0  0  0  0  0  0  0
  160.6240  210.9660  156.6450 N   0  0  0  0  0  0  0  0  0  0  0  0
  161.4420  207.5210  151.2720 C   0  0  0  0  0  0  0  0  0  0  0  0
  160.5620  211.3240  154.4510 C   0  0  0  0  0  0  0  0  0  0  0  0
  161.9550  206.7800  150.1940 C   0  0  0  0  0  3  0  0  0  0  0  0
  161.0490  207.5190  156.2520 C   0  0  0  0  0  0  0  0  0  0  0  0
  161.5830  209.5260  149.8930 C   0  0  0  0  0  3  0  0  0  0  0  0
  160.7150  209.6700  152.1510 O   0  0  0  0  0  0  0  0  0  0  0  0
  162.8170  206.5830  147.9250 N   0  0  0  0  0  2  0  0  0  0  0  0
  160.7500  206.3640  146.6090 O   0  0  0  0  0  1  0  0  0  0  0  0
  162.1050  206.1050  146.7780 C   0  0  0  0  0  0  0  0  0  0  0  0
  162.7150  205.4280  145.9120 O   0  0  0  0  0  0  0  0  0  0  0  0
  159.3290  213.3440  153.0880 S   0  0  0  0  0  0  0  0  0  0  0  0
  158.3060  212.7120  151.7280 C   0  0  0  0  0  2  0  0  0  0  0  0
  158.8700  214.2000  149.7440 N   0  0  0  0  0  2  0  0  0  0  0  0
  157.9720  213.8220  150.7910 C   0  0  0  0  0  0  0  0  0  0  0  0
  156.8940  214.4530  150.9410 O   0  0  0  0  0  0  0  0  0  0  0  0
  160.1350  213.5160  149.5210 C   0  0  0  0  0  2  0  0  0  0  0  0
  160.6130  212.9600  144.4650 C   0  0  0  0  0  2  0  0  0  0  0  0
  162.7690  213.6520  148.0390 O   0  0  0  0  0  1  0  0  0  0  0  0
  161.6220  214.3470  146.1500 O   0  0  0  0  0  0  0  0  0  0  0  0
  159.2490  213.4280  144.9680 C   0  0  0  0  0  2  0  0  0  0  0  0
  161.7030  213.0910  145.5240 C   0  0  0  0  0  2  0  0  0  0  0  0
  161.5570  214.1520  147.5500 C   0  0  1  0  0  3  0  0  0  0  0  0
  158.8760  212.7270  146.1880 N   0  0  0  0  0  2  0  0  0  0  0  0
  159.0770  213.6510  147.2960 C   0  0  0  0  0  2  0  0  0  0  0  0
  160.3620  213.3020  148.0350 C   0  0  2  0  0  3  0  0  0  0  0  0
  1  4  1  0  0  0  0
  1 15  1  0  0  0  0
  2 18  1  0  0  0  0
  3  1  2  0  0  0  0
  5 17  2  0  0  0  0
  6  9  2  0  0  0  0
  8 21  1  0  0  0  0
  8  5  1  0  0  0  0
  9 19  1  0  0  0  0
 10 15  2  0  0  0  0
 11 12  1  0  0  0  0
 12  6  1  0  0  0  0
 13  2  2  0  0  0  0
 13 20  1  0  0  0  0
 14 16  1  0  0  0  0
 14 21  1  0  0  0  0
 16 12  1  0  0  0  0
 17  3  1  0  0  0  0
 17 10  1  0  0  0  0
 18 16  2  0  0  0  0
 19  4  1  0  0  0  0
 19  7  2  0  0  0  0
 20 14  2  0  0  0  0
 22  2  1  0  0  0  0
 23 24  1  0  0  0  0
 24 22  1  0  0  0  0
 25 24  2  0  0  0  0
 26  5  1  0  0  0  0
 27 26  1  0  0  0  0
 28 29  1  0  0  0  0
 29 30  2  0  0  0  0
 29 27  1  0  0  0  0
 31 28  1  0  0  0  0
 32 35  1  0  0  0  0
 32 36  1  0  0  0  0
 34 37  1  0  0  0  0
 35 38  1  0  0  0  0
 36 34  1  0  0  0  0
 37 40  1  0  0  0  0
 37 33  1  6  0  0  0
 38 39  1  0  0  0  0
 39 40  1  0  0  0  0
 40 31  1  1  0  0  0
M  END
>  <MODEL>
1

>  <REMARK>
 VINA RESULT:      -7.6      0.000      0.000
  Name = 
  6 active torsions:
  status: ('A' for Active; 'I' for Inactive)
    1  A    between atoms: C_1  and  N_10
    2  A    between atoms: C_1  and  C_34
    3  A    between atoms: C_3  and  N_4
    4  A    between atoms: C_9  and  S_11
    5  A    between atoms: S_11  and  C_37
    6  A    between atoms: C_18  and  C_37
                            x       y       z     vdW  Elec       q    Type
                         _______ _______ _______ _____ _____    ______ ____

>  <TORSDO>
F 6

$$$$
=
 OpenBabel11052411483D

 40 43  0  0  1  0  0  0  0  0999 V2000
  161.3860  206.8570  149.6380 C   0  0  0  0  0  0  0  0  0  0  0  0
  159.1230  211.4560  155.0370 C   0  0  0  0  0  0  0  0  0  0  0  0
  161.1960  208.0460  150.0840 N   0  0  0  0  0  0  0  0  0  0  0  0
  160.8020  205.6700  150.3280 C   0  0  0  0  0  2  0  0  0  0  0  0
  162.1830  210.1740  149.4840 C   0  0  0  0  0  0  0  0  0  0  0  0
  160.8390  207.4400  152.8350 C   0  0  0  0  0  3  0  0  0  0  0  0
  162.2050  204.3250  151.6900 O   0  0  0  0  0  0  0  0  0  0  0  0
  161.6490  210.7870  150.6650 N   0  0  0  0  0  2  0  0  0  0  0  0
  161.4570  206.2570  152.8050 C   0  0  0  0  0  3  0  0  0  0  0  0
  162.6230  208.0120  148.2600 C   0  0  0  0  0  3  0  0  0  0  0  0
  161.2460  207.7280  155.2920 C   0  0  0  0  0  1  0  0  0  0  0  0
  160.8230  208.2760  154.0050 N   0  0  0  0  0  0  0  0  0  0  0  0
  159.3860  212.2830  153.9380 C   0  0  0  0  0  3  0  0  0  0  0  0
  160.6040  210.4870  152.8510 C   0  0  0  0  0  0  0  0  0  0  0  0
  162.2590  206.7920  148.5060 N   0  0  0  0  0  0  0  0  0  0  0  0
  160.3330  209.6340  153.9490 C   0  0  0  0  0  0  0  0  0  0  0  0
  161.9930  208.8670  149.2590 C   0  0  0  0  0  0  0  0  0  0  0  0
  159.5990  210.1430  155.0340 C   0  0  0  0  0  3  0  0  0  0  0  0
  161.5200  205.3780  151.6170 C   0  0  0  0  0  0  0  0  0  0  0  0
  160.1220  211.8020  152.8550 C   0  0  0  0  0  3  0  0  0  0  0  0
  161.3500  210.0150  151.7720 O   0  0  0  0  0  0  0  0  0  0  0  0
  158.3710  211.9130  156.1690 N   0  0  0  0  0  2  0  0  0  0  0  0
  156.2420  212.3270  155.0080 O   0  0  0  0  0  0  0  0  0  0  0  0
  156.9940  212.3090  156.1760 C   0  0  0  0  0  0  0  0  0  0  0  0
  156.4590  212.6580  157.2590 O   0  0  0  0  0  1  0  0  0  0  0  0
  163.1390  211.1710  148.3430 S   0  0  0  0  0  0  0  0  0  0  0  0
  161.8600  212.4580  148.2800 C   0  0  0  0  0  2  0  0  0  0  0  0
  161.9850  213.7840  146.1130 N   0  0  0  0  0  2  0  0  0  0  0  0
  162.3520  213.6190  147.4850 C   0  0  0  0  0  0  0  0  0  0  0  0
  163.1250  214.4530  148.0240 O   0  0  0  0  0  0  0  0  0  0  0  0
  161.1020  212.8520  145.4280 C   0  0  0  0  0  2  0  0  0  0  0  0
  161.2350  213.7060  140.3920 C   0  0  0  0  0  2  0  0  0  0  0  0
  158.6460  213.0620  143.6750 O   0  0  0  0  0  1  0  0  0  0  0  0
  159.9200  212.3480  141.8770 O   0  0  0  0  0  0  0  0  0  0  0  0
  162.4850  213.0760  141.0050 C   0  0  0  0  0  2  0  0  0  0  0  0
  160.0290  213.6350  141.3230 C   0  0  0  0  0  2  0  0  0  0  0  0
  159.8490  212.4650  143.2850 C   0  0  1  0  0  3  0  0  0  0  0  0
  162.7890  213.6730  142.2970 N   0  0  0  0  0  2  0  0  0  0  0  0
  162.3790  212.7210  143.3210 C   0  0  0  0  0  2  0  0  0  0  0  0
  161.0600  213.1630  143.9420 C   0  0  2  0  0  3  0  0  0  0  0  0
  1  3  2  0  0  0  0
  1  4  1  0  0  0  0
  2 22  1  0  0  0  0
  4 19  1  0  0  0  0
  5  8  1  0  0  0  0
  6 12  1  0  0  0  0
  8 21  1  0  0  0  0
  9  6  2  0  0  0  0
 10 15  2  0  0  0  0
 10 17  1  0  0  0  0
 12 11  1  0  0  0  0
 13  2  2  0  0  0  0
 14 20  2  0  0  0  0
 14 16  1  0  0  0  0
 15  1  1  0  0  0  0
 16 12  1  0  0  0  0
 16 18  2  0  0  0  0
 17  5  2  0  0  0  0
 17  3  1  0  0  0  0
 18  2  1  0  0  0  0
 19  7  2  0  0  0  0
 19  9  1  0  0  0  0
 20 13  1  0  0  0  0
 21 14  1  0  0  0  0
 22 24  1  0  0  0  0
 23 24  2  0  0  0  0
 24 25  1  0  0  0  0
 26  5  1  0  0  0  0
 27 26  1  0  0  0  0
 28 29  1  0  0  0  0
 29 30  2  0  0  0  0
 29 27  1  0  0  0  0
 31 28  1  0  0  0  0
 32 35  1  0  0  0  0
 32 36  1  0  0  0  0
 34 37  1  0  0  0  0
 35 38  1  0  0  0  0
 36 34  1  0  0  0  0
 37 33  1  6  0  0  0
 37 40  1  0  0  0  0
 38 39  1  0  0  0  0
 39 40  1  0  0  0  0
 40 31  1  1  0  0  0
M  END
>  <MODEL>
2

>  <REMARK>
 VINA RESULT:      -6.9      2.882      6.419
  Name = 
  6 active torsions:
  status: ('A' for Active; 'I' for Inactive)
    1  A    between atoms: C_1  and  N_10
    2  A    between atoms: C_1  and  C_34
    3  A    between atoms: C_3  and  N_4
    4  A    between atoms: C_9  and  S_11
    5  A    between atoms: S_11  and  C_37
    6  A    between atoms: C_18  and  C_37
                            x       y       z     vdW  Elec       q    Type
                         _______ _______ _______ _____ _____    ______ ____

>  <TORSDO>
F 6

$$$$
=
 OpenBabel11052411483D

 40 43  0  0  1  0  0  0  0  0999 V2000
  161.4500  212.9210  148.5660 C   0  0  0  0  0  0  0  0  0  0  0  0
  157.1290  213.7080  154.5780 C   0  0  0  0  0  0  0  0  0  0  0  0
  161.1350  212.5870  149.7660 N   0  0  0  0  0  0  0  0  0  0  0  0
  160.8880  214.1500  147.9340 C   0  0  0  0  0  2  0  0  0  0  0  0
  161.5460  210.5710  151.0430 C   0  0  0  0  0  0  0  0  0  0  0  0
  158.5630  213.7830  149.9020 C   0  0  0  0  0  3  0  0  0  0  0  0
  159.1250  213.9310  146.3610 O   0  0  0  0  0  0  0  0  0  0  0  0
  160.5920  210.9710  152.0360 N   0  0  0  0  0  2  0  0  0  0  0  0
  158.3600  213.8430  148.5840 C   0  0  0  0  0  3  0  0  0  0  0  0
  162.4880  211.0100  148.7440 C   0  0  0  0  0  3  0  0  0  0  0  0
  156.1070  213.8270  150.4050 C   0  0  0  0  0  1  0  0  0  0  0  0
  157.4860  213.6330  150.8450 N   0  0  0  0  0  0  0  0  0  0  0  0
  158.1520  212.8390  154.9740 C   0  0  0  0  0  3  0  0  0  0  0  0
  158.7670  212.4720  152.6550 C   0  0  0  0  0  0  0  0  0  0  0  0
  162.2910  211.9750  147.9000 N   0  0  0  0  0  0  0  0  0  0  0  0
  157.7450  213.3600  152.2400 C   0  0  0  0  0  0  0  0  0  0  0  0
  161.7480  211.3310  149.9580 C   0  0  0  0  0  0  0  0  0  0  0  0
  156.9330  213.9590  153.2180 C   0  0  0  0  0  3  0  0  0  0  0  0
  159.4380  213.9690  147.5790 C   0  0  0  0  0  0  0  0  0  0  0  0
  158.9640  212.2250  154.0200 C   0  0  0  0  0  3  0  0  0  0  0  0
  159.5720  211.8450  151.7050 O   0  0  0  0  0  0  0  0  0  0  0  0
  156.2740  214.3580  155.5270 N   0  0  0  0  0  2  0  0  0  0  0  0
  155.2440  212.3390  156.4840 O   0  0  0  0  0  0  0  0  0  0  0  0
  155.3890  213.7210  156.4560 C   0  0  0  0  0  0  0  0  0  0  0  0
  154.7210  214.4270  157.2540 O   0  0  0  0  0  1  0  0  0  0  0  0
  162.4280  209.0260  151.2570 S   0  0  0  0  0  0  0  0  0  0  0  0
  160.9010  208.1230  151.6440 C   0  0  0  0  0  2  0  0  0  0  0  0
  161.0840  205.9940  150.2650 N   0  0  0  0  0  2  0  0  0  0  0  0
  161.1420  206.6560  151.5310 C   0  0  0  0  0  0  0  0  0  0  0  0
  161.3720  205.9870  152.5710 O   0  0  0  0  0  0  0  0  0  0  0  0
  160.8150  206.7080  149.0260 C   0  0  0  0  0  2  0  0  0  0  0  0
  161.0300  203.6830  144.9140 C   0  0  0  0  0  2  0  0  0  0  0  0
  160.9450  203.6880  149.1440 O   0  0  0  0  0  1  0  0  0  0  0  0
  162.0340  203.6970  147.0990 O   0  0  0  0  0  0  0  0  0  0  0  0
  161.5340  205.1130  144.7290 C   0  0  0  0  0  2  0  0  0  0  0  0
  160.8920  203.2980  146.3840 C   0  0  0  0  0  2  0  0  0  0  0  0
  161.6250  204.4750  148.2080 C   0  0  1  0  0  3  0  0  0  0  0  0
  160.6840  206.0600  145.4370 N   0  0  0  0  0  2  0  0  0  0  0  0
  161.3980  206.4650  146.6400 C   0  0  0  0  0  2  0  0  0  0  0  0
  160.8200  205.7450  147.8520 C   0  0  2  0  0  3  0  0  0  0  0  0
  1  3  2  0  0  0  0
  2 13  1  0  0  0  0
  2 22  1  0  0  0  0
  3 17  1  0  0  0  0
  4  1  1  0  0  0  0
  5 26  1  0  0  0  0
  5  8  1  0  0  0  0
  6 12  1  0  0  0  0
  7 19  2  0  0  0  0
  9  6  2  0  0  0  0
 10 17  1  0  0  0  0
 11 12  1  0  0  0  0
 12 16  1  0  0  0  0
 14 20  1  0  0  0  0
 15  1  1  0  0  0  0
 15 10  2  0  0  0  0
 16 14  2  0  0  0  0
 16 18  1  0  0  0  0
 17  5  2  0  0  0  0
 18  2  2  0  0  0  0
 19  4  1  0  0  0  0
 19  9  1  0  0  0  0
 20 13  2  0  0  0  0
 21  8  1  0  0  0  0
 21 14  1  0  0  0  0
 22 24  1  0  0  0  0
 24 23  2  0  0  0  0
 24 25  1  0  0  0  0
 26 27  1  0  0  0  0
 28 29  1  0  0  0  0
 29 27  1  0  0  0  0
 29 30  2  0  0  0  0
 31 28  1  0  0  0  0
 32 36  1  0  0  0  0
 34 37  1  0  0  0  0
 35 32  1  0  0  0  0
 35 38  1  0  0  0  0
 36 34  1  0  0  0  0
 37 33  1  1  0  0  0
 38 39  1  0  0  0  0
 39 40  1  0  0  0  0
 40 37  1  0  0  0  0
 40 31  1  1  0  0  0
M  END
>  <MODEL>
3

>  <REMARK>
 VINA RESULT:      -6.6      2.939      8.925
  Name = 
  6 active torsions:
  status: ('A' for Active; 'I' for Inactive)
    1  A    between atoms: C_1  and  N_10
    2  A    between atoms: C_1  and  C_34
    3  A    between atoms: C_3  and  N_4
    4  A    between atoms: C_9  and  S_11
    5  A    between atoms: S_11  and  C_37
    6  A    between atoms: C_18  and  C_37
                            x       y       z     vdW  Elec       q    Type
                         _______ _______ _______ _____ _____    ______ ____

>  <TORSDO>
F 6

$$$$
=
 OpenBabel11052411483D

 40 43  0  0  1  0  0  0  0  0999 V2000
  161.1030  213.2550  148.3610 C   0  0  0  0  0  0  0  0  0  0  0  0
  157.1970  213.8150  154.6750 C   0  0  0  0  0  0  0  0  0  0  0  0
  160.9000  212.9130  149.5820 N   0  0  0  0  0  0  0  0  0  0  0  0
  160.4160  214.4390  147.7670 C   0  0  0  0  0  2  0  0  0  0  0  0
  161.5370  210.9400  150.8340 C   0  0  0  0  0  0  0  0  0  0  0  0
  158.2720  213.9390  149.9040 C   0  0  0  0  0  3  0  0  0  0  0  0
  158.5600  214.0910  146.3300 O   0  0  0  0  0  0  0  0  0  0  0  0
  160.6340  211.2860  151.8940 N   0  0  0  0  0  2  0  0  0  0  0  0
  157.9690  213.9740  148.6050 C   0  0  0  0  0  3  0  0  0  0  0  0
  162.2750  211.4180  148.4700 C   0  0  0  0  0  3  0  0  0  0  0  0
  155.8630  213.8280  150.5890 C   0  0  0  0  0  1  0  0  0  0  0  0
  157.2810  213.7290  150.9260 N   0  0  0  0  0  0  0  0  0  0  0  0
  158.3020  213.0190  154.9970 C   0  0  0  0  0  3  0  0  0  0  0  0
  158.7660  212.6700  152.6400 C   0  0  0  0  0  0  0  0  0  0  0  0
  161.9530  212.3600  147.6380 N   0  0  0  0  0  0  0  0  0  0  0  0
  157.6600  213.4860  152.2980 C   0  0  0  0  0  0  0  0  0  0  0  0
  161.6070  211.7010  149.7340 C   0  0  0  0  0  0  0  0  0  0  0  0
  156.8850  214.0400  153.3310 C   0  0  0  0  0  3  0  0  0  0  0  0
  158.9590  214.1610  147.5210 C   0  0  0  0  0  0  0  0  0  0  0  0
  159.0790  212.4500  153.9880 C   0  0  0  0  0  3  0  0  0  0  0  0
  159.5380  212.0890  151.6360 O   0  0  0  0  0  0  0  0  0  0  0  0
  156.3730  214.4170  155.6820 N   0  0  0  0  0  2  0  0  0  0  0  0
  154.8440  212.5230  156.0350 O   0  0  0  0  0  0  0  0  0  0  0  0
  155.2650  213.8080  156.3550 C   0  0  0  0  0  0  0  0  0  0  0  0
  154.6550  214.4530  157.2450 O   0  0  0  0  0  1  0  0  0  0  0  0
  162.5320  209.4580  150.9890 S   0  0  0  0  0  0  0  0  0  0  0  0
  161.0640  208.3950  151.1010 C   0  0  0  0  0  2  0  0  0  0  0  0
  161.5570  205.9080  151.2960 N   0  0  0  0  0  2  0  0  0  0  0  0
  161.3790  207.1850  151.9130 C   0  0  0  0  0  0  0  0  0  0  0  0
  161.4640  207.2870  153.1640 O   0  0  0  0  0  0  0  0  0  0  0  0
  161.4650  205.7210  149.8560 C   0  0  0  0  0  2  0  0  0  0  0  0
  161.0200  200.7160  148.9250 C   0  0  0  0  0  2  0  0  0  0  0  0
  162.0010  204.4380  147.1690 O   0  0  0  0  0  1  0  0  0  0  0  0
  160.5250  202.7440  147.7310 O   0  0  0  0  0  0  0  0  0  0  0  0
  160.1990  201.2630  150.0920 C   0  0  0  0  0  2  0  0  0  0  0  0
  161.5470  201.8200  148.0130 C   0  0  0  0  0  2  0  0  0  0  0  0
  160.9870  204.0420  148.0480 C   0  0  1  0  0  3  0  0  0  0  0  0
  160.9620  202.2450  150.8490 N   0  0  0  0  0  2  0  0  0  0  0  0
  160.4520  203.5610  150.4880 C   0  0  0  0  0  2  0  0  0  0  0  0
  161.4130  204.2400  149.5200 C   0  0  2  0  0  3  0  0  0  0  0  0
  1  3  2  0  0  0  0
  2 13  1  0  0  0  0
  2 22  1  0  0  0  0
  3 17  1  0  0  0  0
  4  1  1  0  0  0  0
  5 26  1  0  0  0  0
  5  8  1  0  0  0  0
  6 12  1  0  0  0  0
  7 19  2  0  0  0  0
  9  6  2  0  0  0  0
 10 17  1  0  0  0  0
 11 12  1  0  0  0  0
 12 16  1  0  0  0  0
 14 20  1  0  0  0  0
 15  1  1  0  0  0  0
 15 10  2  0  0  0  0
 16 14  2  0  0  0  0
 16 18  1  0  0  0  0
 17  5  2  0  0  0  0
 18  2  2  0  0  0  0
 19  4  1  0  0  0  0
 19  9  1  0  0  0  0
 20 13  2  0  0  0  0
 21  8  1  0  0  0  0
 21 14  1  0  0  0  0
 22 24  1  0  0  0  0
 23 24  2  0  0  0  0
 24 25  1  0  0  0  0
 26 27  1  0  0  0  0
 27 29  1  0  0  0  0
 28 29  1  0  0  0  0
 29 30  2  0  0  0  0
 31 28  1  0  0  0  0
 32 35  1  0  0  0  0
 34 36  1  0  0  0  0
 34 37  1  0  0  0  0
 35 38  1  0  0  0  0
 36 32  1  0  0  0  0
 37 33  1  6  0  0  0
 37 40  1  0  0  0  0
 39 38  1  0  0  0  0
 40 31  1  1  0  0  0
 40 39  1  0  0  0  0
M  END
>  <MODEL>
4

>  <REMARK>
 VINA RESULT:      -6.0      3.210      9.552
  Name = 
  6 active torsions:
  status: ('A' for Active; 'I' for Inactive)
    1  A    between atoms: C_1  and  N_10
    2  A    between atoms: C_1  and  C_34
    3  A    between atoms: C_3  and  N_4
    4  A    between atoms: C_9  and  S_11
    5  A    between atoms: S_11  and  C_37
    6  A    between atoms: C_18  and  C_37
                            x       y       z     vdW  Elec       q    Type
                         _______ _______ _______ _____ _____    ______ ____

>  <TORSDO>
F 6

$$$$
=
 OpenBabel11052411483D

 40 43  0  0  1  0  0  0  0  0999 V2000
  157.0960  211.1740  155.1770 C   0  0  0  0  0  0  0  0  0  0  0  0
  161.8110  211.3090  149.4170 C   0  0  0  0  0  0  0  0  0  0  0  0
  158.1960  210.8060  154.6270 N   0  0  0  0  0  0  0  0  0  0  0  0
  156.0240  211.8480  154.3860 C   0  0  0  0  0  2  0  0  0  0  0  0
  160.2750  209.9880  155.5610 C   0  0  0  0  0  0  0  0  0  0  0  0
  158.3060  212.7140  152.5260 C   0  0  0  0  0  3  0  0  0  0  0  0
  155.7610  214.1990  154.5750 O   0  0  0  0  0  0  0  0  0  0  0  0
  160.9460  210.1780  154.3080 N   0  0  0  0  0  2  0  0  0  0  0  0
  157.4920  213.6060  153.0960 C   0  0  0  0  0  3  0  0  0  0  0  0
  158.1930  210.4370  156.9130 C   0  0  0  0  0  3  0  0  0  0  0  0
  159.4120  214.4530  151.0990 C   0  0  0  0  0  1  0  0  0  0  0  0
  159.3680  213.0950  151.6340 N   0  0  0  0  0  0  0  0  0  0  0  0
  162.3270  210.3450  150.2910 C   0  0  0  0  0  3  0  0  0  0  0  0
  160.9030  211.1670  152.0750 C   0  0  0  0  0  0  0  0  0  0  0  0
  157.0500  210.9580  156.5900 N   0  0  0  0  0  0  0  0  0  0  0  0
  160.3600  212.1380  151.1990 C   0  0  0  0  0  0  0  0  0  0  0  0
  158.9880  210.3370  155.6960 C   0  0  0  0  0  0  0  0  0  0  0  0
  160.8360  212.1970  149.8780 C   0  0  0  0  0  3  0  0  0  0  0  0
  156.4060  213.2600  154.0400 C   0  0  0  0  0  0  0  0  0  0  0  0
  161.8780  210.2750  151.6090 C   0  0  0  0  0  3  0  0  0  0  0  0
  160.4660  211.1020  153.3980 O   0  0  0  0  0  0  0  0  0  0  0  0
  162.2480  211.4130  148.0560 N   0  0  0  0  0  2  0  0  0  0  0  0
  162.6960  213.8320  148.0350 O   0  0  0  0  0  1  0  0  0  0  0  0
  162.6930  212.6000  147.3900 C   0  0  0  0  0  0  0  0  0  0  0  0
  163.0780  212.5300  146.1950 O   0  0  0  0  0  0  0  0  0  0  0  0
  161.1930  209.3180  156.9460 S   0  0  0  0  0  0  0  0  0  0  0  0
  161.6690  207.8370  156.0100 C   0  0  0  0  0  2  0  0  0  0  0  0
  160.4690  206.2970  154.3800 N   0  0  0  0  0  2  0  0  0  0  0  0
  160.4460  207.1180  155.5500 C   0  0  0  0  0  0  0  0  0  0  0  0
  159.3710  207.2570  156.1890 O   0  0  0  0  0  0  0  0  0  0  0  0
  161.6770  206.1000  153.5920 C   0  0  0  0  0  2  0  0  0  0  0  0
  160.7420  205.4420  148.6120 C   0  0  0  0  0  2  0  0  0  0  0  0
  160.6670  203.5190  152.3790 O   0  0  0  0  0  1  0  0  0  0  0  0
  161.6790  204.1110  150.3820 O   0  0  0  0  0  0  0  0  0  0  0  0
  161.7450  206.5370  148.9740 C   0  0  0  0  0  2  0  0  0  0  0  0
  160.4700  204.4920  149.7740 C   0  0  0  0  0  2  0  0  0  0  0  0
  161.5920  204.3730  151.7690 C   0  0  1  0  0  3  0  0  0  0  0  0
  161.3120  207.2700  150.1550 N   0  0  0  0  0  2  0  0  0  0  0  0
  162.1250  206.8100  151.2720 C   0  0  0  0  0  2  0  0  0  0  0  0
  161.3210  205.8490  152.1370 C   0  0  2  0  0  3  0  0  0  0  0  0
  1 15  1  0  0  0  0
  2 18  2  0  0  0  0
  2 13  1  0  0  0  0
  3  1  2  0  0  0  0
  3 17  1  0  0  0  0
  4  1  1  0  0  0  0
  5 17  2  0  0  0  0
  5 26  1  0  0  0  0
  6  9  2  0  0  0  0
  8  5  1  0  0  0  0
  9 19  1  0  0  0  0
 11 12  1  0  0  0  0
 12  6  1  0  0  0  0
 13 20  2  0  0  0  0
 14 21  1  0  0  0  0
 15 10  2  0  0  0  0
 16 12  1  0  0  0  0
 16 14  2  0  0  0  0
 17 10  1  0  0  0  0
 18 16  1  0  0  0  0
 19  4  1  0  0  0  0
 19  7  2  0  0  0  0
 20 14  1  0  0  0  0
 21  8  1  0  0  0  0
 22  2  1  0  0  0  0
 24 23  1  0  0  0  0
 24 22  1  0  0  0  0
 25 24  2  0  0  0  0
 27 26  1  0  0  0  0
 28 29  1  0  0  0  0
 29 27  1  0  0  0  0
 29 30  2  0  0  0  0
 31 28  1  0  0  0  0
 32 35  1  0  0  0  0
 32 36  1  0  0  0  0
 34 37  1  0  0  0  0
 35 38  1  0  0  0  0
 36 34  1  0  0  0  0
 37 40  1  0  0  0  0
 37 33  1  6  0  0  0
 38 39  1  0  0  0  0
 39 40  1  0  0  0  0
 40 31  1  1  0  0  0
M  END
>  <MODEL>
5

>  <REMARK>
 VINA RESULT:      -5.4      2.565      6.986
  Name = 
  6 active torsions:
  status: ('A' for Active; 'I' for Inactive)
    1  A    between atoms: C_1  and  N_10
    2  A    between atoms: C_1  and  C_34
    3  A    between atoms: C_3  and  N_4
    4  A    between atoms: C_9  and  S_11
    5  A    between atoms: S_11  and  C_37
    6  A    between atoms: C_18  and  C_37
                            x       y       z     vdW  Elec       q    Type
                         _______ _______ _______ _____ _____    ______ ____

>  <TORSDO>
F 6

$$$$
=
 OpenBabel11052411483D

 40 43  0  0  1  0  0  0  0  0999 V2000
  160.8910  210.6400  151.7230 C   0  0  0  0  0  0  0  0  0  0  0  0
  160.7000  203.5360  149.5030 C   0  0  0  0  0  0  0  0  0  0  0  0
  160.8110  209.3880  151.9950 N   0  0  0  0  0  0  0  0  0  0  0  0
  160.7330  211.1380  150.3250 C   0  0  0  0  0  2  0  0  0  0  0  0
  161.3000  208.1380  154.0100 C   0  0  0  0  0  0  0  0  0  0  0  0
  161.6610  208.3330  149.4990 C   0  0  0  0  0  3  0  0  0  0  0  0
  162.6690  211.7530  149.0980 O   0  0  0  0  0  0  0  0  0  0  0  0
  161.2530  206.9000  153.2880 N   0  0  0  0  0  2  0  0  0  0  0  0
  162.3010  209.4300  149.0870 C   0  0  0  0  0  3  0  0  0  0  0  0
  161.3620  210.6550  153.8530 C   0  0  0  0  0  3  0  0  0  0  0  0
  163.0170  206.8360  148.0140 C   0  0  0  0  0  1  0  0  0  0  0  0
  162.0640  207.0080  149.1070 N   0  0  0  0  0  0  0  0  0  0  0  0
  160.4260  203.4990  150.8750 C   0  0  0  0  0  3  0  0  0  0  0  0
  161.2230  205.7780  151.1190 C   0  0  0  0  0  0  0  0  0  0  0  0
  161.2240  211.4610  152.8460 N   0  0  0  0  0  0  0  0  0  0  0  0
  161.4920  205.8370  149.7300 C   0  0  0  0  0  0  0  0  0  0  0  0
  161.1350  209.3000  153.3650 C   0  0  0  0  0  0  0  0  0  0  0  0
  161.2310  204.7010  148.9430 C   0  0  0  0  0  3  0  0  0  0  0  0
  161.9370  210.8070  149.4870 C   0  0  0  0  0  0  0  0  0  0  0  0
  160.6870  204.6100  151.6760 C   0  0  0  0  0  3  0  0  0  0  0  0
  161.4940  206.8820  151.9260 O   0  0  0  0  0  0  0  0  0  0  0  0
  160.4470  202.4150  148.6460 N   0  0  0  0  0  2  0  0  0  0  0  0
  161.7430  203.1850  146.7010 O   0  0  0  0  0  1  0  0  0  0  0  0
  160.9540  202.2230  147.3200 C   0  0  0  0  0  0  0  0  0  0  0  0
  160.6700  201.1670  146.6990 O   0  0  0  0  0  0  0  0  0  0  0  0
  161.6250  208.1050  155.7720 S   0  0  0  0  0  0  0  0  0  0  0  0
  160.0670  208.9580  156.1500 C   0  0  0  0  0  2  0  0  0  0  0  0
  159.3070  211.1370  157.2180 N   0  0  0  0  0  2  0  0  0  0  0  0
  160.3500  210.2090  156.9090 C   0  0  0  0  0  0  0  0  0  0  0  0
  161.5310  210.4650  157.2600 O   0  0  0  0  0  0  0  0  0  0  0  0
  157.9220  210.9060  156.8340 C   0  0  0  0  0  2  0  0  0  0  0  0
  156.4360  214.4530  153.4700 C   0  0  0  0  0  2  0  0  0  0  0  0
  155.2960  212.3980  156.9880 O   0  0  0  0  0  1  0  0  0  0  0  0
  155.3680  212.6770  154.6900 O   0  0  0  0  0  0  0  0  0  0  0  0
  157.4530  213.4280  152.9690 C   0  0  0  0  0  2  0  0  0  0  0  0
  155.7660  214.0220  154.7720 C   0  0  0  0  0  2  0  0  0  0  0  0
  155.9000  211.9780  155.7980 C   0  0  1  0  0  3  0  0  0  0  0  0
  158.4450  213.1350  153.9930 N   0  0  0  0  0  2  0  0  0  0  0  0
  158.1140  211.8330  154.5560 C   0  0  0  0  0  2  0  0  0  0  0  0
  157.4410  212.0100  155.9100 C   0  0  2  0  0  3  0  0  0  0  0  0
  1  3  2  0  0  0  0
  1 15  1  0  0  0  0
  2 13  1  0  0  0  0
  3 17  1  0  0  0  0
  4  1  1  0  0  0  0
  5 26  1  0  0  0  0
  7 19  2  0  0  0  0
  8  5  1  0  0  0  0
  9 19  1  0  0  0  0
  9  6  2  0  0  0  0
 11 12  1  0  0  0  0
 12  6  1  0  0  0  0
 12 16  1  0  0  0  0
 13 20  2  0  0  0  0
 14 20  1  0  0  0  0
 14 21  1  0  0  0  0
 15 10  2  0  0  0  0
 16 14  2  0  0  0  0
 17 10  1  0  0  0  0
 17  5  2  0  0  0  0
 18  2  2  0  0  0  0
 18 16  1  0  0  0  0
 19  4  1  0  0  0  0
 21  8  1  0  0  0  0
 22  2  1  0  0  0  0
 23 24  1  0  0  0  0
 24 22  1  0  0  0  0
 25 24  2  0  0  0  0
 26 27  1  0  0  0  0
 27 29  1  0  0  0  0
 29 28  1  0  0  0  0
 29 30  2  0  0  0  0
 31 28  1  0  0  0  0
 32 36  1  0  0  0  0
 34 36  1  0  0  0  0
 34 37  1  0  0  0  0
 35 32  1  0  0  0  0
 35 38  1  0  0  0  0
 37 40  1  0  0  0  0
 37 33  1  1  0  0  0
 38 39  1  0  0  0  0
 39 40  1  0  0  0  0
 40 31  1  1  0  0  0
M  END
>  <MODEL>
6

>  <REMARK>
 VINA RESULT:      -5.0      3.079      6.610
  Name = 
  6 active torsions:
  status: ('A' for Active; 'I' for Inactive)
    1  A    between atoms: C_1  and  N_10
    2  A    between atoms: C_1  and  C_34
    3  A    between atoms: C_3  and  N_4
    4  A    between atoms: C_9  and  S_11
    5  A    between atoms: S_11  and  C_37
    6  A    between atoms: C_18  and  C_37
                            x       y       z     vdW  Elec       q    Type
                         _______ _______ _______ _____ _____    ______ ____

>  <TORSDO>
F 6

$$$$
=
 OpenBabel11052411483D

 40 43  0  0  1  0  0  0  0  0999 V2000
  161.2150  209.0640  150.6140 C   0  0  0  0  0  0  0  0  0  0  0  0
  160.6980  202.1520  147.8950 C   0  0  0  0  0  0  0  0  0  0  0  0
  161.0400  207.8050  150.7930 N   0  0  0  0  0  0  0  0  0  0  0  0
  161.1680  209.6640  149.2480 C   0  0  0  0  0  2  0  0  0  0  0  0
  161.3330  206.3940  152.7380 C   0  0  0  0  0  0  0  0  0  0  0  0
  161.9610  206.8630  148.2770 C   0  0  0  0  0  3  0  0  0  0  0  0
  163.2060  210.2270  148.1700 O   0  0  0  0  0  0  0  0  0  0  0  0
  161.2480  205.2120  151.9300 N   0  0  0  0  0  2  0  0  0  0  0  0
  162.6910  207.9390  147.9770 C   0  0  0  0  0  3  0  0  0  0  0  0
  161.5640  208.9060  152.7620 C   0  0  0  0  0  3  0  0  0  0  0  0
  163.3010  205.3800  146.7640 C   0  0  0  0  0  1  0  0  0  0  0  0
  162.3000  205.5430  147.8150 N   0  0  0  0  0  0  0  0  0  0  0  0
  160.3450  202.0430  149.2450 C   0  0  0  0  0  3  0  0  0  0  0  0
  161.2710  204.2420  149.6890 C   0  0  0  0  0  0  0  0  0  0  0  0
  161.5350  209.7840  151.8080 N   0  0  0  0  0  0  0  0  0  0  0  0
  161.6200  204.3740  148.3230 C   0  0  0  0  0  0  0  0  0  0  0  0
  161.2790  207.6050  152.1690 C   0  0  0  0  0  0  0  0  0  0  0  0
  161.3330  203.3140  147.4470 C   0  0  0  0  0  3  0  0  0  0  0  0
  162.3940  209.3080  148.4520 C   0  0  0  0  0  0  0  0  0  0  0  0
  160.6300  203.0780  150.1350 C   0  0  0  0  0  3  0  0  0  0  0  0
  161.5650  205.2680  150.5850 O   0  0  0  0  0  0  0  0  0  0  0  0
  160.4230  201.1110  146.9500 N   0  0  0  0  0  2  0  0  0  0  0  0
  160.3410  202.5100  144.9280 O   0  0  0  0  0  1  0  0  0  0  0  0
  160.2730  201.2610  145.5330 C   0  0  0  0  0  0  0  0  0  0  0  0
  160.0650  200.2440  144.8240 O   0  0  0  0  0  0  0  0  0  0  0  0
  161.5550  206.2220  154.5080 S   0  0  0  0  0  0  0  0  0  0  0  0
  160.0820  207.2220  154.8640 C   0  0  0  0  0  2  0  0  0  0  0  0
  160.2120  209.0670  156.6100 N   0  0  0  0  0  2  0  0  0  0  0  0
  160.1140  207.6790  156.2830 C   0  0  0  0  0  0  0  0  0  0  0  0
  160.0820  206.8250  157.2070 O   0  0  0  0  0  0  0  0  0  0  0  0
  160.2610  210.1040  155.5900 C   0  0  0  0  0  2  0  0  0  0  0  0
  155.9440  212.8370  155.6570 C   0  0  0  0  0  2  0  0  0  0  0  0
  158.6170  210.7440  153.1320 O   0  0  0  0  0  1  0  0  0  0  0  0
  157.8460  212.6510  154.1970 O   0  0  0  0  0  0  0  0  0  0  0  0
  156.9170  213.0800  156.8100 C   0  0  0  0  0  2  0  0  0  0  0  0
  156.5910  212.0910  154.4940 C   0  0  0  0  0  2  0  0  0  0  0  0
  158.8150  211.6210  154.2040 C   0  0  1  0  0  3  0  0  0  0  0  0
  157.5140  211.8300  157.2600 N   0  0  0  0  0  2  0  0  0  0  0  0
  158.8740  211.7890  156.7410 C   0  0  0  0  0  2  0  0  0  0  0  0
  158.9420  210.8550  155.5400 C   0  0  2  0  0  3  0  0  0  0  0  0
  1  3  2  0  0  0  0
  1 15  1  0  0  0  0
  2 13  1  0  0  0  0
  3 17  1  0  0  0  0
  4  1  1  0  0  0  0
  5 26  1  0  0  0  0
  7 19  2  0  0  0  0
  8  5  1  0  0  0  0
  9  6  2  0  0  0  0
  9 19  1  0  0  0  0
 11 12  1  0  0  0  0
 12  6  1  0  0  0  0
 12 16  1  0  0  0  0
 13 20  2  0  0  0  0
 14 20  1  0  0  0  0
 14 21  1  0  0  0  0
 15 10  2  0  0  0  0
 16 14  2  0  0  0  0
 17  5  2  0  0  0  0
 17 10  1  0  0  0  0
 18  2  2  0  0  0  0
 18 16  1  0  0  0  0
 19  4  1  0  0  0  0
 21  8  1  0  0  0  0
 22  2  1  0  0  0  0
 23 24  1  0  0  0  0
 24 22  1  0  0  0  0
 25 24  2  0  0  0  0
 26 27  1  0  0  0  0
 27 29  1  0  0  0  0
 29 28  1  0  0  0  0
 29 30  2  0  0  0  0
 31 28  1  0  0  0  0
 32 35  1  0  0  0  0
 34 37  1  0  0  0  0
 34 36  1  0  0  0  0
 35 38  1  0  0  0  0
 36 32  1  0  0  0  0
 37 33  1  6  0  0  0
 37 40  1  0  0  0  0
 39 38  1  0  0  0  0
 40 31  1  6  0  0  0
 40 39  1  0  0  0  0
M  END
>  <MODEL>
7

>  <REMARK>
 VINA RESULT:      -4.7      3.413      7.334
  Name = 
  6 active torsions:
  status: ('A' for Active; 'I' for Inactive)
    1  A    between atoms: C_1  and  N_10
    2  A    between atoms: C_1  and  C_34
    3  A    between atoms: C_3  and  N_4
    4  A    between atoms: C_9  and  S_11
    5  A    between atoms: S_11  and  C_37
    6  A    between atoms: C_18  and  C_37
                            x       y       z     vdW  Elec       q    Type
                         _______ _______ _______ _____ _____    ______ ____

>  <TORSDO>
F 6

$$$$
=
 OpenBabel11052411483D

 40 43  0  0  1  0  0  0  0  0999 V2000
  161.6820  203.6280  151.1350 C   0  0  0  0  0  0  0  0  0  0  0  0
  162.4520  210.6190  148.6940 C   0  0  0  0  0  0  0  0  0  0  0  0
  161.7290  204.8910  151.3640 N   0  0  0  0  0  0  0  0  0  0  0  0
  162.1090  203.0640  149.8220 C   0  0  0  0  0  2  0  0  0  0  0  0
  160.8670  206.2380  153.1820 C   0  0  0  0  0  0  0  0  0  0  0  0
  161.4200  205.8370  148.7040 C   0  0  0  0  0  3  0  0  0  0  0  0
  160.4490  202.4120  148.2560 O   0  0  0  0  0  0  0  0  0  0  0  0
  161.0820  207.4400  152.4310 N   0  0  0  0  0  2  0  0  0  0  0  0
  160.8560  204.7290  148.2190 C   0  0  0  0  0  3  0  0  0  0  0  0
  160.7900  203.7170  153.1250 C   0  0  0  0  0  3  0  0  0  0  0  0
  160.4200  207.2770  146.9120 C   0  0  0  0  0  1  0  0  0  0  0  0
  161.1300  207.1460  148.1820 N   0  0  0  0  0  0  0  0  0  0  0  0
  162.4440  210.7170  150.0900 C   0  0  0  0  0  3  0  0  0  0  0  0
  161.5710  208.4600  150.2660 C   0  0  0  0  0  0  0  0  0  0  0  0
  161.1130  202.8640  152.2030 N   0  0  0  0  0  0  0  0  0  0  0  0
  161.5870  208.3400  148.8550 C   0  0  0  0  0  0  0  0  0  0  0  0
  161.1370  205.0450  152.6350 C   0  0  0  0  0  0  0  0  0  0  0  0
  162.0230  209.4350  148.0900 C   0  0  0  0  0  3  0  0  0  0  0  0
  161.1060  203.3680  148.7430 C   0  0  0  0  0  0  0  0  0  0  0  0
  162.0060  209.6470  150.8700 C   0  0  0  0  0  3  0  0  0  0  0  0
  161.1210  207.3980  151.0490 O   0  0  0  0  0  0  0  0  0  0  0  0
  162.8940  211.6960  147.8580 N   0  0  0  0  0  2  0  0  0  0  0  0
  160.6800  212.4700  147.1140 O   0  0  0  0  0  1  0  0  0  0  0  0
  162.0640  212.6000  147.1190 C   0  0  0  0  0  0  0  0  0  0  0  0
  162.5980  213.5210  146.4510 O   0  0  0  0  0  0  0  0  0  0  0  0
  160.1940  206.3560  154.8380 S   0  0  0  0  0  0  0  0  0  0  0  0
  161.1120  207.8830  155.1820 C   0  0  0  0  0  2  0  0  0  0  0  0
  159.7220  209.9830  155.5360 N   0  0  0  0  0  2  0  0  0  0  0  0
  160.2940  208.7780  156.0500 C   0  0  0  0  0  0  0  0  0  0  0  0
  160.1280  208.4800  157.2610 O   0  0  0  0  0  0  0  0  0  0  0  0
  159.8820  210.3900  154.1480 C   0  0  0  0  0  2  0  0  0  0  0  0
  156.2180  213.8230  153.2000 C   0  0  0  0  0  2  0  0  0  0  0  0
  160.0810  212.5470  152.0370 O   0  0  0  0  0  1  0  0  0  0  0  0
  158.6210  213.8430  153.2840 O   0  0  0  0  0  0  0  0  0  0  0  0
  156.2250  213.2090  154.6000 C   0  0  0  0  0  2  0  0  0  0  0  0
  157.5230  213.5770  152.4480 C   0  0  0  0  0  2  0  0  0  0  0  0
  159.4730  212.7140  153.2870 C   0  0  1  0  0  3  0  0  0  0  0  0
  156.5340  211.7870  154.5430 N   0  0  0  0  0  2  0  0  0  0  0  0
  157.9150  211.6270  154.9770 C   0  0  0  0  0  2  0  0  0  0  0  0
  158.8160  211.4020  153.7700 C   0  0  2  0  0  3  0  0  0  0  0  0
  1  3  2  0  0  0  0
  1 15  1  0  0  0  0
  2 13  1  0  0  0  0
  3 17  1  0  0  0  0
  4  1  1  0  0  0  0
  5 26  1  0  0  0  0
  7 19  2  0  0  0  0
  8  5  1  0  0  0  0
  9  6  2  0  0  0  0
  9 19  1  0  0  0  0
 11 12  1  0  0  0  0
 12  6  1  0  0  0  0
 12 16  1  0  0  0  0
 13 20  2  0  0  0  0
 14 20  1  0  0  0  0
 14 21  1  0  0  0  0
 15 10  2  0  0  0  0
 16 14  2  0  0  0  0
 17 10  1  0  0  0  0
 17  5  2  0  0  0  0
 18  2  2  0  0  0  0
 18 16  1  0  0  0  0
 19  4  1  0  0  0  0
 21  8  1  0  0  0  0
 22  2  1  0  0  0  0
 23 24  1  0  0  0  0
 24 22  1  0  0  0  0
 25 24  2  0  0  0  0
 26 27  1  0  0  0  0
 27 29  1  0  0  0  0
 28 29  1  0  0  0  0
 29 30  2  0  0  0  0
 31 28  1  0  0  0  0
 32 35  1  0  0  0  0
 34 37  1  0  0  0  0
 36 32  1  0  0  0  0
 36 34  1  0  0  0  0
 37 33  1  6  0  0  0
 37 40  1  0  0  0  0
 38 35  1  0  0  0  0
 38 39  1  0  0  0  0
 40 31  1  1  0  0  0
 40 39  1  0  0  0  0
M  END
>  <MODEL>
8

>  <REMARK>
 VINA RESULT:      -4.6      2.619      6.774
  Name = 
  6 active torsions:
  status: ('A' for Active; 'I' for Inactive)
    1  A    between atoms: C_1  and  N_10
    2  A    between atoms: C_1  and  C_34
    3  A    between atoms: C_3  and  N_4
    4  A    between atoms: C_9  and  S_11
    5  A    between atoms: S_11  and  C_37
    6  A    between atoms: C_18  and  C_37
                            x       y       z     vdW  Elec       q    Type
                         _______ _______ _______ _____ _____    ______ ____

>  <TORSDO>
F 6

$$$$
