=
 OpenBabel11052409513D

 26 28  0  0  1  0  0  0  0  0999 V2000
  161.0860  204.1130  150.0630 C   0  0  0  0  0  3  0  0  0  0  0  0
  160.8740  201.3220  149.5650 C   0  0  0  0  0  3  0  0  0  0  0  0
  160.9880  202.2420  148.5260 C   0  0  0  0  0  0  0  0  0  0  0  0
  161.7750  205.0350  144.9400 C   0  0  0  0  0  3  0  0  0  0  0  0
  161.0900  203.6050  148.7650 C   0  0  0  0  0  0  0  0  0  0  0  0
  161.7110  205.7050  147.3490 C   0  0  2  0  0  3  0  0  0  0  0  0
  160.8580  201.8180  150.8800 C   0  0  0  0  0  3  0  0  0  0  0  0
  161.8440  206.0020  145.8710 C   0  0  0  0  0  3  0  0  0  0  0  0
  161.0780  202.0330  147.0870 C   0  0  0  0  0  0  0  0  0  0  0  0
  161.2080  204.3470  147.5480 N   0  0  0  0  0  0  0  0  0  0  0  0
  161.0640  200.9360  146.4700 O   0  0  0  0  0  0  0  0  0  0  0  0
  161.2420  203.3630  146.5230 C   0  0  0  0  0  0  0  0  0  0  0  0
  160.9640  203.2030  151.1270 C   0  0  0  0  0  3  0  0  0  0  0  0
  161.5270  203.6630  145.2950 N   0  0  0  0  0  0  0  0  0  0  0  0
  160.8040  206.6630  147.9580 N   0  0  0  0  0  2  0  0  0  0  0  0
  161.6100  207.7930  148.3890 C   0  0  0  0  0  2  0  0  0  0  0  0
  162.3700  207.4360  149.6530 C   0  0  0  0  0  2  0  0  0  0  0  0
  161.9520  208.3510  150.7900 C   0  0  0  0  0  2  0  0  0  0  0  0
  161.2650  207.5560  151.8890 C   0  0  1  0  0  3  0  0  0  0  0  0
  161.4520  206.0070  153.4600 C   0  0  0  0  0  1  0  0  0  0  0  0
  162.1440  206.6010  152.4050 O   0  0  0  0  0  0  0  0  0  0  0  0
  160.8310  208.4970  153.0060 C   0  0  0  0  0  2  0  0  0  0  0  0
  160.6160  211.0190  153.0760 C   0  0  0  0  0  0  0  0  0  0  0  0
  160.3510  209.7580  152.4580 N   0  0  0  0  0  2  0  0  0  0  0  0
  160.0950  212.2090  152.4970 N   0  0  0  0  0  1  0  0  0  0  0  0
  161.3070  211.0860  154.1270 O   0  0  0  0  0  0  0  0  0  0  0  0
  1 13  1  0  0  0  0
  2  7  1  0  0  0  0
  3  5  1  0  0  0  0
  3  2  2  0  0  0  0
  4 14  1  0  0  0  0
  4  8  2  0  0  0  0
  5  1  2  0  0  0  0
  6 10  1  0  0  0  0
  6 15  1  6  0  0  0
  7 13  2  0  0  0  0
  8  6  1  0  0  0  0
  9  3  1  0  0  0  0
 10  5  1  0  0  0  0
 11  9  2  0  0  0  0
 12  9  1  0  0  0  0
 12 10  1  0  0  0  0
 14 12  2  0  0  0  0
 15 16  1  0  0  0  0
 16 17  1  0  0  0  0
 17 18  1  0  0  0  0
 19 18  1  6  0  0  0
 19 21  1  0  0  0  0
 19 22  1  0  0  0  0
 21 20  1  0  0  0  0
 23 26  2  0  0  0  0
 24 22  1  0  0  0  0
 24 23  1  0  0  0  0
 25 23  1  0  0  0  0
M  END
>  <MODEL>
1

>  <REMARK>
 VINA RESULT:      -8.2      0.000      0.000
  Name = 
  8 active torsions:
  status: ('A' for Active; 'I' for Inactive)
    1  A    between atoms: C_2  and  C_12
    2  A    between atoms: C_2  and  O_20
    3  A    between atoms: C_2  and  C_26
    4  A    between atoms: N_7  and  C_11
    5  A    between atoms: N_7  and  C_15
    6  A    between atoms: N_9  and  C_12
    7  A    between atoms: C_15  and  C_16
    8  A    between atoms: C_16  and  C_26
                            x       y       z     vdW  Elec       q    Type
                         _______ _______ _______ _____ _____    ______ ____

>  <TORSDO>
F 8

$$$$
=
 OpenBabel11052409513D

 26 28  0  0  1  0  0  0  0  0999 V2000
  161.1940  204.6320  150.5700 C   0  0  0  0  0  3  0  0  0  0  0  0
  160.8890  201.8110  150.3990 C   0  0  0  0  0  3  0  0  0  0  0  0
  161.0180  202.6010  149.2600 C   0  0  0  0  0  0  0  0  0  0  0  0
  161.8450  204.9360  145.3690 C   0  0  0  0  0  3  0  0  0  0  0  0
  161.1660  203.9790  149.3390 C   0  0  0  0  0  0  0  0  0  0  0  0
  161.8330  205.8810  147.6840 C   0  0  2  0  0  3  0  0  0  0  0  0
  160.9060  202.4560  151.6490 C   0  0  0  0  0  3  0  0  0  0  0  0
  161.9560  206.0010  146.1810 C   0  0  0  0  0  3  0  0  0  0  0  0
  161.0810  202.2250  147.8540 C   0  0  0  0  0  0  0  0  0  0  0  0
  161.2910  204.5720  148.0440 N   0  0  0  0  0  0  0  0  0  0  0  0
  161.0260  201.0650  147.3680 O   0  0  0  0  0  0  0  0  0  0  0  0
  161.2810  203.4760  147.1380 C   0  0  0  0  0  0  0  0  0  0  0  0
  161.0580  203.8550  151.7330 C   0  0  0  0  0  3  0  0  0  0  0  0
  161.5580  203.6230  145.8820 N   0  0  0  0  0  0  0  0  0  0  0  0
  160.9650  206.9310  148.1870 N   0  0  0  0  0  2  0  0  0  0  0  0
  161.8180  208.0590  148.5250 C   0  0  0  0  0  2  0  0  0  0  0  0
  162.2700  207.9520  149.9700 C   0  0  0  0  0  2  0  0  0  0  0  0
  161.7550  209.1370  150.7670 C   0  0  0  0  0  2  0  0  0  0  0  0
  160.9860  208.6630  151.9910 C   0  0  1  0  0  3  0  0  0  0  0  0
  160.8470  207.0030  153.4490 C   0  0  0  0  0  1  0  0  0  0  0  0
  161.7640  207.7600  152.7190 O   0  0  0  0  0  0  0  0  0  0  0  0
  160.6410  209.8560  152.8720 C   0  0  0  0  0  2  0  0  0  0  0  0
  161.8080  210.3430  155.0660 C   0  0  0  0  0  0  0  0  0  0  0  0
  161.8040  210.2830  153.6380 N   0  0  0  0  0  2  0  0  0  0  0  0
  162.9730  210.7920  155.7480 N   0  0  0  0  0  1  0  0  0  0  0  0
  160.7910  210.0010  155.7260 O   0  0  0  0  0  0  0  0  0  0  0  0
  1 13  1  0  0  0  0
  2  7  1  0  0  0  0
  3  5  1  0  0  0  0
  3  2  2  0  0  0  0
  4 14  1  0  0  0  0
  4  8  2  0  0  0  0
  5  1  2  0  0  0  0
  6 10  1  0  0  0  0
  6 15  1  6  0  0  0
  7 13  2  0  0  0  0
  8  6  1  0  0  0  0
  9  3  1  0  0  0  0
 10  5  1  0  0  0  0
 11  9  2  0  0  0  0
 12  9  1  0  0  0  0
 12 10  1  0  0  0  0
 14 12  2  0  0  0  0
 15 16  1  0  0  0  0
 16 17  1  0  0  0  0
 17 18  1  0  0  0  0
 19 18  1  6  0  0  0
 19 21  1  0  0  0  0
 19 22  1  0  0  0  0
 21 20  1  0  0  0  0
 22 24  1  0  0  0  0
 23 26  2  0  0  0  0
 23 25  1  0  0  0  0
 24 23  1  0  0  0  0
M  END
>  <MODEL>
2

>  <REMARK>
 VINA RESULT:      -8.0      1.322      1.377
  Name = 
  8 active torsions:
  status: ('A' for Active; 'I' for Inactive)
    1  A    between atoms: C_2  and  C_12
    2  A    between atoms: C_2  and  O_20
    3  A    between atoms: C_2  and  C_26
    4  A    between atoms: N_7  and  C_11
    5  A    between atoms: N_7  and  C_15
    6  A    between atoms: N_9  and  C_12
    7  A    between atoms: C_15  and  C_16
    8  A    between atoms: C_16  and  C_26
                            x       y       z     vdW  Elec       q    Type
                         _______ _______ _______ _____ _____    ______ ____

>  <TORSDO>
F 8

$$$$
=
 OpenBabel11052409513D

 26 28  0  0  1  0  0  0  0  0999 V2000
  161.1890  204.3820  150.2340 C   0  0  0  0  0  3  0  0  0  0  0  0
  160.8570  201.5730  149.9500 C   0  0  0  0  0  3  0  0  0  0  0  0
  161.0020  202.4060  148.8440 C   0  0  0  0  0  0  0  0  0  0  0  0
  161.8830  204.8830  145.0530 C   0  0  0  0  0  3  0  0  0  0  0  0
  161.1640  203.7780  148.9780 C   0  0  0  0  0  0  0  0  0  0  0  0
  161.8630  205.7360  147.4040 C   0  0  2  0  0  3  0  0  0  0  0  0
  160.8700  202.1680  151.2240 C   0  0  0  0  0  3  0  0  0  0  0  0
  161.9990  205.9140  145.9080 C   0  0  0  0  0  3  0  0  0  0  0  0
  161.0730  202.0840  147.4240 C   0  0  0  0  0  0  0  0  0  0  0  0
  161.3050  204.4200  147.7080 N   0  0  0  0  0  0  0  0  0  0  0  0
  161.0090  200.9450  146.8930 O   0  0  0  0  0  0  0  0  0  0  0  0
  161.2900  203.3600  146.7600 C   0  0  0  0  0  0  0  0  0  0  0  0
  161.0360  203.5610  151.3650 C   0  0  0  0  0  3  0  0  0  0  0  0
  161.5790  203.5530  145.5120 N   0  0  0  0  0  0  0  0  0  0  0  0
  161.0010  206.7750  147.9420 N   0  0  0  0  0  2  0  0  0  0  0  0
  161.8600  207.8920  148.2990 C   0  0  0  0  0  2  0  0  0  0  0  0
  162.3660  207.7240  149.7190 C   0  0  0  0  0  2  0  0  0  0  0  0
  161.2380  207.9580  150.7080 C   0  0  0  0  0  2  0  0  0  0  0  0
  161.7940  208.3160  152.0770 C   0  0  1  0  0  3  0  0  0  0  0  0
  161.1600  210.4360  151.9830 C   0  0  0  0  0  1  0  0  0  0  0  0
  162.2900  209.6220  152.0590 O   0  0  0  0  0  0  0  0  0  0  0  0
  160.6900  208.2110  153.1210 C   0  0  0  0  0  2  0  0  0  0  0  0
  161.3100  208.6480  155.5370 C   0  0  0  0  0  0  0  0  0  0  0  0
  161.2340  207.7820  154.4020 N   0  0  0  0  0  2  0  0  0  0  0  0
  161.8760  208.1680  156.7510 N   0  0  0  0  0  1  0  0  0  0  0  0
  160.8800  209.8300  155.4730 O   0  0  0  0  0  0  0  0  0  0  0  0
  1 13  1  0  0  0  0
  2  7  1  0  0  0  0
  3  5  1  0  0  0  0
  3  2  2  0  0  0  0
  4 14  1  0  0  0  0
  4  8  2  0  0  0  0
  5  1  2  0  0  0  0
  6 10  1  0  0  0  0
  6 15  1  6  0  0  0
  7 13  2  0  0  0  0
  8  6  1  0  0  0  0
  9  3  1  0  0  0  0
 10  5  1  0  0  0  0
 11  9  2  0  0  0  0
 12  9  1  0  0  0  0
 12 10  1  0  0  0  0
 14 12  2  0  0  0  0
 15 16  1  0  0  0  0
 16 17  1  0  0  0  0
 17 18  1  0  0  0  0
 19 18  1  6  0  0  0
 19 22  1  0  0  0  0
 20 21  1  0  0  0  0
 21 19  1  0  0  0  0
 22 24  1  0  0  0  0
 23 25  1  0  0  0  0
 24 23  1  0  0  0  0
 26 23  2  0  0  0  0
M  END
>  <MODEL>
3

>  <REMARK>
 VINA RESULT:      -8.0      1.476      1.925
  Name = 
  8 active torsions:
  status: ('A' for Active; 'I' for Inactive)
    1  A    between atoms: C_2  and  C_12
    2  A    between atoms: C_2  and  O_20
    3  A    between atoms: C_2  and  C_26
    4  A    between atoms: N_7  and  C_11
    5  A    between atoms: N_7  and  C_15
    6  A    between atoms: N_9  and  C_12
    7  A    between atoms: C_15  and  C_16
    8  A    between atoms: C_16  and  C_26
                            x       y       z     vdW  Elec       q    Type
                         _______ _______ _______ _____ _____    ______ ____

>  <TORSDO>
F 8

$$$$
=
 OpenBabel11052409513D

 26 28  0  0  1  0  0  0  0  0999 V2000
  160.9770  205.6670  147.2610 C   0  0  0  0  0  3  0  0  0  0  0  0
  161.0700  203.9670  144.9840 C   0  0  0  0  0  3  0  0  0  0  0  0
  161.1310  203.4570  146.2780 C   0  0  0  0  0  0  0  0  0  0  0  0
  160.9300  201.4930  150.4470 C   0  0  0  0  0  3  0  0  0  0  0  0
  161.0880  204.2830  147.3920 C   0  0  0  0  0  0  0  0  0  0  0  0
  160.7630  203.9390  149.9560 C   0  0  2  0  0  3  0  0  0  0  0  0
  160.9680  205.3610  144.8330 C   0  0  0  0  0  3  0  0  0  0  0  0
  160.8160  202.7550  150.8960 C   0  0  0  0  0  3  0  0  0  0  0  0
  161.1930  202.0780  146.7460 C   0  0  0  0  0  0  0  0  0  0  0  0
  161.1550  203.5340  148.6080 N   0  0  0  0  0  0  0  0  0  0  0  0
  161.2070  201.0320  146.0460 O   0  0  0  0  0  0  0  0  0  0  0  0
  161.1760  202.1730  148.1970 C   0  0  0  0  0  0  0  0  0  0  0  0
  160.9210  206.2040  145.9630 C   0  0  0  0  0  3  0  0  0  0  0  0
  161.0510  201.2000  149.0430 N   0  0  0  0  0  0  0  0  0  0  0  0
  161.6530  204.9820  150.4370 N   0  0  0  0  0  2  0  0  0  0  0  0
  161.6490  204.9060  151.8890 C   0  0  0  0  0  2  0  0  0  0  0  0
  162.2580  206.1650  152.4760 C   0  0  0  0  0  2  0  0  0  0  0  0
  161.1650  207.0780  153.0030 C   0  0  0  0  0  2  0  0  0  0  0  0
  160.9110  208.2210  152.0340 C   0  0  1  0  0  3  0  0  0  0  0  0
  160.8190  209.0810  154.0720 C   0  0  0  0  0  1  0  0  0  0  0  0
  160.5210  209.3620  152.7380 O   0  0  0  0  0  0  0  0  0  0  0  0
  162.1830  208.5220  151.2520 C   0  0  0  0  0  2  0  0  0  0  0  0
  162.0800  209.7770  149.0550 C   0  0  0  0  0  0  0  0  0  0  0  0
  162.0360  209.7500  150.4830 N   0  0  0  0  0  2  0  0  0  0  0  0
  161.9520  211.0170  148.3700 N   0  0  0  0  0  1  0  0  0  0  0  0
  162.2280  208.7130  148.3970 O   0  0  0  0  0  0  0  0  0  0  0  0
  1  5  1  0  0  0  0
  2  3  1  0  0  0  0
  3  9  1  0  0  0  0
  3  5  2  0  0  0  0
  4  8  2  0  0  0  0
  5 10  1  0  0  0  0
  6 15  1  1  0  0  0
  6  8  1  0  0  0  0
  7  2  2  0  0  0  0
  7 13  1  0  0  0  0
  9 12  1  0  0  0  0
 10  6  1  0  0  0  0
 11  9  2  0  0  0  0
 12 10  1  0  0  0  0
 12 14  2  0  0  0  0
 13  1  2  0  0  0  0
 14  4  1  0  0  0  0
 15 16  1  0  0  0  0
 16 17  1  0  0  0  0
 17 18  1  0  0  0  0
 19 22  1  1  0  0  0
 19 21  1  0  0  0  0
 19 18  1  0  0  0  0
 21 20  1  0  0  0  0
 23 24  1  0  0  0  0
 24 22  1  0  0  0  0
 25 23  1  0  0  0  0
 26 23  2  0  0  0  0
M  END
>  <MODEL>
4

>  <REMARK>
 VINA RESULT:      -7.6      1.928      3.975
  Name = 
  8 active torsions:
  status: ('A' for Active; 'I' for Inactive)
    1  A    between atoms: C_2  and  C_12
    2  A    between atoms: C_2  and  O_20
    3  A    between atoms: C_2  and  C_26
    4  A    between atoms: N_7  and  C_11
    5  A    between atoms: N_7  and  C_15
    6  A    between atoms: N_9  and  C_12
    7  A    between atoms: C_15  and  C_16
    8  A    between atoms: C_16  and  C_26
                            x       y       z     vdW  Elec       q    Type
                         _______ _______ _______ _____ _____    ______ ____

>  <TORSDO>
F 8

$$$$
=
 OpenBabel11052409513D

 26 28  0  0  1  0  0  0  0  0999 V2000
  161.0730  203.6840  151.1840 C   0  0  0  0  0  3  0  0  0  0  0  0
  160.9620  202.6560  148.5360 C   0  0  0  0  0  3  0  0  0  0  0  0
  161.1220  204.0170  148.7840 C   0  0  0  0  0  0  0  0  0  0  0  0
  162.0770  208.4960  149.3370 C   0  0  0  0  0  3  0  0  0  0  0  0
  161.1750  204.5230  150.0750 C   0  0  0  0  0  0  0  0  0  0  0  0
  161.8380  206.8000  151.1600 C   0  0  2  0  0  3  0  0  0  0  0  0
  160.8470  201.7980  149.6430 C   0  0  0  0  0  3  0  0  0  0  0  0
  162.0610  208.2070  150.6500 C   0  0  0  0  0  3  0  0  0  0  0  0
  161.3120  205.1280  147.8610 C   0  0  0  0  0  0  0  0  0  0  0  0
  161.3550  205.9410  150.0800 N   0  0  0  0  0  0  0  0  0  0  0  0
  161.3660  205.0790  146.6040 O   0  0  0  0  0  0  0  0  0  0  0  0
  161.4810  206.2980  148.7090 C   0  0  0  0  0  0  0  0  0  0  0  0
  160.9020  202.3080  150.9570 C   0  0  0  0  0  3  0  0  0  0  0  0
  161.8390  207.4860  148.3400 N   0  0  0  0  0  0  0  0  0  0  0  0
  160.8690  206.8230  152.2430 N   0  0  0  0  0  2  0  0  0  0  0  0
  161.6040  206.5750  153.4720 C   0  0  0  0  0  2  0  0  0  0  0  0
  160.8710  207.1940  154.6480 C   0  0  0  0  0  2  0  0  0  0  0  0
  160.7510  208.6950  154.4580 C   0  0  0  0  0  2  0  0  0  0  0  0
  160.9600  209.4190  155.7790 C   0  0  1  0  0  3  0  0  0  0  0  0
  162.7240  209.7960  157.0630 C   0  0  0  0  0  1  0  0  0  0  0  0
  161.9470  208.7700  156.5240 O   0  0  0  0  0  0  0  0  0  0  0  0
  161.3920  210.8550  155.5130 C   0  0  0  0  0  2  0  0  0  0  0  0
  159.9230  212.1620  153.9170 C   0  0  0  0  0  0  0  0  0  0  0  0
  161.0080  211.2670  154.1690 N   0  0  0  0  0  2  0  0  0  0  0  0
  159.5890  212.5020  152.5770 N   0  0  0  0  0  1  0  0  0  0  0  0
  159.2620  212.6540  154.8690 O   0  0  0  0  0  0  0  0  0  0  0  0
  2  3  2  0  0  0  0
  2  7  1  0  0  0  0
  3  5  1  0  0  0  0
  4  8  2  0  0  0  0
  5 10  1  0  0  0  0
  5  1  2  0  0  0  0
  6 15  1  1  0  0  0
  7 13  2  0  0  0  0
  8  6  1  0  0  0  0
  9 12  1  0  0  0  0
  9  3  1  0  0  0  0
 10  6  1  0  0  0  0
 11  9  2  0  0  0  0
 12 10  1  0  0  0  0
 13  1  1  0  0  0  0
 14 12  2  0  0  0  0
 14  4  1  0  0  0  0
 15 16  1  0  0  0  0
 16 17  1  0  0  0  0
 18 17  1  0  0  0  0
 19 18  1  6  0  0  0
 19 21  1  0  0  0  0
 21 20  1  0  0  0  0
 22 19  1  0  0  0  0
 23 24  1  0  0  0  0
 23 26  2  0  0  0  0
 24 22  1  0  0  0  0
 25 23  1  0  0  0  0
M  END
>  <MODEL>
5

>  <REMARK>
 VINA RESULT:      -7.6      2.142      3.650
  Name = 
  8 active torsions:
  status: ('A' for Active; 'I' for Inactive)
    1  A    between atoms: C_2  and  C_12
    2  A    between atoms: C_2  and  O_20
    3  A    between atoms: C_2  and  C_26
    4  A    between atoms: N_7  and  C_11
    5  A    between atoms: N_7  and  C_15
    6  A    between atoms: N_9  and  C_12
    7  A    between atoms: C_15  and  C_16
    8  A    between atoms: C_16  and  C_26
                            x       y       z     vdW  Elec       q    Type
                         _______ _______ _______ _____ _____    ______ ____

>  <TORSDO>
F 8

$$$$
=
 OpenBabel11052409513D

 26 28  0  0  1  0  0  0  0  0999 V2000
  161.2500  205.5610  147.5430 C   0  0  0  0  0  3  0  0  0  0  0  0
  161.2850  204.0010  145.1670 C   0  0  0  0  0  3  0  0  0  0  0  0
  161.2670  203.4100  146.4270 C   0  0  0  0  0  0  0  0  0  0  0  0
  160.7840  201.2170  150.4570 C   0  0  0  0  0  3  0  0  0  0  0  0
  161.2510  204.1670  147.5900 C   0  0  0  0  0  0  0  0  0  0  0  0
  160.8190  203.6950  150.1180 C   0  0  2  0  0  3  0  0  0  0  0  0
  161.2940  205.4060  145.1020 C   0  0  0  0  0  3  0  0  0  0  0  0
  160.7530  202.4540  150.9810 C   0  0  0  0  0  3  0  0  0  0  0  0
  161.2080  202.0050  146.8080 C   0  0  0  0  0  0  0  0  0  0  0  0
  161.2220  203.3430  148.7570 N   0  0  0  0  0  0  0  0  0  0  0  0
  161.1650  201.0050  146.0450 O   0  0  0  0  0  0  0  0  0  0  0  0
  161.1520  202.0120  148.2620 C   0  0  0  0  0  0  0  0  0  0  0  0
  161.2760  206.1800  146.2810 C   0  0  0  0  0  3  0  0  0  0  0  0
  160.9270  201.0020  149.0410 N   0  0  0  0  0  0  0  0  0  0  0  0
  161.7710  204.6340  150.6870 N   0  0  0  0  0  2  0  0  0  0  0  0
  161.3620  204.8680  152.0620 C   0  0  0  0  0  2  0  0  0  0  0  0
  161.9350  206.1830  152.5570 C   0  0  0  0  0  2  0  0  0  0  0  0
  161.2860  207.3440  151.8250 C   0  0  0  0  0  2  0  0  0  0  0  0
  162.3440  208.2770  151.2580 C   0  0  1  0  0  3  0  0  0  0  0  0
  161.9310  208.7050  149.1250 C   0  0  0  0  0  1  0  0  0  0  0  0
  162.6810  207.8780  149.9620 O   0  0  0  0  0  0  0  0  0  0  0  0
  161.8070  209.7010  151.2240 C   0  0  0  0  0  2  0  0  0  0  0  0
  160.6780  210.8120  153.2000 C   0  0  0  0  0  0  0  0  0  0  0  0
  161.8430  210.2960  152.5520 N   0  0  0  0  0  2  0  0  0  0  0  0
  160.7920  211.4020  154.4890 N   0  0  0  0  0  1  0  0  0  0  0  0
  159.5510  210.7490  152.6400 O   0  0  0  0  0  0  0  0  0  0  0  0
  1  5  1  0  0  0  0
  2  3  1  0  0  0  0
  3  9  1  0  0  0  0
  3  5  2  0  0  0  0
  4  8  2  0  0  0  0
  5 10  1  0  0  0  0
  6 15  1  1  0  0  0
  6  8  1  0  0  0  0
  7  2  2  0  0  0  0
  7 13  1  0  0  0  0
  9 12  1  0  0  0  0
 10  6  1  0  0  0  0
 11  9  2  0  0  0  0
 12 10  1  0  0  0  0
 12 14  2  0  0  0  0
 13  1  2  0  0  0  0
 14  4  1  0  0  0  0
 15 16  1  0  0  0  0
 16 17  1  0  0  0  0
 18 17  1  0  0  0  0
 19 22  1  6  0  0  0
 19 18  1  0  0  0  0
 20 21  1  0  0  0  0
 21 19  1  0  0  0  0
 22 24  1  0  0  0  0
 23 25  1  0  0  0  0
 24 23  1  0  0  0  0
 26 23  2  0  0  0  0
M  END
>  <MODEL>
6

>  <REMARK>
 VINA RESULT:      -7.5      1.537      3.676
  Name = 
  8 active torsions:
  status: ('A' for Active; 'I' for Inactive)
    1  A    between atoms: C_2  and  C_12
    2  A    between atoms: C_2  and  O_20
    3  A    between atoms: C_2  and  C_26
    4  A    between atoms: N_7  and  C_11
    5  A    between atoms: N_7  and  C_15
    6  A    between atoms: N_9  and  C_12
    7  A    between atoms: C_15  and  C_16
    8  A    between atoms: C_16  and  C_26
                            x       y       z     vdW  Elec       q    Type
                         _______ _______ _______ _____ _____    ______ ____

>  <TORSDO>
F 8

$$$$
=
 OpenBabel11052409513D

 26 28  0  0  1  0  0  0  0  0999 V2000
  161.0270  203.2440  150.6830 C   0  0  0  0  0  3  0  0  0  0  0  0
  161.0200  202.2220  148.0300 C   0  0  0  0  0  3  0  0  0  0  0  0
  161.2030  203.5780  148.2890 C   0  0  0  0  0  0  0  0  0  0  0  0
  162.2480  208.0290  148.8970 C   0  0  0  0  0  3  0  0  0  0  0  0
  161.2060  204.0810  149.5820 C   0  0  0  0  0  0  0  0  0  0  0  0
  161.8750  206.3390  150.7020 C   0  0  2  0  0  3  0  0  0  0  0  0
  160.8280  201.3660  149.1290 C   0  0  0  0  0  3  0  0  0  0  0  0
  162.1600  207.7400  150.2070 C   0  0  0  0  0  3  0  0  0  0  0  0
  161.4670  204.6840  147.3780 C   0  0  0  0  0  0  0  0  0  0  0  0
  161.4230  205.4940  149.5980 N   0  0  0  0  0  0  0  0  0  0  0  0
  161.5810  204.6340  146.1260 O   0  0  0  0  0  0  0  0  0  0  0  0
  161.6260  205.8480  148.2360 C   0  0  0  0  0  0  0  0  0  0  0  0
  160.8320  201.8730  150.4450 C   0  0  0  0  0  3  0  0  0  0  0  0
  162.0320  207.0270  147.8870 N   0  0  0  0  0  0  0  0  0  0  0  0
  160.8550  206.3870  151.7370 N   0  0  0  0  0  2  0  0  0  0  0  0
  161.5270  206.1500  153.0040 C   0  0  0  0  0  2  0  0  0  0  0  0
  160.8320  206.9200  154.1110 C   0  0  0  0  0  2  0  0  0  0  0  0
  160.9360  208.4130  153.8560 C   0  0  0  0  0  2  0  0  0  0  0  0
  160.7550  209.1890  155.1510 C   0  0  1  0  0  3  0  0  0  0  0  0
  162.3630  210.3340  156.1550 C   0  0  0  0  0  1  0  0  0  0  0  0
  161.8860  209.0370  155.9570 O   0  0  0  0  0  0  0  0  0  0  0  0
  160.5540  210.6660  154.8380 C   0  0  0  0  0  2  0  0  0  0  0  0
  158.1300  211.2630  155.2650 C   0  0  0  0  0  0  0  0  0  0  0  0
  159.1940  210.9130  154.3780 N   0  0  0  0  0  2  0  0  0  0  0  0
  156.8210  211.4670  154.7480 N   0  0  0  0  0  1  0  0  0  0  0  0
  158.3410  211.3950  156.5000 O   0  0  0  0  0  0  0  0  0  0  0  0
  2  3  2  0  0  0  0
  2  7  1  0  0  0  0
  3  5  1  0  0  0  0
  4  8  2  0  0  0  0
  5 10  1  0  0  0  0
  5  1  2  0  0  0  0
  6 15  1  1  0  0  0
  7 13  2  0  0  0  0
  8  6  1  0  0  0  0
  9 12  1  0  0  0  0
  9  3  1  0  0  0  0
 10  6  1  0  0  0  0
 11  9  2  0  0  0  0
 12 10  1  0  0  0  0
 13  1  1  0  0  0  0
 14 12  2  0  0  0  0
 14  4  1  0  0  0  0
 15 16  1  0  0  0  0
 16 17  1  0  0  0  0
 18 17  1  0  0  0  0
 19 18  1  6  0  0  0
 19 21  1  0  0  0  0
 21 20  1  0  0  0  0
 22 19  1  0  0  0  0
 23 26  2  0  0  0  0
 24 22  1  0  0  0  0
 24 23  1  0  0  0  0
 25 23  1  0  0  0  0
M  END
>  <MODEL>
7

>  <REMARK>
 VINA RESULT:      -7.5      2.139      3.465
  Name = 
  8 active torsions:
  status: ('A' for Active; 'I' for Inactive)
    1  A    between atoms: C_2  and  C_12
    2  A    between atoms: C_2  and  O_20
    3  A    between atoms: C_2  and  C_26
    4  A    between atoms: N_7  and  C_11
    5  A    between atoms: N_7  and  C_15
    6  A    between atoms: N_9  and  C_12
    7  A    between atoms: C_15  and  C_16
    8  A    between atoms: C_16  and  C_26
                            x       y       z     vdW  Elec       q    Type
                         _______ _______ _______ _____ _____    ______ ____

>  <TORSDO>
F 8

$$$$
=
 OpenBabel11052409513D

 26 28  0  0  1  0  0  0  0  0999 V2000
  161.5450  205.9220  151.1540 C   0  0  0  0  0  3  0  0  0  0  0  0
  161.1750  206.7900  153.8350 C   0  0  0  0  0  3  0  0  0  0  0  0
  161.4520  207.6890  152.8090 C   0  0  0  0  0  0  0  0  0  0  0  0
  161.9420  210.9010  149.5340 C   0  0  0  0  0  3  0  0  0  0  0  0
  161.6350  207.2700  151.4990 C   0  0  0  0  0  0  0  0  0  0  0  0
  161.7650  208.4340  149.1690 C   0  0  2  0  0  3  0  0  0  0  0  0
  161.0910  205.4260  153.5060 C   0  0  0  0  0  3  0  0  0  0  0  0
  161.9500  209.8560  148.6890 C   0  0  0  0  0  3  0  0  0  0  0  0
  161.5540  209.1430  152.8310 C   0  0  0  0  0  0  0  0  0  0  0  0
  161.8960  208.3690  150.6230 N   0  0  0  0  0  0  0  0  0  0  0  0
  161.4100  209.9050  153.8220 O   0  0  0  0  0  0  0  0  0  0  0  0
  161.8010  209.5230  151.4490 C   0  0  0  0  0  0  0  0  0  0  0  0
  161.2740  204.9950  152.1750 C   0  0  0  0  0  3  0  0  0  0  0  0
  161.8000  210.7210  150.9550 N   0  0  0  0  0  0  0  0  0  0  0  0
  162.7590  207.5770  148.5450 N   0  0  0  0  0  2  0  0  0  0  0  0
  162.1440  207.0140  147.3540 C   0  0  0  0  0  2  0  0  0  0  0  0
  161.3150  205.7970  147.7250 C   0  0  0  0  0  2  0  0  0  0  0  0
  162.0100  204.5300  147.2600 C   0  0  0  0  0  2  0  0  0  0  0  0
  161.2370  203.8830  146.1220 C   0  0  1  0  0  3  0  0  0  0  0  0
  161.3210  205.0280  144.2280 C   0  0  0  0  0  1  0  0  0  0  0  0
  161.9570  204.0030  144.9310 O   0  0  0  0  0  0  0  0  0  0  0  0
  161.0120  202.4090  146.4290 C   0  0  0  0  0  2  0  0  0  0  0  0
  161.1950  200.9550  148.4950 C   0  0  0  0  0  0  0  0  0  0  0  0
  160.8760  202.1970  147.8630 N   0  0  0  0  0  2  0  0  0  0  0  0
  161.0150  200.8130  149.8980 N   0  0  0  0  0  1  0  0  0  0  0  0
  161.6370  199.9870  147.8200 O   0  0  0  0  0  0  0  0  0  0  0  0
  1  5  2  0  0  0  0
  1 13  1  0  0  0  0
  3  9  1  0  0  0  0
  3  2  2  0  0  0  0
  4 14  1  0  0  0  0
  5  3  1  0  0  0  0
  6 15  1  6  0  0  0
  6 10  1  0  0  0  0
  7  2  1  0  0  0  0
  8  6  1  0  0  0  0
  8  4  2  0  0  0  0
  9 11  2  0  0  0  0
 10 12  1  0  0  0  0
 10  5  1  0  0  0  0
 12  9  1  0  0  0  0
 13  7  2  0  0  0  0
 14 12  2  0  0  0  0
 16 17  1  0  0  0  0
 16 15  1  0  0  0  0
 18 17  1  0  0  0  0
 19 22  1  1  0  0  0
 19 18  1  0  0  0  0
 20 21  1  0  0  0  0
 21 19  1  0  0  0  0
 22 24  1  0  0  0  0
 23 25  1  0  0  0  0
 24 23  1  0  0  0  0
 26 23  2  0  0  0  0
M  END
>  <MODEL>
8

>  <REMARK>
 VINA RESULT:      -7.5      1.858      7.452
  Name = 
  8 active torsions:
  status: ('A' for Active; 'I' for Inactive)
    1  A    between atoms: C_2  and  C_12
    2  A    between atoms: C_2  and  O_20
    3  A    between atoms: C_2  and  C_26
    4  A    between atoms: N_7  and  C_11
    5  A    between atoms: N_7  and  C_15
    6  A    between atoms: N_9  and  C_12
    7  A    between atoms: C_15  and  C_16
    8  A    between atoms: C_16  and  C_26
                            x       y       z     vdW  Elec       q    Type
                         _______ _______ _______ _____ _____    ______ ____

>  <TORSDO>
F 8

$$$$
=
 OpenBabel11052409513D

 26 28  0  0  1  0  0  0  0  0999 V2000
  161.4480  205.1870  150.5620 C   0  0  0  0  0  3  0  0  0  0  0  0
  160.7930  204.1600  153.1300 C   0  0  0  0  0  3  0  0  0  0  0  0
  161.0530  205.5130  152.9300 C   0  0  0  0  0  0  0  0  0  0  0  0
  161.4580  210.0840  152.4580 C   0  0  0  0  0  3  0  0  0  0  0  0
  161.3740  206.0190  151.6790 C   0  0  0  0  0  0  0  0  0  0  0  0
  161.5590  208.3940  150.6180 C   0  0  2  0  0  3  0  0  0  0  0  0
  160.8720  203.3060  152.0160 C   0  0  0  0  0  3  0  0  0  0  0  0
  161.6340  209.8060  151.1550 C   0  0  0  0  0  3  0  0  0  0  0  0
  161.0050  206.6310  153.8650 C   0  0  0  0  0  0  0  0  0  0  0  0
  161.5870  207.4320  151.7180 N   0  0  0  0  0  0  0  0  0  0  0  0
  160.7120  206.5940  155.0880 O   0  0  0  0  0  0  0  0  0  0  0  0
  161.3140  207.8040  153.0630 C   0  0  0  0  0  0  0  0  0  0  0  0
  161.1960  203.8160  150.7410 C   0  0  0  0  0  3  0  0  0  0  0  0
  161.2290  209.0440  153.4270 N   0  0  0  0  0  0  0  0  0  0  0  0
  162.6790  208.1530  149.7230 N   0  0  0  0  0  2  0  0  0  0  0  0
  162.2150  208.4500  148.3780 C   0  0  0  0  0  2  0  0  0  0  0  0
  161.2260  207.3920  147.9250 C   0  0  0  0  0  2  0  0  0  0  0  0
  161.9460  206.2960  147.1600 C   0  0  0  0  0  2  0  0  0  0  0  0
  160.9590  205.4800  146.3410 C   0  0  1  0  0  3  0  0  0  0  0  0
  161.2810  205.3460  144.1540 C   0  0  0  0  0  1  0  0  0  0  0  0
  160.6850  206.1360  145.1380 O   0  0  0  0  0  0  0  0  0  0  0  0
  161.5500  204.1080  146.0440 C   0  0  0  0  0  2  0  0  0  0  0  0
  161.0360  201.9000  147.1710 C   0  0  0  0  0  0  0  0  0  0  0  0
  161.4860  203.2550  147.2220 N   0  0  0  0  0  2  0  0  0  0  0  0
  160.9770  201.1320  148.3660 N   0  0  0  0  0  1  0  0  0  0  0  0
  160.6930  201.3780  146.0760 O   0  0  0  0  0  0  0  0  0  0  0  0
  1 13  2  0  0  0  0
  1  5  1  0  0  0  0
  3  2  1  0  0  0  0
  3  9  1  0  0  0  0
  4 14  1  0  0  0  0
  5 10  1  0  0  0  0
  5  3  2  0  0  0  0
  6 15  1  6  0  0  0
  6  8  1  0  0  0  0
  6 10  1  0  0  0  0
  7  2  2  0  0  0  0
  8  4  2  0  0  0  0
  9 11  2  0  0  0  0
 10 12  1  0  0  0  0
 12 14  2  0  0  0  0
 12  9  1  0  0  0  0
 13  7  1  0  0  0  0
 16 15  1  0  0  0  0
 17 16  1  0  0  0  0
 18 17  1  0  0  0  0
 19 22  1  6  0  0  0
 19 18  1  0  0  0  0
 20 21  1  0  0  0  0
 21 19  1  0  0  0  0
 22 24  1  0  0  0  0
 23 24  1  0  0  0  0
 23 25  1  0  0  0  0
 26 23  2  0  0  0  0
M  END
>  <MODEL>
9

>  <REMARK>
 VINA RESULT:      -7.4      1.866      7.173
  Name = 
  8 active torsions:
  status: ('A' for Active; 'I' for Inactive)
    1  A    between atoms: C_2  and  C_12
    2  A    between atoms: C_2  and  O_20
    3  A    between atoms: C_2  and  C_26
    4  A    between atoms: N_7  and  C_11
    5  A    between atoms: N_7  and  C_15
    6  A    between atoms: N_9  and  C_12
    7  A    between atoms: C_15  and  C_16
    8  A    between atoms: C_16  and  C_26
                            x       y       z     vdW  Elec       q    Type
                         _______ _______ _______ _____ _____    ______ ____

>  <TORSDO>
F 8

$$$$
