=
 OpenBabel11042423063D

 48 50  0  0  1  0  0  0  0  0999 V2000
  160.9700  208.4620  153.5710 C   0  0  0  0  0  3  0  0  0  0  0  0
  161.8090  210.3910  152.3790 C   0  0  0  0  0  3  0  0  0  0  0  0
  161.3740  208.3180  151.1770 C   0  0  0  0  0  0  0  0  0  0  0  0
  160.9520  207.7320  152.3800 C   0  0  0  0  0  3  0  0  0  0  0  0
  161.7900  209.6580  151.1880 C   0  0  0  0  0  3  0  0  0  0  0  0
  161.4190  209.7880  153.5850 C   0  0  0  0  0  0  0  0  0  0  0  0
  161.3380  210.5780  154.8680 C   0  0  2  0  0  3  0  0  0  0  0  0
  160.2560  210.0510  155.8260 C   0  0  0  0  0  0  0  0  0  0  0  0
  160.1450  211.3730  155.0650 C   0  0  2  0  0  3  0  0  0  0  0  0
  159.8130  209.2090  156.5900 O   0  0  0  0  0  0  0  0  0  0  0  0
  159.0200  211.2410  154.0410 C   0  0  0  0  0  2  0  0  0  0  0  0
  158.6240  212.6160  153.5330 C   0  0  0  0  0  2  0  0  0  0  0  0
  159.3670  212.9500  152.3670 O   0  0  0  0  0  0  0  0  0  0  0  0
  157.6200  213.9260  151.2040 O   0  0  0  0  0  0  0  0  0  0  0  0
  158.8630  213.7780  151.3600 C   0  0  0  0  0  0  0  0  0  0  0  0
  159.8110  214.4530  150.4340 C   0  0  0  0  0  2  0  0  0  0  0  0
  159.9420  213.6380  149.1630 C   0  0  0  0  0  2  0  0  0  0  0  0
  161.2390  212.9770  149.1110 N   0  0  0  0  0  2  0  0  0  0  0  0
  162.8690  211.7280  148.0350 O   0  0  0  0  0  0  0  0  0  0  0  0
  161.8460  212.4550  147.9210 C   0  0  0  0  0  0  0  0  0  0  0  0
  160.0650  212.0530  143.8280 C   0  0  0  0  0  3  0  0  0  0  0  0
  161.2980  212.7230  146.5750 C   0  0  0  0  0  0  0  0  0  0  0  0
  162.0990  213.5130  145.6120 C   0  0  0  0  0  3  0  0  0  0  0  0
  159.3400  212.5560  145.0300 C   0  0  0  0  0  2  0  0  0  0  0  0
  162.0910  213.4030  144.2760 C   0  0  0  0  0  3  0  0  0  0  0  0
  161.2810  212.4630  143.4640 C   0  0  0  0  0  0  0  0  0  0  0  0
  160.0780  212.2530  146.2910 C   0  0  0  0  0  3  0  0  0  0  0  0
  161.7770  211.9880  142.2470 O   0  0  0  0  0  0  0  0  0  0  0  0
  161.0250  211.1410  141.3890 C   0  0  0  0  0  1  0  0  0  0  0  0
  161.2770  206.1440  149.8090 N   0  0  0  0  0  2  0  0  0  0  0  0
  161.3810  208.2300  148.8150 O   0  0  0  0  0  0  0  0  0  0  0  0
  161.3400  207.5760  149.8930 C   0  0  0  0  0  0  0  0  0  0  0  0
  161.3670  205.2270  150.9290 C   0  0  0  0  0  2  0  0  0  0  0  0
  160.3890  204.0870  150.7170 C   0  0  0  0  0  2  0  0  0  0  0  0
  161.0980  202.7420  150.6960 C   0  0  1  0  0  3  0  0  0  0  0  0
  161.1600  202.2460  151.9970 O   0  0  0  0  0  1  0  0  0  0  0  0
  160.3470  201.7620  149.8020 C   0  0  0  0  0  2  0  0  0  0  0  0
  161.2710  200.7460  149.1490 C   0  0  0  0  0  2  0  0  0  0  0  0
  160.9470  201.6910  146.8430 C   0  0  0  0  0  0  0  0  0  0  0  0
  160.9440  200.5820  147.7410 N   0  0  0  0  0  2  0  0  0  0  0  0
  160.4840  201.5460  145.6830 O   0  0  0  0  0  0  0  0  0  0  0  0
  161.4830  202.9530  147.2610 N   0  0  0  0  0  2  0  0  0  0  0  0
  161.5160  204.1610  146.4390 C   0  0  1  0  0  3  0  0  0  0  0  0
  162.7410  205.0110  146.7530 C   0  0  0  0  0  2  0  0  0  0  0  0
  162.4990  206.3380  146.3980 O   0  0  0  0  0  1  0  0  0  0  0  0
  161.4620  203.8070  144.9580 C   0  0  0  0  0  2  0  0  0  0  0  0
  160.4870  204.5790  144.3230 O   0  0  0  0  0  0  0  0  0  0  0  0
  161.1950  205.5980  143.6880 C   0  0  0  0  0  1  0  0  0  0  0  0
  1  6  1  0  0  0  0
  2  6  2  0  0  0  0
  3  5  2  0  0  0  0
  3  4  1  0  0  0  0
  4  1  2  0  0  0  0
  5  2  1  0  0  0  0
  7  6  1  6  0  0  0
  7  9  1  0  0  0  0
  7  8  1  0  0  0  0
  8 10  2  0  0  0  0
  9 11  1  6  0  0  0
  9  8  1  0  0  0  0
 12 11  1  0  0  0  0
 13 12  1  0  0  0  0
 14 15  2  0  0  0  0
 15 13  1  0  0  0  0
 16 15  1  0  0  0  0
 17 16  1  0  0  0  0
 18 17  1  0  0  0  0
 20 19  2  0  0  0  0
 20 18  1  0  0  0  0
 21 24  1  0  0  0  0
 22 20  1  0  0  0  0
 23 22  1  0  0  0  0
 24 27  1  0  0  0  0
 25 23  2  0  0  0  0
 26 21  2  0  0  0  0
 26 25  1  0  0  0  0
 27 22  2  0  0  0  0
 28 26  1  0  0  0  0
 29 28  1  0  0  0  0
 30 32  1  0  0  0  0
 30 33  1  0  0  0  0
 31 32  2  0  0  0  0
 32  3  1  0  0  0  0
 34 33  1  0  0  0  0
 35 34  1  0  0  0  0
 35 36  1  1  0  0  0
 37 35  1  0  0  0  0
 38 37  1  0  0  0  0
 39 42  1  0  0  0  0
 39 40  1  0  0  0  0
 40 38  1  0  0  0  0
 41 39  2  0  0  0  0
 43 46  1  6  0  0  0
 43 44  1  0  0  0  0
 43 42  1  0  0  0  0
 45 44  1  0  0  0  0
 47 46  1  0  0  0  0
 48 47  1  0  0  0  0
M  END
>  <MODEL>
1

>  <REMARK>
 VINA RESULT:      -7.3      0.000      0.000
  Name = 
  21 active torsions:
  status: ('A' for Active; 'I' for Inactive)
    1  A    between atoms: C_3  and  O_22
    2  A    between atoms: C_3  and  C_37
    3  A    between atoms: C_4  and  C_19
    4  A    between atoms: C_4  and  C_31
    5  A    between atoms: C_5  and  C_48
    6  A    between atoms: C_7  and  C_37
    7  A    between atoms: O_8  and  C_31
    8  A    between atoms: O_8  and  C_39
    9  A    between atoms: C_11  and  C_21
   10  A    between atoms: C_11  and  C_34
   11  A    between atoms: N_12  and  C_18
   12  A    between atoms: N_14  and  C_45
   13  A    between atoms: N_15  and  C_29
   14  A    between atoms: O_16  and  C_46
   15  A    between atoms: C_17  and  C_43
   16  A    between atoms: C_18  and  C_21
   17  A    between atoms: C_24  and  C_29
   18  A    between atoms: C_24  and  C_39
   19  A    between atoms: C_25  and  C_41
   20  A    between atoms: C_34  and  C_45
   21  A    between atoms: C_37  and  N_44
                            x       y       z     vdW  Elec       q    Type
                         _______ _______ _______ _____ _____    ______ ____

>  <TORSDO>
F 21

$$$$
=
 OpenBabel11042423063D

 48 50  0  0  1  0  0  0  0  0999 V2000
  161.2300  208.1790  152.0090 C   0  0  0  0  0  3  0  0  0  0  0  0
  160.5470  208.1680  154.3280 C   0  0  0  0  0  3  0  0  0  0  0  0
  160.0640  210.1040  152.9300 C   0  0  0  0  0  0  0  0  0  0  0  0
  160.6770  209.4510  151.8510 C   0  0  0  0  0  3  0  0  0  0  0  0
  159.9940  209.4430  154.1670 C   0  0  0  0  0  3  0  0  0  0  0  0
  161.1900  207.5370  153.2530 C   0  0  0  0  0  0  0  0  0  0  0  0
  161.7130  206.1260  153.3690 C   0  0  2  0  0  3  0  0  0  0  0  0
  162.6820  205.7530  152.2340 C   0  0  0  0  0  0  0  0  0  0  0  0
  161.2680  205.1860  152.3630 C   0  0  2  0  0  3  0  0  0  0  0  0
  163.7520  205.8540  151.6570 O   0  0  0  0  0  0  0  0  0  0  0  0
  160.4300  205.7210  151.2040 C   0  0  0  0  0  2  0  0  0  0  0  0
  160.4810  204.7490  150.0400 C   0  0  0  0  0  2  0  0  0  0  0  0
  161.1890  203.5710  150.4050 O   0  0  0  0  0  0  0  0  0  0  0  0
  161.0500  201.2740  150.6560 O   0  0  0  0  0  0  0  0  0  0  0  0
  160.8270  202.2980  149.9550 C   0  0  0  0  0  0  0  0  0  0  0  0
  160.2110  202.1530  148.6090 C   0  0  0  0  0  2  0  0  0  0  0  0
  161.1870  201.4580  147.6800 C   0  0  0  0  0  2  0  0  0  0  0  0
  160.6070  201.3020  146.3520 N   0  0  0  0  0  2  0  0  0  0  0  0
  159.7850  202.1480  144.3560 O   0  0  0  0  0  0  0  0  0  0  0  0
  160.4860  202.3530  145.3830 C   0  0  0  0  0  0  0  0  0  0  0  0
  162.6200  205.9200  147.0580 C   0  0  0  0  0  3  0  0  0  0  0  0
  161.1350  203.6690  145.5630 C   0  0  0  0  0  0  0  0  0  0  0  0
  160.3880  204.8970  145.2090 C   0  0  0  0  0  3  0  0  0  0  0  0
  163.2210  204.9260  146.1240 C   0  0  0  0  0  2  0  0  0  0  0  0
  160.5120  206.1070  145.7720 C   0  0  0  0  0  3  0  0  0  0  0  0
  161.4240  206.4840  146.8810 C   0  0  0  0  0  0  0  0  0  0  0  0
  162.3910  203.6890  146.0200 C   0  0  0  0  0  3  0  0  0  0  0  0
  161.0510  207.4870  147.7780 O   0  0  0  0  0  0  0  0  0  0  0  0
  161.9970  208.3050  148.4530 C   0  0  0  0  0  1  0  0  0  0  0  0
  159.7520  212.3440  151.7090 N   0  0  0  0  0  2  0  0  0  0  0  0
  158.6120  211.8240  153.6530 O   0  0  0  0  0  0  0  0  0  0  0  0
  159.4440  211.4430  152.7840 C   0  0  0  0  0  0  0  0  0  0  0  0
  160.7790  212.1410  150.7060 C   0  0  0  0  0  2  0  0  0  0  0  0
  160.5870  213.1500  149.5890 C   0  0  0  0  0  2  0  0  0  0  0  0
  161.4750  212.8330  148.3950 C   0  0  1  0  0  3  0  0  0  0  0  0
  162.4890  211.9680  148.8060 O   0  0  0  0  0  1  0  0  0  0  0  0
  160.6570  212.1840  147.2850 C   0  0  0  0  0  2  0  0  0  0  0  0
  160.6240  213.0260  146.0190 C   0  0  0  0  0  2  0  0  0  0  0  0
  162.4850  213.1300  144.3330 C   0  0  0  0  0  0  0  0  0  0  0  0
  161.9680  213.4240  145.6300 N   0  0  0  0  0  2  0  0  0  0  0  0
  163.7040  213.3240  144.0970 O   0  0  0  0  0  0  0  0  0  0  0  0
  161.6160  212.6270  143.3090 N   0  0  0  0  0  2  0  0  0  0  0  0
  162.0370  212.2680  141.9570 C   0  0  1  0  0  3  0  0  0  0  0  0
  161.1430  211.1850  141.3670 C   0  0  0  0  0  2  0  0  0  0  0  0
  161.6800  210.7330  140.1620 O   0  0  0  0  0  1  0  0  0  0  0  0
  162.0690  213.4990  141.0580 C   0  0  0  0  0  2  0  0  0  0  0  0
  163.3940  213.8580  140.7960 O   0  0  0  0  0  0  0  0  0  0  0  0
  163.5080  213.8130  139.4080 C   0  0  0  0  0  1  0  0  0  0  0  0
  1  6  1  0  0  0  0
  3  5  2  0  0  0  0
  4  1  2  0  0  0  0
  4  3  1  0  0  0  0
  5  2  1  0  0  0  0
  6  2  2  0  0  0  0
  7  6  1  6  0  0  0
  8  9  1  0  0  0  0
  8  7  1  0  0  0  0
  9 11  1  6  0  0  0
  9  7  1  0  0  0  0
 10  8  2  0  0  0  0
 12 13  1  0  0  0  0
 12 11  1  0  0  0  0
 15 13  1  0  0  0  0
 15 14  2  0  0  0  0
 16 15  1  0  0  0  0
 17 16  1  0  0  0  0
 18 17  1  0  0  0  0
 19 20  2  0  0  0  0
 20 22  1  0  0  0  0
 20 18  1  0  0  0  0
 22 27  2  0  0  0  0
 23 22  1  0  0  0  0
 23 25  2  0  0  0  0
 24 21  1  0  0  0  0
 25 26  1  0  0  0  0
 26 21  2  0  0  0  0
 26 28  1  0  0  0  0
 27 24  1  0  0  0  0
 28 29  1  0  0  0  0
 30 32  1  0  0  0  0
 32  3  1  0  0  0  0
 32 31  2  0  0  0  0
 33 30  1  0  0  0  0
 34 33  1  0  0  0  0
 35 36  1  1  0  0  0
 35 34  1  0  0  0  0
 37 35  1  0  0  0  0
 38 37  1  0  0  0  0
 39 40  1  0  0  0  0
 40 38  1  0  0  0  0
 41 39  2  0  0  0  0
 42 39  1  0  0  0  0
 43 46  1  6  0  0  0
 43 42  1  0  0  0  0
 44 43  1  0  0  0  0
 45 44  1  0  0  0  0
 47 46  1  0  0  0  0
 48 47  1  0  0  0  0
M  END
>  <MODEL>
2

>  <REMARK>
 VINA RESULT:      -7.1      2.031      8.911
  Name = 
  21 active torsions:
  status: ('A' for Active; 'I' for Inactive)
    1  A    between atoms: C_3  and  O_22
    2  A    between atoms: C_3  and  C_37
    3  A    between atoms: C_4  and  C_19
    4  A    between atoms: C_4  and  C_31
    5  A    between atoms: C_5  and  C_48
    6  A    between atoms: C_7  and  C_37
    7  A    between atoms: O_8  and  C_31
    8  A    between atoms: O_8  and  C_39
    9  A    between atoms: C_11  and  C_21
   10  A    between atoms: C_11  and  C_34
   11  A    between atoms: N_12  and  C_18
   12  A    between atoms: N_14  and  C_45
   13  A    between atoms: N_15  and  C_29
   14  A    between atoms: O_16  and  C_46
   15  A    between atoms: C_17  and  C_43
   16  A    between atoms: C_18  and  C_21
   17  A    between atoms: C_24  and  C_29
   18  A    between atoms: C_24  and  C_39
   19  A    between atoms: C_25  and  C_41
   20  A    between atoms: C_34  and  C_45
   21  A    between atoms: C_37  and  N_44
                            x       y       z     vdW  Elec       q    Type
                         _______ _______ _______ _____ _____    ______ ____

>  <TORSDO>
F 21

$$$$
=
 OpenBabel11042423063D

 48 50  0  0  1  0  0  0  0  0999 V2000
  160.4940  204.9600  149.6010 C   0  0  0  0  0  3  0  0  0  0  0  0
  160.9020  203.0310  150.9990 C   0  0  0  0  0  3  0  0  0  0  0  0
  161.1050  205.2710  151.9340 C   0  0  0  0  0  0  0  0  0  0  0  0
  160.7550  205.8020  150.6840 C   0  0  0  0  0  3  0  0  0  0  0  0
  161.1640  203.8760  152.0830 C   0  0  0  0  0  3  0  0  0  0  0  0
  160.5870  203.5710  149.7440 C   0  0  0  0  0  0  0  0  0  0  0  0
  160.2080  202.6850  148.5810 C   0  0  2  0  0  3  0  0  0  0  0  0
  161.2670  201.6100  148.2800 C   0  0  0  0  0  0  0  0  0  0  0  0
  161.0050  202.8180  147.3800 C   0  0  2  0  0  3  0  0  0  0  0  0
  161.8720  200.5890  148.5600 O   0  0  0  0  0  0  0  0  0  0  0  0
  162.2300  203.7280  147.4310 C   0  0  0  0  0  2  0  0  0  0  0  0
  162.3440  204.5090  146.1350 C   0  0  0  0  0  2  0  0  0  0  0  0
  162.6300  205.8770  146.4000 O   0  0  0  0  0  0  0  0  0  0  0  0
  160.4920  206.7070  146.7100 O   0  0  0  0  0  0  0  0  0  0  0  0
  161.7160  206.7360  147.0160 C   0  0  0  0  0  0  0  0  0  0  0  0
  162.2070  207.7270  148.0100 C   0  0  0  0  0  2  0  0  0  0  0  0
  161.6260  209.0910  147.6910 C   0  0  0  0  0  2  0  0  0  0  0  0
  162.0230  210.0640  148.7020 N   0  0  0  0  0  2  0  0  0  0  0  0
  162.5910  212.2060  149.3820 O   0  0  0  0  0  0  0  0  0  0  0  0
  162.0360  211.4850  148.5090 C   0  0  0  0  0  0  0  0  0  0  0  0
  159.8940  212.2790  144.6540 C   0  0  0  0  0  3  0  0  0  0  0  0
  161.4440  212.1250  147.3160 C   0  0  0  0  0  0  0  0  0  0  0  0
  162.3000  212.9590  146.4430 C   0  0  0  0  0  3  0  0  0  0  0  0
  159.3740  212.6240  146.0080 C   0  0  0  0  0  2  0  0  0  0  0  0
  162.1670  213.1440  145.1220 C   0  0  0  0  0  3  0  0  0  0  0  0
  161.1330  212.5490  144.2390 C   0  0  0  0  0  0  0  0  0  0  0  0
  160.1390  211.9370  147.0890 C   0  0  0  0  0  3  0  0  0  0  0  0
  161.4340  212.2730  142.9030 O   0  0  0  0  0  0  0  0  0  0  0  0
  160.9690  213.0770  141.8280 C   0  0  0  0  0  1  0  0  0  0  0  0
  161.4280  207.5720  153.0330 N   0  0  0  0  0  2  0  0  0  0  0  0
  161.5440  205.5990  154.2340 O   0  0  0  0  0  0  0  0  0  0  0  0
  161.3610  206.1390  153.1090 C   0  0  0  0  0  0  0  0  0  0  0  0
  161.3860  208.3560  151.8140 C   0  0  0  0  0  2  0  0  0  0  0  0
  162.0860  209.6810  152.0510 C   0  0  0  0  0  2  0  0  0  0  0  0
  161.2340  210.6180  152.8920 C   0  0  1  0  0  3  0  0  0  0  0  0
  159.9020  210.2120  152.8080 O   0  0  0  0  0  1  0  0  0  0  0  0
  161.6930  210.5900  154.3460 C   0  0  0  0  0  2  0  0  0  0  0  0
  160.5420  210.7720  155.3230 C   0  0  0  0  0  2  0  0  0  0  0  0
  159.4510  213.0320  155.4540 C   0  0  0  0  0  0  0  0  0  0  0  0
  160.5010  212.1390  155.8210 N   0  0  0  0  0  2  0  0  0  0  0  0
  159.5460  214.2500  155.7510 O   0  0  0  0  0  0  0  0  0  0  0  0
  158.2970  212.5400  154.7600 N   0  0  0  0  0  2  0  0  0  0  0  0
  157.1760  213.3630  154.3120 C   0  0  1  0  0  3  0  0  0  0  0  0
  157.2480  213.6320  152.8140 C   0  0  0  0  0  2  0  0  0  0  0  0
  156.0500  214.1960  152.3770 O   0  0  0  0  0  1  0  0  0  0  0  0
  155.8480  212.7160  154.6890 C   0  0  0  0  0  2  0  0  0  0  0  0
  156.0730  211.6520  155.5660 O   0  0  0  0  0  0  0  0  0  0  0  0
  155.4440  210.5600  154.9710 C   0  0  0  0  0  1  0  0  0  0  0  0
  1  6  2  0  0  0  0
  1  4  1  0  0  0  0
  2  5  2  0  0  0  0
  3  5  1  0  0  0  0
  3 32  1  0  0  0  0
  4  3  2  0  0  0  0
  6  2  1  0  0  0  0
  7  6  1  1  0  0  0
  8 10  2  0  0  0  0
  8  7  1  0  0  0  0
  9 11  1  1  0  0  0
  9  8  1  0  0  0  0
  9  7  1  0  0  0  0
 12 13  1  0  0  0  0
 12 11  1  0  0  0  0
 13 15  1  0  0  0  0
 14 15  2  0  0  0  0
 15 16  1  0  0  0  0
 17 16  1  0  0  0  0
 17 18  1  0  0  0  0
 20 18  1  0  0  0  0
 20 19  2  0  0  0  0
 21 24  1  0  0  0  0
 22 20  1  0  0  0  0
 23 22  1  0  0  0  0
 24 27  1  0  0  0  0
 25 23  2  0  0  0  0
 26 21  2  0  0  0  0
 26 25  1  0  0  0  0
 27 22  2  0  0  0  0
 28 26  1  0  0  0  0
 29 28  1  0  0  0  0
 30 32  1  0  0  0  0
 32 31  2  0  0  0  0
 33 34  1  0  0  0  0
 33 30  1  0  0  0  0
 34 35  1  0  0  0  0
 35 36  1  1  0  0  0
 35 37  1  0  0  0  0
 37 38  1  0  0  0  0
 38 40  1  0  0  0  0
 39 41  2  0  0  0  0
 39 40  1  0  0  0  0
 42 39  1  0  0  0  0
 43 44  1  6  0  0  0
 43 46  1  0  0  0  0
 43 42  1  0  0  0  0
 45 44  1  0  0  0  0
 46 47  1  0  0  0  0
 48 47  1  0  0  0  0
M  END
>  <MODEL>
3

>  <REMARK>
 VINA RESULT:      -6.7      2.505      8.709
  Name = 
  21 active torsions:
  status: ('A' for Active; 'I' for Inactive)
    1  A    between atoms: C_3  and  O_22
    2  A    between atoms: C_3  and  C_37
    3  A    between atoms: C_4  and  C_19
    4  A    between atoms: C_4  and  C_31
    5  A    between atoms: C_5  and  C_48
    6  A    between atoms: C_7  and  C_37
    7  A    between atoms: O_8  and  C_31
    8  A    between atoms: O_8  and  C_39
    9  A    between atoms: C_11  and  C_21
   10  A    between atoms: C_11  and  C_34
   11  A    between atoms: N_12  and  C_18
   12  A    between atoms: N_14  and  C_45
   13  A    between atoms: N_15  and  C_29
   14  A    between atoms: O_16  and  C_46
   15  A    between atoms: C_17  and  C_43
   16  A    between atoms: C_18  and  C_21
   17  A    between atoms: C_24  and  C_29
   18  A    between atoms: C_24  and  C_39
   19  A    between atoms: C_25  and  C_41
   20  A    between atoms: C_34  and  C_45
   21  A    between atoms: C_37  and  N_44
                            x       y       z     vdW  Elec       q    Type
                         _______ _______ _______ _____ _____    ______ ____

>  <TORSDO>
F 21

$$$$
=
 OpenBabel11042423063D

 48 50  0  0  1  0  0  0  0  0999 V2000
  160.6410  203.6130  148.2210 C   0  0  0  0  0  3  0  0  0  0  0  0
  160.4050  201.2360  148.5940 C   0  0  0  0  0  3  0  0  0  0  0  0
  161.2040  202.6710  150.3920 C   0  0  0  0  0  0  0  0  0  0  0  0
  161.0830  203.7760  149.5360 C   0  0  0  0  0  3  0  0  0  0  0  0
  160.8480  201.4020  149.9100 C   0  0  0  0  0  3  0  0  0  0  0  0
  160.3200  202.3400  147.7340 C   0  0  0  0  0  0  0  0  0  0  0  0
  159.7570  202.2080  146.3390 C   0  0  2  0  0  3  0  0  0  0  0  0
  160.5820  201.2620  145.4500 C   0  0  0  0  0  0  0  0  0  0  0  0
  160.5430  202.7790  145.2670 C   0  0  2  0  0  3  0  0  0  0  0  0
  160.9830  200.1510  145.1430 O   0  0  0  0  0  0  0  0  0  0  0  0
  161.9220  203.3380  145.6100 C   0  0  0  0  0  2  0  0  0  0  0  0
  161.9830  204.8120  145.2510 C   0  0  0  0  0  2  0  0  0  0  0  0
  162.5930  205.5550  146.3000 O   0  0  0  0  0  0  0  0  0  0  0  0
  160.6850  206.7540  146.8300 O   0  0  0  0  0  0  0  0  0  0  0  0
  161.9100  206.5280  147.0340 C   0  0  0  0  0  0  0  0  0  0  0  0
  162.6540  207.3370  148.0360 C   0  0  0  0  0  2  0  0  0  0  0  0
  161.9180  208.6400  148.2800 C   0  0  0  0  0  2  0  0  0  0  0  0
  161.9750  209.0030  149.6900 N   0  0  0  0  0  2  0  0  0  0  0  0
  162.3540  210.5080  151.4110 O   0  0  0  0  0  0  0  0  0  0  0  0
  162.1110  210.3420  150.1860 C   0  0  0  0  0  0  0  0  0  0  0  0
  160.7280  213.3860  147.2030 C   0  0  0  0  0  3  0  0  0  0  0  0
  162.0000  211.5240  149.3060 C   0  0  0  0  0  0  0  0  0  0  0  0
  163.1110  211.8440  148.3810 C   0  0  0  0  0  3  0  0  0  0  0  0
  160.7020  213.5660  148.6830 C   0  0  0  0  0  2  0  0  0  0  0  0
  163.0180  212.4470  147.1880 C   0  0  0  0  0  3  0  0  0  0  0  0
  161.7800  212.9250  146.5250 C   0  0  0  0  0  0  0  0  0  0  0  0
  160.8980  212.2740  149.4030 C   0  0  0  0  0  3  0  0  0  0  0  0
  161.6920  212.9270  145.1310 O   0  0  0  0  0  0  0  0  0  0  0  0
  162.8160  213.1510  144.2900 C   0  0  0  0  0  1  0  0  0  0  0  0
  161.4030  203.9970  152.5860 N   0  0  0  0  0  2  0  0  0  0  0  0
  162.2760  201.8690  152.3400 O   0  0  0  0  0  0  0  0  0  0  0  0
  161.6450  202.8190  151.8010 C   0  0  0  0  0  0  0  0  0  0  0  0
  160.8260  205.2330  152.0970 C   0  0  0  0  0  2  0  0  0  0  0  0
  161.8870  206.3170  152.1120 C   0  0  0  0  0  2  0  0  0  0  0  0
  161.5280  207.4330  153.0800 C   0  0  1  0  0  3  0  0  0  0  0  0
  160.4490  208.1490  152.5630 O   0  0  0  0  0  1  0  0  0  0  0  0
  161.1610  206.8540  154.4420 C   0  0  0  0  0  2  0  0  0  0  0  0
  160.3790  207.8360  155.3000 C   0  0  0  0  0  2  0  0  0  0  0  0
  160.9530  210.2720  155.5330 C   0  0  0  0  0  0  0  0  0  0  0  0
  161.2460  208.8990  155.7870 N   0  0  0  0  0  2  0  0  0  0  0  0
  161.8130  211.1460  155.8070 O   0  0  0  0  0  0  0  0  0  0  0  0
  159.6840  210.6470  154.9800 N   0  0  0  0  0  2  0  0  0  0  0  0
  159.2850  212.0140  154.6560 C   0  0  1  0  0  3  0  0  0  0  0  0
  158.8150  212.1270  153.2110 C   0  0  0  0  0  2  0  0  0  0  0  0
  159.5990  213.0570  152.5300 O   0  0  0  0  0  1  0  0  0  0  0  0
  158.2100  212.5050  155.6200 C   0  0  0  0  0  2  0  0  0  0  0  0
  158.3380  213.8830  155.8080 O   0  0  0  0  0  0  0  0  0  0  0  0
  159.6560  214.0670  156.2220 C   0  0  0  0  0  1  0  0  0  0  0  0
  1  4  1  0  0  0  0
  2  5  2  0  0  0  0
  3 32  1  0  0  0  0
  4  3  2  0  0  0  0
  5  3  1  0  0  0  0
  6  1  2  0  0  0  0
  6  2  1  0  0  0  0
  7  6  1  1  0  0  0
  8  7  1  0  0  0  0
  9  8  1  0  0  0  0
  9 11  1  1  0  0  0
  9  7  1  0  0  0  0
 10  8  2  0  0  0  0
 12 11  1  0  0  0  0
 12 13  1  0  0  0  0
 13 15  1  0  0  0  0
 14 15  2  0  0  0  0
 15 16  1  0  0  0  0
 16 17  1  0  0  0  0
 17 18  1  0  0  0  0
 18 20  1  0  0  0  0
 20 19  2  0  0  0  0
 21 24  1  0  0  0  0
 22 27  2  0  0  0  0
 22 20  1  0  0  0  0
 23 22  1  0  0  0  0
 24 27  1  0  0  0  0
 25 23  2  0  0  0  0
 26 25  1  0  0  0  0
 26 21  2  0  0  0  0
 28 26  1  0  0  0  0
 29 28  1  0  0  0  0
 32 31  2  0  0  0  0
 32 30  1  0  0  0  0
 33 34  1  0  0  0  0
 33 30  1  0  0  0  0
 34 35  1  0  0  0  0
 35 36  1  6  0  0  0
 35 37  1  0  0  0  0
 37 38  1  0  0  0  0
 38 40  1  0  0  0  0
 39 40  1  0  0  0  0
 39 41  2  0  0  0  0
 42 39  1  0  0  0  0
 43 44  1  6  0  0  0
 43 42  1  0  0  0  0
 43 46  1  0  0  0  0
 45 44  1  0  0  0  0
 46 47  1  0  0  0  0
 47 48  1  0  0  0  0
M  END
>  <MODEL>
4

>  <REMARK>
 VINA RESULT:      -6.6      2.274      8.853
  Name = 
  21 active torsions:
  status: ('A' for Active; 'I' for Inactive)
    1  A    between atoms: C_3  and  O_22
    2  A    between atoms: C_3  and  C_37
    3  A    between atoms: C_4  and  C_19
    4  A    between atoms: C_4  and  C_31
    5  A    between atoms: C_5  and  C_48
    6  A    between atoms: C_7  and  C_37
    7  A    between atoms: O_8  and  C_31
    8  A    between atoms: O_8  and  C_39
    9  A    between atoms: C_11  and  C_21
   10  A    between atoms: C_11  and  C_34
   11  A    between atoms: N_12  and  C_18
   12  A    between atoms: N_14  and  C_45
   13  A    between atoms: N_15  and  C_29
   14  A    between atoms: O_16  and  C_46
   15  A    between atoms: C_17  and  C_43
   16  A    between atoms: C_18  and  C_21
   17  A    between atoms: C_24  and  C_29
   18  A    between atoms: C_24  and  C_39
   19  A    between atoms: C_25  and  C_41
   20  A    between atoms: C_34  and  C_45
   21  A    between atoms: C_37  and  N_44
                            x       y       z     vdW  Elec       q    Type
                         _______ _______ _______ _____ _____    ______ ____

>  <TORSDO>
F 21

$$$$
=
 OpenBabel11042423063D

 48 50  0  0  1  0  0  0  0  0999 V2000
  160.5030  204.3230  149.4340 C   0  0  0  0  0  3  0  0  0  0  0  0
  160.9260  202.5240  150.9930 C   0  0  0  0  0  3  0  0  0  0  0  0
  161.2190  204.8360  151.7010 C   0  0  0  0  0  0  0  0  0  0  0  0
  160.8290  205.2560  150.4210 C   0  0  0  0  0  3  0  0  0  0  0  0
  161.2510  203.4600  151.9800 C   0  0  0  0  0  3  0  0  0  0  0  0
  160.5710  202.9510  149.7050 C   0  0  0  0  0  0  0  0  0  0  0  0
  160.1240  201.9700  148.6480 C   0  0  2  0  0  3  0  0  0  0  0  0
  161.2760  201.0990  148.1180 C   0  0  0  0  0  0  0  0  0  0  0  0
  160.6040  202.2050  147.3030 C   0  0  2  0  0  3  0  0  0  0  0  0
  162.1080  200.2170  148.2530 O   0  0  0  0  0  0  0  0  0  0  0  0
  161.6180  203.3260  147.0910 C   0  0  0  0  0  2  0  0  0  0  0  0
  162.0680  203.3450  145.6410 C   0  0  0  0  0  2  0  0  0  0  0  0
  161.1460  204.0760  144.8420 O   0  0  0  0  0  0  0  0  0  0  0  0
  162.0820  206.1930  144.8590 O   0  0  0  0  0  0  0  0  0  0  0  0
  161.4720  205.2870  144.2260 C   0  0  0  0  0  0  0  0  0  0  0  0
  161.0520  205.5230  142.8190 C   0  0  0  0  0  2  0  0  0  0  0  0
  161.9730  206.5440  142.1810 C   0  0  0  0  0  2  0  0  0  0  0  0
  162.3570  206.1190  140.8410 N   0  0  0  0  0  2  0  0  0  0  0  0
  162.3410  206.3320  138.5330 O   0  0  0  0  0  0  0  0  0  0  0  0
  162.1550  206.8890  139.6490 C   0  0  0  0  0  0  0  0  0  0  0  0
  160.7170  210.9910  138.5580 C   0  0  0  0  0  3  0  0  0  0  0  0
  161.7160  208.2990  139.6850 C   0  0  0  0  0  0  0  0  0  0  0  0
  162.5840  209.3110  140.3300 C   0  0  0  0  0  3  0  0  0  0  0  0
  159.8920  209.9460  139.2290 C   0  0  0  0  0  2  0  0  0  0  0  0
  162.6860  210.6080  140.0100 C   0  0  0  0  0  3  0  0  0  0  0  0
  161.9540  211.3190  138.9330 C   0  0  0  0  0  0  0  0  0  0  0  0
  160.5280  208.5980  139.1480 C   0  0  0  0  0  3  0  0  0  0  0  0
  162.5520  212.4010  138.2820 O   0  0  0  0  0  0  0  0  0  0  0  0
  162.7730  213.6540  138.9160 C   0  0  0  0  0  1  0  0  0  0  0  0
  162.0280  207.1330  152.5240 N   0  0  0  0  0  2  0  0  0  0  0  0
  161.4000  205.4470  153.9780 O   0  0  0  0  0  0  0  0  0  0  0  0
  161.5430  205.8050  152.7760 C   0  0  0  0  0  0  0  0  0  0  0  0
  162.3880  207.6680  151.2260 C   0  0  0  0  0  2  0  0  0  0  0  0
  161.3360  208.6700  150.7920 C   0  0  0  0  0  2  0  0  0  0  0  0
  161.8650  210.0940  150.8530 C   0  0  1  0  0  3  0  0  0  0  0  0
  162.8670  210.1610  151.8210 O   0  0  0  0  0  1  0  0  0  0  0  0
  162.4250  210.5080  149.4970 C   0  0  0  0  0  2  0  0  0  0  0  0
  161.6980  211.7090  148.9100 C   0  0  0  0  0  2  0  0  0  0  0  0
  162.0300  212.8460  146.6940 C   0  0  0  0  0  0  0  0  0  0  0  0
  162.5420  212.4030  147.9490 N   0  0  0  0  0  2  0  0  0  0  0  0
  162.8260  213.2740  145.8200 O   0  0  0  0  0  0  0  0  0  0  0  0
  160.6200  212.8110  146.4390 N   0  0  0  0  0  2  0  0  0  0  0  0
  159.9860  213.2140  145.1860 C   0  0  1  0  0  3  0  0  0  0  0  0
  160.0430  212.0970  144.1510 C   0  0  0  0  0  2  0  0  0  0  0  0
  161.1550  212.2710  143.3290 O   0  0  0  0  0  1  0  0  0  0  0  0
  158.5490  213.6610  145.4280 C   0  0  0  0  0  2  0  0  0  0  0  0
  157.7310  212.5440  145.6120 O   0  0  0  0  0  0  0  0  0  0  0  0
  157.2240  212.6790  146.9030 C   0  0  0  0  0  1  0  0  0  0  0  0
  1  6  2  0  0  0  0
  1  4  1  0  0  0  0
  2  5  2  0  0  0  0
  3  5  1  0  0  0  0
  3 32  1  0  0  0  0
  4  3  2  0  0  0  0
  6  2  1  0  0  0  0
  7  6  1  1  0  0  0
  8 10  2  0  0  0  0
  8  7  1  0  0  0  0
  9 11  1  1  0  0  0
  9  8  1  0  0  0  0
  9  7  1  0  0  0  0
 12 11  1  0  0  0  0
 13 12  1  0  0  0  0
 15 13  1  0  0  0  0
 15 14  2  0  0  0  0
 16 15  1  0  0  0  0
 17 16  1  0  0  0  0
 18 17  1  0  0  0  0
 19 20  2  0  0  0  0
 20 22  1  0  0  0  0
 20 18  1  0  0  0  0
 21 26  2  0  0  0  0
 21 24  1  0  0  0  0
 22 23  1  0  0  0  0
 25 23  2  0  0  0  0
 26 25  1  0  0  0  0
 27 24  1  0  0  0  0
 27 22  2  0  0  0  0
 28 29  1  0  0  0  0
 28 26  1  0  0  0  0
 30 32  1  0  0  0  0
 32 31  2  0  0  0  0
 33 30  1  0  0  0  0
 34 35  1  0  0  0  0
 34 33  1  0  0  0  0
 35 36  1  1  0  0  0
 37 35  1  0  0  0  0
 38 37  1  0  0  0  0
 39 40  1  0  0  0  0
 40 38  1  0  0  0  0
 41 39  2  0  0  0  0
 42 39  1  0  0  0  0
 43 44  1  6  0  0  0
 43 46  1  0  0  0  0
 43 42  1  0  0  0  0
 45 44  1  0  0  0  0
 46 47  1  0  0  0  0
 47 48  1  0  0  0  0
M  END
>  <MODEL>
5

>  <REMARK>
 VINA RESULT:      -6.3      3.080      8.800
  Name = 
  21 active torsions:
  status: ('A' for Active; 'I' for Inactive)
    1  A    between atoms: C_3  and  O_22
    2  A    between atoms: C_3  and  C_37
    3  A    between atoms: C_4  and  C_19
    4  A    between atoms: C_4  and  C_31
    5  A    between atoms: C_5  and  C_48
    6  A    between atoms: C_7  and  C_37
    7  A    between atoms: O_8  and  C_31
    8  A    between atoms: O_8  and  C_39
    9  A    between atoms: C_11  and  C_21
   10  A    between atoms: C_11  and  C_34
   11  A    between atoms: N_12  and  C_18
   12  A    between atoms: N_14  and  C_45
   13  A    between atoms: N_15  and  C_29
   14  A    between atoms: O_16  and  C_46
   15  A    between atoms: C_17  and  C_43
   16  A    between atoms: C_18  and  C_21
   17  A    between atoms: C_24  and  C_29
   18  A    between atoms: C_24  and  C_39
   19  A    between atoms: C_25  and  C_41
   20  A    between atoms: C_34  and  C_45
   21  A    between atoms: C_37  and  N_44
                            x       y       z     vdW  Elec       q    Type
                         _______ _______ _______ _____ _____    ______ ____

>  <TORSDO>
F 21

$$$$
=
 OpenBabel11042423063D

 48 50  0  0  1  0  0  0  0  0999 V2000
  160.8790  202.1930  148.3890 C   0  0  0  0  0  3  0  0  0  0  0  0
  161.4430  204.5410  148.5170 C   0  0  0  0  0  3  0  0  0  0  0  0
  160.9180  203.3070  150.5500 C   0  0  0  0  0  0  0  0  0  0  0  0
  160.7270  202.1530  149.7770 C   0  0  0  0  0  3  0  0  0  0  0  0
  161.2900  204.4980  149.9060 C   0  0  0  0  0  3  0  0  0  0  0  0
  161.2160  203.3900  147.7460 C   0  0  0  0  0  0  0  0  0  0  0  0
  161.4640  203.3810  146.2570 C   0  0  2  0  0  3  0  0  0  0  0  0
  162.5140  204.4170  145.8210 C   0  0  0  0  0  0  0  0  0  0  0  0
  161.0200  204.5450  145.5200 C   0  0  2  0  0  3  0  0  0  0  0  0
  163.6600  204.8330  145.7750 O   0  0  0  0  0  0  0  0  0  0  0  0
  160.4710  205.7280  146.3140 C   0  0  0  0  0  2  0  0  0  0  0  0
  161.4650  206.8750  146.2800 C   0  0  0  0  0  2  0  0  0  0  0  0
  161.1880  207.8060  147.3190 O   0  0  0  0  0  0  0  0  0  0  0  0
  163.1240  207.3910  148.5170 O   0  0  0  0  0  0  0  0  0  0  0  0
  162.1070  208.1120  148.3260 C   0  0  0  0  0  0  0  0  0  0  0  0
  161.8510  209.2800  149.2120 C   0  0  0  0  0  2  0  0  0  0  0  0
  161.8970  210.5550  148.3920 C   0  0  0  0  0  2  0  0  0  0  0  0
  161.6280  211.7130  149.2330 N   0  0  0  0  0  2  0  0  0  0  0  0
  161.1230  213.9540  149.5460 O   0  0  0  0  0  0  0  0  0  0  0  0
  161.1200  212.9680  148.7610 C   0  0  0  0  0  0  0  0  0  0  0  0
  159.4090  212.3070  144.6720 C   0  0  0  0  0  3  0  0  0  0  0  0
  160.6170  213.1460  147.3830 C   0  0  0  0  0  0  0  0  0  0  0  0
  161.4820  213.8060  146.3770 C   0  0  0  0  0  3  0  0  0  0  0  0
  158.6880  212.9510  145.8070 C   0  0  0  0  0  2  0  0  0  0  0  0
  161.4970  213.5810  145.0560 C   0  0  0  0  0  3  0  0  0  0  0  0
  160.6540  212.6180  144.3060 C   0  0  0  0  0  0  0  0  0  0  0  0
  159.3800  212.7200  147.1080 C   0  0  0  0  0  3  0  0  0  0  0  0
  161.1490  212.0130  143.1480 O   0  0  0  0  0  0  0  0  0  0  0  0
  162.3250  212.4610  142.4890 C   0  0  0  0  0  1  0  0  0  0  0  0
  160.8520  204.4690  152.8420 N   0  0  0  0  0  2  0  0  0  0  0  0
  160.6330  202.1780  152.6080 O   0  0  0  0  0  0  0  0  0  0  0  0
  160.7910  203.2870  152.0280 C   0  0  0  0  0  0  0  0  0  0  0  0
  161.1690  205.8030  152.3720 C   0  0  0  0  0  2  0  0  0  0  0  0
  161.8740  206.5650  153.4780 C   0  0  0  0  0  2  0  0  0  0  0  0
  160.9020  207.4280  154.2670 C   0  0  1  0  0  3  0  0  0  0  0  0
  159.8410  206.6320  154.6970 O   0  0  0  0  0  1  0  0  0  0  0  0
  161.6030  208.0510  155.4680 C   0  0  0  0  0  2  0  0  0  0  0  0
  160.6240  208.6470  156.4690 C   0  0  0  0  0  2  0  0  0  0  0  0
  160.3570  211.0830  155.9130 C   0  0  0  0  0  0  0  0  0  0  0  0
  160.9260  210.0480  156.7140 N   0  0  0  0  0  2  0  0  0  0  0  0
  160.7810  212.2600  156.0350 O   0  0  0  0  0  0  0  0  0  0  0  0
  159.3050  210.7800  154.9870 N   0  0  0  0  0  2  0  0  0  0  0  0
  158.6660  211.7500  154.1000 C   0  0  1  0  0  3  0  0  0  0  0  0
  158.8570  211.3720  152.6370 C   0  0  0  0  0  2  0  0  0  0  0  0
  158.6740  212.4950  151.8310 O   0  0  0  0  0  1  0  0  0  0  0  0
  157.1880  211.8960  154.4380 C   0  0  0  0  0  2  0  0  0  0  0  0
  157.0320  212.7890  155.5010 O   0  0  0  0  0  0  0  0  0  0  0  0
  155.7040  213.2040  155.4280 C   0  0  0  0  0  1  0  0  0  0  0  0
  1  4  1  0  0  0  0
  2  5  2  0  0  0  0
  3 32  1  0  0  0  0
  4  3  2  0  0  0  0
  5  3  1  0  0  0  0
  6  1  2  0  0  0  0
  6  2  1  0  0  0  0
  7  6  1  1  0  0  0
  8  7  1  0  0  0  0
  9  8  1  0  0  0  0
  9  7  1  0  0  0  0
  9 11  1  1  0  0  0
 10  8  2  0  0  0  0
 12 11  1  0  0  0  0
 12 13  1  0  0  0  0
 13 15  1  0  0  0  0
 15 14  2  0  0  0  0
 15 16  1  0  0  0  0
 17 16  1  0  0  0  0
 17 18  1  0  0  0  0
 20 18  1  0  0  0  0
 20 19  2  0  0  0  0
 21 24  1  0  0  0  0
 22 20  1  0  0  0  0
 23 22  1  0  0  0  0
 24 27  1  0  0  0  0
 25 23  2  0  0  0  0
 26 21  2  0  0  0  0
 26 25  1  0  0  0  0
 27 22  2  0  0  0  0
 28 26  1  0  0  0  0
 29 28  1  0  0  0  0
 32 31  2  0  0  0  0
 32 30  1  0  0  0  0
 33 30  1  0  0  0  0
 33 34  1  0  0  0  0
 34 35  1  0  0  0  0
 35 36  1  1  0  0  0
 35 37  1  0  0  0  0
 37 38  1  0  0  0  0
 38 40  1  0  0  0  0
 39 41  2  0  0  0  0
 39 40  1  0  0  0  0
 42 39  1  0  0  0  0
 43 44  1  6  0  0  0
 43 46  1  0  0  0  0
 43 42  1  0  0  0  0
 45 44  1  0  0  0  0
 46 47  1  0  0  0  0
 48 47  1  0  0  0  0
M  END
>  <MODEL>
6

>  <REMARK>
 VINA RESULT:      -6.2      2.325      8.202
  Name = 
  21 active torsions:
  status: ('A' for Active; 'I' for Inactive)
    1  A    between atoms: C_3  and  O_22
    2  A    between atoms: C_3  and  C_37
    3  A    between atoms: C_4  and  C_19
    4  A    between atoms: C_4  and  C_31
    5  A    between atoms: C_5  and  C_48
    6  A    between atoms: C_7  and  C_37
    7  A    between atoms: O_8  and  C_31
    8  A    between atoms: O_8  and  C_39
    9  A    between atoms: C_11  and  C_21
   10  A    between atoms: C_11  and  C_34
   11  A    between atoms: N_12  and  C_18
   12  A    between atoms: N_14  and  C_45
   13  A    between atoms: N_15  and  C_29
   14  A    between atoms: O_16  and  C_46
   15  A    between atoms: C_17  and  C_43
   16  A    between atoms: C_18  and  C_21
   17  A    between atoms: C_24  and  C_29
   18  A    between atoms: C_24  and  C_39
   19  A    between atoms: C_25  and  C_41
   20  A    between atoms: C_34  and  C_45
   21  A    between atoms: C_37  and  N_44
                            x       y       z     vdW  Elec       q    Type
                         _______ _______ _______ _____ _____    ______ ____

>  <TORSDO>
F 21

$$$$
=
 OpenBabel11042423063D

 48 50  0  0  1  0  0  0  0  0999 V2000
  160.0280  212.9190  152.6910 C   0  0  0  0  0  3  0  0  0  0  0  0
  157.9460  211.6970  152.5580 C   0  0  0  0  0  3  0  0  0  0  0  0
  159.8070  210.7870  153.8390 C   0  0  0  0  0  0  0  0  0  0  0  0
  160.5670  211.9160  153.5000 C   0  0  0  0  0  3  0  0  0  0  0  0
  158.4870  210.6940  153.3690 C   0  0  0  0  0  3  0  0  0  0  0  0
  158.7240  212.8070  152.1950 C   0  0  0  0  0  0  0  0  0  0  0  0
  158.1390  213.9490  151.4000 C   0  0  2  0  0  3  0  0  0  0  0  0
  157.6930  213.5270  149.9890 C   0  0  0  0  0  0  0  0  0  0  0  0
  158.9110  214.4110  150.2660 C   0  0  2  0  0  3  0  0  0  0  0  0
  156.9520  212.9260  149.2310 O   0  0  0  0  0  0  0  0  0  0  0  0
  160.1660  213.6270  149.8890 C   0  0  0  0  0  2  0  0  0  0  0  0
  161.0230  214.4530  148.9470 C   0  0  0  0  0  2  0  0  0  0  0  0
  160.9530  213.9340  147.6240 O   0  0  0  0  0  0  0  0  0  0  0  0
  162.2750  212.0370  147.5230 O   0  0  0  0  0  0  0  0  0  0  0  0
  161.9750  213.1700  147.0550 C   0  0  0  0  0  0  0  0  0  0  0  0
  162.7470  213.7260  145.9120 C   0  0  0  0  0  2  0  0  0  0  0  0
  161.9020  213.6650  144.6550 C   0  0  0  0  0  2  0  0  0  0  0  0
  160.5350  213.2750  144.9760 N   0  0  0  0  0  2  0  0  0  0  0  0
  158.3380  212.8200  144.3970 O   0  0  0  0  0  0  0  0  0  0  0  0
  159.5310  212.9390  144.0100 C   0  0  0  0  0  0  0  0  0  0  0  0
  159.2910  212.1400  139.6060 C   0  0  0  0  0  3  0  0  0  0  0  0
  159.8460  212.7520  142.5780 C   0  0  0  0  0  0  0  0  0  0  0  0
  160.9230  211.8120  142.1910 C   0  0  0  0  0  3  0  0  0  0  0  0
  159.4450  213.4880  140.2240 C   0  0  0  0  0  2  0  0  0  0  0  0
  160.9970  211.0930  141.0630 C   0  0  0  0  0  3  0  0  0  0  0  0
  160.0150  211.0740  139.9510 C   0  0  0  0  0  0  0  0  0  0  0  0
  159.1510  213.4670  141.6870 C   0  0  0  0  0  3  0  0  0  0  0  0
  159.8370  209.9110  139.1980 O   0  0  0  0  0  0  0  0  0  0  0  0
  159.1760  209.9030  137.9400 C   0  0  0  0  0  1  0  0  0  0  0  0
  160.8440  208.4670  154.2280 N   0  0  0  0  0  2  0  0  0  0  0  0
  160.3510  209.9110  155.9670 O   0  0  0  0  0  0  0  0  0  0  0  0
  160.3430  209.7200  154.7190 C   0  0  0  0  0  0  0  0  0  0  0  0
  160.7830  208.0140  152.8530 C   0  0  0  0  0  2  0  0  0  0  0  0
  161.7190  208.8590  152.0100 C   0  0  0  0  0  2  0  0  0  0  0  0
  162.3360  208.0490  150.8810 C   0  0  1  0  0  3  0  0  0  0  0  0
  162.9020  206.8920  151.4140 O   0  0  0  0  0  1  0  0  0  0  0  0
  161.2720  207.6800  149.8530 C   0  0  0  0  0  2  0  0  0  0  0  0
  161.2170  206.1830  149.5850 C   0  0  0  0  0  2  0  0  0  0  0  0
  161.5870  204.5590  147.7040 C   0  0  0  0  0  0  0  0  0  0  0  0
  161.5180  205.8980  148.1900 N   0  0  0  0  0  2  0  0  0  0  0  0
  162.0270  204.3460  146.5450 O   0  0  0  0  0  0  0  0  0  0  0  0
  161.1480  203.4700  148.5270 N   0  0  0  0  0  2  0  0  0  0  0  0
  161.1950  202.0610  148.1450 C   0  0  1  0  0  3  0  0  0  0  0  0
  161.1090  201.1530  149.3650 C   0  0  0  0  0  2  0  0  0  0  0  0
  159.8020  201.1350  149.8500 O   0  0  0  0  0  1  0  0  0  0  0  0
  160.0930  201.7360  147.1440 C   0  0  0  0  0  2  0  0  0  0  0  0
  160.6240  201.0110  146.0750 O   0  0  0  0  0  0  0  0  0  0  0  0
  160.0740  201.5970  144.9360 C   0  0  0  0  0  1  0  0  0  0  0  0
  1  4  1  0  0  0  0
  2  5  2  0  0  0  0
  3 32  1  0  0  0  0
  4  3  2  0  0  0  0
  5  3  1  0  0  0  0
  6  2  1  0  0  0  0
  6  1  2  0  0  0  0
  7  6  1  1  0  0  0
  8  9  1  0  0  0  0
  8  7  1  0  0  0  0
  9 11  1  1  0  0  0
  9  7  1  0  0  0  0
 10  8  2  0  0  0  0
 12 11  1  0  0  0  0
 13 12  1  0  0  0  0
 15 14  2  0  0  0  0
 15 13  1  0  0  0  0
 16 15  1  0  0  0  0
 17 18  1  0  0  0  0
 17 16  1  0  0  0  0
 20 19  2  0  0  0  0
 20 18  1  0  0  0  0
 21 26  2  0  0  0  0
 21 24  1  0  0  0  0
 22 20  1  0  0  0  0
 23 22  1  0  0  0  0
 24 27  1  0  0  0  0
 25 23  2  0  0  0  0
 26 25  1  0  0  0  0
 27 22  2  0  0  0  0
 28 26  1  0  0  0  0
 29 28  1  0  0  0  0
 30 32  1  0  0  0  0
 32 31  2  0  0  0  0
 33 30  1  0  0  0  0
 34 33  1  0  0  0  0
 35 36  1  1  0  0  0
 35 34  1  0  0  0  0
 37 35  1  0  0  0  0
 38 37  1  0  0  0  0
 39 40  1  0  0  0  0
 39 42  1  0  0  0  0
 40 38  1  0  0  0  0
 41 39  2  0  0  0  0
 43 46  1  6  0  0  0
 43 42  1  0  0  0  0
 43 44  1  0  0  0  0
 44 45  1  0  0  0  0
 47 46  1  0  0  0  0
 48 47  1  0  0  0  0
M  END
>  <MODEL>
7

>  <REMARK>
 VINA RESULT:      -5.9      2.066      4.975
  Name = 
  21 active torsions:
  status: ('A' for Active; 'I' for Inactive)
    1  A    between atoms: C_3  and  O_22
    2  A    between atoms: C_3  and  C_37
    3  A    between atoms: C_4  and  C_19
    4  A    between atoms: C_4  and  C_31
    5  A    between atoms: C_5  and  C_48
    6  A    between atoms: C_7  and  C_37
    7  A    between atoms: O_8  and  C_31
    8  A    between atoms: O_8  and  C_39
    9  A    between atoms: C_11  and  C_21
   10  A    between atoms: C_11  and  C_34
   11  A    between atoms: N_12  and  C_18
   12  A    between atoms: N_14  and  C_45
   13  A    between atoms: N_15  and  C_29
   14  A    between atoms: O_16  and  C_46
   15  A    between atoms: C_17  and  C_43
   16  A    between atoms: C_18  and  C_21
   17  A    between atoms: C_24  and  C_29
   18  A    between atoms: C_24  and  C_39
   19  A    between atoms: C_25  and  C_41
   20  A    between atoms: C_34  and  C_45
   21  A    between atoms: C_37  and  N_44
                            x       y       z     vdW  Elec       q    Type
                         _______ _______ _______ _____ _____    ______ ____

>  <TORSDO>
F 21

$$$$
=
 OpenBabel11042423063D

 48 50  0  0  1  0  0  0  0  0999 V2000
  160.9410  206.9880  153.9380 C   0  0  0  0  0  3  0  0  0  0  0  0
  160.6510  208.4400  152.0270 C   0  0  0  0  0  3  0  0  0  0  0  0
  161.1390  209.3970  154.2130 C   0  0  0  0  0  0  0  0  0  0  0  0
  161.1760  208.1010  154.7490 C   0  0  0  0  0  3  0  0  0  0  0  0
  160.8860  209.5530  152.8400 C   0  0  0  0  0  3  0  0  0  0  0  0
  160.6550  207.1500  152.5770 C   0  0  0  0  0  0  0  0  0  0  0  0
  160.4980  205.9250  151.7090 C   0  0  2  0  0  3  0  0  0  0  0  0
  161.1920  204.6840  152.2960 C   0  0  0  0  0  0  0  0  0  0  0  0
  161.6950  205.4330  151.0610 C   0  0  2  0  0  3  0  0  0  0  0  0
  161.2860  203.7970  153.1280 O   0  0  0  0  0  0  0  0  0  0  0  0
  163.0230  206.0980  151.4130 C   0  0  0  0  0  2  0  0  0  0  0  0
  163.0190  207.5390  150.9350 C   0  0  0  0  0  2  0  0  0  0  0  0
  162.9990  207.5940  149.5140 O   0  0  0  0  0  0  0  0  0  0  0  0
  162.3050  209.6320  148.6660 O   0  0  0  0  0  0  0  0  0  0  0  0
  162.1040  208.3940  148.7990 C   0  0  0  0  0  0  0  0  0  0  0  0
  160.8750  207.7780  148.2300 C   0  0  0  0  0  2  0  0  0  0  0  0
  161.2110  206.4110  147.6660 C   0  0  0  0  0  2  0  0  0  0  0  0
  161.0540  206.4030  146.2180 N   0  0  0  0  0  2  0  0  0  0  0  0
  161.2200  205.3940  144.1380 O   0  0  0  0  0  0  0  0  0  0  0  0
  161.1730  205.2400  145.3880 C   0  0  0  0  0  0  0  0  0  0  0  0
  160.2420  201.1510  146.9690 C   0  0  0  0  0  3  0  0  0  0  0  0
  161.2650  203.8760  145.9500 C   0  0  0  0  0  0  0  0  0  0  0  0
  161.9890  203.6670  147.2250 C   0  0  0  0  0  3  0  0  0  0  0  0
  160.8310  201.4360  145.6300 C   0  0  0  0  0  2  0  0  0  0  0  0
  161.7370  202.7310  148.1510 C   0  0  0  0  0  3  0  0  0  0  0  0
  160.6740  201.6980  148.1070 C   0  0  0  0  0  0  0  0  0  0  0  0
  160.7050  202.8770  145.2610 C   0  0  0  0  0  3  0  0  0  0  0  0
  160.0980  201.2400  149.2940 O   0  0  0  0  0  0  0  0  0  0  0  0
  160.5620  201.6370  150.5770 C   0  0  0  0  0  1  0  0  0  0  0  0
  160.4890  211.6860  155.1850 N   0  0  0  0  0  2  0  0  0  0  0  0
  162.5150  210.6720  155.6510 O   0  0  0  0  0  0  0  0  0  0  0  0
  161.4120  210.5950  155.0440 C   0  0  0  0  0  0  0  0  0  0  0  0
  159.2450  211.8390  154.4560 C   0  0  0  0  0  2  0  0  0  0  0  0
  159.0080  213.3120  154.1810 C   0  0  0  0  0  2  0  0  0  0  0  0
  158.9970  213.6040  152.6890 C   0  0  1  0  0  3  0  0  0  0  0  0
  159.9030  212.7540  152.0570 O   0  0  0  0  0  1  0  0  0  0  0  0
  157.5990  213.3900  152.1190 C   0  0  0  0  0  2  0  0  0  0  0  0
  157.3300  214.2570  150.8990 C   0  0  0  0  0  2  0  0  0  0  0  0
  157.9110  213.3180  148.6420 C   0  0  0  0  0  0  0  0  0  0  0  0
  157.0110  213.4340  149.7420 N   0  0  0  0  0  2  0  0  0  0  0  0
  157.5260  212.7510  147.5870 O   0  0  0  0  0  0  0  0  0  0  0  0
  159.2440  213.8340  148.7440 N   0  0  0  0  0  2  0  0  0  0  0  0
  160.2420  213.7950  147.6770 C   0  0  1  0  0  3  0  0  0  0  0  0
  161.6370  214.0950  148.2110 C   0  0  0  0  0  2  0  0  0  0  0  0
  162.4160  212.9400  148.1730 O   0  0  0  0  0  1  0  0  0  0  0  0
  160.2090  212.4510  146.9590 C   0  0  0  0  0  2  0  0  0  0  0  0
  159.8810  212.6410  145.6140 O   0  0  0  0  0  0  0  0  0  0  0  0
  161.1060  212.6860  144.9510 C   0  0  0  0  0  1  0  0  0  0  0  0
  1  4  1  0  0  0  0
  2  6  1  0  0  0  0
  2  5  2  0  0  0  0
  3  4  2  0  0  0  0
  3 32  1  0  0  0  0
  5  3  1  0  0  0  0
  6  1  2  0  0  0  0
  7  8  1  0  0  0  0
  7  6  1  1  0  0  0
  8 10  2  0  0  0  0
  9 11  1  1  0  0  0
  9  7  1  0  0  0  0
  9  8  1  0  0  0  0
 12 11  1  0  0  0  0
 13 12  1  0  0  0  0
 14 15  2  0  0  0  0
 15 13  1  0  0  0  0
 16 15  1  0  0  0  0
 17 16  1  0  0  0  0
 18 17  1  0  0  0  0
 19 20  2  0  0  0  0
 20 22  1  0  0  0  0
 20 18  1  0  0  0  0
 21 26  2  0  0  0  0
 22 23  1  0  0  0  0
 23 25  2  0  0  0  0
 24 21  1  0  0  0  0
 26 25  1  0  0  0  0
 26 28  1  0  0  0  0
 27 24  1  0  0  0  0
 27 22  2  0  0  0  0
 28 29  1  0  0  0  0
 32 30  1  0  0  0  0
 32 31  2  0  0  0  0
 33 30  1  0  0  0  0
 34 33  1  0  0  0  0
 35 36  1  6  0  0  0
 35 34  1  0  0  0  0
 37 35  1  0  0  0  0
 38 37  1  0  0  0  0
 39 42  1  0  0  0  0
 39 40  1  0  0  0  0
 40 38  1  0  0  0  0
 41 39  2  0  0  0  0
 43 46  1  1  0  0  0
 43 44  1  0  0  0  0
 43 42  1  0  0  0  0
 45 44  1  0  0  0  0
 47 46  1  0  0  0  0
 48 47  1  0  0  0  0
M  END
>  <MODEL>
8

>  <REMARK>
 VINA RESULT:      -5.9      2.073      8.874
  Name = 
  21 active torsions:
  status: ('A' for Active; 'I' for Inactive)
    1  A    between atoms: C_3  and  O_22
    2  A    between atoms: C_3  and  C_37
    3  A    between atoms: C_4  and  C_19
    4  A    between atoms: C_4  and  C_31
    5  A    between atoms: C_5  and  C_48
    6  A    between atoms: C_7  and  C_37
    7  A    between atoms: O_8  and  C_31
    8  A    between atoms: O_8  and  C_39
    9  A    between atoms: C_11  and  C_21
   10  A    between atoms: C_11  and  C_34
   11  A    between atoms: N_12  and  C_18
   12  A    between atoms: N_14  and  C_45
   13  A    between atoms: N_15  and  C_29
   14  A    between atoms: O_16  and  C_46
   15  A    between atoms: C_17  and  C_43
   16  A    between atoms: C_18  and  C_21
   17  A    between atoms: C_24  and  C_29
   18  A    between atoms: C_24  and  C_39
   19  A    between atoms: C_25  and  C_41
   20  A    between atoms: C_34  and  C_45
   21  A    between atoms: C_37  and  N_44
                            x       y       z     vdW  Elec       q    Type
                         _______ _______ _______ _____ _____    ______ ____

>  <TORSDO>
F 21

$$$$
=
 OpenBabel11042423063D

 48 50  0  0  1  0  0  0  0  0999 V2000
  161.7770  206.7700  151.3580 C   0  0  0  0  0  3  0  0  0  0  0  0
  161.1850  204.8590  152.7160 C   0  0  0  0  0  3  0  0  0  0  0  0
  161.1690  204.6730  150.2870 C   0  0  0  0  0  0  0  0  0  0  0  0
  161.5780  206.0120  150.2020 C   0  0  0  0  0  3  0  0  0  0  0  0
  160.9870  204.1020  151.5570 C   0  0  0  0  0  3  0  0  0  0  0  0
  161.5610  206.2070  152.6220 C   0  0  0  0  0  0  0  0  0  0  0  0
  161.8730  207.0230  153.8530 C   0  0  2  0  0  3  0  0  0  0  0  0
  160.6200  207.3590  154.6790 C   0  0  0  0  0  0  0  0  0  0  0  0
  161.3980  208.3900  153.8610 C   0  0  2  0  0  3  0  0  0  0  0  0
  159.6950  207.0410  155.4090 O   0  0  0  0  0  0  0  0  0  0  0  0
  160.5140  208.8480  152.7030 C   0  0  0  0  0  2  0  0  0  0  0  0
  159.3560  209.6710  153.2350 C   0  0  0  0  0  2  0  0  0  0  0  0
  159.8350  210.7890  153.9720 O   0  0  0  0  0  0  0  0  0  0  0  0
  159.6950  213.0530  154.4330 O   0  0  0  0  0  0  0  0  0  0  0  0
  159.5670  212.1100  153.6040 C   0  0  0  0  0  0  0  0  0  0  0  0
  159.0800  212.3960  152.2280 C   0  0  0  0  0  2  0  0  0  0  0  0
  158.4710  213.7850  152.1870 C   0  0  0  0  0  2  0  0  0  0  0  0
  157.1110  213.7310  151.6670 N   0  0  0  0  0  2  0  0  0  0  0  0
  155.5460  213.9760  149.9750 O   0  0  0  0  0  0  0  0  0  0  0  0
  156.7600  213.8310  150.2800 C   0  0  0  0  0  0  0  0  0  0  0  0
  159.6240  212.5160  147.0940 C   0  0  0  0  0  3  0  0  0  0  0  0
  157.7740  213.7920  149.2060 C   0  0  0  0  0  0  0  0  0  0  0  0
  159.0840  214.4460  149.4240 C   0  0  0  0  0  3  0  0  0  0  0  0
  158.3120  213.1780  146.8440 C   0  0  0  0  0  2  0  0  0  0  0  0
  160.2630  214.0850  148.8990 C   0  0  0  0  0  3  0  0  0  0  0  0
  160.5190  212.9450  147.9850 C   0  0  0  0  0  0  0  0  0  0  0  0
  157.4490  213.1810  148.0620 C   0  0  0  0  0  3  0  0  0  0  0  0
  161.7520  212.2890  148.0180 O   0  0  0  0  0  0  0  0  0  0  0  0
  162.9070  212.7890  147.3600 C   0  0  0  0  0  1  0  0  0  0  0  0
  161.2970  204.2800  147.7500 N   0  0  0  0  0  2  0  0  0  0  0  0
  160.4950  202.6780  149.2130 O   0  0  0  0  0  0  0  0  0  0  0  0
  160.9770  203.8360  149.0780 C   0  0  0  0  0  0  0  0  0  0  0  0
  161.7210  205.6180  147.3860 C   0  0  0  0  0  2  0  0  0  0  0  0
  162.3160  205.5880  145.9910 C   0  0  0  0  0  2  0  0  0  0  0  0
  161.2470  205.3530  144.9360 C   0  0  1  0  0  3  0  0  0  0  0  0
  160.4200  206.4730  144.8760 O   0  0  0  0  0  1  0  0  0  0  0  0
  161.8910  205.1090  143.5760 C   0  0  0  0  0  2  0  0  0  0  0  0
  161.5840  206.2180  142.5800 C   0  0  0  0  0  2  0  0  0  0  0  0
  162.0950  206.8290  140.1970 C   0  0  0  0  0  0  0  0  0  0  0  0
  162.0820  205.8740  141.2570 N   0  0  0  0  0  2  0  0  0  0  0  0
  162.3570  206.4480  139.0280 O   0  0  0  0  0  0  0  0  0  0  0  0
  161.8200  208.2100  140.4680 N   0  0  0  0  0  2  0  0  0  0  0  0
  161.7800  209.2680  139.4620 C   0  0  1  0  0  3  0  0  0  0  0  0
  160.5680  209.1210  138.5500 C   0  0  0  0  0  2  0  0  0  0  0  0
  160.9820  209.0570  137.2210 O   0  0  0  0  0  1  0  0  0  0  0  0
  161.8040  210.6410  140.1230 C   0  0  0  0  0  2  0  0  0  0  0  0
  162.0680  211.6230  139.1650 O   0  0  0  0  0  0  0  0  0  0  0  0
  163.3580  211.3450  138.7150 C   0  0  0  0  0  1  0  0  0  0  0  0
  1  6  1  0  0  0  0
  3  5  2  0  0  0  0
  4  3  1  0  0  0  0
  4  1  2  0  0  0  0
  5  2  1  0  0  0  0
  6  2  2  0  0  0  0
  7  6  1  6  0  0  0
  7  9  1  0  0  0  0
  7  8  1  0  0  0  0
  8 10  2  0  0  0  0
  9 11  1  6  0  0  0
  9  8  1  0  0  0  0
 11 12  1  0  0  0  0
 12 13  1  0  0  0  0
 15 13  1  0  0  0  0
 15 14  2  0  0  0  0
 16 15  1  0  0  0  0
 17 16  1  0  0  0  0
 18 17  1  0  0  0  0
 19 20  2  0  0  0  0
 20 18  1  0  0  0  0
 21 26  2  0  0  0  0
 22 23  1  0  0  0  0
 22 20  1  0  0  0  0
 24 21  1  0  0  0  0
 24 27  1  0  0  0  0
 25 23  2  0  0  0  0
 26 28  1  0  0  0  0
 26 25  1  0  0  0  0
 27 22  2  0  0  0  0
 29 28  1  0  0  0  0
 30 32  1  0  0  0  0
 32 31  2  0  0  0  0
 32  3  1  0  0  0  0
 33 30  1  0  0  0  0
 34 33  1  0  0  0  0
 35 36  1  6  0  0  0
 35 34  1  0  0  0  0
 37 35  1  0  0  0  0
 38 37  1  0  0  0  0
 39 42  1  0  0  0  0
 39 40  1  0  0  0  0
 40 38  1  0  0  0  0
 41 39  2  0  0  0  0
 43 44  1  1  0  0  0
 43 46  1  0  0  0  0
 43 42  1  0  0  0  0
 45 44  1  0  0  0  0
 47 46  1  0  0  0  0
 48 47  1  0  0  0  0
M  END
>  <MODEL>
9

>  <REMARK>
 VINA RESULT:      -5.9      2.799      5.807
  Name = 
  21 active torsions:
  status: ('A' for Active; 'I' for Inactive)
    1  A    between atoms: C_3  and  O_22
    2  A    between atoms: C_3  and  C_37
    3  A    between atoms: C_4  and  C_19
    4  A    between atoms: C_4  and  C_31
    5  A    between atoms: C_5  and  C_48
    6  A    between atoms: C_7  and  C_37
    7  A    between atoms: O_8  and  C_31
    8  A    between atoms: O_8  and  C_39
    9  A    between atoms: C_11  and  C_21
   10  A    between atoms: C_11  and  C_34
   11  A    between atoms: N_12  and  C_18
   12  A    between atoms: N_14  and  C_45
   13  A    between atoms: N_15  and  C_29
   14  A    between atoms: O_16  and  C_46
   15  A    between atoms: C_17  and  C_43
   16  A    between atoms: C_18  and  C_21
   17  A    between atoms: C_24  and  C_29
   18  A    between atoms: C_24  and  C_39
   19  A    between atoms: C_25  and  C_41
   20  A    between atoms: C_34  and  C_45
   21  A    between atoms: C_37  and  N_44
                            x       y       z     vdW  Elec       q    Type
                         _______ _______ _______ _____ _____    ______ ____

>  <TORSDO>
F 21

$$$$
