=
 OpenBabel11052410213D

 55 59  0  0  1  0  0  0  0  0999 V2000
  160.8650  211.2850  151.1430 C   0  0  2  0  0  3  0  0  0  0  0  0
  161.7700  210.3330  151.8300 N   0  0  2  0  0  0  0  0  0  0  0  0
  162.3920  209.3370  150.9260 C   0  0  0  0  0  2  0  0  0  0  0  0
  162.4200  211.4020  149.0550 C   0  0  2  0  0  3  0  0  0  0  0  0
  161.8240  210.0820  148.5310 C   0  0  0  0  0  2  0  0  0  0  0  0
  161.5880  212.1690  150.1080 C   0  0  0  0  0  2  0  0  0  0  0  0
  160.2530  212.1220  152.0660 F   0  0  0  0  0  0  0  0  0  0  0  0
  161.5480  209.0810  149.6620 C   0  0  1  0  0  3  0  0  0  0  0  0
  160.8240  202.5690  149.7320 C   0  0  0  0  0  0  0  0  0  0  0  0
  162.4120  206.2760  147.3060 C   0  0  0  0  0  3  0  0  0  0  0  0
  161.2120  205.3870  147.3320 C   0  0  0  0  0  2  0  0  0  0  0  0
  161.6150  207.6600  149.2180 C   0  0  0  0  0  0  0  0  0  0  0  0
  161.0410  203.3030  148.6090 N   0  0  0  0  0  0  0  0  0  0  0  0
  160.9720  205.3520  149.8530 C   0  0  0  0  0  0  0  0  0  0  0  0
  160.7380  204.6090  151.0150 C   0  0  0  0  0  3  0  0  0  0  0  0
  161.1160  204.6620  148.6320 C   0  0  0  0  0  0  0  0  0  0  0  0
  161.0020  206.7830  149.9680 N   0  0  0  0  0  0  0  0  0  0  0  0
  162.5540  207.3060  148.1370 C   0  0  0  0  0  3  0  0  0  0  0  0
  160.6700  203.2170  150.9650 C   0  0  0  0  0  3  0  0  0  0  0  0
  160.7430  201.1800  149.6410 O   0  0  0  0  0  0  0  0  0  0  0  0
  159.8250  200.4930  150.3310 O   0  0  0  0  0  1  0  0  0  0  0  0
  161.0240  209.6500  152.9040 C   0  0  1  0  0  3  0  0  0  0  0  0
  161.1090  206.0440  153.3120 O   0  0  0  0  0  0  0  0  0  0  0  0
  160.8820  208.2350  152.6700 O   0  0  0  0  0  0  0  0  0  0  0  0
  161.1320  207.2560  153.6440 C   0  0  0  0  0  0  0  0  0  0  0  0
  160.9780  206.7370  155.9520 F   0  0  0  0  0  0  0  0  0  0  0  0
  161.5140  207.6320  155.0410 C   0  0  2  0  0  3  0  0  0  0  0  0
  161.0900  209.0680  155.3590 C   0  0  1  0  0  3  0  0  0  0  0  0
  161.6400  209.9850  154.2650 C   0  0  0  0  0  2  0  0  0  0  0  0
  159.5690  209.2220  155.4810 C   0  0  0  0  0  2  0  0  0  0  0  0
  159.1420  209.7310  156.8540 C   0  0  0  0  0  2  0  0  0  0  0  0
  158.5810  211.1470  156.8070 C   0  0  2  0  0  3  0  0  0  0  0  0
  157.8560  211.3320  155.4840 C   0  0  0  0  0  2  0  0  0  0  0  0
  156.3680  211.5380  155.7050 C   0  0  0  0  0  2  0  0  0  0  0  0
  155.7310  212.0050  154.4090 C   0  0  0  0  0  2  0  0  0  0  0  0
  156.0540  213.4060  154.1810 N   0  0  0  0  0  0  0  0  0  0  0  0
  155.8450  213.6630  152.7660 C   0  0  0  0  0  1  0  0  0  0  0  0
  155.0720  214.2000  154.9070 C   0  0  0  0  0  2  0  0  0  0  0  0
  153.9710  214.4500  154.0890 O   0  0  0  0  0  1  0  0  0  0  0  0
  159.6950  212.1790  156.9410 C   0  0  0  0  0  2  0  0  0  0  0  0
  158.8450  214.3980  156.7410 O   0  0  0  0  0  1  0  0  0  0  0  0
  159.6190  213.4570  154.7960 O   0  0  0  0  0  0  0  0  0  0  0  0
  159.3520  213.4030  156.1590 C   0  0  0  0  0  0  0  0  0  0  0  0
  162.8840  212.2650  147.9660 N   0  0  0  0  0  2  0  0  0  0  0  0
  162.0290  213.4460  147.8410 C   0  0  0  0  0  2  0  0  0  0  0  0
  159.1610  214.3770  147.3900 O   0  0  0  0  0  0  0  0  0  0  0  0
  160.9510  213.2230  146.7800 C   0  0  1  0  0  3  0  0  0  0  0  0
  162.4320  214.2580  144.9810 C   0  0  0  0  0  1  0  0  0  0  0  0
  158.1410  214.4210  146.4160 C   0  0  0  0  0  2  0  0  0  0  0  0
  159.9310  214.1150  144.5490 C   0  0  1  0  0  3  0  0  0  0  0  0
  158.3070  212.3970  145.1260 O   0  0  0  0  0  1  0  0  0  0  0  0
  159.6660  213.1500  147.3770 O   0  0  0  0  0  0  0  0  0  0  0  0
  161.0460  214.2430  145.6170 C   0  0  1  0  0  3  0  0  0  0  0  0
  160.3020  213.2240  143.5360 O   0  0  0  0  0  1  0  0  0  0  0  0
  158.5150  213.7810  145.0670 C   0  0  1  0  0  3  0  0  0  0  0  0
  1  2  1  0  0  0  0
  1  7  1  1  0  0  0
  2  3  1  6  0  0  0
  2 22  1  0  0  0  0
  4 44  1  6  0  0  0
  4  6  1  0  0  0  0
  5  4  1  0  0  0  0
  5  8  1  0  0  0  0
  6  1  1  0  0  0  0
  8 12  1  6  0  0  0
  8  3  1  0  0  0  0
  9 19  1  0  0  0  0
 10 11  1  0  0  0  0
 10 18  2  0  0  0  0
 11 16  1  0  0  0  0
 12 17  2  0  0  0  0
 13 16  1  0  0  0  0
 13  9  2  0  0  0  0
 14 17  1  0  0  0  0
 14 15  1  0  0  0  0
 16 14  2  0  0  0  0
 18 12  1  0  0  0  0
 19 15  2  0  0  0  0
 20  9  1  0  0  0  0
 20 21  1  0  0  0  0
 22 29  1  1  0  0  0
 23 25  2  0  0  0  0
 24 22  1  0  0  0  0
 24 25  1  0  0  0  0
 25 27  1  0  0  0  0
 27 28  1  0  0  0  0
 27 26  1  1  0  0  0
 28 30  1  6  0  0  0
 29 28  1  0  0  0  0
 30 31  1  0  0  0  0
 32 33  1  6  0  0  0
 32 31  1  0  0  0  0
 32 40  1  0  0  0  0
 33 34  1  0  0  0  0
 35 34  1  0  0  0  0
 36 35  1  0  0  0  0
 36 38  1  0  0  0  0
 37 36  1  0  0  0  0
 39 38  1  0  0  0  0
 42 43  2  0  0  0  0
 43 41  1  0  0  0  0
 43 40  1  0  0  0  0
 45 44  1  0  0  0  0
 47 52  1  0  0  0  0
 47 45  1  1  0  0  0
 49 46  1  0  0  0  0
 50 54  1  6  0  0  0
 50 55  1  0  0  0  0
 50 53  1  0  0  0  0
 52 46  1  0  0  0  0
 53 48  1  6  0  0  0
 53 47  1  0  0  0  0
 55 51  1  1  0  0  0
 55 49  1  0  0  0  0
M  END
>  <MODEL>
1

>  <REMARK>
 VINA RESULT:      -6.6      0.000      0.000
  Name = 
  16 active torsions:
  status: ('A' for Active; 'I' for Inactive)
    1  A    between atoms: C_1  and  O_4
    2  A    between atoms: C_2  and  C_26
    3  A    between atoms: C_2  and  C_34
    4  A    between atoms: C_3  and  C_25
    5  A    between atoms: C_3  and  C_37
    6  A    between atoms: C_6  and  C_30
    7  A    between atoms: C_7  and  C_25
    8  A    between atoms: C_7  and  C_39
    9  A    between atoms: C_8  and  N_28
   10  A    between atoms: N_12  and  C_15
   11  A    between atoms: C_23  and  C_53
   12  A    between atoms: C_24  and  N_32
   13  A    between atoms: C_25  and  C_34
   14  A    between atoms: C_26  and  N_28
   15  A    between atoms: C_30  and  N_32
   16  A    between atoms: C_39  and  C_49
                            x       y       z     vdW  Elec       q    Type
                         _______ _______ _______ _____ _____    ______ ____

>  <TORSDO>
F 16

$$$$
=
 OpenBabel11052410213D

 55 59  0  0  1  0  0  0  0  0999 V2000
  160.6650  208.5280  153.5410 C   0  0  2  0  0  3  0  0  0  0  0  0
  161.9340  208.8280  152.8350 N   0  0  2  0  0  0  0  0  0  0  0  0
  162.0350  210.2230  152.3470 C   0  0  0  0  0  2  0  0  0  0  0  0
  160.6190  210.8820  154.6560 C   0  0  2  0  0  3  0  0  0  0  0  0
  160.0400  211.4890  153.3640 C   0  0  0  0  0  2  0  0  0  0  0  0
  160.4780  209.3530  154.8280 C   0  0  0  0  0  2  0  0  0  0  0  0
  160.6090  207.1830  153.8830 F   0  0  0  0  0  0  0  0  0  0  0  0
  160.6540  210.8630  152.1030 C   0  0  1  0  0  3  0  0  0  0  0  0
  162.3530  213.4940  146.3480 C   0  0  0  0  0  0  0  0  0  0  0  0
  159.4900  213.8080  150.0700 C   0  0  0  0  0  3  0  0  0  0  0  0
  159.4480  213.2970  148.6670 C   0  0  0  0  0  2  0  0  0  0  0  0
  160.6590  211.7840  150.9320 C   0  0  0  0  0  0  0  0  0  0  0  0
  161.1670  213.7190  146.9720 N   0  0  0  0  0  0  0  0  0  0  0  0
  161.7240  212.1870  148.7300 C   0  0  0  0  0  0  0  0  0  0  0  0
  162.9440  211.9380  148.0930 C   0  0  0  0  0  3  0  0  0  0  0  0
  160.8270  213.0960  148.1340 C   0  0  0  0  0  0  0  0  0  0  0  0
  161.4370  211.4580  149.9340 N   0  0  0  0  0  0  0  0  0  0  0  0
  160.0060  213.1000  151.0720 C   0  0  0  0  0  3  0  0  0  0  0  0
  163.2690  212.5930  146.9050 C   0  0  0  0  0  3  0  0  0  0  0  0
  162.6370  214.1530  145.1520 O   0  0  0  0  0  0  0  0  0  0  0  0
  163.6570  213.7700  144.3760 O   0  0  0  0  0  1  0  0  0  0  0  0
  162.0960  207.8830  151.7140 C   0  0  1  0  0  3  0  0  0  0  0  0
  162.0730  204.2870  152.2100 O   0  0  0  0  0  0  0  0  0  0  0  0
  162.4340  206.5520  152.1520 O   0  0  0  0  0  0  0  0  0  0  0  0
  161.8050  205.3930  151.6750 C   0  0  0  0  0  0  0  0  0  0  0  0
  160.8330  204.3570  149.7770 F   0  0  0  0  0  0  0  0  0  0  0  0
  160.7560  205.4610  150.6090 C   0  0  2  0  0  3  0  0  0  0  0  0
  160.8660  206.7650  149.8150 C   0  0  1  0  0  3  0  0  0  0  0  0
  160.8660  207.9320  150.8040 C   0  0  0  0  0  2  0  0  0  0  0  0
  162.1130  206.8100  148.9220 C   0  0  0  0  0  2  0  0  0  0  0  0
  161.7730  207.0670  147.4580 C   0  0  0  0  0  2  0  0  0  0  0  0
  161.3160  205.8070  146.7320 C   0  0  2  0  0  3  0  0  0  0  0  0
  162.5420  205.0990  146.1810 C   0  0  0  0  0  2  0  0  0  0  0  0
  162.7480  203.7590  146.8630 C   0  0  0  0  0  2  0  0  0  0  0  0
  161.4430  203.3150  147.4980 C   0  0  0  0  0  2  0  0  0  0  0  0
  161.3670  201.8610  147.5000 N   0  0  0  0  0  0  0  0  0  0  0  0
  160.2320  201.4980  148.3300 C   0  0  0  0  0  1  0  0  0  0  0  0
  161.0530  201.4420  146.1410 C   0  0  0  0  0  2  0  0  0  0  0  0
  159.6900  201.6120  145.9000 O   0  0  0  0  0  1  0  0  0  0  0  0
  160.3550  206.1480  145.5990 C   0  0  0  0  0  2  0  0  0  0  0  0
  161.6430  205.6640  143.6510 O   0  0  0  0  0  0  0  0  0  0  0  0
  159.9420  204.1910  144.1040 O   0  0  0  0  0  1  0  0  0  0  0  0
  160.6800  205.3330  144.3930 C   0  0  0  0  0  0  0  0  0  0  0  0
  160.1990  211.6250  155.8460 N   0  0  0  0  0  2  0  0  0  0  0  0
  159.8670  213.0070  155.5040 C   0  0  0  0  0  2  0  0  0  0  0  0
  157.4750  213.2850  153.6330 O   0  0  0  0  0  0  0  0  0  0  0  0
  158.3670  213.2580  155.6610 C   0  0  1  0  0  3  0  0  0  0  0  0
  158.0950  211.1120  157.0110 C   0  0  0  0  0  1  0  0  0  0  0  0
  156.0640  213.3230  153.6210 C   0  0  0  0  0  2  0  0  0  0  0  0
  156.0280  212.1310  155.9380 C   0  0  1  0  0  3  0  0  0  0  0  0
  155.3700  214.4530  155.6280 O   0  0  0  0  0  1  0  0  0  0  0  0
  157.8820  214.0830  154.6130 O   0  0  0  0  0  0  0  0  0  0  0  0
  157.5640  211.9460  155.8490 C   0  0  1  0  0  3  0  0  0  0  0  0
  155.6200  212.3390  157.2590 O   0  0  0  0  0  1  0  0  0  0  0  0
  155.4080  213.1980  155.0090 C   0  0  1  0  0  3  0  0  0  0  0  0
  1  7  1  1  0  0  0
  1  6  1  0  0  0  0
  2  3  1  6  0  0  0
  2  1  1  0  0  0  0
  4  6  1  0  0  0  0
  4 44  1  1  0  0  0
  5  4  1  0  0  0  0
  8 12  1  6  0  0  0
  8  3  1  0  0  0  0
  8  5  1  0  0  0  0
  9 19  1  0  0  0  0
  9 13  2  0  0  0  0
 10 18  2  0  0  0  0
 11 10  1  0  0  0  0
 12 18  1  0  0  0  0
 13 16  1  0  0  0  0
 14 17  1  0  0  0  0
 15 14  1  0  0  0  0
 16 11  1  0  0  0  0
 16 14  2  0  0  0  0
 17 12  2  0  0  0  0
 19 15  2  0  0  0  0
 20  9  1  0  0  0  0
 21 20  1  0  0  0  0
 22 29  1  1  0  0  0
 22 24  1  0  0  0  0
 22  2  1  0  0  0  0
 25 24  1  0  0  0  0
 25 23  2  0  0  0  0
 27 26  1  6  0  0  0
 27 25  1  0  0  0  0
 28 30  1  1  0  0  0
 28 27  1  0  0  0  0
 28 29  1  0  0  0  0
 31 30  1  0  0  0  0
 32 40  1  6  0  0  0
 32 31  1  0  0  0  0
 33 32  1  0  0  0  0
 33 34  1  0  0  0  0
 34 35  1  0  0  0  0
 35 36  1  0  0  0  0
 36 37  1  0  0  0  0
 38 36  1  0  0  0  0
 39 38  1  0  0  0  0
 41 43  2  0  0  0  0
 42 43  1  0  0  0  0
 43 40  1  0  0  0  0
 45 44  1  0  0  0  0
 46 52  1  0  0  0  0
 47 45  1  6  0  0  0
 47 53  1  0  0  0  0
 49 46  1  0  0  0  0
 49 55  1  0  0  0  0
 50 54  1  1  0  0  0
 52 47  1  0  0  0  0
 53 50  1  0  0  0  0
 53 48  1  1  0  0  0
 55 51  1  1  0  0  0
 55 50  1  0  0  0  0
M  END
>  <MODEL>
2

>  <REMARK>
 VINA RESULT:      -6.0      2.547      9.809
  Name = 
  16 active torsions:
  status: ('A' for Active; 'I' for Inactive)
    1  A    between atoms: C_1  and  O_4
    2  A    between atoms: C_2  and  C_26
    3  A    between atoms: C_2  and  C_34
    4  A    between atoms: C_3  and  C_25
    5  A    between atoms: C_3  and  C_37
    6  A    between atoms: C_6  and  C_30
    7  A    between atoms: C_7  and  C_25
    8  A    between atoms: C_7  and  C_39
    9  A    between atoms: C_8  and  N_28
   10  A    between atoms: N_12  and  C_15
   11  A    between atoms: C_23  and  C_53
   12  A    between atoms: C_24  and  N_32
   13  A    between atoms: C_25  and  C_34
   14  A    between atoms: C_26  and  N_28
   15  A    between atoms: C_30  and  N_32
   16  A    between atoms: C_39  and  C_49
                            x       y       z     vdW  Elec       q    Type
                         _______ _______ _______ _____ _____    ______ ____

>  <TORSDO>
F 16

$$$$
=
 OpenBabel11052410213D

 55 59  0  0  1  0  0  0  0  0999 V2000
  160.3980  209.5840  151.9810 C   0  0  2  0  0  3  0  0  0  0  0  0
  161.8150  209.5850  151.5440 N   0  0  2  0  0  0  0  0  0  0  0  0
  162.2030  210.7870  150.7700 C   0  0  0  0  0  2  0  0  0  0  0  0
  160.4420  212.1460  152.4490 C   0  0  2  0  0  3  0  0  0  0  0  0
  160.2310  212.4290  150.9500 C   0  0  0  0  0  2  0  0  0  0  0  0
  160.0620  210.7340  152.9490 C   0  0  0  0  0  2  0  0  0  0  0  0
  160.0900  208.3880  152.6160 F   0  0  0  0  0  0  0  0  0  0  0  0
  161.0030  211.4440  150.0590 C   0  0  1  0  0  3  0  0  0  0  0  0
  160.4680  213.4130  143.8330 C   0  0  0  0  0  0  0  0  0  0  0  0
  163.3220  213.0310  147.5560 C   0  0  0  0  0  3  0  0  0  0  0  0
  162.4880  214.0750  146.8890 C   0  0  0  0  0  2  0  0  0  0  0  0
  161.3760  212.0170  148.7360 C   0  0  0  0  0  0  0  0  0  0  0  0
  161.4380  213.8310  144.6880 N   0  0  0  0  0  0  0  0  0  0  0  0
  160.4760  212.5860  146.4970 C   0  0  0  0  0  0  0  0  0  0  0  0
  159.4670  212.1560  145.6310 C   0  0  0  0  0  3  0  0  0  0  0  0
  161.4700  213.4510  145.9940 C   0  0  0  0  0  0  0  0  0  0  0  0
  160.4100  212.1600  147.8670 N   0  0  0  0  0  0  0  0  0  0  0  0
  162.8080  212.1430  148.4040 C   0  0  0  0  0  3  0  0  0  0  0  0
  159.4590  212.5580  144.2950 C   0  0  0  0  0  3  0  0  0  0  0  0
  160.4820  213.8500  142.5090 O   0  0  0  0  0  0  0  0  0  0  0  0
  159.3620  213.8810  141.7780 O   0  0  0  0  0  1  0  0  0  0  0  0
  162.0770  208.3660  150.7550 C   0  0  1  0  0  3  0  0  0  0  0  0
  162.2830  205.0870  152.2970 O   0  0  0  0  0  0  0  0  0  0  0  0
  162.4900  207.2540  151.5730 O   0  0  0  0  0  0  0  0  0  0  0  0
  161.9570  205.9610  151.4560 C   0  0  0  0  0  0  0  0  0  0  0  0
  161.1190  204.3410  149.9410 F   0  0  0  0  0  0  0  0  0  0  0  0
  160.9410  205.6330  150.4070 C   0  0  2  0  0  3  0  0  0  0  0  0
  160.9860  206.6480  149.2630 C   0  0  1  0  0  3  0  0  0  0  0  0
  160.8760  208.0520  149.8590 C   0  0  0  0  0  2  0  0  0  0  0  0
  162.2550  206.5200  148.4090 C   0  0  0  0  0  2  0  0  0  0  0  0
  162.5070  205.0880  147.9480 C   0  0  0  0  0  2  0  0  0  0  0  0
  161.8210  204.7690  146.6250 C   0  0  2  0  0  3  0  0  0  0  0  0
  162.2480  203.3780  146.1860 C   0  0  0  0  0  2  0  0  0  0  0  0
  161.0420  202.5260  145.8330 C   0  0  0  0  0  2  0  0  0  0  0  0
  160.9960  201.3200  146.7510 C   0  0  0  0  0  2  0  0  0  0  0  0
  160.9500  201.7600  148.1380 N   0  0  0  0  0  0  0  0  0  0  0  0
  159.5670  202.0960  148.4290 C   0  0  0  0  0  1  0  0  0  0  0  0
  161.2920  200.6140  148.9680 C   0  0  0  0  0  2  0  0  0  0  0  0
  161.6170  201.0430  150.2540 O   0  0  0  0  0  1  0  0  0  0  0  0
  162.1940  205.7910  145.5570 C   0  0  0  0  0  2  0  0  0  0  0  0
  159.9760  206.3070  144.8490 O   0  0  0  0  0  1  0  0  0  0  0  0
  161.3720  205.4970  143.2180 O   0  0  0  0  0  0  0  0  0  0  0  0
  161.1150  205.8720  144.5310 C   0  0  0  0  0  0  0  0  0  0  0  0
  159.8880  213.2100  153.2910 N   0  0  0  0  0  2  0  0  0  0  0  0
  159.6830  212.7340  154.6580 C   0  0  0  0  0  2  0  0  0  0  0  0
  157.2120  214.0670  153.4700 O   0  0  0  0  0  0  0  0  0  0  0  0
  158.2640  213.0500  155.1330 C   0  0  1  0  0  3  0  0  0  0  0  0
  157.7660  210.5720  155.4670 C   0  0  0  0  0  1  0  0  0  0  0  0
  155.8310  214.2590  153.6900 C   0  0  0  0  0  2  0  0  0  0  0  0
  155.8070  212.1770  155.2560 C   0  0  1  0  0  3  0  0  0  0  0  0
  155.5130  214.4530  156.0660 O   0  0  0  0  0  1  0  0  0  0  0  0
  157.8300  214.3000  154.6210 O   0  0  0  0  0  0  0  0  0  0  0  0
  157.2770  211.8850  154.8650 C   0  0  1  0  0  3  0  0  0  0  0  0
  155.5570  211.8220  156.5850 O   0  0  0  0  0  1  0  0  0  0  0  0
  155.2890  213.6050  154.9740 C   0  0  1  0  0  3  0  0  0  0  0  0
  1  7  1  1  0  0  0
  1  6  1  0  0  0  0
  2  3  1  6  0  0  0
  2  1  1  0  0  0  0
  4  6  1  0  0  0  0
  4 44  1  1  0  0  0
  5  4  1  0  0  0  0
  8 12  1  6  0  0  0
  8  3  1  0  0  0  0
  8  5  1  0  0  0  0
  9 19  1  0  0  0  0
  9 13  2  0  0  0  0
 10 18  2  0  0  0  0
 11 10  1  0  0  0  0
 13 16  1  0  0  0  0
 14 17  1  0  0  0  0
 15 14  1  0  0  0  0
 16 14  2  0  0  0  0
 16 11  1  0  0  0  0
 17 12  2  0  0  0  0
 18 12  1  0  0  0  0
 19 15  2  0  0  0  0
 20  9  1  0  0  0  0
 21 20  1  0  0  0  0
 22 29  1  1  0  0  0
 22  2  1  0  0  0  0
 22 24  1  0  0  0  0
 25 24  1  0  0  0  0
 25 23  2  0  0  0  0
 27 26  1  6  0  0  0
 27 25  1  0  0  0  0
 28 30  1  1  0  0  0
 28 29  1  0  0  0  0
 28 27  1  0  0  0  0
 31 30  1  0  0  0  0
 32 40  1  6  0  0  0
 32 31  1  0  0  0  0
 33 32  1  0  0  0  0
 34 33  1  0  0  0  0
 34 35  1  0  0  0  0
 35 36  1  0  0  0  0
 36 37  1  0  0  0  0
 36 38  1  0  0  0  0
 38 39  1  0  0  0  0
 42 43  2  0  0  0  0
 43 41  1  0  0  0  0
 43 40  1  0  0  0  0
 44 45  1  0  0  0  0
 46 49  1  0  0  0  0
 46 52  1  0  0  0  0
 47 45  1  6  0  0  0
 49 55  1  0  0  0  0
 50 54  1  1  0  0  0
 52 47  1  0  0  0  0
 53 47  1  0  0  0  0
 53 50  1  0  0  0  0
 53 48  1  1  0  0  0
 55 50  1  0  0  0  0
 55 51  1  1  0  0  0
M  END
>  <MODEL>
3

>  <REMARK>
 VINA RESULT:      -5.5      2.478      9.760
  Name = 
  16 active torsions:
  status: ('A' for Active; 'I' for Inactive)
    1  A    between atoms: C_1  and  O_4
    2  A    between atoms: C_2  and  C_26
    3  A    between atoms: C_2  and  C_34
    4  A    between atoms: C_3  and  C_25
    5  A    between atoms: C_3  and  C_37
    6  A    between atoms: C_6  and  C_30
    7  A    between atoms: C_7  and  C_25
    8  A    between atoms: C_7  and  C_39
    9  A    between atoms: C_8  and  N_28
   10  A    between atoms: N_12  and  C_15
   11  A    between atoms: C_23  and  C_53
   12  A    between atoms: C_24  and  N_32
   13  A    between atoms: C_25  and  C_34
   14  A    between atoms: C_26  and  N_28
   15  A    between atoms: C_30  and  N_32
   16  A    between atoms: C_39  and  C_49
                            x       y       z     vdW  Elec       q    Type
                         _______ _______ _______ _____ _____    ______ ____

>  <TORSDO>
F 16

$$$$
=
 OpenBabel11052410213D

 55 59  0  0  1  0  0  0  0  0999 V2000
  160.8450  210.5400  151.0280 C   0  0  2  0  0  3  0  0  0  0  0  0
  161.8370  209.5500  151.5120 N   0  0  2  0  0  0  0  0  0  0  0  0
  162.4380  208.7270  150.4370 C   0  0  0  0  0  2  0  0  0  0  0  0
  162.2440  211.0340  148.8870 C   0  0  2  0  0  3  0  0  0  0  0  0
  161.6720  209.7710  148.2150 C   0  0  0  0  0  2  0  0  0  0  0  0
  161.4550  211.5980  150.0890 C   0  0  0  0  0  2  0  0  0  0  0  0
  160.2630  211.2040  152.1000 F   0  0  0  0  0  0  0  0  0  0  0  0
  161.5200  208.6070  149.2050 C   0  0  1  0  0  3  0  0  0  0  0  0
  161.1060  202.1190  148.3840 C   0  0  0  0  0  0  0  0  0  0  0  0
  162.3300  206.2140  146.4140 C   0  0  0  0  0  3  0  0  0  0  0  0
  161.1780  205.2640  146.3950 C   0  0  0  0  0  2  0  0  0  0  0  0
  161.6180  207.2690  148.5570 C   0  0  0  0  0  0  0  0  0  0  0  0
  161.2020  203.0150  147.3670 N   0  0  0  0  0  0  0  0  0  0  0  0
  161.1340  204.8610  148.8950 C   0  0  0  0  0  0  0  0  0  0  0  0
  161.0240  203.9510  149.9510 C   0  0  0  0  0  3  0  0  0  0  0  0
  161.2150  204.3590  147.5800 C   0  0  0  0  0  0  0  0  0  0  0  0
  161.1060  206.2610  149.2130 N   0  0  0  0  0  0  0  0  0  0  0  0
  162.4880  207.1240  147.3740 C   0  0  0  0  0  3  0  0  0  0  0  0
  161.0170  202.5780  149.7050 C   0  0  0  0  0  3  0  0  0  0  0  0
  161.0830  200.7550  148.1000 O   0  0  0  0  0  0  0  0  0  0  0  0
  161.2170  200.3060  146.8460 O   0  0  0  0  0  1  0  0  0  0  0  0
  161.1990  208.6830  152.5210 C   0  0  1  0  0  3  0  0  0  0  0  0
  160.1100  205.3090  151.7460 O   0  0  0  0  0  0  0  0  0  0  0  0
  160.5130  207.5590  151.9350 O   0  0  0  0  0  0  0  0  0  0  0  0
  160.6410  206.2420  152.4000 C   0  0  0  0  0  0  0  0  0  0  0  0
  160.9080  204.8830  154.3240 F   0  0  0  0  0  0  0  0  0  0  0  0
  161.4740  205.9190  153.6010 C   0  0  2  0  0  3  0  0  0  0  0  0
  161.6790  207.1590  154.4750 C   0  0  1  0  0  3  0  0  0  0  0  0
  162.2180  208.2860  153.5930 C   0  0  0  0  0  2  0  0  0  0  0  0
  160.3940  207.5980  155.1890 C   0  0  0  0  0  2  0  0  0  0  0  0
  160.6730  208.2920  156.5180 C   0  0  0  0  0  2  0  0  0  0  0  0
  160.3190  209.7740  156.4910 C   0  0  2  0  0  3  0  0  0  0  0  0
  158.9990  209.9390  155.7570 C   0  0  0  0  0  2  0  0  0  0  0  0
  158.8640  211.3420  155.1920 C   0  0  0  0  0  2  0  0  0  0  0  0
  157.4600  211.5280  154.6460 C   0  0  0  0  0  2  0  0  0  0  0  0
  156.4880  211.0570  155.6220 N   0  0  0  0  0  0  0  0  0  0  0  0
  156.0880  212.2090  156.4110 C   0  0  0  0  0  1  0  0  0  0  0  0
  155.3120  210.6180  154.8840 C   0  0  0  0  0  2  0  0  0  0  0  0
  154.4910  209.8560  155.7140 O   0  0  0  0  0  1  0  0  0  0  0  0
  161.4080  210.5820  155.7960 C   0  0  0  0  0  2  0  0  0  0  0  0
  162.4440  212.1910  157.2190 O   0  0  0  0  0  0  0  0  0  0  0  0
  163.3710  210.0920  157.2610 O   0  0  0  0  0  1  0  0  0  0  0  0
  162.4380  211.0070  156.7880 C   0  0  0  0  0  0  0  0  0  0  0  0
  162.5920  212.0660  147.9070 N   0  0  0  0  0  2  0  0  0  0  0  0
  161.6820  213.2060  148.0090 C   0  0  0  0  0  2  0  0  0  0  0  0
  158.8360  214.2960  147.9180 O   0  0  0  0  0  0  0  0  0  0  0  0
  160.4460  212.9910  147.1340 C   0  0  1  0  0  3  0  0  0  0  0  0
  161.6960  213.8160  145.0710 C   0  0  0  0  0  1  0  0  0  0  0  0
  157.6850  214.3480  147.1030 C   0  0  0  0  0  2  0  0  0  0  0  0
  159.1540  213.8130  145.0200 C   0  0  1  0  0  3  0  0  0  0  0  0
  157.5410  212.2440  145.9460 O   0  0  0  0  0  1  0  0  0  0  0  0
  159.2630  213.0390  147.9170 O   0  0  0  0  0  0  0  0  0  0  0  0
  160.4220  213.9310  145.9020 C   0  0  1  0  0  3  0  0  0  0  0  0
  159.3180  212.8400  144.0280 O   0  0  0  0  0  1  0  0  0  0  0  0
  157.8150  213.6050  145.7610 C   0  0  1  0  0  3  0  0  0  0  0  0
  1  2  1  0  0  0  0
  1  7  1  1  0  0  0
  2  3  1  6  0  0  0
  2 22  1  0  0  0  0
  4 44  1  6  0  0  0
  4  6  1  0  0  0  0
  5  4  1  0  0  0  0
  5  8  1  0  0  0  0
  6  1  1  0  0  0  0
  8 12  1  6  0  0  0
  8  3  1  0  0  0  0
  9 19  1  0  0  0  0
 10 18  2  0  0  0  0
 11 10  1  0  0  0  0
 11 16  1  0  0  0  0
 12 17  2  0  0  0  0
 13 16  1  0  0  0  0
 13  9  2  0  0  0  0
 14 17  1  0  0  0  0
 14 15  1  0  0  0  0
 16 14  2  0  0  0  0
 18 12  1  0  0  0  0
 19 15  2  0  0  0  0
 20  9  1  0  0  0  0
 21 20  1  0  0  0  0
 22 29  1  1  0  0  0
 23 25  2  0  0  0  0
 24 25  1  0  0  0  0
 24 22  1  0  0  0  0
 25 27  1  0  0  0  0
 27 26  1  1  0  0  0
 27 28  1  0  0  0  0
 28 30  1  6  0  0  0
 29 28  1  0  0  0  0
 30 31  1  0  0  0  0
 32 33  1  6  0  0  0
 32 31  1  0  0  0  0
 34 33  1  0  0  0  0
 35 34  1  0  0  0  0
 35 36  1  0  0  0  0
 36 37  1  0  0  0  0
 38 36  1  0  0  0  0
 38 39  1  0  0  0  0
 40 32  1  0  0  0  0
 40 43  1  0  0  0  0
 43 41  2  0  0  0  0
 43 42  1  0  0  0  0
 44 45  1  0  0  0  0
 47 52  1  0  0  0  0
 47 45  1  1  0  0  0
 49 46  1  0  0  0  0
 50 54  1  6  0  0  0
 50 55  1  0  0  0  0
 50 53  1  0  0  0  0
 52 46  1  0  0  0  0
 53 48  1  6  0  0  0
 53 47  1  0  0  0  0
 55 51  1  1  0  0  0
 55 49  1  0  0  0  0
M  END
>  <MODEL>
4

>  <REMARK>
 VINA RESULT:      -5.2      1.666      2.042
  Name = 
  16 active torsions:
  status: ('A' for Active; 'I' for Inactive)
    1  A    between atoms: C_1  and  O_4
    2  A    between atoms: C_2  and  C_26
    3  A    between atoms: C_2  and  C_34
    4  A    between atoms: C_3  and  C_25
    5  A    between atoms: C_3  and  C_37
    6  A    between atoms: C_6  and  C_30
    7  A    between atoms: C_7  and  C_25
    8  A    between atoms: C_7  and  C_39
    9  A    between atoms: C_8  and  N_28
   10  A    between atoms: N_12  and  C_15
   11  A    between atoms: C_23  and  C_53
   12  A    between atoms: C_24  and  N_32
   13  A    between atoms: C_25  and  C_34
   14  A    between atoms: C_26  and  N_28
   15  A    between atoms: C_30  and  N_32
   16  A    between atoms: C_39  and  C_49
                            x       y       z     vdW  Elec       q    Type
                         _______ _______ _______ _____ _____    ______ ____

>  <TORSDO>
F 16

$$$$
=
 OpenBabel11052410213D

 55 59  0  0  1  0  0  0  0  0999 V2000
  160.9430  211.8700  150.4910 C   0  0  2  0  0  3  0  0  0  0  0  0
  161.8880  211.0100  151.2420 N   0  0  2  0  0  0  0  0  0  0  0  0
  162.4690  209.9100  150.4380 C   0  0  0  0  0  2  0  0  0  0  0  0
  162.3880  211.7270  148.3270 C   0  0  2  0  0  3  0  0  0  0  0  0
  161.7740  210.3520  148.0010 C   0  0  0  0  0  2  0  0  0  0  0  0
  161.6060  212.6180  149.3190 C   0  0  0  0  0  2  0  0  0  0  0  0
  160.3740  212.8150  151.3340 F   0  0  0  0  0  0  0  0  0  0  0  0
  161.5630  209.4990  149.2610 C   0  0  1  0  0  3  0  0  0  0  0  0
  160.8730  203.0460  150.1690 C   0  0  0  0  0  0  0  0  0  0  0  0
  162.3310  206.4230  147.2320 C   0  0  0  0  0  3  0  0  0  0  0  0
  161.1380  205.5460  147.4230 C   0  0  0  0  0  2  0  0  0  0  0  0
  161.6160  208.0340  148.9930 C   0  0  0  0  0  0  0  0  0  0  0  0
  161.0360  203.6360  148.9550 N   0  0  0  0  0  0  0  0  0  0  0  0
  161.0140  205.8230  149.9380 C   0  0  0  0  0  0  0  0  0  0  0  0
  160.8370  205.2300  151.1920 C   0  0  0  0  0  3  0  0  0  0  0  0
  161.1050  204.9870  148.8060 C   0  0  0  0  0  0  0  0  0  0  0  0
  161.0420  207.2570  149.8730 N   0  0  0  0  0  0  0  0  0  0  0  0
  162.5070  207.5480  147.9220 C   0  0  0  0  0  3  0  0  0  0  0  0
  160.7730  203.8420  151.3180 C   0  0  0  0  0  3  0  0  0  0  0  0
  160.7960  201.6570  150.2540 O   0  0  0  0  0  0  0  0  0  0  0  0
  159.6210  201.0220  150.1660 O   0  0  0  0  0  1  0  0  0  0  0  0
  161.2030  210.4660  152.4300 C   0  0  1  0  0  3  0  0  0  0  0  0
  160.4680  206.9280  152.7740 O   0  0  0  0  0  0  0  0  0  0  0  0
  160.6760  209.1420  152.2110 O   0  0  0  0  0  0  0  0  0  0  0  0
  160.8480  208.0780  153.1090 C   0  0  0  0  0  0  0  0  0  0  0  0
  160.9890  207.4780  155.3980 F   0  0  0  0  0  0  0  0  0  0  0  0
  161.5560  208.2690  154.4140 C   0  0  2  0  0  3  0  0  0  0  0  0
  161.5640  209.7440  154.8220 C   0  0  1  0  0  3  0  0  0  0  0  0
  162.1170  210.5640  153.6550 C   0  0  0  0  0  2  0  0  0  0  0  0
  160.1750  210.2520  155.2310 C   0  0  0  0  0  2  0  0  0  0  0  0
  160.1960  211.7090  155.6820 C   0  0  0  0  0  2  0  0  0  0  0  0
  158.8970  212.4400  155.3620 C   0  0  2  0  0  3  0  0  0  0  0  0
  158.0780  212.5450  156.6370 C   0  0  0  0  0  2  0  0  0  0  0  0
  157.0840  211.4020  156.7400 C   0  0  0  0  0  2  0  0  0  0  0  0
  155.7470  211.9440  157.2100 C   0  0  0  0  0  2  0  0  0  0  0  0
  154.6800  211.4150  156.3720 N   0  0  0  0  0  0  0  0  0  0  0  0
  155.2260  210.2680  155.6670 C   0  0  0  0  0  1  0  0  0  0  0  0
  153.6410  210.9130  157.2600 C   0  0  0  0  0  2  0  0  0  0  0  0
  153.4990  209.5370  157.0900 O   0  0  0  0  0  1  0  0  0  0  0  0
  158.1040  211.7000  154.2910 C   0  0  0  0  0  2  0  0  0  0  0  0
  157.9440  213.1060  152.3720 O   0  0  0  0  0  0  0  0  0  0  0  0
  156.1040  213.0910  153.7430 O   0  0  0  0  0  1  0  0  0  0  0  0
  157.3910  212.6770  153.4190 C   0  0  0  0  0  0  0  0  0  0  0  0
  162.7890  212.4490  147.1170 N   0  0  0  0  0  2  0  0  0  0  0  0
  161.6650  213.2070  146.5690 C   0  0  0  0  0  2  0  0  0  0  0  0
  159.3100  213.4760  144.6510 O   0  0  0  0  0  0  0  0  0  0  0  0
  161.3400  212.7420  145.1490 C   0  0  1  0  0  3  0  0  0  0  0  0
  163.3070  214.0640  144.2080 C   0  0  0  0  0  1  0  0  0  0  0  0
  158.9390  213.2840  143.3030 C   0  0  0  0  0  2  0  0  0  0  0  0
  161.4510  213.3660  142.6170 C   0  0  1  0  0  3  0  0  0  0  0  0
  160.1120  211.3370  142.5170 O   0  0  0  0  0  1  0  0  0  0  0  0
  159.9690  212.3910  145.0360 O   0  0  0  0  0  0  0  0  0  0  0  0
  161.8210  213.7470  144.0720 C   0  0  1  0  0  3  0  0  0  0  0  0
  162.4440  212.5710  142.0350 O   0  0  0  0  0  1  0  0  0  0  0  0
  160.0590  212.7310  142.4030 C   0  0  1  0  0  3  0  0  0  0  0  0
  1  2  1  0  0  0  0
  1  7  1  1  0  0  0
  2  3  1  6  0  0  0
  2 22  1  0  0  0  0
  4 44  1  6  0  0  0
  4  6  1  0  0  0  0
  5  4  1  0  0  0  0
  5  8  1  0  0  0  0
  6  1  1  0  0  0  0
  8 12  1  6  0  0  0
  8  3  1  0  0  0  0
  9 20  1  0  0  0  0
  9 19  1  0  0  0  0
 10 11  1  0  0  0  0
 10 18  2  0  0  0  0
 11 16  1  0  0  0  0
 12 17  2  0  0  0  0
 13  9  2  0  0  0  0
 14 15  1  0  0  0  0
 15 19  2  0  0  0  0
 16 13  1  0  0  0  0
 16 14  2  0  0  0  0
 17 14  1  0  0  0  0
 18 12  1  0  0  0  0
 21 20  1  0  0  0  0
 22 29  1  1  0  0  0
 23 25  2  0  0  0  0
 24 22  1  0  0  0  0
 24 25  1  0  0  0  0
 25 27  1  0  0  0  0
 27 28  1  0  0  0  0
 27 26  1  1  0  0  0
 28 30  1  6  0  0  0
 29 28  1  0  0  0  0
 30 31  1  0  0  0  0
 32 40  1  6  0  0  0
 32 31  1  0  0  0  0
 32 33  1  0  0  0  0
 33 34  1  0  0  0  0
 34 35  1  0  0  0  0
 36 35  1  0  0  0  0
 36 38  1  0  0  0  0
 37 36  1  0  0  0  0
 39 38  1  0  0  0  0
 41 43  2  0  0  0  0
 43 42  1  0  0  0  0
 43 40  1  0  0  0  0
 45 44  1  0  0  0  0
 46 52  1  0  0  0  0
 47 45  1  1  0  0  0
 49 46  1  0  0  0  0
 50 54  1  1  0  0  0
 50 53  1  0  0  0  0
 52 47  1  0  0  0  0
 53 48  1  6  0  0  0
 53 47  1  0  0  0  0
 55 51  1  1  0  0  0
 55 50  1  0  0  0  0
 55 49  1  0  0  0  0
M  END
>  <MODEL>
5

>  <REMARK>
 VINA RESULT:      -5.1      1.630      2.143
  Name = 
  16 active torsions:
  status: ('A' for Active; 'I' for Inactive)
    1  A    between atoms: C_1  and  O_4
    2  A    between atoms: C_2  and  C_26
    3  A    between atoms: C_2  and  C_34
    4  A    between atoms: C_3  and  C_25
    5  A    between atoms: C_3  and  C_37
    6  A    between atoms: C_6  and  C_30
    7  A    between atoms: C_7  and  C_25
    8  A    between atoms: C_7  and  C_39
    9  A    between atoms: C_8  and  N_28
   10  A    between atoms: N_12  and  C_15
   11  A    between atoms: C_23  and  C_53
   12  A    between atoms: C_24  and  N_32
   13  A    between atoms: C_25  and  C_34
   14  A    between atoms: C_26  and  N_28
   15  A    between atoms: C_30  and  N_32
   16  A    between atoms: C_39  and  C_49
                            x       y       z     vdW  Elec       q    Type
                         _______ _______ _______ _____ _____    ______ ____

>  <TORSDO>
F 16

$$$$
=
 OpenBabel11052410213D

 55 59  0  0  1  0  0  0  0  0999 V2000
  160.9110  207.9950  151.5700 C   0  0  2  0  0  3  0  0  0  0  0  0
  162.2080  207.9260  150.8560 N   0  0  2  0  0  0  0  0  0  0  0  0
  162.6950  209.2370  150.3660 C   0  0  0  0  0  2  0  0  0  0  0  0
  161.5380  210.2650  152.6840 C   0  0  2  0  0  3  0  0  0  0  0  0
  161.1440  211.0130  151.3950 C   0  0  0  0  0  2  0  0  0  0  0  0
  160.9730  208.8380  152.8580 C   0  0  0  0  0  2  0  0  0  0  0  0
  160.4810  206.7210  151.9130 F   0  0  0  0  0  0  0  0  0  0  0  0
  161.5480  210.2400  150.1310 C   0  0  1  0  0  3  0  0  0  0  0  0
  160.4590  213.7000  144.6740 C   0  0  0  0  0  0  0  0  0  0  0  0
  163.6520  212.4000  147.8780 C   0  0  0  0  0  3  0  0  0  0  0  0
  162.7840  213.5780  147.5780 C   0  0  0  0  0  2  0  0  0  0  0  0
  161.8050  211.1250  148.9600 C   0  0  0  0  0  0  0  0  0  0  0  0
  161.5180  213.8910  145.5030 N   0  0  0  0  0  0  0  0  0  0  0  0
  160.7060  212.2350  147.0350 C   0  0  0  0  0  0  0  0  0  0  0  0
  159.6060  212.0350  146.1960 C   0  0  0  0  0  3  0  0  0  0  0  0
  161.6680  213.1970  146.6640 C   0  0  0  0  0  0  0  0  0  0  0  0
  160.7630  211.4810  148.2560 N   0  0  0  0  0  0  0  0  0  0  0  0
  163.2010  211.3290  148.5260 C   0  0  0  0  0  3  0  0  0  0  0  0
  159.4780  212.7580  145.0090 C   0  0  0  0  0  3  0  0  0  0  0  0
  160.3540  214.4530  143.5060 O   0  0  0  0  0  0  0  0  0  0  0  0
  160.8130  213.9870  142.3380 O   0  0  0  0  0  1  0  0  0  0  0  0
  162.0900  206.9760  149.7340 C   0  0  1  0  0  3  0  0  0  0  0  0
  158.9310  206.3650  148.0550 O   0  0  0  0  0  0  0  0  0  0  0  0
  160.7250  206.6000  149.4650 O   0  0  0  0  0  0  0  0  0  0  0  0
  160.1630  206.5780  148.1800 C   0  0  0  0  0  0  0  0  0  0  0  0
  160.5790  206.1270  145.8900 F   0  0  0  0  0  0  0  0  0  0  0  0
  160.9830  206.8960  146.9680 C   0  0  2  0  0  3  0  0  0  0  0  0
  162.4750  206.7140  147.2530 C   0  0  1  0  0  3  0  0  0  0  0  0
  162.8280  207.5180  148.5060 C   0  0  0  0  0  2  0  0  0  0  0  0
  162.8690  205.2410  147.4250 C   0  0  0  0  0  2  0  0  0  0  0  0
  162.3290  204.3580  146.3050 C   0  0  0  0  0  2  0  0  0  0  0  0
  161.2510  203.3950  146.7860 C   0  0  2  0  0  3  0  0  0  0  0  0
  161.4390  203.1690  148.2770 C   0  0  0  0  0  2  0  0  0  0  0  0
  160.8390  201.8420  148.7060 C   0  0  0  0  0  2  0  0  0  0  0  0
  160.7130  201.8160  150.2180 C   0  0  0  0  0  2  0  0  0  0  0  0
  161.0360  203.1280  150.7600 N   0  0  0  0  0  0  0  0  0  0  0  0
  159.7790  203.7520  151.1360 C   0  0  0  0  0  1  0  0  0  0  0  0
  161.7890  202.9150  151.9880 C   0  0  0  0  0  2  0  0  0  0  0  0
  162.6560  201.8350  151.8270 O   0  0  0  0  0  1  0  0  0  0  0  0
  161.3350  202.0670  146.0430 C   0  0  0  0  0  2  0  0  0  0  0  0
  159.8380  203.0770  144.4860 O   0  0  0  0  0  0  0  0  0  0  0  0
  159.8320  200.7810  144.5180 O   0  0  0  0  0  1  0  0  0  0  0  0
  160.2890  202.0100  144.9820 C   0  0  0  0  0  0  0  0  0  0  0  0
  161.3520  211.0950  153.8770 N   0  0  0  0  0  2  0  0  0  0  0  0
  160.3920  212.1670  153.6180 C   0  0  0  0  0  2  0  0  0  0  0  0
  159.6080  213.1700  156.3880 O   0  0  0  0  0  0  0  0  0  0  0  0
  159.1750  212.0360  154.5340 C   0  0  1  0  0  3  0  0  0  0  0  0
  157.6850  213.1760  152.8080 C   0  0  0  0  0  1  0  0  0  0  0  0
  158.5050  213.2980  157.2600 C   0  0  0  0  0  2  0  0  0  0  0  0
  156.8930  213.1010  155.2230 C   0  0  1  0  0  3  0  0  0  0  0  0
  157.1080  211.3700  156.9200 O   0  0  0  0  0  1  0  0  0  0  0  0
  159.5780  211.9390  155.8920 O   0  0  0  0  0  0  0  0  0  0  0  0
  158.1150  213.1360  154.2710 C   0  0  1  0  0  3  0  0  0  0  0  0
  155.8810  212.2790  154.7150 O   0  0  0  0  0  1  0  0  0  0  0  0
  157.1800  212.7510  156.7000 C   0  0  1  0  0  3  0  0  0  0  0  0
  1  7  1  1  0  0  0
  1  6  1  0  0  0  0
  2  3  1  6  0  0  0
  2  1  1  0  0  0  0
  4  6  1  0  0  0  0
  4 44  1  1  0  0  0
  5  4  1  0  0  0  0
  8 12  1  6  0  0  0
  8  3  1  0  0  0  0
  8  5  1  0  0  0  0
  9 19  1  0  0  0  0
  9 13  2  0  0  0  0
 10 18  2  0  0  0  0
 11 10  1  0  0  0  0
 13 16  1  0  0  0  0
 14 17  1  0  0  0  0
 15 14  1  0  0  0  0
 16 14  2  0  0  0  0
 16 11  1  0  0  0  0
 17 12  2  0  0  0  0
 18 12  1  0  0  0  0
 19 15  2  0  0  0  0
 20  9  1  0  0  0  0
 21 20  1  0  0  0  0
 22 29  1  6  0  0  0
 22  2  1  0  0  0  0
 23 25  2  0  0  0  0
 24 22  1  0  0  0  0
 25 24  1  0  0  0  0
 27 26  1  6  0  0  0
 27 28  1  0  0  0  0
 27 25  1  0  0  0  0
 28 30  1  1  0  0  0
 28 29  1  0  0  0  0
 31 32  1  0  0  0  0
 31 30  1  0  0  0  0
 32 40  1  6  0  0  0
 32 33  1  0  0  0  0
 33 34  1  0  0  0  0
 34 35  1  0  0  0  0
 35 36  1  0  0  0  0
 36 37  1  0  0  0  0
 36 38  1  0  0  0  0
 39 38  1  0  0  0  0
 41 43  2  0  0  0  0
 42 43  1  0  0  0  0
 43 40  1  0  0  0  0
 45 44  1  0  0  0  0
 46 49  1  0  0  0  0
 47 45  1  6  0  0  0
 47 52  1  0  0  0  0
 50 54  1  6  0  0  0
 50 55  1  0  0  0  0
 52 46  1  0  0  0  0
 53 48  1  6  0  0  0
 53 47  1  0  0  0  0
 53 50  1  0  0  0  0
 55 51  1  6  0  0  0
 55 49  1  0  0  0  0
M  END
>  <MODEL>
6

>  <REMARK>
 VINA RESULT:      -4.0      2.563      9.904
  Name = 
  16 active torsions:
  status: ('A' for Active; 'I' for Inactive)
    1  A    between atoms: C_1  and  O_4
    2  A    between atoms: C_2  and  C_26
    3  A    between atoms: C_2  and  C_34
    4  A    between atoms: C_3  and  C_25
    5  A    between atoms: C_3  and  C_37
    6  A    between atoms: C_6  and  C_30
    7  A    between atoms: C_7  and  C_25
    8  A    between atoms: C_7  and  C_39
    9  A    between atoms: C_8  and  N_28
   10  A    between atoms: N_12  and  C_15
   11  A    between atoms: C_23  and  C_53
   12  A    between atoms: C_24  and  N_32
   13  A    between atoms: C_25  and  C_34
   14  A    between atoms: C_26  and  N_28
   15  A    between atoms: C_30  and  N_32
   16  A    between atoms: C_39  and  C_49
                            x       y       z     vdW  Elec       q    Type
                         _______ _______ _______ _____ _____    ______ ____

>  <TORSDO>
F 16

$$$$
=
 OpenBabel11052410213D

 55 59  0  0  1  0  0  0  0  0999 V2000
  160.1780  213.1040  150.1710 C   0  0  2  0  0  3  0  0  0  0  0  0
  161.2000  212.5040  151.0610 N   0  0  2  0  0  0  0  0  0  0  0  0
  162.0130  211.4470  150.4150 C   0  0  0  0  0  2  0  0  0  0  0  0
  161.7720  212.9980  148.1120 C   0  0  2  0  0  3  0  0  0  0  0  0
  161.4230  211.5110  147.9120 C   0  0  0  0  0  2  0  0  0  0  0  0
  160.7840  213.8340  148.9570 C   0  0  0  0  0  2  0  0  0  0  0  0
  159.4010  214.0150  150.8730 F   0  0  0  0  0  0  0  0  0  0  0  0
  161.2730  210.7660  149.2460 C   0  0  1  0  0  3  0  0  0  0  0  0
  161.5810  204.6830  146.8300 C   0  0  0  0  0  0  0  0  0  0  0  0
  162.7060  207.4950  150.4330 C   0  0  0  0  0  3  0  0  0  0  0  0
  163.3580  206.9150  149.2210 C   0  0  0  0  0  2  0  0  0  0  0  0
  161.5910  209.3140  149.1470 C   0  0  0  0  0  0  0  0  0  0  0  0
  162.3880  205.1570  147.8160 N   0  0  0  0  0  0  0  0  0  0  0  0
  161.4160  207.3430  147.6530 C   0  0  0  0  0  0  0  0  0  0  0  0
  160.5860  206.8710  146.6320 C   0  0  0  0  0  3  0  0  0  0  0  0
  162.3360  206.4500  148.2390 C   0  0  0  0  0  0  0  0  0  0  0  0
  161.3140  208.7300  148.0110 N   0  0  0  0  0  0  0  0  0  0  0  0
  161.9480  208.5870  150.3810 C   0  0  0  0  0  3  0  0  0  0  0  0
  160.6560  205.5400  146.2190 C   0  0  0  0  0  3  0  0  0  0  0  0
  161.6910  203.3520  146.4310 O   0  0  0  0  0  0  0  0  0  0  0  0
  161.1970  202.9360  145.2590 O   0  0  0  0  0  1  0  0  0  0  0  0
  160.5370  211.9710  152.2660 C   0  0  1  0  0  3  0  0  0  0  0  0
  158.6230  214.0930  154.5040 O   0  0  0  0  0  0  0  0  0  0  0  0
  160.1640  213.0050  153.1980 O   0  0  0  0  0  0  0  0  0  0  0  0
  158.9030  213.0850  153.8080 C   0  0  0  0  0  0  0  0  0  0  0  0
  157.1050  211.8310  154.7110 F   0  0  0  0  0  0  0  0  0  0  0  0
  157.8570  212.0410  153.5680 C   0  0  2  0  0  3  0  0  0  0  0  0
  158.4870  210.7380  153.0700 C   0  0  1  0  0  3  0  0  0  0  0  0
  159.3730  211.0610  151.8650 C   0  0  0  0  0  2  0  0  0  0  0  0
  159.2930  210.0180  154.1590 C   0  0  0  0  0  2  0  0  0  0  0  0
  160.1050  208.8500  153.6070 C   0  0  0  0  0  2  0  0  0  0  0  0
  161.1500  208.3450  154.5950 C   0  0  2  0  0  3  0  0  0  0  0  0
  161.1570  206.8260  154.5530 C   0  0  0  0  0  2  0  0  0  0  0  0
  160.9380  206.3210  153.1380 C   0  0  0  0  0  2  0  0  0  0  0  0
  161.2970  204.8480  153.0730 C   0  0  0  0  0  2  0  0  0  0  0  0
  160.4910  204.1910  152.0540 N   0  0  0  0  0  0  0  0  0  0  0  0
  160.4600  205.0770  150.9030 C   0  0  0  0  0  1  0  0  0  0  0  0
  161.2060  202.9890  151.6460 C   0  0  0  0  0  2  0  0  0  0  0  0
  160.6200  202.4600  150.4960 O   0  0  0  0  0  1  0  0  0  0  0  0
  160.8440  208.8270  156.0080 C   0  0  0  0  0  2  0  0  0  0  0  0
  162.8210  209.3650  157.2280 O   0  0  0  0  0  1  0  0  0  0  0  0
  161.8980  211.0910  156.0280 O   0  0  0  0  0  0  0  0  0  0  0  0
  161.9030  209.7710  156.4650 C   0  0  0  0  0  0  0  0  0  0  0  0
  162.1280  213.6520  146.8510 N   0  0  0  0  0  2  0  0  0  0  0  0
  160.9720  214.3450  146.2820 C   0  0  0  0  0  2  0  0  0  0  0  0
  162.7330  213.0750  144.1410 O   0  0  0  0  0  0  0  0  0  0  0  0
  160.8560  214.0630  144.7830 C   0  0  1  0  0  3  0  0  0  0  0  0
  158.8350  212.5570  145.1680 C   0  0  0  0  0  1  0  0  0  0  0  0
  162.7050  212.5840  142.8180 C   0  0  0  0  0  2  0  0  0  0  0  0
  160.1190  212.3180  142.9880 C   0  0  1  0  0  3  0  0  0  0  0  0
  161.1930  213.9840  141.5760 O   0  0  0  0  0  1  0  0  0  0  0  0
  162.1080  214.2460  144.1400 O   0  0  0  0  0  0  0  0  0  0  0  0
  160.1940  212.6930  144.4890 C   0  0  1  0  0  3  0  0  0  0  0  0
  158.9390  212.7920  142.4060 O   0  0  0  0  0  1  0  0  0  0  0  0
  161.3380  212.7010  142.1200 C   0  0  1  0  0  3  0  0  0  0  0  0
  1  7  1  1  0  0  0
  1  2  1  0  0  0  0
  2  3  1  6  0  0  0
  2 22  1  0  0  0  0
  4 44  1  6  0  0  0
  4  6  1  0  0  0  0
  5  4  1  0  0  0  0
  5  8  1  0  0  0  0
  6  1  1  0  0  0  0
  8 12  1  6  0  0  0
  8  3  1  0  0  0  0
  9 13  2  0  0  0  0
 11 10  1  0  0  0  0
 12 18  1  0  0  0  0
 13 16  1  0  0  0  0
 14 17  1  0  0  0  0
 14 16  2  0  0  0  0
 15 14  1  0  0  0  0
 16 11  1  0  0  0  0
 17 12  2  0  0  0  0
 18 10  2  0  0  0  0
 19 15  2  0  0  0  0
 19  9  1  0  0  0  0
 20  9  1  0  0  0  0
 21 20  1  0  0  0  0
 22 29  1  6  0  0  0
 22 24  1  0  0  0  0
 24 25  1  0  0  0  0
 25 23  2  0  0  0  0
 27 25  1  0  0  0  0
 27 26  1  1  0  0  0
 28 27  1  0  0  0  0
 28 30  1  1  0  0  0
 29 28  1  0  0  0  0
 31 30  1  0  0  0  0
 32 31  1  6  0  0  0
 32 40  1  0  0  0  0
 33 32  1  0  0  0  0
 34 33  1  0  0  0  0
 35 34  1  0  0  0  0
 36 35  1  0  0  0  0
 37 36  1  0  0  0  0
 38 36  1  0  0  0  0
 39 38  1  0  0  0  0
 40 43  1  0  0  0  0
 42 43  2  0  0  0  0
 43 41  1  0  0  0  0
 45 44  1  0  0  0  0
 47 45  1  1  0  0  0
 49 46  1  0  0  0  0
 50 54  1  6  0  0  0
 50 53  1  0  0  0  0
 52 46  1  0  0  0  0
 52 47  1  0  0  0  0
 53 47  1  0  0  0  0
 53 48  1  6  0  0  0
 55 51  1  1  0  0  0
 55 49  1  0  0  0  0
 55 50  1  0  0  0  0
M  END
>  <MODEL>
7

>  <REMARK>
 VINA RESULT:      -3.9      2.506      5.208
  Name = 
  16 active torsions:
  status: ('A' for Active; 'I' for Inactive)
    1  A    between atoms: C_1  and  O_4
    2  A    between atoms: C_2  and  C_26
    3  A    between atoms: C_2  and  C_34
    4  A    between atoms: C_3  and  C_25
    5  A    between atoms: C_3  and  C_37
    6  A    between atoms: C_6  and  C_30
    7  A    between atoms: C_7  and  C_25
    8  A    between atoms: C_7  and  C_39
    9  A    between atoms: C_8  and  N_28
   10  A    between atoms: N_12  and  C_15
   11  A    between atoms: C_23  and  C_53
   12  A    between atoms: C_24  and  N_32
   13  A    between atoms: C_25  and  C_34
   14  A    between atoms: C_26  and  N_28
   15  A    between atoms: C_30  and  N_32
   16  A    between atoms: C_39  and  C_49
                            x       y       z     vdW  Elec       q    Type
                         _______ _______ _______ _____ _____    ______ ____

>  <TORSDO>
F 16

$$$$
