=
 OpenBabel11052409273D

 35 39  0  0  1  0  0  0  0  0999 V2000
  160.7350  210.9820  154.8600 N   0  0  0  0  0  0  0  0  0  0  0  0
  162.0850  209.0350  151.6420 C   0  0  0  0  0  2  0  0  0  0  0  0
  159.7610  204.0300  150.1360 N   0  0  0  0  0  1  0  0  0  0  0  0
  160.0500  209.4340  153.0960 C   0  0  2  0  0  3  0  0  0  0  0  0
  161.3820  205.8740  152.6380 C   0  0  0  0  0  3  0  0  0  0  0  0
  161.4420  208.7300  155.0720 N   0  0  0  0  0  2  0  0  0  0  0  0
  160.1200  212.0650  154.1480 C   0  0  0  0  0  3  0  0  0  0  0  0
  162.3500  205.5220  147.1320 N   0  0  0  0  0  0  0  0  0  0  0  0
  161.3760  205.5850  149.0380 C   0  0  0  0  0  0  0  0  0  0  0  0
  159.7590  210.6360  152.3160 N   0  0  0  0  0  2  0  0  0  0  0  0
  162.4320  206.7490  147.5610 O   0  0  0  0  0  0  0  0  0  0  0  0
  161.8380  206.8490  148.7270 C   0  0  0  0  0  0  0  0  0  0  0  0
  160.7640  209.7780  154.3750 C   0  0  0  0  0  0  0  0  0  0  0  0
  159.6760  211.8920  152.9400 N   0  0  0  0  0  0  0  0  0  0  0  0
  160.6490  205.1380  150.2390 C   0  0  0  0  0  0  0  0  0  0  0  0
  161.6990  204.7750  148.0120 N   0  0  0  0  0  0  0  0  0  0  0  0
  161.5790  207.4380  154.4660 C   0  0  0  0  0  3  0  0  0  0  0  0
  160.8510  208.3980  152.2950 C   0  0  2  0  0  3  0  0  0  0  0  0
  162.6350  208.1840  150.5890 N   0  0  0  0  0  2  0  0  0  0  0  0
  161.2590  207.2350  153.1780 C   0  0  0  0  0  0  0  0  0  0  0  0
  161.6620  208.1110  149.5080 C   0  0  1  0  0  3  0  0  0  0  0  0
  161.0130  205.5380  151.4290 C   0  0  0  0  0  0  0  0  0  0  0  0
  161.7410  209.3470  148.6180 C   0  0  0  0  0  2  0  0  0  0  0  0
  161.9550  210.5950  149.4630 C   0  0  0  0  0  2  0  0  0  0  0  0
  162.3990  211.6460  148.6560 O   0  0  0  0  0  0  0  0  0  0  0  0
  161.0900  212.5610  146.2230 C   0  0  1  0  0  3  0  0  0  0  0  0
  161.3850  212.6060  148.7200 C   0  0  1  0  0  3  0  0  0  0  0  0
  162.4270  214.4010  147.2640 C   0  0  0  0  0  3  0  0  0  0  0  0
  161.9760  214.0190  148.6510 C   0  0  0  0  0  2  0  0  0  0  0  0
  161.9890  213.7720  146.1630 C   0  0  0  0  0  3  0  0  0  0  0  0
  160.3890  212.4060  147.5770 C   0  0  0  0  0  2  0  0  0  0  0  0
  160.5800  212.6340  143.7580 N   0  0  0  0  0  2  0  0  0  0  0  0
  159.6750  212.6370  142.6200 C   0  0  0  0  0  1  0  0  0  0  0  0
  160.1050  212.5760  145.1040 C   0  0  0  0  0  0  0  0  0  0  0  0
  158.8660  212.5410  145.3440 O   0  0  0  0  0  0  0  0  0  0  0  0
  3 15  1  0  0  0  0
  4 10  1  6  0  0  0
  4 13  1  0  0  0  0
  5 20  1  0  0  0  0
  7  1  1  0  0  0  0
  8 11  1  0  0  0  0
  8 16  2  0  0  0  0
  9 15  1  0  0  0  0
 10 14  1  0  0  0  0
 11 12  1  0  0  0  0
 12  9  2  0  0  0  0
 12 21  1  0  0  0  0
 13  1  2  0  0  0  0
 13  6  1  0  0  0  0
 14  7  2  0  0  0  0
 15 22  2  0  0  0  0
 16  9  1  0  0  0  0
 17  6  1  0  0  0  0
 18  2  1  1  0  0  0
 18  4  1  0  0  0  0
 18 20  1  0  0  0  0
 19  2  1  0  0  0  0
 20 17  2  0  0  0  0
 21 23  1  6  0  0  0
 21 19  1  0  0  0  0
 22  5  2  0  0  0  0
 23 24  1  0  0  0  0
 25 24  1  0  0  0  0
 26 34  1  6  0  0  0
 26 31  1  0  0  0  0
 27 25  1  6  0  0  0
 28 29  1  0  0  0  0
 29 27  1  0  0  0  0
 30 26  1  0  0  0  0
 30 28  2  0  0  0  0
 31 27  1  0  0  0  0
 32 34  1  0  0  0  0
 33 32  1  0  0  0  0
 34 35  2  0  0  0  0
M  END
>  <MODEL>
1

>  <REMARK>
 VINA RESULT:      -8.1      0.000      0.000
  Name = 
  5 active torsions:
  status: ('A' for Active; 'I' for Inactive)
    1  A    between atoms: C_2  and  C_22
    2  A    between atoms: C_6  and  O_20
    3  A    between atoms: C_18  and  O_20
    4  A    between atoms: C_18  and  C_24
    5  A    between atoms: C_24  and  C_34
                            x       y       z     vdW  Elec       q    Type
                         _______ _______ _______ _____ _____    ______ ____

>  <TORSDO>
F 5

$$$$
=
 OpenBabel11052409273D

 35 39  0  0  1  0  0  0  0  0999 V2000
  159.9310  209.2660  156.9280 N   0  0  0  0  0  0  0  0  0  0  0  0
  160.4470  209.4070  152.9670 C   0  0  0  0  0  2  0  0  0  0  0  0
  160.7020  214.4530  150.2890 N   0  0  0  0  0  1  0  0  0  0  0  0
  160.8640  210.6450  155.1380 C   0  0  2  0  0  3  0  0  0  0  0  0
  158.8380  212.3250  152.3570 C   0  0  0  0  0  3  0  0  0  0  0  0
  158.3930  210.4810  155.5950 N   0  0  0  0  0  2  0  0  0  0  0  0
  161.2460  208.7900  157.2460 C   0  0  0  0  0  3  0  0  0  0  0  0
  161.8100  211.2630  147.7290 N   0  0  0  0  0  0  0  0  0  0  0  0
  161.1400  212.0990  149.5840 C   0  0  0  0  0  0  0  0  0  0  0  0
  162.0800  209.8570  155.3250 N   0  0  0  0  0  2  0  0  0  0  0  0
  162.0000  210.3580  148.6460 O   0  0  0  0  0  0  0  0  0  0  0  0
  161.6160  210.8230  149.8110 C   0  0  0  0  0  0  0  0  0  0  0  0
  159.7210  210.0740  155.9330 C   0  0  0  0  0  0  0  0  0  0  0  0
  162.2510  209.0640  156.4710 N   0  0  0  0  0  0  0  0  0  0  0  0
  160.5770  213.0600  150.5480 C   0  0  0  0  0  0  0  0  0  0  0  0
  161.2880  212.3550  148.2700 N   0  0  0  0  0  0  0  0  0  0  0  0
  158.1620  211.2670  154.4190 C   0  0  0  0  0  3  0  0  0  0  0  0
  160.4750  210.7760  153.6590 C   0  0  2  0  0  3  0  0  0  0  0  0
  160.4580  209.5380  151.5120 N   0  0  0  0  0  2  0  0  0  0  0  0
  159.1340  211.4700  153.5150 C   0  0  0  0  0  0  0  0  0  0  0  0
  161.7390  210.1060  151.1170 C   0  0  1  0  0  3  0  0  0  0  0  0
  159.7290  212.6690  151.4640 C   0  0  0  0  0  0  0  0  0  0  0  0
  162.8240  209.0330  151.0780 C   0  0  0  0  0  2  0  0  0  0  0  0
  162.2030  207.6630  150.8500 C   0  0  0  0  0  2  0  0  0  0  0  0
  162.4150  207.2590  149.5290 O   0  0  0  0  0  0  0  0  0  0  0  0
  161.6260  204.5370  148.8620 C   0  0  1  0  0  3  0  0  0  0  0  0
  161.1390  206.9990  149.0190 C   0  0  1  0  0  3  0  0  0  0  0  0
  161.7850  205.9500  146.8040 C   0  0  0  0  0  3  0  0  0  0  0  0
  161.1330  207.1230  147.4920 C   0  0  0  0  0  2  0  0  0  0  0  0
  161.9660  204.7670  147.4100 C   0  0  0  0  0  3  0  0  0  0  0  0
  160.6770  205.6000  149.4270 C   0  0  0  0  0  2  0  0  0  0  0  0
  161.1690  202.2130  148.0080 N   0  0  0  0  0  2  0  0  0  0  0  0
  160.6730  200.8540  148.1490 C   0  0  0  0  0  1  0  0  0  0  0  0
  161.0840  203.1640  149.0710 C   0  0  0  0  0  0  0  0  0  0  0  0
  160.5550  202.8480  150.1720 O   0  0  0  0  0  0  0  0  0  0  0  0
  1  7  1  0  0  0  0
  3 15  1  0  0  0  0
  4 10  1  6  0  0  0
  4 13  1  0  0  0  0
  5 20  1  0  0  0  0
  6 13  1  0  0  0  0
  8 16  2  0  0  0  0
  8 11  1  0  0  0  0
  9 12  2  0  0  0  0
  9 15  1  0  0  0  0
 10 14  1  0  0  0  0
 11 12  1  0  0  0  0
 12 21  1  0  0  0  0
 13  1  2  0  0  0  0
 14  7  2  0  0  0  0
 15 22  2  0  0  0  0
 16  9  1  0  0  0  0
 17  6  1  0  0  0  0
 18  2  1  1  0  0  0
 18  4  1  0  0  0  0
 19  2  1  0  0  0  0
 20 18  1  0  0  0  0
 20 17  2  0  0  0  0
 21 23  1  6  0  0  0
 21 19  1  0  0  0  0
 22  5  2  0  0  0  0
 24 23  1  0  0  0  0
 25 24  1  0  0  0  0
 26 34  1  6  0  0  0
 26 31  1  0  0  0  0
 27 31  1  0  0  0  0
 27 25  1  6  0  0  0
 28 30  2  0  0  0  0
 28 29  1  0  0  0  0
 29 27  1  0  0  0  0
 30 26  1  0  0  0  0
 32 33  1  0  0  0  0
 32 34  1  0  0  0  0
 34 35  2  0  0  0  0
M  END
>  <MODEL>
2

>  <REMARK>
 VINA RESULT:      -7.6      2.743      6.603
  Name = 
  5 active torsions:
  status: ('A' for Active; 'I' for Inactive)
    1  A    between atoms: C_2  and  C_22
    2  A    between atoms: C_6  and  O_20
    3  A    between atoms: C_18  and  O_20
    4  A    between atoms: C_18  and  C_24
    5  A    between atoms: C_24  and  C_34
                            x       y       z     vdW  Elec       q    Type
                         _______ _______ _______ _____ _____    ______ ____

>  <TORSDO>
F 5

$$$$
=
 OpenBabel11052409273D

 35 39  0  0  1  0  0  0  0  0999 V2000
  158.6980  214.4520  153.1570 N   0  0  0  0  0  0  0  0  0  0  0  0
  160.7360  211.0230  152.9070 C   0  0  0  0  0  2  0  0  0  0  0  0
  159.2670  206.5730  156.1850 N   0  0  0  0  0  1  0  0  0  0  0  0
  158.4720  212.0330  153.4300 C   0  0  2  0  0  3  0  0  0  0  0  0
  160.2660  209.9310  156.0800 C   0  0  0  0  0  3  0  0  0  0  0  0
  159.6250  213.5010  155.1200 N   0  0  0  0  0  2  0  0  0  0  0  0
  158.0750  214.3640  151.8680 C   0  0  0  0  0  3  0  0  0  0  0  0
  162.0860  205.4710  153.2190 N   0  0  0  0  0  0  0  0  0  0  0  0
  160.8360  206.8610  154.2650 C   0  0  0  0  0  0  0  0  0  0  0  0
  158.1640  212.0190  152.0010 N   0  0  0  0  0  2  0  0  0  0  0  0
  161.9580  206.5180  152.4560 O   0  0  0  0  0  0  0  0  0  0  0  0
  161.1880  207.4020  153.0440 C   0  0  0  0  0  0  0  0  0  0  0  0
  158.9420  213.3940  153.8690 C   0  0  0  0  0  0  0  0  0  0  0  0
  157.8420  213.2080  151.3260 N   0  0  0  0  0  0  0  0  0  0  0  0
  159.9940  207.4420  155.3250 C   0  0  0  0  0  0  0  0  0  0  0  0
  161.4020  205.6410  154.3420 N   0  0  0  0  0  0  0  0  0  0  0  0
  160.0010  212.3170  155.8350 C   0  0  0  0  0  3  0  0  0  0  0  0
  159.5010  210.9610  153.8160 C   0  0  2  0  0  3  0  0  0  0  0  0
  161.5340  209.8030  153.0000 N   0  0  0  0  0  2  0  0  0  0  0  0
  159.9050  211.1030  155.2700 C   0  0  0  0  0  0  0  0  0  0  0  0
  160.7500  208.7040  152.4550 C   0  0  1  0  0  3  0  0  0  0  0  0
  160.1250  208.6970  155.6710 C   0  0  0  0  0  0  0  0  0  0  0  0
  160.8160  208.6900  150.9300 C   0  0  0  0  0  2  0  0  0  0  0  0
  162.2620  208.5870  150.4650 C   0  0  0  0  0  2  0  0  0  0  0  0
  162.4300  207.4370  149.6880 O   0  0  0  0  0  0  0  0  0  0  0  0
  161.6320  204.7160  149.0320 C   0  0  1  0  0  3  0  0  0  0  0  0
  161.1710  207.1860  149.1340 C   0  0  1  0  0  3  0  0  0  0  0  0
  161.8870  206.0950  146.9610 C   0  0  0  0  0  3  0  0  0  0  0  0
  161.2250  207.2860  147.6060 C   0  0  0  0  0  2  0  0  0  0  0  0
  162.0290  204.9190  147.5910 C   0  0  0  0  0  3  0  0  0  0  0  0
  160.6760  205.7980  149.5450 C   0  0  0  0  0  2  0  0  0  0  0  0
  160.8230  202.5180  148.1060 N   0  0  0  0  0  2  0  0  0  0  0  0
  160.2840  201.1750  148.2390 C   0  0  0  0  0  1  0  0  0  0  0  0
  161.0650  203.3530  149.2400 C   0  0  0  0  0  0  0  0  0  0  0  0
  160.8000  202.9440  150.4040 O   0  0  0  0  0  0  0  0  0  0  0  0
  1 13  2  0  0  0  0
  2 19  1  0  0  0  0
  4 10  1  6  0  0  0
  4 18  1  0  0  0  0
  4 13  1  0  0  0  0
  6 17  1  0  0  0  0
  7  1  1  0  0  0  0
  8 16  2  0  0  0  0
  9 16  1  0  0  0  0
  9 15  1  0  0  0  0
 11 12  1  0  0  0  0
 11  8  1  0  0  0  0
 12  9  2  0  0  0  0
 13  6  1  0  0  0  0
 14  7  2  0  0  0  0
 14 10  1  0  0  0  0
 15 22  2  0  0  0  0
 15  3  1  0  0  0  0
 18  2  1  6  0  0  0
 18 20  1  0  0  0  0
 20 17  2  0  0  0  0
 20  5  1  0  0  0  0
 21 23  1  6  0  0  0
 21 19  1  0  0  0  0
 21 12  1  0  0  0  0
 22  5  2  0  0  0  0
 24 23  1  0  0  0  0
 25 24  1  0  0  0  0
 26 34  1  6  0  0  0
 26 31  1  0  0  0  0
 27 31  1  0  0  0  0
 27 25  1  1  0  0  0
 28 30  2  0  0  0  0
 28 29  1  0  0  0  0
 29 27  1  0  0  0  0
 30 26  1  0  0  0  0
 32 33  1  0  0  0  0
 32 34  1  0  0  0  0
 34 35  2  0  0  0  0
M  END
>  <MODEL>
3

>  <REMARK>
 VINA RESULT:      -7.5      3.801      6.217
  Name = 
  5 active torsions:
  status: ('A' for Active; 'I' for Inactive)
    1  A    between atoms: C_2  and  C_22
    2  A    between atoms: C_6  and  O_20
    3  A    between atoms: C_18  and  O_20
    4  A    between atoms: C_18  and  C_24
    5  A    between atoms: C_24  and  C_34
                            x       y       z     vdW  Elec       q    Type
                         _______ _______ _______ _____ _____    ______ ____

>  <TORSDO>
F 5

$$$$
=
 OpenBabel11052409273D

 35 39  0  0  1  0  0  0  0  0999 V2000
  161.5390  207.4080  149.8820 N   0  0  0  0  0  0  0  0  0  0  0  0
  159.7730  210.0120  152.3450 C   0  0  0  0  0  2  0  0  0  0  0  0
  162.3110  211.4880  157.2540 N   0  0  0  0  0  1  0  0  0  0  0  0
  162.0100  209.1140  151.5690 C   0  0  2  0  0  3  0  0  0  0  0  0
  161.0570  208.8840  155.2700 C   0  0  0  0  0  3  0  0  0  0  0  0
  161.1760  206.8090  152.1460 N   0  0  0  0  0  2  0  0  0  0  0  0
  161.8480  208.3500  148.8450 C   0  0  0  0  0  3  0  0  0  0  0  0
  158.9700  213.9550  156.4140 N   0  0  0  0  0  0  0  0  0  0  0  0
  160.3190  212.3400  156.0150 C   0  0  0  0  0  0  0  0  0  0  0  0
  161.9750  210.0580  150.4540 N   0  0  0  0  0  2  0  0  0  0  0  0
  158.8330  213.6470  155.1560 O   0  0  0  0  0  0  0  0  0  0  0  0
  159.6480  212.6650  154.8520 C   0  0  0  0  0  0  0  0  0  0  0  0
  161.5530  207.7470  151.1350 C   0  0  0  0  0  0  0  0  0  0  0  0
  162.0370  209.6030  149.1270 N   0  0  0  0  0  0  0  0  0  0  0  0
  161.3380  211.2990  156.2330 C   0  0  0  0  0  0  0  0  0  0  0  0
  159.8830  213.1760  156.9760 N   0  0  0  0  0  0  0  0  0  0  0  0
  161.0710  207.2310  153.5120 C   0  0  0  0  0  3  0  0  0  0  0  0
  161.1880  209.5980  152.7710 C   0  0  2  0  0  3  0  0  0  0  0  0
  159.1160  210.8180  153.3730 N   0  0  0  0  0  2  0  0  0  0  0  0
  161.1260  208.5300  153.8460 C   0  0  0  0  0  0  0  0  0  0  0  0
  159.8340  212.0790  153.4890 C   0  0  1  0  0  3  0  0  0  0  0  0
  161.1940  210.1040  155.7210 C   0  0  0  0  0  0  0  0  0  0  0  0
  159.4130  213.0500  152.3900 C   0  0  0  0  0  2  0  0  0  0  0  0
  160.4940  213.1420  151.3230 C   0  0  0  0  0  2  0  0  0  0  0  0
  159.9730  212.7590  150.0840 O   0  0  0  0  0  0  0  0  0  0  0  0
  159.9720  212.5450  147.1810 C   0  0  1  0  0  3  0  0  0  0  0  0
  160.0400  213.9100  149.2910 C   0  0  1  0  0  3  0  0  0  0  0  0
  162.1690  213.4050  148.0110 C   0  0  0  0  0  3  0  0  0  0  0  0
  161.4990  214.2970  149.0260 C   0  0  0  0  0  2  0  0  0  0  0  0
  161.4770  212.6480  147.1460 C   0  0  0  0  0  3  0  0  0  0  0  0
  159.3140  213.6860  147.9640 C   0  0  0  0  0  2  0  0  0  0  0  0
  160.3070  212.4680  144.6860 N   0  0  0  0  0  2  0  0  0  0  0  0
  159.8310  212.3620  143.3170 C   0  0  0  0  0  1  0  0  0  0  0  0
  159.4140  212.4460  145.8020 C   0  0  0  0  0  0  0  0  0  0  0  0
  158.1690  212.3470  145.6230 O   0  0  0  0  0  0  0  0  0  0  0  0
  1 13  2  0  0  0  0
  2 19  1  0  0  0  0
  4 10  1  6  0  0  0
  4 18  1  0  0  0  0
  5 22  2  0  0  0  0
  6 17  1  0  0  0  0
  7 14  2  0  0  0  0
  7  1  1  0  0  0  0
  8 16  2  0  0  0  0
  9 15  1  0  0  0  0
  9 16  1  0  0  0  0
 11  8  1  0  0  0  0
 12 11  1  0  0  0  0
 12  9  2  0  0  0  0
 13  4  1  0  0  0  0
 13  6  1  0  0  0  0
 14 10  1  0  0  0  0
 15  3  1  0  0  0  0
 17 20  2  0  0  0  0
 18  2  1  6  0  0  0
 18 20  1  0  0  0  0
 19 21  1  0  0  0  0
 20  5  1  0  0  0  0
 21 23  1  6  0  0  0
 21 12  1  0  0  0  0
 22 15  2  0  0  0  0
 24 23  1  0  0  0  0
 25 24  1  0  0  0  0
 26 34  1  6  0  0  0
 26 31  1  0  0  0  0
 27 25  1  1  0  0  0
 28 29  1  0  0  0  0
 29 27  1  0  0  0  0
 30 26  1  0  0  0  0
 30 28  2  0  0  0  0
 31 27  1  0  0  0  0
 32 34  1  0  0  0  0
 33 32  1  0  0  0  0
 35 34  2  0  0  0  0
M  END
>  <MODEL>
4

>  <REMARK>
 VINA RESULT:      -7.4      2.185      5.736
  Name = 
  5 active torsions:
  status: ('A' for Active; 'I' for Inactive)
    1  A    between atoms: C_2  and  C_22
    2  A    between atoms: C_6  and  O_20
    3  A    between atoms: C_18  and  O_20
    4  A    between atoms: C_18  and  C_24
    5  A    between atoms: C_24  and  C_34
                            x       y       z     vdW  Elec       q    Type
                         _______ _______ _______ _____ _____    ______ ____

>  <TORSDO>
F 5

$$$$
=
 OpenBabel11052409273D

 35 39  0  0  1  0  0  0  0  0999 V2000
  161.2060  202.8250  145.8010 N   0  0  0  0  0  0  0  0  0  0  0  0
  160.4560  205.8320  148.3240 C   0  0  0  0  0  2  0  0  0  0  0  0
  162.7700  205.8280  153.5540 N   0  0  0  0  0  1  0  0  0  0  0  0
  162.1610  204.0750  147.6720 C   0  0  2  0  0  3  0  0  0  0  0  0
  160.7640  204.1290  151.2360 C   0  0  0  0  0  3  0  0  0  0  0  0
  160.3500  202.3490  147.9590 N   0  0  0  0  0  2  0  0  0  0  0  0
  162.0140  203.5780  144.8860 C   0  0  0  0  0  3  0  0  0  0  0  0
  160.9510  209.5470  152.6480 N   0  0  0  0  0  0  0  0  0  0  0  0
  161.5070  207.5220  152.2250 C   0  0  0  0  0  0  0  0  0  0  0  0
  162.6720  204.9860  146.6500 N   0  0  0  0  0  2  0  0  0  0  0  0
  160.8480  209.3840  151.3600 O   0  0  0  0  0  0  0  0  0  0  0  0
  161.1890  208.1590  151.0410 C   0  0  0  0  0  0  0  0  0  0  0  0
  161.2140  203.0680  147.0760 C   0  0  0  0  0  0  0  0  0  0  0  0
  162.6900  204.6070  145.2970 N   0  0  0  0  0  0  0  0  0  0  0  0
  161.9420  206.1310  152.4370 C   0  0  0  0  0  0  0  0  0  0  0  0
  161.3630  208.4220  153.2160 N   0  0  0  0  0  0  0  0  0  0  0  0
  160.2740  202.7150  149.3430 C   0  0  0  0  0  3  0  0  0  0  0  0
  161.4900  204.8190  148.8350 C   0  0  2  0  0  3  0  0  0  0  0  0
  160.0930  206.7990  149.3570 N   0  0  0  0  0  2  0  0  0  0  0  0
  160.8440  203.8420  149.7970 C   0  0  0  0  0  0  0  0  0  0  0  0
  161.2660  207.6100  149.6530 C   0  0  1  0  0  3  0  0  0  0  0  0
  161.3590  205.1440  151.8070 C   0  0  0  0  0  0  0  0  0  0  0  0
  161.4420  208.7130  148.6130 C   0  0  0  0  0  2  0  0  0  0  0  0
  162.2750  209.8510  149.1870 C   0  0  0  0  0  2  0  0  0  0  0  0
  162.6560  210.7240  148.1630 O   0  0  0  0  0  0  0  0  0  0  0  0
  160.4550  212.2140  146.9750 C   0  0  1  0  0  3  0  0  0  0  0  0
  162.3310  212.0000  148.6360 C   0  0  1  0  0  3  0  0  0  0  0  0
  162.6460  213.3220  146.4960 C   0  0  0  0  0  3  0  0  0  0  0  0
  163.1430  213.0690  147.8960 C   0  0  0  0  0  2  0  0  0  0  0  0
  161.4140  212.9770  146.0930 C   0  0  0  0  0  3  0  0  0  0  0  0
  160.8370  212.2700  148.4580 C   0  0  0  0  0  2  0  0  0  0  0  0
  158.3430  213.2730  147.8460 N   0  0  0  0  0  2  0  0  0  0  0  0
  156.9800  213.7560  147.7020 C   0  0  0  0  0  1  0  0  0  0  0  0
  159.0540  212.6750  146.7600 C   0  0  0  0  0  0  0  0  0  0  0  0
  158.5030  212.5360  145.6340 O   0  0  0  0  0  0  0  0  0  0  0  0
  1 13  2  0  0  0  0
  2 19  1  0  0  0  0
  4 10  1  6  0  0  0
  4 18  1  0  0  0  0
  5 22  2  0  0  0  0
  6 17  1  0  0  0  0
  7 14  2  0  0  0  0
  7  1  1  0  0  0  0
  8 16  2  0  0  0  0
  9 15  1  0  0  0  0
  9 16  1  0  0  0  0
 11  8  1  0  0  0  0
 12 11  1  0  0  0  0
 12  9  2  0  0  0  0
 13  4  1  0  0  0  0
 13  6  1  0  0  0  0
 14 10  1  0  0  0  0
 15  3  1  0  0  0  0
 17 20  2  0  0  0  0
 18  2  1  6  0  0  0
 18 20  1  0  0  0  0
 19 21  1  0  0  0  0
 20  5  1  0  0  0  0
 21 23  1  6  0  0  0
 21 12  1  0  0  0  0
 22 15  2  0  0  0  0
 23 24  1  0  0  0  0
 25 24  1  0  0  0  0
 26 34  1  1  0  0  0
 26 31  1  0  0  0  0
 27 25  1  6  0  0  0
 28 29  1  0  0  0  0
 29 27  1  0  0  0  0
 30 28  2  0  0  0  0
 30 26  1  0  0  0  0
 31 27  1  0  0  0  0
 33 32  1  0  0  0  0
 34 32  1  0  0  0  0
 35 34  2  0  0  0  0
M  END
>  <MODEL>
5

>  <REMARK>
 VINA RESULT:      -7.4      2.162      5.690
  Name = 
  5 active torsions:
  status: ('A' for Active; 'I' for Inactive)
    1  A    between atoms: C_2  and  C_22
    2  A    between atoms: C_6  and  O_20
    3  A    between atoms: C_18  and  O_20
    4  A    between atoms: C_18  and  C_24
    5  A    between atoms: C_24  and  C_34
                            x       y       z     vdW  Elec       q    Type
                         _______ _______ _______ _____ _____    ______ ____

>  <TORSDO>
F 5

$$$$
=
 OpenBabel11052409273D

 35 39  0  0  1  0  0  0  0  0999 V2000
  161.5040  203.1530  145.7150 N   0  0  0  0  0  0  0  0  0  0  0  0
  160.6110  206.0410  148.3290 C   0  0  0  0  0  2  0  0  0  0  0  0
  162.6870  205.8280  153.6540 N   0  0  0  0  0  1  0  0  0  0  0  0
  162.3610  204.3280  147.6800 C   0  0  2  0  0  3  0  0  0  0  0  0
  160.8040  204.2160  151.1760 C   0  0  0  0  0  3  0  0  0  0  0  0
  160.5560  202.5770  147.8100 N   0  0  0  0  0  2  0  0  0  0  0  0
  162.3450  203.9530  144.8710 C   0  0  0  0  0  3  0  0  0  0  0  0
  160.8750  209.5680  152.8280 N   0  0  0  0  0  0  0  0  0  0  0  0
  161.4690  207.5680  152.3430 C   0  0  0  0  0  0  0  0  0  0  0  0
  162.9090  205.2870  146.7230 N   0  0  0  0  0  2  0  0  0  0  0  0
  160.8310  209.4610  151.5310 O   0  0  0  0  0  0  0  0  0  0  0  0
  161.1980  208.2530  151.1750 C   0  0  0  0  0  0  0  0  0  0  0  0
  161.4520  203.3410  146.9990 C   0  0  0  0  0  0  0  0  0  0  0  0
  162.9910  204.9680  145.3570 N   0  0  0  0  0  0  0  0  0  0  0  0
  161.9070  206.1720  152.5150 C   0  0  0  0  0  0  0  0  0  0  0  0
  161.2710  208.4230  153.3650 N   0  0  0  0  0  0  0  0  0  0  0  0
  160.4140  202.8820  149.2030 C   0  0  0  0  0  3  0  0  0  0  0  0
  161.6310  205.0160  148.8420 C   0  0  2  0  0  3  0  0  0  0  0  0
  160.1930  206.9600  149.3860 N   0  0  0  0  0  2  0  0  0  0  0  0
  160.9520  203.9930  149.7320 C   0  0  0  0  0  0  0  0  0  0  0  0
  161.3430  207.7660  149.7690 C   0  0  1  0  0  3  0  0  0  0  0  0
  161.3630  205.2100  151.8170 C   0  0  0  0  0  0  0  0  0  0  0  0
  161.5550  208.9160  148.7880 C   0  0  0  0  0  2  0  0  0  0  0  0
  162.3250  210.0450  149.4550 C   0  0  0  0  0  2  0  0  0  0  0  0
  162.5440  211.0780  148.5390 O   0  0  0  0  0  0  0  0  0  0  0  0
  162.1160  212.9530  146.3550 C   0  0  1  0  0  3  0  0  0  0  0  0
  161.2910  211.6720  148.3550 C   0  0  1  0  0  3  0  0  0  0  0  0
  161.9560  214.1090  148.5680 C   0  0  0  0  0  3  0  0  0  0  0  0
  161.1830  212.9640  149.1720 C   0  0  0  0  0  2  0  0  0  0  0  0
  162.3370  214.1240  147.2810 C   0  0  0  0  0  3  0  0  0  0  0  0
  161.0580  211.9740  146.8740 C   0  0  0  0  0  2  0  0  0  0  0  0
  162.5830  212.9670  143.8800 N   0  0  0  0  0  2  0  0  0  0  0  0
  162.3110  213.3730  142.5110 C   0  0  0  0  0  1  0  0  0  0  0  0
  161.7880  213.4210  144.9780 C   0  0  0  0  0  0  0  0  0  0  0  0
  160.8230  214.2110  144.7850 O   0  0  0  0  0  0  0  0  0  0  0  0
  1 13  2  0  0  0  0
  2 19  1  0  0  0  0
  4 10  1  6  0  0  0
  4 18  1  0  0  0  0
  5 22  2  0  0  0  0
  6 17  1  0  0  0  0
  7 14  2  0  0  0  0
  7  1  1  0  0  0  0
  8 16  2  0  0  0  0
  9 15  1  0  0  0  0
  9 16  1  0  0  0  0
 11  8  1  0  0  0  0
 12 11  1  0  0  0  0
 12  9  2  0  0  0  0
 13  4  1  0  0  0  0
 13  6  1  0  0  0  0
 14 10  1  0  0  0  0
 15  3  1  0  0  0  0
 17 20  2  0  0  0  0
 18  2  1  6  0  0  0
 18 20  1  0  0  0  0
 19 21  1  0  0  0  0
 20  5  1  0  0  0  0
 21 23  1  6  0  0  0
 21 12  1  0  0  0  0
 22 15  2  0  0  0  0
 23 24  1  0  0  0  0
 25 24  1  0  0  0  0
 26 34  1  6  0  0  0
 26 31  1  0  0  0  0
 26 30  1  0  0  0  0
 27 25  1  6  0  0  0
 27 29  1  0  0  0  0
 28 29  1  0  0  0  0
 30 28  2  0  0  0  0
 31 27  1  0  0  0  0
 32 34  1  0  0  0  0
 33 32  1  0  0  0  0
 35 34  2  0  0  0  0
M  END
>  <MODEL>
6

>  <REMARK>
 VINA RESULT:      -7.3      1.994      5.545
  Name = 
  5 active torsions:
  status: ('A' for Active; 'I' for Inactive)
    1  A    between atoms: C_2  and  C_22
    2  A    between atoms: C_6  and  O_20
    3  A    between atoms: C_18  and  O_20
    4  A    between atoms: C_18  and  C_24
    5  A    between atoms: C_24  and  C_34
                            x       y       z     vdW  Elec       q    Type
                         _______ _______ _______ _____ _____    ______ ____

>  <TORSDO>
F 5

$$$$
=
 OpenBabel11052409273D

 35 39  0  0  1  0  0  0  0  0999 V2000
  161.2030  201.8680  151.7790 N   0  0  0  0  0  0  0  0  0  0  0  0
  162.2510  203.6910  148.3810 C   0  0  0  0  0  2  0  0  0  0  0  0
  158.9050  203.2840  143.7610 N   0  0  0  0  0  1  0  0  0  0  0  0
  160.2820  202.8940  149.7610 C   0  0  2  0  0  3  0  0  0  0  0  0
  160.7570  201.5760  146.1970 C   0  0  0  0  0  3  0  0  0  0  0  0
  161.3410  200.6090  149.7750 N   0  0  0  0  0  2  0  0  0  0  0  0
  160.9090  203.0600  152.5190 C   0  0  0  0  0  3  0  0  0  0  0  0
  161.9560  206.1770  143.2350 N   0  0  0  0  0  0  0  0  0  0  0  0
  160.9080  204.6620  144.3270 C   0  0  0  0  0  0  0  0  0  0  0  0
  160.3340  204.1440  150.5140 N   0  0  0  0  0  2  0  0  0  0  0  0
  162.3000  206.3020  144.4850 O   0  0  0  0  0  0  0  0  0  0  0  0
  161.6750  205.4010  145.2060 C   0  0  0  0  0  0  0  0  0  0  0  0
  160.9770  201.7840  150.5030 C   0  0  0  0  0  0  0  0  0  0  0  0
  160.5130  204.1350  151.9070 N   0  0  0  0  0  0  0  0  0  0  0  0
  160.0220  203.5200  144.6110 C   0  0  0  0  0  0  0  0  0  0  0  0
  161.0930  205.1810  143.0990 N   0  0  0  0  0  0  0  0  0  0  0  0
  161.2050  200.5790  148.3490 C   0  0  0  0  0  3  0  0  0  0  0  0
  160.8630  203.0380  148.3470 C   0  0  2  0  0  3  0  0  0  0  0  0
  162.6490  204.1800  147.0620 N   0  0  0  0  0  2  0  0  0  0  0  0
  160.9280  201.6920  147.6520 C   0  0  0  0  0  0  0  0  0  0  0  0
  161.7550  205.2690  146.6930 C   0  0  1  0  0  3  0  0  0  0  0  0
  160.3950  202.5700  145.4280 C   0  0  0  0  0  0  0  0  0  0  0  0
  162.1810  206.5740  147.3590 C   0  0  0  0  0  2  0  0  0  0  0  0
  160.9630  207.3210  147.8840 C   0  0  0  0  0  2  0  0  0  0  0  0
  160.8560  207.1430  149.2660 O   0  0  0  0  0  0  0  0  0  0  0  0
  161.2040  207.6440  152.1120 C   0  0  1  0  0  3  0  0  0  0  0  0
  162.1150  207.4770  149.7740 C   0  0  1  0  0  3  0  0  0  0  0  0
  161.5630  209.7350  150.7860 C   0  0  0  0  0  3  0  0  0  0  0  0
  162.3310  208.9940  149.7210 C   0  0  0  0  0  2  0  0  0  0  0  0
  161.0940  209.1330  151.8900 C   0  0  0  0  0  3  0  0  0  0  0  0
  162.2570  206.9840  151.2150 C   0  0  0  0  0  2  0  0  0  0  0  0
  161.1180  208.3150  154.5380 N   0  0  0  0  0  2  0  0  0  0  0  0
  161.3220  208.0770  155.9570 C   0  0  0  0  0  1  0  0  0  0  0  0
  161.4530  207.3390  153.5500 C   0  0  0  0  0  0  0  0  0  0  0  0
  161.9570  206.2330  153.8890 O   0  0  0  0  0  0  0  0  0  0  0  0
  1  7  1  0  0  0  0
  3 15  1  0  0  0  0
  4 13  1  1  0  0  0
  4 10  1  0  0  0  0
  5 20  1  0  0  0  0
  6 13  1  0  0  0  0
  8 11  1  0  0  0  0
  9 15  1  0  0  0  0
  9 12  2  0  0  0  0
 10 14  1  0  0  0  0
 11 12  1  0  0  0  0
 12 21  1  0  0  0  0
 13  1  2  0  0  0  0
 14  7  2  0  0  0  0
 15 22  2  0  0  0  0
 16  8  2  0  0  0  0
 16  9  1  0  0  0  0
 17  6  1  0  0  0  0
 18  2  1  1  0  0  0
 18  4  1  0  0  0  0
 19  2  1  0  0  0  0
 20 18  1  0  0  0  0
 20 17  2  0  0  0  0
 21 19  1  0  0  0  0
 21 23  1  1  0  0  0
 22  5  2  0  0  0  0
 23 24  1  0  0  0  0
 24 25  1  0  0  0  0
 26 34  1  1  0  0  0
 27 25  1  1  0  0  0
 27 31  1  0  0  0  0
 28 30  2  0  0  0  0
 29 27  1  0  0  0  0
 29 28  1  0  0  0  0
 30 26  1  0  0  0  0
 31 26  1  0  0  0  0
 32 33  1  0  0  0  0
 34 35  2  0  0  0  0
 34 32  1  0  0  0  0
M  END
>  <MODEL>
7

>  <REMARK>
 VINA RESULT:      -6.7      3.684      7.390
  Name = 
  5 active torsions:
  status: ('A' for Active; 'I' for Inactive)
    1  A    between atoms: C_2  and  C_22
    2  A    between atoms: C_6  and  O_20
    3  A    between atoms: C_18  and  O_20
    4  A    between atoms: C_18  and  C_24
    5  A    between atoms: C_24  and  C_34
                            x       y       z     vdW  Elec       q    Type
                         _______ _______ _______ _____ _____    ______ ____

>  <TORSDO>
F 5

$$$$
=
 OpenBabel11052409273D

 35 39  0  0  1  0  0  0  0  0999 V2000
  160.1850  211.2100  156.5420 N   0  0  0  0  0  0  0  0  0  0  0  0
  160.4210  209.2220  153.0830 C   0  0  0  0  0  2  0  0  0  0  0  0
  162.8910  211.6640  148.5390 N   0  0  0  0  0  1  0  0  0  0  0  0
  161.5380  210.9860  154.5190 C   0  0  2  0  0  3  0  0  0  0  0  0
  160.3830  211.8770  150.9790 C   0  0  0  0  0  3  0  0  0  0  0  0
  159.3350  212.2050  154.5670 N   0  0  0  0  0  2  0  0  0  0  0  0
  161.1250  210.3980  157.2600 C   0  0  0  0  0  3  0  0  0  0  0  0
  162.1340  207.5460  147.8870 N   0  0  0  0  0  0  0  0  0  0  0  0
  162.0850  209.3540  149.0350 C   0  0  0  0  0  0  0  0  0  0  0  0
  162.2320  209.9220  155.2420 N   0  0  0  0  0  2  0  0  0  0  0  0
  161.9280  207.2050  149.1270 O   0  0  0  0  0  0  0  0  0  0  0  0
  161.9000  208.2780  149.8810 C   0  0  0  0  0  0  0  0  0  0  0  0
  160.3210  211.4490  155.2740 C   0  0  0  0  0  0  0  0  0  0  0  0
  162.0800  209.7820  156.6310 N   0  0  0  0  0  0  0  0  0  0  0  0
  162.1260  210.7890  149.3620 C   0  0  0  0  0  0  0  0  0  0  0  0
  162.2440  208.8630  147.7910 N   0  0  0  0  0  0  0  0  0  0  0  0
  159.4290  212.3530  153.1440 C   0  0  0  0  0  3  0  0  0  0  0  0
  161.1560  210.5690  153.0910 C   0  0  2  0  0  3  0  0  0  0  0  0
  160.3900  208.6340  151.7460 N   0  0  0  0  0  2  0  0  0  0  0  0
  160.3110  211.6380  152.4270 C   0  0  0  0  0  0  0  0  0  0  0  0
  161.7540  208.2930  151.3690 C   0  0  1  0  0  3  0  0  0  0  0  0
  161.2630  211.3110  150.1940 C   0  0  0  0  0  0  0  0  0  0  0  0
  162.1800  206.9680  151.9950 C   0  0  0  0  0  2  0  0  0  0  0  0
  160.9660  206.2240  152.5330 C   0  0  0  0  0  2  0  0  0  0  0  0
  160.6330  205.1740  151.6730 O   0  0  0  0  0  0  0  0  0  0  0  0
  160.8440  203.5130  149.2920 C   0  0  1  0  0  3  0  0  0  0  0  0
  161.8530  204.5820  151.3320 C   0  0  1  0  0  3  0  0  0  0  0  0
  161.1520  202.1470  151.3640 C   0  0  0  0  0  3  0  0  0  0  0  0
  161.9970  203.2150  152.0100 C   0  0  0  0  0  2  0  0  0  0  0  0
  160.6700  202.2620  150.1180 C   0  0  0  0  0  3  0  0  0  0  0  0
  161.9620  204.4220  149.8160 C   0  0  0  0  0  2  0  0  0  0  0  0
  161.5810  204.1710  146.9760 N   0  0  0  0  0  2  0  0  0  0  0  0
  161.8200  203.9050  145.5660 C   0  0  0  0  0  1  0  0  0  0  0  0
  161.0510  203.1770  147.8550 C   0  0  0  0  0  0  0  0  0  0  0  0
  160.7570  202.0290  147.4200 O   0  0  0  0  0  0  0  0  0  0  0  0
  1  7  1  0  0  0  0
  3 15  1  0  0  0  0
  4 10  1  1  0  0  0
  4 13  1  0  0  0  0
  5 20  1  0  0  0  0
  6 13  1  0  0  0  0
  8 11  1  0  0  0  0
  9 15  1  0  0  0  0
  9 12  2  0  0  0  0
 10 14  1  0  0  0  0
 11 12  1  0  0  0  0
 12 21  1  0  0  0  0
 13  1  2  0  0  0  0
 14  7  2  0  0  0  0
 15 22  2  0  0  0  0
 16  8  2  0  0  0  0
 16  9  1  0  0  0  0
 17  6  1  0  0  0  0
 18  2  1  1  0  0  0
 18  4  1  0  0  0  0
 19  2  1  0  0  0  0
 20 18  1  0  0  0  0
 20 17  2  0  0  0  0
 21 19  1  0  0  0  0
 21 23  1  6  0  0  0
 22  5  2  0  0  0  0
 23 24  1  0  0  0  0
 25 24  1  0  0  0  0
 26 34  1  6  0  0  0
 26 31  1  0  0  0  0
 26 30  1  0  0  0  0
 27 25  1  6  0  0  0
 27 29  1  0  0  0  0
 28 29  1  0  0  0  0
 30 28  2  0  0  0  0
 31 27  1  0  0  0  0
 32 34  1  0  0  0  0
 33 32  1  0  0  0  0
 35 34  2  0  0  0  0
M  END
>  <MODEL>
8

>  <REMARK>
 VINA RESULT:      -6.6      3.018      6.648
  Name = 
  5 active torsions:
  status: ('A' for Active; 'I' for Inactive)
    1  A    between atoms: C_2  and  C_22
    2  A    between atoms: C_6  and  O_20
    3  A    between atoms: C_18  and  O_20
    4  A    between atoms: C_18  and  C_24
    5  A    between atoms: C_24  and  C_34
                            x       y       z     vdW  Elec       q    Type
                         _______ _______ _______ _____ _____    ______ ____

>  <TORSDO>
F 5

$$$$
=
 OpenBabel11052409273D

 35 39  0  0  1  0  0  0  0  0999 V2000
  161.6410  205.5960  149.5050 N   0  0  0  0  0  0  0  0  0  0  0  0
  160.3080  208.5810  151.8030 C   0  0  0  0  0  2  0  0  0  0  0  0
  162.7530  209.6090  156.8700 N   0  0  0  0  0  1  0  0  0  0  0  0
  162.3480  207.2050  151.2040 C   0  0  2  0  0  3  0  0  0  0  0  0
  161.1120  207.2820  154.8270 C   0  0  0  0  0  3  0  0  0  0  0  0
  161.0010  205.1480  151.7430 N   0  0  0  0  0  2  0  0  0  0  0  0
  162.2170  206.4230  148.4840 C   0  0  0  0  0  3  0  0  0  0  0  0
  160.0870  212.7100  155.7600 N   0  0  0  0  0  0  0  0  0  0  0  0
  161.0820  210.8340  155.4780 C   0  0  0  0  0  0  0  0  0  0  0  0
  162.5950  208.1060  150.0800 N   0  0  0  0  0  2  0  0  0  0  0  0
  159.9760  212.4050  154.4980 O   0  0  0  0  0  0  0  0  0  0  0  0
  160.5810  211.2640  154.2650 C   0  0  0  0  0  0  0  0  0  0  0  0
  161.6400  205.9570  150.7530 C   0  0  0  0  0  0  0  0  0  0  0  0
  162.6500  207.6140  148.7660 N   0  0  0  0  0  0  0  0  0  0  0  0
  161.8360  209.6060  155.7820 C   0  0  0  0  0  0  0  0  0  0  0  0
  160.7700  211.7690  156.3960 N   0  0  0  0  0  0  0  0  0  0  0  0
  160.8930  205.6180  153.0920 C   0  0  0  0  0  3  0  0  0  0  0  0
  161.5670  207.8850  152.3370 C   0  0  2  0  0  3  0  0  0  0  0  0
  159.7690  209.5350  152.7710 N   0  0  0  0  0  2  0  0  0  0  0  0
  161.2020  206.8840  153.4150 C   0  0  0  0  0  0  0  0  0  0  0  0
  160.7310  210.6170  152.9260 C   0  0  1  0  0  3  0  0  0  0  0  0
  161.4760  208.4560  155.2740 C   0  0  0  0  0  0  0  0  0  0  0  0
  160.6060  211.6260  151.7890 C   0  0  0  0  0  2  0  0  0  0  0  0
  161.6670  211.3620  150.7300 C   0  0  0  0  0  2  0  0  0  0  0  0
  161.1500  211.6360  149.4600 O   0  0  0  0  0  0  0  0  0  0  0  0
  159.4130  213.0600  147.6080 C   0  0  1  0  0  3  0  0  0  0  0  0
  161.2600  213.0220  149.3140 C   0  0  1  0  0  3  0  0  0  0  0  0
  161.7920  213.1340  146.8380 C   0  0  0  0  0  3  0  0  0  0  0  0
  162.2960  213.3690  148.2390 C   0  0  0  0  0  2  0  0  0  0  0  0
  160.4860  213.0400  146.5470 C   0  0  0  0  0  3  0  0  0  0  0  0
  159.9060  213.6290  148.9430 C   0  0  0  0  0  2  0  0  0  0  0  0
  157.8530  213.7160  145.7430 N   0  0  0  0  0  2  0  0  0  0  0  0
  156.6790  214.3880  145.2100 C   0  0  0  0  0  1  0  0  0  0  0  0
  158.2020  213.7850  147.1270 C   0  0  0  0  0  0  0  0  0  0  0  0
  157.4980  214.4530  147.9320 O   0  0  0  0  0  0  0  0  0  0  0  0
  1 13  2  0  0  0  0
  2 19  1  0  0  0  0
  4 10  1  6  0  0  0
  4 18  1  0  0  0  0
  5 22  2  0  0  0  0
  6 17  1  0  0  0  0
  7 14  2  0  0  0  0
  7  1  1  0  0  0  0
  8 16  2  0  0  0  0
  9 15  1  0  0  0  0
  9 16  1  0  0  0  0
 11  8  1  0  0  0  0
 12 11  1  0  0  0  0
 12  9  2  0  0  0  0
 13  4  1  0  0  0  0
 13  6  1  0  0  0  0
 14 10  1  0  0  0  0
 15  3  1  0  0  0  0
 17 20  2  0  0  0  0
 18  2  1  6  0  0  0
 18 20  1  0  0  0  0
 19 21  1  0  0  0  0
 20  5  1  0  0  0  0
 21 23  1  6  0  0  0
 21 12  1  0  0  0  0
 22 15  2  0  0  0  0
 24 23  1  0  0  0  0
 25 24  1  0  0  0  0
 26 34  1  6  0  0  0
 26 31  1  0  0  0  0
 27 25  1  6  0  0  0
 28 29  1  0  0  0  0
 29 27  1  0  0  0  0
 30 28  2  0  0  0  0
 30 26  1  0  0  0  0
 31 27  1  0  0  0  0
 32 34  1  0  0  0  0
 33 32  1  0  0  0  0
 34 35  2  0  0  0  0
M  END
>  <MODEL>
9

>  <REMARK>
 VINA RESULT:      -6.2      2.065      5.387
  Name = 
  5 active torsions:
  status: ('A' for Active; 'I' for Inactive)
    1  A    between atoms: C_2  and  C_22
    2  A    between atoms: C_6  and  O_20
    3  A    between atoms: C_18  and  O_20
    4  A    between atoms: C_18  and  C_24
    5  A    between atoms: C_24  and  C_34
                            x       y       z     vdW  Elec       q    Type
                         _______ _______ _______ _____ _____    ______ ____

>  <TORSDO>
F 5

$$$$
