=
 OpenBabel11042422113D

 34 37  0  0  0  0  0  0  0  0999 V2000
  161.3070  206.1380  149.8100 C   0  0  0  0  0  0  0  0  0  0  0  0
  161.7010  210.0840  151.2030 C   0  0  0  0  0  0  0  0  0  0  0  0
  160.8780  205.4400  152.1010 C   0  0  0  0  0  3  0  0  0  0  0  0
  160.7410  204.1170  151.6690 C   0  0  0  0  0  3  0  0  0  0  0  0
  162.1090  210.7770  148.9140 C   0  0  0  0  0  3  0  0  0  0  0  0
  160.8800  203.8030  150.3120 C   0  0  0  0  0  0  0  0  0  0  0  0
  161.7220  208.4810  149.3640 C   0  0  0  0  0  0  0  0  0  0  0  0
  161.1680  204.8100  149.3860 C   0  0  0  0  0  3  0  0  0  0  0  0
  161.5910  207.1660  148.9010 C   0  0  0  0  0  0  0  0  0  0  0  0
  161.1590  206.4510  151.1790 C   0  0  0  0  0  0  0  0  0  0  0  0
  161.9830  209.4930  148.4940 N   0  0  0  0  0  0  0  0  0  0  0  0
  161.2930  207.7350  151.6030 N   0  0  0  0  0  0  0  0  0  0  0  0
  161.7380  206.8860  147.5450 O   0  0  0  0  0  1  0  0  0  0  0  0
  161.5750  208.7540  150.7440 C   0  0  0  0  0  0  0  0  0  0  0  0
  161.9720  211.0910  150.2660 C   0  0  0  0  0  3  0  0  0  0  0  0
  162.0030  210.6560  154.9030 C   0  0  0  0  0  0  0  0  0  0  0  0
  160.8750  211.2950  154.6420 C   0  0  0  0  0  2  0  0  0  0  0  0
  160.6240  211.1560  153.2160 C   0  0  0  0  0  0  0  0  0  0  0  0
  162.5870  210.0270  153.6840 C   0  0  0  0  0  3  0  0  0  0  0  0
  161.5900  210.4330  152.6450 C   0  0  0  0  0  0  0  0  0  0  0  0
  159.4260  211.7310  152.5340 C   0  0  0  0  0  2  0  0  0  0  0  0
  158.1790  211.4530  153.3510 C   0  0  0  0  0  1  0  0  0  0  0  0
  162.6000  210.5410  156.2640 C   0  0  0  0  0  2  0  0  0  0  0  0
  161.8950  208.4210  156.9550 C   0  0  0  0  0  1  0  0  0  0  0  0
  161.6890  209.8450  157.1580 N   0  0  0  0  0  2  0  0  0  0  0  0
  160.7580  202.3910  149.8600 C   0  0  0  0  0  2  0  0  0  0  0  0
  160.9880  201.2720  147.6120 C   0  0  0  0  0  0  0  0  0  0  0  0
  160.5270  202.3530  148.4250 N   0  0  0  0  0  2  0  0  0  0  0  0
  161.6170  200.3100  148.1310 O   0  0  0  0  0  0  0  0  0  0  0  0
  160.7310  201.2800  146.1690 C   0  0  0  0  0  0  0  0  0  0  0  0
  160.7320  200.1960  145.5250 O   0  0  0  0  0  0  0  0  0  0  0  0
  160.4880  202.4920  145.5190 O   0  0  0  0  0  0  0  0  0  0  0  0
  160.9170  204.6900  144.6680 C   0  0  0  0  0  1  0  0  0  0  0  0
  161.4850  203.4950  145.4040 C   0  0  0  0  0  2  0  0  0  0  0  0
  1 10  1  0  0  0  0
  2 20  1  0  0  0  0
  4  3  1  0  0  0  0
  5 15  1  0  0  0  0
  6  4  2  0  0  0  0
  7 14  1  0  0  0  0
  8  1  2  0  0  0  0
  8  6  1  0  0  0  0
  9  7  2  0  0  0  0
  9  1  1  0  0  0  0
 10 12  1  0  0  0  0
 10  3  2  0  0  0  0
 11  5  2  0  0  0  0
 11  7  1  0  0  0  0
 13  9  1  0  0  0  0
 14  2  1  0  0  0  0
 14 12  2  0  0  0  0
 15  2  2  0  0  0  0
 16 23  1  0  0  0  0
 17 16  1  0  0  0  0
 18 17  1  0  0  0  0
 19 16  2  0  0  0  0
 20 18  2  0  0  0  0
 20 19  1  0  0  0  0
 21 18  1  0  0  0  0
 21 22  1  0  0  0  0
 23 25  1  0  0  0  0
 24 25  1  0  0  0  0
 26  6  1  0  0  0  0
 27 29  2  0  0  0  0
 27 28  1  0  0  0  0
 28 26  1  0  0  0  0
 30 27  1  0  0  0  0
 31 30  2  0  0  0  0
 32 30  1  0  0  0  0
 33 34  1  0  0  0  0
 34 32  1  0  0  0  0
M  END
>  <MODEL>
1

>  <REMARK>
 VINA RESULT:      -8.4      0.000      0.000
  Name = 
  9 active torsions:
  status: ('A' for Active; 'I' for Inactive)
    1  A    between atoms: C_1  and  C_11
    2  A    between atoms: C_2  and  C_20
    3  A    between atoms: C_4  and  C_8
    4  A    between atoms: C_7  and  C_30
    5  A    between atoms: C_11  and  N_21
    6  A    between atoms: C_12  and  N_15
    7  A    between atoms: C_12  and  C_17
    8  A    between atoms: C_13  and  O_27
    9  A    between atoms: C_20  and  O_27
                            x       y       z     vdW  Elec       q    Type
                         _______ _______ _______ _____ _____    ______ ____

>  <TORSDO>
F 9

$$$$
=
 OpenBabel11042422113D

 34 37  0  0  0  0  0  0  0  0999 V2000
  161.3520  207.0620  152.1510 C   0  0  0  0  0  0  0  0  0  0  0  0
  161.2010  203.5950  149.7790 C   0  0  0  0  0  0  0  0  0  0  0  0
  161.6800  208.3600  150.1190 C   0  0  0  0  0  3  0  0  0  0  0  0
  161.7350  209.5310  150.8800 C   0  0  0  0  0  3  0  0  0  0  0  0
  160.8540  202.3080  151.8070 C   0  0  0  0  0  3  0  0  0  0  0  0
  161.5930  209.4740  152.2710 C   0  0  0  0  0  0  0  0  0  0  0  0
  161.1110  204.6600  151.9720 C   0  0  0  0  0  0  0  0  0  0  0  0
  161.4090  208.2410  152.9050 C   0  0  0  0  0  3  0  0  0  0  0  0
  161.1630  205.8160  152.7620 C   0  0  0  0  0  0  0  0  0  0  0  0
  161.4890  207.1270  150.7460 C   0  0  0  0  0  0  0  0  0  0  0  0
  160.9140  203.4440  152.5480 N   0  0  0  0  0  0  0  0  0  0  0  0
  161.4370  205.9910  150.0040 N   0  0  0  0  0  0  0  0  0  0  0  0
  161.0210  205.7230  154.1440 O   0  0  0  0  0  1  0  0  0  0  0  0
  161.2600  204.7640  150.5700 C   0  0  0  0  0  0  0  0  0  0  0  0
  160.9970  202.3650  150.4200 C   0  0  0  0  0  3  0  0  0  0  0  0
  161.9170  204.2910  146.1590 C   0  0  0  0  0  0  0  0  0  0  0  0
  161.4400  203.0590  146.0880 C   0  0  0  0  0  3  0  0  0  0  0  0
  161.1120  202.6480  147.4440 C   0  0  0  0  0  0  0  0  0  0  0  0
  161.9310  204.8080  147.5570 C   0  0  0  0  0  2  0  0  0  0  0  0
  161.3830  203.6330  148.3030 C   0  0  0  0  0  0  0  0  0  0  0  0
  160.5270  201.3150  147.7780 C   0  0  0  0  0  2  0  0  0  0  0  0
  161.5310  200.2170  147.4840 C   0  0  0  0  0  1  0  0  0  0  0  0
  162.3510  205.0860  144.9740 C   0  0  0  0  0  2  0  0  0  0  0  0
  160.3080  206.2220  144.9950 C   0  0  0  0  0  1  0  0  0  0  0  0
  161.2030  205.4430  144.1580 N   0  0  0  0  0  2  0  0  0  0  0  0
  161.6770  210.7200  153.0790 C   0  0  0  0  0  2  0  0  0  0  0  0
  159.3070  211.1620  153.8190 C   0  0  0  0  0  0  0  0  0  0  0  0
  160.6360  210.7170  154.0950 N   0  0  0  0  0  2  0  0  0  0  0  0
  159.0010  211.5750  152.6680 O   0  0  0  0  0  0  0  0  0  0  0  0
  158.2930  211.1390  154.8780 C   0  0  0  0  0  0  0  0  0  0  0  0
  158.5850  210.6800  156.0160 O   0  0  0  0  0  0  0  0  0  0  0  0
  157.0110  211.6250  154.6160 O   0  0  0  0  0  0  0  0  0  0  0  0
  155.2240  210.1340  155.1830 C   0  0  0  0  0  1  0  0  0  0  0  0
  155.9350  211.4270  155.5210 C   0  0  0  0  0  2  0  0  0  0  0  0
  1  9  1  0  0  0  0
  1  8  2  0  0  0  0
  2 15  2  0  0  0  0
  2 14  1  0  0  0  0
  3 10  2  0  0  0  0
  3  4  1  0  0  0  0
  4  6  2  0  0  0  0
  5 11  2  0  0  0  0
  6  8  1  0  0  0  0
  6 26  1  0  0  0  0
  7 11  1  0  0  0  0
  7  9  2  0  0  0  0
  9 13  1  0  0  0  0
 10  1  1  0  0  0  0
 12 14  2  0  0  0  0
 12 10  1  0  0  0  0
 14  7  1  0  0  0  0
 15  5  1  0  0  0  0
 16 19  1  0  0  0  0
 17 16  2  0  0  0  0
 17 18  1  0  0  0  0
 18 21  1  0  0  0  0
 18 20  2  0  0  0  0
 19 20  1  0  0  0  0
 20  2  1  0  0  0  0
 22 21  1  0  0  0  0
 23 16  1  0  0  0  0
 25 23  1  0  0  0  0
 25 24  1  0  0  0  0
 26 28  1  0  0  0  0
 27 28  1  0  0  0  0
 27 30  1  0  0  0  0
 29 27  2  0  0  0  0
 30 31  2  0  0  0  0
 32 30  1  0  0  0  0
 32 34  1  0  0  0  0
 33 34  1  0  0  0  0
M  END
>  <MODEL>
2

>  <REMARK>
 VINA RESULT:      -7.9      3.498      9.696
  Name = 
  9 active torsions:
  status: ('A' for Active; 'I' for Inactive)
    1  A    between atoms: C_1  and  C_11
    2  A    between atoms: C_2  and  C_20
    3  A    between atoms: C_4  and  C_8
    4  A    between atoms: C_7  and  C_30
    5  A    between atoms: C_11  and  N_21
    6  A    between atoms: C_12  and  N_15
    7  A    between atoms: C_12  and  C_17
    8  A    between atoms: C_13  and  O_27
    9  A    between atoms: C_20  and  O_27
                            x       y       z     vdW  Elec       q    Type
                         _______ _______ _______ _____ _____    ______ ____

>  <TORSDO>
F 9

$$$$
=
 OpenBabel11042422113D

 34 37  0  0  0  0  0  0  0  0999 V2000
  161.4260  207.0870  152.0110 C   0  0  0  0  0  0  0  0  0  0  0  0
  161.1800  203.6080  149.6650 C   0  0  0  0  0  0  0  0  0  0  0  0
  161.7690  208.3640  149.9680 C   0  0  0  0  0  3  0  0  0  0  0  0
  161.8550  209.5390  150.7210 C   0  0  0  0  0  3  0  0  0  0  0  0
  160.8190  202.3430  151.7040 C   0  0  0  0  0  3  0  0  0  0  0  0
  161.7220  209.4940  152.1130 C   0  0  0  0  0  0  0  0  0  0  0  0
  161.1300  204.6900  151.8510 C   0  0  0  0  0  0  0  0  0  0  0  0
  161.5140  208.2700  152.7570 C   0  0  0  0  0  3  0  0  0  0  0  0
  161.2120  205.8500  152.6320 C   0  0  0  0  0  0  0  0  0  0  0  0
  161.5540  207.1400  150.6050 C   0  0  0  0  0  0  0  0  0  0  0  0
  160.9090  203.4830  152.4360 N   0  0  0  0  0  0  0  0  0  0  0  0
  161.4720  206.0000  149.8710 N   0  0  0  0  0  0  0  0  0  0  0  0
  161.0790  205.7690  154.0160 O   0  0  0  0  0  1  0  0  0  0  0  0
  161.2710  204.7810  150.4470 C   0  0  0  0  0  0  0  0  0  0  0  0
  160.9530  202.3880  150.3160 C   0  0  0  0  0  3  0  0  0  0  0  0
  161.8610  204.2750  146.0330 C   0  0  0  0  0  0  0  0  0  0  0  0
  161.4100  203.0320  145.9790 C   0  0  0  0  0  3  0  0  0  0  0  0
  161.0990  202.6310  147.3420 C   0  0  0  0  0  0  0  0  0  0  0  0
  161.8710  204.8090  147.4240 C   0  0  0  0  0  2  0  0  0  0  0  0
  161.3530  203.6320  148.1880 C   0  0  0  0  0  0  0  0  0  0  0  0
  160.5450  201.2900  147.6950 C   0  0  0  0  0  2  0  0  0  0  0  0
  161.5530  200.2070  147.3660 C   0  0  0  0  0  1  0  0  0  0  0  0
  162.2710  205.0640  144.8360 C   0  0  0  0  0  2  0  0  0  0  0  0
  160.2500  206.1770  145.2190 C   0  0  0  0  0  1  0  0  0  0  0  0
  161.1030  205.6290  144.1790 N   0  0  0  0  0  2  0  0  0  0  0  0
  161.8390  210.7430  152.9120 C   0  0  0  0  0  2  0  0  0  0  0  0
  161.5650  210.7270  155.4190 C   0  0  0  0  0  0  0  0  0  0  0  0
  161.0120  210.6430  154.1040 N   0  0  0  0  0  2  0  0  0  0  0  0
  162.8050  210.8920  155.5780 O   0  0  0  0  0  0  0  0  0  0  0  0
  160.6880  210.6200  156.5890 C   0  0  0  0  0  0  0  0  0  0  0  0
  160.0420  211.6290  156.9830 O   0  0  0  0  0  0  0  0  0  0  0  0
  160.5780  209.4000  157.2590 O   0  0  0  0  0  0  0  0  0  0  0  0
  160.1680  207.0400  157.2450 C   0  0  0  0  0  1  0  0  0  0  0  0
  160.9800  208.1770  156.6610 C   0  0  0  0  0  2  0  0  0  0  0  0
  1  9  1  0  0  0  0
  1  8  2  0  0  0  0
  2 15  2  0  0  0  0
  2 14  1  0  0  0  0
  3 10  2  0  0  0  0
  3  4  1  0  0  0  0
  4  6  2  0  0  0  0
  5 11  2  0  0  0  0
  6  8  1  0  0  0  0
  6 26  1  0  0  0  0
  7 11  1  0  0  0  0
  7  9  2  0  0  0  0
  9 13  1  0  0  0  0
 10  1  1  0  0  0  0
 12 14  2  0  0  0  0
 12 10  1  0  0  0  0
 14  7  1  0  0  0  0
 15  5  1  0  0  0  0
 16 19  1  0  0  0  0
 17 16  2  0  0  0  0
 17 18  1  0  0  0  0
 18 21  1  0  0  0  0
 18 20  2  0  0  0  0
 19 20  1  0  0  0  0
 20  2  1  0  0  0  0
 22 21  1  0  0  0  0
 23 16  1  0  0  0  0
 25 23  1  0  0  0  0
 25 24  1  0  0  0  0
 26 28  1  0  0  0  0
 27 29  2  0  0  0  0
 27 30  1  0  0  0  0
 28 27  1  0  0  0  0
 30 31  2  0  0  0  0
 30 32  1  0  0  0  0
 34 33  1  0  0  0  0
 34 32  1  0  0  0  0
M  END
>  <MODEL>
3

>  <REMARK>
 VINA RESULT:      -7.9      3.628      9.748
  Name = 
  9 active torsions:
  status: ('A' for Active; 'I' for Inactive)
    1  A    between atoms: C_1  and  C_11
    2  A    between atoms: C_2  and  C_20
    3  A    between atoms: C_4  and  C_8
    4  A    between atoms: C_7  and  C_30
    5  A    between atoms: C_11  and  N_21
    6  A    between atoms: C_12  and  N_15
    7  A    between atoms: C_12  and  C_17
    8  A    between atoms: C_13  and  O_27
    9  A    between atoms: C_20  and  O_27
                            x       y       z     vdW  Elec       q    Type
                         _______ _______ _______ _____ _____    ______ ____

>  <TORSDO>
F 9

$$$$
=
 OpenBabel11042422113D

 34 37  0  0  0  0  0  0  0  0999 V2000
  161.2300  207.1700  152.2130 C   0  0  0  0  0  0  0  0  0  0  0  0
  161.2150  203.6770  149.8760 C   0  0  0  0  0  0  0  0  0  0  0  0
  161.5200  208.4600  150.1690 C   0  0  0  0  0  3  0  0  0  0  0  0
  161.5290  209.6400  150.9200 C   0  0  0  0  0  3  0  0  0  0  0  0
  160.9050  202.3980  151.9140 C   0  0  0  0  0  3  0  0  0  0  0  0
  161.3840  209.5910  152.3100 C   0  0  0  0  0  0  0  0  0  0  0  0
  161.0770  204.7600  152.0580 C   0  0  0  0  0  0  0  0  0  0  0  0
  161.2400  208.3580  152.9560 C   0  0  0  0  0  3  0  0  0  0  0  0
  161.0830  205.9250  152.8360 C   0  0  0  0  0  0  0  0  0  0  0  0
  161.3710  207.2270  150.8090 C   0  0  0  0  0  0  0  0  0  0  0  0
  160.9210  203.5430  152.6440 N   0  0  0  0  0  0  0  0  0  0  0  0
  161.3640  206.0820  150.0770 N   0  0  0  0  0  0  0  0  0  0  0  0
  160.9380  205.8400  154.2180 O   0  0  0  0  0  1  0  0  0  0  0  0
  161.2280  204.8560  150.6550 C   0  0  0  0  0  0  0  0  0  0  0  0
  161.0520  202.4470  150.5280 C   0  0  0  0  0  3  0  0  0  0  0  0
  161.9250  204.3620  146.2520 C   0  0  0  0  0  0  0  0  0  0  0  0
  161.4880  203.1150  146.1900 C   0  0  0  0  0  3  0  0  0  0  0  0
  161.1660  202.7070  147.5490 C   0  0  0  0  0  0  0  0  0  0  0  0
  161.9160  204.8920  147.6450 C   0  0  0  0  0  2  0  0  0  0  0  0
  161.4020  203.7070  148.4000 C   0  0  0  0  0  0  0  0  0  0  0  0
  160.6220  201.3590  147.8930 C   0  0  0  0  0  2  0  0  0  0  0  0
  161.5530  200.2760  147.3830 C   0  0  0  0  0  1  0  0  0  0  0  0
  162.3400  205.1590  145.0620 C   0  0  0  0  0  2  0  0  0  0  0  0
  160.2710  206.2490  145.0790 C   0  0  0  0  0  1  0  0  0  0  0  0
  161.1820  205.4850  144.2450 N   0  0  0  0  0  2  0  0  0  0  0  0
  161.4180  210.8470  153.1060 C   0  0  0  0  0  2  0  0  0  0  0  0
  159.1390  211.9210  153.0010 C   0  0  0  0  0  0  0  0  0  0  0  0
  160.4880  211.8120  152.5420 N   0  0  0  0  0  2  0  0  0  0  0  0
  158.7180  211.1690  153.9220 O   0  0  0  0  0  0  0  0  0  0  0  0
  158.2400  212.9100  152.3990 C   0  0  0  0  0  0  0  0  0  0  0  0
  157.5470  213.6610  153.1390 O   0  0  0  0  0  0  0  0  0  0  0  0
  158.1570  213.0120  151.0090 O   0  0  0  0  0  0  0  0  0  0  0  0
  156.9760  213.2940  148.9440 C   0  0  0  0  0  1  0  0  0  0  0  0
  157.1380  213.7690  150.3720 C   0  0  0  0  0  2  0  0  0  0  0  0
  1  9  1  0  0  0  0
  1  8  2  0  0  0  0
  2 15  2  0  0  0  0
  2 14  1  0  0  0  0
  3 10  2  0  0  0  0
  3  4  1  0  0  0  0
  4  6  2  0  0  0  0
  5 11  2  0  0  0  0
  6  8  1  0  0  0  0
  6 26  1  0  0  0  0
  7 11  1  0  0  0  0
  7  9  2  0  0  0  0
  9 13  1  0  0  0  0
 10  1  1  0  0  0  0
 12 14  2  0  0  0  0
 12 10  1  0  0  0  0
 14  7  1  0  0  0  0
 15  5  1  0  0  0  0
 16 19  1  0  0  0  0
 17 16  2  0  0  0  0
 17 18  1  0  0  0  0
 18 21  1  0  0  0  0
 18 20  2  0  0  0  0
 19 20  1  0  0  0  0
 20  2  1  0  0  0  0
 22 21  1  0  0  0  0
 23 16  1  0  0  0  0
 25 23  1  0  0  0  0
 25 24  1  0  0  0  0
 27 29  2  0  0  0  0
 28 27  1  0  0  0  0
 28 26  1  0  0  0  0
 30 27  1  0  0  0  0
 30 31  2  0  0  0  0
 32 30  1  0  0  0  0
 33 34  1  0  0  0  0
 34 32  1  0  0  0  0
M  END
>  <MODEL>
4

>  <REMARK>
 VINA RESULT:      -7.8      3.589      9.513
  Name = 
  9 active torsions:
  status: ('A' for Active; 'I' for Inactive)
    1  A    between atoms: C_1  and  C_11
    2  A    between atoms: C_2  and  C_20
    3  A    between atoms: C_4  and  C_8
    4  A    between atoms: C_7  and  C_30
    5  A    between atoms: C_11  and  N_21
    6  A    between atoms: C_12  and  N_15
    7  A    between atoms: C_12  and  C_17
    8  A    between atoms: C_13  and  O_27
    9  A    between atoms: C_20  and  O_27
                            x       y       z     vdW  Elec       q    Type
                         _______ _______ _______ _____ _____    ______ ____

>  <TORSDO>
F 9

$$$$
=
 OpenBabel11042422113D

 34 37  0  0  0  0  0  0  0  0999 V2000
  161.5760  206.2920  150.2500 C   0  0  0  0  0  0  0  0  0  0  0  0
  160.6560  208.5010  153.7050 C   0  0  0  0  0  0  0  0  0  0  0  0
  161.4660  208.3620  148.9750 C   0  0  0  0  0  3  0  0  0  0  0  0
  161.7710  207.6550  147.8080 C   0  0  0  0  0  3  0  0  0  0  0  0
  160.7860  206.4370  154.9750 C   0  0  0  0  0  3  0  0  0  0  0  0
  161.9840  206.2720  147.8580 C   0  0  0  0  0  0  0  0  0  0  0  0
  161.1660  206.3690  152.6350 C   0  0  0  0  0  0  0  0  0  0  0  0
  161.8800  205.5920  149.0750 C   0  0  0  0  0  3  0  0  0  0  0  0
  161.4720  205.6340  151.4820 C   0  0  0  0  0  0  0  0  0  0  0  0
  161.3680  207.6880  150.1940 C   0  0  0  0  0  0  0  0  0  0  0  0
  161.0750  205.7490  153.8410 N   0  0  0  0  0  0  0  0  0  0  0  0
  161.0710  208.3780  151.3260 N   0  0  0  0  0  0  0  0  0  0  0  0
  161.6740  204.2590  151.5670 O   0  0  0  0  0  1  0  0  0  0  0  0
  160.9570  207.7650  152.5380 C   0  0  0  0  0  0  0  0  0  0  0  0
  160.5720  207.8150  154.9250 C   0  0  0  0  0  3  0  0  0  0  0  0
  159.4890  212.0360  153.2100 C   0  0  0  0  0  0  0  0  0  0  0  0
  160.4870  212.2190  154.0580 C   0  0  0  0  0  2  0  0  0  0  0  0
  161.0480  210.9080  154.3470 C   0  0  0  0  0  0  0  0  0  0  0  0
  159.3120  210.6000  152.8500 C   0  0  0  0  0  3  0  0  0  0  0  0
  160.3930  209.9650  153.6660 C   0  0  0  0  0  0  0  0  0  0  0  0
  162.2120  210.6980  155.2580 C   0  0  0  0  0  2  0  0  0  0  0  0
  161.8100  210.9840  156.6920 C   0  0  0  0  0  1  0  0  0  0  0  0
  158.6630  213.1420  152.6450 C   0  0  0  0  0  2  0  0  0  0  0  0
  159.5880  213.6520  150.5580 C   0  0  0  0  0  1  0  0  0  0  0  0
  158.4900  212.9620  151.2130 N   0  0  0  0  0  2  0  0  0  0  0  0
  162.2830  205.5210  146.6100 C   0  0  0  0  0  2  0  0  0  0  0  0
  161.1470  203.4230  145.7930 C   0  0  0  0  0  0  0  0  0  0  0  0
  161.9110  204.1250  146.7760 N   0  0  0  0  0  2  0  0  0  0  0  0
  160.7720  204.0090  144.7410 O   0  0  0  0  0  0  0  0  0  0  0  0
  160.7970  202.0160  146.0070 C   0  0  0  0  0  0  0  0  0  0  0  0
  160.2440  201.3590  145.0830 O   0  0  0  0  0  0  0  0  0  0  0  0
  161.0780  201.4140  147.2360 O   0  0  0  0  0  0  0  0  0  0  0  0
  161.0540  201.2670  149.6260 C   0  0  0  0  0  1  0  0  0  0  0  0
  160.2750  201.6420  148.3840 C   0  0  0  0  0  2  0  0  0  0  0  0
  1  9  2  0  0  0  0
  2 15  1  0  0  0  0
  3 10  1  0  0  0  0
  4  6  1  0  0  0  0
  4  3  2  0  0  0  0
  6  8  2  0  0  0  0
  7 11  2  0  0  0  0
  8  1  1  0  0  0  0
  9 13  1  0  0  0  0
  9  7  1  0  0  0  0
 10  1  1  0  0  0  0
 10 12  2  0  0  0  0
 11  5  1  0  0  0  0
 12 14  1  0  0  0  0
 14  7  1  0  0  0  0
 14  2  2  0  0  0  0
 15  5  2  0  0  0  0
 16 17  1  0  0  0  0
 17 18  1  0  0  0  0
 18 21  1  0  0  0  0
 19 16  2  0  0  0  0
 19 20  1  0  0  0  0
 20  2  1  0  0  0  0
 20 18  2  0  0  0  0
 21 22  1  0  0  0  0
 23 16  1  0  0  0  0
 24 25  1  0  0  0  0
 25 23  1  0  0  0  0
 26 28  1  0  0  0  0
 26  6  1  0  0  0  0
 27 30  1  0  0  0  0
 27 28  1  0  0  0  0
 29 27  2  0  0  0  0
 30 32  1  0  0  0  0
 31 30  2  0  0  0  0
 32 34  1  0  0  0  0
 34 33  1  0  0  0  0
M  END
>  <MODEL>
5

>  <REMARK>
 VINA RESULT:      -7.7      2.018      4.260
  Name = 
  9 active torsions:
  status: ('A' for Active; 'I' for Inactive)
    1  A    between atoms: C_1  and  C_11
    2  A    between atoms: C_2  and  C_20
    3  A    between atoms: C_4  and  C_8
    4  A    between atoms: C_7  and  C_30
    5  A    between atoms: C_11  and  N_21
    6  A    between atoms: C_12  and  N_15
    7  A    between atoms: C_12  and  C_17
    8  A    between atoms: C_13  and  O_27
    9  A    between atoms: C_20  and  O_27
                            x       y       z     vdW  Elec       q    Type
                         _______ _______ _______ _____ _____    ______ ____

>  <TORSDO>
F 9

$$$$
=
 OpenBabel11042422113D

 34 37  0  0  0  0  0  0  0  0999 V2000
  161.1560  206.4520  151.9150 C   0  0  0  0  0  0  0  0  0  0  0  0
  160.7380  210.4830  153.0330 C   0  0  0  0  0  0  0  0  0  0  0  0
  160.8310  207.1270  149.5990 C   0  0  0  0  0  3  0  0  0  0  0  0
  160.9660  205.7950  149.1970 C   0  0  0  0  0  3  0  0  0  0  0  0
  161.0820  209.8070  155.3370 C   0  0  0  0  0  3  0  0  0  0  0  0
  161.2000  204.7930  150.1450 C   0  0  0  0  0  0  0  0  0  0  0  0
  161.1070  208.1490  153.6410 C   0  0  0  0  0  0  0  0  0  0  0  0
  161.2890  205.1210  151.5010 C   0  0  0  0  0  3  0  0  0  0  0  0
  161.2460  206.8060  153.2670 C   0  0  0  0  0  0  0  0  0  0  0  0
  160.9260  207.4600  150.9530 C   0  0  0  0  0  0  0  0  0  0  0  0
  161.2060  208.5120  154.9470 N   0  0  0  0  0  0  0  0  0  0  0  0
  160.7930  208.7550  151.3410 N   0  0  0  0  0  0  0  0  0  0  0  0
  161.4750  205.8340  154.2370 O   0  0  0  0  0  1  0  0  0  0  0  0
  160.8700  209.1290  152.6490 C   0  0  0  0  0  0  0  0  0  0  0  0
  160.8470  210.8050  154.3920 C   0  0  0  0  0  3  0  0  0  0  0  0
  160.5400  212.9470  150.2050 C   0  0  0  0  0  0  0  0  0  0  0  0
  159.4900  213.3060  150.9250 C   0  0  0  0  0  2  0  0  0  0  0  0
  159.4380  212.4210  152.0780 C   0  0  0  0  0  0  0  0  0  0  0  0
  161.2820  211.8110  150.8230 C   0  0  0  0  0  3  0  0  0  0  0  0
  160.4550  211.5570  152.0430 C   0  0  0  0  0  0  0  0  0  0  0  0
  158.3950  212.5220  153.1420 C   0  0  0  0  0  2  0  0  0  0  0  0
  158.5800  213.8020  153.9330 C   0  0  0  0  0  1  0  0  0  0  0  0
  160.9590  213.6260  148.9460 C   0  0  0  0  0  2  0  0  0  0  0  0
  161.7440  212.9640  146.8450 C   0  0  0  0  0  1  0  0  0  0  0  0
  161.9880  212.8510  148.2720 N   0  0  0  0  0  2  0  0  0  0  0  0
  161.3180  203.3750  149.7140 C   0  0  0  0  0  2  0  0  0  0  0  0
  160.8320  202.1900  147.5410 C   0  0  0  0  0  0  0  0  0  0  0  0
  161.3620  203.3040  148.2610 N   0  0  0  0  0  2  0  0  0  0  0  0
  160.3060  201.2250  148.1590 O   0  0  0  0  0  0  0  0  0  0  0  0
  160.9000  202.1670  146.0770 C   0  0  0  0  0  0  0  0  0  0  0  0
  160.3760  201.2130  145.4390 O   0  0  0  0  0  0  0  0  0  0  0  0
  161.5460  203.2020  145.4000 O   0  0  0  0  0  0  0  0  0  0  0  0
  161.2220  205.5720  145.5240 C   0  0  0  0  0  1  0  0  0  0  0  0
  160.8300  204.2870  144.8280 C   0  0  0  0  0  2  0  0  0  0  0  0
  1  9  2  0  0  0  0
  2 15  1  0  0  0  0
  3 10  1  0  0  0  0
  4  3  2  0  0  0  0
  4  6  1  0  0  0  0
  6  8  2  0  0  0  0
  7 11  2  0  0  0  0
  8  1  1  0  0  0  0
  9  7  1  0  0  0  0
  9 13  1  0  0  0  0
 10 12  2  0  0  0  0
 10  1  1  0  0  0  0
 11  5  1  0  0  0  0
 12 14  1  0  0  0  0
 14  2  2  0  0  0  0
 14  7  1  0  0  0  0
 15  5  2  0  0  0  0
 16 19  2  0  0  0  0
 16 17  1  0  0  0  0
 17 18  1  0  0  0  0
 18 21  1  0  0  0  0
 19 20  1  0  0  0  0
 20 18  2  0  0  0  0
 20  2  1  0  0  0  0
 21 22  1  0  0  0  0
 23 16  1  0  0  0  0
 24 25  1  0  0  0  0
 25 23  1  0  0  0  0
 26  6  1  0  0  0  0
 27 29  2  0  0  0  0
 27 28  1  0  0  0  0
 28 26  1  0  0  0  0
 30 27  1  0  0  0  0
 31 30  2  0  0  0  0
 32 30  1  0  0  0  0
 34 32  1  0  0  0  0
 34 33  1  0  0  0  0
M  END
>  <MODEL>
6

>  <REMARK>
 VINA RESULT:      -7.4      1.990      4.186
  Name = 
  9 active torsions:
  status: ('A' for Active; 'I' for Inactive)
    1  A    between atoms: C_1  and  C_11
    2  A    between atoms: C_2  and  C_20
    3  A    between atoms: C_4  and  C_8
    4  A    between atoms: C_7  and  C_30
    5  A    between atoms: C_11  and  N_21
    6  A    between atoms: C_12  and  N_15
    7  A    between atoms: C_12  and  C_17
    8  A    between atoms: C_13  and  O_27
    9  A    between atoms: C_20  and  O_27
                            x       y       z     vdW  Elec       q    Type
                         _______ _______ _______ _____ _____    ______ ____

>  <TORSDO>
F 9

$$$$
=
 OpenBabel11042422113D

 34 37  0  0  0  0  0  0  0  0999 V2000
  161.4650  207.4840  151.5550 C   0  0  0  0  0  0  0  0  0  0  0  0
  160.2660  209.1870  155.2060 C   0  0  0  0  0  0  0  0  0  0  0  0
  161.5570  209.7260  150.6130 C   0  0  0  0  0  3  0  0  0  0  0  0
  161.9580  209.1890  149.3850 C   0  0  0  0  0  3  0  0  0  0  0  0
  160.1950  206.9510  156.1450 C   0  0  0  0  0  3  0  0  0  0  0  0
  162.1180  207.8070  149.2400 C   0  0  0  0  0  0  0  0  0  0  0  0
  160.8130  207.2200  153.8710 C   0  0  0  0  0  0  0  0  0  0  0  0
  161.8670  206.9560  150.3210 C   0  0  0  0  0  3  0  0  0  0  0  0
  161.2130  206.6530  152.6540 C   0  0  0  0  0  0  0  0  0  0  0  0
  161.3110  208.8810  151.6970 C   0  0  0  0  0  0  0  0  0  0  0  0
  160.5770  206.4290  154.9520 N   0  0  0  0  0  0  0  0  0  0  0  0
  160.9210  209.4050  152.8880 N   0  0  0  0  0  0  0  0  0  0  0  0
  161.3600  205.2730  152.5430 O   0  0  0  0  0  1  0  0  0  0  0  0
  160.6620  208.6220  153.9730 C   0  0  0  0  0  0  0  0  0  0  0  0
  160.0340  208.3290  156.2900 C   0  0  0  0  0  3  0  0  0  0  0  0
  159.2550  212.8040  155.1750 C   0  0  0  0  0  0  0  0  0  0  0  0
  160.2060  212.8170  156.0950 C   0  0  0  0  0  2  0  0  0  0  0  0
  160.7020  211.4550  156.2170 C   0  0  0  0  0  0  0  0  0  0  0  0
  159.0510  211.4450  154.5980 C   0  0  0  0  0  3  0  0  0  0  0  0
  160.0570  210.6510  155.3690 C   0  0  0  0  0  0  0  0  0  0  0  0
  161.8010  211.0640  157.1500 C   0  0  0  0  0  2  0  0  0  0  0  0
  163.0860  210.8400  156.3760 C   0  0  0  0  0  1  0  0  0  0  0  0
  158.5040  214.0150  154.7360 C   0  0  0  0  0  2  0  0  0  0  0  0
  156.2040  213.7820  155.0820 C   0  0  0  0  0  1  0  0  0  0  0  0
  157.2570  213.6310  154.0940 N   0  0  0  0  0  2  0  0  0  0  0  0
  162.5210  207.2390  147.9260 C   0  0  0  0  0  2  0  0  0  0  0  0
  161.9330  205.1620  146.6220 C   0  0  0  0  0  0  0  0  0  0  0  0
  162.1520  205.8340  147.8640 N   0  0  0  0  0  2  0  0  0  0  0  0
  162.0570  205.7840  145.5320 O   0  0  0  0  0  0  0  0  0  0  0  0
  161.5630  203.7430  146.6130 C   0  0  0  0  0  0  0  0  0  0  0  0
  161.2980  203.1710  145.5210 O   0  0  0  0  0  0  0  0  0  0  0  0
  161.5060  203.0380  147.8170 O   0  0  0  0  0  0  0  0  0  0  0  0
  160.4250  201.5470  149.3490 C   0  0  0  0  0  1  0  0  0  0  0  0
  160.8610  201.7770  147.9170 C   0  0  0  0  0  2  0  0  0  0  0  0
  1 10  1  0  0  0  0
  1  9  2  0  0  0  0
  2 20  1  0  0  0  0
  2 15  1  0  0  0  0
  3 10  1  0  0  0  0
  4  3  2  0  0  0  0
  5 15  2  0  0  0  0
  6  4  1  0  0  0  0
  6  8  2  0  0  0  0
  7 14  1  0  0  0  0
  7 11  2  0  0  0  0
  8  1  1  0  0  0  0
  9  7  1  0  0  0  0
 10 12  2  0  0  0  0
 11  5  1  0  0  0  0
 12 14  1  0  0  0  0
 13  9  1  0  0  0  0
 14  2  2  0  0  0  0
 16 17  1  0  0  0  0
 17 18  1  0  0  0  0
 18 21  1  0  0  0  0
 19 16  2  0  0  0  0
 19 20  1  0  0  0  0
 20 18  2  0  0  0  0
 22 21  1  0  0  0  0
 23 16  1  0  0  0  0
 25 23  1  0  0  0  0
 25 24  1  0  0  0  0
 26  6  1  0  0  0  0
 27 28  1  0  0  0  0
 28 26  1  0  0  0  0
 29 27  2  0  0  0  0
 30 27  1  0  0  0  0
 30 32  1  0  0  0  0
 31 30  2  0  0  0  0
 32 34  1  0  0  0  0
 34 33  1  0  0  0  0
M  END
>  <MODEL>
7

>  <REMARK>
 VINA RESULT:      -7.4      2.417      4.776
  Name = 
  9 active torsions:
  status: ('A' for Active; 'I' for Inactive)
    1  A    between atoms: C_1  and  C_11
    2  A    between atoms: C_2  and  C_20
    3  A    between atoms: C_4  and  C_8
    4  A    between atoms: C_7  and  C_30
    5  A    between atoms: C_11  and  N_21
    6  A    between atoms: C_12  and  N_15
    7  A    between atoms: C_12  and  C_17
    8  A    between atoms: C_13  and  O_27
    9  A    between atoms: C_20  and  O_27
                            x       y       z     vdW  Elec       q    Type
                         _______ _______ _______ _____ _____    ______ ____

>  <TORSDO>
F 9

$$$$
=
 OpenBabel11042422113D

 34 37  0  0  0  0  0  0  0  0999 V2000
  161.1920  208.6410  153.1600 C   0  0  0  0  0  0  0  0  0  0  0  0
  161.5690  206.9540  149.3290 C   0  0  0  0  0  0  0  0  0  0  0  0
  160.6960  206.4180  154.0200 C   0  0  0  0  0  3  0  0  0  0  0  0
  160.5640  206.9500  155.3060 C   0  0  0  0  0  3  0  0  0  0  0  0
  162.0830  209.1690  148.4810 C   0  0  0  0  0  3  0  0  0  0  0  0
  160.7500  208.3190  155.5250 C   0  0  0  0  0  0  0  0  0  0  0  0
  161.6310  208.9040  150.7940 C   0  0  0  0  0  0  0  0  0  0  0  0
  161.0570  209.1630  154.4530 C   0  0  0  0  0  3  0  0  0  0  0  0
  161.5050  209.4650  152.0720 C   0  0  0  0  0  0  0  0  0  0  0  0
  161.0090  207.2560  152.9470 C   0  0  0  0  0  0  0  0  0  0  0  0
  161.9480  209.6870  149.7290 N   0  0  0  0  0  0  0  0  0  0  0  0
  161.1360  206.7370  151.6980 N   0  0  0  0  0  0  0  0  0  0  0  0
  161.6930  210.8320  152.2540 O   0  0  0  0  0  1  0  0  0  0  0  0
  161.4330  207.5140  150.6190 C   0  0  0  0  0  0  0  0  0  0  0  0
  161.8960  207.8040  148.2630 C   0  0  0  0  0  3  0  0  0  0  0  0
  160.8070  203.2770  149.3130 C   0  0  0  0  0  0  0  0  0  0  0  0
  161.1470  203.4680  148.0490 C   0  0  0  0  0  3  0  0  0  0  0  0
  161.4760  204.8770  147.9020 C   0  0  0  0  0  0  0  0  0  0  0  0
  160.8970  204.5310  150.1140 C   0  0  0  0  0  2  0  0  0  0  0  0
  161.3420  205.5070  149.0720 C   0  0  0  0  0  0  0  0  0  0  0  0
  161.9260  205.4840  146.6140 C   0  0  0  0  0  2  0  0  0  0  0  0
  163.1220  204.7270  146.0710 C   0  0  0  0  0  1  0  0  0  0  0  0
  160.4210  201.9540  149.8810 C   0  0  0  0  0  2  0  0  0  0  0  0
  161.2150  200.5790  148.1630 C   0  0  0  0  0  1  0  0  0  0  0  0
  161.4220  200.9520  149.5520 N   0  0  0  0  0  2  0  0  0  0  0  0
  160.5840  208.8830  156.8910 C   0  0  0  0  0  2  0  0  0  0  0  0
  159.8500  211.2940  156.9850 C   0  0  0  0  0  0  0  0  0  0  0  0
  159.5460  209.9020  156.8790 N   0  0  0  0  0  2  0  0  0  0  0  0
  161.0470  211.6770  157.0930 O   0  0  0  0  0  0  0  0  0  0  0  0
  158.7680  212.2830  156.9680 C   0  0  0  0  0  0  0  0  0  0  0  0
  159.0300  213.4970  156.7510 O   0  0  0  0  0  0  0  0  0  0  0  0
  157.4530  211.8700  157.1940 O   0  0  0  0  0  0  0  0  0  0  0  0
  156.0580  211.0280  155.4390 C   0  0  0  0  0  1  0  0  0  0  0  0
  156.3960  212.2170  156.3120 C   0  0  0  0  0  2  0  0  0  0  0  0
  1  8  2  0  0  0  0
  2 14  1  0  0  0  0
  3  4  1  0  0  0  0
  4  6  2  0  0  0  0
  5 11  2  0  0  0  0
  6 26  1  0  0  0  0
  7  9  2  0  0  0  0
  8  6  1  0  0  0  0
  9 13  1  0  0  0  0
  9  1  1  0  0  0  0
 10  1  1  0  0  0  0
 10  3  2  0  0  0  0
 11  7  1  0  0  0  0
 12 10  1  0  0  0  0
 14  7  1  0  0  0  0
 14 12  2  0  0  0  0
 15  5  1  0  0  0  0
 15  2  2  0  0  0  0
 16 23  1  0  0  0  0
 16 19  1  0  0  0  0
 17 16  2  0  0  0  0
 18 17  1  0  0  0  0
 18 20  2  0  0  0  0
 20  2  1  0  0  0  0
 20 19  1  0  0  0  0
 21 18  1  0  0  0  0
 22 21  1  0  0  0  0
 24 25  1  0  0  0  0
 25 23  1  0  0  0  0
 27 29  2  0  0  0  0
 28 26  1  0  0  0  0
 28 27  1  0  0  0  0
 30 27  1  0  0  0  0
 30 32  1  0  0  0  0
 31 30  2  0  0  0  0
 33 34  1  0  0  0  0
 34 32  1  0  0  0  0
M  END
>  <MODEL>
8

>  <REMARK>
 VINA RESULT:      -7.4      3.967      9.352
  Name = 
  9 active torsions:
  status: ('A' for Active; 'I' for Inactive)
    1  A    between atoms: C_1  and  C_11
    2  A    between atoms: C_2  and  C_20
    3  A    between atoms: C_4  and  C_8
    4  A    between atoms: C_7  and  C_30
    5  A    between atoms: C_11  and  N_21
    6  A    between atoms: C_12  and  N_15
    7  A    between atoms: C_12  and  C_17
    8  A    between atoms: C_13  and  O_27
    9  A    between atoms: C_20  and  O_27
                            x       y       z     vdW  Elec       q    Type
                         _______ _______ _______ _____ _____    ______ ____

>  <TORSDO>
F 9

$$$$
=
 OpenBabel11042422113D

 34 37  0  0  0  0  0  0  0  0999 V2000
  161.5280  206.2150  150.9600 C   0  0  0  0  0  0  0  0  0  0  0  0
  161.0500  210.2440  152.0560 C   0  0  0  0  0  0  0  0  0  0  0  0
  160.6000  205.5830  153.1190 C   0  0  0  0  0  3  0  0  0  0  0  0
  160.7460  204.2340  152.7830 C   0  0  0  0  0  3  0  0  0  0  0  0
  161.9580  210.8680  149.8940 C   0  0  0  0  0  3  0  0  0  0  0  0
  161.2760  203.8720  151.5390 C   0  0  0  0  0  0  0  0  0  0  0  0
  161.7530  208.5670  150.4310 C   0  0  0  0  0  0  0  0  0  0  0  0
  161.6710  204.8610  150.6320 C   0  0  0  0  0  3  0  0  0  0  0  0
  161.9120  207.2230  150.0660 C   0  0  0  0  0  0  0  0  0  0  0  0
  160.9870  206.5750  152.2140 C   0  0  0  0  0  0  0  0  0  0  0  0
  162.1070  209.5580  149.5700 N   0  0  0  0  0  0  0  0  0  0  0  0
  160.8450  207.8850  152.5440 N   0  0  0  0  0  0  0  0  0  0  0  0
  162.4450  206.8980  148.8220 O   0  0  0  0  0  1  0  0  0  0  0  0
  161.2140  208.8880  151.6990 C   0  0  0  0  0  0  0  0  0  0  0  0
  161.4320  211.2290  151.1350 C   0  0  0  0  0  3  0  0  0  0  0  0
  159.1350  211.3220  155.1020 C   0  0  0  0  0  0  0  0  0  0  0  0
  160.3340  211.1110  155.6210 C   0  0  0  0  0  2  0  0  0  0  0  0
  161.2000  210.6800  154.5350 C   0  0  0  0  0  0  0  0  0  0  0  0
  159.1060  211.0670  153.6340 C   0  0  0  0  0  3  0  0  0  0  0  0
  160.5210  210.6480  153.3870 C   0  0  0  0  0  0  0  0  0  0  0  0
  162.6480  210.3600  154.7200 C   0  0  0  0  0  2  0  0  0  0  0  0
  163.0810  210.7020  156.1320 C   0  0  0  0  0  1  0  0  0  0  0  0
  157.9600  211.7990  155.8870 C   0  0  0  0  0  2  0  0  0  0  0  0
  155.8560  211.1080  155.1360 C   0  0  0  0  0  1  0  0  0  0  0  0
  156.8650  212.1430  154.9950 N   0  0  0  0  0  2  0  0  0  0  0  0
  161.4520  202.4360  151.1960 C   0  0  0  0  0  2  0  0  0  0  0  0
  160.6970  201.9000  148.8500 C   0  0  0  0  0  0  0  0  0  0  0  0
  161.7140  202.2990  149.7720 N   0  0  0  0  0  2  0  0  0  0  0  0
  159.5300  201.6520  149.2590 O   0  0  0  0  0  0  0  0  0  0  0  0
  161.0110  201.7770  147.4240 C   0  0  0  0  0  0  0  0  0  0  0  0
  161.2130  200.6380  146.9210 O   0  0  0  0  0  0  0  0  0  0  0  0
  161.0860  202.9250  146.6320 O   0  0  0  0  0  0  0  0  0  0  0  0
  162.4750  204.6700  145.7580 C   0  0  0  0  0  1  0  0  0  0  0  0
  161.8830  204.0400  147.0010 C   0  0  0  0  0  2  0  0  0  0  0  0
  1 10  1  0  0  0  0
  2 20  1  0  0  0  0
  4  3  1  0  0  0  0
  5 15  1  0  0  0  0
  6  4  2  0  0  0  0
  7 14  1  0  0  0  0
  8  1  2  0  0  0  0
  8  6  1  0  0  0  0
  9  7  2  0  0  0  0
  9  1  1  0  0  0  0
 10 12  1  0  0  0  0
 10  3  2  0  0  0  0
 11  5  2  0  0  0  0
 11  7  1  0  0  0  0
 13  9  1  0  0  0  0
 14  2  1  0  0  0  0
 14 12  2  0  0  0  0
 15  2  2  0  0  0  0
 16 17  1  0  0  0  0
 16 23  1  0  0  0  0
 18 21  1  0  0  0  0
 18 17  1  0  0  0  0
 19 16  2  0  0  0  0
 20 19  1  0  0  0  0
 20 18  2  0  0  0  0
 21 22  1  0  0  0  0
 25 24  1  0  0  0  0
 25 23  1  0  0  0  0
 26  6  1  0  0  0  0
 27 29  2  0  0  0  0
 27 28  1  0  0  0  0
 28 26  1  0  0  0  0
 30 27  1  0  0  0  0
 31 30  2  0  0  0  0
 32 34  1  0  0  0  0
 32 30  1  0  0  0  0
 33 34  1  0  0  0  0
M  END
>  <MODEL>
9

>  <REMARK>
 VINA RESULT:      -6.9      1.664      2.586
  Name = 
  9 active torsions:
  status: ('A' for Active; 'I' for Inactive)
    1  A    between atoms: C_1  and  C_11
    2  A    between atoms: C_2  and  C_20
    3  A    between atoms: C_4  and  C_8
    4  A    between atoms: C_7  and  C_30
    5  A    between atoms: C_11  and  N_21
    6  A    between atoms: C_12  and  N_15
    7  A    between atoms: C_12  and  C_17
    8  A    between atoms: C_13  and  O_27
    9  A    between atoms: C_20  and  O_27
                            x       y       z     vdW  Elec       q    Type
                         _______ _______ _______ _____ _____    ______ ____

>  <TORSDO>
F 9

$$$$
