=
 OpenBabel11052411553D

 32 37  0  0  1  0  0  0  0  0999 V2000
  161.7260  207.7550  148.9380 C   0  0  0  0  0  3  0  0  0  0  0  0
  160.9950  206.3020  153.7550 C   0  0  0  0  0  3  0  0  0  0  0  0
  161.1090  204.3650  149.7350 C   0  0  0  0  0  0  0  0  0  0  0  0
  161.2200  208.5890  154.9220 C   0  0  2  0  0  3  0  0  0  0  0  0
  161.4300  208.3420  152.6000 N   0  0  0  0  0  0  0  0  0  0  0  0
  161.5080  206.3810  148.9350 C   0  0  0  0  0  0  0  0  0  0  0  0
  161.0170  205.6220  152.5320 C   0  0  0  0  0  3  0  0  0  0  0  0
  161.7030  208.4430  150.1640 C   0  0  0  0  0  0  0  0  0  0  0  0
  161.4650  207.7310  151.3780 C   0  0  0  0  0  0  0  0  0  0  0  0
  160.8460  203.2830  150.6220 N   0  0  0  0  0  1  0  0  0  0  0  0
  161.5190  209.9510  154.2640 C   0  0  0  0  0  2  0  0  0  0  0  0
  161.2490  206.3230  151.3360 C   0  0  0  0  0  0  0  0  0  0  0  0
  161.4870  205.5220  147.8530 C   0  0  0  0  0  3  0  0  0  0  0  0
  161.2780  205.6840  150.0920 C   0  0  0  0  0  0  0  0  0  0  0  0
  161.2070  207.6780  153.7440 C   0  0  0  0  0  0  0  0  0  0  0  0
  161.6090  209.6710  152.8690 O   0  0  0  0  0  0  0  0  0  0  0  0
  161.2340  204.2480  148.3600 C   0  0  0  0  0  3  0  0  0  0  0  0
  159.9520  208.6230  155.5040 O   0  0  0  0  0  0  0  0  0  0  0  0
  160.1870  208.6440  156.8370 N   0  0  0  0  0  2  0  0  0  0  0  0
  160.3340  207.2630  157.2580 C   0  0  0  0  0  1  0  0  0  0  0  0
  161.9670  209.9120  150.1370 C   0  0  0  0  0  2  0  0  0  0  0  0
  161.9730  210.4140  148.7040 C   0  0  0  0  0  2  0  0  0  0  0  0
  162.4830  211.7730  148.6630 N   0  0  0  0  0  2  0  0  0  0  0  0
  161.3340  212.6650  148.7450 C   0  0  0  0  0  2  0  0  0  0  0  0
  162.5400  213.5110  146.6950 C   0  0  0  0  0  2  0  0  0  0  0  0
  160.4410  212.6330  143.4760 S   0  0  0  0  0  0  0  0  0  0  0  0
  159.8140  213.0710  146.4410 S   0  0  0  0  0  0  0  0  0  0  0  0
  161.2400  213.5500  147.5070 C   0  0  1  0  0  3  0  0  0  0  0  0
  163.0620  213.1340  144.2030 C   0  0  0  0  0  2  0  0  0  0  0  0
  161.0000  212.5600  145.1850 C   0  0  2  0  0  3  0  0  0  0  0  0
  162.0880  213.5530  145.2650 C   0  0  1  0  0  3  0  0  0  0  0  0
  162.1980  212.8620  142.9680 C   0  0  0  0  0  2  0  0  0  0  0  0
  1  8  1  0  0  0  0
  3 14  2  0  0  0  0
  3 10  1  0  0  0  0
  4 18  1  6  0  0  0
  5 16  1  0  0  0  0
  5 15  1  0  0  0  0
  6  1  2  0  0  0  0
  6 14  1  0  0  0  0
  7  2  1  0  0  0  0
  8  9  2  0  0  0  0
  9  5  1  0  0  0  0
 11  4  1  0  0  0  0
 12  9  1  0  0  0  0
 12  7  2  0  0  0  0
 13 17  2  0  0  0  0
 13  6  1  0  0  0  0
 14 12  1  0  0  0  0
 15  2  2  0  0  0  0
 15  4  1  0  0  0  0
 16 11  1  0  0  0  0
 17  3  1  0  0  0  0
 18 19  1  0  0  0  0
 19 20  1  0  0  0  0
 21  8  1  0  0  0  0
 22 21  1  0  0  0  0
 23 22  1  0  0  0  0
 23 24  1  0  0  0  0
 25 28  1  0  0  0  0
 27 28  1  0  0  0  0
 28 24  1  1  0  0  0
 30 26  1  6  0  0  0
 30 31  1  0  0  0  0
 30 27  1  0  0  0  0
 31 29  1  6  0  0  0
 31 25  1  0  0  0  0
 32 26  1  0  0  0  0
 32 29  1  0  0  0  0
M  END
>  <MODEL>
1

>  <REMARK>
 VINA RESULT:      -8.9      0.000      0.000
  Name = 
  7 active torsions:
  status: ('A' for Active; 'I' for Inactive)
    1  A    between atoms: O_3  and  N_4
    2  A    between atoms: O_3  and  C_12
    3  A    between atoms: C_5  and  C_16
    4  A    between atoms: C_5  and  C_28
    5  A    between atoms: C_8  and  C_25
    6  A    between atoms: N_20  and  C_25
    7  A    between atoms: N_20  and  C_28
                            x       y       z     vdW  Elec       q    Type
                         _______ _______ _______ _____ _____    ______ ____

>  <TORSDO>
F 7

$$$$
=
 OpenBabel11052411553D

 32 37  0  0  1  0  0  0  0  0999 V2000
  161.7560  208.9560  151.2590 C   0  0  0  0  0  3  0  0  0  0  0  0
  160.9610  204.3290  149.3060 C   0  0  0  0  0  3  0  0  0  0  0  0
  161.1270  206.1830  153.3630 C   0  0  0  0  0  0  0  0  0  0  0  0
  161.1970  204.8850  146.8010 C   0  0  2  0  0  3  0  0  0  0  0  0
  161.4240  206.5130  148.4710 N   0  0  0  0  0  0  0  0  0  0  0  0
  161.5410  208.0810  152.3200 C   0  0  0  0  0  0  0  0  0  0  0  0
  160.9960  204.8360  150.6090 C   0  0  0  0  0  3  0  0  0  0  0  0
  161.7240  208.4510  149.9470 C   0  0  0  0  0  0  0  0  0  0  0  0
  161.4680  207.0650  149.7220 C   0  0  0  0  0  0  0  0  0  0  0  0
  160.8530  204.8120  153.6310 N   0  0  0  0  0  1  0  0  0  0  0  0
  161.4750  206.2640  146.1700 C   0  0  0  0  0  2  0  0  0  0  0  0
  161.2500  206.2000  150.8330 C   0  0  0  0  0  0  0  0  0  0  0  0
  161.5310  208.3650  153.6720 C   0  0  0  0  0  3  0  0  0  0  0  0
  161.2950  206.7490  152.1190 C   0  0  0  0  0  0  0  0  0  0  0  0
  161.1850  205.2120  148.2530 C   0  0  0  0  0  0  0  0  0  0  0  0
  161.6050  207.1530  147.2760 O   0  0  0  0  0  0  0  0  0  0  0  0
  161.2700  207.1650  154.3310 C   0  0  0  0  0  3  0  0  0  0  0  0
  162.2610  204.0240  146.5220 O   0  0  0  0  0  0  0  0  0  0  0  0
  161.9070  203.4050  145.3710 N   0  0  0  0  0  2  0  0  0  0  0  0
  160.8990  202.4200  145.7200 C   0  0  0  0  0  1  0  0  0  0  0  0
  161.9310  209.4190  148.8300 C   0  0  0  0  0  2  0  0  0  0  0  0
  162.1170  210.8210  149.3820 C   0  0  0  0  0  2  0  0  0  0  0  0
  162.3390  211.7520  148.2910 N   0  0  0  0  0  2  0  0  0  0  0  0
  161.5300  212.9320  148.5610 C   0  0  0  0  0  2  0  0  0  0  0  0
  162.3950  213.5030  146.2600 C   0  0  0  0  0  2  0  0  0  0  0  0
  159.6710  212.5840  143.5640 S   0  0  0  0  0  0  0  0  0  0  0  0
  159.6440  213.3030  146.5390 S   0  0  0  0  0  0  0  0  0  0  0  0
  161.2760  213.7250  147.2850 C   0  0  1  0  0  3  0  0  0  0  0  0
  162.4120  212.8910  143.7600 C   0  0  0  0  0  2  0  0  0  0  0  0
  160.5300  212.5890  145.1440 C   0  0  2  0  0  3  0  0  0  0  0  0
  161.6890  213.4790  144.9360 C   0  0  1  0  0  3  0  0  0  0  0  0
  161.3140  212.6080  142.7300 C   0  0  0  0  0  2  0  0  0  0  0  0
  1  6  2  0  0  0  0
  2  7  1  0  0  0  0
  3 10  1  0  0  0  0
  3 17  1  0  0  0  0
  4 18  1  1  0  0  0
  4 15  1  0  0  0  0
  5  9  1  0  0  0  0
  6 13  1  0  0  0  0
  7 12  2  0  0  0  0
  8  1  1  0  0  0  0
  9  8  2  0  0  0  0
  9 12  1  0  0  0  0
 11  4  1  0  0  0  0
 11 16  1  0  0  0  0
 12 14  1  0  0  0  0
 13 17  2  0  0  0  0
 14  6  1  0  0  0  0
 14  3  2  0  0  0  0
 15  5  1  0  0  0  0
 15  2  2  0  0  0  0
 16  5  1  0  0  0  0
 19 20  1  0  0  0  0
 19 18  1  0  0  0  0
 21 22  1  0  0  0  0
 21  8  1  0  0  0  0
 23 24  1  0  0  0  0
 23 22  1  0  0  0  0
 25 28  1  0  0  0  0
 27 28  1  0  0  0  0
 28 24  1  1  0  0  0
 30 26  1  6  0  0  0
 30 27  1  0  0  0  0
 31 29  1  6  0  0  0
 31 30  1  0  0  0  0
 31 25  1  0  0  0  0
 32 26  1  0  0  0  0
 32 29  1  0  0  0  0
M  END
>  <MODEL>
2

>  <REMARK>
 VINA RESULT:      -8.5      2.461      5.174
  Name = 
  7 active torsions:
  status: ('A' for Active; 'I' for Inactive)
    1  A    between atoms: O_3  and  N_4
    2  A    between atoms: O_3  and  C_12
    3  A    between atoms: C_5  and  C_16
    4  A    between atoms: C_5  and  C_28
    5  A    between atoms: C_8  and  C_25
    6  A    between atoms: N_20  and  C_25
    7  A    between atoms: N_20  and  C_28
                            x       y       z     vdW  Elec       q    Type
                         _______ _______ _______ _____ _____    ______ ____

>  <TORSDO>
F 7

$$$$
=
 OpenBabel11052411553D

 32 37  0  0  1  0  0  0  0  0999 V2000
  161.7240  206.8200  151.1080 C   0  0  0  0  0  3  0  0  0  0  0  0
  160.6470  211.0560  153.7050 C   0  0  0  0  0  3  0  0  0  0  0  0
  161.9030  209.9930  149.5560 C   0  0  0  0  0  0  0  0  0  0  0  0
  160.0990  210.0150  155.9970 C   0  0  2  0  0  3  0  0  0  0  0  0
  160.7190  208.7150  154.1480 N   0  0  0  0  0  0  0  0  0  0  0  0
  161.8820  207.8970  150.2420 C   0  0  0  0  0  0  0  0  0  0  0  0
  161.0380  210.8030  152.3850 C   0  0  0  0  0  3  0  0  0  0  0  0
  161.3330  207.0690  152.4350 C   0  0  0  0  0  0  0  0  0  0  0  0
  161.1000  208.4070  152.8710 C   0  0  0  0  0  0  0  0  0  0  0  0
  161.7980  211.4120  149.5220 N   0  0  0  0  0  1  0  0  0  0  0  0
  160.1000  208.5190  156.3710 C   0  0  0  0  0  2  0  0  0  0  0  0
  161.2700  209.4860  151.9550 C   0  0  0  0  0  0  0  0  0  0  0  0
  162.2570  207.8760  148.9120 C   0  0  0  0  0  3  0  0  0  0  0  0
  161.6630  209.1870  150.6460 C   0  0  0  0  0  0  0  0  0  0  0  0
  160.4990  209.9700  154.5640 C   0  0  0  0  0  0  0  0  0  0  0  0
  160.5010  207.8450  155.1810 O   0  0  0  0  0  0  0  0  0  0  0  0
  162.2710  209.2010  148.4790 C   0  0  0  0  0  3  0  0  0  0  0  0
  161.0790  210.6780  156.7390 O   0  0  0  0  0  0  0  0  0  0  0  0
  162.0870  209.7820  156.8540 N   0  0  0  0  0  2  0  0  0  0  0  0
  163.3000  210.5460  157.0810 C   0  0  0  0  0  1  0  0  0  0  0  0
  161.1450  205.8900  153.3320 C   0  0  0  0  0  2  0  0  0  0  0  0
  161.7770  204.6570  152.7120 C   0  0  0  0  0  2  0  0  0  0  0  0
  160.7630  203.6390  152.5030 N   0  0  0  0  0  2  0  0  0  0  0  0
  161.2050  202.8160  151.3860 C   0  0  0  0  0  2  0  0  0  0  0  0
  161.1570  204.1730  149.2590 C   0  0  0  0  0  2  0  0  0  0  0  0
  160.7990  201.7580  146.1640 S   0  0  0  0  0  0  0  0  0  0  0  0
  160.0670  201.6270  149.1330 S   0  0  0  0  0  0  0  0  0  0  0  0
  160.4190  203.1430  150.1220 C   0  0  1  0  0  3  0  0  0  0  0  0
  161.7780  204.2740  146.7630 C   0  0  0  0  0  2  0  0  0  0  0  0
  161.1460  202.2830  147.8490 C   0  0  2  0  0  3  0  0  0  0  0  0
  160.8910  203.7360  147.8470 C   0  0  1  0  0  3  0  0  0  0  0  0
  161.5540  203.3330  145.5750 C   0  0  0  0  0  2  0  0  0  0  0  0
  1  8  1  0  0  0  0
  2 15  2  0  0  0  0
  3 14  2  0  0  0  0
  4 11  1  0  0  0  0
  4 18  1  1  0  0  0
  5 15  1  0  0  0  0
  5 16  1  0  0  0  0
  6 14  1  0  0  0  0
  6  1  2  0  0  0  0
  7  2  1  0  0  0  0
  8  9  2  0  0  0  0
  8 21  1  0  0  0  0
  9  5  1  0  0  0  0
 10  3  1  0  0  0  0
 12  7  2  0  0  0  0
 12  9  1  0  0  0  0
 13  6  1  0  0  0  0
 14 12  1  0  0  0  0
 15  4  1  0  0  0  0
 16 11  1  0  0  0  0
 17 13  2  0  0  0  0
 17  3  1  0  0  0  0
 18 19  1  0  0  0  0
 19 20  1  0  0  0  0
 22 21  1  0  0  0  0
 23 22  1  0  0  0  0
 24 23  1  0  0  0  0
 25 28  1  0  0  0  0
 27 28  1  0  0  0  0
 28 24  1  1  0  0  0
 30 26  1  6  0  0  0
 30 27  1  0  0  0  0
 31 29  1  6  0  0  0
 31 30  1  0  0  0  0
 31 25  1  0  0  0  0
 32 26  1  0  0  0  0
 32 29  1  0  0  0  0
M  END
>  <MODEL>
3

>  <REMARK>
 VINA RESULT:      -8.4      3.861      6.688
  Name = 
  7 active torsions:
  status: ('A' for Active; 'I' for Inactive)
    1  A    between atoms: O_3  and  N_4
    2  A    between atoms: O_3  and  C_12
    3  A    between atoms: C_5  and  C_16
    4  A    between atoms: C_5  and  C_28
    5  A    between atoms: C_8  and  C_25
    6  A    between atoms: N_20  and  C_25
    7  A    between atoms: N_20  and  C_28
                            x       y       z     vdW  Elec       q    Type
                         _______ _______ _______ _____ _____    ______ ____

>  <TORSDO>
F 7

$$$$
=
 OpenBabel11052411553D

 32 37  0  0  1  0  0  0  0  0999 V2000
  160.7070  206.6270  154.1680 C   0  0  0  0  0  3  0  0  0  0  0  0
  161.7160  210.8750  151.5640 C   0  0  0  0  0  3  0  0  0  0  0  0
  160.5050  209.7970  155.7220 C   0  0  0  0  0  0  0  0  0  0  0  0
  162.2560  209.8400  149.2660 C   0  0  2  0  0  3  0  0  0  0  0  0
  161.6660  208.5330  151.1200 N   0  0  0  0  0  0  0  0  0  0  0  0
  160.5440  207.7020  155.0360 C   0  0  0  0  0  0  0  0  0  0  0  0
  161.3390  210.6180  152.8860 C   0  0  0  0  0  3  0  0  0  0  0  0
  161.0840  206.8800  152.8370 C   0  0  0  0  0  0  0  0  0  0  0  0
  161.2990  208.2210  152.4000 C   0  0  0  0  0  0  0  0  0  0  0  0
  160.5960  211.2170  155.7560 N   0  0  0  0  0  1  0  0  0  0  0  0
  162.2690  208.3440  148.8920 C   0  0  0  0  0  2  0  0  0  0  0  0
  161.1250  209.2980  153.3180 C   0  0  0  0  0  0  0  0  0  0  0  0
  160.1800  207.6760  156.3690 C   0  0  0  0  0  3  0  0  0  0  0  0
  160.7450  208.9950  154.6300 C   0  0  0  0  0  0  0  0  0  0  0  0
  161.8690  209.7910  150.7020 C   0  0  0  0  0  0  0  0  0  0  0  0
  161.8840  207.6660  150.0850 O   0  0  0  0  0  0  0  0  0  0  0  0
  160.1550  209.0010  156.8010 C   0  0  0  0  0  3  0  0  0  0  0  0
  161.2640  210.4930  148.5330 O   0  0  0  0  0  0  0  0  0  0  0  0
  161.8860  211.5680  147.9960 N   0  0  0  0  0  2  0  0  0  0  0  0
  161.1870  212.7430  148.4850 C   0  0  0  0  0  1  0  0  0  0  0  0
  161.2770  205.7040  151.9390 C   0  0  0  0  0  2  0  0  0  0  0  0
  161.5690  204.4620  152.7610 C   0  0  0  0  0  2  0  0  0  0  0  0
  160.6530  203.4000  152.3870 N   0  0  0  0  0  2  0  0  0  0  0  0
  161.2150  202.7380  151.2180 C   0  0  0  0  0  2  0  0  0  0  0  0
  161.1400  204.1100  149.1010 C   0  0  0  0  0  2  0  0  0  0  0  0
  160.7630  201.7150  145.9930 S   0  0  0  0  0  0  0  0  0  0  0  0
  160.0610  201.5590  148.9680 S   0  0  0  0  0  0  0  0  0  0  0  0
  160.4150  203.0700  149.9640 C   0  0  1  0  0  3  0  0  0  0  0  0
  161.7340  204.2320  146.5990 C   0  0  0  0  0  2  0  0  0  0  0  0
  161.1230  202.2290  147.6780 C   0  0  2  0  0  3  0  0  0  0  0  0
  160.8620  203.6820  147.6890 C   0  0  1  0  0  3  0  0  0  0  0  0
  161.5030  203.2970  145.4080 C   0  0  0  0  0  2  0  0  0  0  0  0
  1  6  2  0  0  0  0
  2  7  1  0  0  0  0
  3 10  1  0  0  0  0
  3 17  1  0  0  0  0
  4 18  1  6  0  0  0
  4 15  1  0  0  0  0
  5  9  1  0  0  0  0
  6 13  1  0  0  0  0
  7 12  2  0  0  0  0
  8  1  1  0  0  0  0
  9  8  2  0  0  0  0
  9 12  1  0  0  0  0
 11  4  1  0  0  0  0
 11 16  1  0  0  0  0
 12 14  1  0  0  0  0
 13 17  2  0  0  0  0
 14  6  1  0  0  0  0
 14  3  2  0  0  0  0
 15  5  1  0  0  0  0
 15  2  2  0  0  0  0
 16  5  1  0  0  0  0
 19 20  1  0  0  0  0
 19 18  1  0  0  0  0
 21 22  1  0  0  0  0
 21  8  1  0  0  0  0
 23 22  1  0  0  0  0
 24 23  1  0  0  0  0
 25 28  1  0  0  0  0
 27 28  1  0  0  0  0
 28 24  1  1  0  0  0
 30 26  1  6  0  0  0
 30 31  1  0  0  0  0
 30 27  1  0  0  0  0
 31 29  1  6  0  0  0
 31 25  1  0  0  0  0
 32 26  1  0  0  0  0
 32 29  1  0  0  0  0
M  END
>  <MODEL>
4

>  <REMARK>
 VINA RESULT:      -8.0      3.634      7.900
  Name = 
  7 active torsions:
  status: ('A' for Active; 'I' for Inactive)
    1  A    between atoms: O_3  and  N_4
    2  A    between atoms: O_3  and  C_12
    3  A    between atoms: C_5  and  C_16
    4  A    between atoms: C_5  and  C_28
    5  A    between atoms: C_8  and  C_25
    6  A    between atoms: N_20  and  C_25
    7  A    between atoms: N_20  and  C_28
                            x       y       z     vdW  Elec       q    Type
                         _______ _______ _______ _____ _____    ______ ____

>  <TORSDO>
F 7

$$$$
=
 OpenBabel11052411553D

 32 37  0  0  1  0  0  0  0  0999 V2000
  161.7390  207.9460  149.2620 C   0  0  0  0  0  3  0  0  0  0  0  0
  160.9750  206.8710  154.1720 C   0  0  0  0  0  3  0  0  0  0  0  0
  160.8850  204.6710  150.2900 C   0  0  0  0  0  0  0  0  0  0  0  0
  161.3860  209.2070  155.1810 C   0  0  2  0  0  3  0  0  0  0  0  0
  161.5420  208.7920  152.8800 N   0  0  0  0  0  0  0  0  0  0  0  0
  161.4200  206.5940  149.3530 C   0  0  0  0  0  0  0  0  0  0  0  0
  160.9280  206.1130  152.9980 C   0  0  0  0  0  3  0  0  0  0  0  0
  161.7860  208.7130  150.4400 C   0  0  0  0  0  0  0  0  0  0  0  0
  161.5140  208.1010  151.7000 C   0  0  0  0  0  0  0  0  0  0  0  0
  160.5570  203.6720  151.2500 N   0  0  0  0  0  1  0  0  0  0  0  0
  161.7740  210.4960  154.4300 C   0  0  0  0  0  2  0  0  0  0  0  0
  161.1930  206.7140  151.7550 C   0  0  0  0  0  0  0  0  0  0  0  0
  161.3200  205.6700  148.3310 C   0  0  0  0  0  3  0  0  0  0  0  0
  161.1570  205.9940  150.5560 C   0  0  0  0  0  0  0  0  0  0  0  0
  161.2880  208.2240  154.0670 C   0  0  0  0  0  0  0  0  0  0  0  0
  161.8230  210.1190  153.0570 O   0  0  0  0  0  0  0  0  0  0  0  0
  160.9810  204.4540  148.9240 C   0  0  0  0  0  3  0  0  0  0  0  0
  160.1320  209.3740  155.7730 O   0  0  0  0  0  0  0  0  0  0  0  0
  160.3880  209.9880  156.9510 N   0  0  0  0  0  2  0  0  0  0  0  0
  159.3000  210.9220  157.1810 C   0  0  0  0  0  1  0  0  0  0  0  0
  162.1570  210.1530  150.3110 C   0  0  0  0  0  2  0  0  0  0  0  0
  162.0400  210.5940  148.8630 C   0  0  0  0  0  2  0  0  0  0  0  0
  161.8860  212.0370  148.8020 N   0  0  0  0  0  2  0  0  0  0  0  0
  162.2990  212.4560  147.4700 C   0  0  0  0  0  2  0  0  0  0  0  0
  160.5560  213.0790  145.7540 C   0  0  0  0  0  2  0  0  0  0  0  0
  157.3140  214.3790  147.5810 S   0  0  0  0  0  0  0  0  0  0  0  0
  160.2940  214.2270  148.2640 S   0  0  0  0  0  0  0  0  0  0  0  0
  161.3950  213.5640  146.9420 C   0  0  1  0  0  3  0  0  0  0  0  0
  158.0480  213.2020  145.1890 C   0  0  0  0  0  2  0  0  0  0  0  0
  158.8940  213.5470  147.3590 C   0  0  2  0  0  3  0  0  0  0  0  0
  159.2270  213.7520  145.9360 C   0  0  1  0  0  3  0  0  0  0  0  0
  156.8260  213.7840  145.9070 C   0  0  0  0  0  2  0  0  0  0  0  0
  1  6  2  0  0  0  0
  1  8  1  0  0  0  0
  3 14  2  0  0  0  0
  3 10  1  0  0  0  0
  4 18  1  6  0  0  0
  5 16  1  0  0  0  0
  5 15  1  0  0  0  0
  6 14  1  0  0  0  0
  7  2  1  0  0  0  0
  8  9  2  0  0  0  0
  9 12  1  0  0  0  0
  9  5  1  0  0  0  0
 11  4  1  0  0  0  0
 12  7  2  0  0  0  0
 13 17  2  0  0  0  0
 13  6  1  0  0  0  0
 14 12  1  0  0  0  0
 15  2  2  0  0  0  0
 15  4  1  0  0  0  0
 16 11  1  0  0  0  0
 17  3  1  0  0  0  0
 18 19  1  0  0  0  0
 19 20  1  0  0  0  0
 21  8  1  0  0  0  0
 22 21  1  0  0  0  0
 23 22  1  0  0  0  0
 24 23  1  0  0  0  0
 25 31  1  0  0  0  0
 25 28  1  0  0  0  0
 28 24  1  1  0  0  0
 28 27  1  0  0  0  0
 29 32  1  0  0  0  0
 30 26  1  1  0  0  0
 30 27  1  0  0  0  0
 31 29  1  6  0  0  0
 31 30  1  0  0  0  0
 32 26  1  0  0  0  0
M  END
>  <MODEL>
5

>  <REMARK>
 VINA RESULT:      -8.0      1.578      2.161
  Name = 
  7 active torsions:
  status: ('A' for Active; 'I' for Inactive)
    1  A    between atoms: O_3  and  N_4
    2  A    between atoms: O_3  and  C_12
    3  A    between atoms: C_5  and  C_16
    4  A    between atoms: C_5  and  C_28
    5  A    between atoms: C_8  and  C_25
    6  A    between atoms: N_20  and  C_25
    7  A    between atoms: N_20  and  C_28
                            x       y       z     vdW  Elec       q    Type
                         _______ _______ _______ _____ _____    ______ ____

>  <TORSDO>
F 7

$$$$
=
 OpenBabel11052411553D

 32 37  0  0  1  0  0  0  0  0999 V2000
  161.9570  209.7580  151.2420 C   0  0  0  0  0  3  0  0  0  0  0  0
  160.8380  204.9280  150.1140 C   0  0  0  0  0  3  0  0  0  0  0  0
  161.0110  207.4760  153.7740 C   0  0  0  0  0  0  0  0  0  0  0  0
  161.2160  204.9950  147.5650 C   0  0  2  0  0  3  0  0  0  0  0  0
  161.5200  206.8790  148.9260 N   0  0  0  0  0  0  0  0  0  0  0  0
  161.6270  209.1120  152.4300 C   0  0  0  0  0  0  0  0  0  0  0  0
  160.8670  205.6610  151.3050 C   0  0  0  0  0  3  0  0  0  0  0  0
  161.9300  209.0240  150.0420 C   0  0  0  0  0  0  0  0  0  0  0  0
  161.5640  207.6450  150.0570 C   0  0  0  0  0  0  0  0  0  0  0  0
  160.6090  206.2040  154.2690 N   0  0  0  0  0  1  0  0  0  0  0  0
  161.6360  206.2080  146.7120 C   0  0  0  0  0  2  0  0  0  0  0  0
  161.2300  207.0190  151.2920 C   0  0  0  0  0  0  0  0  0  0  0  0
  161.5910  209.6400  153.7070 C   0  0  0  0  0  3  0  0  0  0  0  0
  161.2740  207.7890  152.4590 C   0  0  0  0  0  0  0  0  0  0  0  0
  161.1770  205.5830  148.9320 C   0  0  0  0  0  0  0  0  0  0  0  0
  161.8000  207.2720  147.6460 O   0  0  0  0  0  0  0  0  0  0  0  0
  161.2020  208.6050  154.5560 C   0  0  0  0  0  3  0  0  0  0  0  0
  162.2100  204.0160  147.5020 O   0  0  0  0  0  0  0  0  0  0  0  0
  161.5420  202.8640  147.2630 N   0  0  0  0  0  2  0  0  0  0  0  0
  161.2050  202.8620  145.8510 C   0  0  0  0  0  1  0  0  0  0  0  0
  162.2630  209.7520  148.7820 C   0  0  0  0  0  2  0  0  0  0  0  0
  162.0430  211.2420  148.9660 C   0  0  0  0  0  2  0  0  0  0  0  0
  162.0390  211.9010  147.6720 N   0  0  0  0  0  2  0  0  0  0  0  0
  162.4070  213.2920  147.8960 C   0  0  0  0  0  2  0  0  0  0  0  0
  160.6700  213.8010  146.1380 C   0  0  0  0  0  2  0  0  0  0  0  0
  157.0970  213.8870  147.8020 S   0  0  0  0  0  0  0  0  0  0  0  0
  159.9680  214.3300  148.7680 S   0  0  0  0  0  0  0  0  0  0  0  0
  161.2810  214.2300  147.4770 C   0  0  1  0  0  3  0  0  0  0  0  0
  158.2540  213.4220  145.3340 C   0  0  0  0  0  2  0  0  0  0  0  0
  158.8490  213.5240  147.6100 C   0  0  2  0  0  3  0  0  0  0  0  0
  159.2030  214.0810  146.2910 C   0  0  1  0  0  3  0  0  0  0  0  0
  156.8820  213.5360  146.0060 C   0  0  0  0  0  2  0  0  0  0  0  0
  1  6  2  0  0  0  0
  2  7  1  0  0  0  0
  3 10  1  0  0  0  0
  3 17  1  0  0  0  0
  4 18  1  1  0  0  0
  4 15  1  0  0  0  0
  5 15  1  0  0  0  0
  5  9  1  0  0  0  0
  6 14  1  0  0  0  0
  6 13  1  0  0  0  0
  8  9  2  0  0  0  0
  8  1  1  0  0  0  0
  9 12  1  0  0  0  0
 11  4  1  0  0  0  0
 11 16  1  0  0  0  0
 12  7  2  0  0  0  0
 12 14  1  0  0  0  0
 13 17  2  0  0  0  0
 14  3  2  0  0  0  0
 15  2  2  0  0  0  0
 16  5  1  0  0  0  0
 19 18  1  0  0  0  0
 20 19  1  0  0  0  0
 21 22  1  0  0  0  0
 21  8  1  0  0  0  0
 23 24  1  0  0  0  0
 23 22  1  0  0  0  0
 25 31  1  0  0  0  0
 25 28  1  0  0  0  0
 28 24  1  1  0  0  0
 28 27  1  0  0  0  0
 29 32  1  0  0  0  0
 30 26  1  1  0  0  0
 30 27  1  0  0  0  0
 31 29  1  6  0  0  0
 31 30  1  0  0  0  0
 32 26  1  0  0  0  0
M  END
>  <MODEL>
6

>  <REMARK>
 VINA RESULT:      -7.9      2.658      5.389
  Name = 
  7 active torsions:
  status: ('A' for Active; 'I' for Inactive)
    1  A    between atoms: O_3  and  N_4
    2  A    between atoms: O_3  and  C_12
    3  A    between atoms: C_5  and  C_16
    4  A    between atoms: C_5  and  C_28
    5  A    between atoms: C_8  and  C_25
    6  A    between atoms: N_20  and  C_25
    7  A    between atoms: N_20  and  C_28
                            x       y       z     vdW  Elec       q    Type
                         _______ _______ _______ _____ _____    ______ ____

>  <TORSDO>
F 7

$$$$
=
 OpenBabel11052411553D

 32 37  0  0  1  0  0  0  0  0999 V2000
  160.7410  203.2200  150.7510 C   0  0  0  0  0  3  0  0  0  0  0  0
  161.5230  206.9100  147.3410 C   0  0  0  0  0  3  0  0  0  0  0  0
  161.2040  202.4580  147.3280 C   0  0  0  0  0  0  0  0  0  0  0  0
  161.4480  208.9530  148.9100 C   0  0  2  0  0  3  0  0  0  0  0  0
  161.1640  206.7630  149.6930 N   0  0  0  0  0  0  0  0  0  0  0  0
  160.8880  202.6190  149.5050 C   0  0  0  0  0  0  0  0  0  0  0  0
  161.4340  205.5160  147.2550 C   0  0  0  0  0  3  0  0  0  0  0  0
  160.8320  204.6210  150.8430 C   0  0  0  0  0  0  0  0  0  0  0  0
  161.0650  205.3990  149.6700 C   0  0  0  0  0  0  0  0  0  0  0  0
  161.4340  202.7820  145.9620 N   0  0  0  0  0  1  0  0  0  0  0  0
  161.2020  208.9570  150.4320 C   0  0  0  0  0  2  0  0  0  0  0  0
  161.2070  204.7480  148.4100 C   0  0  0  0  0  0  0  0  0  0  0  0
  160.8360  201.2730  149.1950 C   0  0  0  0  0  3  0  0  0  0  0  0
  161.1130  203.3530  148.3710 C   0  0  0  0  0  0  0  0  0  0  0  0
  161.3830  207.5000  148.5950 C   0  0  0  0  0  0  0  0  0  0  0  0
  161.0610  207.5830  150.7830 O   0  0  0  0  0  0  0  0  0  0  0  0
  161.0370  201.1720  147.8190 C   0  0  0  0  0  3  0  0  0  0  0  0
  162.7310  209.4350  148.6460 O   0  0  0  0  0  0  0  0  0  0  0  0
  162.7080  210.7210  149.0660 N   0  0  0  0  0  2  0  0  0  0  0  0
  161.9510  211.4700  148.0780 C   0  0  0  0  0  1  0  0  0  0  0  0
  160.6440  205.2370  152.1890 C   0  0  0  0  0  2  0  0  0  0  0  0
  161.9560  205.2360  152.9520 C   0  0  0  0  0  2  0  0  0  0  0  0
  162.2140  206.5620  153.4860 N   0  0  0  0  0  2  0  0  0  0  0  0
  161.0050  206.9890  154.1770 C   0  0  0  0  0  2  0  0  0  0  0  0
  161.2670  209.4960  154.0470 C   0  0  0  0  0  2  0  0  0  0  0  0
  158.6050  211.2210  156.3870 S   0  0  0  0  0  0  0  0  0  0  0  0
  159.9930  208.4940  156.2970 S   0  0  0  0  0  0  0  0  0  0  0  0
  161.2500  208.2690  154.9670 C   0  0  1  0  0  3  0  0  0  0  0  0
  160.0910  211.7840  154.1240 C   0  0  0  0  0  2  0  0  0  0  0  0
  159.3890  209.9360  155.4020 C   0  0  2  0  0  3  0  0  0  0  0  0
  160.5990  210.5740  154.8500 C   0  0  1  0  0  3  0  0  0  0  0  0
  159.1090  212.4400  155.0990 C   0  0  0  0  0  2  0  0  0  0  0  0
  1  8  1  0  0  0  0
  2 15  2  0  0  0  0
  3 17  1  0  0  0  0
  3 14  2  0  0  0  0
  4 18  1  1  0  0  0
  4 11  1  0  0  0  0
  5 16  1  0  0  0  0
  6  1  2  0  0  0  0
  7  2  1  0  0  0  0
  7 12  2  0  0  0  0
  8 21  1  0  0  0  0
  9  5  1  0  0  0  0
  9  8  2  0  0  0  0
 10  3  1  0  0  0  0
 11 16  1  0  0  0  0
 12  9  1  0  0  0  0
 13  6  1  0  0  0  0
 14 12  1  0  0  0  0
 14  6  1  0  0  0  0
 15  4  1  0  0  0  0
 15  5  1  0  0  0  0
 17 13  2  0  0  0  0
 18 19  1  0  0  0  0
 20 19  1  0  0  0  0
 21 22  1  0  0  0  0
 22 23  1  0  0  0  0
 23 24  1  0  0  0  0
 25 28  1  0  0  0  0
 28 24  1  6  0  0  0
 28 27  1  0  0  0  0
 29 31  1  0  0  0  0
 29 32  1  0  0  0  0
 30 27  1  1  0  0  0
 30 26  1  0  0  0  0
 31 25  1  6  0  0  0
 31 30  1  0  0  0  0
 32 26  1  0  0  0  0
M  END
>  <MODEL>
7

>  <REMARK>
 VINA RESULT:      -7.9      3.763      7.198
  Name = 
  7 active torsions:
  status: ('A' for Active; 'I' for Inactive)
    1  A    between atoms: O_3  and  N_4
    2  A    between atoms: O_3  and  C_12
    3  A    between atoms: C_5  and  C_16
    4  A    between atoms: C_5  and  C_28
    5  A    between atoms: C_8  and  C_25
    6  A    between atoms: N_20  and  C_25
    7  A    between atoms: N_20  and  C_28
                            x       y       z     vdW  Elec       q    Type
                         _______ _______ _______ _____ _____    ______ ____

>  <TORSDO>
F 7

$$$$
=
 OpenBabel11052411553D

 32 37  0  0  1  0  0  0  0  0999 V2000
  161.6220  208.1840  152.2800 C   0  0  0  0  0  3  0  0  0  0  0  0
  159.3750  212.5850  153.4770 C   0  0  0  0  0  3  0  0  0  0  0  0
  160.1780  208.6730  155.4710 C   0  0  0  0  0  0  0  0  0  0  0  0
  159.7160  213.8480  151.2560 C   0  0  2  0  0  3  0  0  0  0  0  0
  160.4830  211.6570  151.5810 N   0  0  0  0  0  0  0  0  0  0  0  0
  161.1530  208.0770  153.5850 C   0  0  0  0  0  0  0  0  0  0  0  0
  159.5900  211.3890  154.1700 C   0  0  0  0  0  3  0  0  0  0  0  0
  161.4070  209.3840  151.5780 C   0  0  0  0  0  0  0  0  0  0  0  0
  160.7240  210.4660  152.2090 C   0  0  0  0  0  0  0  0  0  0  0  0
  159.4870  209.4220  156.4650 N   0  0  0  0  0  1  0  0  0  0  0  0
  160.4340  213.3380  149.9900 C   0  0  0  0  0  2  0  0  0  0  0  0
  160.2600  210.3210  153.5490 C   0  0  0  0  0  0  0  0  0  0  0  0
  161.2560  206.9990  154.4440 C   0  0  0  0  0  3  0  0  0  0  0  0
  160.4950  209.1070  154.2040 C   0  0  0  0  0  0  0  0  0  0  0  0
  159.8420  212.6780  152.1680 C   0  0  0  0  0  0  0  0  0  0  0  0
  160.8350  212.0090  150.3070 O   0  0  0  0  0  0  0  0  0  0  0  0
  160.6380  207.3770  155.6350 C   0  0  0  0  0  3  0  0  0  0  0  0
  158.3700  214.0760  150.9660 O   0  0  0  0  0  0  0  0  0  0  0  0
  158.2740  213.9060  149.6270 N   0  0  0  0  0  2  0  0  0  0  0  0
  156.9400  213.3960  149.3650 C   0  0  0  0  0  1  0  0  0  0  0  0
  161.9450  209.4770  150.1890 C   0  0  0  0  0  2  0  0  0  0  0  0
  162.1610  208.0870  149.6190 C   0  0  0  0  0  2  0  0  0  0  0  0
  161.3790  207.9260  148.4070 N   0  0  0  0  0  2  0  0  0  0  0  0
  160.6100  206.6980  148.5510 C   0  0  0  0  0  2  0  0  0  0  0  0
  160.9990  204.8200  150.1910 C   0  0  0  0  0  2  0  0  0  0  0  0
  161.1490  201.3900  148.2550 S   0  0  0  0  0  0  0  0  0  0  0  0
  161.6750  204.3220  147.5480 S   0  0  0  0  0  0  0  0  0  0  0  0
  161.5110  205.5300  148.9320 C   0  0  1  0  0  3  0  0  0  0  0  0
  160.5520  202.3540  150.7770 C   0  0  0  0  0  2  0  0  0  0  0  0
  160.7920  203.1260  148.5650 C   0  0  2  0  0  3  0  0  0  0  0  0
  161.2750  203.3670  149.9380 C   0  0  1  0  0  3  0  0  0  0  0  0
  160.6930  201.0390  150.0050 C   0  0  0  0  0  2  0  0  0  0  0  0
  1  6  2  0  0  0  0
  2  7  1  0  0  0  0
  3 17  1  0  0  0  0
  3 10  1  0  0  0  0
  4 18  1  6  0  0  0
  4 15  1  0  0  0  0
  5 15  1  0  0  0  0
  5  9  1  0  0  0  0
  6 14  1  0  0  0  0
  6 13  1  0  0  0  0
  8  9  2  0  0  0  0
  8  1  1  0  0  0  0
  9 12  1  0  0  0  0
 11 16  1  0  0  0  0
 11  4  1  0  0  0  0
 12  7  2  0  0  0  0
 12 14  1  0  0  0  0
 13 17  2  0  0  0  0
 14  3  2  0  0  0  0
 15  2  2  0  0  0  0
 16  5  1  0  0  0  0
 19 18  1  0  0  0  0
 20 19  1  0  0  0  0
 21  8  1  0  0  0  0
 22 21  1  0  0  0  0
 23 24  1  0  0  0  0
 23 22  1  0  0  0  0
 26 30  1  0  0  0  0
 26 32  1  0  0  0  0
 27 28  1  0  0  0  0
 28 24  1  6  0  0  0
 28 25  1  0  0  0  0
 30 27  1  6  0  0  0
 30 31  1  0  0  0  0
 31 25  1  1  0  0  0
 31 29  1  0  0  0  0
 32 29  1  0  0  0  0
M  END
>  <MODEL>
8

>  <REMARK>
 VINA RESULT:      -7.7      3.822      7.543
  Name = 
  7 active torsions:
  status: ('A' for Active; 'I' for Inactive)
    1  A    between atoms: O_3  and  N_4
    2  A    between atoms: O_3  and  C_12
    3  A    between atoms: C_5  and  C_16
    4  A    between atoms: C_5  and  C_28
    5  A    between atoms: C_8  and  C_25
    6  A    between atoms: N_20  and  C_25
    7  A    between atoms: N_20  and  C_28
                            x       y       z     vdW  Elec       q    Type
                         _______ _______ _______ _____ _____    ______ ____

>  <TORSDO>
F 7

$$$$
=
 OpenBabel11052411553D

 32 37  0  0  1  0  0  0  0  0999 V2000
  161.0990  204.7660  151.7110 C   0  0  0  0  0  3  0  0  0  0  0  0
  161.5670  207.7130  147.5950 C   0  0  0  0  0  3  0  0  0  0  0  0
  161.1830  203.3530  148.4700 C   0  0  0  0  0  0  0  0  0  0  0  0
  161.6890  210.0190  148.7410 C   0  0  2  0  0  3  0  0  0  0  0  0
  161.4580  208.0270  149.9550 N   0  0  0  0  0  0  0  0  0  0  0  0
  161.1030  203.9350  150.5950 C   0  0  0  0  0  0  0  0  0  0  0  0
  161.4490  206.3330  147.7870 C   0  0  0  0  0  3  0  0  0  0  0  0
  161.2200  206.1550  151.5220 C   0  0  0  0  0  0  0  0  0  0  0  0
  161.3370  206.6880  150.2040 C   0  0  0  0  0  0  0  0  0  0  0  0
  161.2710  203.4050  147.0500 N   0  0  0  0  0  1  0  0  0  0  0  0
  161.6080  210.3190  150.2510 C   0  0  0  0  0  2  0  0  0  0  0  0
  161.3350  205.8060  149.0850 C   0  0  0  0  0  0  0  0  0  0  0  0
  160.9990  202.5570  150.5570 C   0  0  0  0  0  3  0  0  0  0  0  0
  161.2160  204.4330  149.3240 C   0  0  0  0  0  0  0  0  0  0  0  0
  161.5690  208.5350  148.7190 C   0  0  0  0  0  0  0  0  0  0  0  0
  161.4840  209.0420  150.8710 O   0  0  0  0  0  0  0  0  0  0  0  0
  161.0500  202.1910  149.2120 C   0  0  0  0  0  3  0  0  0  0  0  0
  162.9440  210.3960  148.2600 O   0  0  0  0  0  0  0  0  0  0  0  0
  163.0760  211.6920  148.6280 N   0  0  0  0  0  2  0  0  0  0  0  0
  162.7280  212.4940  147.4690 C   0  0  0  0  0  1  0  0  0  0  0  0
  161.1850  207.0220  152.7370 C   0  0  0  0  0  2  0  0  0  0  0  0
  161.2090  206.1650  153.9900 C   0  0  0  0  0  2  0  0  0  0  0  0
  161.3880  207.0090  155.1580 N   0  0  0  0  0  2  0  0  0  0  0  0
  160.2670  207.9380  155.1930 C   0  0  0  0  0  2  0  0  0  0  0  0
  160.4440  210.3070  154.3410 C   0  0  0  0  0  2  0  0  0  0  0  0
  158.6580  212.7510  156.8640 S   0  0  0  0  0  0  0  0  0  0  0  0
  159.9740  209.9940  157.0560 S   0  0  0  0  0  0  0  0  0  0  0  0
  160.7390  209.3530  155.5050 C   0  0  1  0  0  3  0  0  0  0  0  0
  159.3290  212.6210  154.1850 C   0  0  0  0  0  2  0  0  0  0  0  0
  159.0970  211.2070  156.0540 C   0  0  2  0  0  3  0  0  0  0  0  0
  160.0580  211.5970  155.0040 C   0  0  1  0  0  3  0  0  0  0  0  0
  158.7060  213.5690  155.2140 C   0  0  0  0  0  2  0  0  0  0  0  0
  2  7  1  0  0  0  0
  2 15  2  0  0  0  0
  3 17  1  0  0  0  0
  3 14  2  0  0  0  0
  4 18  1  1  0  0  0
  4 11  1  0  0  0  0
  5  9  1  0  0  0  0
  5 16  1  0  0  0  0
  6  1  2  0  0  0  0
  7 12  2  0  0  0  0
  8  1  1  0  0  0  0
  8 21  1  0  0  0  0
  9  8  2  0  0  0  0
 10  3  1  0  0  0  0
 11 16  1  0  0  0  0
 12 14  1  0  0  0  0
 12  9  1  0  0  0  0
 13  6  1  0  0  0  0
 14  6  1  0  0  0  0
 15  4  1  0  0  0  0
 15  5  1  0  0  0  0
 17 13  2  0  0  0  0
 18 19  1  0  0  0  0
 20 19  1  0  0  0  0
 21 22  1  0  0  0  0
 22 23  1  0  0  0  0
 23 24  1  0  0  0  0
 25 31  1  0  0  0  0
 25 28  1  0  0  0  0
 28 24  1  6  0  0  0
 28 27  1  0  0  0  0
 29 32  1  0  0  0  0
 30 26  1  1  0  0  0
 30 27  1  0  0  0  0
 31 29  1  6  0  0  0
 31 30  1  0  0  0  0
 32 26  1  0  0  0  0
M  END
>  <MODEL>
9

>  <REMARK>
 VINA RESULT:      -7.5      3.633      7.229
  Name = 
  7 active torsions:
  status: ('A' for Active; 'I' for Inactive)
    1  A    between atoms: O_3  and  N_4
    2  A    between atoms: O_3  and  C_12
    3  A    between atoms: C_5  and  C_16
    4  A    between atoms: C_5  and  C_28
    5  A    between atoms: C_8  and  C_25
    6  A    between atoms: N_20  and  C_25
    7  A    between atoms: N_20  and  C_28
                            x       y       z     vdW  Elec       q    Type
                         _______ _______ _______ _____ _____    ______ ____

>  <TORSDO>
F 7

$$$$
