=
 OpenBabel11052411413D

 43 52  0  0  1  0  0  0  0  0999 V2000
  161.3760  205.1600  148.9860 C   0  0  0  0  0  0  0  0  0  0  0  0
  161.6410  207.0040  151.0580 C   0  0  0  0  0  0  0  0  0  0  0  0
  161.1710  205.7480  151.2890 N   0  0  0  0  0  0  0  0  0  0  0  0
  161.2530  204.2430  147.9360 C   0  0  0  0  0  3  0  0  0  0  0  0
  161.9870  207.3980  149.7530 C   0  0  0  0  0  0  0  0  0  0  0  0
  161.5870  204.6190  146.6360 C   0  0  0  0  0  3  0  0  0  0  0  0
  162.1610  206.7980  147.4230 N   0  0  0  0  0  0  0  0  0  0  0  0
  162.0410  205.9160  146.3970 C   0  0  0  0  0  3  0  0  0  0  0  0
  161.8550  206.4610  148.7070 C   0  0  0  0  0  0  0  0  0  0  0  0
  161.0200  204.8230  150.3040 C   0  0  0  0  0  0  0  0  0  0  0  0
  160.7930  207.5440  153.3460 C   0  0  2  0  0  3  0  0  0  0  0  0
  160.4050  208.6820  152.3880 C   0  0  1  0  0  3  0  0  0  0  0  0
  160.7900  208.9120  155.4710 C   0  0  0  0  0  2  0  0  0  0  0  0
  161.7230  210.5160  153.7250 C   0  0  0  0  0  2  0  0  0  0  0  0
  161.4140  210.2820  155.2110 C   0  0  1  0  0  3  0  0  0  0  0  0
  160.5400  210.1550  152.8330 C   0  0  0  0  0  2  0  0  0  0  0  0
  161.5060  207.8440  154.6630 C   0  0  0  0  0  2  0  0  0  0  0  0
  161.7300  207.9610  152.2110 C   0  0  2  0  0  3  0  0  0  0  0  0
  159.1130  210.9130  155.7590 N   0  0  1  0  0  0  0  0  0  0  0  0
  159.8870  210.9200  157.0210 C   0  0  2  0  0  3  0  0  0  0  0  0
  158.5010  211.3770  157.0180 C   0  0  0  0  0  2  0  0  0  0  0  0
  160.5160  211.3700  155.7830 C   0  0  1  0  0  3  0  0  0  0  0  0
  160.5270  203.4450  150.6570 C   0  0  0  0  0  3  0  0  0  0  0  0
  160.5290  203.2700  152.1640 C   0  0  0  0  0  2  0  0  0  0  0  0
  161.6180  202.6320  151.3360 C   0  0  0  0  0  2  0  0  0  0  0  0
  162.4360  208.7100  149.5440 O   0  0  0  0  0  0  0  0  0  0  0  0
  162.2490  211.0490  150.0510 C   0  0  0  0  0  2  0  0  0  0  0  0
  162.2200  210.8670  148.5500 C   0  0  1  0  0  3  0  0  0  0  0  0
  161.5740  209.8350  149.4490 C   0  0  1  0  0  3  0  0  0  0  0  0
  161.1340  211.7280  147.9340 C   0  0  0  0  0  2  0  0  0  0  0  0
  160.3210  213.2970  143.2670 C   0  0  0  0  0  0  0  0  0  0  0  0
  162.4500  214.2880  142.3620 C   0  0  0  0  0  2  0  0  0  0  0  0
  160.3270  212.4950  145.6280 N   0  0  0  0  0  0  0  0  0  0  0  0
  162.3770  213.2880  144.6270 C   0  0  2  0  0  3  0  0  0  0  0  0
  158.9800  212.8680  143.0660 N   0  0  0  0  0  1  0  0  0  0  0  0
  161.0250  213.7790  142.2290 C   0  0  0  0  0  3  0  0  0  0  0  0
  162.8510  213.2530  146.3480 S   0  0  0  0  0  0  0  0  0  0  0  0
  161.4670  212.0750  146.4800 C   0  0  1  0  0  3  0  0  0  0  0  0
  162.9300  214.4410  143.8170 C   0  0  0  0  0  2  0  0  0  0  0  0
  160.8810  213.4300  144.6560 C   0  0  1  0  0  3  0  0  0  0  0  0
  159.3510  213.2730  146.3940 C   0  0  0  0  0  2  0  0  0  0  0  0
  158.1120  212.6350  146.3430 O   0  0  0  0  0  0  0  0  0  0  0  0
  157.4470  213.0780  147.4860 C   0  0  0  0  0  1  0  0  0  0  0  0
  1 10  1  0  0  0  0
  2  3  1  0  0  0  0
  4  1  2  0  0  0  0
  5  2  2  0  0  0  0
  6  4  1  0  0  0  0
  7  9  2  0  0  0  0
  8  6  2  0  0  0  0
  8  7  1  0  0  0  0
  9  1  1  0  0  0  0
  9  5  1  0  0  0  0
 10 23  1  0  0  0  0
 10  3  2  0  0  0  0
 11 17  1  1  0  0  0
 12 16  1  1  0  0  0
 12 11  1  0  0  0  0
 15 14  1  6  0  0  0
 15 13  1  0  0  0  0
 16 14  1  0  0  0  0
 17 13  1  0  0  0  0
 18  2  1  6  0  0  0
 18 12  1  0  0  0  0
 18 11  1  0  0  0  0
 19 22  1  0  0  0  0
 19 21  1  1  0  0  0
 19 20  1  0  0  0  0
 20 21  1  1  0  0  0
 22 15  1  6  0  0  0
 22 20  1  0  0  0  0
 23 25  1  0  0  0  0
 23 24  1  0  0  0  0
 25 24  1  0  0  0  0
 26  5  1  0  0  0  0
 28 30  1  6  0  0  0
 28 29  1  0  0  0  0
 28 27  1  0  0  0  0
 29 26  1  1  0  0  0
 29 27  1  0  0  0  0
 32 39  1  0  0  0  0
 33 41  1  0  0  0  0
 33 38  1  0  0  0  0
 34 39  1  6  0  0  0
 34 40  1  0  0  0  0
 34 37  1  0  0  0  0
 35 31  1  0  0  0  0
 36 32  1  0  0  0  0
 36 31  2  0  0  0  0
 37 38  1  0  0  0  0
 38 30  1  1  0  0  0
 40 31  1  6  0  0  0
 40 33  1  0  0  0  0
 42 41  1  0  0  0  0
 42 43  1  0  0  0  0
M  END
>  <MODEL>
1

>  <REMARK>
 VINA RESULT:      -8.0      0.000      0.000
  Name = 
  9 active torsions:
  status: ('A' for Active; 'I' for Inactive)
    1  A    between atoms: C_3  and  C_43
    2  A    between atoms: O_4  and  C_11
    3  A    between atoms: O_4  and  C_19
    4  A    between atoms: C_6  and  C_32
    5  A    between atoms: C_12  and  C_16
    6  A    between atoms: C_16  and  C_36
    7  A    between atoms: N_17  and  C_38
    8  A    between atoms: C_29  and  C_30
    9  A    between atoms: O_34  and  C_38
                            x       y       z     vdW  Elec       q    Type
                         _______ _______ _______ _____ _____    ______ ____

>  <TORSDO>
F 9

$$$$
=
 OpenBabel11052411413D

 43 52  0  0  1  0  0  0  0  0999 V2000
  161.4270  205.2140  148.9580 C   0  0  0  0  0  0  0  0  0  0  0  0
  161.7220  206.9960  151.0800 C   0  0  0  0  0  0  0  0  0  0  0  0
  161.1580  205.7700  151.2620 N   0  0  0  0  0  0  0  0  0  0  0  0
  161.2900  204.3270  147.8840 C   0  0  0  0  0  3  0  0  0  0  0  0
  162.1520  207.3900  149.8000 C   0  0  0  0  0  0  0  0  0  0  0  0
  161.7070  204.7040  146.6080 C   0  0  0  0  0  3  0  0  0  0  0  0
  162.3900  206.8240  147.4680 N   0  0  0  0  0  0  0  0  0  0  0  0
  162.2570  205.9720  146.4190 C   0  0  0  0  0  3  0  0  0  0  0  0
  162.0050  206.4840  148.7290 C   0  0  0  0  0  0  0  0  0  0  0  0
  160.9890  204.8770  150.2520 C   0  0  0  0  0  0  0  0  0  0  0  0
  160.7850  207.5710  153.3240 C   0  0  2  0  0  3  0  0  0  0  0  0
  160.5570  208.7540  152.3690 C   0  0  1  0  0  3  0  0  0  0  0  0
  160.7700  208.9000  155.4740 C   0  0  0  0  0  2  0  0  0  0  0  0
  161.9450  210.4430  153.8220 C   0  0  0  0  0  2  0  0  0  0  0  0
  161.5260  210.2130  155.2810 C   0  0  1  0  0  3  0  0  0  0  0  0
  160.7920  210.2020  152.8530 C   0  0  0  0  0  2  0  0  0  0  0  0
  161.4390  207.7860  154.6880 C   0  0  0  0  0  2  0  0  0  0  0  0
  161.8220  207.9220  152.2570 C   0  0  2  0  0  3  0  0  0  0  0  0
  159.2750  210.9630  155.8850 N   0  0  1  0  0  0  0  0  0  0  0  0
  160.1030  211.0170  157.1110 C   0  0  2  0  0  3  0  0  0  0  0  0
  158.7350  211.5250  157.1370 C   0  0  0  0  0  2  0  0  0  0  0  0
  160.6930  211.3670  155.8220 C   0  0  1  0  0  3  0  0  0  0  0  0
  160.3900  203.5300  150.5520 C   0  0  0  0  0  3  0  0  0  0  0  0
  160.5950  203.1920  152.0170 C   0  0  0  0  0  2  0  0  0  0  0  0
  161.4610  202.5350  150.9700 C   0  0  0  0  0  2  0  0  0  0  0  0
  162.6970  208.6720  149.6410 O   0  0  0  0  0  0  0  0  0  0  0  0
  160.9540  210.2400  149.1260 C   0  0  0  0  0  2  0  0  0  0  0  0
  162.2590  210.9890  149.2830 C   0  0  1  0  0  3  0  0  0  0  0  0
  162.2500  209.6060  148.6680 C   0  0  1  0  0  3  0  0  0  0  0  0
  162.4160  212.0150  148.1770 C   0  0  0  0  0  2  0  0  0  0  0  0
  157.8750  214.0030  147.6040 C   0  0  0  0  0  0  0  0  0  0  0  0
  157.4050  214.2580  145.1450 C   0  0  0  0  0  2  0  0  0  0  0  0
  160.1120  213.1270  148.2730 N   0  0  0  0  0  0  0  0  0  0  0  0
  159.5140  213.2270  145.9350 C   0  0  2  0  0  3  0  0  0  0  0  0
  157.4330  214.0650  148.9560 N   0  0  0  0  0  1  0  0  0  0  0  0
  157.0100  214.2690  146.6120 C   0  0  0  0  0  3  0  0  0  0  0  0
  161.2730  212.9450  145.8070 S   0  0  0  0  0  0  0  0  0  0  0  0
  161.0730  212.3020  147.5000 C   0  0  1  0  0  3  0  0  0  0  0  0
  158.9230  214.1640  144.9040 C   0  0  0  0  0  2  0  0  0  0  0  0
  159.3370  213.8670  147.2840 C   0  0  1  0  0  3  0  0  0  0  0  0
  160.8040  214.1490  149.0600 C   0  0  0  0  0  2  0  0  0  0  0  0
  160.0460  214.4530  150.1910 O   0  0  0  0  0  0  0  0  0  0  0  0
  160.1580  213.3220  150.9980 C   0  0  0  0  0  1  0  0  0  0  0  0
  1 10  1  0  0  0  0
  2  3  1  0  0  0  0
  4  1  2  0  0  0  0
  5  2  2  0  0  0  0
  6  4  1  0  0  0  0
  7  9  2  0  0  0  0
  8  6  2  0  0  0  0
  8  7  1  0  0  0  0
  9  1  1  0  0  0  0
  9  5  1  0  0  0  0
 10 23  1  0  0  0  0
 10  3  2  0  0  0  0
 11 17  1  1  0  0  0
 12 16  1  1  0  0  0
 12 11  1  0  0  0  0
 15 14  1  6  0  0  0
 15 13  1  0  0  0  0
 16 14  1  0  0  0  0
 17 13  1  0  0  0  0
 18  2  1  6  0  0  0
 18 12  1  0  0  0  0
 18 11  1  0  0  0  0
 19 20  1  0  0  0  0
 19 21  1  1  0  0  0
 20 21  1  1  0  0  0
 22 15  1  6  0  0  0
 22 19  1  0  0  0  0
 22 20  1  0  0  0  0
 23 25  1  0  0  0  0
 23 24  1  0  0  0  0
 25 24  1  0  0  0  0
 26  5  1  0  0  0  0
 27 28  1  0  0  0  0
 28 30  1  6  0  0  0
 29 27  1  0  0  0  0
 29 28  1  0  0  0  0
 29 26  1  1  0  0  0
 31 35  1  0  0  0  0
 32 36  1  0  0  0  0
 33 41  1  0  0  0  0
 34 39  1  6  0  0  0
 34 40  1  0  0  0  0
 36 31  2  0  0  0  0
 37 34  1  0  0  0  0
 37 38  1  0  0  0  0
 38 30  1  1  0  0  0
 38 33  1  0  0  0  0
 39 32  1  0  0  0  0
 40 31  1  1  0  0  0
 40 33  1  0  0  0  0
 41 42  1  0  0  0  0
 42 43  1  0  0  0  0
M  END
>  <MODEL>
2

>  <REMARK>
 VINA RESULT:      -7.1      1.760      2.363
  Name = 
  9 active torsions:
  status: ('A' for Active; 'I' for Inactive)
    1  A    between atoms: C_3  and  C_43
    2  A    between atoms: O_4  and  C_11
    3  A    between atoms: O_4  and  C_19
    4  A    between atoms: C_6  and  C_32
    5  A    between atoms: C_12  and  C_16
    6  A    between atoms: C_16  and  C_36
    7  A    between atoms: N_17  and  C_38
    8  A    between atoms: C_29  and  C_30
    9  A    between atoms: O_34  and  C_38
                            x       y       z     vdW  Elec       q    Type
                         _______ _______ _______ _____ _____    ______ ____

>  <TORSDO>
F 9

$$$$
=
 OpenBabel11052411413D

 43 52  0  0  1  0  0  0  0  0999 V2000
  159.7590  210.6550  154.0420 C   0  0  0  0  0  0  0  0  0  0  0  0
  160.8960  211.6340  151.6940 C   0  0  0  0  0  0  0  0  0  0  0  0
  159.8990  212.3090  152.3280 N   0  0  0  0  0  0  0  0  0  0  0  0
  159.2010  210.1540  155.2230 C   0  0  0  0  0  3  0  0  0  0  0  0
  161.3590  210.4110  152.2110 C   0  0  0  0  0  0  0  0  0  0  0  0
  159.6450  208.9420  155.7470 C   0  0  0  0  0  3  0  0  0  0  0  0
  161.1850  208.7330  153.9350 N   0  0  0  0  0  0  0  0  0  0  0  0
  160.6460  208.2370  155.0790 C   0  0  0  0  0  3  0  0  0  0  0  0
  160.7840  209.9210  153.4030 C   0  0  0  0  0  0  0  0  0  0  0  0
  159.3140  211.8610  153.4700 C   0  0  0  0  0  0  0  0  0  0  0  0
  160.5030  213.2500  149.8290 C   0  0  2  0  0  3  0  0  0  0  0  0
  160.5380  211.8250  149.2550 C   0  0  1  0  0  3  0  0  0  0  0  0
  161.2020  214.4520  147.7180 C   0  0  0  0  0  2  0  0  0  0  0  0
  162.5740  212.3050  147.6700 C   0  0  0  0  0  2  0  0  0  0  0  0
  162.3050  213.6660  147.0110 C   0  0  1  0  0  3  0  0  0  0  0  0
  161.2850  211.5340  147.9350 C   0  0  0  0  0  2  0  0  0  0  0  0
  161.3690  214.3540  149.2250 C   0  0  0  0  0  2  0  0  0  0  0  0
  161.4450  212.1970  150.4150 C   0  0  2  0  0  3  0  0  0  0  0  0
  162.7980  214.4500  144.7440 N   0  0  1  0  0  0  0  0  0  0  0  0
  163.1060  213.0020  144.7900 C   0  0  2  0  0  3  0  0  0  0  0  0
  163.1880  213.7220  143.5220 C   0  0  0  0  0  2  0  0  0  0  0  0
  161.9640  213.5230  145.5340 C   0  0  1  0  0  3  0  0  0  0  0  0
  158.2430  212.6920  154.1240 C   0  0  0  0  0  3  0  0  0  0  0  0
  158.3600  214.1340  153.6650 C   0  0  0  0  0  2  0  0  0  0  0  0
  158.8500  213.7450  155.0390 C   0  0  0  0  0  2  0  0  0  0  0  0
  162.3630  209.7240  151.5140 O   0  0  0  0  0  0  0  0  0  0  0  0
  163.0280  207.8360  150.1900 C   0  0  0  0  0  2  0  0  0  0  0  0
  161.5590  207.7060  150.5290 C   0  0  1  0  0  3  0  0  0  0  0  0
  162.1580  209.0720  150.2690 C   0  0  1  0  0  3  0  0  0  0  0  0
  160.7700  207.2790  149.3060 C   0  0  0  0  0  2  0  0  0  0  0  0
  160.9940  202.5210  147.8190 C   0  0  0  0  0  0  0  0  0  0  0  0
  160.7470  201.0280  149.8300 C   0  0  0  0  0  2  0  0  0  0  0  0
  161.0310  204.9850  148.1990 N   0  0  0  0  0  0  0  0  0  0  0  0
  160.6120  203.4920  150.0510 C   0  0  2  0  0  3  0  0  0  0  0  0
  161.0800  202.6810  146.4070 N   0  0  0  0  0  1  0  0  0  0  0  0
  160.8160  201.2940  148.3360 C   0  0  0  0  0  3  0  0  0  0  0  0
  160.9340  205.0140  150.9290 S   0  0  0  0  0  0  0  0  0  0  0  0
  160.4900  205.7740  149.3330 C   0  0  1  0  0  3  0  0  0  0  0  0
  161.1460  202.2340  150.7020 C   0  0  0  0  0  2  0  0  0  0  0  0
  161.3250  203.6620  148.7390 C   0  0  1  0  0  3  0  0  0  0  0  0
  162.3220  205.5130  147.7550 C   0  0  0  0  0  2  0  0  0  0  0  0
  162.1600  206.1590  146.5300 O   0  0  0  0  0  0  0  0  0  0  0  0
  162.6170  205.2390  145.5890 C   0  0  0  0  0  1  0  0  0  0  0  0
  1  4  1  0  0  0  0
  2  5  2  0  0  0  0
  2  3  1  0  0  0  0
  3 10  2  0  0  0  0
  4  6  2  0  0  0  0
  5  9  1  0  0  0  0
  7  8  2  0  0  0  0
  8  6  1  0  0  0  0
  9  7  1  0  0  0  0
  9  1  2  0  0  0  0
 10  1  1  0  0  0  0
 10 23  1  0  0  0  0
 11 17  1  6  0  0  0
 11 18  1  0  0  0  0
 12 16  1  6  0  0  0
 12 11  1  0  0  0  0
 12 18  1  0  0  0  0
 13 17  1  0  0  0  0
 14 16  1  0  0  0  0
 15 14  1  1  0  0  0
 15 13  1  0  0  0  0
 18  2  1  1  0  0  0
 19 21  1  6  0  0  0
 19 20  1  0  0  0  0
 19 22  1  0  0  0  0
 20 21  1  6  0  0  0
 20 22  1  0  0  0  0
 22 15  1  1  0  0  0
 23 25  1  0  0  0  0
 24 23  1  0  0  0  0
 24 25  1  0  0  0  0
 26  5  1  0  0  0  0
 27 29  1  0  0  0  0
 27 28  1  0  0  0  0
 28 30  1  6  0  0  0
 29 28  1  0  0  0  0
 29 26  1  1  0  0  0
 31 36  2  0  0  0  0
 32 39  1  0  0  0  0
 33 40  1  0  0  0  0
 33 38  1  0  0  0  0
 34 39  1  1  0  0  0
 34 37  1  0  0  0  0
 35 31  1  0  0  0  0
 36 32  1  0  0  0  0
 38 30  1  1  0  0  0
 38 37  1  0  0  0  0
 40 31  1  6  0  0  0
 40 34  1  0  0  0  0
 41 33  1  0  0  0  0
 42 41  1  0  0  0  0
 43 42  1  0  0  0  0
M  END
>  <MODEL>
3

>  <REMARK>
 VINA RESULT:      -6.9      2.657      9.115
  Name = 
  9 active torsions:
  status: ('A' for Active; 'I' for Inactive)
    1  A    between atoms: C_3  and  C_43
    2  A    between atoms: O_4  and  C_11
    3  A    between atoms: O_4  and  C_19
    4  A    between atoms: C_6  and  C_32
    5  A    between atoms: C_12  and  C_16
    6  A    between atoms: C_16  and  C_36
    7  A    between atoms: N_17  and  C_38
    8  A    between atoms: C_29  and  C_30
    9  A    between atoms: O_34  and  C_38
                            x       y       z     vdW  Elec       q    Type
                         _______ _______ _______ _____ _____    ______ ____

>  <TORSDO>
F 9

$$$$
=
 OpenBabel11052411413D

 43 52  0  0  1  0  0  0  0  0999 V2000
  159.2340  212.6560  154.3320 C   0  0  0  0  0  0  0  0  0  0  0  0
  159.7160  212.6160  151.5880 C   0  0  0  0  0  0  0  0  0  0  0  0
  158.7270  213.3870  152.1190 N   0  0  0  0  0  0  0  0  0  0  0  0
  159.0080  212.6700  155.7130 C   0  0  0  0  0  3  0  0  0  0  0  0
  160.5050  211.8070  152.4250 C   0  0  0  0  0  0  0  0  0  0  0  0
  159.7780  211.8710  156.5570 C   0  0  0  0  0  3  0  0  0  0  0  0
  160.9860  211.0560  154.6660 N   0  0  0  0  0  0  0  0  0  0  0  0
  160.7700  211.0590  156.0070 C   0  0  0  0  0  3  0  0  0  0  0  0
  160.2610  211.8330  153.8150 C   0  0  0  0  0  0  0  0  0  0  0  0
  158.4560  213.4270  153.4500 C   0  0  0  0  0  0  0  0  0  0  0  0
  160.8010  213.7710  149.6560 C   0  0  2  0  0  3  0  0  0  0  0  0
  159.2740  213.8570  149.4960 C   0  0  1  0  0  3  0  0  0  0  0  0
  161.3800  213.9760  147.2040 C   0  0  0  0  0  2  0  0  0  0  0  0
  159.2480  212.5820  147.2020 C   0  0  0  0  0  2  0  0  0  0  0  0
  160.3970  213.1620  146.3650 C   0  0  1  0  0  3  0  0  0  0  0  0
  158.6210  213.6300  148.1150 C   0  0  0  0  0  2  0  0  0  0  0  0
  161.6750  213.2620  148.5110 C   0  0  0  0  0  2  0  0  0  0  0  0
  159.9040  212.6140  150.0990 C   0  0  2  0  0  3  0  0  0  0  0  0
  160.2500  213.3760  143.9300 N   0  0  1  0  0  0  0  0  0  0  0  0
  158.8660  213.2920  144.4520 C   0  0  2  0  0  3  0  0  0  0  0  0
  159.0920  213.5480  143.0330 C   0  0  0  0  0  2  0  0  0  0  0  0
  159.8850  214.0130  145.2110 C   0  0  1  0  0  3  0  0  0  0  0  0
  157.3680  214.3370  153.9530 C   0  0  0  0  0  3  0  0  0  0  0  0
  156.0900  213.5440  154.1580 C   0  0  0  0  0  2  0  0  0  0  0  0
  156.2310  214.4360  152.9480 C   0  0  0  0  0  2  0  0  0  0  0  0
  161.4920  210.9990  151.8430 O   0  0  0  0  0  0  0  0  0  0  0  0
  160.4210  208.8670  152.0930 C   0  0  0  0  0  2  0  0  0  0  0  0
  161.4510  208.7730  150.9890 C   0  0  1  0  0  3  0  0  0  0  0  0
  161.7160  209.6430  152.1990 C   0  0  1  0  0  3  0  0  0  0  0  0
  162.2540  207.4930  151.1220 C   0  0  0  0  0  2  0  0  0  0  0  0
  161.4200  203.8350  147.8330 C   0  0  0  0  0  0  0  0  0  0  0  0
  161.4150  204.8140  145.5140 C   0  0  0  0  0  2  0  0  0  0  0  0
  161.7100  205.4000  149.7520 N   0  0  0  0  0  0  0  0  0  0  0  0
  161.8780  206.2320  147.4910 C   0  0  2  0  0  3  0  0  0  0  0  0
  161.3910  202.7000  148.6900 N   0  0  0  0  0  1  0  0  0  0  0  0
  161.4180  203.6590  146.5010 C   0  0  0  0  0  3  0  0  0  0  0  0
  161.7460  207.7690  148.3920 S   0  0  0  0  0  0  0  0  0  0  0  0
  162.3270  206.7490  149.7860 C   0  0  1  0  0  3  0  0  0  0  0  0
  161.1630  206.1900  146.1580 C   0  0  0  0  0  2  0  0  0  0  0  0
  161.2270  205.2180  148.3880 C   0  0  1  0  0  3  0  0  0  0  0  0
  160.5130  205.3430  150.5940 C   0  0  0  0  0  2  0  0  0  0  0  0
  160.4620  204.1080  151.2400 O   0  0  0  0  0  0  0  0  0  0  0  0
  161.1540  204.3120  152.4330 C   0  0  0  0  0  1  0  0  0  0  0  0
  1  4  1  0  0  0  0
  2  3  2  0  0  0  0
  2  5  1  0  0  0  0
  3 10  1  0  0  0  0
  4  6  2  0  0  0  0
  5  9  2  0  0  0  0
  7  8  2  0  0  0  0
  8  6  1  0  0  0  0
  9  1  1  0  0  0  0
  9  7  1  0  0  0  0
 10 23  1  0  0  0  0
 10  1  2  0  0  0  0
 11 17  1  6  0  0  0
 11 18  1  0  0  0  0
 12 16  1  6  0  0  0
 12 11  1  0  0  0  0
 12 18  1  0  0  0  0
 13 17  1  0  0  0  0
 14 16  1  0  0  0  0
 15 14  1  1  0  0  0
 15 13  1  0  0  0  0
 18  2  1  1  0  0  0
 19 21  1  6  0  0  0
 19 20  1  0  0  0  0
 19 22  1  0  0  0  0
 20 21  1  6  0  0  0
 20 22  1  0  0  0  0
 22 15  1  1  0  0  0
 23 24  1  0  0  0  0
 25 23  1  0  0  0  0
 25 24  1  0  0  0  0
 26  5  1  0  0  0  0
 27 29  1  0  0  0  0
 28 30  1  1  0  0  0
 28 27  1  0  0  0  0
 28 29  1  0  0  0  0
 29 26  1  6  0  0  0
 31 35  1  0  0  0  0
 32 39  1  0  0  0  0
 32 36  1  0  0  0  0
 33 38  1  0  0  0  0
 33 41  1  0  0  0  0
 34 39  1  6  0  0  0
 34 40  1  0  0  0  0
 34 37  1  0  0  0  0
 36 31  2  0  0  0  0
 37 38  1  0  0  0  0
 38 30  1  1  0  0  0
 40 31  1  6  0  0  0
 40 33  1  0  0  0  0
 41 42  1  0  0  0  0
 42 43  1  0  0  0  0
M  END
>  <MODEL>
4

>  <REMARK>
 VINA RESULT:      -6.4      2.563      9.131
  Name = 
  9 active torsions:
  status: ('A' for Active; 'I' for Inactive)
    1  A    between atoms: C_3  and  C_43
    2  A    between atoms: O_4  and  C_11
    3  A    between atoms: O_4  and  C_19
    4  A    between atoms: C_6  and  C_32
    5  A    between atoms: C_12  and  C_16
    6  A    between atoms: C_16  and  C_36
    7  A    between atoms: N_17  and  C_38
    8  A    between atoms: C_29  and  C_30
    9  A    between atoms: O_34  and  C_38
                            x       y       z     vdW  Elec       q    Type
                         _______ _______ _______ _____ _____    ______ ____

>  <TORSDO>
F 9

$$$$
=
 OpenBabel11052411413D

 43 52  0  0  1  0  0  0  0  0999 V2000
  160.6270  210.1870  155.4510 C   0  0  0  0  0  0  0  0  0  0  0  0
  160.5960  208.7780  153.0470 C   0  0  0  0  0  0  0  0  0  0  0  0
  160.9010  208.1600  154.2220 N   0  0  0  0  0  0  0  0  0  0  0  0
  160.6330  210.9070  156.6510 C   0  0  0  0  0  3  0  0  0  0  0  0
  160.3070  210.1540  153.0280 C   0  0  0  0  0  0  0  0  0  0  0  0
  160.3520  212.2720  156.6490 C   0  0  0  0  0  3  0  0  0  0  0  0
  160.0630  212.2000  154.2810 N   0  0  0  0  0  0  0  0  0  0  0  0
  160.0710  212.9080  155.4400 C   0  0  0  0  0  3  0  0  0  0  0  0
  160.3190  210.8630  154.2480 C   0  0  0  0  0  0  0  0  0  0  0  0
  160.9340  208.8150  155.4130 C   0  0  0  0  0  0  0  0  0  0  0  0
  161.2290  206.5850  152.0290 C   0  0  2  0  0  3  0  0  0  0  0  0
  162.0680  207.6970  151.3800 C   0  0  1  0  0  3  0  0  0  0  0  0
  161.3300  204.9540  150.1000 C   0  0  0  0  0  2  0  0  0  0  0  0
  161.1720  207.2270  148.9580 C   0  0  0  0  0  2  0  0  0  0  0  0
  161.1810  205.7020  148.7770 C   0  0  1  0  0  3  0  0  0  0  0  0
  162.3110  207.7010  149.8550 C   0  0  0  0  0  2  0  0  0  0  0  0
  160.4550  205.5900  151.1660 C   0  0  0  0  0  2  0  0  0  0  0  0
  160.6290  207.9700  151.7820 C   0  0  2  0  0  3  0  0  0  0  0  0
  161.6510  204.5590  146.6620 N   0  0  1  0  0  0  0  0  0  0  0  0
  162.1440  205.9500  146.5340 C   0  0  2  0  0  3  0  0  0  0  0  0
  162.3970  204.9890  145.4650 C   0  0  0  0  0  2  0  0  0  0  0  0
  162.2680  205.2520  147.8110 C   0  0  1  0  0  3  0  0  0  0  0  0
  161.2440  208.0440  156.6680 C   0  0  0  0  0  3  0  0  0  0  0  0
  161.1830  206.5550  156.3840 C   0  0  0  0  0  2  0  0  0  0  0  0
  160.0450  207.2240  157.1160 C   0  0  0  0  0  2  0  0  0  0  0  0
  160.0320  210.7650  151.7970 O   0  0  0  0  0  0  0  0  0  0  0  0
  162.0060  211.1430  150.4860 C   0  0  0  0  0  2  0  0  0  0  0  0
  160.8010  211.6290  149.7120 C   0  0  1  0  0  3  0  0  0  0  0  0
  160.8430  211.7770  151.2170 C   0  0  1  0  0  3  0  0  0  0  0  0
  161.0880  212.9780  149.0800 C   0  0  0  0  0  2  0  0  0  0  0  0
  160.5290  212.7400  144.1270 C   0  0  0  0  0  0  0  0  0  0  0  0
  162.6550  213.5250  143.0320 C   0  0  0  0  0  2  0  0  0  0  0  0
  160.4090  212.8190  146.6160 N   0  0  0  0  0  0  0  0  0  0  0  0
  162.4750  213.3780  145.4980 C   0  0  2  0  0  3  0  0  0  0  0  0
  159.2350  212.1570  144.0270 N   0  0  0  0  0  1  0  0  0  0  0  0
  161.2770  212.8840  143.0210 C   0  0  0  0  0  3  0  0  0  0  0  0
  162.8220  213.9880  147.1400 S   0  0  0  0  0  0  0  0  0  0  0  0
  161.5060  212.8200  147.6150 C   0  0  1  0  0  3  0  0  0  0  0  0
  163.0150  214.2170  144.3590 C   0  0  0  0  0  2  0  0  0  0  0  0
  160.9760  213.3970  145.4030 C   0  0  1  0  0  3  0  0  0  0  0  0
  159.3330  213.7310  147.0090 C   0  0  0  0  0  2  0  0  0  0  0  0
  158.1020  213.1510  146.7040 O   0  0  0  0  0  0  0  0  0  0  0  0
  157.2880  213.4760  147.7870 C   0  0  0  0  0  1  0  0  0  0  0  0
  1  4  1  0  0  0  0
  2  3  1  0  0  0  0
  3 10  2  0  0  0  0
  5  2  2  0  0  0  0
  5  9  1  0  0  0  0
  6  4  2  0  0  0  0
  7  8  2  0  0  0  0
  8  6  1  0  0  0  0
  9  7  1  0  0  0  0
  9  1  2  0  0  0  0
 10  1  1  0  0  0  0
 10 23  1  0  0  0  0
 11 17  1  6  0  0  0
 12 16  1  6  0  0  0
 12 18  1  0  0  0  0
 12 11  1  0  0  0  0
 13 17  1  0  0  0  0
 14 16  1  0  0  0  0
 15 14  1  1  0  0  0
 15 13  1  0  0  0  0
 18 11  1  0  0  0  0
 18  2  1  1  0  0  0
 19 21  1  6  0  0  0
 19 22  1  0  0  0  0
 20 21  1  6  0  0  0
 20 19  1  0  0  0  0
 20 22  1  0  0  0  0
 22 15  1  1  0  0  0
 23 25  1  0  0  0  0
 24 23  1  0  0  0  0
 24 25  1  0  0  0  0
 26  5  1  0  0  0  0
 27 29  1  0  0  0  0
 28 30  1  6  0  0  0
 28 27  1  0  0  0  0
 28 29  1  0  0  0  0
 29 26  1  1  0  0  0
 32 39  1  0  0  0  0
 33 41  1  0  0  0  0
 33 38  1  0  0  0  0
 34 39  1  6  0  0  0
 34 37  1  0  0  0  0
 35 31  1  0  0  0  0
 36 32  1  0  0  0  0
 36 31  2  0  0  0  0
 37 38  1  0  0  0  0
 38 30  1  1  0  0  0
 40 31  1  6  0  0  0
 40 34  1  0  0  0  0
 40 33  1  0  0  0  0
 42 41  1  0  0  0  0
 42 43  1  0  0  0  0
M  END
>  <MODEL>
5

>  <REMARK>
 VINA RESULT:      -6.2      1.512      6.170
  Name = 
  9 active torsions:
  status: ('A' for Active; 'I' for Inactive)
    1  A    between atoms: C_3  and  C_43
    2  A    between atoms: O_4  and  C_11
    3  A    between atoms: O_4  and  C_19
    4  A    between atoms: C_6  and  C_32
    5  A    between atoms: C_12  and  C_16
    6  A    between atoms: C_16  and  C_36
    7  A    between atoms: N_17  and  C_38
    8  A    between atoms: C_29  and  C_30
    9  A    between atoms: O_34  and  C_38
                            x       y       z     vdW  Elec       q    Type
                         _______ _______ _______ _____ _____    ______ ____

>  <TORSDO>
F 9

$$$$
=
 OpenBabel11052411413D

 43 52  0  0  1  0  0  0  0  0999 V2000
  160.6900  209.6020  154.5010 C   0  0  0  0  0  0  0  0  0  0  0  0
  161.1390  207.4350  152.8070 C   0  0  0  0  0  0  0  0  0  0  0  0
  161.0910  207.2750  154.1590 N   0  0  0  0  0  0  0  0  0  0  0  0
  160.4580  210.6980  155.3390 C   0  0  0  0  0  3  0  0  0  0  0  0
  160.9790  208.7130  152.2430 C   0  0  0  0  0  0  0  0  0  0  0  0
  160.3010  211.9720  154.7960 C   0  0  0  0  0  3  0  0  0  0  0  0
  160.6020  211.0670  152.6080 N   0  0  0  0  0  0  0  0  0  0  0  0
  160.3810  212.1380  153.4140 C   0  0  0  0  0  3  0  0  0  0  0  0
  160.7470  209.8070  153.1040 C   0  0  0  0  0  0  0  0  0  0  0  0
  160.8820  208.3070  155.0170 C   0  0  0  0  0  0  0  0  0  0  0  0
  160.5880  206.2700  150.6670 C   0  0  2  0  0  3  0  0  0  0  0  0
  160.1690  205.3750  151.8440 C   0  0  1  0  0  3  0  0  0  0  0  0
  160.9090  204.4220  148.9720 C   0  0  0  0  0  2  0  0  0  0  0  0
  161.7410  203.3920  151.1490 C   0  0  0  0  0  2  0  0  0  0  0  0
  161.5870  203.2220  149.6300 C   0  0  1  0  0  3  0  0  0  0  0  0
  160.4460  203.8560  151.8060 C   0  0  0  0  0  2  0  0  0  0  0  0
  161.4610  205.7170  149.5410 C   0  0  0  0  0  2  0  0  0  0  0  0
  161.4170  206.2340  151.9510 C   0  0  2  0  0  3  0  0  0  0  0  0
  160.9440  201.6950  147.8270 N   0  0  1  0  0  0  0  0  0  0  0  0
  161.7470  200.9190  148.8000 C   0  0  2  0  0  3  0  0  0  0  0  0
  161.1190  200.2390  147.6720 C   0  0  0  0  0  2  0  0  0  0  0  0
  160.8290  201.9500  149.2770 C   0  0  1  0  0  3  0  0  0  0  0  0
  160.8060  208.0320  156.4950 C   0  0  0  0  0  3  0  0  0  0  0  0
  161.1450  206.5770  156.7640 C   0  0  0  0  0  2  0  0  0  0  0  0
  159.7060  207.0310  156.8090 C   0  0  0  0  0  2  0  0  0  0  0  0
  161.0690  208.8480  150.8500 O   0  0  0  0  0  0  0  0  0  0  0  0
  162.0950  209.3430  148.7390 C   0  0  0  0  0  2  0  0  0  0  0  0
  161.2190  210.5080  149.1440 C   0  0  1  0  0  3  0  0  0  0  0  0
  161.9740  209.7270  150.1980 C   0  0  1  0  0  3  0  0  0  0  0  0
  161.9380  211.8210  148.9010 C   0  0  0  0  0  2  0  0  0  0  0  0
  160.1600  213.7540  144.6580 C   0  0  0  0  0  0  0  0  0  0  0  0
  162.0970  214.4470  143.2070 C   0  0  0  0  0  2  0  0  0  0  0  0
  160.6740  212.8320  146.9170 N   0  0  0  0  0  0  0  0  0  0  0  0
  162.4760  213.3460  145.3940 C   0  0  2  0  0  3  0  0  0  0  0  0
  158.7620  213.5540  144.8320 N   0  0  0  0  0  1  0  0  0  0  0  0
  160.6250  214.1760  143.4700 C   0  0  0  0  0  3  0  0  0  0  0  0
  163.3880  213.1420  146.9160 S   0  0  0  0  0  0  0  0  0  0  0  0
  161.9160  212.1910  147.4150 C   0  0  1  0  0  3  0  0  0  0  0  0
  162.9730  214.4420  144.4740 C   0  0  0  0  0  2  0  0  0  0  0  0
  161.0910  213.7200  145.8380 C   0  0  1  0  0  3  0  0  0  0  0  0
  160.0870  213.7100  147.9310 C   0  0  0  0  0  2  0  0  0  0  0  0
  158.8040  213.2610  148.2420 O   0  0  0  0  0  0  0  0  0  0  0  0
  158.2410  214.3020  148.9780 C   0  0  0  0  0  1  0  0  0  0  0  0
  1 10  1  0  0  0  0
  1  4  1  0  0  0  0
  2  3  1  0  0  0  0
  3 10  2  0  0  0  0
  5  2  2  0  0  0  0
  5  9  1  0  0  0  0
  6  4  2  0  0  0  0
  7  9  1  0  0  0  0
  7  8  2  0  0  0  0
  8  6  1  0  0  0  0
  9  1  2  0  0  0  0
 10 23  1  0  0  0  0
 11 17  1  6  0  0  0
 11 12  1  0  0  0  0
 11 18  1  0  0  0  0
 12 16  1  6  0  0  0
 12 18  1  0  0  0  0
 13 17  1  0  0  0  0
 14 16  1  0  0  0  0
 15 13  1  1  0  0  0
 15 14  1  0  0  0  0
 18  2  1  1  0  0  0
 19 21  1  1  0  0  0
 19 20  1  0  0  0  0
 19 22  1  0  0  0  0
 20 21  1  1  0  0  0
 20 22  1  0  0  0  0
 22 15  1  6  0  0  0
 23 24  1  0  0  0  0
 23 25  1  0  0  0  0
 24 25  1  0  0  0  0
 26  5  1  0  0  0  0
 27 28  1  0  0  0  0
 27 29  1  0  0  0  0
 28 30  1  6  0  0  0
 28 29  1  0  0  0  0
 29 26  1  1  0  0  0
 31 35  1  0  0  0  0
 32 36  1  0  0  0  0
 32 39  1  0  0  0  0
 33 38  1  0  0  0  0
 33 41  1  0  0  0  0
 34 39  1  6  0  0  0
 34 40  1  0  0  0  0
 34 37  1  0  0  0  0
 36 31  2  0  0  0  0
 37 38  1  0  0  0  0
 38 30  1  1  0  0  0
 40 31  1  6  0  0  0
 40 33  1  0  0  0  0
 41 42  1  0  0  0  0
 42 43  1  0  0  0  0
M  END
>  <MODEL>
6

>  <REMARK>
 VINA RESULT:      -5.6      1.847      6.183
  Name = 
  9 active torsions:
  status: ('A' for Active; 'I' for Inactive)
    1  A    between atoms: C_3  and  C_43
    2  A    between atoms: O_4  and  C_11
    3  A    between atoms: O_4  and  C_19
    4  A    between atoms: C_6  and  C_32
    5  A    between atoms: C_12  and  C_16
    6  A    between atoms: C_16  and  C_36
    7  A    between atoms: N_17  and  C_38
    8  A    between atoms: C_29  and  C_30
    9  A    between atoms: O_34  and  C_38
                            x       y       z     vdW  Elec       q    Type
                         _______ _______ _______ _____ _____    ______ ____

>  <TORSDO>
F 9

$$$$
=
 OpenBabel11052411413D

 43 52  0  0  1  0  0  0  0  0999 V2000
  160.4050  210.5530  155.7710 C   0  0  0  0  0  0  0  0  0  0  0  0
  160.4730  209.1690  153.3530 C   0  0  0  0  0  0  0  0  0  0  0  0
  160.7990  208.5570  154.5240 N   0  0  0  0  0  0  0  0  0  0  0  0
  160.3600  211.2590  156.9780 C   0  0  0  0  0  3  0  0  0  0  0  0
  160.1100  210.5280  153.3450 C   0  0  0  0  0  0  0  0  0  0  0  0
  160.0070  212.6070  156.9870 C   0  0  0  0  0  3  0  0  0  0  0  0
  159.7440  212.5450  154.6150 N   0  0  0  0  0  0  0  0  0  0  0  0
  159.7020  213.2400  155.7820 C   0  0  0  0  0  3  0  0  0  0  0  0
  160.0720  211.2240  154.5720 C   0  0  0  0  0  0  0  0  0  0  0  0
  160.7860  209.2000  155.7220 C   0  0  0  0  0  0  0  0  0  0  0  0
  161.2570  207.0360  152.3140 C   0  0  2  0  0  3  0  0  0  0  0  0
  162.0150  208.2110  151.6750 C   0  0  1  0  0  3  0  0  0  0  0  0
  161.4720  205.4350  150.3700 C   0  0  0  0  0  2  0  0  0  0  0  0
  161.1510  207.7010  149.2490 C   0  0  0  0  0  2  0  0  0  0  0  0
  161.2680  206.1820  149.0530 C   0  0  1  0  0  3  0  0  0  0  0  0
  162.2550  208.2460  150.1490 C   0  0  0  0  0  2  0  0  0  0  0  0
  160.5550  205.9970  151.4420 C   0  0  0  0  0  2  0  0  0  0  0  0
  160.5610  208.3780  152.0800 C   0  0  2  0  0  3  0  0  0  0  0  0
  161.9490  204.6950  147.2310 N   0  0  1  0  0  0  0  0  0  0  0  0
  161.9720  206.0790  146.7060 C   0  0  2  0  0  3  0  0  0  0  0  0
  162.4510  204.9790  145.8740 C   0  0  0  0  0  2  0  0  0  0  0  0
  162.3830  205.8190  148.0820 C   0  0  1  0  0  3  0  0  0  0  0  0
  161.1250  208.4340  156.9720 C   0  0  0  0  0  3  0  0  0  0  0  0
  161.4010  206.9820  156.6260 C   0  0  0  0  0  2  0  0  0  0  0  0
  160.0840  207.3630  157.2580 C   0  0  0  0  0  2  0  0  0  0  0  0
  159.8130  211.1360  152.1170 O   0  0  0  0  0  0  0  0  0  0  0  0
  161.3490  211.6380  150.3420 C   0  0  0  0  0  2  0  0  0  0  0  0
  160.0840  212.4420  150.1400 C   0  0  1  0  0  3  0  0  0  0  0  0
  160.5930  212.1730  151.5400 C   0  0  1  0  0  3  0  0  0  0  0  0
  160.4210  213.8720  149.7630 C   0  0  0  0  0  2  0  0  0  0  0  0
  159.9840  214.2800  144.8090 C   0  0  0  0  0  0  0  0  0  0  0  0
  157.5410  214.2620  144.2050 C   0  0  0  0  0  2  0  0  0  0  0  0
  160.5880  213.9910  147.2110 N   0  0  0  0  0  0  0  0  0  0  0  0
  158.2660  214.1710  146.5720 C   0  0  2  0  0  3  0  0  0  0  0  0
  161.3450  214.4450  144.4290 N   0  0  0  0  0  1  0  0  0  0  0  0
  159.0160  214.4500  143.8940 C   0  0  0  0  0  3  0  0  0  0  0  0
  158.0940  213.5800  148.2490 S   0  0  0  0  0  0  0  0  0  0  0  0
  159.7790  214.2540  148.4270 C   0  0  1  0  0  3  0  0  0  0  0  0
  157.2660  213.6200  145.5780 C   0  0  0  0  0  2  0  0  0  0  0  0
  159.6300  213.7020  146.1510 C   0  0  1  0  0  3  0  0  0  0  0  0
  161.3800  212.7680  147.3560 C   0  0  0  0  0  2  0  0  0  0  0  0
  162.6940  213.0200  146.9610 O   0  0  0  0  0  0  0  0  0  0  0  0
  163.0580  214.1590  147.6760 C   0  0  0  0  0  1  0  0  0  0  0  0
  1  4  1  0  0  0  0
  2  3  1  0  0  0  0
  3 10  2  0  0  0  0
  4  6  2  0  0  0  0
  5  2  2  0  0  0  0
  5  9  1  0  0  0  0
  7  8  2  0  0  0  0
  8  6  1  0  0  0  0
  9  7  1  0  0  0  0
  9  1  2  0  0  0  0
 10  1  1  0  0  0  0
 10 23  1  0  0  0  0
 11 17  1  6  0  0  0
 12 16  1  6  0  0  0
 12 18  1  0  0  0  0
 12 11  1  0  0  0  0
 13 17  1  0  0  0  0
 14 16  1  0  0  0  0
 15 14  1  1  0  0  0
 15 13  1  0  0  0  0
 18 11  1  0  0  0  0
 18  2  1  1  0  0  0
 19 21  1  6  0  0  0
 19 22  1  0  0  0  0
 20 21  1  6  0  0  0
 20 19  1  0  0  0  0
 20 22  1  0  0  0  0
 22 15  1  1  0  0  0
 23 25  1  0  0  0  0
 24 23  1  0  0  0  0
 24 25  1  0  0  0  0
 26  5  1  0  0  0  0
 27 29  1  0  0  0  0
 28 30  1  6  0  0  0
 28 27  1  0  0  0  0
 28 29  1  0  0  0  0
 29 26  1  1  0  0  0
 32 39  1  0  0  0  0
 33 41  1  0  0  0  0
 33 38  1  0  0  0  0
 34 39  1  6  0  0  0
 34 37  1  0  0  0  0
 35 31  1  0  0  0  0
 36 32  1  0  0  0  0
 36 31  2  0  0  0  0
 37 38  1  0  0  0  0
 38 30  1  1  0  0  0
 40 31  1  6  0  0  0
 40 34  1  0  0  0  0
 40 33  1  0  0  0  0
 42 41  1  0  0  0  0
 42 43  1  0  0  0  0
M  END
>  <MODEL>
7

>  <REMARK>
 VINA RESULT:      -5.4      2.219      6.627
  Name = 
  9 active torsions:
  status: ('A' for Active; 'I' for Inactive)
    1  A    between atoms: C_3  and  C_43
    2  A    between atoms: O_4  and  C_11
    3  A    between atoms: O_4  and  C_19
    4  A    between atoms: C_6  and  C_32
    5  A    between atoms: C_12  and  C_16
    6  A    between atoms: C_16  and  C_36
    7  A    between atoms: N_17  and  C_38
    8  A    between atoms: C_29  and  C_30
    9  A    between atoms: O_34  and  C_38
                            x       y       z     vdW  Elec       q    Type
                         _______ _______ _______ _____ _____    ______ ____

>  <TORSDO>
F 9

$$$$
=
 OpenBabel11052411413D

 43 52  0  0  1  0  0  0  0  0999 V2000
  160.9710  208.6960  152.6490 C   0  0  0  0  0  0  0  0  0  0  0  0
  161.4670  207.6070  150.1320 C   0  0  0  0  0  0  0  0  0  0  0  0
  161.1240  206.8170  151.1870 N   0  0  0  0  0  0  0  0  0  0  0  0
  160.7200  209.2590  153.9050 C   0  0  0  0  0  3  0  0  0  0  0  0
  161.5940  208.9960  150.3050 C   0  0  0  0  0  0  0  0  0  0  0  0
  160.8460  210.6340  154.0940 C   0  0  0  0  0  3  0  0  0  0  0  0
  161.4640  210.8830  151.8020 N   0  0  0  0  0  0  0  0  0  0  0  0
  161.2270  211.4370  153.0190 C   0  0  0  0  0  3  0  0  0  0  0  0
  161.3380  209.5450  151.5790 C   0  0  0  0  0  0  0  0  0  0  0  0
  160.8820  207.3100  152.4300 C   0  0  0  0  0  0  0  0  0  0  0  0
  160.4650  206.7470  148.0100 C   0  0  2  0  0  3  0  0  0  0  0  0
  161.1160  205.5770  148.7650 C   0  0  1  0  0  3  0  0  0  0  0  0
  160.6350  205.7530  145.6920 C   0  0  0  0  0  2  0  0  0  0  0  0
  162.7900  205.0040  146.8260 C   0  0  0  0  0  2  0  0  0  0  0  0
  161.9820  205.0550  145.5210 C   0  0  1  0  0  3  0  0  0  0  0  0
  161.9450  204.5220  148.0010 C   0  0  0  0  0  2  0  0  0  0  0  0
  160.7930  207.0030  146.5400 C   0  0  0  0  0  2  0  0  0  0  0  0
  161.7520  206.9550  148.8100 C   0  0  2  0  0  3  0  0  0  0  0  0
  161.1760  202.7840  145.9550 N   0  0  1  0  0  0  0  0  0  0  0  0
  160.3440  203.3500  144.8690 C   0  0  2  0  0  3  0  0  0  0  0  0
  160.1730  201.9550  145.2620 C   0  0  0  0  0  2  0  0  0  0  0  0
  161.7680  203.6680  144.9320 C   0  0  1  0  0  3  0  0  0  0  0  0
  160.4720  206.3660  153.5290 C   0  0  0  0  0  3  0  0  0  0  0  0
  161.6680  206.0520  154.4090 C   0  0  0  0  0  2  0  0  0  0  0  0
  161.1920  205.0330  153.4020 C   0  0  0  0  0  2  0  0  0  0  0  0
  161.9820  209.7770  149.2060 O   0  0  0  0  0  0  0  0  0  0  0  0
  162.4600  212.1010  148.8460 C   0  0  0  0  0  2  0  0  0  0  0  0
  161.9600  211.4960  147.5530 C   0  0  1  0  0  3  0  0  0  0  0  0
  161.3940  211.0270  148.8770 C   0  0  1  0  0  3  0  0  0  0  0  0
  160.9540  212.4190  146.8920 C   0  0  0  0  0  2  0  0  0  0  0  0
  160.1320  213.7280  142.1480 C   0  0  0  0  0  0  0  0  0  0  0  0
  162.3470  214.1030  141.0130 C   0  0  0  0  0  2  0  0  0  0  0  0
  160.1530  213.1540  144.5740 N   0  0  0  0  0  0  0  0  0  0  0  0
  162.2370  213.3470  143.3700 C   0  0  2  0  0  3  0  0  0  0  0  0
  158.7150  213.6150  142.0760 N   0  0  0  0  0  1  0  0  0  0  0  0
  160.8360  213.9370  141.0230 C   0  0  0  0  0  3  0  0  0  0  0  0
  162.8360  213.3490  145.0520 S   0  0  0  0  0  0  0  0  0  0  0  0
  161.2330  212.5500  145.3920 C   0  0  1  0  0  3  0  0  0  0  0  0
  162.9710  214.2620  142.4120 C   0  0  0  0  0  2  0  0  0  0  0  0
  160.8230  213.8430  143.4770 C   0  0  1  0  0  3  0  0  0  0  0  0
  159.4520  214.2050  145.3150 C   0  0  0  0  0  2  0  0  0  0  0  0
  158.2180  213.7190  145.7470 O   0  0  0  0  0  0  0  0  0  0  0  0
  157.2840  214.4120  144.9790 C   0  0  0  0  0  1  0  0  0  0  0  0
  1  4  1  0  0  0  0
  2  5  2  0  0  0  0
  2  3  1  0  0  0  0
  3 10  2  0  0  0  0
  4  6  2  0  0  0  0
  5  9  1  0  0  0  0
  7  8  2  0  0  0  0
  8  6  1  0  0  0  0
  9  7  1  0  0  0  0
  9  1  2  0  0  0  0
 10  1  1  0  0  0  0
 10 23  1  0  0  0  0
 11 17  1  6  0  0  0
 11 12  1  0  0  0  0
 11 18  1  0  0  0  0
 12 16  1  6  0  0  0
 12 18  1  0  0  0  0
 13 17  1  0  0  0  0
 14 16  1  0  0  0  0
 15 13  1  1  0  0  0
 15 14  1  0  0  0  0
 18  2  1  1  0  0  0
 19 21  1  6  0  0  0
 20 22  1  0  0  0  0
 20 21  1  6  0  0  0
 20 19  1  0  0  0  0
 22 15  1  1  0  0  0
 22 19  1  0  0  0  0
 23 24  1  0  0  0  0
 25 23  1  0  0  0  0
 25 24  1  0  0  0  0
 26  5  1  0  0  0  0
 27 29  1  0  0  0  0
 28 30  1  6  0  0  0
 28 27  1  0  0  0  0
 28 29  1  0  0  0  0
 29 26  1  1  0  0  0
 32 36  1  0  0  0  0
 32 39  1  0  0  0  0
 33 41  1  0  0  0  0
 33 38  1  0  0  0  0
 34 39  1  6  0  0  0
 34 40  1  0  0  0  0
 34 37  1  0  0  0  0
 35 31  1  0  0  0  0
 36 31  2  0  0  0  0
 37 38  1  0  0  0  0
 38 30  1  1  0  0  0
 40 31  1  6  0  0  0
 40 33  1  0  0  0  0
 41 42  1  0  0  0  0
 43 42  1  0  0  0  0
M  END
>  <MODEL>
8

>  <REMARK>
 VINA RESULT:      -5.2      1.811      6.248
  Name = 
  9 active torsions:
  status: ('A' for Active; 'I' for Inactive)
    1  A    between atoms: C_3  and  C_43
    2  A    between atoms: O_4  and  C_11
    3  A    between atoms: O_4  and  C_19
    4  A    between atoms: C_6  and  C_32
    5  A    between atoms: C_12  and  C_16
    6  A    between atoms: C_16  and  C_36
    7  A    between atoms: N_17  and  C_38
    8  A    between atoms: C_29  and  C_30
    9  A    between atoms: O_34  and  C_38
                            x       y       z     vdW  Elec       q    Type
                         _______ _______ _______ _____ _____    ______ ____

>  <TORSDO>
F 9

$$$$
