=
 OpenBabel11052409263D

 35 36  0  0  1  0  0  0  0  0999 V2000
  159.7090  212.3470  153.2310 C   0  0  0  0  0  0  0  0  0  0  0  0
  160.7540  211.3260  152.8860 C   0  0  1  0  0  3  0  0  0  0  0  0
  159.3610  213.6180  155.3460 N   0  0  0  0  0  0  0  0  0  0  0  0
  161.0370  210.7500  154.2980 C   0  0  0  0  0  0  0  0  0  0  0  0
  161.1210  209.3060  154.6210 N   0  0  0  0  0  2  0  0  0  0  0  0
  159.5110  212.2870  154.6670 C   0  0  2  0  0  3  0  0  0  0  0  0
  160.5090  211.4830  155.2450 N   0  0  0  0  0  0  0  0  0  0  0  0
  159.0470  213.2500  152.5020 C   0  0  0  0  0  3  0  0  0  0  0  0
  159.2820  213.5750  156.8070 C   0  0  0  0  0  1  0  0  0  0  0  0
  158.1610  214.3370  153.2520 C   0  0  0  0  0  3  0  0  0  0  0  0
  158.3810  214.4530  154.6150 C   0  0  0  0  0  3  0  0  0  0  0  0
  160.5030  210.1970  151.8740 C   0  0  0  0  0  2  0  0  0  0  0  0
  162.7850  210.0270  151.8450 O   0  0  0  0  0  0  0  0  0  0  0  0
  161.9110  209.4870  149.8020 N   0  0  0  0  0  2  0  0  0  0  0  0
  161.7780  209.9210  151.1480 C   0  0  0  0  0  0  0  0  0  0  0  0
  163.1440  207.5310  147.9490 O   0  0  0  0  0  0  0  0  0  0  0  0
  162.0150  207.3410  148.4850 C   0  0  0  0  0  0  0  0  0  0  0  0
  161.5500  208.1590  149.5630 N   0  0  0  0  0  2  0  0  0  0  0  0
  161.1940  206.1620  148.0520 C   0  0  0  0  0  2  0  0  0  0  0  0
  160.8550  206.2760  146.5670 C   0  0  0  0  0  2  0  0  0  0  0  0
  163.2350  204.9640  146.0820 O   0  0  0  0  0  1  0  0  0  0  0  0
  161.1440  203.6740  146.5880 O   0  0  0  0  0  1  0  0  0  0  0  0
  161.2370  204.9030  144.0780 O   0  0  0  0  0  0  0  0  0  0  0  0
  161.5880  204.8420  145.7560 P   0  0  0  0  0  0  0  0  0  0  0  0
  161.1730  208.7220  155.9590 C   0  0  0  0  0  2  0  0  0  0  0  0
  160.8520  207.2750  155.9040 C   0  0  0  0  0  2  0  0  0  0  0  0
  160.5050  206.9120  154.4630 C   0  0  0  0  0  2  0  0  0  0  0  0
  161.4620  205.8210  153.8890 C   0  0  0  0  0  2  0  0  0  0  0  0
  161.6050  205.8820  152.3700 C   0  0  0  0  0  2  0  0  0  0  0  0
  160.7800  204.9420  151.5900 C   0  0  0  0  0  2  0  0  0  0  0  0
  161.7190  202.7680  151.9030 O   0  0  0  0  0  1  0  0  0  0  0  0
  161.4280  203.7250  150.9360 C   0  0  1  0  0  3  0  0  0  0  0  0
  160.4580  203.0700  149.9420 C   0  0  0  0  0  2  0  0  0  0  0  0
  160.6290  201.5890  150.0310 C   0  0  0  0  0  2  0  0  0  0  0  0
  161.2130  200.9340  148.7550 C   0  0  0  0  0  1  0  0  0  0  0  0
  2 12  1  6  0  0  0
  2  1  1  0  0  0  0
  2  4  1  0  0  0  0
  3  9  1  0  0  0  0
  4  5  1  0  0  0  0
  4  7  2  0  0  0  0
  5 25  1  0  0  0  0
  6  1  1  6  0  0  0
  6  7  1  0  0  0  0
  6  3  1  0  0  0  0
  8  1  2  0  0  0  0
  8 10  1  0  0  0  0
 10 11  2  0  0  0  0
 11  3  1  0  0  0  0
 14 15  1  0  0  0  0
 15 13  2  0  0  0  0
 15 12  1  0  0  0  0
 16 17  2  0  0  0  0
 17 18  1  0  0  0  0
 18 14  1  0  0  0  0
 19 17  1  0  0  0  0
 20 19  1  0  0  0  0
 23 24  2  0  0  0  0
 24 21  1  0  0  0  0
 24 20  1  0  0  0  0
 24 22  1  0  0  0  0
 26 25  1  0  0  0  0
 27 26  1  0  0  0  0
 28 27  1  0  0  0  0
 29 28  1  0  0  0  0
 30 29  1  0  0  0  0
 32 30  1  0  0  0  0
 32 31  1  1  0  0  0
 33 34  1  0  0  0  0
 33 32  1  0  0  0  0
 35 34  1  0  0  0  0
M  END
>  <MODEL>
1

>  <REMARK>
 VINA RESULT:      -6.9      0.000      0.000
  Name = 
  15 active torsions:
  status: ('A' for Active; 'I' for Inactive)
    1  A    between atoms: C_1  and  C_14
    2  A    between atoms: C_1  and  C_32
    3  A    between atoms: C_5  and  C_22
    4  A    between atoms: C_6  and  C_31
    5  A    between atoms: C_7  and  C_16
    6  A    between atoms: C_7  and  C_27
    7  A    between atoms: N_12  and  C_32
    8  A    between atoms: C_14  and  C_16
    9  A    between atoms: C_18  and  C_28
   10  A    between atoms: C_22  and  C_30
   11  A    between atoms: N_25  and  N_26
   12  A    between atoms: C_27  and  C_29
   13  A    between atoms: C_28  and  C_34
   14  A    between atoms: C_29  and  C_31
   15  A    between atoms: C_34  and  P_35
                            x       y       z     vdW  Elec       q    Type
                         _______ _______ _______ _____ _____    ______ ____

>  <TORSDO>
F 15

$$$$
=
 OpenBabel11052409263D

 35 36  0  0  1  0  0  0  0  0999 V2000
  161.3890  205.5980  149.7720 C   0  0  0  0  0  0  0  0  0  0  0  0
  161.7940  206.7400  150.6580 C   0  0  1  0  0  3  0  0  0  0  0  0
  162.1800  204.9980  147.4860 N   0  0  0  0  0  0  0  0  0  0  0  0
  162.1960  207.7810  149.5810 C   0  0  0  0  0  0  0  0  0  0  0  0
  161.7760  209.2020  149.5800 N   0  0  0  0  0  2  0  0  0  0  0  0
  161.5870  206.0300  148.4010 C   0  0  2  0  0  3  0  0  0  0  0  0
  162.2920  207.2460  148.3900 N   0  0  0  0  0  0  0  0  0  0  0  0
  160.9750  204.3530  150.0270 C   0  0  0  0  0  3  0  0  0  0  0  0
  162.4960  205.4610  146.1340 C   0  0  0  0  0  1  0  0  0  0  0  0
  160.8470  203.3280  148.8190 C   0  0  0  0  0  3  0  0  0  0  0  0
  161.4610  203.7130  147.6370 C   0  0  0  0  0  3  0  0  0  0  0  0
  160.8410  207.3610  151.6920 C   0  0  0  0  0  2  0  0  0  0  0  0
  162.1450  206.0580  153.0470 O   0  0  0  0  0  0  0  0  0  0  0  0
  160.8020  207.4250  154.2940 N   0  0  0  0  0  2  0  0  0  0  0  0
  161.2600  206.9120  153.0520 C   0  0  0  0  0  0  0  0  0  0  0  0
  159.4130  209.6010  155.7490 O   0  0  0  0  0  0  0  0  0  0  0  0
  160.4840  209.7890  155.1050 C   0  0  0  0  0  0  0  0  0  0  0  0
  161.2740  208.6970  154.6280 N   0  0  0  0  0  2  0  0  0  0  0  0
  160.9930  211.1910  154.9360 C   0  0  0  0  0  2  0  0  0  0  0  0
  159.9080  212.1940  155.3270 C   0  0  0  0  0  2  0  0  0  0  0  0
  157.6950  211.7400  153.7400 O   0  0  0  0  0  1  0  0  0  0  0  0
  158.5620  214.0680  154.0900 O   0  0  0  0  0  1  0  0  0  0  0  0
  160.1370  212.4130  152.4770 O   0  0  0  0  0  0  0  0  0  0  0  0
  159.0840  212.6900  153.8020 P   0  0  0  0  0  0  0  0  0  0  0  0
  161.9540  210.1540  148.4860 C   0  0  0  0  0  2  0  0  0  0  0  0
  162.1280  211.5260  149.0180 C   0  0  0  0  0  2  0  0  0  0  0  0
  162.9760  212.3240  148.0310 C   0  0  0  0  0  2  0  0  0  0  0  0
  162.5700  213.8310  147.9980 C   0  0  0  0  0  2  0  0  0  0  0  0
  162.3570  214.3680  146.5850 C   0  0  0  0  0  2  0  0  0  0  0  0
  162.1670  213.3690  145.5180 C   0  0  0  0  0  2  0  0  0  0  0  0
  160.9140  212.6650  143.6110 O   0  0  0  0  0  1  0  0  0  0  0  0
  160.7860  213.1720  144.8990 C   0  0  1  0  0  3  0  0  0  0  0  0
  159.9790  212.1430  145.7040 C   0  0  0  0  0  2  0  0  0  0  0  0
  159.0440  212.8840  146.6040 C   0  0  0  0  0  2  0  0  0  0  0  0
  158.6030  214.2680  146.0660 C   0  0  0  0  0  1  0  0  0  0  0  0
  1  8  2  0  0  0  0
  1  2  1  0  0  0  0
  2 12  1  6  0  0  0
  3 11  1  0  0  0  0
  3  6  1  0  0  0  0
  4  2  1  0  0  0  0
  5  4  1  0  0  0  0
  6  7  1  1  0  0  0
  6  1  1  0  0  0  0
  7  4  2  0  0  0  0
  9  3  1  0  0  0  0
 10  8  1  0  0  0  0
 11 10  2  0  0  0  0
 12 15  1  0  0  0  0
 13 15  2  0  0  0  0
 14 18  1  0  0  0  0
 15 14  1  0  0  0  0
 17 16  2  0  0  0  0
 18 17  1  0  0  0  0
 19 17  1  0  0  0  0
 19 20  1  0  0  0  0
 21 24  1  0  0  0  0
 23 24  2  0  0  0  0
 24 22  1  0  0  0  0
 24 20  1  0  0  0  0
 25 26  1  0  0  0  0
 25  5  1  0  0  0  0
 27 26  1  0  0  0  0
 28 27  1  0  0  0  0
 29 28  1  0  0  0  0
 30 29  1  0  0  0  0
 32 31  1  6  0  0  0
 32 30  1  0  0  0  0
 32 33  1  0  0  0  0
 33 34  1  0  0  0  0
 35 34  1  0  0  0  0
M  END
>  <MODEL>
2

>  <REMARK>
 VINA RESULT:      -6.8      4.344      9.653
  Name = 
  15 active torsions:
  status: ('A' for Active; 'I' for Inactive)
    1  A    between atoms: C_1  and  C_14
    2  A    between atoms: C_1  and  C_32
    3  A    between atoms: C_5  and  C_22
    4  A    between atoms: C_6  and  C_31
    5  A    between atoms: C_7  and  C_16
    6  A    between atoms: C_7  and  C_27
    7  A    between atoms: N_12  and  C_32
    8  A    between atoms: C_14  and  C_16
    9  A    between atoms: C_18  and  C_28
   10  A    between atoms: C_22  and  C_30
   11  A    between atoms: N_25  and  N_26
   12  A    between atoms: C_27  and  C_29
   13  A    between atoms: C_28  and  C_34
   14  A    between atoms: C_29  and  C_31
   15  A    between atoms: C_34  and  P_35
                            x       y       z     vdW  Elec       q    Type
                         _______ _______ _______ _____ _____    ______ ____

>  <TORSDO>
F 15

$$$$
=
 OpenBabel11052409263D

 35 36  0  0  1  0  0  0  0  0999 V2000
  160.8360  207.6430  154.0080 C   0  0  0  0  0  0  0  0  0  0  0  0
  160.9130  207.1780  152.5830 C   0  0  1  0  0  3  0  0  0  0  0  0
  159.9170  209.7610  154.9460 N   0  0  0  0  0  0  0  0  0  0  0  0
  160.9910  208.5500  151.8620 C   0  0  0  0  0  0  0  0  0  0  0  0
  161.9530  208.8860  150.7860 N   0  0  0  0  0  2  0  0  0  0  0  0
  160.8590  209.0930  153.9870 C   0  0  2  0  0  3  0  0  0  0  0  0
  160.7100  209.5450  152.6640 N   0  0  0  0  0  0  0  0  0  0  0  0
  160.7030  206.9930  155.1680 C   0  0  0  0  0  3  0  0  0  0  0  0
  159.8440  211.2190  154.8480 C   0  0  0  0  0  1  0  0  0  0  0  0
  160.4280  207.8360  156.4890 C   0  0  0  0  0  3  0  0  0  0  0  0
  160.0480  209.1540  156.2900 C   0  0  0  0  0  3  0  0  0  0  0  0
  162.0150  206.2320  152.0810 C   0  0  0  0  0  2  0  0  0  0  0  0
  160.5980  204.6370  152.9070 O   0  0  0  0  0  0  0  0  0  0  0  0
  161.8160  203.8050  151.1600 N   0  0  0  0  0  2  0  0  0  0  0  0
  161.4750  204.8410  152.0690 C   0  0  0  0  0  0  0  0  0  0  0  0
  160.6160  201.7570  149.3860 O   0  0  0  0  0  0  0  0  0  0  0  0
  160.9750  202.8940  148.9660 C   0  0  0  0  0  0  0  0  0  0  0  0
  161.3110  203.9540  149.8660 N   0  0  0  0  0  2  0  0  0  0  0  0
  160.9420  203.1670  147.4910 C   0  0  0  0  0  2  0  0  0  0  0  0
  162.0770  204.1150  147.1070 C   0  0  0  0  0  2  0  0  0  0  0  0
  160.4220  206.2330  146.4770 O   0  0  0  0  0  1  0  0  0  0  0  0
  162.6470  205.9690  145.3490 O   0  0  0  0  0  1  0  0  0  0  0  0
  160.6790  204.1280  144.6020 O   0  0  0  0  0  0  0  0  0  0  0  0
  161.4670  205.1310  145.7490 P   0  0  0  0  0  0  0  0  0  0  0  0
  162.2000  210.2160  150.2340 C   0  0  0  0  0  2  0  0  0  0  0  0
  161.9950  210.2120  148.7650 C   0  0  0  0  0  2  0  0  0  0  0  0
  162.2480  211.6210  148.2380 C   0  0  0  0  0  2  0  0  0  0  0  0
  160.9240  212.3340  147.8200 C   0  0  0  0  0  2  0  0  0  0  0  0
  160.9770  212.9320  146.4150 C   0  0  0  0  0  3  0  0  0  0  0  0
  162.2840  213.4380  145.9600 C   0  0  0  0  0  3  0  0  0  0  0  0
  163.7080  213.4090  144.0440 O   0  0  0  0  0  1  0  0  0  0  0  0
  162.4730  213.8530  144.5040 C   0  0  1  0  0  3  0  0  0  0  0  0
  161.4060  213.1950  143.6170 C   0  0  0  0  0  2  0  0  0  0  0  0
  162.0980  212.2940  142.6470 C   0  0  0  0  0  2  0  0  0  0  0  0
  161.1840  211.7380  141.5270 C   0  0  0  0  0  1  0  0  0  0  0  0
  1  8  2  0  0  0  0
  2 12  1  1  0  0  0
  2  1  1  0  0  0  0
  3 11  1  0  0  0  0
  4  2  1  0  0  0  0
  4  7  2  0  0  0  0
  5  4  1  0  0  0  0
  6  7  1  6  0  0  0
  6  1  1  0  0  0  0
  6  3  1  0  0  0  0
  8 10  1  0  0  0  0
  9  3  1  0  0  0  0
 11 10  2  0  0  0  0
 14 15  1  0  0  0  0
 15 12  1  0  0  0  0
 15 13  2  0  0  0  0
 17 16  2  0  0  0  0
 17 18  1  0  0  0  0
 18 14  1  0  0  0  0
 19 17  1  0  0  0  0
 20 19  1  0  0  0  0
 22 24  1  0  0  0  0
 23 24  2  0  0  0  0
 24 21  1  0  0  0  0
 24 20  1  0  0  0  0
 25  5  1  0  0  0  0
 26 25  1  0  0  0  0
 27 26  1  0  0  0  0
 28 27  1  0  0  0  0
 29 28  1  0  0  0  0
 30 29  2  0  0  0  0
 32 31  1  6  0  0  0
 32 30  1  0  0  0  0
 33 32  1  0  0  0  0
 34 33  1  0  0  0  0
 35 34  1  0  0  0  0
M  END
>  <MODEL>
3

>  <REMARK>
 VINA RESULT:      -6.8      3.705      7.023
  Name = 
  15 active torsions:
  status: ('A' for Active; 'I' for Inactive)
    1  A    between atoms: C_1  and  C_14
    2  A    between atoms: C_1  and  C_32
    3  A    between atoms: C_5  and  C_22
    4  A    between atoms: C_6  and  C_31
    5  A    between atoms: C_7  and  C_16
    6  A    between atoms: C_7  and  C_27
    7  A    between atoms: N_12  and  C_32
    8  A    between atoms: C_14  and  C_16
    9  A    between atoms: C_18  and  C_28
   10  A    between atoms: C_22  and  C_30
   11  A    between atoms: N_25  and  N_26
   12  A    between atoms: C_27  and  C_29
   13  A    between atoms: C_28  and  C_34
   14  A    between atoms: C_29  and  C_31
   15  A    between atoms: C_34  and  P_35
                            x       y       z     vdW  Elec       q    Type
                         _______ _______ _______ _____ _____    ______ ____

>  <TORSDO>
F 15

$$$$
=
 OpenBabel11052409263D

 35 36  0  0  1  0  0  0  0  0999 V2000
  160.8230  207.8750  154.1990 C   0  0  0  0  0  0  0  0  0  0  0  0
  160.9330  207.3420  152.7990 C   0  0  1  0  0  3  0  0  0  0  0  0
  159.8290  210.0080  155.0170 N   0  0  0  0  0  0  0  0  0  0  0  0
  160.9810  208.6770  152.0110 C   0  0  0  0  0  0  0  0  0  0  0  0
  161.9470  208.9880  150.9320 N   0  0  0  0  0  2  0  0  0  0  0  0
  160.8040  209.3220  154.1040 C   0  0  2  0  0  3  0  0  0  0  0  0
  160.6600  209.7030  152.7590 N   0  0  0  0  0  0  0  0  0  0  0  0
  160.6930  207.2800  155.3880 C   0  0  0  0  0  3  0  0  0  0  0  0
  159.7150  211.4570  154.8450 C   0  0  0  0  0  1  0  0  0  0  0  0
  160.3750  208.1790  156.6610 C   0  0  0  0  0  3  0  0  0  0  0  0
  159.9590  209.4740  156.3910 C   0  0  0  0  0  3  0  0  0  0  0  0
  162.0690  206.4050  152.3590 C   0  0  0  0  0  2  0  0  0  0  0  0
  160.7170  204.7980  153.2680 O   0  0  0  0  0  0  0  0  0  0  0  0
  161.9150  203.9470  151.5160 N   0  0  0  0  0  2  0  0  0  0  0  0
  161.5670  205.0000  152.4030 C   0  0  0  0  0  0  0  0  0  0  0  0
  160.8100  201.7980  149.7990 O   0  0  0  0  0  0  0  0  0  0  0  0
  161.0880  202.9490  149.3550 C   0  0  0  0  0  0  0  0  0  0  0  0
  161.3740  204.0420  150.2310 N   0  0  0  0  0  2  0  0  0  0  0  0
  161.0060  203.1960  147.8770 C   0  0  0  0  0  2  0  0  0  0  0  0
  161.3150  204.6610  147.5720 C   0  0  0  0  0  2  0  0  0  0  0  0
  161.0880  203.3820  145.1350 O   0  0  0  0  0  0  0  0  0  0  0  0
  161.0050  205.8850  145.2780 O   0  0  0  0  0  1  0  0  0  0  0  0
  163.5090  204.7250  145.7260 O   0  0  0  0  0  1  0  0  0  0  0  0
  161.7980  204.7390  145.8370 P   0  0  0  0  0  0  0  0  0  0  0  0
  162.1630  210.2960  150.3160 C   0  0  0  0  0  2  0  0  0  0  0  0
  162.0190  210.2030  148.8430 C   0  0  0  0  0  2  0  0  0  0  0  0
  162.4160  211.5450  148.2340 C   0  0  0  0  0  2  0  0  0  0  0  0
  161.2120  212.5350  148.1670 C   0  0  0  0  0  2  0  0  0  0  0  0
  160.4280  212.4460  146.8600 C   0  0  0  0  0  2  0  0  0  0  0  0
  159.7740  213.6830  146.3940 C   0  0  0  0  0  2  0  0  0  0  0  0
  157.9040  212.3460  145.7490 O   0  0  0  0  0  1  0  0  0  0  0  0
  158.3050  213.6570  145.9830 C   0  0  1  0  0  3  0  0  0  0  0  0
  157.4210  214.1950  147.1180 C   0  0  0  0  0  2  0  0  0  0  0  0
  157.1730  213.0820  148.0830 C   0  0  0  0  0  2  0  0  0  0  0  0
  156.5170  213.5250  149.4140 C   0  0  0  0  0  1  0  0  0  0  0  0
  1  8  2  0  0  0  0
  2 12  1  1  0  0  0
  2  1  1  0  0  0  0
  3 11  1  0  0  0  0
  4  7  2  0  0  0  0
  4  2  1  0  0  0  0
  5  4  1  0  0  0  0
  6  7  1  6  0  0  0
  6  1  1  0  0  0  0
  6  3  1  0  0  0  0
  8 10  1  0  0  0  0
  9  3  1  0  0  0  0
 11 10  2  0  0  0  0
 12 15  1  0  0  0  0
 14 15  1  0  0  0  0
 15 13  2  0  0  0  0
 17 16  2  0  0  0  0
 17 18  1  0  0  0  0
 18 14  1  0  0  0  0
 19 17  1  0  0  0  0
 20 19  1  0  0  0  0
 21 24  2  0  0  0  0
 22 24  1  0  0  0  0
 23 24  1  0  0  0  0
 24 20  1  0  0  0  0
 25  5  1  0  0  0  0
 26 25  1  0  0  0  0
 27 26  1  0  0  0  0
 28 27  1  0  0  0  0
 29 28  1  0  0  0  0
 30 29  1  0  0  0  0
 32 31  1  1  0  0  0
 32 30  1  0  0  0  0
 32 33  1  0  0  0  0
 33 34  1  0  0  0  0
 34 35  1  0  0  0  0
M  END
>  <MODEL>
4

>  <REMARK>
 VINA RESULT:      -6.6      3.190      6.812
  Name = 
  15 active torsions:
  status: ('A' for Active; 'I' for Inactive)
    1  A    between atoms: C_1  and  C_14
    2  A    between atoms: C_1  and  C_32
    3  A    between atoms: C_5  and  C_22
    4  A    between atoms: C_6  and  C_31
    5  A    between atoms: C_7  and  C_16
    6  A    between atoms: C_7  and  C_27
    7  A    between atoms: N_12  and  C_32
    8  A    between atoms: C_14  and  C_16
    9  A    between atoms: C_18  and  C_28
   10  A    between atoms: C_22  and  C_30
   11  A    between atoms: N_25  and  N_26
   12  A    between atoms: C_27  and  C_29
   13  A    between atoms: C_28  and  C_34
   14  A    between atoms: C_29  and  C_31
   15  A    between atoms: C_34  and  P_35
                            x       y       z     vdW  Elec       q    Type
                         _______ _______ _______ _____ _____    ______ ____

>  <TORSDO>
F 15

$$$$
=
 OpenBabel11052409263D

 35 36  0  0  1  0  0  0  0  0999 V2000
  161.4110  205.7510  149.8830 C   0  0  0  0  0  0  0  0  0  0  0  0
  161.8580  206.8860  150.7580 C   0  0  1  0  0  3  0  0  0  0  0  0
  162.1620  205.1130  147.5950 N   0  0  0  0  0  0  0  0  0  0  0  0
  162.2810  207.9080  149.6700 C   0  0  0  0  0  0  0  0  0  0  0  0
  161.9030  209.3400  149.6630 N   0  0  0  0  0  2  0  0  0  0  0  0
  161.6090  206.1680  148.5080 C   0  0  2  0  0  3  0  0  0  0  0  0
  162.3500  207.3620  148.4820 N   0  0  0  0  0  0  0  0  0  0  0  0
  160.9630  204.5210  150.1520 C   0  0  0  0  0  3  0  0  0  0  0  0
  162.4790  205.5560  146.2370 C   0  0  0  0  0  1  0  0  0  0  0  0
  160.7930  203.4920  148.9510 C   0  0  0  0  0  3  0  0  0  0  0  0
  161.4070  203.8510  147.7620 C   0  0  0  0  0  3  0  0  0  0  0  0
  160.9340  207.5430  151.7960 C   0  0  0  0  0  2  0  0  0  0  0  0
  162.2300  206.2330  153.1530 O   0  0  0  0  0  0  0  0  0  0  0  0
  160.5630  207.2370  154.3550 N   0  0  0  0  0  2  0  0  0  0  0  0
  161.2400  206.9630  153.1370 C   0  0  0  0  0  0  0  0  0  0  0  0
  162.0160  207.9310  156.8430 O   0  0  0  0  0  0  0  0  0  0  0  0
  161.2900  208.7610  156.2250 C   0  0  0  0  0  0  0  0  0  0  0  0
  160.8060  208.4970  154.9050 N   0  0  0  0  0  2  0  0  0  0  0  0
  161.0230  210.0990  156.8500 C   0  0  0  0  0  2  0  0  0  0  0  0
  161.3830  211.2160  155.8720 C   0  0  0  0  0  2  0  0  0  0  0  0
  159.7070  212.3810  154.0120 O   0  0  0  0  0  0  0  0  0  0  0  0
  158.7780  211.3350  156.0940 O   0  0  0  0  0  1  0  0  0  0  0  0
  160.1550  213.7420  156.4540 O   0  0  0  0  0  1  0  0  0  0  0  0
  159.9070  212.2320  155.6780 P   0  0  0  0  0  0  0  0  0  0  0  0
  162.0990  210.2790  148.5600 C   0  0  0  0  0  2  0  0  0  0  0  0
  161.6910  211.6450  148.9660 C   0  0  0  0  0  2  0  0  0  0  0  0
  162.3930  212.6500  148.0570 C   0  0  0  0  0  2  0  0  0  0  0  0
  161.6070  212.8830  146.7290 C   0  0  0  0  0  2  0  0  0  0  0  0
  160.1190  212.5600  146.8430 C   0  0  0  0  0  3  0  0  0  0  0  0
  159.2410  213.6430  147.3190 C   0  0  0  0  0  3  0  0  0  0  0  0
  157.4110  212.2130  146.7670 O   0  0  0  0  0  1  0  0  0  0  0  0
  157.7260  213.4590  147.2970 C   0  0  1  0  0  3  0  0  0  0  0  0
  157.1610  213.4900  148.7240 C   0  0  0  0  0  2  0  0  0  0  0  0
  158.2730  213.8420  149.6580 C   0  0  0  0  0  2  0  0  0  0  0  0
  158.0880  213.3110  151.1010 C   0  0  0  0  0  1  0  0  0  0  0  0
  1  8  2  0  0  0  0
  1  2  1  0  0  0  0
  2 12  1  6  0  0  0
  3 11  1  0  0  0  0
  3  6  1  0  0  0  0
  4  2  1  0  0  0  0
  5  4  1  0  0  0  0
  6  7  1  1  0  0  0
  6  1  1  0  0  0  0
  7  4  2  0  0  0  0
  9  3  1  0  0  0  0
 10  8  1  0  0  0  0
 11 10  2  0  0  0  0
 12 15  1  0  0  0  0
 14 18  1  0  0  0  0
 15 13  2  0  0  0  0
 15 14  1  0  0  0  0
 17 16  2  0  0  0  0
 17 19  1  0  0  0  0
 18 17  1  0  0  0  0
 20 19  1  0  0  0  0
 21 24  2  0  0  0  0
 24 20  1  0  0  0  0
 24 22  1  0  0  0  0
 24 23  1  0  0  0  0
 25 26  1  0  0  0  0
 25  5  1  0  0  0  0
 27 26  1  0  0  0  0
 28 29  1  0  0  0  0
 28 27  1  0  0  0  0
 29 30  2  0  0  0  0
 32 31  1  1  0  0  0
 32 30  1  0  0  0  0
 32 33  1  0  0  0  0
 33 34  1  0  0  0  0
 34 35  1  0  0  0  0
M  END
>  <MODEL>
5

>  <REMARK>
 VINA RESULT:      -6.4      4.075      9.713
  Name = 
  15 active torsions:
  status: ('A' for Active; 'I' for Inactive)
    1  A    between atoms: C_1  and  C_14
    2  A    between atoms: C_1  and  C_32
    3  A    between atoms: C_5  and  C_22
    4  A    between atoms: C_6  and  C_31
    5  A    between atoms: C_7  and  C_16
    6  A    between atoms: C_7  and  C_27
    7  A    between atoms: N_12  and  C_32
    8  A    between atoms: C_14  and  C_16
    9  A    between atoms: C_18  and  C_28
   10  A    between atoms: C_22  and  C_30
   11  A    between atoms: N_25  and  N_26
   12  A    between atoms: C_27  and  C_29
   13  A    between atoms: C_28  and  C_34
   14  A    between atoms: C_29  and  C_31
   15  A    between atoms: C_34  and  P_35
                            x       y       z     vdW  Elec       q    Type
                         _______ _______ _______ _____ _____    ______ ____

>  <TORSDO>
F 15

$$$$
=
 OpenBabel11052409263D

 35 36  0  0  1  0  0  0  0  0999 V2000
  161.8310  205.6200  147.4360 C   0  0  0  0  0  0  0  0  0  0  0  0
  161.5850  206.6110  148.5360 C   0  0  1  0  0  3  0  0  0  0  0  0
  160.8710  203.3460  147.0950 N   0  0  0  0  0  0  0  0  0  0  0  0
  161.2320  205.6390  149.6920 C   0  0  0  0  0  0  0  0  0  0  0  0
  161.7870  205.7190  151.0640 N   0  0  0  0  0  2  0  0  0  0  0  0
  161.6070  204.2990  147.9920 C   0  0  2  0  0  3  0  0  0  0  0  0
  161.0240  204.4200  149.2650 N   0  0  0  0  0  0  0  0  0  0  0  0
  162.1350  205.7580  146.1410 C   0  0  0  0  0  3  0  0  0  0  0  0
  160.5330  202.0520  147.6910 C   0  0  0  0  0  1  0  0  0  0  0  0
  162.1010  204.4710  145.2080 C   0  0  0  0  0  3  0  0  0  0  0  0
  161.4680  203.3600  145.7410 C   0  0  0  0  0  3  0  0  0  0  0  0
  162.6450  207.6300  148.9820 C   0  0  0  0  0  2  0  0  0  0  0  0
  161.9270  208.8330  150.7920 O   0  0  0  0  0  0  0  0  0  0  0  0
  161.4030  209.9150  148.8460 N   0  0  0  0  0  2  0  0  0  0  0  0
  161.9480  208.8160  149.5620 C   0  0  0  0  0  0  0  0  0  0  0  0
  161.4340  212.8760  148.9400 O   0  0  0  0  0  0  0  0  0  0  0  0
  162.1770  212.2130  148.1620 C   0  0  0  0  0  0  0  0  0  0  0  0
  162.3390  210.7990  148.3040 N   0  0  0  0  0  2  0  0  0  0  0  0
  162.9920  212.9450  147.1360 C   0  0  0  0  0  2  0  0  0  0  0  0
  162.1720  214.0820  146.5280 C   0  0  0  0  0  2  0  0  0  0  0  0
  160.3910  212.1420  145.6970 O   0  0  0  0  0  1  0  0  0  0  0  0
  160.3200  214.4490  144.7150 O   0  0  0  0  0  1  0  0  0  0  0  0
  162.4960  212.8690  143.9490 O   0  0  0  0  0  0  0  0  0  0  0  0
  161.3280  213.4020  145.0870 P   0  0  0  0  0  0  0  0  0  0  0  0
  161.6470  204.7100  152.1120 C   0  0  0  0  0  2  0  0  0  0  0  0
  161.0800  205.3170  153.3400 C   0  0  0  0  0  2  0  0  0  0  0  0
  161.3090  206.8250  153.2840 C   0  0  0  0  0  2  0  0  0  0  0  0
  161.1950  207.4850  154.6940 C   0  0  0  0  0  2  0  0  0  0  0  0
  161.1800  209.0110  154.6470 C   0  0  0  0  0  2  0  0  0  0  0  0
  160.0130  209.6810  155.2480 C   0  0  0  0  0  2  0  0  0  0  0  0
  160.4900  212.0140  155.0790 O   0  0  0  0  0  1  0  0  0  0  0  0
  159.5640  211.0410  154.7220 C   0  0  1  0  0  3  0  0  0  0  0  0
  159.5020  211.0280  153.1870 C   0  0  0  0  0  2  0  0  0  0  0  0
  158.5460  212.0910  152.7520 C   0  0  0  0  0  2  0  0  0  0  0  0
  159.1910  213.2320  151.9270 C   0  0  0  0  0  1  0  0  0  0  0  0
  1  2  1  0  0  0  0
  2 12  1  1  0  0  0
  2  4  1  0  0  0  0
  3  9  1  0  0  0  0
  3  6  1  0  0  0  0
  4  5  1  0  0  0  0
  5 25  1  0  0  0  0
  6  1  1  6  0  0  0
  6  7  1  0  0  0  0
  7  4  2  0  0  0  0
  8  1  2  0  0  0  0
 10 11  2  0  0  0  0
 10  8  1  0  0  0  0
 11  3  1  0  0  0  0
 12 15  1  0  0  0  0
 14 15  1  0  0  0  0
 15 13  2  0  0  0  0
 17 18  1  0  0  0  0
 17 16  2  0  0  0  0
 18 14  1  0  0  0  0
 19 17  1  0  0  0  0
 20 19  1  0  0  0  0
 22 24  1  0  0  0  0
 23 24  2  0  0  0  0
 24 21  1  0  0  0  0
 24 20  1  0  0  0  0
 25 26  1  0  0  0  0
 27 26  1  0  0  0  0
 27 28  1  0  0  0  0
 29 28  1  0  0  0  0
 29 30  1  0  0  0  0
 32 31  1  6  0  0  0
 32 30  1  0  0  0  0
 33 32  1  0  0  0  0
 34 33  1  0  0  0  0
 35 34  1  0  0  0  0
M  END
>  <MODEL>
6

>  <REMARK>
 VINA RESULT:      -6.2      3.657      8.349
  Name = 
  15 active torsions:
  status: ('A' for Active; 'I' for Inactive)
    1  A    between atoms: C_1  and  C_14
    2  A    between atoms: C_1  and  C_32
    3  A    between atoms: C_5  and  C_22
    4  A    between atoms: C_6  and  C_31
    5  A    between atoms: C_7  and  C_16
    6  A    between atoms: C_7  and  C_27
    7  A    between atoms: N_12  and  C_32
    8  A    between atoms: C_14  and  C_16
    9  A    between atoms: C_18  and  C_28
   10  A    between atoms: C_22  and  C_30
   11  A    between atoms: N_25  and  N_26
   12  A    between atoms: C_27  and  C_29
   13  A    between atoms: C_28  and  C_34
   14  A    between atoms: C_29  and  C_31
   15  A    between atoms: C_34  and  P_35
                            x       y       z     vdW  Elec       q    Type
                         _______ _______ _______ _____ _____    ______ ____

>  <TORSDO>
F 15

$$$$
=
 OpenBabel11052409263D

 35 36  0  0  1  0  0  0  0  0999 V2000
  161.2510  208.0990  150.8950 C   0  0  0  0  0  0  0  0  0  0  0  0
  160.6300  206.8320  150.3830 C   0  0  1  0  0  3  0  0  0  0  0  0
  161.7920  210.2110  149.6870 N   0  0  0  0  0  0  0  0  0  0  0  0
  161.0970  206.8880  148.9040 C   0  0  0  0  0  0  0  0  0  0  0  0
  161.6910  205.7520  148.1620 N   0  0  0  0  0  2  0  0  0  0  0  0
  161.9400  208.7190  149.7790 C   0  0  2  0  0  3  0  0  0  0  0  0
  161.5940  208.0570  148.5880 N   0  0  0  0  0  0  0  0  0  0  0  0
  161.2190  208.7090  152.0840 C   0  0  0  0  0  3  0  0  0  0  0  0
  162.3800  210.8310  148.5000 C   0  0  0  0  0  1  0  0  0  0  0  0
  161.8190  210.1770  152.2060 C   0  0  0  0  0  3  0  0  0  0  0  0
  162.0570  210.8290  151.0060 C   0  0  0  0  0  3  0  0  0  0  0  0
  160.9280  205.4570  151.0000 C   0  0  0  0  0  2  0  0  0  0  0  0
  162.9140  206.0310  151.9820 O   0  0  0  0  0  0  0  0  0  0  0  0
  161.3440  205.5340  153.5690 N   0  0  0  0  0  2  0  0  0  0  0  0
  161.7660  205.6570  152.2190 C   0  0  0  0  0  0  0  0  0  0  0  0
  161.9570  207.6620  155.5380 O   0  0  0  0  0  0  0  0  0  0  0  0
  160.7790  207.4030  155.1610 C   0  0  0  0  0  0  0  0  0  0  0  0
  160.5190  206.5610  154.0340 N   0  0  0  0  0  2  0  0  0  0  0  0
  159.6310  208.0860  155.8450 C   0  0  0  0  0  2  0  0  0  0  0  0
  160.1530  209.0900  156.8720 C   0  0  0  0  0  2  0  0  0  0  0  0
  158.5010  211.2710  157.2430 O   0  0  0  0  0  1  0  0  0  0  0  0
  160.9170  211.5830  156.6460 O   0  0  0  0  0  1  0  0  0  0  0  0
  159.2760  210.6080  154.6020 O   0  0  0  0  0  0  0  0  0  0  0  0
  159.7470  210.7310  156.2470 P   0  0  0  0  0  0  0  0  0  0  0  0
  162.3340  205.8190  146.8510 C   0  0  0  0  0  2  0  0  0  0  0  0
  161.3190  205.7270  145.7740 C   0  0  0  0  0  2  0  0  0  0  0  0
  161.6470  204.5180  144.9020 C   0  0  0  0  0  2  0  0  0  0  0  0
  160.3720  203.6930  144.5450 C   0  0  0  0  0  2  0  0  0  0  0  0
  160.3040  202.3450  145.2600 C   0  0  0  0  0  2  0  0  0  0  0  0
  161.2010  202.1630  146.4150 C   0  0  0  0  0  2  0  0  0  0  0  0
  161.5820  200.2860  147.8410 O   0  0  0  0  0  1  0  0  0  0  0  0
  160.7290  201.3630  147.6250 C   0  0  1  0  0  3  0  0  0  0  0  0
  160.7780  202.2280  148.8930 C   0  0  0  0  0  2  0  0  0  0  0  0
  161.1090  201.3420  150.0490 C   0  0  0  0  0  2  0  0  0  0  0  0
  161.2080  202.0760  151.4090 C   0  0  0  0  0  1  0  0  0  0  0  0
  1  8  2  0  0  0  0
  2  1  1  0  0  0  0
  2 12  1  1  0  0  0
  3  6  1  0  0  0  0
  3 11  1  0  0  0  0
  4  2  1  0  0  0  0
  5  4  1  0  0  0  0
  6  7  1  6  0  0  0
  6  1  1  0  0  0  0
  7  4  2  0  0  0  0
  8 10  1  0  0  0  0
  9  3  1  0  0  0  0
 11 10  2  0  0  0  0
 12 15  1  0  0  0  0
 13 15  2  0  0  0  0
 14 18  1  0  0  0  0
 15 14  1  0  0  0  0
 17 16  2  0  0  0  0
 17 19  1  0  0  0  0
 18 17  1  0  0  0  0
 19 20  1  0  0  0  0
 23 24  2  0  0  0  0
 24 22  1  0  0  0  0
 24 20  1  0  0  0  0
 24 21  1  0  0  0  0
 25  5  1  0  0  0  0
 26 25  1  0  0  0  0
 27 26  1  0  0  0  0
 28 27  1  0  0  0  0
 28 29  1  0  0  0  0
 29 30  1  0  0  0  0
 30 32  1  0  0  0  0
 32 31  1  1  0  0  0
 32 33  1  0  0  0  0
 33 34  1  0  0  0  0
 34 35  1  0  0  0  0
M  END
>  <MODEL>
7

>  <REMARK>
 VINA RESULT:      -6.2      3.841      7.686
  Name = 
  15 active torsions:
  status: ('A' for Active; 'I' for Inactive)
    1  A    between atoms: C_1  and  C_14
    2  A    between atoms: C_1  and  C_32
    3  A    between atoms: C_5  and  C_22
    4  A    between atoms: C_6  and  C_31
    5  A    between atoms: C_7  and  C_16
    6  A    between atoms: C_7  and  C_27
    7  A    between atoms: N_12  and  C_32
    8  A    between atoms: C_14  and  C_16
    9  A    between atoms: C_18  and  C_28
   10  A    between atoms: C_22  and  C_30
   11  A    between atoms: N_25  and  N_26
   12  A    between atoms: C_27  and  C_29
   13  A    between atoms: C_28  and  C_34
   14  A    between atoms: C_29  and  C_31
   15  A    between atoms: C_34  and  P_35
                            x       y       z     vdW  Elec       q    Type
                         _______ _______ _______ _____ _____    ______ ____

>  <TORSDO>
F 15

$$$$
=
 OpenBabel11052409263D

 35 36  0  0  1  0  0  0  0  0999 V2000
  159.8070  210.4160  154.1300 C   0  0  0  0  0  0  0  0  0  0  0  0
  160.3420  209.1990  153.4320 C   0  0  1  0  0  3  0  0  0  0  0  0
  158.6010  212.3870  153.1960 N   0  0  0  0  0  0  0  0  0  0  0  0
  160.6230  209.8010  152.0300 C   0  0  0  0  0  0  0  0  0  0  0  0
  161.8710  209.5990  151.2580 N   0  0  0  0  0  2  0  0  0  0  0  0
  159.8120  211.4990  153.1650 C   0  0  2  0  0  3  0  0  0  0  0  0
  160.0850  210.9850  151.8850 N   0  0  0  0  0  0  0  0  0  0  0  0
  159.3210  210.6170  155.3580 C   0  0  0  0  0  3  0  0  0  0  0  0
  158.5400  213.4070  152.1490 C   0  0  0  0  0  1  0  0  0  0  0  0
  158.6260  212.0090  155.6860 C   0  0  0  0  0  3  0  0  0  0  0  0
  158.3070  212.7930  154.5890 C   0  0  0  0  0  3  0  0  0  0  0  0
  161.5610  208.4200  153.9480 C   0  0  0  0  0  2  0  0  0  0  0  0
  160.0760  206.9640  154.9020 O   0  0  0  0  0  0  0  0  0  0  0  0
  161.7670  205.8260  153.8660 N   0  0  0  0  0  2  0  0  0  0  0  0
  161.1310  207.0280  154.2730 C   0  0  0  0  0  0  0  0  0  0  0  0
  160.5040  203.4300  152.6630 O   0  0  0  0  0  0  0  0  0  0  0  0
  161.2300  204.2230  151.9980 C   0  0  0  0  0  0  0  0  0  0  0  0
  161.6190  205.4970  152.5160 N   0  0  0  0  0  2  0  0  0  0  0  0
  161.5990  203.8610  150.5890 C   0  0  0  0  0  2  0  0  0  0  0  0
  160.3440  203.5030  149.7930 C   0  0  0  0  0  2  0  0  0  0  0  0
  158.8430  201.2480  149.2590 O   0  0  0  0  0  1  0  0  0  0  0  0
  160.9890  201.6760  148.0330 O   0  0  0  0  0  0  0  0  0  0  0  0
  161.2490  200.9440  150.7190 O   0  0  0  0  0  1  0  0  0  0  0  0
  160.4450  201.7400  149.4300 P   0  0  0  0  0  0  0  0  0  0  0  0
  162.2600  210.3130  150.0430 C   0  0  0  0  0  2  0  0  0  0  0  0
  162.1670  209.4160  148.8660 C   0  0  0  0  0  2  0  0  0  0  0  0
  162.2280  207.9710  149.3540 C   0  0  0  0  0  2  0  0  0  0  0  0
  160.8410  207.2620  149.2540 C   0  0  0  0  0  2  0  0  0  0  0  0
  160.7360  206.3040  148.0700 C   0  0  0  0  0  2  0  0  0  0  0  0
  161.4110  206.7140  146.8250 C   0  0  0  0  0  2  0  0  0  0  0  0
  162.8330  204.8030  146.9990 O   0  0  0  0  0  1  0  0  0  0  0  0
  162.3240  205.7310  146.0970 C   0  0  1  0  0  3  0  0  0  0  0  0
  161.5300  204.9390  145.0470 C   0  0  0  0  0  2  0  0  0  0  0  0
  161.2770  203.5700  145.5900 C   0  0  0  0  0  2  0  0  0  0  0  0
  160.1730  202.7810  144.8430 C   0  0  0  0  0  1  0  0  0  0  0  0
  1  8  2  0  0  0  0
  2 12  1  1  0  0  0
  2  1  1  0  0  0  0
  3 11  1  0  0  0  0
  4  2  1  0  0  0  0
  5  4  1  0  0  0  0
  6  7  1  6  0  0  0
  6  3  1  0  0  0  0
  6  1  1  0  0  0  0
  7  4  2  0  0  0  0
  8 10  1  0  0  0  0
  9  3  1  0  0  0  0
 11 10  2  0  0  0  0
 12 15  1  0  0  0  0
 14 15  1  0  0  0  0
 15 13  2  0  0  0  0
 17 18  1  0  0  0  0
 17 16  2  0  0  0  0
 18 14  1  0  0  0  0
 19 17  1  0  0  0  0
 20 19  1  0  0  0  0
 21 24  1  0  0  0  0
 22 24  2  0  0  0  0
 24 20  1  0  0  0  0
 24 23  1  0  0  0  0
 25  5  1  0  0  0  0
 26 27  1  0  0  0  0
 26 25  1  0  0  0  0
 28 27  1  0  0  0  0
 29 28  1  0  0  0  0
 30 29  1  0  0  0  0
 32 30  1  0  0  0  0
 32 31  1  1  0  0  0
 33 34  1  0  0  0  0
 33 32  1  0  0  0  0
 35 34  1  0  0  0  0
M  END
>  <MODEL>
8

>  <REMARK>
 VINA RESULT:      -5.9      2.332      4.650
  Name = 
  15 active torsions:
  status: ('A' for Active; 'I' for Inactive)
    1  A    between atoms: C_1  and  C_14
    2  A    between atoms: C_1  and  C_32
    3  A    between atoms: C_5  and  C_22
    4  A    between atoms: C_6  and  C_31
    5  A    between atoms: C_7  and  C_16
    6  A    between atoms: C_7  and  C_27
    7  A    between atoms: N_12  and  C_32
    8  A    between atoms: C_14  and  C_16
    9  A    between atoms: C_18  and  C_28
   10  A    between atoms: C_22  and  C_30
   11  A    between atoms: N_25  and  N_26
   12  A    between atoms: C_27  and  C_29
   13  A    between atoms: C_28  and  C_34
   14  A    between atoms: C_29  and  C_31
   15  A    between atoms: C_34  and  P_35
                            x       y       z     vdW  Elec       q    Type
                         _______ _______ _______ _____ _____    ______ ____

>  <TORSDO>
F 15

$$$$
=
 OpenBabel11052409263D

 35 36  0  0  1  0  0  0  0  0999 V2000
  161.0970  203.8120  149.2130 C   0  0  0  0  0  0  0  0  0  0  0  0
  161.4850  205.1830  148.7400 C   0  0  1  0  0  3  0  0  0  0  0  0
  161.3570  201.6050  148.0860 N   0  0  0  0  0  0  0  0  0  0  0  0
  161.3710  204.9750  147.2070 C   0  0  0  0  0  0  0  0  0  0  0  0
  160.6910  205.9060  146.2760 N   0  0  0  0  0  2  0  0  0  0  0  0
  160.8340  203.0110  148.0330 C   0  0  2  0  0  3  0  0  0  0  0  0
  161.2530  203.7120  146.8880 N   0  0  0  0  0  0  0  0  0  0  0  0
  161.0240  203.2580  150.4270 C   0  0  0  0  0  3  0  0  0  0  0  0
  161.2040  200.8270  146.8550 C   0  0  0  0  0  1  0  0  0  0  0  0
  160.7870  201.6890  150.5380 C   0  0  0  0  0  3  0  0  0  0  0  0
  160.9760  200.9700  149.3680 C   0  0  0  0  0  3  0  0  0  0  0  0
  160.7370  206.4510  149.1790 C   0  0  0  0  0  2  0  0  0  0  0  0
  161.5830  208.4940  148.5930 O   0  0  0  0  0  0  0  0  0  0  0  0
  162.7370  207.6230  150.3640 N   0  0  0  0  0  2  0  0  0  0  0  0
  161.7310  207.5480  149.3640 C   0  0  0  0  0  0  0  0  0  0  0  0
  162.0600  205.7220  152.5340 O   0  0  0  0  0  0  0  0  0  0  0  0
  161.7320  206.9430  152.5720 C   0  0  0  0  0  0  0  0  0  0  0  0
  162.2790  207.8950  151.6550 N   0  0  0  0  0  2  0  0  0  0  0  0
  160.8340  207.4190  153.6750 C   0  0  0  0  0  2  0  0  0  0  0  0
  160.8360  208.9470  153.7310 C   0  0  0  0  0  2  0  0  0  0  0  0
  161.7560  210.2540  155.9820 O   0  0  0  0  0  1  0  0  0  0  0  0
  159.3590  210.4630  155.2720 O   0  0  0  0  0  0  0  0  0  0  0  0
  160.1010  207.9830  156.3310 O   0  0  0  0  0  1  0  0  0  0  0  0
  160.4130  209.4050  155.4230 P   0  0  0  0  0  0  0  0  0  0  0  0
  160.3770  205.6480  144.8730 C   0  0  0  0  0  2  0  0  0  0  0  0
  161.6130  205.6800  144.0540 C   0  0  0  0  0  2  0  0  0  0  0  0
  161.2170  205.8280  142.5870 C   0  0  0  0  0  2  0  0  0  0  0  0
  162.3280  206.5380  141.7520 C   0  0  0  0  0  2  0  0  0  0  0  0
  161.9940  206.6390  140.2650 C   0  0  0  0  0  3  0  0  0  0  0  0
  161.5820  207.9640  139.7680 C   0  0  0  0  0  3  0  0  0  0  0  0
  161.9470  207.1010  137.5720 O   0  0  0  0  0  1  0  0  0  0  0  0
  161.5000  208.2190  138.2660 C   0  0  1  0  0  3  0  0  0  0  0  0
  160.0420  208.4510  137.8410 C   0  0  0  0  0  2  0  0  0  0  0  0
  159.5180  209.6270  138.5980 C   0  0  0  0  0  2  0  0  0  0  0  0
  158.0290  209.9520  138.3230 C   0  0  0  0  0  1  0  0  0  0  0  0
  1  8  2  0  0  0  0
  2 12  1  1  0  0  0
  2  1  1  0  0  0  0
  3 11  1  0  0  0  0
  4  2  1  0  0  0  0
  5  4  1  0  0  0  0
  6  7  1  6  0  0  0
  6  3  1  0  0  0  0
  6  1  1  0  0  0  0
  7  4  2  0  0  0  0
  8 10  1  0  0  0  0
  9  3  1  0  0  0  0
 11 10  2  0  0  0  0
 12 15  1  0  0  0  0
 13 15  2  0  0  0  0
 14 18  1  0  0  0  0
 15 14  1  0  0  0  0
 16 17  2  0  0  0  0
 17 19  1  0  0  0  0
 18 17  1  0  0  0  0
 19 20  1  0  0  0  0
 20 24  1  0  0  0  0
 22 24  2  0  0  0  0
 24 21  1  0  0  0  0
 24 23  1  0  0  0  0
 25  5  1  0  0  0  0
 26 25  1  0  0  0  0
 27 26  1  0  0  0  0
 28 27  1  0  0  0  0
 29 28  1  0  0  0  0
 30 29  2  0  0  0  0
 32 31  1  6  0  0  0
 32 30  1  0  0  0  0
 33 32  1  0  0  0  0
 33 34  1  0  0  0  0
 35 34  1  0  0  0  0
M  END
>  <MODEL>
9

>  <REMARK>
 VINA RESULT:      -5.9      4.875     10.821
  Name = 
  15 active torsions:
  status: ('A' for Active; 'I' for Inactive)
    1  A    between atoms: C_1  and  C_14
    2  A    between atoms: C_1  and  C_32
    3  A    between atoms: C_5  and  C_22
    4  A    between atoms: C_6  and  C_31
    5  A    between atoms: C_7  and  C_16
    6  A    between atoms: C_7  and  C_27
    7  A    between atoms: N_12  and  C_32
    8  A    between atoms: C_14  and  C_16
    9  A    between atoms: C_18  and  C_28
   10  A    between atoms: C_22  and  C_30
   11  A    between atoms: N_25  and  N_26
   12  A    between atoms: C_27  and  C_29
   13  A    between atoms: C_28  and  C_34
   14  A    between atoms: C_29  and  C_31
   15  A    between atoms: C_34  and  P_35
                            x       y       z     vdW  Elec       q    Type
                         _______ _______ _______ _____ _____    ______ ____

>  <TORSDO>
F 15

$$$$
