=
 OpenBabel11052411343D

 46 50  0  0  1  0  0  0  0  0999 V2000
  161.4470  206.9590  152.3220 C   0  0  0  0  0  0  0  0  0  0  0  0
  161.0650  207.2260  153.7560 C   0  0  0  0  0  2  0  0  0  0  0  0
  161.4410  209.4040  151.8050 C   0  0  0  0  0  2  0  0  0  0  0  0
  161.5050  209.6440  153.3090 C   0  0  2  0  0  3  0  0  0  0  0  0
  161.6880  207.9620  151.4650 C   0  0  0  0  0  3  0  0  0  0  0  0
  160.5710  208.6540  153.9950 C   0  0  0  0  0  2  0  0  0  0  0  0
  161.6720  205.6000  151.9290 N   0  0  0  0  0  2  0  0  0  0  0  0
  160.7410  203.3620  151.8410 C   0  0  0  0  0  2  0  0  0  0  0  0
  160.6570  204.7710  151.2950 C   0  0  2  0  0  3  0  0  0  0  0  0
  161.3330  203.6850  150.4850 C   0  0  2  0  0  3  0  0  0  0  0  0
  160.4250  203.2410  149.4430 N   0  0  0  0  0  2  0  0  0  0  0  0
  161.0090  202.1150  148.8400 N   0  0  0  0  0  0  0  0  0  0  0  0
  159.9850  201.2790  148.5320 O   0  0  0  0  0  1  0  0  0  0  0  0
  160.6500  202.3500  146.4230 C   0  0  0  0  0  2  0  0  0  0  0  0
  161.8900  204.0470  147.6010 C   0  0  0  0  0  2  0  0  0  0  0  0
  161.6220  204.5670  146.1950 C   0  0  1  0  0  0  0  0  0  0  0  0
  161.6100  202.5520  147.5800 C   0  0  1  0  0  3  0  0  0  0  0  0
  161.0200  203.4070  145.4060 C   0  0  0  0  0  2  0  0  0  0  0  0
  160.6610  205.7240  146.2790 C   0  0  0  0  0  0  0  0  0  0  0  0
  160.0150  206.0940  145.2600 O   0  0  0  0  0  0  0  0  0  0  0  0
  160.4270  206.3420  147.5070 O   0  0  0  0  0  0  0  0  0  0  0  0
  161.2680  207.2730  147.9780 O   0  0  0  0  0  1  0  0  0  0  0  0
  164.0380  204.6270  146.2780 O   0  0  0  0  0  1  0  0  0  0  0  0
  162.9230  205.0190  145.5320 C   0  0  0  0  0  2  0  0  0  0  0  0
  161.0750  211.0670  153.6050 C   0  0  0  0  0  2  0  0  0  0  0  0
  159.7060  211.0810  154.2740 C   0  0  0  0  0  2  0  0  0  0  0  0
  158.7180  212.0120  153.5580 C   0  0  1  0  0  3  0  0  0  0  0  0
  156.2720  214.2550  155.6130 C   0  0  0  0  0  2  0  0  0  0  0  0
  159.0630  213.2230  155.7410 C   0  0  0  0  0  2  0  0  0  0  0  0
  158.7240  214.4530  156.5660 C   0  0  0  0  0  2  0  0  0  0  0  0
  156.7390  213.0460  154.8120 C   0  0  2  0  0  3  0  0  0  0  0  0
  157.0520  214.2810  157.2580 S   0  0  0  0  0  0  0  0  0  0  0  0
  158.2330  213.1740  154.4530 C   0  0  2  0  0  3  0  0  0  0  0  0
  155.9560  212.9640  153.6760 F   0  0  0  0  0  0  0  0  0  0  0  0
  159.3480  212.5150  152.2610 C   0  0  0  0  0  2  0  0  0  0  0  0
  159.0200  213.9840  152.0030 C   0  0  0  0  0  2  0  0  0  0  0  0
  158.2610  214.2370  150.6960 C   0  0  2  0  0  3  0  0  0  0  0  0
  156.9260  213.8560  150.8200 O   0  0  0  0  0  1  0  0  0  0  0  0
  158.8950  213.5400  149.4960 C   0  0  0  0  0  2  0  0  0  0  0  0
  157.9460  213.4850  148.2980 C   0  0  0  0  0  2  0  0  0  0  0  0
  158.7360  212.7680  144.5760 C   0  0  0  0  0  2  0  0  0  0  0  0
  160.7900  213.2230  145.6780 C   0  0  0  0  0  2  0  0  0  0  0  0
  160.1060  212.2950  144.7790 N   0  0  0  0  0  2  0  0  0  0  0  0
  158.6590  213.5490  146.9460 C   0  0  0  0  0  3  0  0  0  0  0  0
  157.9600  212.6950  145.8870 C   0  0  0  0  0  2  0  0  0  0  0  0
  160.1430  213.1880  147.0610 C   0  0  0  0  0  2  0  0  0  0  0  0
  1  2  1  0  0  0  0
  2  6  1  0  0  0  0
  3  4  1  0  0  0  0
  4 25  1  6  0  0  0
  4  6  1  0  0  0  0
  5  3  1  0  0  0  0
  5  1  2  0  0  0  0
  7  1  1  0  0  0  0
  9  8  1  0  0  0  0
  9  7  1  1  0  0  0
 10 11  1  6  0  0  0
 10  9  1  0  0  0  0
 10  8  1  0  0  0  0
 12 11  1  0  0  0  0
 13 12  1  0  0  0  0
 14 17  1  0  0  0  0
 16 24  1  6  0  0  0
 16 19  1  0  0  0  0
 16 15  1  0  0  0  0
 17 15  1  0  0  0  0
 17 12  1  1  0  0  0
 18 16  1  0  0  0  0
 18 14  1  0  0  0  0
 19 21  1  0  0  0  0
 20 19  2  0  0  0  0
 21 22  1  0  0  0  0
 24 23  1  0  0  0  0
 25 26  1  0  0  0  0
 27 35  1  6  0  0  0
 27 26  1  0  0  0  0
 28 32  1  0  0  0  0
 29 30  1  0  0  0  0
 30 32  1  0  0  0  0
 31 34  1  6  0  0  0
 31 28  1  0  0  0  0
 33 27  1  6  0  0  0
 33 31  1  0  0  0  0
 33 29  1  0  0  0  0
 36 35  1  0  0  0  0
 37 38  1  1  0  0  0
 37 36  1  0  0  0  0
 39 37  1  0  0  0  0
 40 39  1  0  0  0  0
 41 43  1  0  0  0  0
 41 45  1  0  0  0  0
 42 46  1  0  0  0  0
 43 42  1  0  0  0  0
 44 46  1  0  0  0  0
 44 40  1  0  0  0  0
 45 44  1  0  0  0  0
M  END
>  <MODEL>
1

>  <REMARK>
 VINA RESULT:      -7.0      0.000      0.000
  Name = 
  18 active torsions:
  status: ('A' for Active; 'I' for Inactive)
    1  A    between atoms: N_1  and  N_11
    2  A    between atoms: N_1  and  C_33
    3  A    between atoms: C_3  and  N_44
    4  A    between atoms: N_11  and  C_20
    5  A    between atoms: C_12  and  C_21
    6  A    between atoms: C_12  and  C_30
    7  A    between atoms: C_14  and  C_23
    8  A    between atoms: C_14  and  C_29
    9  A    between atoms: C_14  and  C_32
   10  A    between atoms: O_17  and  C_21
   11  A    between atoms: C_18  and  N_44
   12  A    between atoms: C_19  and  C_23
   13  A    between atoms: C_19  and  C_27
   14  A    between atoms: C_27  and  C_28
   15  A    between atoms: C_28  and  C_42
   16  A    between atoms: C_29  and  C_37
   17  A    between atoms: C_31  and  C_37
   18  A    between atoms: C_40  and  C_42
                            x       y       z     vdW  Elec       q    Type
                         _______ _______ _______ _____ _____    ______ ____

>  <TORSDO>
F 18

$$$$
=
 OpenBabel11052411343D

 46 50  0  0  1  0  0  0  0  0999 V2000
  161.6960  213.4180  146.7750 C   0  0  0  0  0  0  0  0  0  0  0  0
  160.5440  213.4570  147.7470 C   0  0  0  0  0  2  0  0  0  0  0  0
  163.0330  211.9880  148.3300 C   0  0  0  0  0  2  0  0  0  0  0  0
  161.7260  211.6830  149.0500 C   0  0  2  0  0  3  0  0  0  0  0  0
  162.7930  212.6840  147.0210 C   0  0  0  0  0  3  0  0  0  0  0  0
  160.9180  212.9720  149.1490 C   0  0  0  0  0  2  0  0  0  0  0  0
  161.5380  214.0850  145.5180 N   0  0  0  0  0  2  0  0  0  0  0  0
  160.3880  212.1890  144.5350 C   0  0  0  0  0  2  0  0  0  0  0  0
  160.5520  213.6940  144.5220 C   0  0  2  0  0  3  0  0  0  0  0  0
  161.2220  212.8510  143.4580 C   0  0  2  0  0  3  0  0  0  0  0  0
  160.4480  212.9370  142.2320 N   0  0  0  0  0  2  0  0  0  0  0  0
  161.3410  212.7400  141.1660 N   0  0  0  0  0  0  0  0  0  0  0  0
  162.1110  211.6780  141.5120 O   0  0  0  0  0  1  0  0  0  0  0  0
  161.3470  212.5330  138.7200 C   0  0  0  0  0  2  0  0  0  0  0  0
  160.2220  210.8620  140.0410 C   0  0  0  0  0  2  0  0  0  0  0  0
  160.2700  210.3560  138.6050 C   0  0  1  0  0  0  0  0  0  0  0  0
  160.5520  212.3460  139.9990 C   0  0  1  0  0  3  0  0  0  0  0  0
  160.7980  211.5080  137.7530 C   0  0  0  0  0  2  0  0  0  0  0  0
  161.1890  209.1650  138.5390 C   0  0  0  0  0  0  0  0  0  0  0  0
  161.9890  209.0270  137.5720 O   0  0  0  0  0  0  0  0  0  0  0  0
  161.2110  208.2480  139.5890 O   0  0  0  0  0  0  0  0  0  0  0  0
  162.2130  207.3670  139.7110 O   0  0  0  0  0  1  0  0  0  0  0  0
  157.9730  209.8800  139.1950 O   0  0  0  0  0  1  0  0  0  0  0  0
  158.8720  209.9620  138.1270 C   0  0  0  0  0  2  0  0  0  0  0  0
  162.0330  211.1460  150.4350 C   0  0  0  0  0  2  0  0  0  0  0  0
  161.7770  209.6450  150.4920 C   0  0  0  0  0  2  0  0  0  0  0  0
  161.8390  209.0990  151.9240 C   0  0  1  0  0  3  0  0  0  0  0  0
  159.7410  211.4810  154.1980 C   0  0  0  0  0  2  0  0  0  0  0  0
  162.2000  209.8020  154.3170 C   0  0  0  0  0  2  0  0  0  0  0  0
  162.0530  210.9190  155.3370 C   0  0  0  0  0  2  0  0  0  0  0  0
  160.0130  210.3490  153.2140 C   0  0  2  0  0  3  0  0  0  0  0  0
  160.3180  211.0390  155.8670 S   0  0  0  0  0  0  0  0  0  0  0  0
  161.5280  210.1730  152.9900 C   0  0  2  0  0  3  0  0  0  0  0  0
  159.3630  210.6520  152.0320 F   0  0  0  0  0  0  0  0  0  0  0  0
  160.9120  207.8900  152.0450 C   0  0  0  0  0  2  0  0  0  0  0  0
  161.6910  206.5760  152.0570 C   0  0  0  0  0  2  0  0  0  0  0  0
  160.9450  205.3990  151.4200 C   0  0  2  0  0  3  0  0  0  0  0  0
  160.9620  204.2900  152.2640 O   0  0  0  0  0  1  0  0  0  0  0  0
  161.4940  205.0220  150.0470 C   0  0  0  0  0  2  0  0  0  0  0  0
  160.8680  205.8590  148.9310 C   0  0  0  0  0  2  0  0  0  0  0  0
  161.1030  205.7810  145.0660 C   0  0  0  0  0  2  0  0  0  0  0  0
  161.8010  203.6610  145.8780 C   0  0  0  0  0  2  0  0  0  0  0  0
  160.9340  204.3360  144.9130 N   0  0  0  0  0  2  0  0  0  0  0  0
  161.3620  205.4850  147.5310 C   0  0  0  0  0  3  0  0  0  0  0  0
  160.5930  206.2230  146.4350 C   0  0  0  0  0  2  0  0  0  0  0  0
  161.3440  203.9720  147.3020 C   0  0  0  0  0  2  0  0  0  0  0  0
  1  5  2  0  0  0  0
  1  2  1  0  0  0  0
  2  6  1  0  0  0  0
  3  4  1  0  0  0  0
  4  6  1  0  0  0  0
  4 25  1  1  0  0  0
  5  3  1  0  0  0  0
  7  1  1  0  0  0  0
  9  8  1  0  0  0  0
  9  7  1  1  0  0  0
 10 11  1  6  0  0  0
 10  9  1  0  0  0  0
 10  8  1  0  0  0  0
 12 13  1  0  0  0  0
 12 11  1  0  0  0  0
 14 17  1  0  0  0  0
 16 24  1  6  0  0  0
 16 15  1  0  0  0  0
 17 15  1  0  0  0  0
 17 12  1  1  0  0  0
 18 16  1  0  0  0  0
 18 14  1  0  0  0  0
 19 16  1  0  0  0  0
 19 21  1  0  0  0  0
 20 19  2  0  0  0  0
 21 22  1  0  0  0  0
 24 23  1  0  0  0  0
 25 26  1  0  0  0  0
 27 26  1  6  0  0  0
 27 35  1  0  0  0  0
 28 32  1  0  0  0  0
 29 30  1  0  0  0  0
 30 32  1  0  0  0  0
 31 34  1  6  0  0  0
 31 28  1  0  0  0  0
 33 27  1  6  0  0  0
 33 31  1  0  0  0  0
 33 29  1  0  0  0  0
 35 36  1  0  0  0  0
 37 36  1  0  0  0  0
 37 38  1  1  0  0  0
 39 37  1  0  0  0  0
 40 39  1  0  0  0  0
 41 45  1  0  0  0  0
 42 46  1  0  0  0  0
 43 41  1  0  0  0  0
 43 42  1  0  0  0  0
 44 40  1  0  0  0  0
 45 44  1  0  0  0  0
 46 44  1  0  0  0  0
M  END
>  <MODEL>
2

>  <REMARK>
 VINA RESULT:      -6.6      3.992      8.657
  Name = 
  18 active torsions:
  status: ('A' for Active; 'I' for Inactive)
    1  A    between atoms: N_1  and  N_11
    2  A    between atoms: N_1  and  C_33
    3  A    between atoms: C_3  and  N_44
    4  A    between atoms: N_11  and  C_20
    5  A    between atoms: C_12  and  C_21
    6  A    between atoms: C_12  and  C_30
    7  A    between atoms: C_14  and  C_23
    8  A    between atoms: C_14  and  C_29
    9  A    between atoms: C_14  and  C_32
   10  A    between atoms: O_17  and  C_21
   11  A    between atoms: C_18  and  N_44
   12  A    between atoms: C_19  and  C_23
   13  A    between atoms: C_19  and  C_27
   14  A    between atoms: C_27  and  C_28
   15  A    between atoms: C_28  and  C_42
   16  A    between atoms: C_29  and  C_37
   17  A    between atoms: C_31  and  C_37
   18  A    between atoms: C_40  and  C_42
                            x       y       z     vdW  Elec       q    Type
                         _______ _______ _______ _____ _____    ______ ____

>  <TORSDO>
F 18

$$$$
=
 OpenBabel11052411343D

 46 50  0  0  1  0  0  0  0  0999 V2000
  161.6030  211.4920  148.9340 C   0  0  0  0  0  0  0  0  0  0  0  0
  161.7670  211.3830  150.4290 C   0  0  0  0  0  2  0  0  0  0  0  0
  162.1180  209.0630  148.6440 C   0  0  0  0  0  2  0  0  0  0  0  0
  161.8320  208.9040  150.1320 C   0  0  2  0  0  3  0  0  0  0  0  0
  161.6920  210.4130  148.1410 C   0  0  0  0  0  3  0  0  0  0  0  0
  162.4480  210.0860  150.8700 C   0  0  0  0  0  2  0  0  0  0  0  0
  161.2220  212.7610  148.3900 N   0  0  0  0  0  2  0  0  0  0  0  0
  161.8770  214.4530  146.7810 C   0  0  0  0  0  2  0  0  0  0  0  0
  161.2830  213.0740  146.9700 C   0  0  2  0  0  3  0  0  0  0  0  0
  160.3790  214.2540  146.6790 C   0  0  2  0  0  3  0  0  0  0  0  0
  159.9910  214.2160  145.2800 N   0  0  0  0  0  2  0  0  0  0  0  0
  160.5430  213.0470  144.7310 N   0  0  0  0  0  0  0  0  0  0  0  0
  159.4980  212.2170  144.4850 O   0  0  0  0  0  1  0  0  0  0  0  0
  162.3880  212.5930  143.1770 C   0  0  0  0  0  2  0  0  0  0  0  0
  160.1920  213.0510  142.2980 C   0  0  0  0  0  2  0  0  0  0  0  0
  161.0600  212.5760  141.1400 C   0  0  1  0  0  0  0  0  0  0  0  0
  161.1320  213.4030  143.4400 C   0  0  1  0  0  3  0  0  0  0  0  0
  162.4880  212.4890  141.6710 C   0  0  0  0  0  2  0  0  0  0  0  0
  160.5660  211.2290  140.6820 C   0  0  0  0  0  0  0  0  0  0  0  0
  159.4000  211.1010  140.2140 O   0  0  0  0  0  0  0  0  0  0  0  0
  161.4250  210.1320  140.7040 O   0  0  0  0  0  0  0  0  0  0  0  0
  161.8920  209.6020  139.5650 O   0  0  0  0  0  1  0  0  0  0  0  0
  161.9000  213.2260  138.9670 O   0  0  0  0  0  1  0  0  0  0  0  0
  161.0020  213.5720  139.9820 C   0  0  0  0  0  2  0  0  0  0  0  0
  162.4400  207.6030  150.6200 C   0  0  0  0  0  2  0  0  0  0  0  0
  161.8280  206.4200  149.8800 C   0  0  0  0  0  2  0  0  0  0  0  0
  160.9570  205.5490  150.7950 C   0  0  1  0  0  3  0  0  0  0  0  0
  160.7790  202.6900  148.1420 C   0  0  0  0  0  2  0  0  0  0  0  0
  161.1900  203.0550  151.0700 C   0  0  0  0  0  2  0  0  0  0  0  0
  160.7430  201.6870  150.5810 C   0  0  0  0  0  2  0  0  0  0  0  0
  161.2010  204.0210  148.7540 C   0  0  2  0  0  3  0  0  0  0  0  0
  161.5710  201.3000  149.0100 S   0  0  0  0  0  0  0  0  0  0  0  0
  160.6310  204.1700  150.1790 C   0  0  2  0  0  3  0  0  0  0  0  0
  160.7470  205.0300  147.9250 F   0  0  0  0  0  0  0  0  0  0  0  0
  161.6320  205.4190  152.1600 C   0  0  0  0  0  2  0  0  0  0  0  0
  160.6780  205.7690  153.3000 C   0  0  0  0  0  2  0  0  0  0  0  0
  161.1750  206.8990  154.2090 C   0  0  2  0  0  3  0  0  0  0  0  0
  160.5900  206.8090  155.4700 O   0  0  0  0  0  1  0  0  0  0  0  0
  160.9370  208.2850  153.6170 C   0  0  0  0  0  2  0  0  0  0  0  0
  161.1640  209.3940  154.6460 C   0  0  0  0  0  2  0  0  0  0  0  0
  158.3160  211.9170  155.3640 C   0  0  0  0  0  2  0  0  0  0  0  0
  158.5830  211.7770  153.0090 C   0  0  0  0  0  2  0  0  0  0  0  0
  157.6070  211.7410  154.0970 N   0  0  0  0  0  2  0  0  0  0  0  0
  160.2370  210.5970  154.4680 C   0  0  0  0  0  3  0  0  0  0  0  0
  159.2360  210.7260  155.6170 C   0  0  0  0  0  2  0  0  0  0  0  0
  159.5280  210.5810  153.1110 C   0  0  0  0  0  2  0  0  0  0  0  0
  1  2  1  0  0  0  0
  2  6  1  0  0  0  0
  3  4  1  0  0  0  0
  4 25  1  1  0  0  0
  4  6  1  0  0  0  0
  5  3  1  0  0  0  0
  5  1  2  0  0  0  0
  7  1  1  0  0  0  0
  8  9  1  0  0  0  0
  9  7  1  1  0  0  0
 10 11  1  6  0  0  0
 10  8  1  0  0  0  0
 10  9  1  0  0  0  0
 12 11  1  0  0  0  0
 13 12  1  0  0  0  0
 14 17  1  0  0  0  0
 15 17  1  0  0  0  0
 16 24  1  6  0  0  0
 16 18  1  0  0  0  0
 16 15  1  0  0  0  0
 17 12  1  1  0  0  0
 18 14  1  0  0  0  0
 19 21  1  0  0  0  0
 19 16  1  0  0  0  0
 20 19  2  0  0  0  0
 22 21  1  0  0  0  0
 23 24  1  0  0  0  0
 26 25  1  0  0  0  0
 27 26  1  6  0  0  0
 27 35  1  0  0  0  0
 28 31  1  0  0  0  0
 28 32  1  0  0  0  0
 30 29  1  0  0  0  0
 31 34  1  6  0  0  0
 31 33  1  0  0  0  0
 32 30  1  0  0  0  0
 33 27  1  1  0  0  0
 33 29  1  0  0  0  0
 35 36  1  0  0  0  0
 36 37  1  0  0  0  0
 37 38  1  1  0  0  0
 39 37  1  0  0  0  0
 39 40  1  0  0  0  0
 41 45  1  0  0  0  0
 42 46  1  0  0  0  0
 42 43  1  0  0  0  0
 43 41  1  0  0  0  0
 44 40  1  0  0  0  0
 44 45  1  0  0  0  0
 46 44  1  0  0  0  0
M  END
>  <MODEL>
3

>  <REMARK>
 VINA RESULT:      -6.4      4.909      9.521
  Name = 
  18 active torsions:
  status: ('A' for Active; 'I' for Inactive)
    1  A    between atoms: N_1  and  N_11
    2  A    between atoms: N_1  and  C_33
    3  A    between atoms: C_3  and  N_44
    4  A    between atoms: N_11  and  C_20
    5  A    between atoms: C_12  and  C_21
    6  A    between atoms: C_12  and  C_30
    7  A    between atoms: C_14  and  C_23
    8  A    between atoms: C_14  and  C_29
    9  A    between atoms: C_14  and  C_32
   10  A    between atoms: O_17  and  C_21
   11  A    between atoms: C_18  and  N_44
   12  A    between atoms: C_19  and  C_23
   13  A    between atoms: C_19  and  C_27
   14  A    between atoms: C_27  and  C_28
   15  A    between atoms: C_28  and  C_42
   16  A    between atoms: C_29  and  C_37
   17  A    between atoms: C_31  and  C_37
   18  A    between atoms: C_40  and  C_42
                            x       y       z     vdW  Elec       q    Type
                         _______ _______ _______ _____ _____    ______ ____

>  <TORSDO>
F 18

$$$$
=
 OpenBabel11052411343D

 46 50  0  0  1  0  0  0  0  0999 V2000
  161.2850  204.9080  151.3040 C   0  0  0  0  0  0  0  0  0  0  0  0
  161.5790  205.2120  152.7510 C   0  0  0  0  0  2  0  0  0  0  0  0
  160.9870  207.3370  150.7950 C   0  0  0  0  0  2  0  0  0  0  0  0
  161.7120  207.6210  152.1040 C   0  0  2  0  0  3  0  0  0  0  0  0
  161.0910  205.8880  150.4090 C   0  0  0  0  0  3  0  0  0  0  0  0
  161.2090  206.6400  153.1560 C   0  0  0  0  0  2  0  0  0  0  0  0
  161.3440  203.5410  150.8800 N   0  0  0  0  0  2  0  0  0  0  0  0
  160.2630  201.4790  150.1990 C   0  0  0  0  0  2  0  0  0  0  0  0
  160.4150  202.9590  149.9220 C   0  0  2  0  0  3  0  0  0  0  0  0
  161.1480  201.9500  149.0640 C   0  0  2  0  0  3  0  0  0  0  0  0
  160.4400  201.8000  147.8050 N   0  0  0  0  0  2  0  0  0  0  0  0
  161.3740  201.3450  146.8590 N   0  0  0  0  0  0  0  0  0  0  0  0
  160.8610  200.2000  146.3440 O   0  0  0  0  0  1  0  0  0  0  0  0
  160.0230  202.8010  145.4170 C   0  0  0  0  0  2  0  0  0  0  0  0
  162.1570  203.5850  146.2140 C   0  0  0  0  0  2  0  0  0  0  0  0
  161.4510  204.7640  145.5590 C   0  0  1  0  0  0  0  0  0  0  0  0
  161.4190  202.3290  145.7770 C   0  0  1  0  0  3  0  0  0  0  0  0
  160.2010  204.2060  144.8840 C   0  0  0  0  0  2  0  0  0  0  0  0
  161.0920  205.7690  146.6220 C   0  0  0  0  0  0  0  0  0  0  0  0
  159.8910  206.1160  146.7960 O   0  0  0  0  0  0  0  0  0  0  0  0
  162.0830  206.2640  147.4700 O   0  0  0  0  0  0  0  0  0  0  0  0
  162.3580  207.5740  147.5130 O   0  0  0  0  0  1  0  0  0  0  0  0
  161.6030  205.9900  143.4790 O   0  0  0  0  0  1  0  0  0  0  0  0
  162.3530  205.4160  144.5100 C   0  0  0  0  0  2  0  0  0  0  0  0
  161.4250  209.0470  152.5320 C   0  0  0  0  0  2  0  0  0  0  0  0
  160.5400  209.0620  153.7730 C   0  0  0  0  0  2  0  0  0  0  0  0
  159.6240  210.2920  153.8190 C   0  0  1  0  0  3  0  0  0  0  0  0
  160.4350  212.3160  157.0590 C   0  0  0  0  0  2  0  0  0  0  0  0
  158.0980  211.5620  155.3710 C   0  0  0  0  0  2  0  0  0  0  0  0
  157.8300  211.9850  156.8060 C   0  0  0  0  0  2  0  0  0  0  0  0
  160.5790  211.8500  155.6140 C   0  0  2  0  0  3  0  0  0  0  0  0
  158.9470  213.3460  157.2600 S   0  0  0  0  0  0  0  0  0  0  0  0
  159.4550  210.8610  155.2460 C   0  0  2  0  0  3  0  0  0  0  0  0
  161.8250  211.2660  155.4820 F   0  0  0  0  0  0  0  0  0  0  0  0
  160.1440  211.3460  152.8430 C   0  0  0  0  0  2  0  0  0  0  0  0
  159.0140  211.9680  152.0250 C   0  0  0  0  0  2  0  0  0  0  0  0
  159.4030  213.2610  151.2990 C   0  0  2  0  0  3  0  0  0  0  0  0
  159.3480  214.3480  152.1690 O   0  0  0  0  0  1  0  0  0  0  0  0
  158.5460  213.5310  150.0670 C   0  0  0  0  0  2  0  0  0  0  0  0
  159.3130  214.3080  148.9960 C   0  0  0  0  0  2  0  0  0  0  0  0
  162.2390  212.0000  147.9430 C   0  0  0  0  0  2  0  0  0  0  0  0
  161.5830  213.2540  146.0360 C   0  0  0  0  0  2  0  0  0  0  0  0
  162.7270  212.8320  146.8440 N   0  0  0  0  0  2  0  0  0  0  0  0
  160.1970  213.4270  148.1110 C   0  0  0  0  0  3  0  0  0  0  0  0
  161.3750  212.8350  148.8850 C   0  0  0  0  0  2  0  0  0  0  0  0
  160.6700  214.1640  146.8550 C   0  0  0  0  0  2  0  0  0  0  0  0
  1  2  1  0  0  0  0
  2  6  1  0  0  0  0
  3  4  1  0  0  0  0
  4 25  1  1  0  0  0
  4  6  1  0  0  0  0
  5  3  1  0  0  0  0
  5  1  2  0  0  0  0
  7  1  1  0  0  0  0
  9  8  1  0  0  0  0
  9  7  1  1  0  0  0
 10 11  1  6  0  0  0
 10  9  1  0  0  0  0
 10  8  1  0  0  0  0
 12 11  1  0  0  0  0
 13 12  1  0  0  0  0
 14 17  1  0  0  0  0
 16 24  1  6  0  0  0
 16 15  1  0  0  0  0
 16 19  1  0  0  0  0
 17 15  1  0  0  0  0
 17 12  1  1  0  0  0
 18 14  1  0  0  0  0
 18 16  1  0  0  0  0
 19 20  2  0  0  0  0
 19 21  1  0  0  0  0
 21 22  1  0  0  0  0
 23 24  1  0  0  0  0
 25 26  1  0  0  0  0
 26 27  1  0  0  0  0
 27 35  1  6  0  0  0
 28 32  1  0  0  0  0
 29 30  1  0  0  0  0
 30 32  1  0  0  0  0
 31 34  1  1  0  0  0
 31 28  1  0  0  0  0
 33 27  1  6  0  0  0
 33 29  1  0  0  0  0
 33 31  1  0  0  0  0
 36 35  1  0  0  0  0
 37 36  1  0  0  0  0
 37 38  1  1  0  0  0
 39 37  1  0  0  0  0
 40 39  1  0  0  0  0
 41 45  1  0  0  0  0
 42 43  1  0  0  0  0
 42 46  1  0  0  0  0
 43 41  1  0  0  0  0
 44 45  1  0  0  0  0
 44 40  1  0  0  0  0
 46 44  1  0  0  0  0
M  END
>  <MODEL>
4

>  <REMARK>
 VINA RESULT:      -6.1      1.962      2.572
  Name = 
  18 active torsions:
  status: ('A' for Active; 'I' for Inactive)
    1  A    between atoms: N_1  and  N_11
    2  A    between atoms: N_1  and  C_33
    3  A    between atoms: C_3  and  N_44
    4  A    between atoms: N_11  and  C_20
    5  A    between atoms: C_12  and  C_21
    6  A    between atoms: C_12  and  C_30
    7  A    between atoms: C_14  and  C_23
    8  A    between atoms: C_14  and  C_29
    9  A    between atoms: C_14  and  C_32
   10  A    between atoms: O_17  and  C_21
   11  A    between atoms: C_18  and  N_44
   12  A    between atoms: C_19  and  C_23
   13  A    between atoms: C_19  and  C_27
   14  A    between atoms: C_27  and  C_28
   15  A    between atoms: C_28  and  C_42
   16  A    between atoms: C_29  and  C_37
   17  A    between atoms: C_31  and  C_37
   18  A    between atoms: C_40  and  C_42
                            x       y       z     vdW  Elec       q    Type
                         _______ _______ _______ _____ _____    ______ ____

>  <TORSDO>
F 18

$$$$
=
 OpenBabel11052411343D

 46 50  0  0  1  0  0  0  0  0999 V2000
  161.0480  206.8310  154.2780 C   0  0  0  0  0  0  0  0  0  0  0  0
  161.1590  205.3280  154.2270 C   0  0  0  0  0  2  0  0  0  0  0  0
  161.2100  206.9840  151.7890 C   0  0  0  0  0  2  0  0  0  0  0  0
  160.8680  205.5000  151.7520 C   0  0  2  0  0  3  0  0  0  0  0  0
  160.9980  207.5660  153.1570 C   0  0  0  0  0  3  0  0  0  0  0  0
  161.6320  204.8020  152.8710 C   0  0  0  0  0  2  0  0  0  0  0  0
  160.8700  207.4480  155.5580 N   0  0  0  0  0  2  0  0  0  0  0  0
  160.5850  209.3380  157.0520 C   0  0  0  0  0  2  0  0  0  0  0  0
  161.3660  208.7780  155.8820 C   0  0  2  0  0  3  0  0  0  0  0  0
  160.2690  209.7930  155.6410 C   0  0  2  0  0  3  0  0  0  0  0  0
  160.8740  211.0930  155.4060 N   0  0  0  0  0  2  0  0  0  0  0  0
  160.0640  211.7610  154.4740 N   0  0  0  0  0  0  0  0  0  0  0  0
  159.5250  210.7990  153.6850 O   0  0  0  0  0  1  0  0  0  0  0  0
  159.1410  213.8920  155.2710 C   0  0  0  0  0  2  0  0  0  0  0  0
  157.6400  212.1720  154.5000 C   0  0  0  0  0  2  0  0  0  0  0  0
  156.8220  213.4410  154.6980 C   0  0  1  0  0  0  0  0  0  0  0  0
  158.9670  212.3860  155.2130 C   0  0  1  0  0  3  0  0  0  0  0  0
  157.7410  214.4530  155.3770 C   0  0  0  0  0  2  0  0  0  0  0  0
  156.3620  213.9390  153.3530 C   0  0  0  0  0  0  0  0  0  0  0  0
  157.1900  214.0970  152.4130 O   0  0  0  0  0  0  0  0  0  0  0  0
  155.0040  214.1540  153.1210 O   0  0  0  0  0  0  0  0  0  0  0  0
  154.5520  214.4180  151.8880 O   0  0  0  0  0  1  0  0  0  0  0  0
  155.5080  214.1130  156.6150 O   0  0  0  0  0  1  0  0  0  0  0  0
  155.6120  213.1650  155.5920 C   0  0  0  0  0  2  0  0  0  0  0  0
  161.2670  204.9300  150.4050 C   0  0  0  0  0  2  0  0  0  0  0  0
  160.5950  205.7060  149.2790 C   0  0  0  0  0  2  0  0  0  0  0  0
  161.6120  206.3830  148.3510 C   0  0  1  0  0  3  0  0  0  0  0  0
  161.6500  203.6120  145.6010 C   0  0  0  0  0  2  0  0  0  0  0  0
  160.5490  206.3410  146.0670 C   0  0  0  0  0  2  0  0  0  0  0  0
  160.6690  205.8610  144.6310 C   0  0  0  0  0  2  0  0  0  0  0  0
  161.5050  204.2140  146.9940 C   0  0  2  0  0  3  0  0  0  0  0  0
  160.2510  204.0940  144.5400 S   0  0  0  0  0  0  0  0  0  0  0  0
  161.6570  205.7470  146.9440 C   0  0  2  0  0  3  0  0  0  0  0  0
  162.4680  203.6410  147.8030 F   0  0  0  0  0  0  0  0  0  0  0  0
  161.3220  207.8820  148.2920 C   0  0  0  0  0  2  0  0  0  0  0  0
  162.5950  208.7130  148.4450 C   0  0  0  0  0  2  0  0  0  0  0  0
  162.4380  209.9380  149.3530 C   0  0  2  0  0  3  0  0  0  0  0  0
  161.2610  209.8540  150.0940 O   0  0  0  0  0  1  0  0  0  0  0  0
  162.4820  211.2550  148.5850 C   0  0  0  0  0  2  0  0  0  0  0  0
  161.3810  212.2170  149.0350 C   0  0  0  0  0  2  0  0  0  0  0  0
  159.2480  213.9020  146.2780 C   0  0  0  0  0  2  0  0  0  0  0  0
  161.5320  214.3340  145.7920 C   0  0  0  0  0  2  0  0  0  0  0  0
  160.2650  213.8680  145.2280 N   0  0  0  0  0  2  0  0  0  0  0  0
  160.9640  213.2200  147.9580 C   0  0  0  0  0  3  0  0  0  0  0  0
  159.5910  212.8930  147.3700 C   0  0  0  0  0  2  0  0  0  0  0  0
  162.0220  213.3580  146.8610 C   0  0  0  0  0  2  0  0  0  0  0  0
  1  7  1  0  0  0  0
  2  1  1  0  0  0  0
  3  5  1  0  0  0  0
  4 25  1  6  0  0  0
  4  3  1  0  0  0  0
  4  6  1  0  0  0  0
  5  1  2  0  0  0  0
  6  2  1  0  0  0  0
  9  7  1  6  0  0  0
  9  8  1  0  0  0  0
 10 11  1  1  0  0  0
 10  9  1  0  0  0  0
 10  8  1  0  0  0  0
 12 11  1  0  0  0  0
 13 12  1  0  0  0  0
 14 18  1  0  0  0  0
 15 16  1  0  0  0  0
 15 17  1  0  0  0  0
 16 18  1  0  0  0  0
 16 24  1  1  0  0  0
 17 12  1  6  0  0  0
 17 14  1  0  0  0  0
 19 16  1  0  0  0  0
 20 19  2  0  0  0  0
 21 19  1  0  0  0  0
 22 21  1  0  0  0  0
 24 23  1  0  0  0  0
 26 25  1  0  0  0  0
 27 35  1  6  0  0  0
 27 26  1  0  0  0  0
 28 31  1  0  0  0  0
 29 33  1  0  0  0  0
 30 29  1  0  0  0  0
 31 34  1  1  0  0  0
 32 30  1  0  0  0  0
 32 28  1  0  0  0  0
 33 31  1  0  0  0  0
 33 27  1  1  0  0  0
 35 36  1  0  0  0  0
 36 37  1  0  0  0  0
 37 38  1  6  0  0  0
 39 40  1  0  0  0  0
 39 37  1  0  0  0  0
 41 45  1  0  0  0  0
 42 46  1  0  0  0  0
 43 42  1  0  0  0  0
 43 41  1  0  0  0  0
 44 40  1  0  0  0  0
 45 44  1  0  0  0  0
 46 44  1  0  0  0  0
M  END
>  <MODEL>
5

>  <REMARK>
 VINA RESULT:      -6.0      4.390      9.554
  Name = 
  18 active torsions:
  status: ('A' for Active; 'I' for Inactive)
    1  A    between atoms: N_1  and  N_11
    2  A    between atoms: N_1  and  C_33
    3  A    between atoms: C_3  and  N_44
    4  A    between atoms: N_11  and  C_20
    5  A    between atoms: C_12  and  C_21
    6  A    between atoms: C_12  and  C_30
    7  A    between atoms: C_14  and  C_23
    8  A    between atoms: C_14  and  C_29
    9  A    between atoms: C_14  and  C_32
   10  A    between atoms: O_17  and  C_21
   11  A    between atoms: C_18  and  N_44
   12  A    between atoms: C_19  and  C_23
   13  A    between atoms: C_19  and  C_27
   14  A    between atoms: C_27  and  C_28
   15  A    between atoms: C_28  and  C_42
   16  A    between atoms: C_29  and  C_37
   17  A    between atoms: C_31  and  C_37
   18  A    between atoms: C_40  and  C_42
                            x       y       z     vdW  Elec       q    Type
                         _______ _______ _______ _____ _____    ______ ____

>  <TORSDO>
F 18

$$$$
=
 OpenBabel11052411343D

 46 50  0  0  1  0  0  0  0  0999 V2000
  161.7310  212.8530  148.0960 C   0  0  0  0  0  0  0  0  0  0  0  0
  160.6410  213.3940  148.9860 C   0  0  0  0  0  2  0  0  0  0  0  0
  162.2540  211.0440  149.7410 C   0  0  0  0  0  2  0  0  0  0  0  0
  160.8960  211.3300  150.3700 C   0  0  2  0  0  3  0  0  0  0  0  0
  162.4060  211.7380  148.4170 C   0  0  0  0  0  3  0  0  0  0  0  0
  160.6930  212.8400  150.4110 C   0  0  0  0  0  2  0  0  0  0  0  0
  161.9420  213.4880  146.8300 N   0  0  0  0  0  2  0  0  0  0  0  0
  160.2590  212.2580  145.5900 C   0  0  0  0  0  2  0  0  0  0  0  0
  160.9090  213.6070  145.8110 C   0  0  2  0  0  3  0  0  0  0  0  0
  161.2940  212.7690  144.6090 C   0  0  2  0  0  3  0  0  0  0  0  0
  160.6260  213.2990  143.4330 N   0  0  0  0  0  2  0  0  0  0  0  0
  161.4240  212.9740  142.3250 N   0  0  0  0  0  0  0  0  0  0  0  0
  162.6030  212.5290  142.8270 O   0  0  0  0  0  1  0  0  0  0  0  0
  159.7040  212.3310  140.6940 C   0  0  0  0  0  2  0  0  0  0  0  0
  161.7850  211.1180  140.7530 C   0  0  0  0  0  2  0  0  0  0  0  0
  161.0270  210.6700  139.5110 C   0  0  1  0  0  0  0  0  0  0  0  0
  160.7880  211.8480  141.6400 C   0  0  1  0  0  3  0  0  0  0  0  0
  159.6360  211.2900  139.5990 C   0  0  0  0  0  2  0  0  0  0  0  0
  161.7640  211.1550  138.2900 C   0  0  0  0  0  0  0  0  0  0  0  0
  161.1640  211.2680  137.1840 O   0  0  0  0  0  0  0  0  0  0  0  0
  163.0950  211.5540  138.3970 O   0  0  0  0  0  0  0  0  0  0  0  0
  163.5220  212.6850  137.8180 O   0  0  0  0  0  1  0  0  0  0  0  0
  161.9420  208.5720  138.7270 O   0  0  0  0  0  1  0  0  0  0  0  0
  160.9090  209.1460  139.4740 C   0  0  0  0  0  2  0  0  0  0  0  0
  160.8670  210.7560  151.7730 C   0  0  0  0  0  2  0  0  0  0  0  0
  160.4280  211.8180  152.7740 C   0  0  0  0  0  2  0  0  0  0  0  0
  160.0510  211.2160  154.1340 C   0  0  1  0  0  3  0  0  0  0  0  0
  158.0600  214.0950  155.8620 C   0  0  0  0  0  2  0  0  0  0  0  0
  157.6310  211.8810  153.9150 C   0  0  0  0  0  2  0  0  0  0  0  0
  156.4120  212.4490  154.6230 C   0  0  0  0  0  2  0  0  0  0  0  0
  159.2050  213.4270  155.1100 C   0  0  2  0  0  3  0  0  0  0  0  0
  156.5910  214.2500  154.7980 S   0  0  0  0  0  0  0  0  0  0  0  0
  158.8730  211.9520  154.8100 C   0  0  2  0  0  3  0  0  0  0  0  0
  160.3420  213.5360  155.8890 F   0  0  0  0  0  0  0  0  0  0  0  0
  159.7710  209.7230  153.9650 C   0  0  0  0  0  2  0  0  0  0  0  0
  160.7970  208.8660  154.7020 C   0  0  0  0  0  2  0  0  0  0  0  0
  160.4730  207.3680  154.7100 C   0  0  2  0  0  3  0  0  0  0  0  0
  160.4270  206.8820  156.0150 O   0  0  0  0  0  1  0  0  0  0  0  0
  161.4500  206.5440  153.8770 C   0  0  0  0  0  2  0  0  0  0  0  0
  161.1370  206.6240  152.3820 C   0  0  0  0  0  2  0  0  0  0  0  0
  161.1350  204.0250  149.5120 C   0  0  0  0  0  2  0  0  0  0  0  0
  161.1710  202.8350  151.5670 C   0  0  0  0  0  2  0  0  0  0  0  0
  160.5120  202.9370  150.2660 N   0  0  0  0  0  2  0  0  0  0  0  0
  161.4150  205.3240  151.6260 C   0  0  0  0  0  3  0  0  0  0  0  0
  160.8620  205.3590  150.2010 C   0  0  0  0  0  2  0  0  0  0  0  0
  160.9090  204.0960  152.3890 C   0  0  0  0  0  2  0  0  0  0  0  0
  1  5  2  0  0  0  0
  1  2  1  0  0  0  0
  2  6  1  0  0  0  0
  3  4  1  0  0  0  0
  4  6  1  0  0  0  0
  4 25  1  1  0  0  0
  5  3  1  0  0  0  0
  7  1  1  0  0  0  0
  8  9  1  0  0  0  0
  9  7  1  1  0  0  0
 10 11  1  6  0  0  0
 10  8  1  0  0  0  0
 10  9  1  0  0  0  0
 12 13  1  0  0  0  0
 12 11  1  0  0  0  0
 14 17  1  0  0  0  0
 15 17  1  0  0  0  0
 16 24  1  6  0  0  0
 16 18  1  0  0  0  0
 16 15  1  0  0  0  0
 17 12  1  6  0  0  0
 18 14  1  0  0  0  0
 19 21  1  0  0  0  0
 19 16  1  0  0  0  0
 20 19  2  0  0  0  0
 22 21  1  0  0  0  0
 23 24  1  0  0  0  0
 25 26  1  0  0  0  0
 27 26  1  6  0  0  0
 29 30  1  0  0  0  0
 29 33  1  0  0  0  0
 30 32  1  0  0  0  0
 31 28  1  0  0  0  0
 31 34  1  1  0  0  0
 32 28  1  0  0  0  0
 33 27  1  6  0  0  0
 33 31  1  0  0  0  0
 35 27  1  0  0  0  0
 35 36  1  0  0  0  0
 36 37  1  0  0  0  0
 37 38  1  1  0  0  0
 39 37  1  0  0  0  0
 40 39  1  0  0  0  0
 41 45  1  0  0  0  0
 41 43  1  0  0  0  0
 42 46  1  0  0  0  0
 43 42  1  0  0  0  0
 44 40  1  0  0  0  0
 44 46  1  0  0  0  0
 45 44  1  0  0  0  0
M  END
>  <MODEL>
6

>  <REMARK>
 VINA RESULT:      -5.8      4.132      8.437
  Name = 
  18 active torsions:
  status: ('A' for Active; 'I' for Inactive)
    1  A    between atoms: N_1  and  N_11
    2  A    between atoms: N_1  and  C_33
    3  A    between atoms: C_3  and  N_44
    4  A    between atoms: N_11  and  C_20
    5  A    between atoms: C_12  and  C_21
    6  A    between atoms: C_12  and  C_30
    7  A    between atoms: C_14  and  C_23
    8  A    between atoms: C_14  and  C_29
    9  A    between atoms: C_14  and  C_32
   10  A    between atoms: O_17  and  C_21
   11  A    between atoms: C_18  and  N_44
   12  A    between atoms: C_19  and  C_23
   13  A    between atoms: C_19  and  C_27
   14  A    between atoms: C_27  and  C_28
   15  A    between atoms: C_28  and  C_42
   16  A    between atoms: C_29  and  C_37
   17  A    between atoms: C_31  and  C_37
   18  A    between atoms: C_40  and  C_42
                            x       y       z     vdW  Elec       q    Type
                         _______ _______ _______ _____ _____    ______ ____

>  <TORSDO>
F 18

$$$$
=
 OpenBabel11052411343D

 46 50  0  0  1  0  0  0  0  0999 V2000
  161.2980  212.6540  149.3560 C   0  0  0  0  0  0  0  0  0  0  0  0
  160.2220  213.4820  150.0120 C   0  0  0  0  0  2  0  0  0  0  0  0
  161.1510  210.9300  151.1600 C   0  0  0  0  0  2  0  0  0  0  0  0
  159.8030  211.5390  151.5260 C   0  0  2  0  0  3  0  0  0  0  0  0
  161.6580  211.4590  149.8490 C   0  0  0  0  0  3  0  0  0  0  0  0
  159.9240  213.0570  151.4510 C   0  0  0  0  0  2  0  0  0  0  0  0
  161.8400  213.1190  148.1150 N   0  0  0  0  0  2  0  0  0  0  0  0
  160.1740  212.6600  146.4130 C   0  0  0  0  0  2  0  0  0  0  0  0
  161.0340  213.7220  147.0640 C   0  0  2  0  0  3  0  0  0  0  0  0
  161.4370  213.1370  145.7270 C   0  0  2  0  0  3  0  0  0  0  0  0
  161.0890  214.0800  144.6770 N   0  0  0  0  0  2  0  0  0  0  0  0
  162.0190  213.9020  143.6400 N   0  0  0  0  0  0  0  0  0  0  0  0
  162.3830  212.5960  143.6800 O   0  0  0  0  0  1  0  0  0  0  0  0
  162.2990  214.3160  141.2370 C   0  0  0  0  0  2  0  0  0  0  0  0
  160.5010  212.8980  141.9870 C   0  0  0  0  0  2  0  0  0  0  0  0
  160.5770  212.7790  140.4710 C   0  0  1  0  0  0  0  0  0  0  0  0
  161.3160  214.1220  142.3760 C   0  0  1  0  0  3  0  0  0  0  0  0
  161.5770  213.8320  139.9990 C   0  0  0  0  0  2  0  0  0  0  0  0
  161.0390  211.3910  140.1130 C   0  0  0  0  0  0  0  0  0  0  0  0
  161.9410  210.8230  140.7910 O   0  0  0  0  0  0  0  0  0  0  0  0
  160.4160  210.6990  139.0760 O   0  0  0  0  0  0  0  0  0  0  0  0
  161.0920  210.3690  137.9670 O   0  0  0  0  0  1  0  0  0  0  0  0
  158.1860  212.4260  140.5600 O   0  0  0  0  0  1  0  0  0  0  0  0
  159.2100  213.0500  139.8420 C   0  0  0  0  0  2  0  0  0  0  0  0
  159.4270  211.1090  152.9310 C   0  0  0  0  0  2  0  0  0  0  0  0
  160.3590  211.7520  153.9510 C   0  0  0  0  0  2  0  0  0  0  0  0
  160.0600  211.2890  155.3830 C   0  0  1  0  0  3  0  0  0  0  0  0
  157.6350  214.2080  156.3040 C   0  0  0  0  0  2  0  0  0  0  0  0
  157.5490  211.3160  155.5900 C   0  0  0  0  0  2  0  0  0  0  0  0
  156.3520  211.9030  156.3190 C   0  0  0  0  0  2  0  0  0  0  0  0
  158.7850  213.5000  155.5950 C   0  0  2  0  0  3  0  0  0  0  0  0
  156.0300  213.5850  155.7100 S   0  0  0  0  0  0  0  0  0  0  0  0
  158.8480  212.0160  156.0070 C   0  0  2  0  0  3  0  0  0  0  0  0
  159.9530  214.1620  155.9250 F   0  0  0  0  0  0  0  0  0  0  0  0
  159.8870  209.7720  155.3990 C   0  0  0  0  0  2  0  0  0  0  0  0
  161.0540  209.0600  154.7170 C   0  0  0  0  0  2  0  0  0  0  0  0
  160.6570  207.7850  153.9650 C   0  0  2  0  0  3  0  0  0  0  0  0
  160.7140  206.6780  154.8090 O   0  0  0  0  0  1  0  0  0  0  0  0
  161.5070  207.5410  152.7220 C   0  0  0  0  0  2  0  0  0  0  0  0
  161.3160  206.1290  152.1660 C   0  0  0  0  0  2  0  0  0  0  0  0
  161.5100  207.0990  148.4220 C   0  0  0  0  0  2  0  0  0  0  0  0
  161.2250  204.7440  148.5470 C   0  0  0  0  0  2  0  0  0  0  0  0
  160.7370  205.9670  147.9110 N   0  0  0  0  0  2  0  0  0  0  0  0
  161.6060  206.0130  150.6680 C   0  0  0  0  0  3  0  0  0  0  0  0
  161.2350  207.2880  149.9110 C   0  0  0  0  0  2  0  0  0  0  0  0
  160.9400  204.7820  150.0470 C   0  0  0  0  0  2  0  0  0  0  0  0
  1  5  2  0  0  0  0
  1  2  1  0  0  0  0
  2  6  1  0  0  0  0
  3  4  1  0  0  0  0
  4 25  1  1  0  0  0
  5  3  1  0  0  0  0
  6  4  1  0  0  0  0
  7  1  1  0  0  0  0
  8  9  1  0  0  0  0
  9  7  1  1  0  0  0
 10 11  1  6  0  0  0
 10  8  1  0  0  0  0
 10  9  1  0  0  0  0
 12 13  1  0  0  0  0
 12 11  1  0  0  0  0
 14 17  1  0  0  0  0
 15 17  1  0  0  0  0
 16 24  1  6  0  0  0
 16 15  1  0  0  0  0
 17 12  1  1  0  0  0
 18 16  1  0  0  0  0
 18 14  1  0  0  0  0
 19 16  1  0  0  0  0
 19 20  2  0  0  0  0
 21 19  1  0  0  0  0
 22 21  1  0  0  0  0
 24 23  1  0  0  0  0
 25 26  1  0  0  0  0
 27 26  1  6  0  0  0
 27 35  1  0  0  0  0
 29 33  1  0  0  0  0
 29 30  1  0  0  0  0
 31 34  1  1  0  0  0
 31 33  1  0  0  0  0
 31 28  1  0  0  0  0
 32 28  1  0  0  0  0
 32 30  1  0  0  0  0
 33 27  1  6  0  0  0
 36 35  1  0  0  0  0
 37 36  1  0  0  0  0
 37 38  1  1  0  0  0
 39 37  1  0  0  0  0
 40 39  1  0  0  0  0
 41 45  1  0  0  0  0
 42 46  1  0  0  0  0
 43 41  1  0  0  0  0
 43 42  1  0  0  0  0
 44 40  1  0  0  0  0
 45 44  1  0  0  0  0
 46 44  1  0  0  0  0
M  END
>  <MODEL>
7

>  <REMARK>
 VINA RESULT:      -5.5      3.639      8.136
  Name = 
  18 active torsions:
  status: ('A' for Active; 'I' for Inactive)
    1  A    between atoms: N_1  and  N_11
    2  A    between atoms: N_1  and  C_33
    3  A    between atoms: C_3  and  N_44
    4  A    between atoms: N_11  and  C_20
    5  A    between atoms: C_12  and  C_21
    6  A    between atoms: C_12  and  C_30
    7  A    between atoms: C_14  and  C_23
    8  A    between atoms: C_14  and  C_29
    9  A    between atoms: C_14  and  C_32
   10  A    between atoms: O_17  and  C_21
   11  A    between atoms: C_18  and  N_44
   12  A    between atoms: C_19  and  C_23
   13  A    between atoms: C_19  and  C_27
   14  A    between atoms: C_27  and  C_28
   15  A    between atoms: C_28  and  C_42
   16  A    between atoms: C_29  and  C_37
   17  A    between atoms: C_31  and  C_37
   18  A    between atoms: C_40  and  C_42
                            x       y       z     vdW  Elec       q    Type
                         _______ _______ _______ _____ _____    ______ ____

>  <TORSDO>
F 18

$$$$
=
 OpenBabel11052411343D

 46 50  0  0  1  0  0  0  0  0999 V2000
  161.8790  205.8170  144.2670 C   0  0  0  0  0  0  0  0  0  0  0  0
  160.3980  205.9700  144.5040 C   0  0  0  0  0  2  0  0  0  0  0  0
  162.3290  205.8050  146.7260 C   0  0  0  0  0  2  0  0  0  0  0  0
  160.8470  205.5070  146.9170 C   0  0  2  0  0  3  0  0  0  0  0  0
  162.7390  205.6680  145.2870 C   0  0  0  0  0  3  0  0  0  0  0  0
  160.0530  206.3660  145.9410 C   0  0  0  0  0  2  0  0  0  0  0  0
  162.3360  205.7070  142.9140 N   0  0  0  0  0  2  0  0  0  0  0  0
  162.3010  205.8300  140.4920 C   0  0  0  0  0  2  0  0  0  0  0  0
  161.5780  206.1950  141.7710 C   0  0  2  0  0  3  0  0  0  0  0  0
  162.3940  207.2400  141.0390 C   0  0  2  0  0  3  0  0  0  0  0  0
  161.4940  208.1070  140.2990 N   0  0  0  0  0  2  0  0  0  0  0  0
  162.2580  208.7390  139.3040 N   0  0  0  0  0  0  0  0  0  0  0  0
  161.9570  208.1090  138.1410 O   0  0  0  0  0  1  0  0  0  0  0  0
  160.2870  210.1950  139.4620 C   0  0  0  0  0  2  0  0  0  0  0  0
  162.4160  211.0040  140.2500 C   0  0  0  0  0  2  0  0  0  0  0  0
  161.3540  212.0040  140.6880 C   0  0  1  0  0  0  0  0  0  0  0  0
  161.7780  210.1170  139.1910 C   0  0  1  0  0  3  0  0  0  0  0  0
  160.0520  211.5860  140.0090 C   0  0  0  0  0  2  0  0  0  0  0  0
  161.2270  211.9530  142.1880 C   0  0  0  0  0  0  0  0  0  0  0  0
  160.1480  211.5790  142.7260 O   0  0  0  0  0  0  0  0  0  0  0  0
  162.3310  212.2500  142.9870 O   0  0  0  0  0  0  0  0  0  0  0  0
  162.1880  212.9410  144.1260 O   0  0  0  0  0  1  0  0  0  0  0  0
  161.0650  214.3850  141.0030 O   0  0  0  0  0  1  0  0  0  0  0  0
  161.7330  213.4170  140.2450 C   0  0  0  0  0  2  0  0  0  0  0  0
  160.4550  205.8320  148.3450 C   0  0  0  0  0  2  0  0  0  0  0  0
  161.4170  206.8520  148.9430 C   0  0  0  0  0  2  0  0  0  0  0  0
  161.8110  206.5040  150.3840 C   0  0  1  0  0  3  0  0  0  0  0  0
  161.8540  210.2650  151.4350 C   0  0  0  0  0  2  0  0  0  0  0  0
  160.8410  207.6390  152.4150 C   0  0  0  0  0  2  0  0  0  0  0  0
  161.0020  208.7610  153.4270 C   0  0  0  0  0  2  0  0  0  0  0  0
  161.6750  209.0580  150.5200 C   0  0  2  0  0  3  0  0  0  0  0  0
  160.5200  210.3420  152.6710 S   0  0  0  0  0  0  0  0  0  0  0  0
  161.8890  207.7460  151.3010 C   0  0  2  0  0  3  0  0  0  0  0  0
  162.5810  209.1780  149.4830 F   0  0  0  0  0  0  0  0  0  0  0  0
  160.8490  205.4510  150.9310 C   0  0  0  0  0  2  0  0  0  0  0  0
  161.5790  204.3770  151.7350 C   0  0  0  0  0  2  0  0  0  0  0  0
  161.0600  202.9550  151.4980 C   0  0  2  0  0  3  0  0  0  0  0  0
  161.9720  202.0130  151.9710 O   0  0  0  0  0  1  0  0  0  0  0  0
  160.7320  202.6790  150.0350 C   0  0  0  0  0  2  0  0  0  0  0  0
  161.2930  201.3350  149.5650 C   0  0  0  0  0  2  0  0  0  0  0  0
  160.8300  202.1100  145.8000 C   0  0  0  0  0  2  0  0  0  0  0  0
  161.3660  199.8050  146.0050 C   0  0  0  0  0  2  0  0  0  0  0  0
  160.4420  200.7590  145.3930 N   0  0  0  0  0  2  0  0  0  0  0  0
  161.4770  201.2420  148.0490 C   0  0  0  0  0  3  0  0  0  0  0  0
  160.6350  202.2770  147.3040 C   0  0  0  0  0  2  0  0  0  0  0  0
  161.2140  199.8280  147.5250 C   0  0  0  0  0  2  0  0  0  0  0  0
  1  2  1  0  0  0  0
  1  5  2  0  0  0  0
  2  6  1  0  0  0  0
  3  4  1  0  0  0  0
  4 25  1  1  0  0  0
  5  3  1  0  0  0  0
  6  4  1  0  0  0  0
  7  1  1  0  0  0  0
  8 10  1  0  0  0  0
  8  9  1  0  0  0  0
  9  7  1  1  0  0  0
 10 11  1  6  0  0  0
 10  9  1  0  0  0  0
 12 11  1  0  0  0  0
 13 12  1  0  0  0  0
 14 18  1  0  0  0  0
 15 16  1  0  0  0  0
 16 24  1  6  0  0  0
 16 19  1  0  0  0  0
 17 12  1  1  0  0  0
 17 14  1  0  0  0  0
 17 15  1  0  0  0  0
 18 16  1  0  0  0  0
 19 20  2  0  0  0  0
 19 21  1  0  0  0  0
 21 22  1  0  0  0  0
 24 23  1  0  0  0  0
 25 26  1  0  0  0  0
 27 26  1  6  0  0  0
 27 35  1  0  0  0  0
 28 32  1  0  0  0  0
 29 30  1  0  0  0  0
 31 34  1  6  0  0  0
 31 33  1  0  0  0  0
 31 28  1  0  0  0  0
 32 30  1  0  0  0  0
 33 27  1  6  0  0  0
 33 29  1  0  0  0  0
 35 36  1  0  0  0  0
 37 36  1  0  0  0  0
 37 38  1  6  0  0  0
 39 37  1  0  0  0  0
 40 39  1  0  0  0  0
 41 45  1  0  0  0  0
 42 46  1  0  0  0  0
 43 41  1  0  0  0  0
 43 42  1  0  0  0  0
 44 40  1  0  0  0  0
 45 44  1  0  0  0  0
 46 44  1  0  0  0  0
M  END
>  <MODEL>
8

>  <REMARK>
 VINA RESULT:      -5.5      4.669      9.688
  Name = 
  18 active torsions:
  status: ('A' for Active; 'I' for Inactive)
    1  A    between atoms: N_1  and  N_11
    2  A    between atoms: N_1  and  C_33
    3  A    between atoms: C_3  and  N_44
    4  A    between atoms: N_11  and  C_20
    5  A    between atoms: C_12  and  C_21
    6  A    between atoms: C_12  and  C_30
    7  A    between atoms: C_14  and  C_23
    8  A    between atoms: C_14  and  C_29
    9  A    between atoms: C_14  and  C_32
   10  A    between atoms: O_17  and  C_21
   11  A    between atoms: C_18  and  N_44
   12  A    between atoms: C_19  and  C_23
   13  A    between atoms: C_19  and  C_27
   14  A    between atoms: C_27  and  C_28
   15  A    between atoms: C_28  and  C_42
   16  A    between atoms: C_29  and  C_37
   17  A    between atoms: C_31  and  C_37
   18  A    between atoms: C_40  and  C_42
                            x       y       z     vdW  Elec       q    Type
                         _______ _______ _______ _____ _____    ______ ____

>  <TORSDO>
F 18

$$$$
=
 OpenBabel11052411343D

 46 50  0  0  1  0  0  0  0  0999 V2000
  161.2080  205.0870  152.0910 C   0  0  0  0  0  0  0  0  0  0  0  0
  161.3970  205.5910  153.5000 C   0  0  0  0  0  2  0  0  0  0  0  0
  161.2100  207.4200  151.1950 C   0  0  0  0  0  2  0  0  0  0  0  0
  161.8370  207.8450  152.5180 C   0  0  2  0  0  3  0  0  0  0  0  0
  161.2000  205.9250  151.0440 C   0  0  0  0  0  3  0  0  0  0  0  0
  161.1410  207.0920  153.6450 C   0  0  0  0  0  2  0  0  0  0  0  0
  161.1640  203.6700  151.8850 N   0  0  0  0  0  2  0  0  0  0  0  0
  160.5170  201.5320  150.9390 C   0  0  0  0  0  2  0  0  0  0  0  0
  160.2970  203.0300  150.9070 C   0  0  2  0  0  3  0  0  0  0  0  0
  161.1460  202.3670  149.8430 C   0  0  2  0  0  3  0  0  0  0  0  0
  160.3620  202.2390  148.6270 N   0  0  0  0  0  2  0  0  0  0  0  0
  161.2600  201.9540  147.5860 N   0  0  0  0  0  0  0  0  0  0  0  0
  160.5090  201.8380  146.4620 O   0  0  0  0  0  1  0  0  0  0  0  0
  162.2120  203.5240  145.9560 C   0  0  0  0  0  2  0  0  0  0  0  0
  161.5370  204.3380  148.1210 C   0  0  0  0  0  2  0  0  0  0  0  0
  161.8550  205.5480  147.2540 C   0  0  1  0  0  0  0  0  0  0  0  0
  162.1230  203.1240  147.4170 C   0  0  1  0  0  3  0  0  0  0  0  0
  162.4730  205.0130  145.9640 C   0  0  0  0  0  2  0  0  0  0  0  0
  160.5780  206.2980  146.9770 C   0  0  0  0  0  0  0  0  0  0  0  0
  159.8490  206.6920  147.9290 O   0  0  0  0  0  0  0  0  0  0  0  0
  160.2370  206.6240  145.6650 O   0  0  0  0  0  0  0  0  0  0  0  0
  159.8190  205.6810  144.8090 O   0  0  0  0  0  1  0  0  0  0  0  0
  162.4750  207.8080  147.8540 O   0  0  0  0  0  1  0  0  0  0  0  0
  162.8540  206.4670  147.9590 C   0  0  0  0  0  2  0  0  0  0  0  0
  161.6600  209.3410  152.6940 C   0  0  0  0  0  2  0  0  0  0  0  0
  160.1890  209.7200  152.5750 C   0  0  0  0  0  2  0  0  0  0  0  0
  159.8160  210.8970  153.4860 C   0  0  1  0  0  3  0  0  0  0  0  0
  160.3150  209.4910  157.0950 C   0  0  0  0  0  2  0  0  0  0  0  0
  161.9170  210.6200  154.8500 C   0  0  0  0  0  2  0  0  0  0  0  0
  162.5280  210.6460  156.2410 C   0  0  0  0  0  2  0  0  0  0  0  0
  159.8000  209.5440  155.6610 C   0  0  2  0  0  3  0  0  0  0  0  0
  162.0960  209.1190  157.1270 S   0  0  0  0  0  0  0  0  0  0  0  0
  160.3910  210.7550  154.9130 C   0  0  2  0  0  3  0  0  0  0  0  0
  158.4200  209.6110  155.7110 F   0  0  0  0  0  0  0  0  0  0  0  0
  160.2460  212.2050  152.8240 C   0  0  0  0  0  2  0  0  0  0  0  0
  159.1720  213.2840  152.9490 C   0  0  0  0  0  2  0  0  0  0  0  0
  158.5340  213.6900  151.6160 C   0  0  2  0  0  3  0  0  0  0  0  0
  157.6910  212.6850  151.1470 O   0  0  0  0  0  1  0  0  0  0  0  0
  159.5640  214.0510  150.5500 C   0  0  0  0  0  2  0  0  0  0  0  0
  159.2960  213.3310  149.2280 C   0  0  0  0  0  2  0  0  0  0  0  0
  162.7250  211.9510  148.0740 C   0  0  0  0  0  2  0  0  0  0  0  0
  162.5500  214.1910  147.3040 C   0  0  0  0  0  2  0  0  0  0  0  0
  163.4140  213.2390  148.0020 N   0  0  0  0  0  2  0  0  0  0  0  0
  160.5480  213.1350  148.3690 C   0  0  0  0  0  3  0  0  0  0  0  0
  161.4810  212.0730  148.9490 C   0  0  0  0  0  2  0  0  0  0  0  0
  161.2880  214.4530  148.1250 C   0  0  0  0  0  2  0  0  0  0  0  0
  1  2  1  0  0  0  0
  2  6  1  0  0  0  0
  3  4  1  0  0  0  0
  4 25  1  1  0  0  0
  4  6  1  0  0  0  0
  5  3  1  0  0  0  0
  5  1  2  0  0  0  0
  7  1  1  0  0  0  0
  9  8  1  0  0  0  0
  9  7  1  1  0  0  0
 10 11  1  6  0  0  0
 10  9  1  0  0  0  0
 10  8  1  0  0  0  0
 12 11  1  0  0  0  0
 13 12  1  0  0  0  0
 14 18  1  0  0  0  0
 14 17  1  0  0  0  0
 16 24  1  1  0  0  0
 16 15  1  0  0  0  0
 17 12  1  6  0  0  0
 17 15  1  0  0  0  0
 18 16  1  0  0  0  0
 19 16  1  0  0  0  0
 19 20  2  0  0  0  0
 21 19  1  0  0  0  0
 22 21  1  0  0  0  0
 23 24  1  0  0  0  0
 26 25  1  0  0  0  0
 27 26  1  6  0  0  0
 28 32  1  0  0  0  0
 29 33  1  0  0  0  0
 29 30  1  0  0  0  0
 30 32  1  0  0  0  0
 31 34  1  1  0  0  0
 31 28  1  0  0  0  0
 33 27  1  6  0  0  0
 33 31  1  0  0  0  0
 35 36  1  0  0  0  0
 35 27  1  0  0  0  0
 37 38  1  6  0  0  0
 37 36  1  0  0  0  0
 39 37  1  0  0  0  0
 40 39  1  0  0  0  0
 41 45  1  0  0  0  0
 42 43  1  0  0  0  0
 42 46  1  0  0  0  0
 43 41  1  0  0  0  0
 44 45  1  0  0  0  0
 44 40  1  0  0  0  0
 46 44  1  0  0  0  0
M  END
>  <MODEL>
9

>  <REMARK>
 VINA RESULT:      -5.5      2.341      2.987
  Name = 
  18 active torsions:
  status: ('A' for Active; 'I' for Inactive)
    1  A    between atoms: N_1  and  N_11
    2  A    between atoms: N_1  and  C_33
    3  A    between atoms: C_3  and  N_44
    4  A    between atoms: N_11  and  C_20
    5  A    between atoms: C_12  and  C_21
    6  A    between atoms: C_12  and  C_30
    7  A    between atoms: C_14  and  C_23
    8  A    between atoms: C_14  and  C_29
    9  A    between atoms: C_14  and  C_32
   10  A    between atoms: O_17  and  C_21
   11  A    between atoms: C_18  and  N_44
   12  A    between atoms: C_19  and  C_23
   13  A    between atoms: C_19  and  C_27
   14  A    between atoms: C_27  and  C_28
   15  A    between atoms: C_28  and  C_42
   16  A    between atoms: C_29  and  C_37
   17  A    between atoms: C_31  and  C_37
   18  A    between atoms: C_40  and  C_42
                            x       y       z     vdW  Elec       q    Type
                         _______ _______ _______ _____ _____    ______ ____

>  <TORSDO>
F 18

$$$$
