=
 OpenBabel11052410303D

 35 37  0  0  1  0  0  0  0  0999 V2000
  160.9050  208.0550  154.7650 C   0  0  0  0  0  0  0  0  0  0  0  0
  160.6110  210.3020  155.0350 C   0  0  0  0  0  0  0  0  0  0  0  0
  160.9400  209.8600  156.2040 N   0  0  0  0  0  0  0  0  0  0  0  0
  160.5150  209.2540  153.9770 C   0  0  1  0  0  3  0  0  0  0  0  0
  160.5830  206.8670  154.4080 N   0  0  0  0  0  2  0  0  0  0  0  0
  161.1320  208.4200  156.1910 C   0  0  0  0  0  2  0  0  0  0  0  0
  160.3290  211.6870  154.8200 N   0  0  0  0  0  2  0  0  0  0  0  0
  159.5570  212.6000  152.5020 C   0  0  0  0  0  0  0  0  0  0  0  0
  159.9090  212.1770  153.5750 C   0  0  0  0  0  0  0  0  0  0  0  0
  158.3490  214.0950  148.7360 C   0  0  0  0  0  3  0  0  0  0  0  0
  157.8000  213.3920  150.9860 C   0  0  0  0  0  3  0  0  0  0  0  0
  159.1480  213.1060  151.2240 C   0  0  0  0  0  0  0  0  0  0  0  0
  159.7040  213.8120  148.9680 C   0  0  0  0  0  0  0  0  0  0  0  0
  157.4000  213.8860  149.7410 C   0  0  0  0  0  3  0  0  0  0  0  0
  160.0950  213.3170  150.2170 C   0  0  0  0  0  3  0  0  0  0  0  0
  162.1210  213.4950  145.9440 C   0  0  0  0  0  1  0  0  0  0  0  0
  160.7050  214.0150  147.9620 N   0  0  0  0  0  2  0  0  0  0  0  0
  161.0620  213.1070  146.9120 C   0  0  0  0  0  0  0  0  0  0  0  0
  160.4980  211.9880  146.7930 O   0  0  0  0  0  0  0  0  0  0  0  0
  161.5100  209.4960  152.9450 N   0  0  0  0  0  2  0  0  0  0  0  0
  161.1150  208.7580  151.8220 N   0  0  0  0  0  2  0  0  0  0  0  0
  162.3290  208.3380  151.1380 C   0  0  2  0  0  3  0  0  0  0  0  0
  161.5980  205.9390  150.8310 C   0  0  0  0  0  2  0  0  0  0  0  0
  161.5230  206.1620  149.3220 C   0  0  2  0  0  3  0  0  0  0  0  0
  162.1930  208.5550  149.6300 C   0  0  0  0  0  2  0  0  0  0  0  0
  162.6410  206.8700  151.4480 C   0  0  0  0  0  2  0  0  0  0  0  0
  161.1540  207.6110  149.0260 C   0  0  0  0  0  2  0  0  0  0  0  0
  160.5190  205.2810  148.7460 N   0  0  0  0  0  2  0  0  0  0  0  0
  160.9160  203.9100  149.0390 C   0  0  0  0  0  2  0  0  0  0  0  0
  160.9050  202.1330  147.4700 O   0  0  0  0  0  1  0  0  0  0  0  0
  161.6070  203.2820  147.8350 C   0  0  1  0  0  3  0  0  0  0  0  0
  161.6580  204.2580  146.6570 C   0  0  1  0  0  3  0  0  0  0  0  0
  162.9550  204.7510  146.4920 O   0  0  0  0  0  1  0  0  0  0  0  0
  161.2320  203.5760  145.3960 C   0  0  0  0  0  3  0  0  0  0  0  0
  160.5810  204.1800  144.5600 O   0  0  0  0  0  0  0  0  0  0  0  0
  1  6  1  0  0  0  0
  2  3  2  0  0  0  0
  4 20  1  6  0  0  0
  4  1  1  0  0  0  0
  4  2  1  0  0  0  0
  5  1  2  0  0  0  0
  6  3  1  0  0  0  0
  7  2  1  0  0  0  0
  8  9  3  0  0  0  0
  9  7  1  0  0  0  0
 10 13  2  0  0  0  0
 10 14  1  0  0  0  0
 11 12  1  0  0  0  0
 12  8  1  0  0  0  0
 13 15  1  0  0  0  0
 14 11  2  0  0  0  0
 15 12  2  0  0  0  0
 16 18  1  0  0  0  0
 17 13  1  0  0  0  0
 18 17  1  0  0  0  0
 19 18  2  0  0  0  0
 21 20  1  0  0  0  0
 22 26  1  0  0  0  0
 22 21  1  1  0  0  0
 23 26  1  0  0  0  0
 24 28  1  1  0  0  0
 24 23  1  0  0  0  0
 25 22  1  0  0  0  0
 27 24  1  0  0  0  0
 27 25  1  0  0  0  0
 28 29  1  0  0  0  0
 31 30  1  6  0  0  0
 31 29  1  0  0  0  0
 32 33  1  6  0  0  0
 32 31  1  0  0  0  0
 34 32  1  0  0  0  0
 35 34  2  0  0  0  0
M  END
>  <MODEL>
1

>  <REMARK>
 VINA RESULT:      -7.3      0.000      0.000
  Name = 
  11 active torsions:
  status: ('A' for Active; 'I' for Inactive)
    1  A    between atoms: C_3  and  C_9
    2  A    between atoms: C_3  and  C_35
    3  A    between atoms: C_7  and  N_16
    4  A    between atoms: C_8  and  C_20
    5  A    between atoms: C_12  and  N_21
    6  A    between atoms: C_13  and  N_17
    7  A    between atoms: N_16  and  N_22
    8  A    between atoms: N_17  and  C_34
    9  A    between atoms: C_18  and  N_22
   10  A    between atoms: N_31  and  C_32
   11  A    between atoms: C_34  and  C_35
                            x       y       z     vdW  Elec       q    Type
                         _______ _______ _______ _____ _____    ______ ____

>  <TORSDO>
F 11

$$$$
=
 OpenBabel11052410303D

 35 37  0  0  1  0  0  0  0  0999 V2000
  159.5110  210.6770  155.6200 C   0  0  0  0  0  0  0  0  0  0  0  0
  158.9770  212.7650  154.8690 C   0  0  0  0  0  0  0  0  0  0  0  0
  159.0380  212.8720  156.1560 N   0  0  0  0  0  0  0  0  0  0  0  0
  159.2350  211.3920  154.3460 C   0  0  1  0  0  3  0  0  0  0  0  0
  159.3860  209.4070  155.7330 N   0  0  0  0  0  2  0  0  0  0  0  0
  159.3440  211.5970  156.7800 C   0  0  0  0  0  2  0  0  0  0  0  0
  158.6470  213.8880  154.0480 N   0  0  0  0  0  2  0  0  0  0  0  0
  158.4040  213.6930  151.4580 C   0  0  0  0  0  0  0  0  0  0  0  0
  158.5140  213.7790  152.6560 C   0  0  0  0  0  0  0  0  0  0  0  0
  158.0310  213.4240  147.2560 C   0  0  0  0  0  3  0  0  0  0  0  0
  157.0370  213.3140  149.4590 C   0  0  0  0  0  3  0  0  0  0  0  0
  158.2790  213.6010  150.0330 C   0  0  0  0  0  0  0  0  0  0  0  0
  159.2810  213.7140  147.8240 C   0  0  0  0  0  0  0  0  0  0  0  0
  156.9120  213.2250  148.0700 C   0  0  0  0  0  3  0  0  0  0  0  0
  159.3960  213.8010  149.2160 C   0  0  0  0  0  3  0  0  0  0  0  0
  162.6690  213.4010  145.9500 C   0  0  0  0  0  1  0  0  0  0  0  0
  160.4490  213.9260  147.0200 N   0  0  0  0  0  2  0  0  0  0  0  0
  161.5410  213.0160  146.8380 C   0  0  0  0  0  0  0  0  0  0  0  0
  161.5650  211.8980  147.4150 O   0  0  0  0  0  0  0  0  0  0  0  0
  160.4330  211.3900  153.5230 N   0  0  0  0  0  2  0  0  0  0  0  0
  160.3160  210.3070  152.6410 N   0  0  0  0  0  2  0  0  0  0  0  0
  161.5480  209.5390  152.7420 C   0  0  2  0  0  3  0  0  0  0  0  0
  160.7680  207.6610  151.2430 C   0  0  0  0  0  2  0  0  0  0  0  0
  161.7990  208.0760  150.1950 C   0  0  2  0  0  3  0  0  0  0  0  0
  162.5350  209.9720  151.6560 C   0  0  0  0  0  2  0  0  0  0  0  0
  161.2570  208.0380  152.6410 C   0  0  0  0  0  2  0  0  0  0  0  0
  162.0370  209.5800  150.2650 C   0  0  0  0  0  2  0  0  0  0  0  0
  161.3190  207.7240  148.8690 N   0  0  0  0  0  2  0  0  0  0  0  0
  160.6970  206.4090  148.9590 C   0  0  0  0  0  2  0  0  0  0  0  0
  160.8760  204.1510  148.2610 O   0  0  0  0  0  1  0  0  0  0  0  0
  161.5860  205.3510  148.3170 C   0  0  1  0  0  3  0  0  0  0  0  0
  162.0140  205.7700  146.9090 C   0  0  1  0  0  3  0  0  0  0  0  0
  163.1530  205.0620  146.5180 O   0  0  0  0  0  1  0  0  0  0  0  0
  160.9160  205.5030  145.9290 C   0  0  0  0  0  3  0  0  0  0  0  0
  160.2810  206.4290  145.4500 O   0  0  0  0  0  0  0  0  0  0  0  0
  1  5  2  0  0  0  0
  1  6  1  0  0  0  0
  2  3  2  0  0  0  0
  3  6  1  0  0  0  0
  4 20  1  6  0  0  0
  4  2  1  0  0  0  0
  4  1  1  0  0  0  0
  7  2  1  0  0  0  0
  8  9  3  0  0  0  0
  9  7  1  0  0  0  0
 10 13  2  0  0  0  0
 10 14  1  0  0  0  0
 11 12  1  0  0  0  0
 12  8  1  0  0  0  0
 13 15  1  0  0  0  0
 14 11  2  0  0  0  0
 15 12  2  0  0  0  0
 16 18  1  0  0  0  0
 17 13  1  0  0  0  0
 18 17  1  0  0  0  0
 18 19  2  0  0  0  0
 21 20  1  0  0  0  0
 22 21  1  6  0  0  0
 23 26  1  0  0  0  0
 24 28  1  6  0  0  0
 24 27  1  0  0  0  0
 24 23  1  0  0  0  0
 25 22  1  0  0  0  0
 26 22  1  0  0  0  0
 27 25  1  0  0  0  0
 28 29  1  0  0  0  0
 31 30  1  6  0  0  0
 31 29  1  0  0  0  0
 32 33  1  6  0  0  0
 32 31  1  0  0  0  0
 34 32  1  0  0  0  0
 35 34  2  0  0  0  0
M  END
>  <MODEL>
2

>  <REMARK>
 VINA RESULT:      -6.8      1.634      2.200
  Name = 
  11 active torsions:
  status: ('A' for Active; 'I' for Inactive)
    1  A    between atoms: C_3  and  C_9
    2  A    between atoms: C_3  and  C_35
    3  A    between atoms: C_7  and  N_16
    4  A    between atoms: C_8  and  C_20
    5  A    between atoms: C_12  and  N_21
    6  A    between atoms: C_13  and  N_17
    7  A    between atoms: N_16  and  N_22
    8  A    between atoms: N_17  and  C_34
    9  A    between atoms: C_18  and  N_22
   10  A    between atoms: N_31  and  C_32
   11  A    between atoms: C_34  and  C_35
                            x       y       z     vdW  Elec       q    Type
                         _______ _______ _______ _____ _____    ______ ____

>  <TORSDO>
F 11

$$$$
=
 OpenBabel11052410303D

 35 37  0  0  1  0  0  0  0  0999 V2000
  161.0090  207.5440  154.1350 C   0  0  0  0  0  0  0  0  0  0  0  0
  160.7690  209.7440  154.6940 C   0  0  0  0  0  0  0  0  0  0  0  0
  161.0540  209.1420  155.8010 N   0  0  0  0  0  0  0  0  0  0  0  0
  160.6740  208.8470  153.5040 C   0  0  1  0  0  3  0  0  0  0  0  0
  160.6650  206.4230  153.6170 N   0  0  0  0  0  2  0  0  0  0  0  0
  161.2080  207.7110  155.6020 C   0  0  0  0  0  2  0  0  0  0  0  0
  160.5300  211.1530  154.6570 N   0  0  0  0  0  2  0  0  0  0  0  0
  159.8270  212.3830  152.4680 C   0  0  0  0  0  0  0  0  0  0  0  0
  160.1570  211.8150  153.4780 C   0  0  0  0  0  0  0  0  0  0  0  0
  158.6400  214.3680  148.9290 C   0  0  0  0  0  3  0  0  0  0  0  0
  158.1310  213.5720  151.1560 C   0  0  0  0  0  3  0  0  0  0  0  0
  159.4250  213.0560  151.2660 C   0  0  0  0  0  0  0  0  0  0  0  0
  159.9410  213.8540  149.0320 C   0  0  0  0  0  0  0  0  0  0  0  0
  157.7370  214.2280  149.9870 C   0  0  0  0  0  3  0  0  0  0  0  0
  160.3260  213.1980  150.2070 C   0  0  0  0  0  3  0  0  0  0  0  0
  162.2340  213.3020  145.9460 C   0  0  0  0  0  1  0  0  0  0  0  0
  160.8940  213.9810  147.9690 N   0  0  0  0  0  2  0  0  0  0  0  0
  161.2260  212.9860  146.9920 C   0  0  0  0  0  0  0  0  0  0  0  0
  160.6820  211.8520  147.0010 O   0  0  0  0  0  0  0  0  0  0  0  0
  161.7020  209.1930  152.5370 N   0  0  0  0  0  2  0  0  0  0  0  0
  161.2150  208.8200  151.2780 N   0  0  0  0  0  2  0  0  0  0  0  0
  162.3700  208.5420  150.4380 C   0  0  2  0  0  3  0  0  0  0  0  0
  161.9970  206.0440  150.3570 C   0  0  0  0  0  2  0  0  0  0  0  0
  161.6720  206.1470  148.8680 C   0  0  2  0  0  3  0  0  0  0  0  0
  161.9870  208.6300  148.9590 C   0  0  0  0  0  2  0  0  0  0  0  0
  162.9550  207.1630  150.7650 C   0  0  0  0  0  2  0  0  0  0  0  0
  161.0370  207.5000  148.5650 C   0  0  0  0  0  2  0  0  0  0  0  0
  160.7510  205.0860  148.4930 N   0  0  0  0  0  2  0  0  0  0  0  0
  161.4340  203.8160  148.6990 C   0  0  0  0  0  2  0  0  0  0  0  0
  160.7210  201.8310  147.6160 O   0  0  0  0  0  1  0  0  0  0  0  0
  160.4360  202.6640  148.6990 C   0  0  1  0  0  3  0  0  0  0  0  0
  160.5110  201.8680  150.0030 C   0  0  1  0  0  3  0  0  0  0  0  0
  161.2630  200.7060  149.8190 O   0  0  0  0  0  1  0  0  0  0  0  0
  161.1420  202.6910  151.0820 C   0  0  0  0  0  3  0  0  0  0  0  0
  160.8150  202.5330  152.2460 O   0  0  0  0  0  0  0  0  0  0  0  0
  1  6  1  0  0  0  0
  2  3  2  0  0  0  0
  4 20  1  6  0  0  0
  4  1  1  0  0  0  0
  4  2  1  0  0  0  0
  5  1  2  0  0  0  0
  6  3  1  0  0  0  0
  7  2  1  0  0  0  0
  8  9  3  0  0  0  0
  9  7  1  0  0  0  0
 10 13  2  0  0  0  0
 10 14  1  0  0  0  0
 11 12  1  0  0  0  0
 12  8  1  0  0  0  0
 13 15  1  0  0  0  0
 14 11  2  0  0  0  0
 15 12  2  0  0  0  0
 16 18  1  0  0  0  0
 17 13  1  0  0  0  0
 18 19  2  0  0  0  0
 18 17  1  0  0  0  0
 21 20  1  0  0  0  0
 22 26  1  0  0  0  0
 22 21  1  1  0  0  0
 23 26  1  0  0  0  0
 24 28  1  1  0  0  0
 24 23  1  0  0  0  0
 25 22  1  0  0  0  0
 27 24  1  0  0  0  0
 27 25  1  0  0  0  0
 28 29  1  0  0  0  0
 31 30  1  6  0  0  0
 31 29  1  0  0  0  0
 31 32  1  0  0  0  0
 32 33  1  6  0  0  0
 32 34  1  0  0  0  0
 34 35  2  0  0  0  0
M  END
>  <MODEL>
3

>  <REMARK>
 VINA RESULT:      -6.7      1.261      2.108
  Name = 
  11 active torsions:
  status: ('A' for Active; 'I' for Inactive)
    1  A    between atoms: C_3  and  C_9
    2  A    between atoms: C_3  and  C_35
    3  A    between atoms: C_7  and  N_16
    4  A    between atoms: C_8  and  C_20
    5  A    between atoms: C_12  and  N_21
    6  A    between atoms: C_13  and  N_17
    7  A    between atoms: N_16  and  N_22
    8  A    between atoms: N_17  and  C_34
    9  A    between atoms: C_18  and  N_22
   10  A    between atoms: N_31  and  C_32
   11  A    between atoms: C_34  and  C_35
                            x       y       z     vdW  Elec       q    Type
                         _______ _______ _______ _____ _____    ______ ____

>  <TORSDO>
F 11

$$$$
=
 OpenBabel11052410303D

 35 37  0  0  1  0  0  0  0  0999 V2000
  160.5080  212.6990  150.7350 C   0  0  0  0  0  0  0  0  0  0  0  0
  161.6310  211.1240  149.5230 C   0  0  0  0  0  0  0  0  0  0  0  0
  161.8370  212.2400  148.9030 N   0  0  0  0  0  0  0  0  0  0  0  0
  160.7610  211.2340  150.7310 C   0  0  1  0  0  3  0  0  0  0  0  0
  159.4980  213.2180  151.3290 N   0  0  0  0  0  2  0  0  0  0  0  0
  161.1480  213.3420  149.5530 C   0  0  0  0  0  2  0  0  0  0  0  0
  162.1770  209.8960  149.0370 N   0  0  0  0  0  2  0  0  0  0  0  0
  161.6950  207.6050  150.1870 C   0  0  0  0  0  0  0  0  0  0  0  0
  161.9130  208.6660  149.6570 C   0  0  0  0  0  0  0  0  0  0  0  0
  160.9500  203.8740  152.0290 C   0  0  0  0  0  3  0  0  0  0  0  0
  161.4790  206.2280  152.2040 C   0  0  0  0  0  3  0  0  0  0  0  0
  161.4430  206.3390  150.8110 C   0  0  0  0  0  0  0  0  0  0  0  0
  160.9110  203.9770  150.6300 C   0  0  0  0  0  0  0  0  0  0  0  0
  161.2330  204.9960  152.8140 C   0  0  0  0  0  3  0  0  0  0  0  0
  161.1590  205.2160  150.0290 C   0  0  0  0  0  3  0  0  0  0  0  0
  160.6800  201.3980  147.7350 C   0  0  0  0  0  1  0  0  0  0  0  0
  160.6220  202.8490  149.7940 N   0  0  0  0  0  2  0  0  0  0  0  0
  161.0680  202.6430  148.4480 C   0  0  0  0  0  0  0  0  0  0  0  0
  161.7810  203.4950  147.8560 O   0  0  0  0  0  0  0  0  0  0  0  0
  161.5130  210.8720  151.9200 N   0  0  0  0  0  2  0  0  0  0  0  0
  160.6310  210.1800  152.7610 N   0  0  0  0  0  2  0  0  0  0  0  0
  161.4290  209.5950  153.8280 C   0  0  2  0  0  3  0  0  0  0  0  0
  160.9340  211.4150  155.5080 C   0  0  0  0  0  2  0  0  0  0  0  0
  160.1390  210.4160  156.3480 C   0  0  2  0  0  3  0  0  0  0  0  0
  160.5830  208.6250  154.6550 C   0  0  0  0  0  2  0  0  0  0  0  0
  162.0240  210.6900  154.7200 C   0  0  0  0  0  2  0  0  0  0  0  0
  159.5040  209.3650  155.4440 C   0  0  0  0  0  2  0  0  0  0  0  0
  159.0970  211.1140  157.0830 N   0  0  0  0  0  2  0  0  0  0  0  0
  158.6600  212.2390  156.2680 C   0  0  0  0  0  2  0  0  0  0  0  0
  156.7710  213.6010  156.7140 O   0  0  0  0  0  1  0  0  0  0  0  0
  157.1390  212.3340  156.2570 C   0  0  1  0  0  3  0  0  0  0  0  0
  156.5810  212.1060  154.8510 C   0  0  1  0  0  3  0  0  0  0  0  0
  157.6240  211.9360  153.9370 O   0  0  0  0  0  1  0  0  0  0  0  0
  155.7090  210.8900  154.8260 C   0  0  0  0  0  3  0  0  0  0  0  0
  155.3130  210.3970  155.8690 O   0  0  0  0  0  0  0  0  0  0  0  0
  1  5  2  0  0  0  0
  2  4  1  0  0  0  0
  3  2  2  0  0  0  0
  3  6  1  0  0  0  0
  4  1  1  0  0  0  0
  4 20  1  1  0  0  0
  6  1  1  0  0  0  0
  7  2  1  0  0  0  0
  7  9  1  0  0  0  0
  8 12  1  0  0  0  0
  9  8  3  0  0  0  0
 10 14  1  0  0  0  0
 11 14  2  0  0  0  0
 12 11  1  0  0  0  0
 13 10  2  0  0  0  0
 15 13  1  0  0  0  0
 15 12  2  0  0  0  0
 16 18  1  0  0  0  0
 17 13  1  0  0  0  0
 18 17  1  0  0  0  0
 19 18  2  0  0  0  0
 20 21  1  0  0  0  0
 22 21  1  6  0  0  0
 22 25  1  0  0  0  0
 22 26  1  0  0  0  0
 23 24  1  0  0  0  0
 24 28  1  6  0  0  0
 25 27  1  0  0  0  0
 26 23  1  0  0  0  0
 27 24  1  0  0  0  0
 29 28  1  0  0  0  0
 31 29  1  0  0  0  0
 31 30  1  6  0  0  0
 32 33  1  6  0  0  0
 32 31  1  0  0  0  0
 34 32  1  0  0  0  0
 34 35  2  0  0  0  0
M  END
>  <MODEL>
4

>  <REMARK>
 VINA RESULT:      -6.4      3.545      9.074
  Name = 
  11 active torsions:
  status: ('A' for Active; 'I' for Inactive)
    1  A    between atoms: C_3  and  C_9
    2  A    between atoms: C_3  and  C_35
    3  A    between atoms: C_7  and  N_16
    4  A    between atoms: C_8  and  C_20
    5  A    between atoms: C_12  and  N_21
    6  A    between atoms: C_13  and  N_17
    7  A    between atoms: N_16  and  N_22
    8  A    between atoms: N_17  and  C_34
    9  A    between atoms: C_18  and  N_22
   10  A    between atoms: N_31  and  C_32
   11  A    between atoms: C_34  and  C_35
                            x       y       z     vdW  Elec       q    Type
                         _______ _______ _______ _____ _____    ______ ____

>  <TORSDO>
F 11

$$$$
=
 OpenBabel11052410303D

 35 37  0  0  1  0  0  0  0  0999 V2000
  161.0110  205.7940  150.3600 C   0  0  0  0  0  0  0  0  0  0  0  0
  162.0980  207.6400  151.1480 C   0  0  0  0  0  0  0  0  0  0  0  0
  162.3890  206.6940  151.9790 N   0  0  0  0  0  0  0  0  0  0  0  0
  161.1850  207.2350  150.0390 C   0  0  1  0  0  3  0  0  0  0  0  0
  160.0070  205.1160  149.9440 N   0  0  0  0  0  2  0  0  0  0  0  0
  161.7340  205.4490  151.6160 C   0  0  0  0  0  2  0  0  0  0  0  0
  162.5970  208.9670  151.3320 N   0  0  0  0  0  2  0  0  0  0  0  0
  161.9280  210.9300  149.7510 C   0  0  0  0  0  0  0  0  0  0  0  0
  162.2410  210.0220  150.4790 C   0  0  0  0  0  0  0  0  0  0  0  0
  160.8010  214.1170  147.2110 C   0  0  0  0  0  3  0  0  0  0  0  0
  160.6300  212.9680  149.3340 C   0  0  0  0  0  3  0  0  0  0  0  0
  161.5450  212.0100  148.8880 C   0  0  0  0  0  0  0  0  0  0  0  0
  161.7210  213.1600  146.7570 C   0  0  0  0  0  0  0  0  0  0  0  0
  160.2570  214.0210  148.4960 C   0  0  0  0  0  3  0  0  0  0  0  0
  162.0890  212.1080  147.6040 C   0  0  0  0  0  3  0  0  0  0  0  0
  162.4280  213.0090  142.9410 C   0  0  0  0  0  1  0  0  0  0  0  0
  162.3010  213.2270  145.4480 N   0  0  0  0  0  2  0  0  0  0  0  0
  161.6740  212.8580  144.2130 C   0  0  0  0  0  0  0  0  0  0  0  0
  160.5000  212.4080  144.1830 O   0  0  0  0  0  0  0  0  0  0  0  0
  161.8660  207.3660  148.7620 N   0  0  0  0  0  2  0  0  0  0  0  0
  160.9940  206.8650  147.7860 N   0  0  0  0  0  2  0  0  0  0  0  0
  161.7580  206.7420  146.5530 C   0  0  2  0  0  3  0  0  0  0  0  0
  162.2750  204.2870  146.8500 C   0  0  0  0  0  2  0  0  0  0  0  0
  161.3910  203.9610  145.6480 C   0  0  2  0  0  3  0  0  0  0  0  0
  160.8330  206.3890  145.3870 C   0  0  0  0  0  2  0  0  0  0  0  0
  162.8620  205.6910  146.7060 C   0  0  0  0  0  2  0  0  0  0  0  0
  160.2610  204.9800  145.5400 C   0  0  0  0  0  2  0  0  0  0  0  0
  160.8270  202.6300  145.8010 N   0  0  0  0  0  2  0  0  0  0  0  0
  161.6330  201.9200  146.7860 C   0  0  0  0  0  2  0  0  0  0  0  0
  161.5140  199.8940  148.0110 O   0  0  0  0  0  1  0  0  0  0  0  0
  160.7590  201.0070  147.6370 C   0  0  1  0  0  3  0  0  0  0  0  0
  160.2480  201.7340  148.8820 C   0  0  1  0  0  3  0  0  0  0  0  0
  158.9390  201.3400  149.1700 O   0  0  0  0  0  1  0  0  0  0  0  0
  161.1180  201.4280  150.0590 C   0  0  0  0  0  3  0  0  0  0  0  0
  161.0090  202.0720  151.0890 O   0  0  0  0  0  0  0  0  0  0  0  0
  1  6  1  0  0  0  0
  2  7  1  0  0  0  0
  2  3  2  0  0  0  0
  4 20  1  6  0  0  0
  4  1  1  0  0  0  0
  4  2  1  0  0  0  0
  5  1  2  0  0  0  0
  6  3  1  0  0  0  0
  8  9  3  0  0  0  0
  9  7  1  0  0  0  0
 10 14  1  0  0  0  0
 12 11  1  0  0  0  0
 12  8  1  0  0  0  0
 13 10  2  0  0  0  0
 13 15  1  0  0  0  0
 14 11  2  0  0  0  0
 15 12  2  0  0  0  0
 16 18  1  0  0  0  0
 17 13  1  0  0  0  0
 18 17  1  0  0  0  0
 19 18  2  0  0  0  0
 21 20  1  0  0  0  0
 22 26  1  0  0  0  0
 22 21  1  1  0  0  0
 24 28  1  1  0  0  0
 24 23  1  0  0  0  0
 25 27  1  0  0  0  0
 25 22  1  0  0  0  0
 26 23  1  0  0  0  0
 27 24  1  0  0  0  0
 28 29  1  0  0  0  0
 29 31  1  0  0  0  0
 31 30  1  1  0  0  0
 31 32  1  0  0  0  0
 32 33  1  1  0  0  0
 32 34  1  0  0  0  0
 34 35  2  0  0  0  0
M  END
>  <MODEL>
5

>  <REMARK>
 VINA RESULT:      -6.3      2.969      4.276
  Name = 
  11 active torsions:
  status: ('A' for Active; 'I' for Inactive)
    1  A    between atoms: C_3  and  C_9
    2  A    between atoms: C_3  and  C_35
    3  A    between atoms: C_7  and  N_16
    4  A    between atoms: C_8  and  C_20
    5  A    between atoms: C_12  and  N_21
    6  A    between atoms: C_13  and  N_17
    7  A    between atoms: N_16  and  N_22
    8  A    between atoms: N_17  and  C_34
    9  A    between atoms: C_18  and  N_22
   10  A    between atoms: N_31  and  C_32
   11  A    between atoms: C_34  and  C_35
                            x       y       z     vdW  Elec       q    Type
                         _______ _______ _______ _____ _____    ______ ____

>  <TORSDO>
F 11

$$$$
=
 OpenBabel11052410303D

 35 37  0  0  1  0  0  0  0  0999 V2000
  161.2610  206.4960  152.8070 C   0  0  0  0  0  0  0  0  0  0  0  0
  161.1380  208.7380  153.2160 C   0  0  0  0  0  0  0  0  0  0  0  0
  161.0260  208.1750  154.3740 N   0  0  0  0  0  0  0  0  0  0  0  0
  161.2750  207.7880  152.0730 C   0  0  1  0  0  3  0  0  0  0  0  0
  160.9460  205.3900  152.2420 N   0  0  0  0  0  2  0  0  0  0  0  0
  161.0570  206.7270  154.2650 C   0  0  0  0  0  2  0  0  0  0  0  0
  161.0900  210.1590  153.0760 N   0  0  0  0  0  2  0  0  0  0  0  0
  161.1980  211.3190  150.7420 C   0  0  0  0  0  0  0  0  0  0  0  0
  161.1460  210.7870  151.8230 C   0  0  0  0  0  0  0  0  0  0  0  0
  161.4040  213.1590  146.9410 C   0  0  0  0  0  3  0  0  0  0  0  0
  162.4210  211.8110  148.6750 C   0  0  0  0  0  3  0  0  0  0  0  0
  161.2670  211.9440  149.4530 C   0  0  0  0  0  0  0  0  0  0  0  0
  160.2420  213.2960  147.7160 C   0  0  0  0  0  0  0  0  0  0  0  0
  162.4890  212.4180  147.4180 C   0  0  0  0  0  3  0  0  0  0  0  0
  160.1820  212.6840  148.9740 C   0  0  0  0  0  3  0  0  0  0  0  0
  156.8350  214.4520  146.2520 C   0  0  0  0  0  1  0  0  0  0  0  0
  159.1080  214.0460  147.2590 N   0  0  0  0  0  2  0  0  0  0  0  0
  157.9220  213.5200  146.6520 C   0  0  0  0  0  0  0  0  0  0  0  0
  157.7800  212.2860  146.4500 O   0  0  0  0  0  0  0  0  0  0  0  0
  162.5680  207.9640  151.4320 N   0  0  0  0  0  2  0  0  0  0  0  0
  162.5820  207.1230  150.3110 N   0  0  0  0  0  2  0  0  0  0  0  0
  161.5830  207.6320  149.3840 C   0  0  2  0  0  3  0  0  0  0  0  0
  162.6110  206.5690  147.3360 C   0  0  0  0  0  2  0  0  0  0  0  0
  161.4030  205.6430  147.2170 C   0  0  2  0  0  3  0  0  0  0  0  0
  160.4080  206.6580  149.2790 C   0  0  0  0  0  2  0  0  0  0  0  0
  162.2050  207.8810  148.0050 C   0  0  0  0  0  2  0  0  0  0  0  0
  160.8280  205.3550  148.5990 C   0  0  0  0  0  2  0  0  0  0  0  0
  161.8030  204.3930  146.5910 N   0  0  0  0  0  2  0  0  0  0  0  0
  161.7260  203.3480  147.6030 C   0  0  0  0  0  2  0  0  0  0  0  0
  161.1700  201.6870  146.0050 O   0  0  0  0  0  1  0  0  0  0  0  0
  160.7250  202.2750  147.1900 C   0  0  1  0  0  3  0  0  0  0  0  0
  160.5780  201.2090  148.2780 C   0  0  1  0  0  3  0  0  0  0  0  0
  161.5550  200.2220  148.1240 O   0  0  0  0  0  1  0  0  0  0  0  0
  160.7170  201.8250  149.6340 C   0  0  0  0  0  3  0  0  0  0  0  0
  161.3320  201.2440  150.5130 O   0  0  0  0  0  0  0  0  0  0  0  0
  1  6  1  0  0  0  0
  2  3  2  0  0  0  0
  4 20  1  1  0  0  0
  4  1  1  0  0  0  0
  4  2  1  0  0  0  0
  5  1  2  0  0  0  0
  6  3  1  0  0  0  0
  7  2  1  0  0  0  0
  8  9  3  0  0  0  0
  9  7  1  0  0  0  0
 10 14  2  0  0  0  0
 10 13  1  0  0  0  0
 11 12  2  0  0  0  0
 12  8  1  0  0  0  0
 13 15  2  0  0  0  0
 14 11  1  0  0  0  0
 15 12  1  0  0  0  0
 16 18  1  0  0  0  0
 17 13  1  0  0  0  0
 18 17  1  0  0  0  0
 19 18  2  0  0  0  0
 21 20  1  0  0  0  0
 22 21  1  1  0  0  0
 23 26  1  0  0  0  0
 24 28  1  1  0  0  0
 24 23  1  0  0  0  0
 24 27  1  0  0  0  0
 25 22  1  0  0  0  0
 26 22  1  0  0  0  0
 27 25  1  0  0  0  0
 28 29  1  0  0  0  0
 31 30  1  6  0  0  0
 31 29  1  0  0  0  0
 31 32  1  0  0  0  0
 32 33  1  6  0  0  0
 32 34  1  0  0  0  0
 34 35  2  0  0  0  0
M  END
>  <MODEL>
6

>  <REMARK>
 VINA RESULT:      -6.1      2.044      3.281
  Name = 
  11 active torsions:
  status: ('A' for Active; 'I' for Inactive)
    1  A    between atoms: C_3  and  C_9
    2  A    between atoms: C_3  and  C_35
    3  A    between atoms: C_7  and  N_16
    4  A    between atoms: C_8  and  C_20
    5  A    between atoms: C_12  and  N_21
    6  A    between atoms: C_13  and  N_17
    7  A    between atoms: N_16  and  N_22
    8  A    between atoms: N_17  and  C_34
    9  A    between atoms: C_18  and  N_22
   10  A    between atoms: N_31  and  C_32
   11  A    between atoms: C_34  and  C_35
                            x       y       z     vdW  Elec       q    Type
                         _______ _______ _______ _____ _____    ______ ____

>  <TORSDO>
F 11

$$$$
=
 OpenBabel11052410303D

 35 37  0  0  1  0  0  0  0  0999 V2000
  162.5970  210.5810  156.0710 C   0  0  0  0  0  0  0  0  0  0  0  0
  161.4960  208.7020  155.3910 C   0  0  0  0  0  0  0  0  0  0  0  0
  161.3700  208.7220  156.6770 N   0  0  0  0  0  0  0  0  0  0  0  0
  162.2920  209.8310  154.8250 C   0  0  1  0  0  3  0  0  0  0  0  0
  163.5860  211.3920  156.1580 N   0  0  0  0  0  2  0  0  0  0  0  0
  162.0560  209.8630  157.2590 C   0  0  0  0  0  2  0  0  0  0  0  0
  160.9380  207.6440  154.6080 N   0  0  0  0  0  2  0  0  0  0  0  0
  161.2820  207.5030  152.0270 C   0  0  0  0  0  0  0  0  0  0  0  0
  161.1180  207.5690  153.2190 C   0  0  0  0  0  0  0  0  0  0  0  0
  161.8910  207.2760  147.8490 C   0  0  0  0  0  3  0  0  0  0  0  0
  162.0490  208.5080  149.9260 C   0  0  0  0  0  3  0  0  0  0  0  0
  161.4870  207.4250  150.6090 C   0  0  0  0  0  0  0  0  0  0  0  0
  161.3280  206.1840  148.5280 C   0  0  0  0  0  0  0  0  0  0  0  0
  162.2510  208.4330  148.5460 C   0  0  0  0  0  3  0  0  0  0  0  0
  161.1300  206.2680  149.9110 C   0  0  0  0  0  3  0  0  0  0  0  0
  161.2010  202.9760  146.3430 C   0  0  0  0  0  1  0  0  0  0  0  0
  160.9490  204.9800  147.8480 N   0  0  0  0  0  2  0  0  0  0  0  0
  161.7590  204.2140  146.9480 C   0  0  0  0  0  0  0  0  0  0  0  0
  162.9310  204.5670  146.6580 O   0  0  0  0  0  0  0  0  0  0  0  0
  161.4540  210.6470  153.9630 N   0  0  0  0  0  2  0  0  0  0  0  0
  160.4380  211.1760  154.7710 N   0  0  0  0  0  2  0  0  0  0  0  0
  159.1820  210.9680  154.0680 C   0  0  2  0  0  3  0  0  0  0  0  0
  158.7930  213.4130  153.5670 C   0  0  0  0  0  2  0  0  0  0  0  0
  158.9990  213.1350  152.0790 C   0  0  2  0  0  3  0  0  0  0  0  0
  159.4390  210.7210  152.5800 C   0  0  0  0  0  2  0  0  0  0  0  0
  158.2490  212.1670  154.2650 C   0  0  0  0  0  2  0  0  0  0  0  0
  159.9740  211.9780  151.8940 C   0  0  0  0  0  2  0  0  0  0  0  0
  159.5290  214.3220  151.4280 N   0  0  0  0  0  2  0  0  0  0  0  0
  159.0820  214.3000  150.0410 C   0  0  0  0  0  2  0  0  0  0  0  0
  161.4410  214.4490  149.8510 O   0  0  0  0  0  1  0  0  0  0  0  0
  160.2750  214.3290  149.0930 C   0  0  1  0  0  3  0  0  0  0  0  0
  160.3350  213.0580  148.2420 C   0  0  1  0  0  3  0  0  0  0  0  0
  159.5390  213.2000  147.1030 O   0  0  0  0  0  1  0  0  0  0  0  0
  161.7430  212.7790  147.8210 C   0  0  0  0  0  3  0  0  0  0  0  0
  162.2790  213.4690  146.9700 O   0  0  0  0  0  0  0  0  0  0  0  0
  1  5  2  0  0  0  0
  1  6  1  0  0  0  0
  2  3  2  0  0  0  0
  3  6  1  0  0  0  0
  4 20  1  6  0  0  0
  4  2  1  0  0  0  0
  4  1  1  0  0  0  0
  7  2  1  0  0  0  0
  8  9  3  0  0  0  0
  9  7  1  0  0  0  0
 10 13  2  0  0  0  0
 10 14  1  0  0  0  0
 11 12  1  0  0  0  0
 12  8  1  0  0  0  0
 13 15  1  0  0  0  0
 14 11  2  0  0  0  0
 15 12  2  0  0  0  0
 16 18  1  0  0  0  0
 17 13  1  0  0  0  0
 18 17  1  0  0  0  0
 19 18  2  0  0  0  0
 20 21  1  0  0  0  0
 22 26  1  0  0  0  0
 22 21  1  1  0  0  0
 23 26  1  0  0  0  0
 24 28  1  6  0  0  0
 24 23  1  0  0  0  0
 25 22  1  0  0  0  0
 27 24  1  0  0  0  0
 27 25  1  0  0  0  0
 29 28  1  0  0  0  0
 31 30  1  1  0  0  0
 31 29  1  0  0  0  0
 32 33  1  6  0  0  0
 32 31  1  0  0  0  0
 34 32  1  0  0  0  0
 35 34  2  0  0  0  0
M  END
>  <MODEL>
7

>  <REMARK>
 VINA RESULT:      -5.9      1.669      7.339
  Name = 
  11 active torsions:
  status: ('A' for Active; 'I' for Inactive)
    1  A    between atoms: C_3  and  C_9
    2  A    between atoms: C_3  and  C_35
    3  A    between atoms: C_7  and  N_16
    4  A    between atoms: C_8  and  C_20
    5  A    between atoms: C_12  and  N_21
    6  A    between atoms: C_13  and  N_17
    7  A    between atoms: N_16  and  N_22
    8  A    between atoms: N_17  and  C_34
    9  A    between atoms: C_18  and  N_22
   10  A    between atoms: N_31  and  C_32
   11  A    between atoms: C_34  and  C_35
                            x       y       z     vdW  Elec       q    Type
                         _______ _______ _______ _____ _____    ______ ____

>  <TORSDO>
F 11

$$$$
=
 OpenBabel11052410303D

 35 37  0  0  1  0  0  0  0  0999 V2000
  160.6230  210.4420  152.0290 C   0  0  0  0  0  0  0  0  0  0  0  0
  161.7390  209.3390  150.3720 C   0  0  0  0  0  0  0  0  0  0  0  0
  162.0050  210.5910  150.1860 N   0  0  0  0  0  0  0  0  0  0  0  0
  160.8280  209.0600  151.5210 C   0  0  1  0  0  3  0  0  0  0  0  0
  159.6080  210.7660  152.7430 N   0  0  0  0  0  2  0  0  0  0  0  0
  161.3280  211.4270  151.1620 C   0  0  0  0  0  2  0  0  0  0  0  0
  162.2630  208.3340  149.5020 N   0  0  0  0  0  2  0  0  0  0  0  0
  161.6480  205.8140  149.7690 C   0  0  0  0  0  0  0  0  0  0  0  0
  161.9370  206.9780  149.6480 C   0  0  0  0  0  0  0  0  0  0  0  0
  160.6020  201.7380  150.1880 C   0  0  0  0  0  3  0  0  0  0  0  0
  161.2750  203.8410  151.1780 C   0  0  0  0  0  3  0  0  0  0  0  0
  161.2940  204.4310  149.9100 C   0  0  0  0  0  0  0  0  0  0  0  0
  160.6170  202.3230  148.9120 C   0  0  0  0  0  0  0  0  0  0  0  0
  160.9300  202.4950  151.3170 C   0  0  0  0  0  3  0  0  0  0  0  0
  160.9650  203.6730  148.7830 C   0  0  0  0  0  3  0  0  0  0  0  0
  160.2770  200.9670  145.2880 C   0  0  0  0  0  1  0  0  0  0  0  0
  160.2850  201.5790  147.7320 N   0  0  0  0  0  2  0  0  0  0  0  0
  160.7100  201.8620  146.3930 C   0  0  0  0  0  0  0  0  0  0  0  0
  161.4420  202.8530  146.1330 O   0  0  0  0  0  0  0  0  0  0  0  0
  161.5230  208.2750  152.5280 N   0  0  0  0  0  2  0  0  0  0  0  0
  160.5830  207.9680  153.5200 N   0  0  0  0  0  2  0  0  0  0  0  0
  161.3240  207.7040  154.7440 C   0  0  2  0  0  3  0  0  0  0  0  0
  160.9560  210.0000  155.7320 C   0  0  0  0  0  2  0  0  0  0  0  0
  160.0800  209.3840  156.8220 C   0  0  2  0  0  3  0  0  0  0  0  0
  160.3990  207.1150  155.8110 C   0  0  0  0  0  2  0  0  0  0  0  0
  161.9930  208.9850  155.2550 C   0  0  0  0  0  2  0  0  0  0  0  0
  159.3730  208.1440  156.2850 C   0  0  0  0  0  2  0  0  0  0  0  0
  159.0880  210.3530  157.2590 N   0  0  0  0  0  2  0  0  0  0  0  0
  158.8960  211.3080  156.1750 C   0  0  0  0  0  2  0  0  0  0  0  0
  157.6010  213.1230  156.9800 O   0  0  0  0  0  1  0  0  0  0  0  0
  157.5090  211.9350  156.2530 C   0  0  1  0  0  3  0  0  0  0  0  0
  156.9530  212.2210  154.8570 C   0  0  1  0  0  3  0  0  0  0  0  0
  155.5930  211.9040  154.8030 O   0  0  0  0  0  1  0  0  0  0  0  0
  157.1300  213.6650  154.5090 C   0  0  0  0  0  3  0  0  0  0  0  0
  157.6910  213.9830  153.4740 O   0  0  0  0  0  0  0  0  0  0  0  0
  1  5  2  0  0  0  0
  2  4  1  0  0  0  0
  3  2  2  0  0  0  0
  3  6  1  0  0  0  0
  4  1  1  0  0  0  0
  4 20  1  1  0  0  0
  6  1  1  0  0  0  0
  7  9  1  0  0  0  0
  7  2  1  0  0  0  0
  8 12  1  0  0  0  0
  9  8  3  0  0  0  0
 10 14  1  0  0  0  0
 11 14  2  0  0  0  0
 12 11  1  0  0  0  0
 13 10  2  0  0  0  0
 15 13  1  0  0  0  0
 15 12  2  0  0  0  0
 16 18  1  0  0  0  0
 17 13  1  0  0  0  0
 18 17  1  0  0  0  0
 19 18  2  0  0  0  0
 20 21  1  0  0  0  0
 22 21  1  6  0  0  0
 22 26  1  0  0  0  0
 22 25  1  0  0  0  0
 23 24  1  0  0  0  0
 24 28  1  6  0  0  0
 25 27  1  0  0  0  0
 26 23  1  0  0  0  0
 27 24  1  0  0  0  0
 29 31  1  0  0  0  0
 29 28  1  0  0  0  0
 31 30  1  1  0  0  0
 32 33  1  1  0  0  0
 32 31  1  0  0  0  0
 34 32  1  0  0  0  0
 35 34  2  0  0  0  0
M  END
>  <MODEL>
8

>  <REMARK>
 VINA RESULT:      -5.8      3.393      9.386
  Name = 
  11 active torsions:
  status: ('A' for Active; 'I' for Inactive)
    1  A    between atoms: C_3  and  C_9
    2  A    between atoms: C_3  and  C_35
    3  A    between atoms: C_7  and  N_16
    4  A    between atoms: C_8  and  C_20
    5  A    between atoms: C_12  and  N_21
    6  A    between atoms: C_13  and  N_17
    7  A    between atoms: N_16  and  N_22
    8  A    between atoms: N_17  and  C_34
    9  A    between atoms: C_18  and  N_22
   10  A    between atoms: N_31  and  C_32
   11  A    between atoms: C_34  and  C_35
                            x       y       z     vdW  Elec       q    Type
                         _______ _______ _______ _____ _____    ______ ____

>  <TORSDO>
F 11

$$$$
=
 OpenBabel11052410303D

 35 37  0  0  1  0  0  0  0  0999 V2000
  161.5760  204.6200  150.2760 C   0  0  0  0  0  0  0  0  0  0  0  0
  161.0690  204.7200  152.4990 C   0  0  0  0  0  0  0  0  0  0  0  0
  160.9810  203.4690  152.1870 N   0  0  0  0  0  0  0  0  0  0  0  0
  161.4250  205.6210  151.3640 C   0  0  1  0  0  3  0  0  0  0  0  0
  161.4770  204.9340  149.0370 N   0  0  0  0  0  2  0  0  0  0  0  0
  161.2520  203.2540  150.7760 C   0  0  0  0  0  2  0  0  0  0  0  0
  160.8010  205.1720  153.8280 N   0  0  0  0  0  2  0  0  0  0  0  0
  160.8440  207.7000  154.4670 C   0  0  0  0  0  0  0  0  0  0  0  0
  160.8290  206.5310  154.1730 C   0  0  0  0  0  0  0  0  0  0  0  0
  160.8740  211.8050  155.4790 C   0  0  0  0  0  3  0  0  0  0  0  0
  161.7960  209.5800  155.7200 C   0  0  0  0  0  3  0  0  0  0  0  0
  160.8530  209.0930  154.8100 C   0  0  0  0  0  0  0  0  0  0  0  0
  159.9260  211.3230  154.5650 C   0  0  0  0  0  0  0  0  0  0  0  0
  161.8070  210.9370  156.0550 C   0  0  0  0  0  3  0  0  0  0  0  0
  159.9230  209.9630  154.2350 C   0  0  0  0  0  3  0  0  0  0  0  0
  157.9370  213.6640  152.1860 C   0  0  0  0  0  1  0  0  0  0  0  0
  158.9560  212.1840  153.9530 N   0  0  0  0  0  2  0  0  0  0  0  0
  159.0550  212.8100  152.6680 C   0  0  0  0  0  0  0  0  0  0  0  0
  160.0690  212.6530  151.9390 O   0  0  0  0  0  0  0  0  0  0  0  0
  162.7090  206.2560  151.6160 N   0  0  0  0  0  2  0  0  0  0  0  0
  162.8360  207.2940  150.6840 N   0  0  0  0  0  2  0  0  0  0  0  0
  161.5180  207.8900  150.5260 C   0  0  2  0  0  3  0  0  0  0  0  0
  162.3310  210.2780  150.6600 C   0  0  0  0  0  2  0  0  0  0  0  0
  161.9580  210.4830  149.1930 C   0  0  2  0  0  3  0  0  0  0  0  0
  161.2030  208.0990  149.0430 C   0  0  0  0  0  2  0  0  0  0  0  0
  161.4320  209.2160  151.2900 C   0  0  0  0  0  2  0  0  0  0  0  0
  162.1040  209.1710  148.4300 C   0  0  0  0  0  2  0  0  0  0  0  0
  162.8280  211.4850  148.6010 N   0  0  0  0  0  2  0  0  0  0  0  0
  162.0140  212.3070  147.7140 C   0  0  0  0  0  2  0  0  0  0  0  0
  161.4610  214.1910  149.0430 O   0  0  0  0  0  1  0  0  0  0  0  0
  160.9220  213.0240  148.4990 C   0  0  1  0  0  3  0  0  0  0  0  0
  159.7320  213.3680  147.6020 C   0  0  1  0  0  3  0  0  0  0  0  0
  159.6420  212.4580  146.5460 O   0  0  0  0  0  1  0  0  0  0  0  0
  158.4590  213.3310  148.3860 C   0  0  0  0  0  3  0  0  0  0  0  0
  157.4060  213.0470  147.8380 O   0  0  0  0  0  0  0  0  0  0  0  0
  1  6  1  0  0  0  0
  1  4  1  0  0  0  0
  2  7  1  0  0  0  0
  3  2  2  0  0  0  0
  4 20  1  1  0  0  0
  4  2  1  0  0  0  0
  5  1  2  0  0  0  0
  6  3  1  0  0  0  0
  7  9  1  0  0  0  0
  8 12  1  0  0  0  0
  9  8  3  0  0  0  0
 10 14  1  0  0  0  0
 11 14  2  0  0  0  0
 12 11  1  0  0  0  0
 13 10  2  0  0  0  0
 15 13  1  0  0  0  0
 15 12  2  0  0  0  0
 16 18  1  0  0  0  0
 17 13  1  0  0  0  0
 18 17  1  0  0  0  0
 19 18  2  0  0  0  0
 21 20  1  0  0  0  0
 22 21  1  6  0  0  0
 22 26  1  0  0  0  0
 23 26  1  0  0  0  0
 24 28  1  6  0  0  0
 24 23  1  0  0  0  0
 25 22  1  0  0  0  0
 27 25  1  0  0  0  0
 27 24  1  0  0  0  0
 29 31  1  0  0  0  0
 29 28  1  0  0  0  0
 31 30  1  6  0  0  0
 32 33  1  6  0  0  0
 32 34  1  0  0  0  0
 32 31  1  0  0  0  0
 35 34  2  0  0  0  0
M  END
>  <MODEL>
9

>  <REMARK>
 VINA RESULT:      -5.8      3.337      6.727
  Name = 
  11 active torsions:
  status: ('A' for Active; 'I' for Inactive)
    1  A    between atoms: C_3  and  C_9
    2  A    between atoms: C_3  and  C_35
    3  A    between atoms: C_7  and  N_16
    4  A    between atoms: C_8  and  C_20
    5  A    between atoms: C_12  and  N_21
    6  A    between atoms: C_13  and  N_17
    7  A    between atoms: N_16  and  N_22
    8  A    between atoms: N_17  and  C_34
    9  A    between atoms: C_18  and  N_22
   10  A    between atoms: N_31  and  C_32
   11  A    between atoms: C_34  and  C_35
                            x       y       z     vdW  Elec       q    Type
                         _______ _______ _______ _____ _____    ______ ____

>  <TORSDO>
F 11

$$$$
