=
 OpenBabel11042420523D

 52 58  0  0  1  0  0  0  0  0999 V2000
  160.9260  211.2750  151.8020 C   0  0  1  0  0  3  0  0  0  0  0  0
  161.6850  207.8620  153.3860 C   0  0  0  0  0  3  0  0  0  0  0  0
  160.7860  208.8970  150.9630 C   0  0  0  0  0  3  0  0  0  0  0  0
  160.9490  207.5190  151.1080 C   0  0  0  0  0  0  0  0  0  0  0  0
  161.5470  209.2540  153.2490 C   0  0  0  0  0  0  0  0  0  0  0  0
  161.0660  209.7780  152.0210 C   0  0  0  0  0  0  0  0  0  0  0  0
  161.3870  207.0010  152.3260 C   0  0  0  0  0  3  0  0  0  0  0  0
  161.9570  210.1340  154.3780 C   0  0  0  0  0  0  0  0  0  0  0  0
  161.4690  211.4600  156.3790 C   0  0  0  0  0  0  0  0  0  0  0  0
  163.3250  210.3690  154.5970 C   0  0  0  0  0  3  0  0  0  0  0  0
  163.7620  211.1290  155.6850 C   0  0  0  0  0  3  0  0  0  0  0  0
  162.8360  211.6650  156.5820 C   0  0  0  0  0  3  0  0  0  0  0  0
  161.0170  210.7170  155.2670 C   0  0  0  0  0  0  0  0  0  0  0  0
  159.6370  210.5710  155.0960 C   0  0  0  0  0  3  0  0  0  0  0  0
  158.7490  211.1440  156.0090 C   0  0  0  0  0  0  0  0  0  0  0  0
  159.2590  211.8190  157.0810 N   0  0  0  0  0  0  0  0  0  0  0  0
  160.5700  211.9730  157.2590 N   0  0  0  0  0  0  0  0  0  0  0  0
  156.7790  210.9360  154.5480 N   0  0  0  0  0  0  0  0  0  0  0  0
  154.6040  210.8390  155.4150 N   0  0  0  0  0  0  0  0  0  0  0  0
  155.4450  210.8250  154.3470 C   0  0  0  0  0  3  0  0  0  0  0  0
  155.0750  210.9620  156.6570 N   0  0  0  0  0  0  0  0  0  0  0  0
  157.2880  211.0690  155.8040 C   0  0  0  0  0  0  0  0  0  0  0  0
  156.4090  211.0800  156.8910 C   0  0  0  0  0  3  0  0  0  0  0  0
  160.6390  206.6050  149.9740 C   0  0  0  0  0  2  0  0  0  0  0  0
  161.4000  206.9530  148.8570 O   0  0  0  0  0  0  0  0  0  0  0  0
  161.0520  204.6040  148.8020 C   0  0  0  0  0  1  0  0  0  0  0  0
  161.2790  205.8640  147.9950 C   0  0  0  0  0  2  0  0  0  0  0  0
  162.0240  212.5170  147.8170 C   0  0  0  0  0  0  0  0  0  0  0  0
  162.4500  211.2850  148.3270 C   0  0  0  0  0  3  0  0  0  0  0  0
  162.0750  210.8910  149.6140 C   0  0  0  0  0  3  0  0  0  0  0  0
  161.2510  213.3670  148.6160 C   0  0  0  0  0  3  0  0  0  0  0  0
  160.8850  212.9770  149.9100 C   0  0  0  0  0  3  0  0  0  0  0  0
  161.2790  211.7230  150.4080 C   0  0  0  0  0  0  0  0  0  0  0  0
  162.4540  212.9710  146.4580 C   0  0  0  0  0  2  0  0  0  0  0  0
  161.3440  212.9080  145.5090 N   0  0  0  0  0  2  0  0  0  0  0  0
  161.7150  213.6950  144.3350 C   0  0  2  0  0  3  0  0  0  0  0  0
  163.2250  213.6580  142.5260 N   0  0  0  0  0  2  0  0  0  0  0  0
  160.9360  213.3610  143.1470 N   0  0  2  0  0  0  0  0  0  0  0  0
  163.1570  213.4830  143.9650 C   0  0  0  0  0  2  0  0  0  0  0  0
  160.7350  211.5760  141.7540 N   0  0  0  0  0  2  0  0  0  0  0  0
  160.6890  211.9720  143.1030 N   0  0  0  0  0  2  0  0  0  0  0  0
  161.6700  212.4710  141.1030 C   0  0  0  0  0  2  0  0  0  0  0  0
  161.8430  213.6260  142.0400 C   0  0  2  0  0  3  0  0  0  0  0  0
  159.6120  211.8580  152.2430 C   0  0  0  0  0  3  0  0  0  0  0  0
  159.3970  213.1730  152.2100 C   0  0  0  0  0  3  0  0  0  0  0  0
  157.8060  213.8350  152.6890 S   0  0  0  0  0  0  0  0  0  0  0  0
  157.0120  213.5560  150.1430 N   0  0  0  0  0  0  0  0  0  0  0  0
  157.4680  214.3880  151.0230 C   0  0  0  0  0  3  0  0  0  0  0  0
  155.5930  214.2970  148.4250 O   0  0  0  0  0  0  0  0  0  0  0  0
  156.7510  213.9450  148.7900 C   0  0  0  0  0  0  0  0  0  0  0  0
  157.7000  212.8100  146.8210 C   0  0  0  0  0  1  0  0  0  0  0  0
  157.8640  213.9640  147.8000 C   0  0  0  0  0  2  0  0  0  0  0  0
  1  6  1  0  0  0  0
  1 44  1  6  0  0  0
  3  4  2  0  0  0  0
  3  6  1  0  0  0  0
  4  7  1  0  0  0  0
  5  2  1  0  0  0  0
  5  8  1  0  0  0  0
  6  5  2  0  0  0  0
  7  2  2  0  0  0  0
  8 10  2  0  0  0  0
  8 13  1  0  0  0  0
  9 12  1  0  0  0  0
  9 17  1  0  0  0  0
 10 11  1  0  0  0  0
 11 12  2  0  0  0  0
 13  9  2  0  0  0  0
 14 13  1  0  0  0  0
 14 15  2  0  0  0  0
 15 16  1  0  0  0  0
 16 17  2  0  0  0  0
 18 22  1  0  0  0  0
 19 21  2  0  0  0  0
 20 18  2  0  0  0  0
 20 19  1  0  0  0  0
 21 23  1  0  0  0  0
 22 15  1  0  0  0  0
 22 23  2  0  0  0  0
 24  4  1  0  0  0  0
 25 24  1  0  0  0  0
 27 26  1  0  0  0  0
 27 25  1  0  0  0  0
 28 29  2  0  0  0  0
 28 31  1  0  0  0  0
 29 30  1  0  0  0  0
 30 33  2  0  0  0  0
 31 32  2  0  0  0  0
 32 33  1  0  0  0  0
 33  1  1  0  0  0  0
 34 28  1  0  0  0  0
 35 34  1  0  0  0  0
 36 35  1  1  0  0  0
 37 39  1  0  0  0  0
 38 41  1  1  0  0  0
 38 36  1  0  0  0  0
 39 36  1  0  0  0  0
 40 41  1  0  0  0  0
 42 40  1  0  0  0  0
 43 42  1  6  0  0  0
 43 37  1  0  0  0  0
 43 38  1  0  0  0  0
 45 44  2  0  0  0  0
 45 46  1  0  0  0  0
 47 48  2  0  0  0  0
 48 46  1  0  0  0  0
 49 50  2  0  0  0  0
 50 47  1  0  0  0  0
 51 52  1  0  0  0  0
 52 50  1  0  0  0  0
M  END
>  <MODEL>
1

>  <REMARK>
 VINA RESULT:      -3.8      0.000      0.000
  Name = 
  15 active torsions:
  status: ('A' for Active; 'I' for Inactive)
    1  A    between atoms: N_1  and  C_32
    2  A    between atoms: C_2  and  N_43
    3  A    between atoms: C_3  and  C_24
    4  A    between atoms: C_8  and  C_34
    5  A    between atoms: C_10  and  C_19
    6  A    between atoms: C_10  and  O_26
    7  A    between atoms: C_14  and  C_27
    8  A    between atoms: C_14  and  C_31
    9  A    between atoms: C_14  and  C_50
   10  A    between atoms: C_18  and  C_42
   11  A    between atoms: S_25  and  C_37
   12  A    between atoms: S_25  and  C_52
   13  A    between atoms: O_26  and  C_47
   14  A    between atoms: C_32  and  C_36
   15  A    between atoms: C_34  and  N_43
                            x       y       z     vdW  Elec       q    Type
                         _______ _______ _______ _____ _____    ______ ____

>  <TORSDO>
F 15

$$$$
=
 OpenBabel11042420523D

 52 58  0  0  1  0  0  0  0  0999 V2000
  161.3560  209.8730  153.1160 C   0  0  1  0  0  3  0  0  0  0  0  0
  161.2440  207.8130  156.3530 C   0  0  0  0  0  3  0  0  0  0  0  0
  160.8140  207.4600  153.6250 C   0  0  0  0  0  3  0  0  0  0  0  0
  160.6770  206.3760  154.4930 C   0  0  0  0  0  0  0  0  0  0  0  0
  161.4070  208.9100  155.4900 C   0  0  0  0  0  0  0  0  0  0  0  0
  161.1650  208.7330  154.1030 C   0  0  0  0  0  0  0  0  0  0  0  0
  160.8800  206.5570  155.8600 C   0  0  0  0  0  3  0  0  0  0  0  0
  161.8790  210.2060  156.0510 C   0  0  0  0  0  0  0  0  0  0  0  0
  161.4810  212.4520  156.9470 C   0  0  0  0  0  0  0  0  0  0  0  0
  163.2400  210.3600  156.3630 C   0  0  0  0  0  3  0  0  0  0  0  0
  163.7170  211.5310  156.9570 C   0  0  0  0  0  3  0  0  0  0  0  0
  162.8370  212.5710  157.2600 C   0  0  0  0  0  3  0  0  0  0  0  0
  160.9950  211.2830  156.3200 C   0  0  0  0  0  0  0  0  0  0  0  0
  159.6340  211.2310  156.0010 C   0  0  0  0  0  3  0  0  0  0  0  0
  158.7970  212.3070  156.3050 C   0  0  0  0  0  0  0  0  0  0  0  0
  159.3300  213.3900  156.9440 N   0  0  0  0  0  0  0  0  0  0  0  0
  160.6240  213.4610  157.2520 N   0  0  0  0  0  0  0  0  0  0  0  0
  156.8330  213.3940  155.2950 N   0  0  0  0  0  0  0  0  0  0  0  0
  154.7810  212.2830  155.0820 N   0  0  0  0  0  0  0  0  0  0  0  0
  155.5420  213.3910  154.8860 C   0  0  0  0  0  3  0  0  0  0  0  0
  155.2870  211.1990  155.6720 N   0  0  0  0  0  0  0  0  0  0  0  0
  157.3750  212.3040  155.9050 C   0  0  0  0  0  0  0  0  0  0  0  0
  156.5770  211.1720  156.0970 C   0  0  0  0  0  3  0  0  0  0  0  0
  160.2970  205.0360  153.9640 C   0  0  0  0  0  2  0  0  0  0  0  0
  161.2230  204.6200  153.0060 O   0  0  0  0  0  0  0  0  0  0  0  0
  161.3620  203.8780  150.7540 C   0  0  0  0  0  1  0  0  0  0  0  0
  160.4540  204.3070  151.8860 C   0  0  0  0  0  2  0  0  0  0  0  0
  161.9160  208.4890  149.0670 C   0  0  0  0  0  0  0  0  0  0  0  0
  161.3190  207.6670  150.0290 C   0  0  0  0  0  3  0  0  0  0  0  0
  161.1330  208.1340  151.3330 C   0  0  0  0  0  3  0  0  0  0  0  0
  162.3560  209.7680  149.4250 C   0  0  0  0  0  3  0  0  0  0  0  0
  162.1800  210.2320  150.7340 C   0  0  0  0  0  3  0  0  0  0  0  0
  161.5450  209.4210  151.6920 C   0  0  0  0  0  0  0  0  0  0  0  0
  162.1620  207.9870  147.6790 C   0  0  0  0  0  2  0  0  0  0  0  0
  162.2310  206.5280  147.6540 N   0  0  0  0  0  2  0  0  0  0  0  0
  161.4950  206.0660  146.4780 C   0  0  2  0  0  3  0  0  0  0  0  0
  161.8060  204.7680  144.5360 N   0  0  0  0  0  2  0  0  0  0  0  0
  160.7880  204.8090  146.6970 N   0  0  2  0  0  0  0  0  0  0  0  0
  162.4160  205.8320  145.3130 C   0  0  0  0  0  2  0  0  0  0  0  0
  161.3540  202.6380  147.0630 N   0  0  0  0  0  2  0  0  0  0  0  0
  161.5570  203.9540  147.5160 N   0  0  0  0  0  2  0  0  0  0  0  0
  161.0980  202.7370  145.6400 C   0  0  0  0  0  2  0  0  0  0  0  0
  160.7720  204.1760  145.3870 C   0  0  2  0  0  3  0  0  0  0  0  0
  160.3280  210.9660  153.2070 C   0  0  0  0  0  3  0  0  0  0  0  0
  160.3270  211.9830  152.3450 C   0  0  0  0  0  3  0  0  0  0  0  0
  159.0600  213.2420  152.4420 S   0  0  0  0  0  0  0  0  0  0  0  0
  160.2650  213.1650  150.0480 N   0  0  0  0  0  0  0  0  0  0  0  0
  159.3340  213.7320  150.7450 C   0  0  0  0  0  3  0  0  0  0  0  0
  159.6430  213.4720  147.8050 O   0  0  0  0  0  0  0  0  0  0  0  0
  160.5390  213.5410  148.6940 C   0  0  0  0  0  0  0  0  0  0  0  0
  162.8340  212.8760  148.0980 C   0  0  0  0  0  1  0  0  0  0  0  0
  161.8920  214.0480  148.3290 C   0  0  0  0  0  2  0  0  0  0  0  0
  1 44  1  6  0  0  0
  1  6  1  0  0  0  0
  3  6  2  0  0  0  0
  3  4  1  0  0  0  0
  4  7  2  0  0  0  0
  5  8  1  0  0  0  0
  5  2  2  0  0  0  0
  6  5  1  0  0  0  0
  7  2  1  0  0  0  0
  8 13  2  0  0  0  0
  8 10  1  0  0  0  0
  9 17  1  0  0  0  0
  9 12  2  0  0  0  0
 10 11  2  0  0  0  0
 11 12  1  0  0  0  0
 13  9  1  0  0  0  0
 14 15  2  0  0  0  0
 14 13  1  0  0  0  0
 15 16  1  0  0  0  0
 16 17  2  0  0  0  0
 18 22  1  0  0  0  0
 19 21  2  0  0  0  0
 20 19  1  0  0  0  0
 20 18  2  0  0  0  0
 21 23  1  0  0  0  0
 22 23  2  0  0  0  0
 22 15  1  0  0  0  0
 24  4  1  0  0  0  0
 25 24  1  0  0  0  0
 26 27  1  0  0  0  0
 27 25  1  0  0  0  0
 28 31  2  0  0  0  0
 28 29  1  0  0  0  0
 29 30  2  0  0  0  0
 30 33  1  0  0  0  0
 31 32  1  0  0  0  0
 32 33  2  0  0  0  0
 33  1  1  0  0  0  0
 34 28  1  0  0  0  0
 35 34  1  0  0  0  0
 36 38  1  0  0  0  0
 36 35  1  1  0  0  0
 37 39  1  0  0  0  0
 37 43  1  0  0  0  0
 38 41  1  1  0  0  0
 39 36  1  0  0  0  0
 40 41  1  0  0  0  0
 42 40  1  0  0  0  0
 43 42  1  1  0  0  0
 43 38  1  0  0  0  0
 45 46  1  0  0  0  0
 45 44  2  0  0  0  0
 47 48  2  0  0  0  0
 48 46  1  0  0  0  0
 49 50  2  0  0  0  0
 50 47  1  0  0  0  0
 51 52  1  0  0  0  0
 52 50  1  0  0  0  0
M  END
>  <MODEL>
2

>  <REMARK>
 VINA RESULT:      -3.7      3.234      4.628
  Name = 
  15 active torsions:
  status: ('A' for Active; 'I' for Inactive)
    1  A    between atoms: N_1  and  C_32
    2  A    between atoms: C_2  and  N_43
    3  A    between atoms: C_3  and  C_24
    4  A    between atoms: C_8  and  C_34
    5  A    between atoms: C_10  and  C_19
    6  A    between atoms: C_10  and  O_26
    7  A    between atoms: C_14  and  C_27
    8  A    between atoms: C_14  and  C_31
    9  A    between atoms: C_14  and  C_50
   10  A    between atoms: C_18  and  C_42
   11  A    between atoms: S_25  and  C_37
   12  A    between atoms: S_25  and  C_52
   13  A    between atoms: O_26  and  C_47
   14  A    between atoms: C_32  and  C_36
   15  A    between atoms: C_34  and  N_43
                            x       y       z     vdW  Elec       q    Type
                         _______ _______ _______ _____ _____    ______ ____

>  <TORSDO>
F 15

$$$$
=
 OpenBabel11042420523D

 52 58  0  0  1  0  0  0  0  0999 V2000
  161.6220  210.3780  153.7390 C   0  0  1  0  0  3  0  0  0  0  0  0
  161.0890  206.6840  152.8400 C   0  0  0  0  0  3  0  0  0  0  0  0
  160.9380  208.3440  155.0700 C   0  0  0  0  0  3  0  0  0  0  0  0
  160.6210  206.9910  155.1920 C   0  0  0  0  0  0  0  0  0  0  0  0
  161.3910  208.0490  152.6950 C   0  0  0  0  0  0  0  0  0  0  0  0
  161.3370  208.8880  153.8380 C   0  0  0  0  0  0  0  0  0  0  0  0
  160.7080  206.1580  154.0780 C   0  0  0  0  0  3  0  0  0  0  0  0
  161.7090  208.5780  151.3400 C   0  0  0  0  0  0  0  0  0  0  0  0
  161.8380  208.3570  148.9030 C   0  0  0  0  0  0  0  0  0  0  0  0
  162.0680  209.9290  151.2030 C   0  0  0  0  0  3  0  0  0  0  0  0
  162.3050  210.4890  149.9440 C   0  0  0  0  0  3  0  0  0  0  0  0
  162.1790  209.7070  148.7950 C   0  0  0  0  0  3  0  0  0  0  0  0
  161.6240  207.7760  150.1730 C   0  0  0  0  0  0  0  0  0  0  0  0
  161.3170  206.4120  150.2240 C   0  0  0  0  0  3  0  0  0  0  0  0
  161.2240  205.6660  149.0460 C   0  0  0  0  0  0  0  0  0  0  0  0
  161.4070  206.3030  147.8520 N   0  0  0  0  0  0  0  0  0  0  0  0
  161.7050  207.6000  147.7830 N   0  0  0  0  0  0  0  0  0  0  0  0
  161.0270  203.4790  147.9350 N   0  0  0  0  0  0  0  0  0  0  0  0
  160.6190  201.5130  149.1440 N   0  0  0  0  0  0  0  0  0  0  0  0
  160.8460  202.1370  147.9580 C   0  0  0  0  0  3  0  0  0  0  0  0
  160.5720  202.2030  150.2840 N   0  0  0  0  0  0  0  0  0  0  0  0
  160.9790  204.2100  149.0820 C   0  0  0  0  0  0  0  0  0  0  0  0
  160.7460  203.5510  150.2940 C   0  0  0  0  0  3  0  0  0  0  0  0
  160.2070  206.4350  156.5110 C   0  0  0  0  0  2  0  0  0  0  0  0
  159.5510  207.4140  157.2580 O   0  0  0  0  0  0  0  0  0  0  0  0
  159.6290  209.7880  157.2600 C   0  0  0  0  0  1  0  0  0  0  0  0
  160.4250  208.5010  157.2580 C   0  0  0  0  0  2  0  0  0  0  0  0
  158.5360  212.7110  151.8260 C   0  0  0  0  0  0  0  0  0  0  0  0
  159.8530  213.1830  151.8960 C   0  0  0  0  0  3  0  0  0  0  0  0
  160.8430  212.4100  152.5070 C   0  0  0  0  0  3  0  0  0  0  0  0
  158.2110  211.4780  152.4010 C   0  0  0  0  0  3  0  0  0  0  0  0
  159.2020  210.7090  153.0240 C   0  0  0  0  0  3  0  0  0  0  0  0
  160.5320  211.1630  153.0600 C   0  0  0  0  0  0  0  0  0  0  0  0
  157.4570  213.5470  151.2140 C   0  0  0  0  0  2  0  0  0  0  0  0
  157.1820  213.1260  149.8420 N   0  0  0  0  0  2  0  0  0  0  0  0
  157.8080  214.0940  148.9440 C   0  0  2  0  0  3  0  0  0  0  0  0
  159.6540  214.2960  147.4920 N   0  0  0  0  0  2  0  0  0  0  0  0
  157.2790  214.0470  147.5850 N   0  0  2  0  0  0  0  0  0  0  0  0
  159.2880  213.8560  148.8260 C   0  0  0  0  0  2  0  0  0  0  0  0
  157.3130  212.5770  145.8510 N   0  0  0  0  0  2  0  0  0  0  0  0
  157.0040  212.7120  147.2170 N   0  0  0  0  0  2  0  0  0  0  0  0
  158.3880  213.5120  145.5870 C   0  0  0  0  0  2  0  0  0  0  0  0
  158.4010  214.4530  146.7510 C   0  0  2  0  0  3  0  0  0  0  0  0
  162.0380  211.0290  155.0280 C   0  0  0  0  0  3  0  0  0  0  0  0
  163.1840  210.7030  155.6260 C   0  0  0  0  0  3  0  0  0  0  0  0
  163.6800  211.5320  157.1300 S   0  0  0  0  0  0  0  0  0  0  0  0
  166.2810  211.9730  156.6520 N   0  0  0  0  0  0  0  0  0  0  0  0
  165.0750  212.3000  156.3170 C   0  0  0  0  0  3  0  0  0  0  0  0
  167.3220  213.2820  155.0040 O   0  0  0  0  0  0  0  0  0  0  0  0
  167.4300  212.5790  156.0490 C   0  0  0  0  0  0  0  0  0  0  0  0
  169.2970  211.0070  156.3810 C   0  0  0  0  0  1  0  0  0  0  0  0
  168.7710  212.4050  156.6750 C   0  0  0  0  0  2  0  0  0  0  0  0
  1  6  1  0  0  0  0
  1 44  1  1  0  0  0
  2  7  1  0  0  0  0
  3  4  1  0  0  0  0
  4 24  1  0  0  0  0
  5  2  2  0  0  0  0
  5  6  1  0  0  0  0
  6  3  2  0  0  0  0
  7  4  2  0  0  0  0
  8  5  1  0  0  0  0
  9 13  1  0  0  0  0
 10  8  1  0  0  0  0
 11 10  2  0  0  0  0
 12  9  2  0  0  0  0
 12 11  1  0  0  0  0
 13 14  1  0  0  0  0
 13  8  2  0  0  0  0
 15 22  1  0  0  0  0
 15 14  2  0  0  0  0
 16 15  1  0  0  0  0
 17 16  2  0  0  0  0
 17  9  1  0  0  0  0
 18 20  2  0  0  0  0
 18 22  1  0  0  0  0
 19 21  2  0  0  0  0
 20 19  1  0  0  0  0
 21 23  1  0  0  0  0
 22 23  2  0  0  0  0
 24 25  1  0  0  0  0
 27 25  1  0  0  0  0
 27 26  1  0  0  0  0
 28 29  2  0  0  0  0
 28 31  1  0  0  0  0
 29 30  1  0  0  0  0
 30 33  2  0  0  0  0
 31 32  2  0  0  0  0
 32 33  1  0  0  0  0
 33  1  1  0  0  0  0
 34 28  1  0  0  0  0
 35 34  1  0  0  0  0
 36 35  1  1  0  0  0
 37 39  1  0  0  0  0
 38 41  1  6  0  0  0
 38 36  1  0  0  0  0
 39 36  1  0  0  0  0
 40 41  1  0  0  0  0
 42 40  1  0  0  0  0
 43 42  1  6  0  0  0
 43 37  1  0  0  0  0
 43 38  1  0  0  0  0
 44 45  2  0  0  0  0
 45 46  1  0  0  0  0
 48 47  2  0  0  0  0
 48 46  1  0  0  0  0
 49 50  2  0  0  0  0
 50 47  1  0  0  0  0
 50 52  1  0  0  0  0
 51 52  1  0  0  0  0
M  END
>  <MODEL>
3

>  <REMARK>
 VINA RESULT:      -3.7      4.173      7.998
  Name = 
  15 active torsions:
  status: ('A' for Active; 'I' for Inactive)
    1  A    between atoms: N_1  and  C_32
    2  A    between atoms: C_2  and  N_43
    3  A    between atoms: C_3  and  C_24
    4  A    between atoms: C_8  and  C_34
    5  A    between atoms: C_10  and  C_19
    6  A    between atoms: C_10  and  O_26
    7  A    between atoms: C_14  and  C_27
    8  A    between atoms: C_14  and  C_31
    9  A    between atoms: C_14  and  C_50
   10  A    between atoms: C_18  and  C_42
   11  A    between atoms: S_25  and  C_37
   12  A    between atoms: S_25  and  C_52
   13  A    between atoms: O_26  and  C_47
   14  A    between atoms: C_32  and  C_36
   15  A    between atoms: C_34  and  N_43
                            x       y       z     vdW  Elec       q    Type
                         _______ _______ _______ _____ _____    ______ ____

>  <TORSDO>
F 15

$$$$
=
 OpenBabel11042420523D

 52 58  0  0  1  0  0  0  0  0999 V2000
  159.8890  213.2050  147.4440 C   0  0  1  0  0  3  0  0  0  0  0  0
  158.5380  214.0560  143.9530 C   0  0  0  0  0  3  0  0  0  0  0  0
  157.5900  213.7500  146.5530 C   0  0  0  0  0  3  0  0  0  0  0  0
  156.7080  214.1060  145.5320 C   0  0  0  0  0  0  0  0  0  0  0  0
  159.4440  213.7180  144.9730 C   0  0  0  0  0  0  0  0  0  0  0  0
  158.9540  213.5390  146.2930 C   0  0  0  0  0  0  0  0  0  0  0  0
  157.1820  214.2470  144.2290 C   0  0  0  0  0  3  0  0  0  0  0  0
  160.8920  213.6090  144.6450 C   0  0  0  0  0  0  0  0  0  0  0  0
  162.7350  213.0580  143.1270 C   0  0  0  0  0  0  0  0  0  0  0  0
  161.8370  214.1180  145.5530 C   0  0  0  0  0  3  0  0  0  0  0  0
  163.2030  214.1030  145.2570 C   0  0  0  0  0  3  0  0  0  0  0  0
  163.6500  213.5850  144.0410 C   0  0  0  0  0  3  0  0  0  0  0  0
  161.3550  213.0430  143.4290 C   0  0  0  0  0  0  0  0  0  0  0  0
  160.4870  212.4750  142.4910 C   0  0  0  0  0  3  0  0  0  0  0  0
  160.9860  211.9480  141.2970 C   0  0  0  0  0  0  0  0  0  0  0  0
  162.3280  212.0300  141.0570 N   0  0  0  0  0  0  0  0  0  0  0  0
  163.1710  212.5640  141.9400 N   0  0  0  0  0  0  0  0  0  0  0  0
  160.5440  210.2000  139.6230 N   0  0  0  0  0  0  0  0  0  0  0  0
  158.4440  209.9630  138.6110 N   0  0  0  0  0  0  0  0  0  0  0  0
  159.7280  209.5460  138.7630 C   0  0  0  0  0  3  0  0  0  0  0  0
  157.9770  211.0080  139.2950 N   0  0  0  0  0  0  0  0  0  0  0  0
  160.0970  211.2730  140.3300 C   0  0  0  0  0  0  0  0  0  0  0  0
  158.7720  211.6880  140.1620 C   0  0  0  0  0  3  0  0  0  0  0  0
  155.2630  214.3170  145.8300 C   0  0  0  0  0  2  0  0  0  0  0  0
  154.5440  214.4530  144.6420 O   0  0  0  0  0  0  0  0  0  0  0  0
  152.7140  213.3610  143.5930 C   0  0  0  0  0  1  0  0  0  0  0  0
  153.3230  213.8300  144.8970 C   0  0  0  0  0  2  0  0  0  0  0  0
  158.3800  214.1620  151.3720 C   0  0  0  0  0  0  0  0  0  0  0  0
  159.7040  214.4530  151.0220 C   0  0  0  0  0  3  0  0  0  0  0  0
  160.1740  214.1490  149.7410 C   0  0  0  0  0  3  0  0  0  0  0  0
  157.5410  213.5340  150.4450 C   0  0  0  0  0  3  0  0  0  0  0  0
  158.0150  213.2190  149.1670 C   0  0  0  0  0  3  0  0  0  0  0  0
  159.3330  213.5460  148.8000 C   0  0  0  0  0  0  0  0  0  0  0  0
  157.8760  214.4410  152.7520 C   0  0  0  0  0  2  0  0  0  0  0  0
  157.8310  213.2190  153.5520 N   0  0  0  0  0  2  0  0  0  0  0  0
  158.7760  213.3720  154.6560 C   0  0  2  0  0  3  0  0  0  0  0  0
  158.9010  213.0890  156.9920 N   0  0  0  0  0  2  0  0  0  0  0  0
  159.5860  212.1810  154.8910 N   0  0  2  0  0  0  0  0  0  0  0  0
  158.0650  213.6570  155.9500 C   0  0  0  0  0  2  0  0  0  0  0  0
  159.2310  210.0610  155.6300 N   0  0  0  0  0  2  0  0  0  0  0  0
  158.8130  211.0180  154.6880 N   0  0  0  0  0  2  0  0  0  0  0  0
  159.6750  210.8070  156.7910 C   0  0  0  0  0  2  0  0  0  0  0  0
  159.8640  212.2150  156.3190 C   0  0  2  0  0  3  0  0  0  0  0  0
  160.4450  211.8080  147.4210 C   0  0  0  0  0  3  0  0  0  0  0  0
  161.4520  211.4550  148.2180 C   0  0  0  0  0  3  0  0  0  0  0  0
  162.0580  209.7720  148.2090 S   0  0  0  0  0  0  0  0  0  0  0  0
  161.8730  208.6400  150.6330 N   0  0  0  0  0  0  0  0  0  0  0  0
  161.2890  209.4240  149.7850 C   0  0  0  0  0  3  0  0  0  0  0  0
  160.6930  209.1880  152.5880 O   0  0  0  0  0  0  0  0  0  0  0  0
  161.2840  208.3110  151.8960 C   0  0  0  0  0  0  0  0  0  0  0  0
  161.3110  206.9010  153.9150 C   0  0  0  0  0  1  0  0  0  0  0  0
  161.3420  206.9080  152.3940 C   0  0  0  0  0  2  0  0  0  0  0  0
  1 44  1  1  0  0  0
  1 33  1  0  0  0  0
  2  7  2  0  0  0  0
  2  5  1  0  0  0  0
  4 24  1  0  0  0  0
  4  3  2  0  0  0  0
  5  6  2  0  0  0  0
  6  3  1  0  0  0  0
  6  1  1  0  0  0  0
  7  4  1  0  0  0  0
  8  5  1  0  0  0  0
  8 10  1  0  0  0  0
  9 13  1  0  0  0  0
  9 12  2  0  0  0  0
 11 10  2  0  0  0  0
 12 11  1  0  0  0  0
 13  8  2  0  0  0  0
 14 13  1  0  0  0  0
 15 14  2  0  0  0  0
 16 15  1  0  0  0  0
 16 17  2  0  0  0  0
 17  9  1  0  0  0  0
 18 22  1  0  0  0  0
 19 20  1  0  0  0  0
 19 21  2  0  0  0  0
 20 18  2  0  0  0  0
 21 23  1  0  0  0  0
 22 15  1  0  0  0  0
 23 22  2  0  0  0  0
 25 27  1  0  0  0  0
 25 24  1  0  0  0  0
 26 27  1  0  0  0  0
 28 34  1  0  0  0  0
 29 28  1  0  0  0  0
 30 29  2  0  0  0  0
 31 28  2  0  0  0  0
 32 31  1  0  0  0  0
 33 32  2  0  0  0  0
 33 30  1  0  0  0  0
 34 35  1  0  0  0  0
 36 35  1  6  0  0  0
 36 38  1  0  0  0  0
 36 39  1  0  0  0  0
 38 41  1  1  0  0  0
 38 43  1  0  0  0  0
 39 37  1  0  0  0  0
 40 42  1  0  0  0  0
 41 40  1  0  0  0  0
 43 42  1  1  0  0  0
 43 37  1  0  0  0  0
 44 45  2  0  0  0  0
 46 45  1  0  0  0  0
 46 48  1  0  0  0  0
 47 50  1  0  0  0  0
 48 47  2  0  0  0  0
 50 52  1  0  0  0  0
 50 49  2  0  0  0  0
 52 51  1  0  0  0  0
M  END
>  <MODEL>
4

>  <REMARK>
 VINA RESULT:      -3.2      2.741     11.324
  Name = 
  15 active torsions:
  status: ('A' for Active; 'I' for Inactive)
    1  A    between atoms: N_1  and  C_32
    2  A    between atoms: C_2  and  N_43
    3  A    between atoms: C_3  and  C_24
    4  A    between atoms: C_8  and  C_34
    5  A    between atoms: C_10  and  C_19
    6  A    between atoms: C_10  and  O_26
    7  A    between atoms: C_14  and  C_27
    8  A    between atoms: C_14  and  C_31
    9  A    between atoms: C_14  and  C_50
   10  A    between atoms: C_18  and  C_42
   11  A    between atoms: S_25  and  C_37
   12  A    between atoms: S_25  and  C_52
   13  A    between atoms: O_26  and  C_47
   14  A    between atoms: C_32  and  C_36
   15  A    between atoms: C_34  and  N_43
                            x       y       z     vdW  Elec       q    Type
                         _______ _______ _______ _____ _____    ______ ____

>  <TORSDO>
F 15

$$$$
=
 OpenBabel11042420523D

 52 58  0  0  1  0  0  0  0  0999 V2000
  161.8700  211.1620  150.9060 C   0  0  1  0  0  3  0  0  0  0  0  0
  158.7570  212.7200  152.5220 C   0  0  0  0  0  3  0  0  0  0  0  0
  159.9060  212.4640  149.9990 C   0  0  0  0  0  3  0  0  0  0  0  0
  158.6860  213.1260  150.1400 C   0  0  0  0  0  0  0  0  0  0  0  0
  159.9750  212.0310  152.3950 C   0  0  0  0  0  0  0  0  0  0  0  0
  160.5710  211.9220  151.1120 C   0  0  0  0  0  0  0  0  0  0  0  0
  158.1180  213.2650  151.4050 C   0  0  0  0  0  3  0  0  0  0  0  0
  160.5740  211.3950  153.6020 C   0  0  0  0  0  0  0  0  0  0  0  0
  160.4620  210.6200  155.9230 C   0  0  0  0  0  0  0  0  0  0  0  0
  161.8470  210.8090  153.5020 C   0  0  0  0  0  3  0  0  0  0  0  0
  162.4190  210.1390  154.5860 C   0  0  0  0  0  3  0  0  0  0  0  0
  161.7230  210.0340  155.7920 C   0  0  0  0  0  3  0  0  0  0  0  0
  159.8880  211.3240  154.8420 C   0  0  0  0  0  0  0  0  0  0  0  0
  158.6370  211.9180  155.0390 C   0  0  0  0  0  3  0  0  0  0  0  0
  157.9890  211.8040  156.2720 C   0  0  0  0  0  0  0  0  0  0  0  0
  158.5890  211.0770  157.2610 N   0  0  0  0  0  0  0  0  0  0  0  0
  159.7820  210.5080  157.0930 N   0  0  0  0  0  0  0  0  0  0  0  0
  156.5750  213.8180  156.2590 N   0  0  0  0  0  0  0  0  0  0  0  0
  154.3230  213.7480  156.9040 N   0  0  0  0  0  0  0  0  0  0  0  0
  155.3930  214.4510  156.4480 C   0  0  0  0  0  3  0  0  0  0  0  0
  154.4210  212.4450  157.1690 N   0  0  0  0  0  0  0  0  0  0  0  0
  156.7060  212.4900  156.5260 C   0  0  0  0  0  0  0  0  0  0  0  0
  155.5940  211.7820  156.9940 C   0  0  0  0  0  3  0  0  0  0  0  0
  158.0030  213.6990  148.9460 C   0  0  0  0  0  2  0  0  0  0  0  0
  158.1080  212.8190  147.8670 O   0  0  0  0  0  0  0  0  0  0  0  0
  157.4000  213.4060  145.6770 C   0  0  0  0  0  1  0  0  0  0  0  0
  156.9780  213.0750  147.0930 C   0  0  0  0  0  2  0  0  0  0  0  0
  161.3350  206.9270  150.2720 C   0  0  0  0  0  0  0  0  0  0  0  0
  162.0400  207.7070  149.3480 C   0  0  0  0  0  3  0  0  0  0  0  0
  162.2160  209.0750  149.5740 C   0  0  0  0  0  3  0  0  0  0  0  0
  160.7790  207.5290  151.4050 C   0  0  0  0  0  3  0  0  0  0  0  0
  160.9450  208.9020  151.6260 C   0  0  0  0  0  3  0  0  0  0  0  0
  161.6860  209.6800  150.7180 C   0  0  0  0  0  0  0  0  0  0  0  0
  161.1010  205.4710  150.0220 C   0  0  0  0  0  2  0  0  0  0  0  0
  160.4810  205.2560  148.7160 N   0  0  0  0  0  2  0  0  0  0  0  0
  161.4960  204.6960  147.8250 C   0  0  2  0  0  3  0  0  0  0  0  0
  161.6910  203.2430  145.9800 N   0  0  0  0  0  2  0  0  0  0  0  0
  161.7670  205.5330  146.6610 N   0  0  2  0  0  0  0  0  0  0  0  0
  161.0760  203.3550  147.2900 C   0  0  0  0  0  2  0  0  0  0  0  0
  160.6410  206.1800  144.7950 N   0  0  0  0  0  2  0  0  0  0  0  0
  160.5720  206.1250  146.1990 N   0  0  0  0  0  2  0  0  0  0  0  0
  161.4470  205.0470  144.3880 C   0  0  0  0  0  2  0  0  0  0  0  0
  162.1530  204.5870  145.6250 C   0  0  2  0  0  3  0  0  0  0  0  0
  162.7770  211.7340  149.8530 C   0  0  0  0  0  3  0  0  0  0  0  0
  162.2830  212.2890  148.7460 C   0  0  0  0  0  3  0  0  0  0  0  0
  163.3820  213.0110  147.5350 S   0  0  0  0  0  0  0  0  0  0  0  0
  162.3540  213.4540  145.0990 N   0  0  0  0  0  0  0  0  0  0  0  0
  162.1190  212.9590  146.2710 C   0  0  0  0  0  3  0  0  0  0  0  0
  161.3860  214.3350  143.1490 O   0  0  0  0  0  0  0  0  0  0  0  0
  161.3660  213.4610  144.0620 C   0  0  0  0  0  0  0  0  0  0  0  0
  159.7350  212.2890  142.6370 C   0  0  0  0  0  1  0  0  0  0  0  0
  160.3130  212.4070  144.0390 C   0  0  0  0  0  2  0  0  0  0  0  0
  1 44  1  6  0  0  0
  1  6  1  0  0  0  0
  3  4  2  0  0  0  0
  3  6  1  0  0  0  0
  4  7  1  0  0  0  0
  5  2  1  0  0  0  0
  5  8  1  0  0  0  0
  6  5  2  0  0  0  0
  7  2  2  0  0  0  0
  8 13  1  0  0  0  0
  9 17  1  0  0  0  0
 10  8  2  0  0  0  0
 10 11  1  0  0  0  0
 11 12  2  0  0  0  0
 12  9  1  0  0  0  0
 13 14  1  0  0  0  0
 13  9  2  0  0  0  0
 14 15  2  0  0  0  0
 15 22  1  0  0  0  0
 15 16  1  0  0  0  0
 17 16  2  0  0  0  0
 18 20  2  0  0  0  0
 18 22  1  0  0  0  0
 19 21  2  0  0  0  0
 20 19  1  0  0  0  0
 22 23  2  0  0  0  0
 23 21  1  0  0  0  0
 24  4  1  0  0  0  0
 25 24  1  0  0  0  0
 26 27  1  0  0  0  0
 27 25  1  0  0  0  0
 28 31  1  0  0  0  0
 29 30  1  0  0  0  0
 29 28  2  0  0  0  0
 30 33  2  0  0  0  0
 31 32  2  0  0  0  0
 33  1  1  0  0  0  0
 33 32  1  0  0  0  0
 34 28  1  0  0  0  0
 35 34  1  0  0  0  0
 36 35  1  6  0  0  0
 37 39  1  0  0  0  0
 38 41  1  6  0  0  0
 38 36  1  0  0  0  0
 39 36  1  0  0  0  0
 40 41  1  0  0  0  0
 42 40  1  0  0  0  0
 43 42  1  6  0  0  0
 43 37  1  0  0  0  0
 43 38  1  0  0  0  0
 45 44  2  0  0  0  0
 46 45  1  0  0  0  0
 47 48  2  0  0  0  0
 48 46  1  0  0  0  0
 49 50  2  0  0  0  0
 50 47  1  0  0  0  0
 51 52  1  0  0  0  0
 52 50  1  0  0  0  0
M  END
>  <MODEL>
5

>  <REMARK>
 VINA RESULT:      -3.0      3.208      5.822
  Name = 
  15 active torsions:
  status: ('A' for Active; 'I' for Inactive)
    1  A    between atoms: N_1  and  C_32
    2  A    between atoms: C_2  and  N_43
    3  A    between atoms: C_3  and  C_24
    4  A    between atoms: C_8  and  C_34
    5  A    between atoms: C_10  and  C_19
    6  A    between atoms: C_10  and  O_26
    7  A    between atoms: C_14  and  C_27
    8  A    between atoms: C_14  and  C_31
    9  A    between atoms: C_14  and  C_50
   10  A    between atoms: C_18  and  C_42
   11  A    between atoms: S_25  and  C_37
   12  A    between atoms: S_25  and  C_52
   13  A    between atoms: O_26  and  C_47
   14  A    between atoms: C_32  and  C_36
   15  A    between atoms: C_34  and  N_43
                            x       y       z     vdW  Elec       q    Type
                         _______ _______ _______ _____ _____    ______ ____

>  <TORSDO>
F 15

$$$$
=
 OpenBabel11042420523D

 52 58  0  0  1  0  0  0  0  0999 V2000
  161.6850  211.3370  150.4390 C   0  0  1  0  0  3  0  0  0  0  0  0
  158.8180  212.9100  152.4480 C   0  0  0  0  0  3  0  0  0  0  0  0
  159.6730  212.7250  149.8050 C   0  0  0  0  0  3  0  0  0  0  0  0
  158.4960  213.4130  150.1050 C   0  0  0  0  0  0  0  0  0  0  0  0
  159.9920  212.1950  152.1610 C   0  0  0  0  0  0  0  0  0  0  0  0
  160.4400  212.1220  150.8160 C   0  0  0  0  0  0  0  0  0  0  0  0
  158.0760  213.5150  151.4300 C   0  0  0  0  0  3  0  0  0  0  0  0
  160.7010  211.4950  153.2680 C   0  0  0  0  0  0  0  0  0  0  0  0
  160.8010  210.5760  155.5370 C   0  0  0  0  0  0  0  0  0  0  0  0
  161.9670  210.9370  153.0230 C   0  0  0  0  0  3  0  0  0  0  0  0
  162.6390  210.2100  154.0090 C   0  0  0  0  0  3  0  0  0  0  0  0
  162.0520  210.0200  155.2610 C   0  0  0  0  0  3  0  0  0  0  0  0
  160.1270  211.3370  154.5560 C   0  0  0  0  0  0  0  0  0  0  0  0
  158.8920  211.8970  154.8980 C   0  0  0  0  0  3  0  0  0  0  0  0
  158.3560  211.6970  156.1720 C   0  0  0  0  0  0  0  0  0  0  0  0
  159.0470  210.9200  157.0580 N   0  0  0  0  0  0  0  0  0  0  0  0
  160.2270  210.3810  156.7520 N   0  0  0  0  0  0  0  0  0  0  0  0
  156.9830  213.7010  156.5650 N   0  0  0  0  0  0  0  0  0  0  0  0
  154.7440  213.5510  157.2390 N   0  0  0  0  0  0  0  0  0  0  0  0
  155.8190  214.3080  156.8960 C   0  0  0  0  0  3  0  0  0  0  0  0
  154.8200  212.2200  157.2570 N   0  0  0  0  0  0  0  0  0  0  0  0
  157.0920  212.3450  156.5790 C   0  0  0  0  0  0  0  0  0  0  0  0
  155.9750  211.5810  156.9340 C   0  0  0  0  0  3  0  0  0  0  0  0
  157.7040  214.0500  149.0170 C   0  0  0  0  0  2  0  0  0  0  0  0
  157.0380  213.0740  148.2750 O   0  0  0  0  0  0  0  0  0  0  0  0
  157.3850  213.6360  145.9930 C   0  0  0  0  0  1  0  0  0  0  0  0
  156.4820  213.7660  147.2000 C   0  0  0  0  0  2  0  0  0  0  0  0
  161.0990  207.0610  150.3920 C   0  0  0  0  0  0  0  0  0  0  0  0
  160.6700  207.8320  151.4780 C   0  0  0  0  0  3  0  0  0  0  0  0
  160.8550  209.2170  151.4730 C   0  0  0  0  0  3  0  0  0  0  0  0
  161.7450  207.6800  149.3160 C   0  0  0  0  0  3  0  0  0  0  0  0
  161.9410  209.0670  149.3160 C   0  0  0  0  0  3  0  0  0  0  0  0
  161.4750  209.8470  150.3890 C   0  0  0  0  0  0  0  0  0  0  0  0
  160.9480  205.5730  150.4030 C   0  0  0  0  0  2  0  0  0  0  0  0
  161.8500  204.9470  149.4390 N   0  0  0  0  0  2  0  0  0  0  0  0
  161.0350  204.1910  148.4890 C   0  0  2  0  0  3  0  0  0  0  0  0
  161.2450  202.5110  146.8510 N   0  0  0  0  0  2  0  0  0  0  0  0
  160.4620  202.9770  149.0590 N   0  0  2  0  0  0  0  0  0  0  0  0
  161.8440  203.7550  147.2990 C   0  0  0  0  0  2  0  0  0  0  0  0
  161.2410  200.9790  149.8150 N   0  0  0  0  0  2  0  0  0  0  0  0
  161.3810  202.3730  149.9440 N   0  0  0  0  0  2  0  0  0  0  0  0
  160.8290  200.7420  148.4460 C   0  0  0  0  0  2  0  0  0  0  0  0
  160.3600  202.0660  147.9290 C   0  0  2  0  0  3  0  0  0  0  0  0
  162.3910  211.8270  149.2050 C   0  0  0  0  0  3  0  0  0  0  0  0
  162.1310  213.0300  148.6950 C   0  0  0  0  0  3  0  0  0  0  0  0
  163.0240  213.6100  147.2590 S   0  0  0  0  0  0  0  0  0  0  0  0
  161.9580  213.0080  144.8730 N   0  0  0  0  0  0  0  0  0  0  0  0
  161.7610  212.9980  146.1520 C   0  0  0  0  0  3  0  0  0  0  0  0
  159.8370  212.1500  144.3460 O   0  0  0  0  0  0  0  0  0  0  0  0
  160.9670  212.5540  143.9450 C   0  0  0  0  0  0  0  0  0  0  0  0
  162.6480  213.1470  142.2460 C   0  0  0  0  0  1  0  0  0  0  0  0
  161.2550  212.5810  142.4840 C   0  0  0  0  0  2  0  0  0  0  0  0
  1 44  1  6  0  0  0
  1  6  1  0  0  0  0
  3  4  2  0  0  0  0
  3  6  1  0  0  0  0
  4  7  1  0  0  0  0
  5  2  1  0  0  0  0
  5  8  1  0  0  0  0
  6  5  2  0  0  0  0
  7  2  2  0  0  0  0
  8 13  1  0  0  0  0
  9 17  1  0  0  0  0
 10  8  2  0  0  0  0
 10 11  1  0  0  0  0
 11 12  2  0  0  0  0
 12  9  1  0  0  0  0
 13 14  1  0  0  0  0
 13  9  2  0  0  0  0
 14 15  2  0  0  0  0
 15 22  1  0  0  0  0
 15 16  1  0  0  0  0
 17 16  2  0  0  0  0
 18 22  2  0  0  0  0
 18 20  1  0  0  0  0
 19 21  1  0  0  0  0
 20 19  2  0  0  0  0
 22 23  1  0  0  0  0
 23 21  2  0  0  0  0
 24  4  1  0  0  0  0
 25 24  1  0  0  0  0
 26 27  1  0  0  0  0
 27 25  1  0  0  0  0
 28 34  1  0  0  0  0
 28 29  1  0  0  0  0
 30 29  2  0  0  0  0
 31 28  2  0  0  0  0
 32 31  1  0  0  0  0
 32 33  2  0  0  0  0
 33  1  1  0  0  0  0
 33 30  1  0  0  0  0
 35 34  1  0  0  0  0
 36 38  1  0  0  0  0
 36 35  1  1  0  0  0
 37 39  1  0  0  0  0
 37 43  1  0  0  0  0
 38 41  1  1  0  0  0
 39 36  1  0  0  0  0
 40 41  1  0  0  0  0
 42 40  1  0  0  0  0
 43 42  1  1  0  0  0
 43 38  1  0  0  0  0
 45 44  2  0  0  0  0
 46 45  1  0  0  0  0
 47 48  2  0  0  0  0
 48 46  1  0  0  0  0
 50 49  2  0  0  0  0
 50 47  1  0  0  0  0
 51 52  1  0  0  0  0
 52 50  1  0  0  0  0
M  END
>  <MODEL>
6

>  <REMARK>
 VINA RESULT:      -2.1      3.796      6.760
  Name = 
  15 active torsions:
  status: ('A' for Active; 'I' for Inactive)
    1  A    between atoms: N_1  and  C_32
    2  A    between atoms: C_2  and  N_43
    3  A    between atoms: C_3  and  C_24
    4  A    between atoms: C_8  and  C_34
    5  A    between atoms: C_10  and  C_19
    6  A    between atoms: C_10  and  O_26
    7  A    between atoms: C_14  and  C_27
    8  A    between atoms: C_14  and  C_31
    9  A    between atoms: C_14  and  C_50
   10  A    between atoms: C_18  and  C_42
   11  A    between atoms: S_25  and  C_37
   12  A    between atoms: S_25  and  C_52
   13  A    between atoms: O_26  and  C_47
   14  A    between atoms: C_32  and  C_36
   15  A    between atoms: C_34  and  N_43
                            x       y       z     vdW  Elec       q    Type
                         _______ _______ _______ _____ _____    ______ ____

>  <TORSDO>
F 15

$$$$
=
 OpenBabel11042420523D

 52 58  0  0  1  0  0  0  0  0999 V2000
  160.7350  209.1490  151.3840 C   0  0  1  0  0  3  0  0  0  0  0  0
  160.3420  212.9100  152.0420 C   0  0  0  0  0  3  0  0  0  0  0  0
  161.2210  211.2150  150.0160 C   0  0  0  0  0  3  0  0  0  0  0  0
  161.2290  212.5960  149.8150 C   0  0  0  0  0  0  0  0  0  0  0  0
  160.3070  211.5210  152.2520 C   0  0  0  0  0  0  0  0  0  0  0  0
  160.7780  210.6600  151.2280 C   0  0  0  0  0  0  0  0  0  0  0  0
  160.8000  213.4440  150.8350 C   0  0  0  0  0  3  0  0  0  0  0  0
  159.7310  210.9970  153.5220 C   0  0  0  0  0  0  0  0  0  0  0  0
  159.8570  210.5100  155.9200 C   0  0  0  0  0  0  0  0  0  0  0  0
  158.3820  210.6030  153.5470 C   0  0  0  0  0  3  0  0  0  0  0  0
  157.7780  210.1720  154.7310 C   0  0  0  0  0  3  0  0  0  0  0  0
  158.5110  210.1370  155.9190 C   0  0  0  0  0  3  0  0  0  0  0  0
  160.4840  210.9190  154.7220 C   0  0  0  0  0  0  0  0  0  0  0  0
  161.8420  211.2500  154.7750 C   0  0  0  0  0  3  0  0  0  0  0  0
  162.5380  211.1780  155.9840 C   0  0  0  0  0  0  0  0  0  0  0  0
  161.8570  210.8090  157.1090 N   0  0  0  0  0  0  0  0  0  0  0  0
  160.5650  210.4850  157.0780 N   0  0  0  0  0  0  0  0  0  0  0  0
  164.7380  211.4310  154.9100 N   0  0  0  0  0  0  0  0  0  0  0  0
  166.6460  212.0280  156.1310 N   0  0  0  0  0  0  0  0  0  0  0  0
  166.0610  211.7160  154.9460 C   0  0  0  0  0  3  0  0  0  0  0  0
  165.9360  212.0560  157.2600 N   0  0  0  0  0  0  0  0  0  0  0  0
  163.9890  211.4460  156.0470 C   0  0  0  0  0  0  0  0  0  0  0  0
  164.6080  211.7710  157.2580 C   0  0  0  0  0  3  0  0  0  0  0  0
  161.7110  213.1620  148.5240 C   0  0  0  0  0  2  0  0  0  0  0  0
  160.9680  212.6370  147.4650 O   0  0  0  0  0  0  0  0  0  0  0  0
  158.8540  213.6410  147.0560 C   0  0  0  0  0  1  0  0  0  0  0  0
  160.3540  213.7450  146.8830 C   0  0  0  0  0  2  0  0  0  0  0  0
  162.0560  206.9090  147.9390 C   0  0  0  0  0  0  0  0  0  0  0  0
  160.9780  206.4650  148.7130 C   0  0  0  0  0  3  0  0  0  0  0  0
  160.5530  207.2080  149.8180 C   0  0  0  0  0  3  0  0  0  0  0  0
  162.7290  208.0820  148.2980 C   0  0  0  0  0  3  0  0  0  0  0  0
  162.3110  208.8210  149.4120 C   0  0  0  0  0  3  0  0  0  0  0  0
  161.2030  208.3970  150.1660 C   0  0  0  0  0  0  0  0  0  0  0  0
  162.5500  206.1020  146.7810 C   0  0  0  0  0  2  0  0  0  0  0  0
  161.4550  205.3710  146.1470 N   0  0  0  0  0  2  0  0  0  0  0  0
  161.7530  203.9430  146.2450 C   0  0  2  0  0  3  0  0  0  0  0  0
  160.8210  201.9460  147.0790 N   0  0  0  0  0  2  0  0  0  0  0  0
  161.3010  203.1780  145.0880 N   0  0  2  0  0  0  0  0  0  0  0  0
  161.0870  203.3260  147.4430 C   0  0  0  0  0  2  0  0  0  0  0  0
  159.3040  202.5880  144.1770 N   0  0  0  0  0  2  0  0  0  0  0  0
  160.0670  203.6820  144.6240 N   0  0  0  0  0  2  0  0  0  0  0  0
  159.7100  201.4570  144.9870 C   0  0  0  0  0  2  0  0  0  0  0  0
  161.0010  201.8600  145.6280 C   0  0  2  0  0  3  0  0  0  0  0  0
  161.3900  208.6240  152.6310 C   0  0  0  0  0  3  0  0  0  0  0  0
  160.7290  207.8330  153.4750 C   0  0  0  0  0  3  0  0  0  0  0  0
  161.5490  207.1790  154.9230 S   0  0  0  0  0  0  0  0  0  0  0  0
  160.8750  205.2520  153.1840 N   0  0  0  0  0  0  0  0  0  0  0  0
  161.5780  205.5290  154.2340 C   0  0  0  0  0  3  0  0  0  0  0  0
  160.1230  203.0290  153.1090 O   0  0  0  0  0  0  0  0  0  0  0  0
  160.8450  203.9400  152.6110 C   0  0  0  0  0  0  0  0  0  0  0  0
  161.1510  202.3680  150.7410 C   0  0  0  0  0  1  0  0  0  0  0  0
  161.6540  203.6470  151.3950 C   0  0  0  0  0  2  0  0  0  0  0  0
  1 44  1  1  0  0  0
  2  5  1  0  0  0  0
  3  6  1  0  0  0  0
  4  3  2  0  0  0  0
  4  7  1  0  0  0  0
  5  8  1  0  0  0  0
  6  1  1  0  0  0  0
  6  5  2  0  0  0  0
  7  2  2  0  0  0  0
  8 10  2  0  0  0  0
  8 13  1  0  0  0  0
  9 17  1  0  0  0  0
 10 11  1  0  0  0  0
 11 12  2  0  0  0  0
 12  9  1  0  0  0  0
 13 14  1  0  0  0  0
 13  9  2  0  0  0  0
 14 15  2  0  0  0  0
 15 22  1  0  0  0  0
 15 16  1  0  0  0  0
 17 16  2  0  0  0  0
 18 20  2  0  0  0  0
 18 22  1  0  0  0  0
 19 21  2  0  0  0  0
 20 19  1  0  0  0  0
 22 23  2  0  0  0  0
 23 21  1  0  0  0  0
 24  4  1  0  0  0  0
 25 24  1  0  0  0  0
 27 26  1  0  0  0  0
 27 25  1  0  0  0  0
 28 31  2  0  0  0  0
 28 29  1  0  0  0  0
 29 30  2  0  0  0  0
 30 33  1  0  0  0  0
 31 32  1  0  0  0  0
 32 33  2  0  0  0  0
 33  1  1  0  0  0  0
 34 28  1  0  0  0  0
 35 34  1  0  0  0  0
 36 35  1  6  0  0  0
 36 39  1  0  0  0  0
 37 39  1  0  0  0  0
 38 41  1  1  0  0  0
 38 43  1  0  0  0  0
 38 36  1  0  0  0  0
 40 41  1  0  0  0  0
 40 42  1  0  0  0  0
 43 42  1  6  0  0  0
 43 37  1  0  0  0  0
 44 45  2  0  0  0  0
 45 46  1  0  0  0  0
 47 48  2  0  0  0  0
 48 46  1  0  0  0  0
 50 49  2  0  0  0  0
 50 47  1  0  0  0  0
 51 52  1  0  0  0  0
 52 50  1  0  0  0  0
M  END
>  <MODEL>
7

>  <REMARK>
 VINA RESULT:      -1.5      3.992      7.717
  Name = 
  15 active torsions:
  status: ('A' for Active; 'I' for Inactive)
    1  A    between atoms: N_1  and  C_32
    2  A    between atoms: C_2  and  N_43
    3  A    between atoms: C_3  and  C_24
    4  A    between atoms: C_8  and  C_34
    5  A    between atoms: C_10  and  C_19
    6  A    between atoms: C_10  and  O_26
    7  A    between atoms: C_14  and  C_27
    8  A    between atoms: C_14  and  C_31
    9  A    between atoms: C_14  and  C_50
   10  A    between atoms: C_18  and  C_42
   11  A    between atoms: S_25  and  C_37
   12  A    between atoms: S_25  and  C_52
   13  A    between atoms: O_26  and  C_47
   14  A    between atoms: C_32  and  C_36
   15  A    between atoms: C_34  and  N_43
                            x       y       z     vdW  Elec       q    Type
                         _______ _______ _______ _____ _____    ______ ____

>  <TORSDO>
F 15

$$$$
=
 OpenBabel11042420523D

 52 58  0  0  1  0  0  0  0  0999 V2000
  161.2820  211.3880  151.1610 C   0  0  1  0  0  3  0  0  0  0  0  0
  161.5800  207.7900  152.4640 C   0  0  0  0  0  3  0  0  0  0  0  0
  161.0290  209.1190  150.0810 C   0  0  0  0  0  3  0  0  0  0  0  0
  161.0580  207.7240  150.1050 C   0  0  0  0  0  0  0  0  0  0  0  0
  161.5760  209.1950  152.4540 C   0  0  0  0  0  0  0  0  0  0  0  0
  161.2710  209.8700  151.2430 C   0  0  0  0  0  0  0  0  0  0  0  0
  161.3220  207.0600  151.3010 C   0  0  0  0  0  3  0  0  0  0  0  0
  161.9400  209.9280  153.6980 C   0  0  0  0  0  0  0  0  0  0  0  0
  161.3740  210.9890  155.8320 C   0  0  0  0  0  0  0  0  0  0  0  0
  163.2980  210.1380  153.9920 C   0  0  0  0  0  3  0  0  0  0  0  0
  163.6920  210.7570  155.1820 C   0  0  0  0  0  3  0  0  0  0  0  0
  162.7310  211.1710  156.1060 C   0  0  0  0  0  3  0  0  0  0  0  0
  160.9660  210.3900  154.6200 C   0  0  0  0  0  0  0  0  0  0  0  0
  159.5930  210.2610  154.3840 C   0  0  0  0  0  3  0  0  0  0  0  0
  158.6700  210.7120  155.3310 C   0  0  0  0  0  0  0  0  0  0  0  0
  159.1380  211.2480  156.4960 N   0  0  0  0  0  0  0  0  0  0  0  0
  160.4420  211.3830  156.7380 N   0  0  0  0  0  0  0  0  0  0  0  0
  156.4640  209.6520  155.5900 N   0  0  0  0  0  0  0  0  0  0  0  0
  154.5270  210.5920  154.6660 N   0  0  0  0  0  0  0  0  0  0  0  0
  155.1250  209.6120  155.3910 C   0  0  0  0  0  3  0  0  0  0  0  0
  155.2400  211.5930  154.1460 N   0  0  0  0  0  0  0  0  0  0  0  0
  157.2180  210.6570  155.0670 C   0  0  0  0  0  0  0  0  0  0  0  0
  156.5850  211.6590  154.3240 C   0  0  0  0  0  3  0  0  0  0  0  0
  160.7900  206.9490  148.8610 C   0  0  0  0  0  2  0  0  0  0  0  0
  161.4760  205.7340  148.8980 O   0  0  0  0  0  0  0  0  0  0  0  0
  160.6270  206.1340  146.7160 C   0  0  0  0  0  1  0  0  0  0  0  0
  161.6270  205.3740  147.5600 C   0  0  0  0  0  2  0  0  0  0  0  0
  162.3600  212.9180  147.2730 C   0  0  0  0  0  0  0  0  0  0  0  0
  163.1790  211.9940  147.9320 C   0  0  0  0  0  3  0  0  0  0  0  0
  162.8100  211.4970  149.1850 C   0  0  0  0  0  3  0  0  0  0  0  0
  161.1880  213.3690  147.8900 C   0  0  0  0  0  3  0  0  0  0  0  0
  160.8240  212.8800  149.1510 C   0  0  0  0  0  3  0  0  0  0  0  0
  161.6250  211.9220  149.7960 C   0  0  0  0  0  0  0  0  0  0  0  0
  162.7640  213.4920  145.9510 C   0  0  0  0  0  2  0  0  0  0  0  0
  161.6030  213.9920  145.2200 N   0  0  0  0  0  2  0  0  0  0  0  0
  161.9200  213.9490  143.7930 C   0  0  2  0  0  3  0  0  0  0  0  0
  162.8530  212.5040  142.1830 N   0  0  0  0  0  2  0  0  0  0  0  0
  160.8140  213.4700  142.9700 N   0  0  2  0  0  0  0  0  0  0  0  0
  163.0780  213.0310  143.5170 C   0  0  0  0  0  2  0  0  0  0  0  0
  159.7080  211.5070  142.6730 N   0  0  0  0  0  2  0  0  0  0  0  0
  160.1190  212.4410  143.6420 N   0  0  0  0  0  2  0  0  0  0  0  0
  160.7020  211.5540  141.6200 C   0  0  0  0  0  2  0  0  0  0  0  0
  161.4650  212.8230  141.8410 C   0  0  2  0  0  3  0  0  0  0  0  0
  160.0560  212.0590  151.7140 C   0  0  0  0  0  3  0  0  0  0  0  0
  159.8120  213.3480  151.4800 C   0  0  0  0  0  3  0  0  0  0  0  0
  158.3190  214.1090  152.1040 S   0  0  0  0  0  0  0  0  0  0  0  0
  158.1500  214.2820  154.7750 N   0  0  0  0  0  0  0  0  0  0  0  0
  158.9560  214.1280  153.7750 C   0  0  0  0  0  3  0  0  0  0  0  0
  159.8470  214.4500  156.3890 O   0  0  0  0  0  0  0  0  0  0  0  0
  158.6150  214.3310  156.1280 C   0  0  0  0  0  0  0  0  0  0  0  0
  156.2240  214.4480  156.7070 C   0  0  0  0  0  1  0  0  0  0  0  0
  157.6350  214.2690  157.2480 C   0  0  0  0  0  2  0  0  0  0  0  0
  1  6  1  0  0  0  0
  1 44  1  6  0  0  0
  3  4  2  0  0  0  0
  3  6  1  0  0  0  0
  4  7  1  0  0  0  0
  5  2  1  0  0  0  0
  5  8  1  0  0  0  0
  6  5  2  0  0  0  0
  7  2  2  0  0  0  0
  8 10  2  0  0  0  0
  8 13  1  0  0  0  0
  9 12  1  0  0  0  0
  9 17  1  0  0  0  0
 10 11  1  0  0  0  0
 11 12  2  0  0  0  0
 13  9  2  0  0  0  0
 14 13  1  0  0  0  0
 14 15  2  0  0  0  0
 15 16  1  0  0  0  0
 16 17  2  0  0  0  0
 19 20  2  0  0  0  0
 20 18  1  0  0  0  0
 21 23  2  0  0  0  0
 21 19  1  0  0  0  0
 22 15  1  0  0  0  0
 22 18  2  0  0  0  0
 23 22  1  0  0  0  0
 24 25  1  0  0  0  0
 24  4  1  0  0  0  0
 26 27  1  0  0  0  0
 27 25  1  0  0  0  0
 28 31  2  0  0  0  0
 28 29  1  0  0  0  0
 29 30  2  0  0  0  0
 30 33  1  0  0  0  0
 31 32  1  0  0  0  0
 32 33  2  0  0  0  0
 33  1  1  0  0  0  0
 34 28  1  0  0  0  0
 35 34  1  0  0  0  0
 36 35  1  1  0  0  0
 37 39  1  0  0  0  0
 38 41  1  1  0  0  0
 38 36  1  0  0  0  0
 39 36  1  0  0  0  0
 40 41  1  0  0  0  0
 42 40  1  0  0  0  0
 43 42  1  1  0  0  0
 43 37  1  0  0  0  0
 43 38  1  0  0  0  0
 45 44  2  0  0  0  0
 45 46  1  0  0  0  0
 46 48  1  0  0  0  0
 47 50  1  0  0  0  0
 48 47  2  0  0  0  0
 50 49  2  0  0  0  0
 50 52  1  0  0  0  0
 51 52  1  0  0  0  0
M  END
>  <MODEL>
8

>  <REMARK>
 VINA RESULT:      -1.3      1.956      2.851
  Name = 
  15 active torsions:
  status: ('A' for Active; 'I' for Inactive)
    1  A    between atoms: N_1  and  C_32
    2  A    between atoms: C_2  and  N_43
    3  A    between atoms: C_3  and  C_24
    4  A    between atoms: C_8  and  C_34
    5  A    between atoms: C_10  and  C_19
    6  A    between atoms: C_10  and  O_26
    7  A    between atoms: C_14  and  C_27
    8  A    between atoms: C_14  and  C_31
    9  A    between atoms: C_14  and  C_50
   10  A    between atoms: C_18  and  C_42
   11  A    between atoms: S_25  and  C_37
   12  A    between atoms: S_25  and  C_52
   13  A    between atoms: O_26  and  C_47
   14  A    between atoms: C_32  and  C_36
   15  A    between atoms: C_34  and  N_43
                            x       y       z     vdW  Elec       q    Type
                         _______ _______ _______ _____ _____    ______ ____

>  <TORSDO>
F 15

$$$$
