=
 OpenBabel11042422023D

 46 52  0  0  1  0  0  0  0  0999 V2000
  159.5900  212.3980  151.7340 C   0  0  0  0  0  0  0  0  0  0  0  0
  161.9280  209.5880  151.6390 N   0  0  0  0  0  0  0  0  0  0  0  0
  159.6880  211.2630  154.0480 C   0  0  1  0  0  3  0  0  0  0  0  0
  162.0870  208.6440  152.7470 C   0  0  2  0  0  3  0  0  0  0  0  0
  161.1410  212.2110  149.7680 S   0  0  0  0  0  0  0  0  0  0  0  0
  161.6760  207.2380  152.3780 C   0  0  0  0  0  0  0  0  0  0  0  0
  159.9390  213.3990  149.7620 C   0  0  0  0  0  0  0  0  0  0  0  0
  161.2030  210.5650  152.0710 C   0  0  0  0  0  0  0  0  0  0  0  0
  160.6610  211.6500  151.2750 C   0  0  0  0  0  0  0  0  0  0  0  0
  160.5340  207.0120  154.5690 C   0  0  0  0  0  3  0  0  0  0  0  0
  159.1750  213.3680  150.8810 N   0  0  0  0  0  0  0  0  0  0  0  0
  161.0130  206.4740  153.2690 C   0  0  0  0  0  3  0  0  0  0  0  0
  158.8390  212.0340  152.9970 C   0  0  0  0  0  2  0  0  0  0  0  0
  160.7100  210.3590  153.4060 C   0  0  2  0  0  3  0  0  0  0  0  0
  160.6100  208.3210  154.8470 C   0  0  0  0  0  0  0  0  0  0  0  0
  161.1860  209.1960  153.8160 C   0  0  1  0  0  3  0  0  0  0  0  0
  157.7290  214.3790  145.4180 C   0  0  0  0  0  3  0  0  0  0  0  0
  159.9430  214.3470  146.3490 N   0  0  0  0  0  0  0  0  0  0  0  0
  160.5960  214.2530  145.0440 C   0  0  0  0  0  2  0  0  0  0  0  0
  158.3130  214.3450  144.0350 C   0  0  0  0  0  2  0  0  0  0  0  0
  159.7320  214.3700  148.6510 C   0  0  1  0  0  3  0  0  0  0  0  0
  160.6330  214.0520  147.5320 N   0  0  0  0  0  2  0  0  0  0  0  0
  159.6540  213.6040  144.0300 C   0  0  0  0  0  2  0  0  0  0  0  0
  158.5360  214.4510  146.4770 C   0  0  0  0  0  0  0  0  0  0  0  0
  157.9640  214.3770  148.1380 S   0  0  0  0  0  0  0  0  0  0  0  0
  160.0880  208.8660  156.1070 C   0  0  0  0  0  3  0  0  0  0  0  0
  160.8500  209.4030  156.9550 O   0  0  0  0  0  0  0  0  0  0  0  0
  160.3680  212.2030  154.9230 N   0  0  0  0  0  2  0  0  0  0  0  0
  159.0530  213.5810  156.7030 C   0  0  0  0  0  3  0  0  0  0  0  0
  159.6620  212.9420  155.8820 C   0  0  0  0  0  0  0  0  0  0  0  0
  162.1420  206.6840  151.1440 N   0  0  0  0  0  2  0  0  0  0  0  0
  162.5780  207.4910  150.0140 C   0  0  0  0  0  2  0  0  0  0  0  0
  161.3710  208.0690  149.2940 C   0  0  0  0  0  2  0  0  0  0  0  0
  161.2660  204.7730  148.0370 N   0  0  0  0  0  0  0  0  0  0  0  0
  161.9420  206.8770  147.2450 N   0  0  0  0  0  2  0  0  0  0  0  0
  163.2500  204.7790  146.2110 S   0  0  0  0  0  0  0  0  0  0  0  0
  162.1190  205.4790  147.1630 C   0  0  0  0  0  0  0  0  0  0  0  0
  160.5080  205.7390  148.8060 C   0  0  0  0  0  2  0  0  0  0  0  0
  160.8760  207.1170  148.2130 C   0  0  1  0  0  3  0  0  0  0  0  0
  161.3590  203.3610  148.3720 C   0  0  0  0  0  2  0  0  0  0  0  0
  161.1250  201.1260  147.2210 C   0  0  0  0  0  0  0  0  0  0  0  0
  161.4080  200.5220  148.2920 O   0  0  0  0  0  0  0  0  0  0  0  0
  161.0800  202.5570  147.1930 N   0  0  0  0  0  2  0  0  0  0  0  0
  160.8360  200.3580  146.0030 C   0  0  0  0  0  0  0  0  0  0  0  0
  160.0570  200.9340  144.9600 N   0  0  0  0  0  1  0  0  0  0  0  0
  161.2810  199.1880  145.8720 O   0  0  0  0  0  0  0  0  0  0  0  0
  1 13  1  0  0  0  0
  2  8  2  0  0  0  0
  3 28  1  1  0  0  0
  4  2  1  6  0  0  0
  4 16  1  0  0  0  0
  5  9  1  0  0  0  0
  6  4  1  0  0  0  0
  6 12  2  0  0  0  0
  7  5  1  0  0  0  0
  7 11  2  0  0  0  0
  9  1  2  0  0  0  0
  9  8  1  0  0  0  0
 10 15  2  0  0  0  0
 11  1  1  0  0  0  0
 12 10  1  0  0  0  0
 13  3  1  0  0  0  0
 14  8  1  6  0  0  0
 14 16  1  0  0  0  0
 14  3  1  0  0  0  0
 15 26  1  0  0  0  0
 16 15  1  6  0  0  0
 17 24  2  0  0  0  0
 18 24  1  0  0  0  0
 18 22  1  0  0  0  0
 19 18  1  0  0  0  0
 20 17  1  0  0  0  0
 21  7  1  1  0  0  0
 22 21  1  0  0  0  0
 23 20  1  0  0  0  0
 23 19  1  0  0  0  0
 24 25  1  0  0  0  0
 25 21  1  0  0  0  0
 26 27  2  0  0  0  0
 28 30  1  0  0  0  0
 30 29  3  0  0  0  0
 31  6  1  0  0  0  0
 32 31  1  0  0  0  0
 33 32  1  0  0  0  0
 34 40  1  0  0  0  0
 34 38  1  0  0  0  0
 35 39  1  0  0  0  0
 36 37  2  0  0  0  0
 37 35  1  0  0  0  0
 37 34  1  0  0  0  0
 39 38  1  0  0  0  0
 39 33  1  1  0  0  0
 41 42  2  0  0  0  0
 43 41  1  0  0  0  0
 43 40  1  0  0  0  0
 44 41  1  0  0  0  0
 45 44  1  0  0  0  0
 46 44  2  0  0  0  0
M  END
>  <MODEL>
1

>  <REMARK>
 VINA RESULT:      -7.4      0.000      0.000
  Name = 
  11 active torsions:
  status: ('A' for Active; 'I' for Inactive)
    1  A    between atoms: C_5  and  N_11
    2  A    between atoms: N_6  and  C_15
    3  A    between atoms: C_9  and  C_40
    4  A    between atoms: C_10  and  N_11
    5  A    between atoms: C_12  and  C_13
    6  A    between atoms: C_15  and  N_41
    7  A    between atoms: C_19  and  C_36
    8  A    between atoms: C_19  and  C_44
    9  A    between atoms: N_20  and  C_22
   10  A    between atoms: N_20  and  C_36
   11  A    between atoms: C_23  and  C_33
                            x       y       z     vdW  Elec       q    Type
                         _______ _______ _______ _____ _____    ______ ____

>  <TORSDO>
F 11

$$$$
=
 OpenBabel11042422023D

 46 52  0  0  1  0  0  0  0  0999 V2000
  159.7100  212.2840  151.4390 C   0  0  0  0  0  0  0  0  0  0  0  0
  162.0810  209.5750  152.0830 N   0  0  0  0  0  0  0  0  0  0  0  0
  159.4800  211.4820  153.8790 C   0  0  1  0  0  3  0  0  0  0  0  0
  162.0880  208.7990  153.3240 C   0  0  2  0  0  3  0  0  0  0  0  0
  161.5410  211.8850  149.7660 S   0  0  0  0  0  0  0  0  0  0  0  0
  161.7590  207.3410  153.1020 C   0  0  0  0  0  0  0  0  0  0  0  0
  160.3340  213.0170  149.4170 C   0  0  0  0  0  0  0  0  0  0  0  0
  161.2840  210.5750  152.2630 C   0  0  0  0  0  0  0  0  0  0  0  0
  160.8500  211.5200  151.2510 C   0  0  0  0  0  0  0  0  0  0  0  0
  160.3070  207.3760  155.1130 C   0  0  0  0  0  3  0  0  0  0  0  0
  159.4120  213.1120  150.4060 N   0  0  0  0  0  0  0  0  0  0  0  0
  160.9820  206.6830  153.9860 C   0  0  0  0  0  2  0  0  0  0  0  0
  158.7860  212.0690  152.6180 C   0  0  0  0  0  2  0  0  0  0  0  0
  160.6000  210.5360  153.5270 C   0  0  2  0  0  3  0  0  0  0  0  0
  160.3190  208.7140  155.2120 C   0  0  0  0  0  0  0  0  0  0  0  0
  161.0290  209.4590  154.1620 C   0  0  1  0  0  3  0  0  0  0  0  0
  159.1260  213.1650  144.5970 C   0  0  0  0  0  3  0  0  0  0  0  0
  161.0380  213.5780  145.9900 N   0  0  0  0  0  0  0  0  0  0  0  0
  161.9910  213.4440  144.8900 C   0  0  0  0  0  2  0  0  0  0  0  0
  160.0240  213.0720  143.3970 C   0  0  0  0  0  2  0  0  0  0  0  0
  160.2800  213.8170  148.1620 C   0  0  1  0  0  3  0  0  0  0  0  0
  161.4550  213.5230  147.3270 N   0  0  0  0  0  2  0  0  0  0  0  0
  161.4080  212.5520  143.7950 C   0  0  0  0  0  2  0  0  0  0  0  0
  159.6400  213.4760  145.7880 C   0  0  0  0  0  0  0  0  0  0  0  0
  158.7000  213.4960  147.2740 S   0  0  0  0  0  0  0  0  0  0  0  0
  159.6070  209.4070  156.2920 C   0  0  0  0  0  3  0  0  0  0  0  0
  160.2120  210.1630  157.0980 O   0  0  0  0  0  0  0  0  0  0  0  0
  160.0070  212.5580  154.7030 N   0  0  0  0  0  2  0  0  0  0  0  0
  158.4860  213.8430  156.3840 C   0  0  0  0  0  3  0  0  0  0  0  0
  159.1870  213.2470  155.6060 C   0  0  0  0  0  0  0  0  0  0  0  0
  162.4130  206.6410  152.0400 N   0  0  0  0  0  0  0  0  0  0  0  0
  162.2990  205.2050  151.8320 C   0  0  0  0  0  2  0  0  0  0  0  0
  160.8370  204.7920  151.8610 C   0  0  0  0  0  2  0  0  0  0  0  0
  161.3010  204.6660  148.3650 N   0  0  0  0  0  0  0  0  0  0  0  0
  160.4670  206.2170  149.9180 N   0  0  0  0  0  2  0  0  0  0  0  0
  161.5770  207.2690  147.7180 S   0  0  0  0  0  0  0  0  0  0  0  0
  161.0900  206.0290  148.6650 C   0  0  0  0  0  0  0  0  0  0  0  0
  160.8580  203.8800  149.5000 C   0  0  0  0  0  2  0  0  0  0  0  0
  160.2150  204.8910  150.4750 C   0  0  1  0  0  3  0  0  0  0  0  0
  162.1220  204.1430  147.2860 C   0  0  0  0  0  2  0  0  0  0  0  0
  160.9400  202.5590  145.7140 C   0  0  0  0  0  0  0  0  0  0  0  0
  160.6810  203.5060  144.9220 O   0  0  0  0  0  0  0  0  0  0  0  0
  161.6660  202.8100  146.9220 N   0  0  0  0  0  2  0  0  0  0  0  0
  160.5000  201.1960  145.3920 C   0  0  0  0  0  0  0  0  0  0  0  0
  161.0300  200.0840  146.1050 N   0  0  0  0  0  1  0  0  0  0  0  0
  159.6450  201.0040  144.4870 O   0  0  0  0  0  0  0  0  0  0  0  0
  1 13  1  0  0  0  0
  2  8  2  0  0  0  0
  3 28  1  1  0  0  0
  4  2  1  6  0  0  0
  4 16  1  0  0  0  0
  5  9  1  0  0  0  0
  6  4  1  0  0  0  0
  6 12  1  0  0  0  0
  7  5  1  0  0  0  0
  7 11  2  0  0  0  0
  9  1  2  0  0  0  0
  9  8  1  0  0  0  0
 10 15  2  0  0  0  0
 11  1  1  0  0  0  0
 12 10  1  0  0  0  0
 13  3  1  0  0  0  0
 14  8  1  6  0  0  0
 14  3  1  0  0  0  0
 14 16  1  0  0  0  0
 15 26  1  0  0  0  0
 16 15  1  6  0  0  0
 17 24  2  0  0  0  0
 18 22  1  0  0  0  0
 19 18  1  0  0  0  0
 20 23  1  0  0  0  0
 20 17  1  0  0  0  0
 21  7  1  1  0  0  0
 22 21  1  0  0  0  0
 23 19  1  0  0  0  0
 24 18  1  0  0  0  0
 24 25  1  0  0  0  0
 25 21  1  0  0  0  0
 26 27  2  0  0  0  0
 28 30  1  0  0  0  0
 30 29  3  0  0  0  0
 31  6  2  0  0  0  0
 32 33  1  0  0  0  0
 32 31  1  0  0  0  0
 34 37  1  0  0  0  0
 34 38  1  0  0  0  0
 35 39  1  0  0  0  0
 36 37  2  0  0  0  0
 37 35  1  0  0  0  0
 38 39  1  0  0  0  0
 39 33  1  1  0  0  0
 40 34  1  0  0  0  0
 41 43  1  0  0  0  0
 42 41  2  0  0  0  0
 43 40  1  0  0  0  0
 44 41  1  0  0  0  0
 44 45  1  0  0  0  0
 46 44  2  0  0  0  0
M  END
>  <MODEL>
2

>  <REMARK>
 VINA RESULT:      -7.2      1.432      1.732
  Name = 
  11 active torsions:
  status: ('A' for Active; 'I' for Inactive)
    1  A    between atoms: C_5  and  N_11
    2  A    between atoms: N_6  and  C_15
    3  A    between atoms: C_9  and  C_40
    4  A    between atoms: C_10  and  N_11
    5  A    between atoms: C_12  and  C_13
    6  A    between atoms: C_15  and  N_41
    7  A    between atoms: C_19  and  C_36
    8  A    between atoms: C_19  and  C_44
    9  A    between atoms: N_20  and  C_22
   10  A    between atoms: N_20  and  C_36
   11  A    between atoms: C_23  and  C_33
                            x       y       z     vdW  Elec       q    Type
                         _______ _______ _______ _____ _____    ______ ____

>  <TORSDO>
F 11

$$$$
=
 OpenBabel11042422023D

 46 52  0  0  1  0  0  0  0  0999 V2000
  158.7700  213.3350  151.3820 C   0  0  0  0  0  0  0  0  0  0  0  0
  161.1830  210.9060  152.6670 N   0  0  0  0  0  0  0  0  0  0  0  0
  158.4820  213.0800  153.9330 C   0  0  1  0  0  3  0  0  0  0  0  0
  161.1690  210.4210  154.0480 C   0  0  2  0  0  3  0  0  0  0  0  0
  160.6620  212.6360  149.8860 S   0  0  0  0  0  0  0  0  0  0  0  0
  160.8820  208.9400  154.1430 C   0  0  0  0  0  0  0  0  0  0  0  0
  159.4400  213.6260  149.2660 C   0  0  0  0  0  0  0  0  0  0  0  0
  160.3580  211.8960  152.6020 C   0  0  0  0  0  0  0  0  0  0  0  0
  159.9330  212.5830  151.3960 C   0  0  0  0  0  0  0  0  0  0  0  0
  159.3670  209.3710  156.0590 C   0  0  0  0  0  3  0  0  0  0  0  0
  158.4860  213.9080  150.1860 N   0  0  0  0  0  0  0  0  0  0  0  0
  160.0940  208.4690  155.1300 C   0  0  0  0  0  3  0  0  0  0  0  0
  157.8140  213.3560  152.5560 C   0  0  0  0  0  2  0  0  0  0  0  0
  159.6350  212.1150  153.8260 C   0  0  2  0  0  3  0  0  0  0  0  0
  159.3440  210.6970  155.8620 C   0  0  0  0  0  0  0  0  0  0  0  0
  160.0690  211.2160  154.6920 C   0  0  1  0  0  3  0  0  0  0  0  0
  159.7290  212.5480  144.4220 C   0  0  0  0  0  3  0  0  0  0  0  0
  160.7810  214.0100  146.0090 N   0  0  0  0  0  0  0  0  0  0  0  0
  161.9690  214.2140  145.1820 C   0  0  0  0  0  2  0  0  0  0  0  0
  160.8810  212.7470  143.4790 C   0  0  0  0  0  2  0  0  0  0  0  0
  159.4070  214.1310  147.8640 C   0  0  1  0  0  3  0  0  0  0  0  0
  160.7780  214.3370  147.3720 N   0  0  0  0  0  2  0  0  0  0  0  0
  162.1750  213.0180  144.2520 C   0  0  0  0  0  2  0  0  0  0  0  0
  159.6910  213.2190  145.5730 C   0  0  0  0  0  0  0  0  0  0  0  0
  158.4530  212.9730  146.7980 S   0  0  0  0  0  0  0  0  0  0  0  0
  158.5810  211.5880  156.7450 C   0  0  0  0  0  3  0  0  0  0  0  0
  157.3420  211.4380  156.9180 O   0  0  0  0  0  0  0  0  0  0  0  0
  158.9570  214.3260  154.5130 N   0  0  0  0  0  2  0  0  0  0  0  0
  159.7140  214.4530  157.0040 C   0  0  0  0  0  3  0  0  0  0  0  0
  159.3620  214.3930  155.8530 C   0  0  0  0  0  0  0  0  0  0  0  0
  161.5860  208.0450  153.2770 N   0  0  0  0  0  2  0  0  0  0  0  0
  160.9280  207.0930  152.3960 C   0  0  0  0  0  2  0  0  0  0  0  0
  161.2000  205.6740  152.8700 C   0  0  0  0  0  2  0  0  0  0  0  0
  161.1070  203.9370  149.8000 N   0  0  0  0  0  0  0  0  0  0  0  0
  161.7340  203.4560  152.0100 N   0  0  0  0  0  2  0  0  0  0  0  0
  160.8330  201.3730  150.5860 S   0  0  0  0  0  0  0  0  0  0  0  0
  161.2500  202.9410  150.7880 C   0  0  0  0  0  0  0  0  0  0  0  0
  161.4490  205.2140  150.3930 C   0  0  0  0  0  2  0  0  0  0  0  0
  161.9600  204.8840  151.8130 C   0  0  1  0  0  3  0  0  0  0  0  0
  160.4160  203.7910  148.5290 C   0  0  0  0  0  2  0  0  0  0  0  0
  161.3880  205.0160  146.5460 C   0  0  0  0  0  0  0  0  0  0  0  0
  160.5630  205.9580  146.6980 O   0  0  0  0  0  0  0  0  0  0  0  0
  161.3710  203.8950  147.4360 N   0  0  0  0  0  2  0  0  0  0  0  0
  162.3720  205.0750  145.4570 C   0  0  0  0  0  0  0  0  0  0  0  0
  161.9670  205.4520  144.1450 N   0  0  0  0  0  1  0  0  0  0  0  0
  163.5800  204.8000  145.6800 O   0  0  0  0  0  0  0  0  0  0  0  0
  1  9  2  0  0  0  0
  1 13  1  0  0  0  0
  3 28  1  6  0  0  0
  4  2  1  6  0  0  0
  4  6  1  0  0  0  0
  4 16  1  0  0  0  0
  5  9  1  0  0  0  0
  6 12  2  0  0  0  0
  7  5  1  0  0  0  0
  7 11  2  0  0  0  0
  8  2  2  0  0  0  0
  9  8  1  0  0  0  0
 11  1  1  0  0  0  0
 12 10  1  0  0  0  0
 13  3  1  0  0  0  0
 14  8  1  6  0  0  0
 14  3  1  0  0  0  0
 14 16  1  0  0  0  0
 15 10  2  0  0  0  0
 15 26  1  0  0  0  0
 16 15  1  6  0  0  0
 17 24  2  0  0  0  0
 18 22  1  0  0  0  0
 19 18  1  0  0  0  0
 20 23  1  0  0  0  0
 20 17  1  0  0  0  0
 21  7  1  1  0  0  0
 22 21  1  0  0  0  0
 23 19  1  0  0  0  0
 24 18  1  0  0  0  0
 24 25  1  0  0  0  0
 25 21  1  0  0  0  0
 26 27  2  0  0  0  0
 28 30  1  0  0  0  0
 30 29  3  0  0  0  0
 31  6  1  0  0  0  0
 32 33  1  0  0  0  0
 32 31  1  0  0  0  0
 34 38  1  0  0  0  0
 34 37  1  0  0  0  0
 36 37  2  0  0  0  0
 37 35  1  0  0  0  0
 38 39  1  0  0  0  0
 39 35  1  0  0  0  0
 39 33  1  1  0  0  0
 40 34  1  0  0  0  0
 41 42  2  0  0  0  0
 41 43  1  0  0  0  0
 43 40  1  0  0  0  0
 44 46  2  0  0  0  0
 44 41  1  0  0  0  0
 45 44  1  0  0  0  0
M  END
>  <MODEL>
3

>  <REMARK>
 VINA RESULT:      -7.0      2.406      3.058
  Name = 
  11 active torsions:
  status: ('A' for Active; 'I' for Inactive)
    1  A    between atoms: C_5  and  N_11
    2  A    between atoms: N_6  and  C_15
    3  A    between atoms: C_9  and  C_40
    4  A    between atoms: C_10  and  N_11
    5  A    between atoms: C_12  and  C_13
    6  A    between atoms: C_15  and  N_41
    7  A    between atoms: C_19  and  C_36
    8  A    between atoms: C_19  and  C_44
    9  A    between atoms: N_20  and  C_22
   10  A    between atoms: N_20  and  C_36
   11  A    between atoms: C_23  and  C_33
                            x       y       z     vdW  Elec       q    Type
                         _______ _______ _______ _____ _____    ______ ____

>  <TORSDO>
F 11

$$$$
=
 OpenBabel11042422023D

 46 52  0  0  1  0  0  0  0  0999 V2000
  162.1510  206.7610  147.6870 C   0  0  0  0  0  0  0  0  0  0  0  0
  160.3090  204.9070  150.2450 N   0  0  0  0  0  0  0  0  0  0  0  0
  161.7780  204.3310  146.9070 C   0  0  1  0  0  3  0  0  0  0  0  0
  160.0800  203.4630  150.1740 C   0  0  2  0  0  3  0  0  0  0  0  0
  161.0490  208.0600  149.5320 S   0  0  0  0  0  0  0  0  0  0  0  0
  160.7540  202.7100  151.2970 C   0  0  0  0  0  0  0  0  0  0  0  0
  162.0440  208.8700  148.4310 C   0  0  0  0  0  0  0  0  0  0  0  0
  160.7870  205.2740  149.1030 C   0  0  0  0  0  0  0  0  0  0  0  0
  161.3080  206.5870  148.7710 C   0  0  0  0  0  0  0  0  0  0  0  0
  161.4760  200.9720  149.6810 C   0  0  0  0  0  3  0  0  0  0  0  0
  162.5750  208.0370  147.5030 N   0  0  0  0  0  0  0  0  0  0  0  0
  161.3390  201.5190  151.0550 C   0  0  0  0  0  3  0  0  0  0  0  0
  162.6900  205.5900  146.8940 C   0  0  0  0  0  2  0  0  0  0  0  0
  161.0410  204.1730  148.2130 C   0  0  2  0  0  3  0  0  0  0  0  0
  161.1580  201.7090  148.6060 C   0  0  0  0  0  0  0  0  0  0  0  0
  160.6690  203.0740  148.8470 C   0  0  1  0  0  3  0  0  0  0  0  0
  160.5630  213.3590  149.9690 C   0  0  0  0  0  3  0  0  0  0  0  0
  161.1720  212.2660  147.9200 N   0  0  0  0  0  0  0  0  0  0  0  0
  160.4960  213.2510  147.0780 C   0  0  0  0  0  2  0  0  0  0  0  0
  159.8940  214.4520  149.1840 C   0  0  0  0  0  2  0  0  0  0  0  0
  162.3160  210.3340  148.4740 C   0  0  1  0  0  3  0  0  0  0  0  0
  161.5580  211.0170  147.4140 N   0  0  0  0  0  2  0  0  0  0  0  0
  159.3580  213.9130  147.8550 C   0  0  0  0  0  2  0  0  0  0  0  0
  161.2140  212.3870  149.3310 C   0  0  0  0  0  0  0  0  0  0  0  0
  161.9280  211.0020  150.1450 S   0  0  0  0  0  0  0  0  0  0  0  0
  161.3440  201.1940  147.2440 C   0  0  0  0  0  3  0  0  0  0  0  0
  161.5530  199.9700  147.0280 O   0  0  0  0  0  0  0  0  0  0  0  0
  160.8120  204.4050  145.8230 N   0  0  0  0  0  2  0  0  0  0  0  0
  161.3840  205.6260  143.5920 C   0  0  0  0  0  3  0  0  0  0  0  0
  161.1190  205.0630  144.6240 C   0  0  0  0  0  0  0  0  0  0  0  0
  160.6190  203.2000  152.6350 N   0  0  0  0  0  2  0  0  0  0  0  0
  161.4350  204.2700  153.1860 C   0  0  0  0  0  2  0  0  0  0  0  0
  160.6600  205.5770  153.1650 C   0  0  0  0  0  2  0  0  0  0  0  0
  160.5840  208.5180  155.1140 N   0  0  0  0  0  0  0  0  0  0  0  0
  161.4390  207.8830  153.0220 N   0  0  0  0  0  2  0  0  0  0  0  0
  160.7410  210.4600  153.2510 S   0  0  0  0  0  0  0  0  0  0  0  0
  160.9430  208.9390  153.8170 C   0  0  0  0  0  0  0  0  0  0  0  0
  160.7830  207.0850  155.1950 C   0  0  0  0  0  2  0  0  0  0  0  0
  161.4430  206.6850  153.8560 C   0  0  1  0  0  3  0  0  0  0  0  0
  159.8270  209.2890  156.0880 C   0  0  0  0  0  2  0  0  0  0  0  0
  158.0850  211.0950  155.8080 C   0  0  0  0  0  0  0  0  0  0  0  0
  158.6660  211.8170  156.6640 O   0  0  0  0  0  0  0  0  0  0  0  0
  158.6190  209.8110  155.4680 N   0  0  0  0  0  2  0  0  0  0  0  0
  156.8610  211.5780  155.1540 C   0  0  0  0  0  0  0  0  0  0  0  0
  155.6840  210.7760  155.1550 N   0  0  0  0  0  1  0  0  0  0  0  0
  156.8440  212.7060  154.5970 O   0  0  0  0  0  0  0  0  0  0  0  0
  1  9  2  0  0  0  0
  3 28  1  6  0  0  0
  3 14  1  0  0  0  0
  4  2  1  1  0  0  0
  4  6  1  0  0  0  0
  6 31  1  0  0  0  0
  7  5  1  0  0  0  0
  8  2  2  0  0  0  0
  9  8  1  0  0  0  0
  9  5  1  0  0  0  0
 10 12  1  0  0  0  0
 11  1  1  0  0  0  0
 11  7  2  0  0  0  0
 12  6  2  0  0  0  0
 13  3  1  0  0  0  0
 13  1  1  0  0  0  0
 14 16  1  0  0  0  0
 14  8  1  1  0  0  0
 15 10  2  0  0  0  0
 16 15  1  1  0  0  0
 16  4  1  0  0  0  0
 18 24  1  0  0  0  0
 19 23  1  0  0  0  0
 19 18  1  0  0  0  0
 20 17  1  0  0  0  0
 21  7  1  1  0  0  0
 21 25  1  0  0  0  0
 22 18  1  0  0  0  0
 22 21  1  0  0  0  0
 23 20  1  0  0  0  0
 24 17  2  0  0  0  0
 24 25  1  0  0  0  0
 26 15  1  0  0  0  0
 27 26  2  0  0  0  0
 29 30  3  0  0  0  0
 30 28  1  0  0  0  0
 31 32  1  0  0  0  0
 33 32  1  0  0  0  0
 34 38  1  0  0  0  0
 34 40  1  0  0  0  0
 35 37  1  0  0  0  0
 35 39  1  0  0  0  0
 36 37  2  0  0  0  0
 37 34  1  0  0  0  0
 39 33  1  6  0  0  0
 39 38  1  0  0  0  0
 41 42  2  0  0  0  0
 43 41  1  0  0  0  0
 43 40  1  0  0  0  0
 44 45  1  0  0  0  0
 44 41  1  0  0  0  0
 46 44  2  0  0  0  0
M  END
>  <MODEL>
4

>  <REMARK>
 VINA RESULT:      -6.5      2.446      8.839
  Name = 
  11 active torsions:
  status: ('A' for Active; 'I' for Inactive)
    1  A    between atoms: C_5  and  N_11
    2  A    between atoms: N_6  and  C_15
    3  A    between atoms: C_9  and  C_40
    4  A    between atoms: C_10  and  N_11
    5  A    between atoms: C_12  and  C_13
    6  A    between atoms: C_15  and  N_41
    7  A    between atoms: C_19  and  C_36
    8  A    between atoms: C_19  and  C_44
    9  A    between atoms: N_20  and  C_22
   10  A    between atoms: N_20  and  C_36
   11  A    between atoms: C_23  and  C_33
                            x       y       z     vdW  Elec       q    Type
                         _______ _______ _______ _____ _____    ______ ____

>  <TORSDO>
F 11

$$$$
=
 OpenBabel11042422023D

 46 52  0  0  1  0  0  0  0  0999 V2000
  161.0530  206.6170  150.0080 C   0  0  0  0  0  0  0  0  0  0  0  0
  162.3370  206.0520  146.6300 N   0  0  0  0  0  0  0  0  0  0  0  0
  160.7880  204.1300  149.3760 C   0  0  1  0  0  3  0  0  0  0  0  0
  162.1840  204.7800  145.9210 C   0  0  2  0  0  3  0  0  0  0  0  0
  162.4430  208.4200  148.9490 S   0  0  0  0  0  0  0  0  0  0  0  0
  161.3310  204.9040  144.6800 C   0  0  0  0  0  0  0  0  0  0  0  0
  161.6990  208.7170  150.4370 C   0  0  0  0  0  0  0  0  0  0  0  0
  161.9760  205.8520  147.8540 C   0  0  0  0  0  0  0  0  0  0  0  0
  161.8160  206.8660  148.8790 C   0  0  0  0  0  0  0  0  0  0  0  0
  160.1940  202.7790  145.2670 C   0  0  0  0  0  3  0  0  0  0  0  0
  160.9750  207.6580  150.8740 N   0  0  0  0  0  0  0  0  0  0  0  0
  160.4600  203.9260  144.3610 C   0  0  0  0  0  3  0  0  0  0  0  0
  160.2320  205.3540  150.1590 C   0  0  0  0  0  2  0  0  0  0  0  0
  161.4510  204.5330  148.0830 C   0  0  2  0  0  3  0  0  0  0  0  0
  160.6970  202.7450  146.5090 C   0  0  0  0  0  0  0  0  0  0  0  0
  161.5220  203.8860  146.9320 C   0  0  1  0  0  3  0  0  0  0  0  0
  159.7040  211.8030  153.7860 C   0  0  0  0  0  3  0  0  0  0  0  0
  160.4950  211.8680  151.5190 N   0  0  0  0  0  0  0  0  0  0  0  0
  159.7480  213.0810  151.1900 C   0  0  0  0  0  2  0  0  0  0  0  0
  158.9520  213.0830  153.5570 C   0  0  0  0  0  2  0  0  0  0  0  0
  161.8150  210.0000  151.1860 C   0  0  1  0  0  3  0  0  0  0  0  0
  161.0260  211.0460  150.5170 N   0  0  0  0  0  2  0  0  0  0  0  0
  158.5210  213.2050  152.0930 C   0  0  0  0  0  2  0  0  0  0  0  0
  160.4750  211.3050  152.8180 C   0  0  0  0  0  0  0  0  0  0  0  0
  161.3030  209.7580  152.9380 S   0  0  0  0  0  0  0  0  0  0  0  0
  160.3920  201.6420  147.4280 C   0  0  0  0  0  3  0  0  0  0  0  0
  161.3050  200.9250  147.9190 O   0  0  0  0  0  0  0  0  0  0  0  0
  161.7450  203.4070  150.1970 N   0  0  0  0  0  2  0  0  0  0  0  0
  161.2220  202.8240  152.6830 C   0  0  0  0  0  3  0  0  0  0  0  0
  161.4640  203.0960  151.5340 C   0  0  0  0  0  0  0  0  0  0  0  0
  161.5820  205.9840  143.7760 N   0  0  0  0  0  2  0  0  0  0  0  0
  162.3420  205.8430  142.5440 C   0  0  0  0  0  2  0  0  0  0  0  0
  161.5540  206.4210  141.3790 C   0  0  0  0  0  2  0  0  0  0  0  0
  162.3410  209.2210  139.3810 N   0  0  0  0  0  0  0  0  0  0  0  0
  161.8900  206.9450  139.0230 N   0  0  0  0  0  2  0  0  0  0  0  0
  161.2140  208.5870  137.0150 S   0  0  0  0  0  0  0  0  0  0  0  0
  161.8460  208.2500  138.4850 C   0  0  0  0  0  0  0  0  0  0  0  0
  162.6820  208.5570  140.6230 C   0  0  0  0  0  2  0  0  0  0  0  0
  162.4850  207.0490  140.3510 C   0  0  1  0  0  3  0  0  0  0  0  0
  162.2140  210.6630  139.2390 C   0  0  0  0  0  2  0  0  0  0  0  0
  161.3020  211.6910  141.3570 C   0  0  0  0  0  0  0  0  0  0  0  0
  160.1180  211.4790  140.9740 O   0  0  0  0  0  0  0  0  0  0  0  0
  162.4050  211.3020  140.5320 N   0  0  0  0  0  2  0  0  0  0  0  0
  161.5460  212.3350  142.6540 C   0  0  0  0  0  0  0  0  0  0  0  0
  162.6750  213.1830  142.8330 N   0  0  0  0  0  1  0  0  0  0  0  0
  160.7530  212.1450  143.6140 O   0  0  0  0  0  0  0  0  0  0  0  0
  1 13  1  0  0  0  0
  1 11  1  0  0  0  0
  2  8  2  0  0  0  0
  3 13  1  0  0  0  0
  3 28  1  1  0  0  0
  4  6  1  6  0  0  0
  4  2  1  0  0  0  0
  4 16  1  0  0  0  0
  5  7  1  0  0  0  0
  7 11  2  0  0  0  0
  8  9  1  0  0  0  0
  9  5  1  0  0  0  0
  9  1  2  0  0  0  0
 10 15  2  0  0  0  0
 12  6  2  0  0  0  0
 12 10  1  0  0  0  0
 14  8  1  6  0  0  0
 14  3  1  0  0  0  0
 15 26  1  0  0  0  0
 16 15  1  6  0  0  0
 16 14  1  0  0  0  0
 18 24  1  0  0  0  0
 19 18  1  0  0  0  0
 19 23  1  0  0  0  0
 20 17  1  0  0  0  0
 21  7  1  6  0  0  0
 21 25  1  0  0  0  0
 22 21  1  0  0  0  0
 22 18  1  0  0  0  0
 23 20  1  0  0  0  0
 24 25  1  0  0  0  0
 24 17  2  0  0  0  0
 26 27  2  0  0  0  0
 28 30  1  0  0  0  0
 30 29  3  0  0  0  0
 31  6  1  0  0  0  0
 32 31  1  0  0  0  0
 33 32  1  0  0  0  0
 34 38  1  0  0  0  0
 35 39  1  0  0  0  0
 36 37  2  0  0  0  0
 37 35  1  0  0  0  0
 37 34  1  0  0  0  0
 39 38  1  0  0  0  0
 39 33  1  1  0  0  0
 40 34  1  0  0  0  0
 40 43  1  0  0  0  0
 41 44  1  0  0  0  0
 42 41  2  0  0  0  0
 43 41  1  0  0  0  0
 44 45  1  0  0  0  0
 44 46  2  0  0  0  0
M  END
>  <MODEL>
5

>  <REMARK>
 VINA RESULT:      -6.4      4.799      9.044
  Name = 
  11 active torsions:
  status: ('A' for Active; 'I' for Inactive)
    1  A    between atoms: C_5  and  N_11
    2  A    between atoms: N_6  and  C_15
    3  A    between atoms: C_9  and  C_40
    4  A    between atoms: C_10  and  N_11
    5  A    between atoms: C_12  and  C_13
    6  A    between atoms: C_15  and  N_41
    7  A    between atoms: C_19  and  C_36
    8  A    between atoms: C_19  and  C_44
    9  A    between atoms: N_20  and  C_22
   10  A    between atoms: N_20  and  C_36
   11  A    between atoms: C_23  and  C_33
                            x       y       z     vdW  Elec       q    Type
                         _______ _______ _______ _____ _____    ______ ____

>  <TORSDO>
F 11

$$$$
=
 OpenBabel11042422023D

 46 52  0  0  1  0  0  0  0  0999 V2000
  160.4960  211.6390  151.4310 C   0  0  0  0  0  0  0  0  0  0  0  0
  162.2800  208.4470  151.3900 N   0  0  0  0  0  0  0  0  0  0  0  0
  160.3850  210.5440  153.7640 C   0  0  1  0  0  3  0  0  0  0  0  0
  162.2640  207.5090  152.5140 C   0  0  2  0  0  3  0  0  0  0  0  0
  161.9860  211.1380  149.4730 S   0  0  0  0  0  0  0  0  0  0  0  0
  161.6020  206.1960  152.1670 C   0  0  0  0  0  0  0  0  0  0  0  0
  161.0220  212.5260  149.4440 C   0  0  0  0  0  0  0  0  0  0  0  0
  161.7460  209.5480  151.8030 C   0  0  0  0  0  0  0  0  0  0  0  0
  161.4120  210.7000  150.9880 C   0  0  0  0  0  0  0  0  0  0  0  0
  160.4390  206.2190  154.3580 C   0  0  0  0  0  3  0  0  0  0  0  0
  160.2660  212.6540  150.5620 N   0  0  0  0  0  0  0  0  0  0  0  0
  160.8110  205.5810  153.0690 C   0  0  0  0  0  3  0  0  0  0  0  0
  159.6920  211.4390  152.6980 C   0  0  0  0  0  2  0  0  0  0  0  0
  161.2240  209.4580  153.1400 C   0  0  2  0  0  3  0  0  0  0  0  0
  160.7530  207.4970  154.6150 C   0  0  0  0  0  0  0  0  0  0  0  0
  161.4800  208.2350  153.5710 C   0  0  1  0  0  3  0  0  0  0  0  0
  159.8720  213.3870  144.6850 C   0  0  0  0  0  3  0  0  0  0  0  0
  161.7750  213.5600  146.1400 N   0  0  0  0  0  0  0  0  0  0  0  0
  162.7390  213.5680  145.0410 C   0  0  0  0  0  2  0  0  0  0  0  0
  160.7830  213.4510  143.4920 C   0  0  0  0  0  2  0  0  0  0  0  0
  160.9960  213.4990  148.3160 C   0  0  1  0  0  3  0  0  0  0  0  0
  162.1750  213.3060  147.4590 N   0  0  0  0  0  2  0  0  0  0  0  0
  162.1530  212.8530  143.8230 C   0  0  0  0  0  2  0  0  0  0  0  0
  160.3780  213.5140  145.9120 C   0  0  0  0  0  0  0  0  0  0  0  0
  159.4210  213.3380  147.3770 S   0  0  0  0  0  0  0  0  0  0  0  0
  160.3400  208.1500  155.8640 C   0  0  0  0  0  3  0  0  0  0  0  0
  160.2920  207.5150  156.9510 O   0  0  0  0  0  0  0  0  0  0  0  0
  161.2260  211.3590  154.6260 N   0  0  0  0  0  2  0  0  0  0  0  0
  160.3010  212.3660  156.8450 C   0  0  0  0  0  3  0  0  0  0  0  0
  160.7310  211.9030  155.8180 C   0  0  0  0  0  0  0  0  0  0  0  0
  161.9590  205.5460  150.9430 N   0  0  0  0  0  2  0  0  0  0  0  0
  161.2450  204.3990  150.4030 C   0  0  0  0  0  2  0  0  0  0  0  0
  161.4400  203.1940  151.3080 C   0  0  0  0  0  2  0  0  0  0  0  0
  160.6200  201.6320  148.2520 N   0  0  0  0  0  0  0  0  0  0  0  0
  159.8450  201.5550  150.4660 N   0  0  0  0  0  2  0  0  0  0  0  0
  158.0120  201.0340  148.5820 S   0  0  0  0  0  0  0  0  0  0  0  0
  159.5210  201.3890  149.1020 C   0  0  0  0  0  0  0  0  0  0  0  0
  161.7410  202.0480  149.0710 C   0  0  0  0  0  2  0  0  0  0  0  0
  161.2620  201.8960  150.5320 C   0  0  1  0  0  3  0  0  0  0  0  0
  160.5700  201.7830  146.8070 C   0  0  0  0  0  2  0  0  0  0  0  0
  160.9230  203.7490  145.2610 C   0  0  0  0  0  0  0  0  0  0  0  0
  159.9410  203.3930  144.5520 O   0  0  0  0  0  0  0  0  0  0  0  0
  161.2910  202.9840  146.4130 N   0  0  0  0  0  2  0  0  0  0  0  0
  161.6830  204.9540  144.9050 C   0  0  0  0  0  0  0  0  0  0  0  0
  162.6250  205.5030  145.8200 N   0  0  0  0  0  1  0  0  0  0  0  0
  161.5110  205.5030  143.7850 O   0  0  0  0  0  0  0  0  0  0  0  0
  1 13  1  0  0  0  0
  2  8  2  0  0  0  0
  3 28  1  6  0  0  0
  4  2  1  6  0  0  0
  4 16  1  0  0  0  0
  5  9  1  0  0  0  0
  6  4  1  0  0  0  0
  6 12  2  0  0  0  0
  7  5  1  0  0  0  0
  7 11  2  0  0  0  0
  9  1  2  0  0  0  0
  9  8  1  0  0  0  0
 10 15  2  0  0  0  0
 11  1  1  0  0  0  0
 12 10  1  0  0  0  0
 13  3  1  0  0  0  0
 14  8  1  6  0  0  0
 14 16  1  0  0  0  0
 14  3  1  0  0  0  0
 15 26  1  0  0  0  0
 16 15  1  6  0  0  0
 17 24  2  0  0  0  0
 18 22  1  0  0  0  0
 19 18  1  0  0  0  0
 20 23  1  0  0  0  0
 20 17  1  0  0  0  0
 21  7  1  1  0  0  0
 22 21  1  0  0  0  0
 23 19  1  0  0  0  0
 24 18  1  0  0  0  0
 24 25  1  0  0  0  0
 25 21  1  0  0  0  0
 26 27  2  0  0  0  0
 28 30  1  0  0  0  0
 30 29  3  0  0  0  0
 31  6  1  0  0  0  0
 32 31  1  0  0  0  0
 32 33  1  0  0  0  0
 34 38  1  0  0  0  0
 34 37  1  0  0  0  0
 35 39  1  0  0  0  0
 36 37  2  0  0  0  0
 37 35  1  0  0  0  0
 38 39  1  0  0  0  0
 39 33  1  1  0  0  0
 40 34  1  0  0  0  0
 41 43  1  0  0  0  0
 42 41  2  0  0  0  0
 43 40  1  0  0  0  0
 44 41  1  0  0  0  0
 44 45  1  0  0  0  0
 46 44  2  0  0  0  0
M  END
>  <MODEL>
6

>  <REMARK>
 VINA RESULT:      -6.4      2.243      3.053
  Name = 
  11 active torsions:
  status: ('A' for Active; 'I' for Inactive)
    1  A    between atoms: C_5  and  N_11
    2  A    between atoms: N_6  and  C_15
    3  A    between atoms: C_9  and  C_40
    4  A    between atoms: C_10  and  N_11
    5  A    between atoms: C_12  and  C_13
    6  A    between atoms: C_15  and  N_41
    7  A    between atoms: C_19  and  C_36
    8  A    between atoms: C_19  and  C_44
    9  A    between atoms: N_20  and  C_22
   10  A    between atoms: N_20  and  C_36
   11  A    between atoms: C_23  and  C_33
                            x       y       z     vdW  Elec       q    Type
                         _______ _______ _______ _____ _____    ______ ____

>  <TORSDO>
F 11

$$$$
=
 OpenBabel11042422023D

 46 52  0  0  1  0  0  0  0  0999 V2000
  158.7460  212.3200  152.8990 C   0  0  0  0  0  0  0  0  0  0  0  0
  161.1420  209.6550  152.1660 N   0  0  0  0  0  0  0  0  0  0  0  0
  159.4280  211.1320  155.0840 C   0  0  1  0  0  3  0  0  0  0  0  0
  161.5980  208.6940  153.1720 C   0  0  2  0  0  3  0  0  0  0  0  0
  159.8140  212.2760  150.6270 S   0  0  0  0  0  0  0  0  0  0  0  0
  161.1860  207.2760  152.8510 C   0  0  0  0  0  0  0  0  0  0  0  0
  158.5830  213.3910  150.9400 C   0  0  0  0  0  0  0  0  0  0  0  0
  160.4850  210.5770  152.7890 C   0  0  0  0  0  0  0  0  0  0  0  0
  159.7210  211.6480  152.1800 C   0  0  0  0  0  0  0  0  0  0  0  0
  160.5890  206.9250  155.2330 C   0  0  0  0  0  3  0  0  0  0  0  0
  158.0980  213.2860  152.2010 N   0  0  0  0  0  0  0  0  0  0  0  0
  160.7840  206.4510  153.8390 C   0  0  0  0  0  3  0  0  0  0  0  0
  158.3230  211.8780  154.2840 C   0  0  0  0  0  2  0  0  0  0  0  0
  160.3210  210.3070  154.1920 C   0  0  2  0  0  3  0  0  0  0  0  0
  160.6580  208.2290  155.5380 C   0  0  0  0  0  0  0  0  0  0  0  0
  160.9380  209.1640  154.4380 C   0  0  1  0  0  3  0  0  0  0  0  0
  155.3590  214.3690  147.2840 C   0  0  0  0  0  3  0  0  0  0  0  0
  157.7310  214.4170  147.6580 N   0  0  0  0  0  0  0  0  0  0  0  0
  158.0560  214.3830  146.2320 C   0  0  0  0  0  2  0  0  0  0  0  0
  155.5950  214.3940  145.8000 C   0  0  0  0  0  2  0  0  0  0  0  0
  158.0780  214.3770  149.9430 C   0  0  1  0  0  3  0  0  0  0  0  0
  158.6950  214.1260  148.6310 N   0  0  0  0  0  2  0  0  0  0  0  0
  156.9230  213.7160  145.4510 C   0  0  0  0  0  2  0  0  0  0  0  0
  156.3930  214.4530  148.1210 C   0  0  0  0  0  0  0  0  0  0  0  0
  156.2400  214.3150  149.8680 S   0  0  0  0  0  0  0  0  0  0  0  0
  160.4110  208.7090  156.9030 C   0  0  0  0  0  3  0  0  0  0  0  0
  159.2810  209.1460  157.2510 O   0  0  0  0  0  0  0  0  0  0  0  0
  160.2410  212.0870  155.8180 N   0  0  0  0  0  2  0  0  0  0  0  0
  159.1930  214.2330  156.8630 C   0  0  0  0  0  3  0  0  0  0  0  0
  159.6760  213.2410  156.3780 C   0  0  0  0  0  0  0  0  0  0  0  0
  161.3860  206.7840  151.5230 N   0  0  0  0  0  2  0  0  0  0  0  0
  162.6080  206.9930  150.7620 C   0  0  0  0  0  2  0  0  0  0  0  0
  162.4050  208.1110  149.7520 C   0  0  0  0  0  2  0  0  0  0  0  0
  160.8560  205.6140  147.7970 N   0  0  0  0  0  0  0  0  0  0  0  0
  161.8810  207.6910  147.4090 N   0  0  0  0  0  2  0  0  0  0  0  0
  162.0480  205.9260  145.3980 S   0  0  0  0  0  0  0  0  0  0  0  0
  161.5660  206.4200  146.8810 C   0  0  0  0  0  0  0  0  0  0  0  0
  160.7340  206.3470  149.0410 C   0  0  0  0  0  2  0  0  0  0  0  0
  161.3150  207.7490  148.7520 C   0  0  1  0  0  3  0  0  0  0  0  0
  160.5940  204.1910  147.6630 C   0  0  0  0  0  2  0  0  0  0  0  0
  160.7330  202.1040  149.0780 C   0  0  0  0  0  0  0  0  0  0  0  0
  160.2600  201.4090  148.1360 O   0  0  0  0  0  0  0  0  0  0  0  0
  160.9300  203.5110  148.9050 N   0  0  0  0  0  2  0  0  0  0  0  0
  161.0870  201.4630  150.3510 C   0  0  0  0  0  0  0  0  0  0  0  0
  161.1230  202.2270  151.5520 N   0  0  0  0  0  1  0  0  0  0  0  0
  161.3540  200.2330  150.3880 O   0  0  0  0  0  0  0  0  0  0  0  0
  1 13  1  0  0  0  0
  2  8  2  0  0  0  0
  3 28  1  6  0  0  0
  4  2  1  6  0  0  0
  4 16  1  0  0  0  0
  5  7  1  0  0  0  0
  5  9  1  0  0  0  0
  6  4  1  0  0  0  0
  6 12  2  0  0  0  0
  7 11  2  0  0  0  0
  9  8  1  0  0  0  0
  9  1  2  0  0  0  0
 10 15  2  0  0  0  0
 11  1  1  0  0  0  0
 12 10  1  0  0  0  0
 13  3  1  0  0  0  0
 14  8  1  6  0  0  0
 14 16  1  0  0  0  0
 14  3  1  0  0  0  0
 15 26  1  0  0  0  0
 16 15  1  6  0  0  0
 17 24  2  0  0  0  0
 18 24  1  0  0  0  0
 18 22  1  0  0  0  0
 19 18  1  0  0  0  0
 20 17  1  0  0  0  0
 21  7  1  1  0  0  0
 22 21  1  0  0  0  0
 23 20  1  0  0  0  0
 23 19  1  0  0  0  0
 24 25  1  0  0  0  0
 25 21  1  0  0  0  0
 26 27  2  0  0  0  0
 28 30  1  0  0  0  0
 30 29  3  0  0  0  0
 31  6  1  0  0  0  0
 32 31  1  0  0  0  0
 33 32  1  0  0  0  0
 34 38  1  0  0  0  0
 35 39  1  0  0  0  0
 36 37  2  0  0  0  0
 37 35  1  0  0  0  0
 37 34  1  0  0  0  0
 39 38  1  0  0  0  0
 39 33  1  1  0  0  0
 40 34  1  0  0  0  0
 40 43  1  0  0  0  0
 41 44  1  0  0  0  0
 42 41  2  0  0  0  0
 43 41  1  0  0  0  0
 44 46  2  0  0  0  0
 44 45  1  0  0  0  0
M  END
>  <MODEL>
7

>  <REMARK>
 VINA RESULT:      -5.3      1.706      2.100
  Name = 
  11 active torsions:
  status: ('A' for Active; 'I' for Inactive)
    1  A    between atoms: C_5  and  N_11
    2  A    between atoms: N_6  and  C_15
    3  A    between atoms: C_9  and  C_40
    4  A    between atoms: C_10  and  N_11
    5  A    between atoms: C_12  and  C_13
    6  A    between atoms: C_15  and  N_41
    7  A    between atoms: C_19  and  C_36
    8  A    between atoms: C_19  and  C_44
    9  A    between atoms: N_20  and  C_22
   10  A    between atoms: N_20  and  C_36
   11  A    between atoms: C_23  and  C_33
                            x       y       z     vdW  Elec       q    Type
                         _______ _______ _______ _____ _____    ______ ____

>  <TORSDO>
F 11

$$$$
=
 OpenBabel11042422023D

 46 52  0  0  1  0  0  0  0  0999 V2000
  161.5400  209.1770  153.9950 C   0  0  0  0  0  0  0  0  0  0  0  0
  158.3610  210.7920  153.1810 N   0  0  0  0  0  0  0  0  0  0  0  0
  160.9030  210.8440  155.8580 C   0  0  1  0  0  3  0  0  0  0  0  0
  157.8090  211.9030  153.9570 C   0  0  2  0  0  3  0  0  0  0  0  0
  160.1460  208.1920  152.1530 S   0  0  0  0  0  0  0  0  0  0  0  0
  157.7110  213.1820  153.1570 C   0  0  0  0  0  0  0  0  0  0  0  0
  161.6910  207.5720  152.4420 C   0  0  0  0  0  0  0  0  0  0  0  0
  159.3610  210.3190  153.8480 C   0  0  0  0  0  0  0  0  0  0  0  0
  160.3020  209.3150  153.3900 C   0  0  0  0  0  0  0  0  0  0  0  0
  158.5620  214.4530  155.1100 C   0  0  0  0  0  3  0  0  0  0  0  0
  162.3250  208.2110  153.4550 N   0  0  0  0  0  0  0  0  0  0  0  0
  158.0020  214.3630  153.7370 C   0  0  0  0  0  3  0  0  0  0  0  0
  162.0330  210.1500  155.0450 C   0  0  0  0  0  2  0  0  0  0  0  0
  159.6660  211.0820  155.0290 C   0  0  2  0  0  3  0  0  0  0  0  0
  158.9440  213.3530  155.7770 C   0  0  0  0  0  0  0  0  0  0  0  0
  158.7820  212.0620  155.0920 C   0  0  1  0  0  3  0  0  0  0  0  0
  161.2230  204.3340  148.6990 C   0  0  0  0  0  3  0  0  0  0  0  0
  161.6780  204.3110  151.0560 N   0  0  0  0  0  0  0  0  0  0  0  0
  161.3050  202.9060  151.2150 C   0  0  0  0  0  2  0  0  0  0  0  0
  160.8780  202.8730  148.7540 C   0  0  0  0  0  2  0  0  0  0  0  0
  162.2990  206.4530  151.6680 C   0  0  1  0  0  3  0  0  0  0  0  0
  161.7880  205.1650  152.1620 N   0  0  0  0  0  2  0  0  0  0  0  0
  160.3110  202.5010  150.1270 C   0  0  0  0  0  2  0  0  0  0  0  0
  161.6630  204.9530  149.7940 C   0  0  0  0  0  0  0  0  0  0  0  0
  161.9800  206.6810  149.8690 S   0  0  0  0  0  0  0  0  0  0  0  0
  159.5490  213.4390  157.1110 C   0  0  0  0  0  3  0  0  0  0  0  0
  160.7770  213.6770  157.2610 O   0  0  0  0  0  0  0  0  0  0  0  0
  160.5530  210.0340  157.0130 N   0  0  0  0  0  2  0  0  0  0  0  0
  160.1670  207.4650  156.7960 C   0  0  0  0  0  3  0  0  0  0  0  0
  160.3460  208.6530  156.8940 C   0  0  0  0  0  0  0  0  0  0  0  0
  157.1530  213.1300  151.8410 N   0  0  0  0  0  2  0  0  0  0  0  0
  157.4910  214.0730  150.7860 C   0  0  0  0  0  2  0  0  0  0  0  0
  156.5000  213.9450  149.6400 C   0  0  0  0  0  2  0  0  0  0  0  0
  158.7390  213.8670  146.9130 N   0  0  0  0  0  0  0  0  0  0  0  0
  156.4400  213.5180  147.2400 N   0  0  0  0  0  2  0  0  0  0  0  0
  157.1350  214.4420  144.8230 S   0  0  0  0  0  0  0  0  0  0  0  0
  157.4510  213.9140  146.3380 C   0  0  0  0  0  0  0  0  0  0  0  0
  158.5980  213.4800  148.3020 C   0  0  0  0  0  2  0  0  0  0  0  0
  157.1010  213.1500  148.4880 C   0  0  1  0  0  3  0  0  0  0  0  0
  159.9530  214.4310  146.3450 C   0  0  0  0  0  2  0  0  0  0  0  0
  161.5000  212.5740  147.0760 C   0  0  0  0  0  0  0  0  0  0  0  0
  160.8380  211.7330  146.4080 O   0  0  0  0  0  0  0  0  0  0  0  0
  161.1100  213.9510  147.0850 N   0  0  0  0  0  2  0  0  0  0  0  0
  162.6770  212.1390  147.8390 C   0  0  0  0  0  0  0  0  0  0  0  0
  162.5150  211.4050  149.0480 N   0  0  0  0  0  1  0  0  0  0  0  0
  163.8350  212.4050  147.4240 O   0  0  0  0  0  0  0  0  0  0  0  0
  1 13  1  0  0  0  0
  2  8  2  0  0  0  0
  2  4  1  0  0  0  0
  3 28  1  1  0  0  0
  4  6  1  6  0  0  0
  4 16  1  0  0  0  0
  5  7  1  0  0  0  0
  5  9  1  0  0  0  0
  6 12  2  0  0  0  0
  7 11  2  0  0  0  0
  9  8  1  0  0  0  0
  9  1  2  0  0  0  0
 10 15  2  0  0  0  0
 11  1  1  0  0  0  0
 12 10  1  0  0  0  0
 13  3  1  0  0  0  0
 14  8  1  6  0  0  0
 14 16  1  0  0  0  0
 14  3  1  0  0  0  0
 15 26  1  0  0  0  0
 16 15  1  6  0  0  0
 17 20  1  0  0  0  0
 17 24  2  0  0  0  0
 18 19  1  0  0  0  0
 18 22  1  0  0  0  0
 20 23  1  0  0  0  0
 21 22  1  0  0  0  0
 21  7  1  1  0  0  0
 23 19  1  0  0  0  0
 24 25  1  0  0  0  0
 24 18  1  0  0  0  0
 25 21  1  0  0  0  0
 26 27  2  0  0  0  0
 29 30  3  0  0  0  0
 30 28  1  0  0  0  0
 31  6  1  0  0  0  0
 32 31  1  0  0  0  0
 33 32  1  0  0  0  0
 34 38  1  0  0  0  0
 35 39  1  0  0  0  0
 36 37  2  0  0  0  0
 37 34  1  0  0  0  0
 37 35  1  0  0  0  0
 38 39  1  0  0  0  0
 39 33  1  1  0  0  0
 40 34  1  0  0  0  0
 40 43  1  0  0  0  0
 41 43  1  0  0  0  0
 41 44  1  0  0  0  0
 42 41  2  0  0  0  0
 44 45  1  0  0  0  0
 46 44  2  0  0  0  0
M  END
>  <MODEL>
8

>  <REMARK>
 VINA RESULT:      -5.1      3.592      8.528
  Name = 
  11 active torsions:
  status: ('A' for Active; 'I' for Inactive)
    1  A    between atoms: C_5  and  N_11
    2  A    between atoms: N_6  and  C_15
    3  A    between atoms: C_9  and  C_40
    4  A    between atoms: C_10  and  N_11
    5  A    between atoms: C_12  and  C_13
    6  A    between atoms: C_15  and  N_41
    7  A    between atoms: C_19  and  C_36
    8  A    between atoms: C_19  and  C_44
    9  A    between atoms: N_20  and  C_22
   10  A    between atoms: N_20  and  C_36
   11  A    between atoms: C_23  and  C_33
                            x       y       z     vdW  Elec       q    Type
                         _______ _______ _______ _____ _____    ______ ____

>  <TORSDO>
F 11

$$$$
=
 OpenBabel11042422023D

 46 52  0  0  1  0  0  0  0  0999 V2000
  161.1400  206.6120  149.8600 C   0  0  0  0  0  0  0  0  0  0  0  0
  162.3990  206.2200  146.4490 N   0  0  0  0  0  0  0  0  0  0  0  0
  160.9280  204.1480  149.1270 C   0  0  1  0  0  3  0  0  0  0  0  0
  162.2700  204.9760  145.6890 C   0  0  2  0  0  3  0  0  0  0  0  0
  162.4740  208.4920  148.8640 S   0  0  0  0  0  0  0  0  0  0  0  0
  161.4000  205.1300  144.4620 C   0  0  0  0  0  0  0  0  0  0  0  0
  161.7390  208.7080  150.3700 C   0  0  0  0  0  0  0  0  0  0  0  0
  162.0570  205.9600  147.6670 C   0  0  0  0  0  0  0  0  0  0  0  0
  161.8830  206.9260  148.7350 C   0  0  0  0  0  0  0  0  0  0  0  0
  160.3220  202.9550  144.9710 C   0  0  0  0  0  3  0  0  0  0  0  0
  161.0450  207.6130  150.7700 N   0  0  0  0  0  0  0  0  0  0  0  0
  160.5500  204.1440  144.1110 C   0  0  0  0  0  3  0  0  0  0  0  0
  160.3520  205.3230  149.9660 C   0  0  0  0  0  2  0  0  0  0  0  0
  161.5670  204.6200  147.8450 C   0  0  2  0  0  3  0  0  0  0  0  0
  160.8390  202.8810  146.2060 C   0  0  0  0  0  0  0  0  0  0  0  0
  161.6410  204.0240  146.6680 C   0  0  1  0  0  3  0  0  0  0  0  0
  159.8740  211.4580  154.0680 C   0  0  0  0  0  3  0  0  0  0  0  0
  160.4090  211.6930  151.7390 N   0  0  0  0  0  0  0  0  0  0  0  0
  159.5370  212.8520  151.5540 C   0  0  0  0  0  2  0  0  0  0  0  0
  159.0020  212.6790  153.9880 C   0  0  0  0  0  2  0  0  0  0  0  0
  161.8310  209.9600  151.1720 C   0  0  1  0  0  3  0  0  0  0  0  0
  160.8940  210.9640  150.6450 N   0  0  0  0  0  2  0  0  0  0  0  0
  158.4080  212.8290  152.5840 C   0  0  0  0  0  2  0  0  0  0  0  0
  160.5740  211.0720  153.0010 C   0  0  0  0  0  0  0  0  0  0  0  0
  161.5310  209.5970  152.9510 S   0  0  0  0  0  0  0  0  0  0  0  0
  160.5720  201.7330  147.0810 C   0  0  0  0  0  3  0  0  0  0  0  0
  159.7730  201.8200  148.0510 O   0  0  0  0  0  0  0  0  0  0  0  0
  161.9130  203.4150  149.9070 N   0  0  0  0  0  2  0  0  0  0  0  0
  161.1960  201.5100  151.5350 C   0  0  0  0  0  3  0  0  0  0  0  0
  161.5270  202.3890  150.7800 C   0  0  0  0  0  0  0  0  0  0  0  0
  161.6140  206.2530  143.6020 N   0  0  0  0  0  2  0  0  0  0  0  0
  161.1990  206.2900  142.2090 C   0  0  0  0  0  2  0  0  0  0  0  0
  162.3310  205.8010  141.3180 C   0  0  0  0  0  2  0  0  0  0  0  0
  161.5430  208.7410  139.5310 N   0  0  0  0  0  0  0  0  0  0  0  0
  162.3820  206.6090  139.0190 N   0  0  0  0  0  2  0  0  0  0  0  0
  160.9750  207.7950  137.0710 S   0  0  0  0  0  0  0  0  0  0  0  0
  161.6600  207.7300  138.5540 C   0  0  0  0  0  0  0  0  0  0  0  0
  162.1620  208.2630  140.7520 C   0  0  0  0  0  2  0  0  0  0  0  0
  162.8030  206.9070  140.3840 C   0  0  1  0  0  3  0  0  0  0  0  0
  160.6700  209.9020  139.4640 C   0  0  0  0  0  2  0  0  0  0  0  0
  158.2230  210.4020  139.0950 C   0  0  0  0  0  0  0  0  0  0  0  0
  158.4110  211.6210  139.3600 O   0  0  0  0  0  0  0  0  0  0  0  0
  159.3190  209.4820  139.1260 N   0  0  0  0  0  2  0  0  0  0  0  0
  156.8760  209.9290  138.7470 C   0  0  0  0  0  0  0  0  0  0  0  0
  155.7280  210.6030  139.2510 N   0  0  0  0  0  1  0  0  0  0  0  0
  156.7300  208.9300  137.9960 O   0  0  0  0  0  0  0  0  0  0  0  0
  1 13  1  0  0  0  0
  1 11  1  0  0  0  0
  2  8  2  0  0  0  0
  3 28  1  1  0  0  0
  3 13  1  0  0  0  0
  4  6  1  6  0  0  0
  4  2  1  0  0  0  0
  4 16  1  0  0  0  0
  5  7  1  0  0  0  0
  7 11  2  0  0  0  0
  8  9  1  0  0  0  0
  9  5  1  0  0  0  0
  9  1  2  0  0  0  0
 10 15  2  0  0  0  0
 12  6  2  0  0  0  0
 12 10  1  0  0  0  0
 14  8  1  6  0  0  0
 14  3  1  0  0  0  0
 15 26  1  0  0  0  0
 16 15  1  6  0  0  0
 16 14  1  0  0  0  0
 18 24  1  0  0  0  0
 19 18  1  0  0  0  0
 19 23  1  0  0  0  0
 20 17  1  0  0  0  0
 21  7  1  6  0  0  0
 21 25  1  0  0  0  0
 22 21  1  0  0  0  0
 22 18  1  0  0  0  0
 23 20  1  0  0  0  0
 24 17  2  0  0  0  0
 25 24  1  0  0  0  0
 26 27  2  0  0  0  0
 28 30  1  0  0  0  0
 30 29  3  0  0  0  0
 31  6  1  0  0  0  0
 32 31  1  0  0  0  0
 33 32  1  0  0  0  0
 34 38  1  0  0  0  0
 35 39  1  0  0  0  0
 36 37  2  0  0  0  0
 37 35  1  0  0  0  0
 37 34  1  0  0  0  0
 39 38  1  0  0  0  0
 39 33  1  1  0  0  0
 40 34  1  0  0  0  0
 41 43  1  0  0  0  0
 41 42  2  0  0  0  0
 43 40  1  0  0  0  0
 44 41  1  0  0  0  0
 44 45  1  0  0  0  0
 46 44  2  0  0  0  0
M  END
>  <MODEL>
9

>  <REMARK>
 VINA RESULT:      -4.5      5.232      9.209
  Name = 
  11 active torsions:
  status: ('A' for Active; 'I' for Inactive)
    1  A    between atoms: C_5  and  N_11
    2  A    between atoms: N_6  and  C_15
    3  A    between atoms: C_9  and  C_40
    4  A    between atoms: C_10  and  N_11
    5  A    between atoms: C_12  and  C_13
    6  A    between atoms: C_15  and  N_41
    7  A    between atoms: C_19  and  C_36
    8  A    between atoms: C_19  and  C_44
    9  A    between atoms: N_20  and  C_22
   10  A    between atoms: N_20  and  C_36
   11  A    between atoms: C_23  and  C_33
                            x       y       z     vdW  Elec       q    Type
                         _______ _______ _______ _____ _____    ______ ____

>  <TORSDO>
F 11

$$$$
