=
 OpenBabel11042420463D

 27 28  0  0  1  0  0  0  0  0999 V2000
  161.2000  203.6910  148.6940 C   0  0  0  0  0  0  0  0  0  0  0  0
  161.7510  208.3650  149.0670 C   0  0  0  0  0  3  0  0  0  0  0  0
  161.9320  206.2910  148.0490 C   0  0  0  0  0  0  0  0  0  0  0  0
  161.3380  206.0350  149.2520 C   0  0  0  0  0  0  0  0  0  0  0  0
  160.3310  204.4940  150.8270 O   0  0  0  0  0  1  0  0  0  0  0  0
  160.9500  204.7380  149.6050 C   0  0  0  0  0  0  0  0  0  0  0  0
  161.8260  203.9660  147.4630 C   0  0  0  0  0  3  0  0  0  0  0  0
  162.1950  205.2790  147.1280 C   0  0  0  0  0  3  0  0  0  0  0  0
  161.1770  207.2950  150.0240 C   0  0  1  0  0  3  0  0  0  0  0  0
  162.2160  207.6610  147.8730 N   0  0  0  0  0  0  0  0  0  0  0  0
  162.0110  207.2400  151.2970 C   0  0  0  0  0  2  0  0  0  0  0  0
  161.2730  207.8840  152.4620 C   0  0  0  0  0  2  0  0  0  0  0  0
  161.7850  205.8170  153.5590 O   0  0  0  0  0  1  0  0  0  0  0  0
  160.8310  206.8330  153.4720 C   0  0  1  0  0  3  0  0  0  0  0  0
  159.7060  207.0940  155.5330 O   0  0  0  0  0  0  0  0  0  0  0  0
  160.6260  207.4550  154.8170 C   0  0  0  0  0  0  0  0  0  0  0  0
  161.5700  208.5130  155.2840 C   0  0  0  0  0  2  0  0  0  0  0  0
  161.6670  211.2130  155.6800 O   0  0  0  0  0  1  0  0  0  0  0  0
  159.5750  210.3510  154.3690 O   0  0  0  0  0  0  0  0  0  0  0  0
  160.6840  210.0660  155.6140 P   0  0  0  0  0  0  0  0  0  0  0  0
  159.8560  209.9470  157.0830 O   0  0  0  0  0  1  0  0  0  0  0  0
  160.8370  202.2810  149.0300 C   0  0  0  0  0  2  0  0  0  0  0  0
  160.0270  201.8470  146.8340 O   0  0  0  0  0  0  0  0  0  0  0  0
  161.5050  200.2500  147.6900 N   0  0  0  0  0  2  0  0  0  0  0  0
  160.7480  201.4560  147.7920 C   0  0  0  0  0  0  0  0  0  0  0  0
  161.4810  199.4490  146.5390 C   0  0  0  0  0  0  0  0  0  0  0  0
  161.4600  198.7610  145.5500 C   0  0  0  0  0  3  0  0  0  0  0  0
  1 22  1  0  0  0  0
  1  6  1  0  0  0  0
  2  9  1  0  0  0  0
  3  4  1  0  0  0  0
  4  6  2  0  0  0  0
  4  9  1  0  0  0  0
  6  5  1  0  0  0  0
  7  1  2  0  0  0  0
  8  7  1  0  0  0  0
  8  3  2  0  0  0  0
  9 11  1  1  0  0  0
 10  3  1  0  0  0  0
 10  2  2  0  0  0  0
 11 12  1  0  0  0  0
 12 14  1  0  0  0  0
 14 13  1  1  0  0  0
 14 16  1  0  0  0  0
 16 17  1  0  0  0  0
 16 15  2  0  0  0  0
 17 20  1  0  0  0  0
 19 20  2  0  0  0  0
 20 18  1  0  0  0  0
 20 21  1  0  0  0  0
 23 25  2  0  0  0  0
 24 25  1  0  0  0  0
 25 22  1  0  0  0  0
 26 24  1  0  0  0  0
 27 26  3  0  0  0  0
M  END
>  <MODEL>
1

>  <REMARK>
 VINA RESULT:      -7.3      0.000      0.000
  Name = 
  9 active torsions:
  status: ('A' for Active; 'I' for Inactive)
    1  A    between atoms: C_1  and  C_19
    2  A    between atoms: C_4  and  C_17
    3  A    between atoms: C_4  and  C_18
    4  A    between atoms: C_9  and  N_12
    5  A    between atoms: C_13  and  C_19
    6  A    between atoms: C_17  and  C_26
    7  A    between atoms: C_18  and  C_24
    8  A    between atoms: P_22  and  C_23
    9  A    between atoms: C_23  and  C_26
                            x       y       z     vdW  Elec       q    Type
                         _______ _______ _______ _____ _____    ______ ____

>  <TORSDO>
F 9

$$$$
=
 OpenBabel11042420463D

 27 28  0  0  1  0  0  0  0  0999 V2000
  161.0160  203.2030  147.8880 C   0  0  0  0  0  0  0  0  0  0  0  0
  161.3090  204.6930  152.3590 C   0  0  0  0  0  3  0  0  0  0  0  0
  160.8330  203.1900  150.6600 C   0  0  0  0  0  0  0  0  0  0  0  0
  161.2680  204.3150  150.0160 C   0  0  0  0  0  0  0  0  0  0  0  0
  161.8390  205.4980  147.9810 O   0  0  0  0  0  1  0  0  0  0  0  0
  161.3790  204.3520  148.6220 C   0  0  0  0  0  0  0  0  0  0  0  0
  160.5560  202.0560  148.5640 C   0  0  0  0  0  3  0  0  0  0  0  0
  160.4650  202.0400  149.9650 C   0  0  0  0  0  3  0  0  0  0  0  0
  161.5940  205.3780  151.0030 C   0  0  1  0  0  3  0  0  0  0  0  0
  160.8220  203.3460  152.0610 N   0  0  0  0  0  0  0  0  0  0  0  0
  160.6610  206.5670  150.8190 C   0  0  0  0  0  2  0  0  0  0  0  0
  161.4400  207.8180  150.4370 C   0  0  0  0  0  2  0  0  0  0  0  0
  162.6540  209.6880  151.3130 O   0  0  0  0  0  1  0  0  0  0  0  0
  161.9990  208.5090  151.6740 C   0  0  1  0  0  3  0  0  0  0  0  0
  160.0270  209.6170  152.3560 O   0  0  0  0  0  0  0  0  0  0  0  0
  160.9010  208.8140  152.6430 C   0  0  0  0  0  0  0  0  0  0  0  0
  160.8730  208.1140  153.9610 C   0  0  0  0  0  2  0  0  0  0  0  0
  159.8740  209.8040  155.8590 O   0  0  0  0  0  1  0  0  0  0  0  0
  162.0270  208.4910  156.5530 O   0  0  0  0  0  1  0  0  0  0  0  0
  161.1870  209.2830  155.3170 P   0  0  0  0  0  0  0  0  0  0  0  0
  162.1150  210.5770  154.7490 O   0  0  0  0  0  0  0  0  0  0  0  0
  161.0840  203.1950  146.3960 C   0  0  0  0  0  2  0  0  0  0  0  0
  159.8860  201.6930  144.9910 O   0  0  0  0  0  0  0  0  0  0  0  0
  161.5310  200.7130  146.3330 N   0  0  0  0  0  2  0  0  0  0  0  0
  160.7820  201.8350  145.8670 C   0  0  0  0  0  0  0  0  0  0  0  0
  161.3080  199.4150  145.8510 C   0  0  0  0  0  0  0  0  0  0  0  0
  161.1170  198.2990  145.4370 C   0  0  0  0  0  3  0  0  0  0  0  0
  1  7  2  0  0  0  0
  1  6  1  0  0  0  0
  3 10  1  0  0  0  0
  4  3  1  0  0  0  0
  4  9  1  0  0  0  0
  5  6  1  0  0  0  0
  6  4  2  0  0  0  0
  7  8  1  0  0  0  0
  8  3  2  0  0  0  0
  9 11  1  6  0  0  0
  9  2  1  0  0  0  0
 10  2  2  0  0  0  0
 12 11  1  0  0  0  0
 12 14  1  0  0  0  0
 14 13  1  6  0  0  0
 14 16  1  0  0  0  0
 15 16  2  0  0  0  0
 16 17  1  0  0  0  0
 17 20  1  0  0  0  0
 20 18  1  0  0  0  0
 20 19  1  0  0  0  0
 21 20  2  0  0  0  0
 22  1  1  0  0  0  0
 23 25  2  0  0  0  0
 25 24  1  0  0  0  0
 25 22  1  0  0  0  0
 26 24  1  0  0  0  0
 27 26  3  0  0  0  0
M  END
>  <MODEL>
2

>  <REMARK>
 VINA RESULT:      -7.2      2.035      2.982
  Name = 
  9 active torsions:
  status: ('A' for Active; 'I' for Inactive)
    1  A    between atoms: C_1  and  C_19
    2  A    between atoms: C_4  and  C_17
    3  A    between atoms: C_4  and  C_18
    4  A    between atoms: C_9  and  N_12
    5  A    between atoms: C_13  and  C_19
    6  A    between atoms: C_17  and  C_26
    7  A    between atoms: C_18  and  C_24
    8  A    between atoms: P_22  and  C_23
    9  A    between atoms: C_23  and  C_26
                            x       y       z     vdW  Elec       q    Type
                         _______ _______ _______ _____ _____    ______ ____

>  <TORSDO>
F 9

$$$$
=
 OpenBabel11042420463D

 27 28  0  0  1  0  0  0  0  0999 V2000
  160.8820  208.1310  153.9590 C   0  0  0  0  0  0  0  0  0  0  0  0
  162.1970  207.5540  149.4610 C   0  0  0  0  0  3  0  0  0  0  0  0
  161.5800  208.7560  151.3440 C   0  0  0  0  0  0  0  0  0  0  0  0
  161.5170  207.4480  151.7330 C   0  0  0  0  0  0  0  0  0  0  0  0
  161.1340  205.7630  153.4310 O   0  0  0  0  0  1  0  0  0  0  0  0
  161.1770  207.0990  153.0440 C   0  0  0  0  0  0  0  0  0  0  0  0
  160.9360  209.4750  153.5410 C   0  0  0  0  0  3  0  0  0  0  0  0
  161.2920  209.7990  152.2220 C   0  0  0  0  0  3  0  0  0  0  0  0
  161.8780  206.5570  150.5990 C   0  0  1  0  0  3  0  0  0  0  0  0
  161.9700  208.8960  149.9960 N   0  0  0  0  0  0  0  0  0  0  0  0
  160.6840  205.6950  150.2100 C   0  0  0  0  0  2  0  0  0  0  0  0
  160.7460  205.3090  148.7390 C   0  0  0  0  0  2  0  0  0  0  0  0
  160.5430  202.9600  149.1630 O   0  0  0  0  0  1  0  0  0  0  0  0
  161.3570  203.9250  148.5660 C   0  0  1  0  0  3  0  0  0  0  0  0
  161.1800  202.5320  146.6650 O   0  0  0  0  0  0  0  0  0  0  0  0
  161.5350  203.6110  147.1140 C   0  0  0  0  0  0  0  0  0  0  0  0
  162.1370  204.6360  146.2120 C   0  0  0  0  0  2  0  0  0  0  0  0
  161.7570  205.6260  143.6960 O   0  0  0  0  0  0  0  0  0  0  0  0
  160.1460  203.6860  144.3890 O   0  0  0  0  0  1  0  0  0  0  0  0
  160.9870  205.0710  144.8730 P   0  0  0  0  0  0  0  0  0  0  0  0
  159.8860  206.2300  145.4240 O   0  0  0  0  0  1  0  0  0  0  0  0
  160.4810  207.8180  155.3640 C   0  0  0  0  0  2  0  0  0  0  0  0
  161.0150  209.4330  157.0290 O   0  0  0  0  0  0  0  0  0  0  0  0
  159.0780  209.8700  155.7940 N   0  0  0  0  0  2  0  0  0  0  0  0
  160.2160  209.0730  156.1230 C   0  0  0  0  0  0  0  0  0  0  0  0
  158.7940  211.0740  156.4560 C   0  0  0  0  0  0  0  0  0  0  0  0
  158.5490  212.1080  157.0250 C   0  0  0  0  0  3  0  0  0  0  0  0
  1 22  1  0  0  0  0
  2 10  2  0  0  0  0
  2  9  1  0  0  0  0
  3  4  2  0  0  0  0
  3  8  1  0  0  0  0
  4  6  1  0  0  0  0
  6  5  1  0  0  0  0
  6  1  2  0  0  0  0
  7  1  1  0  0  0  0
  8  7  2  0  0  0  0
  9 11  1  6  0  0  0
  9  4  1  0  0  0  0
 10  3  1  0  0  0  0
 12 11  1  0  0  0  0
 14 12  1  0  0  0  0
 14 13  1  6  0  0  0
 15 16  2  0  0  0  0
 16 14  1  0  0  0  0
 17 16  1  0  0  0  0
 18 20  2  0  0  0  0
 19 20  1  0  0  0  0
 20 21  1  0  0  0  0
 20 17  1  0  0  0  0
 22 25  1  0  0  0  0
 24 25  1  0  0  0  0
 24 26  1  0  0  0  0
 25 23  2  0  0  0  0
 26 27  3  0  0  0  0
M  END
>  <MODEL>
3

>  <REMARK>
 VINA RESULT:      -7.1      3.614      9.187
  Name = 
  9 active torsions:
  status: ('A' for Active; 'I' for Inactive)
    1  A    between atoms: C_1  and  C_19
    2  A    between atoms: C_4  and  C_17
    3  A    between atoms: C_4  and  C_18
    4  A    between atoms: C_9  and  N_12
    5  A    between atoms: C_13  and  C_19
    6  A    between atoms: C_17  and  C_26
    7  A    between atoms: C_18  and  C_24
    8  A    between atoms: P_22  and  C_23
    9  A    between atoms: C_23  and  C_26
                            x       y       z     vdW  Elec       q    Type
                         _______ _______ _______ _____ _____    ______ ____

>  <TORSDO>
F 9

$$$$
=
 OpenBabel11042420463D

 27 28  0  0  1  0  0  0  0  0999 V2000
  160.5720  209.5400  154.2470 C   0  0  0  0  0  0  0  0  0  0  0  0
  161.3760  205.4310  152.0630 C   0  0  0  0  0  3  0  0  0  0  0  0
  161.0110  206.8220  153.8820 C   0  0  0  0  0  0  0  0  0  0  0  0
  161.0210  207.6590  152.8020 C   0  0  0  0  0  0  0  0  0  0  0  0
  160.7910  209.8700  151.8410 O   0  0  0  0  0  1  0  0  0  0  0  0
  160.7950  209.0320  152.9500 C   0  0  0  0  0  0  0  0  0  0  0  0
  160.5790  208.6670  155.3530 C   0  0  0  0  0  3  0  0  0  0  0  0
  160.7960  207.2910  155.1760 C   0  0  0  0  0  3  0  0  0  0  0  0
  161.2660  206.8870  151.5550 C   0  0  1  0  0  3  0  0  0  0  0  0
  161.2270  205.4760  153.5180 N   0  0  0  0  0  0  0  0  0  0  0  0
  162.5860  207.3160  150.9260 C   0  0  0  0  0  2  0  0  0  0  0  0
  162.6340  206.9410  149.4520 C   0  0  0  0  0  2  0  0  0  0  0  0
  161.2590  208.2400  147.9820 O   0  0  0  0  0  1  0  0  0  0  0  0
  161.2670  207.1110  148.8030 C   0  0  1  0  0  3  0  0  0  0  0  0
  160.8850  204.7950  148.5250 O   0  0  0  0  0  0  0  0  0  0  0  0
  160.9160  205.8980  148.0010 C   0  0  0  0  0  0  0  0  0  0  0  0
  160.5860  206.0490  146.5530 C   0  0  0  0  0  2  0  0  0  0  0  0
  161.6560  205.4720  144.1070 O   0  0  0  0  0  0  0  0  0  0  0  0
  163.2210  205.0040  146.1500 O   0  0  0  0  0  1  0  0  0  0  0  0
  161.6450  204.9760  145.5360 P   0  0  0  0  0  0  0  0  0  0  0  0
  161.0560  203.3920  145.5790 O   0  0  0  0  0  1  0  0  0  0  0  0
  160.3570  211.0010  154.4700 C   0  0  0  0  0  2  0  0  0  0  0  0
  158.1890  211.4020  153.5740 O   0  0  0  0  0  0  0  0  0  0  0  0
  158.3290  211.4340  155.9080 N   0  0  0  0  0  2  0  0  0  0  0  0
  158.9030  211.3000  154.6070 C   0  0  0  0  0  0  0  0  0  0  0  0
  156.9620  211.6870  156.0970 C   0  0  0  0  0  0  0  0  0  0  0  0
  155.7880  211.9050  156.2610 C   0  0  0  0  0  3  0  0  0  0  0  0
  1 22  1  0  0  0  0
  1  7  1  0  0  0  0
  2 10  2  0  0  0  0
  3  8  1  0  0  0  0
  4  6  1  0  0  0  0
  4  3  2  0  0  0  0
  5  6  1  0  0  0  0
  6  1  2  0  0  0  0
  8  7  2  0  0  0  0
  9 11  1  1  0  0  0
  9  2  1  0  0  0  0
  9  4  1  0  0  0  0
 10  3  1  0  0  0  0
 12 11  1  0  0  0  0
 14 13  1  6  0  0  0
 14 12  1  0  0  0  0
 16 15  2  0  0  0  0
 16 14  1  0  0  0  0
 17 16  1  0  0  0  0
 18 20  2  0  0  0  0
 20 21  1  0  0  0  0
 20 19  1  0  0  0  0
 20 17  1  0  0  0  0
 22 25  1  0  0  0  0
 23 25  2  0  0  0  0
 24 26  1  0  0  0  0
 25 24  1  0  0  0  0
 26 27  3  0  0  0  0
M  END
>  <MODEL>
4

>  <REMARK>
 VINA RESULT:      -7.0      4.200      9.444
  Name = 
  9 active torsions:
  status: ('A' for Active; 'I' for Inactive)
    1  A    between atoms: C_1  and  C_19
    2  A    between atoms: C_4  and  C_17
    3  A    between atoms: C_4  and  C_18
    4  A    between atoms: C_9  and  N_12
    5  A    between atoms: C_13  and  C_19
    6  A    between atoms: C_17  and  C_26
    7  A    between atoms: C_18  and  C_24
    8  A    between atoms: P_22  and  C_23
    9  A    between atoms: C_23  and  C_26
                            x       y       z     vdW  Elec       q    Type
                         _______ _______ _______ _____ _____    ______ ____

>  <TORSDO>
F 9

$$$$
=
 OpenBabel11042420463D

 27 28  0  0  1  0  0  0  0  0999 V2000
  160.9550  203.5100  150.3380 C   0  0  0  0  0  0  0  0  0  0  0  0
  161.0080  208.1250  151.3340 C   0  0  0  0  0  3  0  0  0  0  0  0
  161.1650  206.2550  149.9730 C   0  0  0  0  0  0  0  0  0  0  0  0
  160.9480  205.7550  151.2250 C   0  0  0  0  0  0  0  0  0  0  0  0
  160.5910  203.8830  152.7210 O   0  0  0  0  0  1  0  0  0  0  0  0
  160.8290  204.3780  151.4430 C   0  0  0  0  0  0  0  0  0  0  0  0
  161.1930  204.0390  149.0540 C   0  0  0  0  0  3  0  0  0  0  0  0
  161.2960  205.4260  148.8610 C   0  0  0  0  0  3  0  0  0  0  0  0
  160.8440  206.8630  152.2110 C   0  0  1  0  0  3  0  0  0  0  0  0
  161.2230  207.6640  149.9630 N   0  0  0  0  0  0  0  0  0  0  0  0
  161.9870  206.7800  153.2150 C   0  0  0  0  0  2  0  0  0  0  0  0
  161.4660  206.4640  154.6100 C   0  0  0  0  0  2  0  0  0  0  0  0
  159.3700  206.9000  155.6830 O   0  0  0  0  0  1  0  0  0  0  0  0
  160.4620  207.5140  155.0660 C   0  0  1  0  0  3  0  0  0  0  0  0
  162.1580  208.1920  156.5660 O   0  0  0  0  0  0  0  0  0  0  0  0
  161.1060  208.4760  156.0130 C   0  0  0  0  0  0  0  0  0  0  0  0
  160.4600  209.7980  156.2640 C   0  0  0  0  0  2  0  0  0  0  0  0
  159.5610  210.4640  153.7730 O   0  0  0  0  0  0  0  0  0  0  0  0
  160.3270  212.4750  155.2600 O   0  0  0  0  0  1  0  0  0  0  0  0
  160.5940  210.8690  154.8010 P   0  0  0  0  0  0  0  0  0  0  0  0
  162.1410  210.7270  154.1330 O   0  0  0  0  0  1  0  0  0  0  0  0
  160.8690  202.0290  150.5140 C   0  0  0  0  0  2  0  0  0  0  0  0
  159.4110  201.3610  148.7550 O   0  0  0  0  0  0  0  0  0  0  0  0
  161.6550  200.7670  148.4750 N   0  0  0  0  0  2  0  0  0  0  0  0
  160.5860  201.3640  149.2100 C   0  0  0  0  0  0  0  0  0  0  0  0
  161.4520  200.1520  147.2310 C   0  0  0  0  0  0  0  0  0  0  0  0
  161.2770  199.6240  146.1620 C   0  0  0  0  0  3  0  0  0  0  0  0
  1 22  1  0  0  0  0
  1  6  1  0  0  0  0
  2  9  1  0  0  0  0
  3  4  1  0  0  0  0
  4  6  2  0  0  0  0
  4  9  1  0  0  0  0
  6  5  1  0  0  0  0
  7  1  2  0  0  0  0
  8  7  1  0  0  0  0
  8  3  2  0  0  0  0
  9 11  1  1  0  0  0
 10  3  1  0  0  0  0
 10  2  2  0  0  0  0
 11 12  1  0  0  0  0
 12 14  1  0  0  0  0
 14 13  1  1  0  0  0
 14 16  1  0  0  0  0
 16 17  1  0  0  0  0
 16 15  2  0  0  0  0
 18 20  2  0  0  0  0
 20 19  1  0  0  0  0
 20 17  1  0  0  0  0
 21 20  1  0  0  0  0
 23 25  2  0  0  0  0
 24 25  1  0  0  0  0
 25 22  1  0  0  0  0
 26 24  1  0  0  0  0
 27 26  3  0  0  0  0
M  END
>  <MODEL>
5

>  <REMARK>
 VINA RESULT:      -6.9      1.496      2.141
  Name = 
  9 active torsions:
  status: ('A' for Active; 'I' for Inactive)
    1  A    between atoms: C_1  and  C_19
    2  A    between atoms: C_4  and  C_17
    3  A    between atoms: C_4  and  C_18
    4  A    between atoms: C_9  and  N_12
    5  A    between atoms: C_13  and  C_19
    6  A    between atoms: C_17  and  C_26
    7  A    between atoms: C_18  and  C_24
    8  A    between atoms: P_22  and  C_23
    9  A    between atoms: C_23  and  C_26
                            x       y       z     vdW  Elec       q    Type
                         _______ _______ _______ _____ _____    ______ ____

>  <TORSDO>
F 9

$$$$
=
 OpenBabel11042420463D

 27 28  0  0  1  0  0  0  0  0999 V2000
  161.7720  207.1010  149.5350 C   0  0  0  0  0  0  0  0  0  0  0  0
  161.0190  208.1020  154.0880 C   0  0  0  0  0  3  0  0  0  0  0  0
  161.1130  206.7460  152.2100 C   0  0  0  0  0  0  0  0  0  0  0  0
  161.4530  207.9890  151.7570 C   0  0  0  0  0  0  0  0  0  0  0  0
  162.1590  209.4690  149.9730 O   0  0  0  0  0  1  0  0  0  0  0  0
  161.7980  208.2010  150.4180 C   0  0  0  0  0  0  0  0  0  0  0  0
  161.4050  205.8270  150.0130 C   0  0  0  0  0  3  0  0  0  0  0  0
  161.0750  205.6400  151.3650 C   0  0  0  0  0  3  0  0  0  0  0  0
  161.4150  208.9720  152.8720 C   0  0  1  0  0  3  0  0  0  0  0  0
  160.8300  206.7390  153.5920 N   0  0  0  0  0  0  0  0  0  0  0  0
  160.3380  210.0170  152.6130 C   0  0  0  0  0  2  0  0  0  0  0  0
  160.5770  211.2660  153.4490 C   0  0  0  0  0  2  0  0  0  0  0  0
  158.4720  211.7590  152.4170 O   0  0  0  0  0  1  0  0  0  0  0  0
  159.3770  212.2020  153.3840 C   0  0  1  0  0  3  0  0  0  0  0  0
  158.7810  213.2880  155.3960 O   0  0  0  0  0  0  0  0  0  0  0  0
  158.7000  212.2770  154.7160 C   0  0  0  0  0  0  0  0  0  0  0  0
  157.9090  211.1080  155.2010 C   0  0  0  0  0  2  0  0  0  0  0  0
  155.8030  212.5950  154.3030 O   0  0  0  0  0  0  0  0  0  0  0  0
  155.2190  210.1470  155.0140 O   0  0  0  0  0  1  0  0  0  0  0  0
  156.1450  211.5290  155.3200 P   0  0  0  0  0  0  0  0  0  0  0  0
  155.8010  212.1010  156.8730 O   0  0  0  0  0  1  0  0  0  0  0  0
  162.1000  207.2730  148.0880 C   0  0  0  0  0  2  0  0  0  0  0  0
  160.3080  206.3620  146.8120 O   0  0  0  0  0  0  0  0  0  0  0  0
  162.1930  204.9930  147.0100 N   0  0  0  0  0  2  0  0  0  0  0  0
  161.4670  206.1930  147.2780 C   0  0  0  0  0  0  0  0  0  0  0  0
  161.6580  203.9550  146.2330 C   0  0  0  0  0  0  0  0  0  0  0  0
  161.1990  203.0630  145.5640 C   0  0  0  0  0  3  0  0  0  0  0  0
  1  7  2  0  0  0  0
  1  6  1  0  0  0  0
  3 10  1  0  0  0  0
  4  3  1  0  0  0  0
  4  9  1  0  0  0  0
  5  6  1  0  0  0  0
  6  4  2  0  0  0  0
  7  8  1  0  0  0  0
  8  3  2  0  0  0  0
  9 11  1  6  0  0  0
  9  2  1  0  0  0  0
 10  2  2  0  0  0  0
 11 12  1  0  0  0  0
 14 13  1  6  0  0  0
 14 12  1  0  0  0  0
 14 16  1  0  0  0  0
 16 17  1  0  0  0  0
 16 15  2  0  0  0  0
 17 20  1  0  0  0  0
 18 20  2  0  0  0  0
 19 20  1  0  0  0  0
 20 21  1  0  0  0  0
 22  1  1  0  0  0  0
 23 25  2  0  0  0  0
 24 25  1  0  0  0  0
 25 22  1  0  0  0  0
 26 24  1  0  0  0  0
 27 26  3  0  0  0  0
M  END
>  <MODEL>
6

>  <REMARK>
 VINA RESULT:      -6.9      3.278      4.753
  Name = 
  9 active torsions:
  status: ('A' for Active; 'I' for Inactive)
    1  A    between atoms: C_1  and  C_19
    2  A    between atoms: C_4  and  C_17
    3  A    between atoms: C_4  and  C_18
    4  A    between atoms: C_9  and  N_12
    5  A    between atoms: C_13  and  C_19
    6  A    between atoms: C_17  and  C_26
    7  A    between atoms: C_18  and  C_24
    8  A    between atoms: P_22  and  C_23
    9  A    between atoms: C_23  and  C_26
                            x       y       z     vdW  Elec       q    Type
                         _______ _______ _______ _____ _____    ______ ____

>  <TORSDO>
F 9

$$$$
=
 OpenBabel11042420463D

 27 28  0  0  1  0  0  0  0  0999 V2000
  160.5670  209.4440  154.3560 C   0  0  0  0  0  0  0  0  0  0  0  0
  162.3790  207.5910  150.4090 C   0  0  0  0  0  3  0  0  0  0  0  0
  161.4790  209.2630  151.7390 C   0  0  0  0  0  0  0  0  0  0  0  0
  161.4800  208.1520  152.5330 C   0  0  0  0  0  0  0  0  0  0  0  0
  161.0570  207.0750  154.6610 O   0  0  0  0  0  1  0  0  0  0  0  0
  161.0350  208.2100  153.8580 C   0  0  0  0  0  0  0  0  0  0  0  0
  160.5590  210.5790  153.5210 C   0  0  0  0  0  3  0  0  0  0  0  0
  161.0220  210.4960  152.1990 C   0  0  0  0  0  3  0  0  0  0  0  0
  162.0240  206.9860  151.7870 C   0  0  1  0  0  3  0  0  0  0  0  0
  161.9940  209.0010  150.4520 N   0  0  0  0  0  0  0  0  0  0  0  0
  160.9470  205.9220  151.6210 C   0  0  0  0  0  2  0  0  0  0  0  0
  160.7610  205.5580  150.1550 C   0  0  0  0  0  2  0  0  0  0  0  0
  160.4210  203.2140  150.5080 O   0  0  0  0  0  1  0  0  0  0  0  0
  161.2510  204.1440  149.8790 C   0  0  1  0  0  3  0  0  0  0  0  0
  161.4540  202.7470  147.9830 O   0  0  0  0  0  0  0  0  0  0  0  0
  161.2850  203.8800  148.4070 C   0  0  0  0  0  0  0  0  0  0  0  0
  161.0930  205.0150  147.4560 C   0  0  0  0  0  2  0  0  0  0  0  0
  161.3520  203.2600  145.3800 O   0  0  0  0  0  1  0  0  0  0  0  0
  161.3240  205.7880  144.7100 O   0  0  0  0  0  0  0  0  0  0  0  0
  161.8180  204.6260  145.8350 P   0  0  0  0  0  0  0  0  0  0  0  0
  163.5050  204.6380  145.9490 O   0  0  0  0  0  1  0  0  0  0  0  0
  160.0500  209.5600  155.7530 C   0  0  0  0  0  2  0  0  0  0  0  0
  159.7730  211.8450  156.3630 O   0  0  0  0  0  0  0  0  0  0  0  0
  157.8660  210.7980  155.5050 N   0  0  0  0  0  2  0  0  0  0  0  0
  159.2360  210.7990  155.9070 C   0  0  0  0  0  0  0  0  0  0  0  0
  157.0590  211.9420  155.6020 C   0  0  0  0  0  0  0  0  0  0  0  0
  156.3650  212.9240  155.6840 C   0  0  0  0  0  3  0  0  0  0  0  0
  1 22  1  0  0  0  0
  2 10  2  0  0  0  0
  2  9  1  0  0  0  0
  3  8  2  0  0  0  0
  3  4  1  0  0  0  0
  4  6  2  0  0  0  0
  6  1  1  0  0  0  0
  6  5  1  0  0  0  0
  7  1  2  0  0  0  0
  8  7  1  0  0  0  0
  9 11  1  6  0  0  0
  9  4  1  0  0  0  0
 10  3  1  0  0  0  0
 12 11  1  0  0  0  0
 14 12  1  0  0  0  0
 14 13  1  1  0  0  0
 15 16  2  0  0  0  0
 16 14  1  0  0  0  0
 17 16  1  0  0  0  0
 18 20  1  0  0  0  0
 19 20  2  0  0  0  0
 20 21  1  0  0  0  0
 20 17  1  0  0  0  0
 22 25  1  0  0  0  0
 24 26  1  0  0  0  0
 24 25  1  0  0  0  0
 25 23  2  0  0  0  0
 26 27  3  0  0  0  0
M  END
>  <MODEL>
7

>  <REMARK>
 VINA RESULT:      -6.8      3.879      9.354
  Name = 
  9 active torsions:
  status: ('A' for Active; 'I' for Inactive)
    1  A    between atoms: C_1  and  C_19
    2  A    between atoms: C_4  and  C_17
    3  A    between atoms: C_4  and  C_18
    4  A    between atoms: C_9  and  N_12
    5  A    between atoms: C_13  and  C_19
    6  A    between atoms: C_17  and  C_26
    7  A    between atoms: C_18  and  C_24
    8  A    between atoms: P_22  and  C_23
    9  A    between atoms: C_23  and  C_26
                            x       y       z     vdW  Elec       q    Type
                         _______ _______ _______ _____ _____    ______ ____

>  <TORSDO>
F 9

$$$$
=
 OpenBabel11042420463D

 27 28  0  0  1  0  0  0  0  0999 V2000
  161.4440  207.2970  151.1900 C   0  0  0  0  0  0  0  0  0  0  0  0
  160.4560  202.6860  151.4400 C   0  0  0  0  0  3  0  0  0  0  0  0
  161.2570  204.7210  152.2110 C   0  0  0  0  0  0  0  0  0  0  0  0
  160.8350  204.9750  150.9360 C   0  0  0  0  0  0  0  0  0  0  0  0
  160.4590  206.5110  149.1010 O   0  0  0  0  0  1  0  0  0  0  0  0
  160.9080  206.2630  150.3940 C   0  0  0  0  0  0  0  0  0  0  0  0
  161.8890  207.0170  152.4970 C   0  0  0  0  0  3  0  0  0  0  0  0
  161.7930  205.7180  153.0210 C   0  0  0  0  0  3  0  0  0  0  0  0
  160.3070  203.7330  150.3120 C   0  0  1  0  0  3  0  0  0  0  0  0
  161.0710  203.3720  152.5770 N   0  0  0  0  0  0  0  0  0  0  0  0
  161.1710  203.3370  149.1220 C   0  0  0  0  0  2  0  0  0  0  0  0
  160.4760  202.2850  148.2700 C   0  0  0  0  0  2  0  0  0  0  0  0
  161.2130  200.3780  147.0220 O   0  0  0  0  0  1  0  0  0  0  0  0
  161.4140  201.7490  147.1970 C   0  0  1  0  0  3  0  0  0  0  0  0
  160.4290  202.0050  145.0640 O   0  0  0  0  0  0  0  0  0  0  0  0
  161.1900  202.4640  145.9020 C   0  0  0  0  0  0  0  0  0  0  0  0
  161.8930  203.7560  145.6490 C   0  0  0  0  0  2  0  0  0  0  0  0
  161.5720  205.5210  143.5900 O   0  0  0  0  0  0  0  0  0  0  0  0
  159.4700  204.0710  144.1580 O   0  0  0  0  0  1  0  0  0  0  0  0
  160.8150  204.9100  144.7490 P   0  0  0  0  0  0  0  0  0  0  0  0
  160.2960  206.1350  145.7920 O   0  0  0  0  0  1  0  0  0  0  0  0
  161.5760  208.6850  150.6530 C   0  0  0  0  0  2  0  0  0  0  0  0
  162.6350  210.1850  152.1690 O   0  0  0  0  0  0  0  0  0  0  0  0
  160.3050  210.0690  152.3370 N   0  0  0  0  0  2  0  0  0  0  0  0
  161.5540  209.6780  151.7650 C   0  0  0  0  0  0  0  0  0  0  0  0
  160.2220  211.0190  153.3660 C   0  0  0  0  0  0  0  0  0  0  0  0
  160.1510  211.8350  154.2510 C   0  0  0  0  0  3  0  0  0  0  0  0
  1  7  1  0  0  0  0
  2 10  2  0  0  0  0
  3 10  1  0  0  0  0
  3  8  1  0  0  0  0
  4  3  2  0  0  0  0
  5  6  1  0  0  0  0
  6  4  1  0  0  0  0
  6  1  2  0  0  0  0
  7  8  2  0  0  0  0
  9 11  1  6  0  0  0
  9  4  1  0  0  0  0
  9  2  1  0  0  0  0
 12 11  1  0  0  0  0
 14 13  1  6  0  0  0
 14 12  1  0  0  0  0
 15 16  2  0  0  0  0
 16 14  1  0  0  0  0
 17 16  1  0  0  0  0
 18 20  2  0  0  0  0
 19 20  1  0  0  0  0
 20 17  1  0  0  0  0
 20 21  1  0  0  0  0
 22  1  1  0  0  0  0
 22 25  1  0  0  0  0
 24 26  1  0  0  0  0
 25 23  2  0  0  0  0
 25 24  1  0  0  0  0
 26 27  3  0  0  0  0
M  END
>  <MODEL>
8

>  <REMARK>
 VINA RESULT:      -6.5      3.809      8.976
  Name = 
  9 active torsions:
  status: ('A' for Active; 'I' for Inactive)
    1  A    between atoms: C_1  and  C_19
    2  A    between atoms: C_4  and  C_17
    3  A    between atoms: C_4  and  C_18
    4  A    between atoms: C_9  and  N_12
    5  A    between atoms: C_13  and  C_19
    6  A    between atoms: C_17  and  C_26
    7  A    between atoms: C_18  and  C_24
    8  A    between atoms: P_22  and  C_23
    9  A    between atoms: C_23  and  C_26
                            x       y       z     vdW  Elec       q    Type
                         _______ _______ _______ _____ _____    ______ ____

>  <TORSDO>
F 9

$$$$
=
 OpenBabel11042420463D

 27 28  0  0  1  0  0  0  0  0999 V2000
  160.8340  203.1210  149.3330 C   0  0  0  0  0  0  0  0  0  0  0  0
  161.7010  205.8280  145.5630 C   0  0  0  0  0  3  0  0  0  0  0  0
  161.5620  203.8430  146.7520 C   0  0  0  0  0  0  0  0  0  0  0  0
  161.2070  204.8100  147.6500 C   0  0  0  0  0  0  0  0  0  0  0  0
  160.4520  205.4730  149.8540 O   0  0  0  0  0  1  0  0  0  0  0  0
  160.8270  204.4800  148.9550 C   0  0  0  0  0  0  0  0  0  0  0  0
  161.2150  202.1350  148.4020 C   0  0  0  0  0  3  0  0  0  0  0  0
  161.5810  202.4930  147.0940 C   0  0  0  0  0  3  0  0  0  0  0  0
  161.2720  206.1520  147.0120 C   0  0  1  0  0  3  0  0  0  0  0  0
  161.8800  204.3780  145.4870 N   0  0  0  0  0  0  0  0  0  0  0  0
  162.3390  207.0020  147.6890 C   0  0  0  0  0  2  0  0  0  0  0  0
  161.7470  208.2970  148.2240 C   0  0  0  0  0  2  0  0  0  0  0  0
  162.8040  207.4740  150.2090 O   0  0  0  0  0  1  0  0  0  0  0  0
  161.8080  208.3350  149.7450 C   0  0  1  0  0  3  0  0  0  0  0  0
  161.9560  210.6770  149.4650 O   0  0  0  0  0  0  0  0  0  0  0  0
  162.0770  209.7270  150.2220 C   0  0  0  0  0  0  0  0  0  0  0  0
  162.4810  209.9480  151.6430 C   0  0  0  0  0  2  0  0  0  0  0  0
  160.1010  209.1370  152.7080 O   0  0  0  0  0  1  0  0  0  0  0  0
  161.5430  210.6870  154.2440 O   0  0  0  0  0  1  0  0  0  0  0  0
  161.0310  210.3290  152.6720 P   0  0  0  0  0  0  0  0  0  0  0  0
  160.2150  211.6630  152.0310 O   0  0  0  0  0  0  0  0  0  0  0  0
  160.4680  202.7110  150.7230 C   0  0  0  0  0  2  0  0  0  0  0  0
  162.3940  203.3930  151.9450 O   0  0  0  0  0  0  0  0  0  0  0  0
  160.4450  204.6080  152.3870 N   0  0  0  0  0  2  0  0  0  0  0  0
  161.1660  203.5710  151.7210 C   0  0  0  0  0  0  0  0  0  0  0  0
  161.0570  205.4640  153.3140 C   0  0  0  0  0  0  0  0  0  0  0  0
  161.5820  206.2000  154.1120 C   0  0  0  0  0  3  0  0  0  0  0  0
  1 22  1  0  0  0  0
  2  9  1  0  0  0  0
  3  8  2  0  0  0  0
  3  4  1  0  0  0  0
  4  6  2  0  0  0  0
  6  1  1  0  0  0  0
  6  5  1  0  0  0  0
  7  1  2  0  0  0  0
  8  7  1  0  0  0  0
  9  4  1  0  0  0  0
  9 11  1  1  0  0  0
 10  2  2  0  0  0  0
 10  3  1  0  0  0  0
 11 12  1  0  0  0  0
 12 14  1  0  0  0  0
 14 13  1  6  0  0  0
 14 16  1  0  0  0  0
 15 16  2  0  0  0  0
 16 17  1  0  0  0  0
 17 20  1  0  0  0  0
 20 18  1  0  0  0  0
 20 19  1  0  0  0  0
 21 20  2  0  0  0  0
 22 25  1  0  0  0  0
 24 26  1  0  0  0  0
 25 23  2  0  0  0  0
 25 24  1  0  0  0  0
 26 27  3  0  0  0  0
M  END
>  <MODEL>
9

>  <REMARK>
 VINA RESULT:      -6.4      2.492      4.730
  Name = 
  9 active torsions:
  status: ('A' for Active; 'I' for Inactive)
    1  A    between atoms: C_1  and  C_19
    2  A    between atoms: C_4  and  C_17
    3  A    between atoms: C_4  and  C_18
    4  A    between atoms: C_9  and  N_12
    5  A    between atoms: C_13  and  C_19
    6  A    between atoms: C_17  and  C_26
    7  A    between atoms: C_18  and  C_24
    8  A    between atoms: P_22  and  C_23
    9  A    between atoms: C_23  and  C_26
                            x       y       z     vdW  Elec       q    Type
                         _______ _______ _______ _____ _____    ______ ____

>  <TORSDO>
F 9

$$$$
