=
 OpenBabel11052410553D

 30 34  0  0  1  0  0  0  0  0999 V2000
  159.0140  209.3400  154.3460 C   0  0  2  0  0  3  0  0  0  0  0  0
  159.3380  207.5950  156.0660 N   0  0  0  0  0  0  0  0  0  0  0  0
  161.9670  210.1120  150.7890 C   0  0  2  0  0  3  0  0  0  0  0  0
  160.5610  211.0890  156.7110 C   0  0  0  0  0  2  0  0  0  0  0  0
  162.7910  210.2100  151.9120 O   0  0  0  0  0  1  0  0  0  0  0  0
  162.0670  207.5100  152.4780 C   0  0  0  0  0  3  0  0  0  0  0  0
  160.3140  208.5660  154.0980 C   0  0  0  0  0  0  0  0  0  0  0  0
  161.5150  208.9580  157.1530 N   0  0  0  0  0  2  0  0  0  0  0  0
  161.3770  207.5590  157.2600 N   0  0  0  0  0  2  0  0  0  0  0  0
  160.6030  210.7280  151.0490 C   0  0  0  0  0  2  0  0  0  0  0  0
  160.7450  209.6490  156.3630 C   0  0  1  0  0  3  0  0  0  0  0  0
  159.2880  210.6490  153.7620 N   0  0  0  0  0  2  0  0  0  0  0  0
  159.3490  213.4010  152.7460 C   0  0  0  0  0  0  0  0  0  0  0  0
  158.5220  212.9670  153.9370 C   0  0  2  0  0  3  0  0  0  0  0  0
  160.1530  206.9400  156.8380 C   0  0  0  0  0  3  0  0  0  0  0  0
  161.9380  207.5930  151.0150 C   0  0  0  0  0  3  0  0  0  0  0  0
  160.7450  212.0840  151.3550 O   0  0  0  0  0  0  0  0  0  0  0  0
  159.9730  214.4530  152.7990 O   0  0  0  0  0  0  0  0  0  0  0  0
  159.7630  208.8740  155.4910 C   0  0  1  0  0  0  0  0  0  0  0  0
  161.8510  208.6990  150.2580 C   0  0  0  0  0  0  0  0  0  0  0  0
  159.4370  212.5520  151.5120 C   0  0  0  0  0  2  0  0  0  0  0  0
  159.1350  211.7620  154.6760 C   0  0  2  0  0  3  0  0  0  0  0  0
  160.7820  212.1910  155.3000 S   0  0  0  0  0  0  0  0  0  0  0  0
  161.1950  208.0500  153.2860 C   0  0  0  0  0  0  0  0  0  0  0  0
  154.8560  213.3090  154.2940 N   0  0  0  0  0  1  0  0  0  0  0  0
  157.0620  212.6920  153.5690 C   0  0  1  0  0  3  0  0  0  0  0  0
  156.2150  213.7810  154.1170 C   0  0  1  0  0  3  0  0  0  0  0  0
  156.5580  213.7250  152.7510 O   0  0  0  0  0  0  0  0  0  0  0  0
  161.6380  208.5040  148.8890 O   0  0  0  0  0  0  0  0  0  0  0  0
  162.1380  207.3720  148.1890 C   0  0  0  0  0  1  0  0  0  0  0  0
  1 12  1  1  0  0  0
  1 19  1  0  0  0  0
  2 15  2  0  0  0  0
  3 10  1  0  0  0  0
  3  5  1  1  0  0  0
  6 24  2  0  0  0  0
  7  1  1  0  0  0  0
  8  9  1  0  0  0  0
 10 17  1  0  0  0  0
 11  4  1  1  0  0  0
 11  8  1  0  0  0  0
 13 18  2  0  0  0  0
 14 13  1  6  0  0  0
 14 22  1  0  0  0  0
 15  9  1  0  0  0  0
 16  6  1  0  0  0  0
 17 21  1  0  0  0  0
 19  7  1  6  0  0  0
 19  2  1  0  0  0  0
 19 11  1  0  0  0  0
 20  3  1  0  0  0  0
 20 16  2  0  0  0  0
 21 13  1  0  0  0  0
 22 12  1  6  0  0  0
 22 23  1  0  0  0  0
 23  4  1  0  0  0  0
 24  7  2  0  0  0  0
 26 28  1  6  0  0  0
 26 14  1  0  0  0  0
 26 27  1  0  0  0  0
 27 25  1  6  0  0  0
 28 27  1  0  0  0  0
 29 20  1  0  0  0  0
 30 29  1  0  0  0  0
M  END
>  <MODEL>
1

>  <REMARK>
 VINA RESULT:      -1.9      0.000      0.000
  Name = 
  2 active torsions:
  status: ('A' for Active; 'I' for Inactive)
    1  A    between atoms: O_6  and  C_25
    2  A    between atoms: C_16  and  C_19
                            x       y       z     vdW  Elec       q    Type
                         _______ _______ _______ _____ _____    ______ ____

>  <TORSDO>
F 2

$$$$
=
 OpenBabel11052410553D

 30 34  0  0  1  0  0  0  0  0999 V2000
  158.0200  211.5050  152.3020 C   0  0  2  0  0  3  0  0  0  0  0  0
  156.8310  211.3710  154.4640 N   0  0  0  0  0  0  0  0  0  0  0  0
  162.3360  209.8370  151.5610 C   0  0  2  0  0  3  0  0  0  0  0  0
  158.8070  214.4530  153.6180 C   0  0  0  0  0  2  0  0  0  0  0  0
  162.5100  210.6950  152.6480 O   0  0  0  0  0  1  0  0  0  0  0  0
  160.6640  209.0340  154.0500 C   0  0  0  0  0  3  0  0  0  0  0  0
  158.8930  210.8230  153.3610 C   0  0  0  0  0  0  0  0  0  0  0  0
  158.5780  213.2070  155.6290 N   0  0  0  0  0  2  0  0  0  0  0  0
  157.8990  212.2330  156.3880 N   0  0  0  0  0  2  0  0  0  0  0  0
  161.3480  210.4070  150.5590 C   0  0  0  0  0  2  0  0  0  0  0  0
  158.5830  213.1590  154.3280 C   0  0  1  0  0  3  0  0  0  0  0  0
  158.9970  212.1000  151.3960 N   0  0  0  0  0  2  0  0  0  0  0  0
  160.5400  213.4700  149.3100 C   0  0  0  0  0  0  0  0  0  0  0  0
  159.1590  213.9060  149.7520 C   0  0  2  0  0  3  0  0  0  0  0  0
  156.8820  211.4370  155.7610 C   0  0  0  0  0  3  0  0  0  0  0  0
  161.2740  208.1140  153.0790 C   0  0  0  0  0  3  0  0  0  0  0  0
  161.8220  211.6250  150.0650 O   0  0  0  0  0  0  0  0  0  0  0  0
  161.4060  214.3150  149.1250 O   0  0  0  0  0  0  0  0  0  0  0  0
  157.9150  211.9570  153.6710 C   0  0  1  0  0  0  0  0  0  0  0  0
  161.9670  208.4260  151.9710 C   0  0  0  0  0  0  0  0  0  0  0  0
  160.8710  212.0200  149.1180 C   0  0  0  0  0  2  0  0  0  0  0  0
  158.8610  213.5310  151.2160 C   0  0  2  0  0  3  0  0  0  0  0  0
  160.0520  214.3400  152.3180 S   0  0  0  0  0  0  0  0  0  0  0  0
  159.7870  209.9370  153.7010 C   0  0  0  0  0  0  0  0  0  0  0  0
  156.3700  214.2560  147.3460 N   0  0  0  0  0  1  0  0  0  0  0  0
  158.0560  213.3910  148.8240 C   0  0  1  0  0  3  0  0  0  0  0  0
  157.7180  214.4530  147.8440 C   0  0  1  0  0  3  0  0  0  0  0  0
  158.5160  213.3460  147.4900 O   0  0  0  0  0  0  0  0  0  0  0  0
  162.3620  207.3580  151.1580 O   0  0  0  0  0  0  0  0  0  0  0  0
  162.0220  206.0090  151.4490 C   0  0  0  0  0  1  0  0  0  0  0  0
  1 12  1  6  0  0  0
  1  7  1  0  0  0  0
  1 19  1  0  0  0  0
  2 15  2  0  0  0  0
  3 20  1  0  0  0  0
  3  5  1  1  0  0  0
  7 24  2  0  0  0  0
  8  9  1  0  0  0  0
 10  3  1  0  0  0  0
 11  4  1  6  0  0  0
 11  8  1  0  0  0  0
 14 13  1  6  0  0  0
 14 22  1  0  0  0  0
 15  9  1  0  0  0  0
 16  6  1  0  0  0  0
 17 10  1  0  0  0  0
 18 13  2  0  0  0  0
 19  7  1  1  0  0  0
 19 11  1  0  0  0  0
 19  2  1  0  0  0  0
 20 16  2  0  0  0  0
 21 13  1  0  0  0  0
 21 17  1  0  0  0  0
 22 12  1  6  0  0  0
 22 23  1  0  0  0  0
 23  4  1  0  0  0  0
 24  6  2  0  0  0  0
 26 28  1  6  0  0  0
 26 14  1  0  0  0  0
 27 25  1  6  0  0  0
 27 26  1  0  0  0  0
 28 27  1  0  0  0  0
 29 30  1  0  0  0  0
 29 20  1  0  0  0  0
M  END
>  <MODEL>
2

>  <REMARK>
 VINA RESULT:      -1.8      2.805      4.021
  Name = 
  2 active torsions:
  status: ('A' for Active; 'I' for Inactive)
    1  A    between atoms: O_6  and  C_25
    2  A    between atoms: C_16  and  C_19
                            x       y       z     vdW  Elec       q    Type
                         _______ _______ _______ _____ _____    ______ ____

>  <TORSDO>
F 2

$$$$
=
 OpenBabel11052410553D

 30 34  0  0  1  0  0  0  0  0999 V2000
  158.9780  211.1650  141.4540 C   0  0  2  0  0  3  0  0  0  0  0  0
  160.0730  211.6690  143.6120 N   0  0  0  0  0  0  0  0  0  0  0  0
  161.2310  210.9260  137.3520 C   0  0  2  0  0  3  0  0  0  0  0  0
  158.5230  214.4530  141.6210 C   0  0  0  0  0  2  0  0  0  0  0  0
  161.5680  212.1960  137.8250 O   0  0  0  0  0  1  0  0  0  0  0  0
  162.7380  210.8750  140.0650 C   0  0  0  0  0  3  0  0  0  0  0  0
  160.4800  211.4050  141.2600 C   0  0  0  0  0  0  0  0  0  0  0  0
  160.5560  214.3060  142.8430 N   0  0  0  0  0  2  0  0  0  0  0  0
  161.3670  213.6390  143.7830 N   0  0  0  0  0  2  0  0  0  0  0  0
  159.7860  210.5830  137.6690 C   0  0  0  0  0  2  0  0  0  0  0  0
  159.6750  213.6570  142.1370 C   0  0  1  0  0  3  0  0  0  0  0  0
  158.4090  211.5560  140.1690 N   0  0  0  0  0  2  0  0  0  0  0  0
  156.8000  212.2160  137.8050 C   0  0  0  0  0  0  0  0  0  0  0  0
  156.2800  212.3090  139.2230 C   0  0  2  0  0  3  0  0  0  0  0  0
  160.9630  212.3500  144.2690 C   0  0  0  0  0  3  0  0  0  0  0  0
  162.8460  209.8760  138.9910 C   0  0  0  0  0  3  0  0  0  0  0  0
  158.9330  211.5040  137.0550 O   0  0  0  0  0  0  0  0  0  0  0  0
  156.5450  213.1110  137.0110 O   0  0  0  0  0  0  0  0  0  0  0  0
  159.6310  212.1420  142.2970 C   0  0  1  0  0  0  0  0  0  0  0  0
  162.1800  209.8450  137.8250 C   0  0  0  0  0  0  0  0  0  0  0  0
  157.6450  211.0570  137.3630 C   0  0  0  0  0  2  0  0  0  0  0  0
  157.3970  212.5910  140.2460 C   0  0  2  0  0  3  0  0  0  0  0  0
  158.1980  214.1730  139.8690 S   0  0  0  0  0  0  0  0  0  0  0  0
  161.6050  211.1470  140.6530 C   0  0  0  0  0  0  0  0  0  0  0  0
  153.2500  210.5260  140.3760 N   0  0  0  0  0  1  0  0  0  0  0  0
  155.4670  211.0780  139.6330 C   0  0  1  0  0  3  0  0  0  0  0  0
  154.0220  211.3930  139.5070 C   0  0  1  0  0  3  0  0  0  0  0  0
  154.6970  210.6130  138.5450 O   0  0  0  0  0  0  0  0  0  0  0  0
  162.3950  208.7270  137.0110 O   0  0  0  0  0  0  0  0  0  0  0  0
  161.9820  207.4180  137.3840 C   0  0  0  0  0  1  0  0  0  0  0  0
  1 12  1  6  0  0  0
  1 19  1  0  0  0  0
  2 15  2  0  0  0  0
  3 10  1  0  0  0  0
  3  5  1  1  0  0  0
  3 20  1  0  0  0  0
  6 24  2  0  0  0  0
  7  1  1  0  0  0  0
  8  9  1  0  0  0  0
  9 15  1  0  0  0  0
 11  4  1  1  0  0  0
 11 19  1  0  0  0  0
 11  8  1  0  0  0  0
 12 22  1  0  0  0  0
 14 13  1  6  0  0  0
 14 26  1  0  0  0  0
 14 22  1  0  0  0  0
 16  6  1  0  0  0  0
 17 21  1  0  0  0  0
 17 10  1  0  0  0  0
 18 13  2  0  0  0  0
 19  7  1  6  0  0  0
 19  2  1  0  0  0  0
 20 16  2  0  0  0  0
 21 13  1  0  0  0  0
 22 23  1  6  0  0  0
 23  4  1  0  0  0  0
 24  7  2  0  0  0  0
 26 28  1  6  0  0  0
 27 26  1  0  0  0  0
 27 25  1  1  0  0  0
 28 27  1  0  0  0  0
 29 30  1  0  0  0  0
 29 20  1  0  0  0  0
M  END
>  <MODEL>
3

>  <REMARK>
 VINA RESULT:      -1.7     11.426     14.009
  Name = 
  2 active torsions:
  status: ('A' for Active; 'I' for Inactive)
    1  A    between atoms: O_6  and  C_25
    2  A    between atoms: C_16  and  C_19
                            x       y       z     vdW  Elec       q    Type
                         _______ _______ _______ _____ _____    ______ ____

>  <TORSDO>
F 2

$$$$
=
 OpenBabel11052410553D

 30 34  0  0  1  0  0  0  0  0999 V2000
  162.7510  210.2260  151.5270 C   0  0  2  0  0  3  0  0  0  0  0  0
  163.0590  211.6220  149.5100 N   0  0  0  0  0  0  0  0  0  0  0  0
  160.6300  206.0460  151.5370 C   0  0  2  0  0  3  0  0  0  0  0  0
  160.0720  212.1830  151.7190 C   0  0  0  0  0  2  0  0  0  0  0  0
  159.6730  206.8870  150.9660 O   0  0  0  0  0  1  0  0  0  0  0  0
  161.5840  207.4040  148.9130 C   0  0  0  0  0  3  0  0  0  0  0  0
  162.1400  209.5460  150.2960 C   0  0  0  0  0  0  0  0  0  0  0  0
  160.3240  212.1450  149.3560 N   0  0  0  0  0  2  0  0  0  0  0  0
  161.1560  212.1660  148.2200 N   0  0  0  0  0  2  0  0  0  0  0  0
  161.3750  206.7420  152.6630 C   0  0  0  0  0  2  0  0  0  0  0  0
  160.7530  211.6740  150.4920 C   0  0  1  0  0  3  0  0  0  0  0  0
  161.9510  209.7020  152.6290 N   0  0  0  0  0  2  0  0  0  0  0  0
  160.6490  208.9530  155.1500 C   0  0  0  0  0  0  0  0  0  0  0  0
  161.3190  210.2900  154.9190 C   0  0  2  0  0  3  0  0  0  0  0  0
  162.5780  212.0660  148.3880 C   0  0  0  0  0  3  0  0  0  0  0  0
  161.9420  206.0540  149.3740 C   0  0  0  0  0  3  0  0  0  0  0  0
  160.4790  207.1090  153.6700 O   0  0  0  0  0  0  0  0  0  0  0  0
  159.5680  208.9130  155.7220 O   0  0  0  0  0  0  0  0  0  0  0  0
  162.1480  211.0610  150.5120 C   0  0  1  0  0  0  0  0  0  0  0  0
  161.5820  205.4520  150.5200 C   0  0  0  0  0  0  0  0  0  0  0  0
  161.2760  207.6780  154.6670 C   0  0  0  0  0  2  0  0  0  0  0  0
  161.3020  210.7140  153.4380 C   0  0  2  0  0  3  0  0  0  0  0  0
  159.5910  210.8680  152.8570 S   0  0  0  0  0  0  0  0  0  0  0  0
  161.8520  208.4730  149.6130 C   0  0  0  0  0  0  0  0  0  0  0  0
  164.0230  211.5890  157.0850 N   0  0  0  0  0  1  0  0  0  0  0  0
  162.7420  210.3400  155.4810 C   0  0  1  0  0  3  0  0  0  0  0  0
  162.7170  211.0310  156.7940 C   0  0  1  0  0  3  0  0  0  0  0  0
  162.8150  209.6280  156.6980 O   0  0  0  0  0  0  0  0  0  0  0  0
  162.1380  204.1920  150.7660 O   0  0  0  0  0  0  0  0  0  0  0  0
  161.5040  203.2220  151.5890 C   0  0  0  0  0  1  0  0  0  0  0  0
  1  7  1  6  0  0  0
  1 12  1  0  0  0  0
  3  5  1  6  0  0  0
  3 10  1  0  0  0  0
  4 23  1  0  0  0  0
  6 16  1  0  0  0  0
  6 24  2  0  0  0  0
  7 19  1  0  0  0  0
  8 11  1  0  0  0  0
  9 15  1  0  0  0  0
  9  8  1  0  0  0  0
 10 17  1  0  0  0  0
 11 19  1  0  0  0  0
 11  4  1  1  0  0  0
 13 18  2  0  0  0  0
 14 13  1  6  0  0  0
 14 26  1  0  0  0  0
 15  2  2  0  0  0  0
 16 20  2  0  0  0  0
 17 21  1  0  0  0  0
 19  2  1  6  0  0  0
 19  1  1  0  0  0  0
 20 29  1  0  0  0  0
 20  3  1  0  0  0  0
 21 13  1  0  0  0  0
 22 12  1  6  0  0  0
 22 14  1  0  0  0  0
 23 22  1  0  0  0  0
 24  7  2  0  0  0  0
 26 28  1  1  0  0  0
 26 27  1  0  0  0  0
 27 25  1  6  0  0  0
 28 27  1  0  0  0  0
 29 30  1  0  0  0  0
M  END
>  <MODEL>
4

>  <REMARK>
 VINA RESULT:      -1.2      3.432      6.022
  Name = 
  2 active torsions:
  status: ('A' for Active; 'I' for Inactive)
    1  A    between atoms: O_6  and  C_25
    2  A    between atoms: C_16  and  C_19
                            x       y       z     vdW  Elec       q    Type
                         _______ _______ _______ _____ _____    ______ ____

>  <TORSDO>
F 2

$$$$
=
 OpenBabel11052410553D

 30 34  0  0  1  0  0  0  0  0999 V2000
  159.5500  211.4680  141.6700 C   0  0  2  0  0  3  0  0  0  0  0  0
  159.7600  211.7530  144.1160 N   0  0  0  0  0  0  0  0  0  0  0  0
  162.4880  213.3470  138.5380 C   0  0  2  0  0  3  0  0  0  0  0  0
  157.5520  214.0790  142.1580 C   0  0  0  0  0  2  0  0  0  0  0  0
  162.0600  214.4530  139.2760 O   0  0  0  0  0  1  0  0  0  0  0  0
  163.1910  213.1670  141.5560 C   0  0  0  0  0  3  0  0  0  0  0  0
  160.7540  212.3530  142.0130 C   0  0  0  0  0  0  0  0  0  0  0  0
  159.0780  214.4520  143.9410 N   0  0  0  0  0  2  0  0  0  0  0  0
  159.8780  213.9470  144.9850 N   0  0  0  0  0  2  0  0  0  0  0  0
  161.3540  212.3610  138.3130 C   0  0  0  0  0  2  0  0  0  0  0  0
  158.7980  213.7220  142.8990 C   0  0  1  0  0  3  0  0  0  0  0  0
  159.1640  211.9310  140.3410 N   0  0  0  0  0  2  0  0  0  0  0  0
  158.0060  212.4970  137.7050 C   0  0  0  0  0  0  0  0  0  0  0  0
  157.2060  211.9640  138.8730 C   0  0  2  0  0  3  0  0  0  0  0  0
  160.0450  212.5280  145.1190 C   0  0  0  0  0  3  0  0  0  0  0  0
  163.9990  212.6480  140.4420 C   0  0  0  0  0  3  0  0  0  0  0  0
  160.3250  212.9770  137.5960 O   0  0  0  0  0  0  0  0  0  0  0  0
  157.5360  213.3890  137.0110 O   0  0  0  0  0  0  0  0  0  0  0  0
  159.4500  212.3480  142.8130 C   0  0  1  0  0  0  0  0  0  0  0  0
  163.7070  212.6720  139.1310 C   0  0  0  0  0  0  0  0  0  0  0  0
  159.3760  211.9690  137.3980 C   0  0  0  0  0  2  0  0  0  0  0  0
  157.7920  212.3850  140.2340 C   0  0  2  0  0  3  0  0  0  0  0  0
  157.7990  214.1920  140.3750 S   0  0  0  0  0  0  0  0  0  0  0  0
  161.9670  212.7670  141.7750 C   0  0  0  0  0  0  0  0  0  0  0  0
  155.4250  208.7830  139.5030 N   0  0  0  0  0  1  0  0  0  0  0  0
  157.0140  210.4460  138.8110 C   0  0  1  0  0  3  0  0  0  0  0  0
  155.5760  210.1360  139.0030 C   0  0  1  0  0  3  0  0  0  0  0  0
  156.1760  210.1010  137.7290 O   0  0  0  0  0  0  0  0  0  0  0  0
  164.6050  212.0220  138.2780 O   0  0  0  0  0  0  0  0  0  0  0  0
  166.0070  212.0070  138.5110 C   0  0  0  0  0  1  0  0  0  0  0  0
  1 12  1  6  0  0  0
  1  7  1  0  0  0  0
  1 19  1  0  0  0  0
  2 15  2  0  0  0  0
  3 20  1  0  0  0  0
  3  5  1  1  0  0  0
  6 24  2  0  0  0  0
  8  9  1  0  0  0  0
  9 15  1  0  0  0  0
 10  3  1  0  0  0  0
 11  4  1  1  0  0  0
 11  8  1  0  0  0  0
 14 13  1  6  0  0  0
 14 22  1  0  0  0  0
 16  6  1  0  0  0  0
 17 10  1  0  0  0  0
 18 13  2  0  0  0  0
 19  7  1  6  0  0  0
 19 11  1  0  0  0  0
 19  2  1  0  0  0  0
 20 16  2  0  0  0  0
 21 17  1  0  0  0  0
 21 13  1  0  0  0  0
 22 12  1  6  0  0  0
 22 23  1  0  0  0  0
 23  4  1  0  0  0  0
 24  7  2  0  0  0  0
 26 28  1  6  0  0  0
 26 14  1  0  0  0  0
 26 27  1  0  0  0  0
 27 25  1  1  0  0  0
 28 27  1  0  0  0  0
 29 30  1  0  0  0  0
 29 20  1  0  0  0  0
M  END
>  <MODEL>
5

>  <REMARK>
 VINA RESULT:      -0.7     10.976     13.785
  Name = 
  2 active torsions:
  status: ('A' for Active; 'I' for Inactive)
    1  A    between atoms: O_6  and  C_25
    2  A    between atoms: C_16  and  C_19
                            x       y       z     vdW  Elec       q    Type
                         _______ _______ _______ _____ _____    ______ ____

>  <TORSDO>
F 2

$$$$
=
 OpenBabel11052410553D

 30 34  0  0  1  0  0  0  0  0999 V2000
  160.0490  212.4190  155.5820 C   0  0  2  0  0  3  0  0  0  0  0  0
  158.6030  213.9190  156.9120 N   0  0  0  0  0  0  0  0  0  0  0  0
  159.8140  211.9830  150.9220 C   0  0  2  0  0  3  0  0  0  0  0  0
  157.6130  210.3260  156.4370 C   0  0  0  0  0  2  0  0  0  0  0  0
  158.5070  211.7120  151.3330 O   0  0  0  0  0  1  0  0  0  0  0  0
  158.4760  214.3460  152.4260 C   0  0  0  0  0  3  0  0  0  0  0  0
  159.0620  213.1650  154.6780 C   0  0  0  0  0  0  0  0  0  0  0  0
  156.3600  212.3440  156.3970 N   0  0  0  0  0  2  0  0  0  0  0  0
  156.2610  213.7220  156.6740 N   0  0  0  0  0  2  0  0  0  0  0  0
  160.8290  211.3950  151.8870 C   0  0  0  0  0  2  0  0  0  0  0  0
  157.5140  211.7900  156.1610 C   0  0  1  0  0  3  0  0  0  0  0  0
  160.3060  211.1840  154.8490 N   0  0  0  0  0  2  0  0  0  0  0  0
  161.1400  208.5810  153.7800 C   0  0  0  0  0  0  0  0  0  0  0  0
  161.0690  208.8950  155.2590 C   0  0  2  0  0  3  0  0  0  0  0  0
  157.4280  214.4380  157.1050 C   0  0  0  0  0  3  0  0  0  0  0  0
  159.4380  214.4530  151.3190 C   0  0  0  0  0  3  0  0  0  0  0  0
  160.6810  210.0060  151.9430 O   0  0  0  0  0  0  0  0  0  0  0  0
  160.7170  207.5070  153.3730 O   0  0  0  0  0  0  0  0  0  0  0  0
  158.7300  212.7060  156.0990 C   0  0  1  0  0  0  0  0  0  0  0  0
  160.0660  213.4550  150.6740 C   0  0  0  0  0  0  0  0  0  0  0  0
  161.6950  209.5740  152.8030 C   0  0  0  0  0  2  0  0  0  0  0  0
  160.0170  209.9720  155.5870 C   0  0  2  0  0  3  0  0  0  0  0  0
  158.3710  209.4020  155.0850 S   0  0  0  0  0  0  0  0  0  0  0  0
  158.7670  213.7440  153.5470 C   0  0  0  0  0  0  0  0  0  0  0  0
  163.4450  211.0560  157.0960 N   0  0  0  0  0  1  0  0  0  0  0  0
  162.4330  209.2720  155.8460 C   0  0  1  0  0  3  0  0  0  0  0  0
  162.2330  210.2820  156.9150 C   0  0  1  0  0  3  0  0  0  0  0  0
  162.4920  208.9280  157.2130 O   0  0  0  0  0  0  0  0  0  0  0  0
  161.0120  213.8300  149.7140 O   0  0  0  0  0  0  0  0  0  0  0  0
  161.2020  213.1080  148.5040 C   0  0  0  0  0  1  0  0  0  0  0  0
  1  7  1  6  0  0  0
  1 19  1  0  0  0  0
  2 15  2  0  0  0  0
  3  5  1  1  0  0  0
  3 10  1  0  0  0  0
  6 24  2  0  0  0  0
  8  9  1  0  0  0  0
  9 15  1  0  0  0  0
 10 17  1  0  0  0  0
 11  8  1  0  0  0  0
 11  4  1  1  0  0  0
 12  1  1  0  0  0  0
 14 13  1  6  0  0  0
 14 22  1  0  0  0  0
 14 26  1  0  0  0  0
 16  6  1  0  0  0  0
 17 21  1  0  0  0  0
 18 13  2  0  0  0  0
 19  7  1  6  0  0  0
 19 11  1  0  0  0  0
 19  2  1  0  0  0  0
 20  3  1  0  0  0  0
 20 16  2  0  0  0  0
 21 13  1  0  0  0  0
 22 12  1  6  0  0  0
 23 22  1  0  0  0  0
 23  4  1  0  0  0  0
 24  7  2  0  0  0  0
 26 27  1  0  0  0  0
 26 28  1  1  0  0  0
 27 25  1  1  0  0  0
 27 28  1  0  0  0  0
 29 20  1  0  0  0  0
 30 29  1  0  0  0  0
M  END
>  <MODEL>
6

>  <REMARK>
 VINA RESULT:       0.6      2.506      5.670
  Name = 
  2 active torsions:
  status: ('A' for Active; 'I' for Inactive)
    1  A    between atoms: O_6  and  C_25
    2  A    between atoms: C_16  and  C_19
                            x       y       z     vdW  Elec       q    Type
                         _______ _______ _______ _____ _____    ______ ____

>  <TORSDO>
F 2

$$$$
