=
 OpenBabel11042422063D

 54 59  0  0  1  0  0  0  0  0999 V2000
  162.3980  208.7220  147.9490 C   0  0  0  0  0  3  0  0  0  0  0  0
  161.8220  209.6740  148.6830 C   0  0  0  0  0  0  0  0  0  0  0  0
  161.6300  210.9880  148.1450 N   0  0  0  0  0  2  0  0  0  0  0  0
  160.9830  213.3080  148.4970 C   0  0  1  0  0  3  0  0  0  0  0  0
  160.5200  211.8620  148.5090 C   0  0  1  0  0  3  0  0  0  0  0  0
  160.1010  212.7940  147.3690 C   0  0  2  0  0  3  0  0  0  0  0  0
  160.1940  211.7380  145.0980 C   0  0  0  0  0  2  0  0  0  0  0  0
  160.1890  213.0700  142.9760 C   0  0  0  0  0  3  0  0  0  0  0  0
  160.9270  212.6530  146.0930 C   0  0  1  0  0  3  0  0  0  0  0  0
  161.1930  213.9790  145.5350 N   0  0  0  0  0  2  0  0  0  0  0  0
  162.1080  213.8270  144.4100 C   0  0  0  0  0  2  0  0  0  0  0  0
  161.3740  213.7000  143.0930 C   0  0  0  0  0  0  0  0  0  0  0  0
  159.3560  212.5320  144.1050 C   0  0  0  0  0  2  0  0  0  0  0  0
  163.4070  214.2480  141.8530 O   0  0  0  0  0  0  0  0  0  0  0  0
  162.0330  214.1490  141.9010 N   0  0  0  0  0  0  0  0  0  0  0  0
  161.3670  214.4530  140.8910 O   0  0  0  0  0  0  0  0  0  0  0  0
  158.9930  214.4530  149.1620 O   0  0  0  0  0  0  0  0  0  0  0  0
  160.1700  214.1130  149.4580 C   0  0  0  0  0  0  0  0  0  0  0  0
  160.7010  214.4530  150.7340 N   0  0  0  0  0  1  0  0  0  0  0  0
  161.4090  209.3910  149.9890 O   0  0  0  0  0  0  0  0  0  0  0  0
  162.3330  209.1290  151.0410 C   0  0  1  0  0  3  0  0  0  0  0  0
  161.1990  210.6220  152.7380 C   0  0  0  0  0  2  0  0  0  0  0  0
  160.7680  209.3950  153.5410 C   0  0  1  0  0  3  0  0  0  0  0  0
  162.4870  210.3470  151.9580 C   0  0  0  0  0  2  0  0  0  0  0  0
  160.6010  208.1860  152.6140 C   0  0  0  0  0  2  0  0  0  0  0  0
  161.8890  207.9040  151.8400 C   0  0  0  0  0  2  0  0  0  0  0  0
  161.7020  209.1180  154.5450 O   0  0  0  0  0  0  0  0  0  0  0  0
  161.4990  210.1040  155.5110 C   0  0  0  0  0  2  0  0  0  0  0  0
  160.6630  209.5400  156.6380 C   0  0  0  0  0  2  0  0  0  0  0  0
  159.4350  210.1970  156.6840 O   0  0  0  0  0  0  0  0  0  0  0  0
  159.7590  211.5490  156.7890 C   0  0  0  0  0  2  0  0  0  0  0  0
  158.5680  214.4350  154.6350 C   0  0  0  0  0  2  0  0  0  0  0  0
  158.2710  213.6330  153.3690 C   0  0  0  0  0  2  0  0  0  0  0  0
  157.4840  212.3870  153.7620 C   0  0  0  0  0  2  0  0  0  0  0  0
  159.0400  212.3260  155.7410 C   0  0  0  0  0  0  0  0  0  0  0  0
  159.2450  213.6070  155.6370 N   0  0  0  0  0  0  0  0  0  0  0  0
  158.2160  211.6450  154.7840 N   0  0  0  0  0  2  0  0  0  0  0  0
  162.6180  207.3430  148.4670 C   0  0  0  0  0  2  0  0  0  0  0  0
  162.1620  205.5730  146.5230 C   0  0  0  0  0  0  0  0  0  0  0  0
  162.3660  206.3760  147.3990 C   0  0  0  0  0  0  0  0  0  0  0  0
  161.9240  204.5870  145.4660 C   0  0  0  0  0  2  0  0  0  0  0  0
  161.6310  203.2160  146.0700 C   0  0  1  0  0  3  0  0  0  0  0  0
  161.3440  203.3200  147.5740 C   0  0  0  0  0  2  0  0  0  0  0  0
  161.3790  200.3770  146.4240 C   0  0  0  0  0  2  0  0  0  0  0  0
  161.2060  200.7470  147.9040 C   0  0  0  0  0  2  0  0  0  0  0  0
  160.5640  202.1310  148.1580 C   0  0  1  0  0  3  0  0  0  0  0  0
  160.4560  201.0590  145.5750 O   0  0  0  0  0  0  0  0  0  0  0  0
  160.5690  202.4300  145.3330 C   0  0  0  0  0  0  0  0  0  0  0  0
  159.6920  203.0140  144.5240 C   0  0  0  0  0  2  0  0  0  0  0  0
  160.5660  203.7490  149.9570 C   0  0  0  0  0  2  0  0  0  0  0  0
  161.0770  203.6990  151.3750 C   0  0  0  0  0  2  0  0  0  0  0  0
  160.2390  202.3790  149.5710 N   0  0  0  0  0  0  0  0  0  0  0  0
  161.7000  202.3340  151.4940 C   0  0  0  0  0  2  0  0  0  0  0  0
  161.0450  201.4960  150.4130 C   0  0  0  0  0  2  0  0  0  0  0  0
  1 38  1  0  0  0  0
  1  2  2  0  0  0  0
  2 20  1  0  0  0  0
  3  2  1  0  0  0  0
  4  5  1  0  0  0  0
  4 18  1  1  0  0  0
  5  3  1  6  0  0  0
  6  9  1  6  0  0  0
  6  4  1  0  0  0  0
  6  5  1  0  0  0  0
  8 12  2  0  0  0  0
  8 13  1  0  0  0  0
  9  7  1  6  0  0  0
 10  9  1  0  0  0  0
 11 10  1  0  0  0  0
 12 11  1  0  0  0  0
 13  7  1  0  0  0  0
 14 15  2  0  0  0  0
 15 12  1  0  0  0  0
 16 15  2  0  0  0  0
 17 18  2  0  0  0  0
 18 19  1  0  0  0  0
 21 20  1  6  0  0  0
 21 26  1  0  0  0  0
 21 24  1  0  0  0  0
 22 23  1  0  0  0  0
 23 27  1  1  0  0  0
 24 22  1  0  0  0  0
 25 23  1  0  0  0  0
 26 25  1  0  0  0  0
 27 28  1  0  0  0  0
 28 29  1  0  0  0  0
 29 30  1  0  0  0  0
 30 31  1  0  0  0  0
 32 36  1  0  0  0  0
 33 34  1  0  0  0  0
 33 32  1  0  0  0  0
 34 37  1  0  0  0  0
 35 31  1  0  0  0  0
 36 35  2  0  0  0  0
 37 35  1  0  0  0  0
 39 40  3  0  0  0  0
 40 38  1  0  0  0  0
 41 39  1  0  0  0  0
 42 41  1  6  0  0  0
 42 43  1  0  0  0  0
 44 45  1  0  0  0  0
 45 46  1  0  0  0  0
 46 43  1  1  0  0  0
 46 52  1  0  0  0  0
 47 44  1  0  0  0  0
 48 47  1  0  0  0  0
 48 42  1  0  0  0  0
 49 48  2  0  0  0  0
 50 51  1  0  0  0  0
 51 53  1  0  0  0  0
 52 50  1  0  0  0  0
 52 54  1  0  0  0  0
 54 53  1  0  0  0  0
M  END
>  <MODEL>
1

>  <REMARK>
 VINA RESULT:      -6.4      0.000      0.000
  Name = 
  18 active torsions:
  status: ('A' for Active; 'I' for Inactive)
    1  A    between atoms: O_1  and  C_34
    2  A    between atoms: O_1  and  C_35
    3  A    between atoms: C_6  and  C_7
    4  A    between atoms: C_7  and  C_28
    5  A    between atoms: C_10  and  C_17
    6  A    between atoms: C_10  and  O_37
    7  A    between atoms: C_13  and  C_16
    8  A    between atoms: C_14  and  C_34
    9  A    between atoms: C_14  and  O_37
   10  A    between atoms: C_18  and  C_25
   11  A    between atoms: C_19  and  O_27
   12  A    between atoms: N_20  and  C_31
   13  A    between atoms: C_23  and  O_27
   14  A    between atoms: C_23  and  N_38
   15  A    between atoms: C_24  and  N_38
   16  A    between atoms: C_25  and  C_30
   17  A    between atoms: C_32  and  C_39
   18  A    between atoms: C_46  and  N_53
                            x       y       z     vdW  Elec       q    Type
                         _______ _______ _______ _____ _____    ______ ____

>  <TORSDO>
F 18

$$$$
=
 OpenBabel11042422063D

 54 59  0  0  1  0  0  0  0  0999 V2000
  161.1520  205.9940  153.7300 C   0  0  0  0  0  3  0  0  0  0  0  0
  160.9480  207.3090  153.8100 C   0  0  0  0  0  0  0  0  0  0  0  0
  160.1770  207.8590  154.8850 N   0  0  0  0  0  2  0  0  0  0  0  0
  161.4990  209.7840  155.5730 C   0  0  1  0  0  3  0  0  0  0  0  0
  160.7580  208.5410  156.0370 C   0  0  1  0  0  3  0  0  0  0  0  0
  160.1540  209.9280  156.2710 C   0  0  2  0  0  3  0  0  0  0  0  0
  157.7230  210.4470  155.9510 C   0  0  0  0  0  2  0  0  0  0  0  0
  156.8930  212.7070  155.2600 C   0  0  0  0  0  3  0  0  0  0  0  0
  159.0900  210.3400  155.2560 C   0  0  1  0  0  3  0  0  0  0  0  0
  159.4860  211.5950  154.6160 N   0  0  0  0  0  2  0  0  0  0  0  0
  158.5360  211.8840  153.5480 C   0  0  0  0  0  2  0  0  0  0  0  0
  157.4070  212.7750  154.0170 C   0  0  0  0  0  0  0  0  0  0  0  0
  157.4180  211.8720  156.3940 C   0  0  0  0  0  2  0  0  0  0  0  0
  155.4330  213.9340  153.1650 O   0  0  0  0  0  0  0  0  0  0  0  0
  156.7720  213.6300  153.0570 N   0  0  0  0  0  0  0  0  0  0  0  0
  157.4290  214.1120  152.1120 O   0  0  0  0  0  0  0  0  0  0  0  0
  163.0920  209.2000  157.2560 O   0  0  0  0  0  0  0  0  0  0  0  0
  162.6060  210.1020  156.5240 C   0  0  0  0  0  0  0  0  0  0  0  0
  163.1530  211.4160  156.5690 N   0  0  0  0  0  1  0  0  0  0  0  0
  161.4840  208.1560  152.8350 O   0  0  0  0  0  0  0  0  0  0  0  0
  160.6810  208.7610  151.8260 C   0  0  1  0  0  3  0  0  0  0  0  0
  162.3780  210.5250  151.1900 C   0  0  0  0  0  2  0  0  0  0  0  0
  162.5990  209.8380  149.8420 C   0  0  1  0  0  3  0  0  0  0  0  0
  160.9660  210.2620  151.7190 C   0  0  0  0  0  2  0  0  0  0  0  0
  162.3280  208.3340  149.9620 C   0  0  0  0  0  2  0  0  0  0  0  0
  160.9140  208.0700  150.4820 C   0  0  0  0  0  2  0  0  0  0  0  0
  161.7760  210.4090  148.8660 O   0  0  0  0  0  0  0  0  0  0  0  0
  162.1810  211.7410  148.7830 C   0  0  0  0  0  2  0  0  0  0  0  0
  161.3860  212.4450  147.7060 C   0  0  0  0  0  2  0  0  0  0  0  0
  162.1910  212.6480  146.5870 O   0  0  0  0  0  0  0  0  0  0  0  0
  161.7020  213.8170  146.0050 C   0  0  0  0  0  2  0  0  0  0  0  0
  158.5480  213.7880  143.8970 C   0  0  0  0  0  2  0  0  0  0  0  0
  159.1950  213.3870  142.5730 C   0  0  0  0  0  2  0  0  0  0  0  0
  160.1430  212.2220  142.8330 C   0  0  0  0  0  2  0  0  0  0  0  0
  160.7210  213.4780  144.9360 C   0  0  0  0  0  0  0  0  0  0  0  0
  159.5650  214.0750  144.9140 N   0  0  0  0  0  0  0  0  0  0  0  0
  161.0950  212.5850  143.8780 N   0  0  0  0  0  2  0  0  0  0  0  0
  161.9470  205.3780  152.6310 C   0  0  0  0  0  2  0  0  0  0  0  0
  160.4900  203.4810  151.4490 C   0  0  0  0  0  0  0  0  0  0  0  0
  161.1530  204.3350  151.9830 C   0  0  0  0  0  0  0  0  0  0  0  0
  159.6720  202.4500  150.8040 C   0  0  0  0  0  2  0  0  0  0  0  0
  160.1870  202.1630  149.3960 C   0  0  1  0  0  3  0  0  0  0  0  0
  160.6640  203.4480  148.7060 C   0  0  0  0  0  2  0  0  0  0  0  0
  160.7790  200.8500  146.9120 C   0  0  0  0  0  2  0  0  0  0  0  0
  161.1140  202.2700  146.4340 C   0  0  0  0  0  2  0  0  0  0  0  0
  161.6370  203.2200  147.5370 C   0  0  1  0  0  3  0  0  0  0  0  0
  161.5000  200.4790  148.0860 O   0  0  0  0  0  0  0  0  0  0  0  0
  161.2130  201.0550  149.3260 C   0  0  0  0  0  0  0  0  0  0  0  0
  161.9050  200.6650  150.3910 C   0  0  0  0  0  2  0  0  0  0  0  0
  161.5100  205.6290  147.7270 C   0  0  0  0  0  2  0  0  0  0  0  0
  161.2900  206.7230  146.7140 C   0  0  0  0  0  2  0  0  0  0  0  0
  162.1250  204.5080  147.0210 N   0  0  0  0  0  0  0  0  0  0  0  0
  161.0930  205.9880  145.4150 C   0  0  0  0  0  2  0  0  0  0  0  0
  161.7520  204.6360  145.6140 C   0  0  0  0  0  2  0  0  0  0  0  0
  1  2  2  0  0  0  0
  2  3  1  0  0  0  0
  4  5  1  0  0  0  0
  4  6  1  0  0  0  0
  4 18  1  1  0  0  0
  5  3  1  6  0  0  0
  5  6  1  0  0  0  0
  6  9  1  6  0  0  0
  7 13  1  0  0  0  0
  8 13  1  0  0  0  0
  9  7  1  1  0  0  0
 10  9  1  0  0  0  0
 11 12  1  0  0  0  0
 11 10  1  0  0  0  0
 12  8  2  0  0  0  0
 15 14  2  0  0  0  0
 15 12  1  0  0  0  0
 16 15  2  0  0  0  0
 18 19  1  0  0  0  0
 18 17  2  0  0  0  0
 20  2  1  0  0  0  0
 21 20  1  1  0  0  0
 22 24  1  0  0  0  0
 23 27  1  6  0  0  0
 23 25  1  0  0  0  0
 23 22  1  0  0  0  0
 24 21  1  0  0  0  0
 25 26  1  0  0  0  0
 26 21  1  0  0  0  0
 28 27  1  0  0  0  0
 29 28  1  0  0  0  0
 30 29  1  0  0  0  0
 31 30  1  0  0  0  0
 32 36  1  0  0  0  0
 33 34  1  0  0  0  0
 33 32  1  0  0  0  0
 34 37  1  0  0  0  0
 35 31  1  0  0  0  0
 36 35  2  0  0  0  0
 37 35  1  0  0  0  0
 38  1  1  0  0  0  0
 39 40  3  0  0  0  0
 40 38  1  0  0  0  0
 41 39  1  0  0  0  0
 42 41  1  1  0  0  0
 43 42  1  0  0  0  0
 44 47  1  0  0  0  0
 45 44  1  0  0  0  0
 46 45  1  6  0  0  0
 46 43  1  0  0  0  0
 47 48  1  0  0  0  0
 48 42  1  0  0  0  0
 48 49  2  0  0  0  0
 51 50  1  0  0  0  0
 52 46  1  0  0  0  0
 52 50  1  0  0  0  0
 53 54  1  0  0  0  0
 53 51  1  0  0  0  0
 54 52  1  0  0  0  0
M  END
>  <MODEL>
2

>  <REMARK>
 VINA RESULT:      -6.4      2.192      8.012
  Name = 
  18 active torsions:
  status: ('A' for Active; 'I' for Inactive)
    1  A    between atoms: O_1  and  C_34
    2  A    between atoms: O_1  and  C_35
    3  A    between atoms: C_6  and  C_7
    4  A    between atoms: C_7  and  C_28
    5  A    between atoms: C_10  and  C_17
    6  A    between atoms: C_10  and  O_37
    7  A    between atoms: C_13  and  C_16
    8  A    between atoms: C_14  and  C_34
    9  A    between atoms: C_14  and  O_37
   10  A    between atoms: C_18  and  C_25
   11  A    between atoms: C_19  and  O_27
   12  A    between atoms: N_20  and  C_31
   13  A    between atoms: C_23  and  O_27
   14  A    between atoms: C_23  and  N_38
   15  A    between atoms: C_24  and  N_38
   16  A    between atoms: C_25  and  C_30
   17  A    between atoms: C_32  and  C_39
   18  A    between atoms: C_46  and  N_53
                            x       y       z     vdW  Elec       q    Type
                         _______ _______ _______ _____ _____    ______ ____

>  <TORSDO>
F 18

$$$$
=
 OpenBabel11042422063D

 54 59  0  0  1  0  0  0  0  0999 V2000
  162.5170  208.5620  148.3130 C   0  0  0  0  0  3  0  0  0  0  0  0
  161.9390  209.1820  149.3420 C   0  0  0  0  0  0  0  0  0  0  0  0
  161.3210  210.4620  149.1620 N   0  0  0  0  0  2  0  0  0  0  0  0
  161.4110  212.4110  147.7060 C   0  0  1  0  0  3  0  0  0  0  0  0
  162.0590  211.6880  148.8750 C   0  0  1  0  0  3  0  0  0  0  0  0
  161.2280  212.9510  149.1170 C   0  0  2  0  0  3  0  0  0  0  0  0
  159.7000  212.9080  151.1030 C   0  0  0  0  0  2  0  0  0  0  0  0
  157.7430  214.4530  151.3490 C   0  0  0  0  0  3  0  0  0  0  0  0
  159.7970  212.6920  149.5840 C   0  0  1  0  0  3  0  0  0  0  0  0
  158.8780  213.5560  148.8420 N   0  0  0  0  0  2  0  0  0  0  0  0
  157.5140  213.1830  149.1940 C   0  0  0  0  0  2  0  0  0  0  0  0
  156.9720  214.0170  150.3340 C   0  0  0  0  0  0  0  0  0  0  0  0
  159.2360  214.3160  151.4510 C   0  0  0  0  0  2  0  0  0  0  0  0
  154.8030  214.3340  149.2560 O   0  0  0  0  0  0  0  0  0  0  0  0
  155.5570  214.2340  150.4050 N   0  0  0  0  0  0  0  0  0  0  0  0
  154.9900  214.3340  151.5130 O   0  0  0  0  0  0  0  0  0  0  0  0
  163.2170  213.9750  147.6140 O   0  0  0  0  0  0  0  0  0  0  0  0
  162.4330  213.2210  146.9770 C   0  0  0  0  0  0  0  0  0  0  0  0
  162.5630  213.1040  145.5650 N   0  0  0  0  0  1  0  0  0  0  0  0
  161.9400  208.5830  150.6050 O   0  0  0  0  0  0  0  0  0  0  0  0
  160.7980  208.5940  151.4560 C   0  0  1  0  0  3  0  0  0  0  0  0
  161.9280  207.4270  153.3940 C   0  0  0  0  0  2  0  0  0  0  0  0
  161.8770  208.7180  154.2120 C   0  0  1  0  0  3  0  0  0  0  0  0
  160.7840  207.3710  152.3790 C   0  0  0  0  0  2  0  0  0  0  0  0
  161.9080  209.9360  153.2820 C   0  0  0  0  0  2  0  0  0  0  0  0
  160.7610  209.8860  152.2710 C   0  0  0  0  0  2  0  0  0  0  0  0
  160.7300  208.7400  155.0130 O   0  0  0  0  0  0  0  0  0  0  0  0
  161.2040  208.8120  156.3230 C   0  0  0  0  0  2  0  0  0  0  0  0
  160.1550  209.4530  157.2040 C   0  0  0  0  0  2  0  0  0  0  0  0
  159.1000  209.9110  156.4170 O   0  0  0  0  0  0  0  0  0  0  0  0
  159.4690  211.2050  156.0480 C   0  0  0  0  0  2  0  0  0  0  0  0
  156.8270  213.3870  154.4210 C   0  0  0  0  0  2  0  0  0  0  0  0
  155.6560  212.9880  155.3170 C   0  0  0  0  0  2  0  0  0  0  0  0
  156.1230  213.0290  156.7670 C   0  0  0  0  0  2  0  0  0  0  0  0
  158.2520  212.0430  155.8550 C   0  0  0  0  0  0  0  0  0  0  0  0
  158.0010  212.5480  154.6830 N   0  0  0  0  0  0  0  0  0  0  0  0
  157.3100  212.1950  156.9260 N   0  0  0  0  0  2  0  0  0  0  0  0
  163.1720  207.2310  148.4530 C   0  0  0  0  0  2  0  0  0  0  0  0
  162.2520  205.5810  146.5690 C   0  0  0  0  0  0  0  0  0  0  0  0
  162.6630  206.3290  147.4210 C   0  0  0  0  0  0  0  0  0  0  0  0
  161.7660  204.6690  145.5300 C   0  0  0  0  0  2  0  0  0  0  0  0
  161.5460  203.2720  146.1040 C   0  0  1  0  0  3  0  0  0  0  0  0
  161.2800  203.3280  147.6150 C   0  0  0  0  0  2  0  0  0  0  0  0
  161.4300  200.4180  146.3950 C   0  0  0  0  0  2  0  0  0  0  0  0
  161.2640  200.7440  147.8850 C   0  0  0  0  0  2  0  0  0  0  0  0
  160.5640  202.0910  148.1820 C   0  0  1  0  0  3  0  0  0  0  0  0
  160.4640  201.0750  145.5760 O   0  0  0  0  0  0  0  0  0  0  0  0
  160.5100  202.4560  145.3660 C   0  0  0  0  0  0  0  0  0  0  0  0
  159.5940  203.0180  144.5850 C   0  0  0  0  0  2  0  0  0  0  0  0
  160.6380  203.6270  150.0510 C   0  0  0  0  0  2  0  0  0  0  0  0
  161.1470  203.4930  151.4630 C   0  0  0  0  0  2  0  0  0  0  0  0
  160.2510  202.2910  149.6050 N   0  0  0  0  0  0  0  0  0  0  0  0
  161.7100  202.0980  151.5210 C   0  0  0  0  0  2  0  0  0  0  0  0
  161.0180  201.3380  150.4060 C   0  0  0  0  0  2  0  0  0  0  0  0
  1 38  1  0  0  0  0
  1  2  2  0  0  0  0
  2 20  1  0  0  0  0
  3  2  1  0  0  0  0
  4 18  1  6  0  0  0
  4  5  1  0  0  0  0
  4  6  1  0  0  0  0
  5  6  1  0  0  0  0
  5  3  1  1  0  0  0
  6  9  1  1  0  0  0
  7 13  1  0  0  0  0
  8 13  1  0  0  0  0
  9  7  1  1  0  0  0
 10 11  1  0  0  0  0
 10  9  1  0  0  0  0
 11 12  1  0  0  0  0
 12 15  1  0  0  0  0
 12  8  2  0  0  0  0
 14 15  2  0  0  0  0
 15 16  2  0  0  0  0
 18 17  2  0  0  0  0
 19 18  1  0  0  0  0
 21 20  1  1  0  0  0
 21 26  1  0  0  0  0
 21 24  1  0  0  0  0
 22 23  1  0  0  0  0
 23 27  1  6  0  0  0
 24 22  1  0  0  0  0
 25 23  1  0  0  0  0
 26 25  1  0  0  0  0
 27 28  1  0  0  0  0
 28 29  1  0  0  0  0
 30 29  1  0  0  0  0
 31 30  1  0  0  0  0
 32 36  1  0  0  0  0
 32 33  1  0  0  0  0
 33 34  1  0  0  0  0
 34 37  1  0  0  0  0
 35 31  1  0  0  0  0
 35 37  1  0  0  0  0
 36 35  2  0  0  0  0
 39 40  3  0  0  0  0
 40 38  1  0  0  0  0
 41 39  1  0  0  0  0
 42 41  1  6  0  0  0
 42 43  1  0  0  0  0
 44 45  1  0  0  0  0
 45 46  1  0  0  0  0
 46 43  1  1  0  0  0
 46 52  1  0  0  0  0
 47 44  1  0  0  0  0
 48 47  1  0  0  0  0
 48 42  1  0  0  0  0
 49 48  2  0  0  0  0
 50 51  1  0  0  0  0
 51 53  1  0  0  0  0
 52 50  1  0  0  0  0
 52 54  1  0  0  0  0
 54 53  1  0  0  0  0
M  END
>  <MODEL>
3

>  <REMARK>
 VINA RESULT:      -6.2      2.104      4.022
  Name = 
  18 active torsions:
  status: ('A' for Active; 'I' for Inactive)
    1  A    between atoms: O_1  and  C_34
    2  A    between atoms: O_1  and  C_35
    3  A    between atoms: C_6  and  C_7
    4  A    between atoms: C_7  and  C_28
    5  A    between atoms: C_10  and  C_17
    6  A    between atoms: C_10  and  O_37
    7  A    between atoms: C_13  and  C_16
    8  A    between atoms: C_14  and  C_34
    9  A    between atoms: C_14  and  O_37
   10  A    between atoms: C_18  and  C_25
   11  A    between atoms: C_19  and  O_27
   12  A    between atoms: N_20  and  C_31
   13  A    between atoms: C_23  and  O_27
   14  A    between atoms: C_23  and  N_38
   15  A    between atoms: C_24  and  N_38
   16  A    between atoms: C_25  and  C_30
   17  A    between atoms: C_32  and  C_39
   18  A    between atoms: C_46  and  N_53
                            x       y       z     vdW  Elec       q    Type
                         _______ _______ _______ _____ _____    ______ ____

>  <TORSDO>
F 18

$$$$
=
 OpenBabel11042422063D

 54 59  0  0  1  0  0  0  0  0999 V2000
  160.8050  210.6740  151.4400 C   0  0  0  0  0  3  0  0  0  0  0  0
  160.7220  211.9330  151.0130 C   0  0  0  0  0  0  0  0  0  0  0  0
  159.7760  212.8360  151.5970 N   0  0  0  0  0  2  0  0  0  0  0  0
  157.4600  213.2020  150.9410 C   0  0  1  0  0  3  0  0  0  0  0  0
  158.8900  213.6990  150.8220 C   0  0  1  0  0  3  0  0  0  0  0  0
  157.8840  214.4530  151.6950 C   0  0  2  0  0  3  0  0  0  0  0  0
  156.9610  213.0560  153.5600 C   0  0  0  0  0  2  0  0  0  0  0  0
  158.3370  211.3770  154.8120 C   0  0  0  0  0  3  0  0  0  0  0  0
  157.9800  214.1460  153.1880 C   0  0  1  0  0  3  0  0  0  0  0  0
  159.3520  213.7600  153.5200 N   0  0  0  0  0  2  0  0  0  0  0  0
  159.4510  213.6230  154.9680 C   0  0  0  0  0  2  0  0  0  0  0  0
  159.2110  212.2000  155.4220 C   0  0  0  0  0  0  0  0  0  0  0  0
  157.5830  211.6660  153.5440 C   0  0  0  0  0  2  0  0  0  0  0  0
  159.4430  210.5880  157.2440 O   0  0  0  0  0  0  0  0  0  0  0  0
  159.8410  211.7570  156.6320 N   0  0  0  0  0  0  0  0  0  0  0  0
  160.7600  212.4270  157.1440 O   0  0  0  0  0  0  0  0  0  0  0  0
  155.4550  213.8340  149.8040 O   0  0  0  0  0  0  0  0  0  0  0  0
  156.6850  213.5770  149.7200 C   0  0  0  0  0  0  0  0  0  0  0  0
  157.3450  213.7000  148.4650 N   0  0  0  0  0  1  0  0  0  0  0  0
  161.5600  212.3750  149.9840 O   0  0  0  0  0  0  0  0  0  0  0  0
  161.5550  211.7810  148.6890 C   0  0  1  0  0  3  0  0  0  0  0  0
  160.6130  213.8030  147.4980 C   0  0  0  0  0  2  0  0  0  0  0  0
  161.9530  214.0250  146.7970 C   0  0  1  0  0  3  0  0  0  0  0  0
  160.4040  212.3250  147.8360 C   0  0  0  0  0  2  0  0  0  0  0  0
  163.0990  213.4930  147.6650 C   0  0  0  0  0  2  0  0  0  0  0  0
  162.8970  212.0140  147.9970 C   0  0  0  0  0  2  0  0  0  0  0  0
  161.9560  213.4020  145.5450 O   0  0  0  0  0  0  0  0  0  0  0  0
  163.0320  213.9670  144.8610 C   0  0  0  0  0  2  0  0  0  0  0  0
  163.1340  213.3500  143.4830 C   0  0  0  0  0  2  0  0  0  0  0  0
  162.0100  212.5640  143.2380 O   0  0  0  0  0  0  0  0  0  0  0  0
  161.5340  213.0030  142.0020 C   0  0  0  0  0  2  0  0  0  0  0  0
  161.4730  209.8950  139.8280 C   0  0  0  0  0  2  0  0  0  0  0  0
  162.0580  210.5220  138.5640 C   0  0  0  0  0  2  0  0  0  0  0  0
  163.2760  211.3510  138.9570 C   0  0  0  0  0  2  0  0  0  0  0  0
  161.8810  212.0110  140.9460 C   0  0  0  0  0  0  0  0  0  0  0  0
  161.1850  210.9180  140.8380 N   0  0  0  0  0  0  0  0  0  0  0  0
  162.9030  212.3160  139.9860 N   0  0  0  0  0  2  0  0  0  0  0  0
  161.7740  209.7000  150.8630 C   0  0  0  0  0  2  0  0  0  0  0  0
  161.1550  207.2350  151.6730 C   0  0  0  0  0  0  0  0  0  0  0  0
  161.4300  208.3500  151.3070 C   0  0  0  0  0  0  0  0  0  0  0  0
  160.8350  205.8750  152.1170 C   0  0  0  0  0  2  0  0  0  0  0  0
  160.7650  204.9260  150.9240 C   0  0  1  0  0  3  0  0  0  0  0  0
  161.1090  205.6510  149.6150 C   0  0  0  0  0  2  0  0  0  0  0  0
  160.2560  202.6280  149.2790 C   0  0  0  0  0  2  0  0  0  0  0  0
  160.5610  203.5940  148.1260 C   0  0  0  0  0  2  0  0  0  0  0  0
  161.5570  204.7260  148.4720 C   0  0  1  0  0  3  0  0  0  0  0  0
  161.3050  202.5750  150.2460 O   0  0  0  0  0  0  0  0  0  0  0  0
  161.5570  203.6500  151.1010 C   0  0  0  0  0  0  0  0  0  0  0  0
  162.5370  203.5460  151.9920 C   0  0  0  0  0  2  0  0  0  0  0  0
  160.8240  205.9250  146.5030 C   0  0  0  0  0  2  0  0  0  0  0  0
  161.2540  205.8760  145.0590 C   0  0  0  0  0  2  0  0  0  0  0  0
  161.9740  205.5190  147.3070 N   0  0  0  0  0  0  0  0  0  0  0  0
  162.3080  204.8020  145.0250 C   0  0  0  0  0  2  0  0  0  0  0  0
  162.8260  204.7000  146.4460 C   0  0  0  0  0  2  0  0  0  0  0  0
  2  1  2  0  0  0  0
  2  3  1  0  0  0  0
  4 18  1  6  0  0  0
  4  6  1  0  0  0  0
  5  4  1  0  0  0  0
  5  3  1  1  0  0  0
  5  6  1  0  0  0  0
  6  9  1  1  0  0  0
  8 12  2  0  0  0  0
  9 10  1  0  0  0  0
  9  7  1  6  0  0  0
 10 11  1  0  0  0  0
 11 12  1  0  0  0  0
 12 15  1  0  0  0  0
 13  7  1  0  0  0  0
 13  8  1  0  0  0  0
 15 16  2  0  0  0  0
 15 14  2  0  0  0  0
 18 17  2  0  0  0  0
 19 18  1  0  0  0  0
 20  2  1  0  0  0  0
 21 20  1  1  0  0  0
 22 24  1  0  0  0  0
 23 27  1  6  0  0  0
 23 22  1  0  0  0  0
 23 25  1  0  0  0  0
 24 21  1  0  0  0  0
 25 26  1  0  0  0  0
 26 21  1  0  0  0  0
 28 27  1  0  0  0  0
 29 28  1  0  0  0  0
 30 29  1  0  0  0  0
 31 30  1  0  0  0  0
 32 36  1  0  0  0  0
 33 34  1  0  0  0  0
 33 32  1  0  0  0  0
 34 37  1  0  0  0  0
 35 31  1  0  0  0  0
 36 35  2  0  0  0  0
 37 35  1  0  0  0  0
 38 40  1  0  0  0  0
 38  1  1  0  0  0  0
 39 41  1  0  0  0  0
 40 39  3  0  0  0  0
 42 48  1  0  0  0  0
 42 41  1  1  0  0  0
 43 42  1  0  0  0  0
 44 47  1  0  0  0  0
 45 46  1  0  0  0  0
 45 44  1  0  0  0  0
 46 52  1  6  0  0  0
 46 43  1  0  0  0  0
 47 48  1  0  0  0  0
 48 49  2  0  0  0  0
 50 52  1  0  0  0  0
 51 50  1  0  0  0  0
 53 51  1  0  0  0  0
 53 54  1  0  0  0  0
 54 52  1  0  0  0  0
M  END
>  <MODEL>
4

>  <REMARK>
 VINA RESULT:      -4.0      2.433      9.257
  Name = 
  18 active torsions:
  status: ('A' for Active; 'I' for Inactive)
    1  A    between atoms: O_1  and  C_34
    2  A    between atoms: O_1  and  C_35
    3  A    between atoms: C_6  and  C_7
    4  A    between atoms: C_7  and  C_28
    5  A    between atoms: C_10  and  C_17
    6  A    between atoms: C_10  and  O_37
    7  A    between atoms: C_13  and  C_16
    8  A    between atoms: C_14  and  C_34
    9  A    between atoms: C_14  and  O_37
   10  A    between atoms: C_18  and  C_25
   11  A    between atoms: C_19  and  O_27
   12  A    between atoms: N_20  and  C_31
   13  A    between atoms: C_23  and  O_27
   14  A    between atoms: C_23  and  N_38
   15  A    between atoms: C_24  and  N_38
   16  A    between atoms: C_25  and  C_30
   17  A    between atoms: C_32  and  C_39
   18  A    between atoms: C_46  and  N_53
                            x       y       z     vdW  Elec       q    Type
                         _______ _______ _______ _____ _____    ______ ____

>  <TORSDO>
F 18

$$$$
=
 OpenBabel11042422063D

 54 59  0  0  1  0  0  0  0  0999 V2000
  162.2780  209.5350  148.2840 C   0  0  0  0  0  3  0  0  0  0  0  0
  161.5970  210.4690  148.9490 C   0  0  0  0  0  0  0  0  0  0  0  0
  161.3750  211.7580  148.3640 N   0  0  0  0  0  2  0  0  0  0  0  0
  161.5460  212.9730  146.2610 C   0  0  1  0  0  3  0  0  0  0  0  0
  162.3080  212.4060  147.4470 C   0  0  1  0  0  3  0  0  0  0  0  0
  162.0740  213.9150  147.3320 C   0  0  2  0  0  3  0  0  0  0  0  0
  159.6090  214.3690  147.3550 C   0  0  0  0  0  2  0  0  0  0  0  0
  158.0230  213.1980  148.9020 C   0  0  0  0  0  3  0  0  0  0  0  0
  160.9110  214.4450  148.1690 C   0  0  1  0  0  3  0  0  0  0  0  0
  160.8280  213.6930  149.4210 N   0  0  0  0  0  2  0  0  0  0  0  0
  159.8140  214.3160  150.2630 C   0  0  0  0  0  2  0  0  0  0  0  0
  158.4550  213.6770  150.0850 C   0  0  0  0  0  0  0  0  0  0  0  0
  158.8330  213.0900  147.6400 C   0  0  0  0  0  2  0  0  0  0  0  0
  156.2320  214.1010  151.0060 O   0  0  0  0  0  0  0  0  0  0  0  0
  157.5390  213.7060  151.1880 N   0  0  0  0  0  0  0  0  0  0  0  0
  157.9180  213.3710  152.3280 O   0  0  0  0  0  0  0  0  0  0  0  0
  161.9350  213.1570  143.9100 O   0  0  0  0  0  0  0  0  0  0  0  0
  162.4320  213.0160  145.0590 C   0  0  0  0  0  0  0  0  0  0  0  0
  163.8460  212.9520  145.2100 N   0  0  0  0  0  1  0  0  0  0  0  0
  161.1030  210.1920  150.2270 O   0  0  0  0  0  0  0  0  0  0  0  0
  161.7750  210.6080  151.4120 C   0  0  1  0  0  3  0  0  0  0  0  0
  159.7100  210.6270  152.8700 C   0  0  0  0  0  2  0  0  0  0  0  0
  160.2350  209.4180  153.6450 C   0  0  1  0  0  3  0  0  0  0  0  0
  160.8600  211.4590  152.2980 C   0  0  0  0  0  2  0  0  0  0  0  0
  161.1360  208.5640  152.7460 C   0  0  0  0  0  2  0  0  0  0  0  0
  162.2910  209.3910  152.1800 C   0  0  0  0  0  2  0  0  0  0  0  0
  160.9310  209.8360  154.7830 O   0  0  0  0  0  0  0  0  0  0  0  0
  160.6530  211.1980  154.8990 C   0  0  0  0  0  2  0  0  0  0  0  0
  160.9530  211.6560  156.3090 C   0  0  0  0  0  2  0  0  0  0  0  0
  159.8150  212.2400  156.8630 O   0  0  0  0  0  0  0  0  0  0  0  0
  158.9940  212.5220  155.7710 C   0  0  0  0  0  2  0  0  0  0  0  0
  155.5300  212.1110  157.2610 C   0  0  0  0  0  2  0  0  0  0  0  0
  154.8420  211.5460  156.0190 C   0  0  0  0  0  2  0  0  0  0  0  0
  155.7300  210.4560  155.4300 C   0  0  0  0  0  2  0  0  0  0  0  0
  157.6190  212.0100  156.0270 C   0  0  0  0  0  0  0  0  0  0  0  0
  156.8890  212.5660  156.9500 N   0  0  0  0  0  0  0  0  0  0  0  0
  157.0670  210.9890  155.1850 N   0  0  0  0  0  2  0  0  0  0  0  0
  162.5330  208.1820  148.8530 C   0  0  0  0  0  2  0  0  0  0  0  0
  162.5510  206.3850  146.8800 C   0  0  0  0  0  0  0  0  0  0  0  0
  162.5480  207.1960  147.7730 C   0  0  0  0  0  0  0  0  0  0  0  0
  162.5400  205.4010  145.7950 C   0  0  0  0  0  2  0  0  0  0  0  0
  161.9910  204.0650  146.2910 C   0  0  1  0  0  3  0  0  0  0  0  0
  161.6510  204.1240  147.7870 C   0  0  0  0  0  2  0  0  0  0  0  0
  161.2480  201.2950  146.4380 C   0  0  0  0  0  2  0  0  0  0  0  0
  161.0660  201.5970  147.9320 C   0  0  0  0  0  2  0  0  0  0  0  0
  160.6540  203.0530  148.2560 C   0  0  1  0  0  3  0  0  0  0  0  0
  160.4970  202.1750  145.6030 O   0  0  0  0  0  0  0  0  0  0  0  0
  160.8510  203.5190  145.4610 C   0  0  0  0  0  0  0  0  0  0  0  0
  160.1260  204.2940  144.6610 C   0  0  0  0  0  2  0  0  0  0  0  0
  160.9180  204.4830  150.1890 C   0  0  0  0  0  2  0  0  0  0  0  0
  161.3100  204.2070  151.6180 C   0  0  0  0  0  2  0  0  0  0  0  0
  160.3050  203.2650  149.6690 N   0  0  0  0  0  0  0  0  0  0  0  0
  161.5860  202.7280  151.6450 C   0  0  0  0  0  2  0  0  0  0  0  0
  160.8240  202.1550  150.4660 C   0  0  0  0  0  2  0  0  0  0  0  0
  1 38  1  0  0  0  0
  1  2  2  0  0  0  0
  2 20  1  0  0  0  0
  3  2  1  0  0  0  0
  4 18  1  6  0  0  0
  4  6  1  0  0  0  0
  4  5  1  0  0  0  0
  5  3  1  1  0  0  0
  6  5  1  0  0  0  0
  6  9  1  1  0  0  0
  7 13  1  0  0  0  0
  8 12  2  0  0  0  0
  9  7  1  6  0  0  0
  9 10  1  0  0  0  0
 10 11  1  0  0  0  0
 12 11  1  0  0  0  0
 12 15  1  0  0  0  0
 13  8  1  0  0  0  0
 14 15  2  0  0  0  0
 15 16  2  0  0  0  0
 17 18  2  0  0  0  0
 18 19  1  0  0  0  0
 21 20  1  6  0  0  0
 21 26  1  0  0  0  0
 21 24  1  0  0  0  0
 22 23  1  0  0  0  0
 23 27  1  1  0  0  0
 24 22  1  0  0  0  0
 25 23  1  0  0  0  0
 26 25  1  0  0  0  0
 27 28  1  0  0  0  0
 28 29  1  0  0  0  0
 29 30  1  0  0  0  0
 31 35  1  0  0  0  0
 31 30  1  0  0  0  0
 33 32  1  0  0  0  0
 34 33  1  0  0  0  0
 35 36  2  0  0  0  0
 36 32  1  0  0  0  0
 37 34  1  0  0  0  0
 37 35  1  0  0  0  0
 39 40  3  0  0  0  0
 40 38  1  0  0  0  0
 41 39  1  0  0  0  0
 42 41  1  6  0  0  0
 42 43  1  0  0  0  0
 44 45  1  0  0  0  0
 45 46  1  0  0  0  0
 46 43  1  1  0  0  0
 46 52  1  0  0  0  0
 47 44  1  0  0  0  0
 48 47  1  0  0  0  0
 48 42  1  0  0  0  0
 49 48  2  0  0  0  0
 50 51  1  0  0  0  0
 51 53  1  0  0  0  0
 52 50  1  0  0  0  0
 52 54  1  0  0  0  0
 54 53  1  0  0  0  0
M  END
>  <MODEL>
5

>  <REMARK>
 VINA RESULT:      -4.0      1.712      3.859
  Name = 
  18 active torsions:
  status: ('A' for Active; 'I' for Inactive)
    1  A    between atoms: O_1  and  C_34
    2  A    between atoms: O_1  and  C_35
    3  A    between atoms: C_6  and  C_7
    4  A    between atoms: C_7  and  C_28
    5  A    between atoms: C_10  and  C_17
    6  A    between atoms: C_10  and  O_37
    7  A    between atoms: C_13  and  C_16
    8  A    between atoms: C_14  and  C_34
    9  A    between atoms: C_14  and  O_37
   10  A    between atoms: C_18  and  C_25
   11  A    between atoms: C_19  and  O_27
   12  A    between atoms: N_20  and  C_31
   13  A    between atoms: C_23  and  O_27
   14  A    between atoms: C_23  and  N_38
   15  A    between atoms: C_24  and  N_38
   16  A    between atoms: C_25  and  C_30
   17  A    between atoms: C_32  and  C_39
   18  A    between atoms: C_46  and  N_53
                            x       y       z     vdW  Elec       q    Type
                         _______ _______ _______ _____ _____    ______ ____

>  <TORSDO>
F 18

$$$$
=
 OpenBabel11042422063D

 54 59  0  0  1  0  0  0  0  0999 V2000
  160.9350  210.6070  151.6130 C   0  0  0  0  0  3  0  0  0  0  0  0
  160.7780  211.7750  150.9910 C   0  0  0  0  0  0  0  0  0  0  0  0
  159.7640  212.6930  151.4170 N   0  0  0  0  0  2  0  0  0  0  0  0
  157.6020  212.9670  150.3320 C   0  0  1  0  0  3  0  0  0  0  0  0
  158.9980  213.5380  150.5070 C   0  0  1  0  0  3  0  0  0  0  0  0
  157.8020  214.2100  151.1870 C   0  0  2  0  0  3  0  0  0  0  0  0
  156.3090  214.4530  153.1850 C   0  0  0  0  0  2  0  0  0  0  0  0
  155.1800  212.5060  154.2860 C   0  0  0  0  0  3  0  0  0  0  0  0
  157.6250  213.8540  152.6610 C   0  0  1  0  0  3  0  0  0  0  0  0
  157.6750  212.4010  152.8220 N   0  0  0  0  0  2  0  0  0  0  0  0
  157.6590  212.0970  154.2480 C   0  0  0  0  0  2  0  0  0  0  0  0
  156.2570  211.8500  154.7600 C   0  0  0  0  0  0  0  0  0  0  0  0
  155.1620  213.4540  153.1190 C   0  0  0  0  0  2  0  0  0  0  0  0
  155.0880  210.0340  155.9030 O   0  0  0  0  0  0  0  0  0  0  0  0
  156.0890  210.9810  155.8880 N   0  0  0  0  0  0  0  0  0  0  0  0
  156.8510  211.0730  156.8720 O   0  0  0  0  0  0  0  0  0  0  0  0
  156.3270  214.3670  148.8730 O   0  0  0  0  0  0  0  0  0  0  0  0
  157.0580  213.3470  148.9940 C   0  0  0  0  0  0  0  0  0  0  0  0
  157.4060  212.5910  147.8400 N   0  0  0  0  0  1  0  0  0  0  0  0
  161.6030  212.1030  149.9100 O   0  0  0  0  0  0  0  0  0  0  0  0
  161.3720  211.6070  148.5960 C   0  0  1  0  0  3  0  0  0  0  0  0
  161.3340  213.8760  147.4820 C   0  0  0  0  0  2  0  0  0  0  0  0
  162.6580  213.5640  146.7820 C   0  0  1  0  0  3  0  0  0  0  0  0
  160.5450  212.5970  147.7680 C   0  0  0  0  0  2  0  0  0  0  0  0
  163.4840  212.5860  147.6250 C   0  0  0  0  0  2  0  0  0  0  0  0
  162.7010  211.3030  147.9050 C   0  0  0  0  0  2  0  0  0  0  0  0
  162.4210  213.0370  145.5090 O   0  0  0  0  0  0  0  0  0  0  0  0
  161.5680  213.9510  144.8900 C   0  0  0  0  0  2  0  0  0  0  0  0
  160.8890  213.2900  143.7110 C   0  0  0  0  0  2  0  0  0  0  0  0
  160.5280  214.2590  142.7760 O   0  0  0  0  0  0  0  0  0  0  0  0
  159.1840  214.0040  142.5040 C   0  0  0  0  0  2  0  0  0  0  0  0
  157.6310  212.7080  139.2950 C   0  0  0  0  0  2  0  0  0  0  0  0
  158.6890  213.2400  138.3300 C   0  0  0  0  0  2  0  0  0  0  0  0
  160.0660  212.9030  138.8920 C   0  0  0  0  0  2  0  0  0  0  0  0
  159.0370  213.4950  141.1120 C   0  0  0  0  0  0  0  0  0  0  0  0
  157.8520  213.2190  140.6510 N   0  0  0  0  0  0  0  0  0  0  0  0
  160.1820  213.4200  140.2520 N   0  0  0  0  0  2  0  0  0  0  0  0
  161.9750  209.6210  151.2050 C   0  0  0  0  0  2  0  0  0  0  0  0
  161.1990  207.1680  151.9100 C   0  0  0  0  0  0  0  0  0  0  0  0
  161.5470  208.2760  151.5870 C   0  0  0  0  0  0  0  0  0  0  0  0
  160.7840  205.8220  152.3140 C   0  0  0  0  0  2  0  0  0  0  0  0
  160.7380  204.8910  151.1050 C   0  0  1  0  0  3  0  0  0  0  0  0
  160.9840  205.6620  149.8010 C   0  0  0  0  0  2  0  0  0  0  0  0
  160.3300  202.5920  149.4340 C   0  0  0  0  0  2  0  0  0  0  0  0
  160.5260  203.5980  148.2910 C   0  0  0  0  0  2  0  0  0  0  0  0
  161.4530  204.7900  148.6250 C   0  0  1  0  0  3  0  0  0  0  0  0
  161.4130  202.5960  150.3620 O   0  0  0  0  0  0  0  0  0  0  0  0
  161.6220  203.6710  151.2300 C   0  0  0  0  0  0  0  0  0  0  0  0
  162.6370  203.6190  152.0850 C   0  0  0  0  0  2  0  0  0  0  0  0
  160.5760  206.2760  146.9290 C   0  0  0  0  0  2  0  0  0  0  0  0
  160.7230  206.3150  145.4300 C   0  0  0  0  0  2  0  0  0  0  0  0
  161.7730  205.6310  147.4620 N   0  0  0  0  0  0  0  0  0  0  0  0
  161.5680  205.1110  145.1120 C   0  0  0  0  0  2  0  0  0  0  0  0
  162.3130  204.7920  146.3930 C   0  0  0  0  0  2  0  0  0  0  0  0
  2  3  1  0  0  0  0
  2  1  2  0  0  0  0
  4 18  1  6  0  0  0
  4  5  1  0  0  0  0
  4  6  1  0  0  0  0
  5  6  1  0  0  0  0
  5  3  1  1  0  0  0
  6  9  1  1  0  0  0
  8 12  2  0  0  0  0
  9 10  1  0  0  0  0
  9  7  1  6  0  0  0
 10 11  1  0  0  0  0
 11 12  1  0  0  0  0
 12 15  1  0  0  0  0
 13  7  1  0  0  0  0
 13  8  1  0  0  0  0
 15 14  2  0  0  0  0
 15 16  2  0  0  0  0
 17 18  2  0  0  0  0
 19 18  1  0  0  0  0
 20  2  1  0  0  0  0
 21 20  1  1  0  0  0
 22 24  1  0  0  0  0
 23 27  1  6  0  0  0
 23 22  1  0  0  0  0
 23 25  1  0  0  0  0
 24 21  1  0  0  0  0
 25 26  1  0  0  0  0
 26 21  1  0  0  0  0
 28 27  1  0  0  0  0
 29 28  1  0  0  0  0
 30 29  1  0  0  0  0
 31 30  1  0  0  0  0
 32 36  1  0  0  0  0
 33 34  1  0  0  0  0
 33 32  1  0  0  0  0
 34 37  1  0  0  0  0
 35 31  1  0  0  0  0
 36 35  2  0  0  0  0
 37 35  1  0  0  0  0
 38 40  1  0  0  0  0
 38  1  1  0  0  0  0
 39 41  1  0  0  0  0
 40 39  3  0  0  0  0
 42 48  1  0  0  0  0
 42 41  1  1  0  0  0
 43 42  1  0  0  0  0
 44 47  1  0  0  0  0
 45 46  1  0  0  0  0
 45 44  1  0  0  0  0
 46 52  1  6  0  0  0
 46 43  1  0  0  0  0
 47 48  1  0  0  0  0
 48 49  2  0  0  0  0
 50 52  1  0  0  0  0
 51 50  1  0  0  0  0
 53 51  1  0  0  0  0
 53 54  1  0  0  0  0
 54 52  1  0  0  0  0
M  END
>  <MODEL>
6

>  <REMARK>
 VINA RESULT:      -3.9      2.510      9.210
  Name = 
  18 active torsions:
  status: ('A' for Active; 'I' for Inactive)
    1  A    between atoms: O_1  and  C_34
    2  A    between atoms: O_1  and  C_35
    3  A    between atoms: C_6  and  C_7
    4  A    between atoms: C_7  and  C_28
    5  A    between atoms: C_10  and  C_17
    6  A    between atoms: C_10  and  O_37
    7  A    between atoms: C_13  and  C_16
    8  A    between atoms: C_14  and  C_34
    9  A    between atoms: C_14  and  O_37
   10  A    between atoms: C_18  and  C_25
   11  A    between atoms: C_19  and  O_27
   12  A    between atoms: N_20  and  C_31
   13  A    between atoms: C_23  and  O_27
   14  A    between atoms: C_23  and  N_38
   15  A    between atoms: C_24  and  N_38
   16  A    between atoms: C_25  and  C_30
   17  A    between atoms: C_32  and  C_39
   18  A    between atoms: C_46  and  N_53
                            x       y       z     vdW  Elec       q    Type
                         _______ _______ _______ _____ _____    ______ ____

>  <TORSDO>
F 18

$$$$
=
 OpenBabel11042422063D

 54 59  0  0  1  0  0  0  0  0999 V2000
  161.0630  209.5190  152.7750 C   0  0  0  0  0  3  0  0  0  0  0  0
  160.7380  208.7360  153.8040 C   0  0  0  0  0  0  0  0  0  0  0  0
  160.5720  209.2940  155.1140 N   0  0  0  0  0  2  0  0  0  0  0  0
  162.2040  211.0060  155.6880 C   0  0  1  0  0  3  0  0  0  0  0  0
  161.6800  209.6160  156.0070 C   0  0  1  0  0  3  0  0  0  0  0  0
  161.3670  210.7890  156.9400 C   0  0  2  0  0  3  0  0  0  0  0  0
  160.0850  212.6270  155.8180 C   0  0  0  0  0  2  0  0  0  0  0  0
  158.3160  212.1990  154.0960 C   0  0  0  0  0  3  0  0  0  0  0  0
  159.9830  211.4060  156.7460 C   0  0  1  0  0  3  0  0  0  0  0  0
  159.0650  210.3910  156.2290 N   0  0  0  0  0  2  0  0  0  0  0  0
  157.7230  210.9610  156.2000 C   0  0  0  0  0  2  0  0  0  0  0  0
  157.3960  211.5760  154.8570 C   0  0  0  0  0  0  0  0  0  0  0  0
  159.7930  212.2670  154.3680 C   0  0  0  0  0  2  0  0  0  0  0  0
  155.2010  210.5250  154.6350 O   0  0  0  0  0  0  0  0  0  0  0  0
  156.0230  211.6140  154.4430 N   0  0  0  0  0  0  0  0  0  0  0  0
  155.5570  212.6380  153.9040 O   0  0  0  0  0  0  0  0  0  0  0  0
  163.9960  211.2200  157.2550 O   0  0  0  0  0  0  0  0  0  0  0  0
  163.6500  211.1010  156.0490 C   0  0  0  0  0  0  0  0  0  0  0  0
  164.6480  211.0050  155.0380 N   0  0  0  0  0  1  0  0  0  0  0  0
  160.5660  207.3630  153.6070 O   0  0  0  0  0  0  0  0  0  0  0  0
  161.6650  206.4680  153.4690 C   0  0  1  0  0  3  0  0  0  0  0  0
  160.2580  204.4270  152.9750 C   0  0  0  0  0  2  0  0  0  0  0  0
  160.7670  204.4140  151.5330 C   0  0  1  0  0  3  0  0  0  0  0  0
  161.2870  205.0530  153.9190 C   0  0  0  0  0  2  0  0  0  0  0  0
  161.1280  205.8360  151.0870 C   0  0  0  0  0  2  0  0  0  0  0  0
  162.1620  206.4610  152.0240 C   0  0  0  0  0  2  0  0  0  0  0  0
  161.8730  203.5670  151.4160 O   0  0  0  0  0  0  0  0  0  0  0  0
  161.3580  202.2780  151.5490 C   0  0  0  0  0  2  0  0  0  0  0  0
  161.0580  201.7110  150.1790 C   0  0  0  0  0  2  0  0  0  0  0  0
  161.7580  202.4300  149.2110 O   0  0  0  0  0  0  0  0  0  0  0  0
  160.9330  202.4060  148.0860 C   0  0  0  0  0  2  0  0  0  0  0  0
  161.8570  205.8620  146.8230 C   0  0  0  0  0  2  0  0  0  0  0  0
  162.6490  205.4220  145.5930 C   0  0  0  0  0  2  0  0  0  0  0  0
  161.8460  204.3530  144.8590 C   0  0  0  0  0  2  0  0  0  0  0  0
  161.2940  203.5260  147.1720 C   0  0  0  0  0  0  0  0  0  0  0  0
  161.5050  204.7120  147.6620 N   0  0  0  0  0  0  0  0  0  0  0  0
  161.5150  203.2690  145.7780 N   0  0  0  0  0  2  0  0  0  0  0  0
  161.2460  208.9840  151.3960 C   0  0  0  0  0  2  0  0  0  0  0  0
  161.9400  210.9740  149.7610 C   0  0  0  0  0  0  0  0  0  0  0  0
  161.6310  210.0730  150.5000 C   0  0  0  0  0  0  0  0  0  0  0  0
  162.3010  212.0740  148.8630 C   0  0  0  0  0  2  0  0  0  0  0  0
  161.1820  212.3330  147.8580 C   0  0  1  0  0  3  0  0  0  0  0  0
  159.9760  213.0050  148.5300 C   0  0  0  0  0  2  0  0  0  0  0  0
  159.5790  212.3010  145.4750 C   0  0  0  0  0  2  0  0  0  0  0  0
  158.5010  212.8920  146.3940 C   0  0  0  0  0  2  0  0  0  0  0  0
  159.0410  213.7490  147.5630 C   0  0  1  0  0  3  0  0  0  0  0  0
  160.7900  213.0550  145.4910 O   0  0  0  0  0  0  0  0  0  0  0  0
  161.6270  213.0610  146.6100 C   0  0  0  0  0  0  0  0  0  0  0  0
  162.7490  213.7700  146.5690 C   0  0  0  0  0  2  0  0  0  0  0  0
  158.1620  214.2880  149.7510 C   0  0  0  0  0  2  0  0  0  0  0  0
  156.7840  214.1800  150.3540 C   0  0  0  0  0  2  0  0  0  0  0  0
  157.9890  214.4530  148.3110 N   0  0  0  0  0  0  0  0  0  0  0  0
  155.9510  213.5680  149.2590 C   0  0  0  0  0  2  0  0  0  0  0  0
  156.6880  213.8780  147.9710 C   0  0  0  0  0  2  0  0  0  0  0  0
  1  2  2  0  0  0  0
  2  3  1  0  0  0  0
  4  5  1  0  0  0  0
  4 18  1  1  0  0  0
  4  6  1  0  0  0  0
  5  3  1  6  0  0  0
  5  6  1  0  0  0  0
  6  9  1  6  0  0  0
  8 13  1  0  0  0  0
  8 12  2  0  0  0  0
  9  7  1  6  0  0  0
 10  9  1  0  0  0  0
 11 10  1  0  0  0  0
 12 11  1  0  0  0  0
 13  7  1  0  0  0  0
 15 14  2  0  0  0  0
 15 12  1  0  0  0  0
 16 15  2  0  0  0  0
 18 17  2  0  0  0  0
 19 18  1  0  0  0  0
 20  2  1  0  0  0  0
 21 20  1  6  0  0  0
 21 24  1  0  0  0  0
 22 24  1  0  0  0  0
 23 27  1  1  0  0  0
 23 22  1  0  0  0  0
 25 23  1  0  0  0  0
 25 26  1  0  0  0  0
 26 21  1  0  0  0  0
 27 28  1  0  0  0  0
 29 28  1  0  0  0  0
 30 29  1  0  0  0  0
 31 30  1  0  0  0  0
 32 36  1  0  0  0  0
 33 32  1  0  0  0  0
 34 33  1  0  0  0  0
 34 37  1  0  0  0  0
 35 36  2  0  0  0  0
 35 31  1  0  0  0  0
 37 35  1  0  0  0  0
 38  1  1  0  0  0  0
 39 40  3  0  0  0  0
 40 38  1  0  0  0  0
 41 39  1  0  0  0  0
 42 43  1  0  0  0  0
 42 41  1  1  0  0  0
 44 47  1  0  0  0  0
 44 45  1  0  0  0  0
 46 45  1  6  0  0  0
 46 52  1  0  0  0  0
 46 43  1  0  0  0  0
 47 48  1  0  0  0  0
 48 42  1  0  0  0  0
 49 48  2  0  0  0  0
 50 51  1  0  0  0  0
 52 50  1  0  0  0  0
 53 51  1  0  0  0  0
 54 52  1  0  0  0  0
 54 53  1  0  0  0  0
M  END
>  <MODEL>
7

>  <REMARK>
 VINA RESULT:      -3.8      2.590     10.161
  Name = 
  18 active torsions:
  status: ('A' for Active; 'I' for Inactive)
    1  A    between atoms: O_1  and  C_34
    2  A    between atoms: O_1  and  C_35
    3  A    between atoms: C_6  and  C_7
    4  A    between atoms: C_7  and  C_28
    5  A    between atoms: C_10  and  C_17
    6  A    between atoms: C_10  and  O_37
    7  A    between atoms: C_13  and  C_16
    8  A    between atoms: C_14  and  C_34
    9  A    between atoms: C_14  and  O_37
   10  A    between atoms: C_18  and  C_25
   11  A    between atoms: C_19  and  O_27
   12  A    between atoms: N_20  and  C_31
   13  A    between atoms: C_23  and  O_27
   14  A    between atoms: C_23  and  N_38
   15  A    between atoms: C_24  and  N_38
   16  A    between atoms: C_25  and  C_30
   17  A    between atoms: C_32  and  C_39
   18  A    between atoms: C_46  and  N_53
                            x       y       z     vdW  Elec       q    Type
                         _______ _______ _______ _____ _____    ______ ____

>  <TORSDO>
F 18

$$$$
=
 OpenBabel11042422063D

 54 59  0  0  1  0  0  0  0  0999 V2000
  161.3410  211.6770  149.1030 C   0  0  0  0  0  3  0  0  0  0  0  0
  161.5090  210.9510  150.2080 C   0  0  0  0  0  0  0  0  0  0  0  0
  160.9390  211.3790  151.4500 N   0  0  0  0  0  2  0  0  0  0  0  0
  158.7370  212.1400  152.1570 C   0  0  1  0  0  3  0  0  0  0  0  0
  160.0840  212.5540  151.5900 C   0  0  1  0  0  3  0  0  0  0  0  0
  159.7350  212.8620  153.0490 C   0  0  2  0  0  3  0  0  0  0  0  0
  159.7950  212.2200  155.4700 C   0  0  0  0  0  2  0  0  0  0  0  0
  158.9440  210.0200  156.3170 C   0  0  0  0  0  3  0  0  0  0  0  0
  160.3200  211.8830  154.0650 C   0  0  1  0  0  3  0  0  0  0  0  0
  159.9950  210.5140  153.6650 N   0  0  0  0  0  2  0  0  0  0  0  0
  160.6900  209.5980  154.5610 C   0  0  0  0  0  2  0  0  0  0  0  0
  159.8300  209.1880  155.7360 C   0  0  0  0  0  0  0  0  0  0  0  0
  158.5690  211.3940  155.8350 C   0  0  0  0  0  2  0  0  0  0  0  0
  161.1890  207.6880  157.1040 O   0  0  0  0  0  0  0  0  0  0  0  0
  160.0650  207.9080  156.3370 N   0  0  0  0  0  0  0  0  0  0  0  0
  159.2510  206.9770  156.1740 O   0  0  0  0  0  0  0  0  0  0  0  0
  156.9120  213.6360  152.5380 O   0  0  0  0  0  0  0  0  0  0  0  0
  157.6770  213.0890  151.7000 C   0  0  0  0  0  0  0  0  0  0  0  0
  157.5620  213.4210  150.3210 N   0  0  0  0  0  1  0  0  0  0  0  0
  162.2500  209.7660  150.1550 O   0  0  0  0  0  0  0  0  0  0  0  0
  161.7140  208.5530  149.6370 C   0  0  1  0  0  3  0  0  0  0  0  0
  163.4130  207.0430  150.7450 C   0  0  0  0  0  2  0  0  0  0  0  0
  162.3310  206.4920  151.6740 C   0  0  1  0  0  3  0  0  0  0  0  0
  162.8150  207.5110  149.4170 C   0  0  0  0  0  2  0  0  0  0  0  0
  161.2420  207.5470  151.9030 C   0  0  0  0  0  2  0  0  0  0  0  0
  160.6370  208.0090  150.5770 C   0  0  0  0  0  2  0  0  0  0  0  0
  161.7790  205.3250  151.1380 O   0  0  0  0  0  0  0  0  0  0  0  0
  161.5060  204.5130  152.2390 C   0  0  0  0  0  2  0  0  0  0  0  0
  161.0150  203.1640  151.7630 C   0  0  0  0  0  2  0  0  0  0  0  0
  161.5520  202.8870  150.5070 O   0  0  0  0  0  0  0  0  0  0  0  0
  160.5730  203.2990  149.6030 C   0  0  0  0  0  2  0  0  0  0  0  0
  161.1160  200.8080  146.7950 C   0  0  0  0  0  2  0  0  0  0  0  0
  160.6700  201.7050  145.6410 C   0  0  0  0  0  2  0  0  0  0  0  0
  161.3310  203.0680  145.8070 C   0  0  0  0  0  2  0  0  0  0  0  0
  160.8560  202.7300  148.2560 C   0  0  0  0  0  0  0  0  0  0  0  0
  160.8410  201.4400  148.0890 N   0  0  0  0  0  0  0  0  0  0  0  0
  161.0310  203.6030  147.1320 N   0  0  0  0  0  2  0  0  0  0  0  0
  161.9150  211.2710  147.7890 C   0  0  0  0  0  2  0  0  0  0  0  0
  161.7580  213.3180  146.0850 C   0  0  0  0  0  0  0  0  0  0  0  0
  161.8250  212.3900  146.8520 C   0  0  0  0  0  0  0  0  0  0  0  0
  161.6840  214.4530  145.1620 C   0  0  0  0  0  2  0  0  0  0  0  0
  160.6470  214.1900  144.0730 C   0  0  1  0  0  3  0  0  0  0  0  0
  161.1090  213.0750  143.1230 C   0  0  0  0  0  2  0  0  0  0  0  0
  158.3650  214.4380  142.3470 C   0  0  0  0  0  2  0  0  0  0  0  0
  159.0870  213.3660  141.5170 C   0  0  0  0  0  2  0  0  0  0  0  0
  159.9750  212.3990  142.3350 C   0  0  1  0  0  3  0  0  0  0  0  0
  158.1720  214.0460  143.7050 O   0  0  0  0  0  0  0  0  0  0  0  0
  159.2460  213.9590  144.5950 C   0  0  0  0  0  0  0  0  0  0  0  0
  159.0120  213.6020  145.8520 C   0  0  0  0  0  2  0  0  0  0  0  0
  161.8790  211.5190  141.1310 C   0  0  0  0  0  2  0  0  0  0  0  0
  162.0340  210.9380  139.7490 C   0  0  0  0  0  2  0  0  0  0  0  0
  160.5010  211.2750  141.5470 N   0  0  0  0  0  0  0  0  0  0  0  0
  160.6580  211.0460  139.1480 C   0  0  0  0  0  2  0  0  0  0  0  0
  159.7090  211.1280  140.3280 C   0  0  0  0  0  2  0  0  0  0  0  0
  1  2  2  0  0  0  0
  2  3  1  0  0  0  0
  4 18  1  6  0  0  0
  4  6  1  0  0  0  0
  5  3  1  1  0  0  0
  5  4  1  0  0  0  0
  5  6  1  0  0  0  0
  6  9  1  1  0  0  0
  7 13  1  0  0  0  0
  9  7  1  1  0  0  0
 10  9  1  0  0  0  0
 10 11  1  0  0  0  0
 11 12  1  0  0  0  0
 12  8  2  0  0  0  0
 12 15  1  0  0  0  0
 13  8  1  0  0  0  0
 15 14  2  0  0  0  0
 16 15  2  0  0  0  0
 18 17  2  0  0  0  0
 19 18  1  0  0  0  0
 20  2  1  0  0  0  0
 21 20  1  1  0  0  0
 21 26  1  0  0  0  0
 22 23  1  0  0  0  0
 23 27  1  6  0  0  0
 23 25  1  0  0  0  0
 24 21  1  0  0  0  0
 24 22  1  0  0  0  0
 26 25  1  0  0  0  0
 27 28  1  0  0  0  0
 29 28  1  0  0  0  0
 30 29  1  0  0  0  0
 31 30  1  0  0  0  0
 32 36  1  0  0  0  0
 33 34  1  0  0  0  0
 33 32  1  0  0  0  0
 34 37  1  0  0  0  0
 35 31  1  0  0  0  0
 36 35  2  0  0  0  0
 37 35  1  0  0  0  0
 38  1  1  0  0  0  0
 39 40  3  0  0  0  0
 40 38  1  0  0  0  0
 41 39  1  0  0  0  0
 42 48  1  0  0  0  0
 42 41  1  1  0  0  0
 43 42  1  0  0  0  0
 44 47  1  0  0  0  0
 45 44  1  0  0  0  0
 46 45  1  6  0  0  0
 46 43  1  0  0  0  0
 47 48  1  0  0  0  0
 48 49  2  0  0  0  0
 50 52  1  0  0  0  0
 51 50  1  0  0  0  0
 52 46  1  0  0  0  0
 53 51  1  0  0  0  0
 53 54  1  0  0  0  0
 54 52  1  0  0  0  0
M  END
>  <MODEL>
8

>  <REMARK>
 VINA RESULT:      -3.7      2.372     10.281
  Name = 
  18 active torsions:
  status: ('A' for Active; 'I' for Inactive)
    1  A    between atoms: O_1  and  C_34
    2  A    between atoms: O_1  and  C_35
    3  A    between atoms: C_6  and  C_7
    4  A    between atoms: C_7  and  C_28
    5  A    between atoms: C_10  and  C_17
    6  A    between atoms: C_10  and  O_37
    7  A    between atoms: C_13  and  C_16
    8  A    between atoms: C_14  and  C_34
    9  A    between atoms: C_14  and  O_37
   10  A    between atoms: C_18  and  C_25
   11  A    between atoms: C_19  and  O_27
   12  A    between atoms: N_20  and  C_31
   13  A    between atoms: C_23  and  O_27
   14  A    between atoms: C_23  and  N_38
   15  A    between atoms: C_24  and  N_38
   16  A    between atoms: C_25  and  C_30
   17  A    between atoms: C_32  and  C_39
   18  A    between atoms: C_46  and  N_53
                            x       y       z     vdW  Elec       q    Type
                         _______ _______ _______ _____ _____    ______ ____

>  <TORSDO>
F 18

$$$$
