=
 OpenBabel11052411253D

 43 47  0  0  1  0  0  0  0  0999 V2000
  160.7670  209.8360  152.0650 N   0  0  0  0  0  0  0  0  0  0  0  0
  161.6940  209.4220  151.2500 C   0  0  0  0  0  0  0  0  0  0  0  0
  163.0830  207.6180  150.6010 O   0  0  0  0  0  0  0  0  0  0  0  0
  161.2350  207.0050  151.8880 N   0  0  0  0  0  0  0  0  0  0  0  0
  162.0530  207.9900  151.2270 C   0  0  0  0  0  0  0  0  0  0  0  0
  160.8340  207.1160  153.2630 C   0  0  0  0  0  3  0  0  0  0  0  0
  161.2200  206.2490  154.1930 C   0  0  0  0  0  2  0  0  0  0  0  0
  160.8660  205.7870  151.1840 C   0  0  0  0  0  2  0  0  0  0  0  0
  160.4510  206.1070  149.7570 C   0  0  0  0  0  2  0  0  0  0  0  0
  161.0580  205.1270  148.8100 C   0  0  0  0  0  0  0  0  0  0  0  0
  161.2070  203.7650  149.0520 C   0  0  0  0  0  0  0  0  0  0  0  0
  160.0730  201.5720  144.9650 C   0  0  0  0  0  1  0  0  0  0  0  0
  161.2680  203.7540  145.6290 C   0  0  0  0  0  2  0  0  0  0  0  0
  161.0250  202.1090  147.2740 C   0  0  0  0  0  0  0  0  0  0  0  0
  160.9060  202.3450  145.8710 N   0  0  0  0  0  0  0  0  0  0  0  0
  161.5920  203.2820  147.8380 C   0  0  0  0  0  0  0  0  0  0  0  0
  161.2740  201.6170  150.2970 C   0  0  0  0  0  2  0  0  0  0  0  0
  161.6820  204.2530  146.9410 N   0  0  0  0  0  0  0  0  0  0  0  0
  159.9840  201.5490  149.4960 C   0  0  0  0  0  0  0  0  0  0  0  0
  160.2150  201.3250  147.9990 C   0  0  0  0  0  3  0  0  0  0  0  0
  160.4900  202.9060  150.0690 C   0  0  0  0  0  0  0  0  0  0  0  0
  161.3060  205.3930  147.5010 N   0  0  0  0  0  0  0  0  0  0  0  0
  162.3790  210.3680  150.3050 C   0  0  0  0  0  2  0  0  0  0  0  0
  161.6150  211.0580  148.0850 N   0  0  0  0  0  0  0  0  0  0  0  0
  161.9420  210.1110  148.8930 C   0  0  0  0  0  3  0  0  0  0  0  0
  161.6360  212.4510  148.4630 C   0  0  0  0  0  2  0  0  0  0  0  0
  159.9440  214.1140  148.6380 O   0  0  0  0  0  0  0  0  0  0  0  0
  160.3860  213.1150  148.0060 C   0  0  0  0  0  0  0  0  0  0  0  0
  159.7070  212.6110  146.8960 O   0  0  0  0  0  0  0  0  0  0  0  0
  159.2810  212.4100  144.5450 C   0  0  0  0  0  2  0  0  0  0  0  0
  160.6850  212.9450  144.7360 C   0  0  0  0  0  2  0  0  0  0  0  0
  159.5810  213.3550  145.6900 C   0  0  0  0  0  3  0  0  0  0  0  0
  160.3140  211.2180  152.1690 C   0  0  0  0  0  2  0  0  0  0  0  0
  158.9750  211.2820  152.8850 C   0  0  0  0  0  2  0  0  0  0  0  0
  158.6660  212.6970  153.2520 C   0  0  0  0  0  0  0  0  0  0  0  0
  158.6680  213.1210  154.6160 N   0  0  0  0  0  2  0  0  0  0  0  0
  158.4220  213.5340  152.3440 O   0  0  0  0  0  0  0  0  0  0  0  0
  157.7980  211.7030  156.3630 C   0  0  0  0  0  3  0  0  0  0  0  0
  158.8380  212.2090  155.7040 C   0  0  0  0  0  3  0  0  0  0  0  0
  155.8440  211.0800  155.0170 C   0  0  0  0  0  1  0  0  0  0  0  0
  156.3820  212.0590  156.0420 C   0  0  1  0  0  3  0  0  0  0  0  0
  155.6080  211.9830  157.2020 O   0  0  0  0  0  0  0  0  0  0  0  0
  154.8860  210.8900  157.0540 O   0  0  0  0  0  1  0  0  0  0  0  0
  1 33  1  0  0  0  0
  2  1  2  0  0  0  0
  3  5  2  0  0  0  0
  4  6  1  0  0  0  0
  5  2  1  0  0  0  0
  5  4  1  0  0  0  0
  6  7  2  0  0  0  0
  8  4  1  0  0  0  0
  9  8  1  0  0  0  0
 10 11  1  0  0  0  0
 10  9  1  0  0  0  0
 11 21  1  0  0  0  0
 12 15  1  0  0  0  0
 13 15  1  0  0  0  0
 13 18  1  0  0  0  0
 14 16  1  0  0  0  0
 14 20  2  0  0  0  0
 15 14  1  0  0  0  0
 16 11  2  0  0  0  0
 18 22  1  0  0  0  0
 18 16  1  0  0  0  0
 19 21  2  0  0  0  0
 19 17  1  0  0  0  0
 20 19  1  0  0  0  0
 21 17  1  0  0  0  0
 22 10  2  0  0  0  0
 23  2  1  0  0  0  0
 24 26  1  0  0  0  0
 24 25  2  0  0  0  0
 25 23  1  0  0  0  0
 28 26  1  0  0  0  0
 28 27  2  0  0  0  0
 29 28  1  0  0  0  0
 30 31  1  0  0  0  0
 30 32  1  0  0  0  0
 31 32  1  0  0  0  0
 32 29  1  0  0  0  0
 33 34  1  0  0  0  0
 34 35  1  0  0  0  0
 35 36  1  0  0  0  0
 36 39  1  0  0  0  0
 37 35  2  0  0  0  0
 39 38  2  0  0  0  0
 41 40  1  6  0  0  0
 41 38  1  0  0  0  0
 41 42  1  0  0  0  0
 43 42  1  0  0  0  0
M  END
>  <MODEL>
1

>  <REMARK>
 VINA RESULT:      -7.5      0.000      0.000
  Name = 
  17 active torsions:
  status: ('A' for Active; 'I' for Inactive)
    1  A    between atoms: C_2  and  C_6
    2  A    between atoms: N_3  and  C_29
    3  A    between atoms: C_4  and  C_40
    4  A    between atoms: C_5  and  C_6
    5  A    between atoms: C_5  and  N_11
    6  A    between atoms: C_10  and  C_39
    7  A    between atoms: N_11  and  C_12
    8  A    between atoms: N_13  and  C_20
    9  A    between atoms: C_19  and  C_26
   10  A    between atoms: C_20  and  C_38
   11  A    between atoms: C_22  and  N_37
   12  A    between atoms: C_26  and  C_31
   13  A    between atoms: O_27  and  C_36
   14  A    between atoms: O_27  and  C_38
   15  A    between atoms: O_28  and  C_39
   16  A    between atoms: C_29  and  C_40
   17  A    between atoms: C_31  and  C_43
                            x       y       z     vdW  Elec       q    Type
                         _______ _______ _______ _____ _____    ______ ____

>  <TORSDO>
F 17

$$$$
=
 OpenBabel11052411253D

 43 47  0  0  1  0  0  0  0  0999 V2000
  160.7810  208.3980  152.7210 N   0  0  0  0  0  0  0  0  0  0  0  0
  161.0240  207.6180  153.7350 C   0  0  0  0  0  0  0  0  0  0  0  0
  159.7210  207.1500  155.6540 O   0  0  0  0  0  0  0  0  0  0  0  0
  160.7860  209.2270  155.6860 N   0  0  0  0  0  0  0  0  0  0  0  0
  160.4810  207.9650  155.0630 C   0  0  0  0  0  0  0  0  0  0  0  0
  162.1260  209.7140  155.8560 C   0  0  0  0  0  3  0  0  0  0  0  0
  162.7130  210.5160  154.9740 C   0  0  0  0  0  2  0  0  0  0  0  0
  159.7120  210.0200  156.2660 C   0  0  0  0  0  2  0  0  0  0  0  0
  160.2540  211.3340  156.8010 C   0  0  0  0  0  2  0  0  0  0  0  0
  159.5420  212.4830  156.1700 C   0  0  0  0  0  0  0  0  0  0  0  0
  159.4800  212.7340  154.8030 C   0  0  0  0  0  0  0  0  0  0  0  0
  154.9940  214.1110  153.9230 C   0  0  0  0  0  1  0  0  0  0  0  0
  156.6920  214.4350  155.8310 C   0  0  0  0  0  2  0  0  0  0  0  0
  157.5140  213.7250  153.7600 C   0  0  0  0  0  0  0  0  0  0  0  0
  156.3570  214.2560  154.4070 N   0  0  0  0  0  0  0  0  0  0  0  0
  158.5580  213.7340  154.7210 C   0  0  0  0  0  0  0  0  0  0  0  0
  160.0060  212.5710  152.3810 C   0  0  0  0  0  2  0  0  0  0  0  0
  158.1070  214.0720  155.9190 N   0  0  0  0  0  0  0  0  0  0  0  0
  158.6710  211.8600  152.5260 C   0  0  0  0  0  0  0  0  0  0  0  0
  157.5020  212.8180  152.7730 C   0  0  0  0  0  3  0  0  0  0  0  0
  159.7370  211.7800  153.6590 C   0  0  0  0  0  0  0  0  0  0  0  0
  158.6590  213.2790  156.8270 N   0  0  0  0  0  0  0  0  0  0  0  0
  161.8160  206.3520  153.5690 C   0  0  0  0  0  2  0  0  0  0  0  0
  160.9500  204.3420  152.4720 N   0  0  0  0  0  0  0  0  0  0  0  0
  160.8990  205.1690  153.4580 C   0  0  0  0  0  3  0  0  0  0  0  0
  161.8900  204.4790  151.3850 C   0  0  0  0  0  2  0  0  0  0  0  0
  160.2310  205.2550  149.8670 O   0  0  0  0  0  0  0  0  0  0  0  0
  161.1660  204.4360  150.0860 C   0  0  0  0  0  0  0  0  0  0  0  0
  161.5150  203.4760  149.1360 O   0  0  0  0  0  0  0  0  0  0  0  0
  160.3260  201.4900  149.7640 C   0  0  0  0  0  2  0  0  0  0  0  0
  161.2600  201.1520  148.6200 C   0  0  0  0  0  2  0  0  0  0  0  0
  160.5840  202.5060  148.6700 C   0  0  0  0  0  3  0  0  0  0  0  0
  161.2470  208.1560  151.3600 C   0  0  0  0  0  2  0  0  0  0  0  0
  161.9660  209.3820  150.8230 C   0  0  0  0  0  2  0  0  0  0  0  0
  162.0550  209.3040  149.3340 C   0  0  0  0  0  0  0  0  0  0  0  0
  162.1100  210.4880  148.5370 N   0  0  0  0  0  2  0  0  0  0  0  0
  162.1050  208.1780  148.7740 O   0  0  0  0  0  0  0  0  0  0  0  0
  161.4160  212.7940  148.3980 C   0  0  0  0  0  3  0  0  0  0  0  0
  161.9600  211.7960  149.0920 C   0  0  0  0  0  3  0  0  0  0  0  0
  159.4310  212.6960  146.9600 C   0  0  0  0  0  1  0  0  0  0  0  0
  160.9470  212.6400  146.9870 C   0  0  1  0  0  3  0  0  0  0  0  0
  161.4590  213.6790  146.2080 O   0  0  0  0  0  0  0  0  0  0  0  0
  162.5010  213.1580  145.5930 O   0  0  0  0  0  1  0  0  0  0  0  0
  1  2  2  0  0  0  0
  2  5  1  0  0  0  0
  4  6  1  0  0  0  0
  4  8  1  0  0  0  0
  5  3  2  0  0  0  0
  5  4  1  0  0  0  0
  7  6  2  0  0  0  0
  8  9  1  0  0  0  0
 10  9  1  0  0  0  0
 10 22  2  0  0  0  0
 11 10  1  0  0  0  0
 12 15  1  0  0  0  0
 13 18  1  0  0  0  0
 14 15  1  0  0  0  0
 14 16  2  0  0  0  0
 15 13  1  0  0  0  0
 16 11  1  0  0  0  0
 16 18  1  0  0  0  0
 17 19  1  0  0  0  0
 17 21  1  0  0  0  0
 18 22  1  0  0  0  0
 19 20  2  3  0  0  0
 19 21  1  0  0  0  0
 20 14  1  0  0  0  0
 21 11  2  3  0  0  0
 23  2  1  0  0  0  0
 24 25  2  0  0  0  0
 25 23  1  0  0  0  0
 26 24  1  0  0  0  0
 27 28  2  0  0  0  0
 28 26  1  0  0  0  0
 29 28  1  0  0  0  0
 31 32  1  0  0  0  0
 31 30  1  0  0  0  0
 32 29  1  0  0  0  0
 32 30  1  0  0  0  0
 33  1  1  0  0  0  0
 34 33  1  0  0  0  0
 35 34  1  0  0  0  0
 36 39  1  0  0  0  0
 36 35  1  0  0  0  0
 37 35  2  0  0  0  0
 38 39  2  0  0  0  0
 41 40  1  1  0  0  0
 41 38  1  0  0  0  0
 42 41  1  0  0  0  0
 43 42  1  0  0  0  0
M  END
>  <MODEL>
2

>  <REMARK>
 VINA RESULT:      -6.9      2.853      9.817
  Name = 
  17 active torsions:
  status: ('A' for Active; 'I' for Inactive)
    1  A    between atoms: C_2  and  C_6
    2  A    between atoms: N_3  and  C_29
    3  A    between atoms: C_4  and  C_40
    4  A    between atoms: C_5  and  C_6
    5  A    between atoms: C_5  and  N_11
    6  A    between atoms: C_10  and  C_39
    7  A    between atoms: N_11  and  C_12
    8  A    between atoms: N_13  and  C_20
    9  A    between atoms: C_19  and  C_26
   10  A    between atoms: C_20  and  C_38
   11  A    between atoms: C_22  and  N_37
   12  A    between atoms: C_26  and  C_31
   13  A    between atoms: O_27  and  C_36
   14  A    between atoms: O_27  and  C_38
   15  A    between atoms: O_28  and  C_39
   16  A    between atoms: C_29  and  C_40
   17  A    between atoms: C_31  and  C_43
                            x       y       z     vdW  Elec       q    Type
                         _______ _______ _______ _____ _____    ______ ____

>  <TORSDO>
F 17

$$$$
=
 OpenBabel11052411253D

 43 47  0  0  1  0  0  0  0  0999 V2000
  159.8160  211.1040  152.0590 N   0  0  0  0  0  0  0  0  0  0  0  0
  160.3950  210.4070  152.9950 C   0  0  0  0  0  0  0  0  0  0  0  0
  162.6160  209.9540  152.3150 O   0  0  0  0  0  0  0  0  0  0  0  0
  161.2930  208.0580  152.6340 N   0  0  0  0  0  0  0  0  0  0  0  0
  161.4910  209.4850  152.6400 C   0  0  0  0  0  0  0  0  0  0  0  0
  160.7470  207.3390  153.7510 C   0  0  0  0  0  3  0  0  0  0  0  0
  161.2720  207.4040  154.9700 C   0  0  0  0  0  2  0  0  0  0  0  0
  161.7490  207.2730  151.4970 C   0  0  0  0  0  2  0  0  0  0  0  0
  162.1490  205.8770  151.9430 C   0  0  0  0  0  2  0  0  0  0  0  0
  161.3630  204.8510  151.1990 C   0  0  0  0  0  0  0  0  0  0  0  0
  161.0280  204.9200  149.8510 C   0  0  0  0  0  0  0  0  0  0  0  0
  161.6390  200.5120  148.1190 C   0  0  0  0  0  1  0  0  0  0  0  0
  160.8060  201.5370  150.3290 C   0  0  0  0  0  2  0  0  0  0  0  0
  160.8840  202.9300  148.4520 C   0  0  0  0  0  0  0  0  0  0  0  0
  160.9700  201.5660  148.8650 N   0  0  0  0  0  0  0  0  0  0  0  0
  160.5210  203.6800  149.6010 C   0  0  0  0  0  0  0  0  0  0  0  0
  160.7080  205.8710  147.5790 C   0  0  0  0  0  2  0  0  0  0  0  0
  160.5310  202.9280  150.6910 N   0  0  0  0  0  0  0  0  0  0  0  0
  161.9360  204.9840  147.4470 C   0  0  0  0  0  0  0  0  0  0  0  0
  161.6040  203.4890  147.4700 C   0  0  0  0  0  3  0  0  0  0  0  0
  161.6600  205.7640  148.7670 C   0  0  0  0  0  0  0  0  0  0  0  0
  161.0950  203.6080  151.6790 N   0  0  0  0  0  0  0  0  0  0  0  0
  159.9910  210.5520  154.4350 C   0  0  0  0  0  2  0  0  0  0  0  0
  160.5380  212.0380  156.3010 N   0  0  0  0  0  0  0  0  0  0  0  0
  160.7330  211.6870  155.0770 C   0  0  0  0  0  3  0  0  0  0  0  0
  159.5900  211.3750  157.1640 C   0  0  0  0  0  2  0  0  0  0  0  0
  158.0450  213.1810  157.2610 O   0  0  0  0  0  0  0  0  0  0  0  0
  158.2380  211.9670  156.9750 C   0  0  0  0  0  0  0  0  0  0  0  0
  157.1970  211.1660  156.5060 O   0  0  0  0  0  0  0  0  0  0  0  0
  155.4110  210.8710  154.9330 C   0  0  0  0  0  2  0  0  0  0  0  0
  156.1190  212.1730  154.6200 C   0  0  0  0  0  2  0  0  0  0  0  0
  155.9660  211.7210  156.0570 C   0  0  0  0  0  3  0  0  0  0  0  0
  158.7350  212.0560  152.2850 C   0  0  0  0  0  2  0  0  0  0  0  0
  158.3280  212.7120  150.9760 C   0  0  0  0  0  2  0  0  0  0  0  0
  159.1900  213.9060  150.7200 C   0  0  0  0  0  0  0  0  0  0  0  0
  159.3180  214.4530  149.4070 N   0  0  0  0  0  2  0  0  0  0  0  0
  159.7930  214.4530  151.6800 O   0  0  0  0  0  0  0  0  0  0  0  0
  159.4690  213.5510  147.1750 C   0  0  0  0  0  3  0  0  0  0  0  0
  158.7430  213.8310  148.2560 C   0  0  0  0  0  3  0  0  0  0  0  0
  161.7390  212.6640  147.4550 C   0  0  0  0  0  1  0  0  0  0  0  0
  160.9220  213.8820  147.0650 C   0  0  1  0  0  3  0  0  0  0  0  0
  161.2230  214.2340  145.7470 O   0  0  0  0  0  0  0  0  0  0  0  0
  162.1200  213.3510  145.3580 O   0  0  0  0  0  1  0  0  0  0  0  0
  1 33  1  0  0  0  0
  1  2  2  0  0  0  0
  2 23  1  0  0  0  0
  3  5  2  0  0  0  0
  4  5  1  0  0  0  0
  4  6  1  0  0  0  0
  5  2  1  0  0  0  0
  6  7  2  0  0  0  0
  8  9  1  0  0  0  0
  8  4  1  0  0  0  0
 10 22  2  0  0  0  0
 10  9  1  0  0  0  0
 11 10  1  0  0  0  0
 12 15  1  0  0  0  0
 13 18  1  0  0  0  0
 14 15  1  0  0  0  0
 14 16  2  0  0  0  0
 15 13  1  0  0  0  0
 16 11  1  0  0  0  0
 16 18  1  0  0  0  0
 17 21  1  0  0  0  0
 18 22  1  0  0  0  0
 19 20  2  3  0  0  0
 19 17  1  0  0  0  0
 19 21  1  0  0  0  0
 20 14  1  0  0  0  0
 21 11  2  3  0  0  0
 23 25  1  0  0  0  0
 24 26  1  0  0  0  0
 25 24  2  0  0  0  0
 28 26  1  0  0  0  0
 28 27  2  0  0  0  0
 29 28  1  0  0  0  0
 30 32  1  0  0  0  0
 31 30  1  0  0  0  0
 31 32  1  0  0  0  0
 32 29  1  0  0  0  0
 34 33  1  0  0  0  0
 35 34  1  0  0  0  0
 35 37  2  0  0  0  0
 36 35  1  0  0  0  0
 38 39  2  0  0  0  0
 39 36  1  0  0  0  0
 41 38  1  0  0  0  0
 41 40  1  6  0  0  0
 42 41  1  0  0  0  0
 43 42  1  0  0  0  0
M  END
>  <MODEL>
3

>  <REMARK>
 VINA RESULT:      -6.7      2.041      6.492
  Name = 
  17 active torsions:
  status: ('A' for Active; 'I' for Inactive)
    1  A    between atoms: C_2  and  C_6
    2  A    between atoms: N_3  and  C_29
    3  A    between atoms: C_4  and  C_40
    4  A    between atoms: C_5  and  C_6
    5  A    between atoms: C_5  and  N_11
    6  A    between atoms: C_10  and  C_39
    7  A    between atoms: N_11  and  C_12
    8  A    between atoms: N_13  and  C_20
    9  A    between atoms: C_19  and  C_26
   10  A    between atoms: C_20  and  C_38
   11  A    between atoms: C_22  and  N_37
   12  A    between atoms: C_26  and  C_31
   13  A    between atoms: O_27  and  C_36
   14  A    between atoms: O_27  and  C_38
   15  A    between atoms: O_28  and  C_39
   16  A    between atoms: C_29  and  C_40
   17  A    between atoms: C_31  and  C_43
                            x       y       z     vdW  Elec       q    Type
                         _______ _______ _______ _____ _____    ______ ____

>  <TORSDO>
F 17

$$$$
=
 OpenBabel11052411253D

 43 47  0  0  1  0  0  0  0  0999 V2000
  161.5680  205.9990  152.4430 N   0  0  0  0  0  0  0  0  0  0  0  0
  161.1580  207.1060  151.8940 C   0  0  0  0  0  0  0  0  0  0  0  0
  160.4890  209.3530  152.2150 O   0  0  0  0  0  0  0  0  0  0  0  0
  160.9610  208.1910  154.1830 N   0  0  0  0  0  0  0  0  0  0  0  0
  160.8440  208.2680  152.7490 C   0  0  0  0  0  0  0  0  0  0  0  0
  160.3380  207.1600  154.9640 C   0  0  0  0  0  3  0  0  0  0  0  0
  160.0500  207.3130  156.2530 C   0  0  0  0  0  2  0  0  0  0  0  0
  161.6540  209.2460  154.9050 C   0  0  0  0  0  2  0  0  0  0  0  0
  161.4730  210.5790  154.1970 C   0  0  0  0  0  2  0  0  0  0  0  0
  160.5300  211.4470  154.9610 C   0  0  0  0  0  0  0  0  0  0  0  0
  159.7330  212.4440  154.4090 C   0  0  0  0  0  0  0  0  0  0  0  0
  155.4880  212.0790  156.5650 C   0  0  0  0  0  1  0  0  0  0  0  0
  157.9510  211.7920  157.2590 C   0  0  0  0  0  2  0  0  0  0  0  0
  157.5130  212.9530  155.2760 C   0  0  0  0  0  0  0  0  0  0  0  0
  156.8950  212.4280  156.4510 N   0  0  0  0  0  0  0  0  0  0  0  0
  158.9130  212.7830  155.4430 C   0  0  0  0  0  0  0  0  0  0  0  0
  158.8550  214.0670  152.7460 C   0  0  0  0  0  2  0  0  0  0  0  0
  159.1870  212.0730  156.5260 N   0  0  0  0  0  0  0  0  0  0  0  0
  157.8150  212.9590  152.7770 C   0  0  0  0  0  0  0  0  0  0  0  0
  156.9680  212.9640  154.0520 C   0  0  0  0  0  3  0  0  0  0  0  0
  159.3260  212.6320  152.9640 C   0  0  0  0  0  0  0  0  0  0  0  0
  160.1450  211.2030  156.2410 N   0  0  0  0  0  0  0  0  0  0  0  0
  161.0330  207.2340  150.4020 C   0  0  0  0  0  2  0  0  0  0  0  0
  162.6880  208.2500  148.9120 N   0  0  0  0  0  0  0  0  0  0  0  0
  162.3890  207.3350  149.7670 C   0  0  0  0  0  3  0  0  0  0  0  0
  161.7480  209.2590  148.4860 C   0  0  0  0  0  2  0  0  0  0  0  0
  162.3140  210.7300  150.2670 O   0  0  0  0  0  0  0  0  0  0  0  0
  162.1560  210.5850  149.0240 C   0  0  0  0  0  0  0  0  0  0  0  0
  162.3380  211.6550  148.1480 O   0  0  0  0  0  0  0  0  0  0  0  0
  161.6700  213.9510  147.9700 C   0  0  0  0  0  2  0  0  0  0  0  0
  160.7780  213.2670  148.9850 C   0  0  0  0  0  2  0  0  0  0  0  0
  161.2630  212.5060  147.7680 C   0  0  0  0  0  3  0  0  0  0  0  0
  161.9220  204.7910  151.7060 C   0  0  0  0  0  2  0  0  0  0  0  0
  160.6690  204.0300  151.3070 C   0  0  0  0  0  2  0  0  0  0  0  0
  161.0250  202.9340  150.3560 C   0  0  0  0  0  0  0  0  0  0  0  0
  161.2070  203.1970  148.9640 N   0  0  0  0  0  2  0  0  0  0  0  0
  161.1900  201.7650  150.7920 O   0  0  0  0  0  0  0  0  0  0  0  0
  161.3310  204.7750  147.1440 C   0  0  0  0  0  3  0  0  0  0  0  0
  160.9420  204.4740  148.3820 C   0  0  0  0  0  3  0  0  0  0  0  0
  161.1150  202.8720  145.6110 C   0  0  0  0  0  1  0  0  0  0  0  0
  162.0910  203.8220  146.2790 C   0  0  1  0  0  3  0  0  0  0  0  0
  162.7840  204.5350  145.2970 O   0  0  0  0  0  0  0  0  0  0  0  0
  162.3120  205.7630  145.3750 O   0  0  0  0  0  1  0  0  0  0  0  0
  2  1  2  0  0  0  0
  2  5  1  0  0  0  0
  3  5  2  0  0  0  0
  4  8  1  0  0  0  0
  4  6  1  0  0  0  0
  5  4  1  0  0  0  0
  6  7  2  0  0  0  0
  9  8  1  0  0  0  0
  9 10  1  0  0  0  0
 10 22  2  0  0  0  0
 11 10  1  0  0  0  0
 11 16  1  0  0  0  0
 14 16  2  0  0  0  0
 14 15  1  0  0  0  0
 15 12  1  0  0  0  0
 15 13  1  0  0  0  0
 16 18  1  0  0  0  0
 17 19  1  0  0  0  0
 17 21  1  0  0  0  0
 18 13  1  0  0  0  0
 19 21  1  0  0  0  0
 19 20  2  3  0  0  0
 20 14  1  0  0  0  0
 21 11  2  3  0  0  0
 22 18  1  0  0  0  0
 23  2  1  0  0  0  0
 24 25  2  0  0  0  0
 25 23  1  0  0  0  0
 26 24  1  0  0  0  0
 26 28  1  0  0  0  0
 28 27  2  0  0  0  0
 29 28  1  0  0  0  0
 30 31  1  0  0  0  0
 32 30  1  0  0  0  0
 32 29  1  0  0  0  0
 32 31  1  0  0  0  0
 33  1  1  0  0  0  0
 34 33  1  0  0  0  0
 35 37  2  0  0  0  0
 35 34  1  0  0  0  0
 36 35  1  0  0  0  0
 38 39  2  0  0  0  0
 39 36  1  0  0  0  0
 41 40  1  6  0  0  0
 41 38  1  0  0  0  0
 42 43  1  0  0  0  0
 42 41  1  0  0  0  0
M  END
>  <MODEL>
4

>  <REMARK>
 VINA RESULT:      -6.7      2.643      9.601
  Name = 
  17 active torsions:
  status: ('A' for Active; 'I' for Inactive)
    1  A    between atoms: C_2  and  C_6
    2  A    between atoms: N_3  and  C_29
    3  A    between atoms: C_4  and  C_40
    4  A    between atoms: C_5  and  C_6
    5  A    between atoms: C_5  and  N_11
    6  A    between atoms: C_10  and  C_39
    7  A    between atoms: N_11  and  C_12
    8  A    between atoms: N_13  and  C_20
    9  A    between atoms: C_19  and  C_26
   10  A    between atoms: C_20  and  C_38
   11  A    between atoms: C_22  and  N_37
   12  A    between atoms: C_26  and  C_31
   13  A    between atoms: O_27  and  C_36
   14  A    between atoms: O_27  and  C_38
   15  A    between atoms: O_28  and  C_39
   16  A    between atoms: C_29  and  C_40
   17  A    between atoms: C_31  and  C_43
                            x       y       z     vdW  Elec       q    Type
                         _______ _______ _______ _____ _____    ______ ____

>  <TORSDO>
F 17

$$$$
=
 OpenBabel11052411253D

 43 47  0  0  1  0  0  0  0  0999 V2000
  161.4000  207.9310  153.0360 N   0  0  0  0  0  0  0  0  0  0  0  0
  161.8330  207.7200  151.8260 C   0  0  0  0  0  0  0  0  0  0  0  0
  162.3960  209.9920  151.4720 O   0  0  0  0  0  0  0  0  0  0  0  0
  162.1170  208.7450  149.5180 N   0  0  0  0  0  0  0  0  0  0  0  0
  162.1360  208.8720  150.9530 C   0  0  0  0  0  0  0  0  0  0  0  0
  162.8460  207.7290  148.8130 C   0  0  0  0  0  3  0  0  0  0  0  0
  162.3430  207.0840  147.7650 C   0  0  0  0  0  2  0  0  0  0  0  0
  161.4140  209.7370  148.7190 C   0  0  0  0  0  2  0  0  0  0  0  0
  162.2640  210.9870  148.5610 C   0  0  0  0  0  2  0  0  0  0  0  0
  161.4100  212.2070  148.6490 C   0  0  0  0  0  0  0  0  0  0  0  0
  160.7590  212.8090  147.5770 C   0  0  0  0  0  0  0  0  0  0  0  0
  156.4340  214.0370  149.1870 C   0  0  0  0  0  1  0  0  0  0  0  0
  158.8200  213.9630  150.1530 C   0  0  0  0  0  2  0  0  0  0  0  0
  158.5920  213.8950  147.8260 C   0  0  0  0  0  0  0  0  0  0  0  0
  157.8760  214.1460  149.0360 N   0  0  0  0  0  0  0  0  0  0  0  0
  159.9540  213.7240  148.1870 C   0  0  0  0  0  0  0  0  0  0  0  0
  160.1400  213.3380  145.2300 C   0  0  0  0  0  2  0  0  0  0  0  0
  160.1040  213.6950  149.5030 N   0  0  0  0  0  0  0  0  0  0  0  0
  158.9720  212.5180  145.7530 C   0  0  0  0  0  0  0  0  0  0  0  0
  158.0910  213.2860  146.7420 C   0  0  0  0  0  3  0  0  0  0  0  0
  160.4250  212.2170  146.2270 C   0  0  0  0  0  0  0  0  0  0  0  0
  160.9570  212.7310  149.8180 N   0  0  0  0  0  0  0  0  0  0  0  0
  162.0650  206.3270  151.3150 C   0  0  0  0  0  2  0  0  0  0  0  0
  160.3090  204.6480  151.0150 N   0  0  0  0  0  0  0  0  0  0  0  0
  160.8170  205.7840  150.6830 C   0  0  0  0  0  3  0  0  0  0  0  0
  160.8930  203.7950  152.0220 C   0  0  0  0  0  2  0  0  0  0  0  0
  162.3110  201.8920  151.8610 O   0  0  0  0  0  0  0  0  0  0  0  0
  161.3030  202.5030  151.4100 C   0  0  0  0  0  0  0  0  0  0  0  0
  160.5810  201.9950  150.3290 O   0  0  0  0  0  0  0  0  0  0  0  0
  161.2910  202.7330  148.1620 C   0  0  0  0  0  2  0  0  0  0  0  0
  160.2340  201.6630  147.9840 C   0  0  0  0  0  2  0  0  0  0  0  0
  161.2200  201.5710  149.1310 C   0  0  0  0  0  3  0  0  0  0  0  0
  161.0820  206.8810  153.9960 C   0  0  0  0  0  2  0  0  0  0  0  0
  160.1430  207.4110  155.0670 C   0  0  0  0  0  2  0  0  0  0  0  0
  160.8590  208.4100  155.9170 C   0  0  0  0  0  0  0  0  0  0  0  0
  160.2330  209.6360  156.2980 N   0  0  0  0  0  2  0  0  0  0  0  0
  162.0230  208.1570  156.3240 O   0  0  0  0  0  0  0  0  0  0  0  0
  158.8050  211.1330  155.0580 C   0  0  0  0  0  3  0  0  0  0  0  0
  158.9560  210.0350  155.7960 C   0  0  0  0  0  3  0  0  0  0  0  0
  160.1000  212.0930  153.2100 C   0  0  0  0  0  1  0  0  0  0  0  0
  159.9390  212.0440  154.7170 C   0  0  1  0  0  3  0  0  0  0  0  0
  159.6650  213.3290  155.1930 O   0  0  0  0  0  0  0  0  0  0  0  0
  158.3830  213.5120  154.9480 O   0  0  0  0  0  1  0  0  0  0  0  0
  1 33  1  0  0  0  0
  2  1  2  0  0  0  0
  4  5  1  0  0  0  0
  5  3  2  0  0  0  0
  5  2  1  0  0  0  0
  6  4  1  0  0  0  0
  7  6  2  0  0  0  0
  8  4  1  0  0  0  0
  9 10  1  0  0  0  0
  9  8  1  0  0  0  0
 10 22  2  0  0  0  0
 11 16  1  0  0  0  0
 11 10  1  0  0  0  0
 14 16  2  0  0  0  0
 14 15  1  0  0  0  0
 15 12  1  0  0  0  0
 15 13  1  0  0  0  0
 16 18  1  0  0  0  0
 17 19  1  0  0  0  0
 17 21  1  0  0  0  0
 18 22  1  0  0  0  0
 18 13  1  0  0  0  0
 19 21  1  0  0  0  0
 19 20  2  3  0  0  0
 20 14  1  0  0  0  0
 21 11  2  3  0  0  0
 23  2  1  0  0  0  0
 24 26  1  0  0  0  0
 25 24  2  0  0  0  0
 25 23  1  0  0  0  0
 28 27  2  0  0  0  0
 28 26  1  0  0  0  0
 29 28  1  0  0  0  0
 30 32  1  0  0  0  0
 31 30  1  0  0  0  0
 31 32  1  0  0  0  0
 32 29  1  0  0  0  0
 33 34  1  0  0  0  0
 34 35  1  0  0  0  0
 35 36  1  0  0  0  0
 35 37  2  0  0  0  0
 38 39  2  0  0  0  0
 39 36  1  0  0  0  0
 41 40  1  6  0  0  0
 41 38  1  0  0  0  0
 41 42  1  0  0  0  0
 43 42  1  0  0  0  0
M  END
>  <MODEL>
5

>  <REMARK>
 VINA RESULT:      -6.5      2.608      8.291
  Name = 
  17 active torsions:
  status: ('A' for Active; 'I' for Inactive)
    1  A    between atoms: C_2  and  C_6
    2  A    between atoms: N_3  and  C_29
    3  A    between atoms: C_4  and  C_40
    4  A    between atoms: C_5  and  C_6
    5  A    between atoms: C_5  and  N_11
    6  A    between atoms: C_10  and  C_39
    7  A    between atoms: N_11  and  C_12
    8  A    between atoms: N_13  and  C_20
    9  A    between atoms: C_19  and  C_26
   10  A    between atoms: C_20  and  C_38
   11  A    between atoms: C_22  and  N_37
   12  A    between atoms: C_26  and  C_31
   13  A    between atoms: O_27  and  C_36
   14  A    between atoms: O_27  and  C_38
   15  A    between atoms: O_28  and  C_39
   16  A    between atoms: C_29  and  C_40
   17  A    between atoms: C_31  and  C_43
                            x       y       z     vdW  Elec       q    Type
                         _______ _______ _______ _____ _____    ______ ____

>  <TORSDO>
F 17

$$$$
=
 OpenBabel11052411253D

 43 47  0  0  1  0  0  0  0  0999 V2000
  161.7560  207.2490  151.4700 N   0  0  0  0  0  0  0  0  0  0  0  0
  161.5440  208.4730  151.8590 C   0  0  0  0  0  0  0  0  0  0  0  0
  163.2970  210.0630  151.8870 O   0  0  0  0  0  0  0  0  0  0  0  0
  161.9750  210.1100  149.9640 N   0  0  0  0  0  0  0  0  0  0  0  0
  162.3230  209.5720  151.2540 C   0  0  0  0  0  0  0  0  0  0  0  0
  161.7950  209.2920  148.7980 C   0  0  0  0  0  3  0  0  0  0  0  0
  162.4880  208.1760  148.5920 C   0  0  0  0  0  2  0  0  0  0  0  0
  161.8920  211.5510  149.7850 C   0  0  0  0  0  2  0  0  0  0  0  0
  162.0660  211.9130  148.3200 C   0  0  0  0  0  2  0  0  0  0  0  0
  161.1220  213.0030  147.9400 C   0  0  0  0  0  0  0  0  0  0  0  0
  160.9880  213.5400  146.6630 C   0  0  0  0  0  0  0  0  0  0  0  0
  156.3010  214.1260  145.9680 C   0  0  0  0  0  1  0  0  0  0  0  0
  157.9230  214.3520  147.9550 C   0  0  0  0  0  2  0  0  0  0  0  0
  158.8430  214.3140  145.8050 C   0  0  0  0  0  0  0  0  0  0  0  0
  157.6110  214.4350  146.5170 N   0  0  0  0  0  0  0  0  0  0  0  0
  159.8770  214.3200  146.7780 C   0  0  0  0  0  0  0  0  0  0  0  0
  161.5000  214.0420  144.2850 C   0  0  0  0  0  2  0  0  0  0  0  0
  159.3840  214.2770  148.0060 N   0  0  0  0  0  0  0  0  0  0  0  0
  160.3440  213.0570  144.2220 C   0  0  0  0  0  0  0  0  0  0  0  0
  159.0050  213.6730  144.6400 C   0  0  0  0  0  3  0  0  0  0  0  0
  161.4200  212.9440  145.3430 C   0  0  0  0  0  0  0  0  0  0  0  0
  160.1010  213.4300  148.7300 N   0  0  0  0  0  0  0  0  0  0  0  0
  160.4950  208.7910  152.8870 C   0  0  0  0  0  2  0  0  0  0  0  0
  161.4230  209.3300  155.0870 N   0  0  0  0  0  0  0  0  0  0  0  0
  160.9840  208.4440  154.2620 C   0  0  0  0  0  3  0  0  0  0  0  0
  161.4860  210.7350  154.7640 C   0  0  0  0  0  2  0  0  0  0  0  0
  159.4870  210.8490  156.0480 O   0  0  0  0  0  0  0  0  0  0  0  0
  160.2290  211.4070  155.1950 C   0  0  0  0  0  0  0  0  0  0  0  0
  159.8780  212.6340  154.6310 O   0  0  0  0  0  0  0  0  0  0  0  0
  157.7740  213.0330  153.5540 C   0  0  0  0  0  2  0  0  0  0  0  0
  158.2160  211.6180  153.2400 C   0  0  0  0  0  2  0  0  0  0  0  0
  159.2440  212.7240  153.3610 C   0  0  0  0  0  3  0  0  0  0  0  0
  161.0430  206.0830  151.9780 C   0  0  0  0  0  2  0  0  0  0  0  0
  161.8570  204.8220  151.7420 C   0  0  0  0  0  2  0  0  0  0  0  0
  160.9420  203.6760  151.4580 C   0  0  0  0  0  0  0  0  0  0  0  0
  160.7370  203.2110  150.1230 N   0  0  0  0  0  2  0  0  0  0  0  0
  160.3610  203.0950  152.4110 O   0  0  0  0  0  0  0  0  0  0  0  0
  161.3490  203.2910  147.7910 C   0  0  0  0  0  3  0  0  0  0  0  0
  161.2830  203.8790  148.9840 C   0  0  0  0  0  3  0  0  0  0  0  0
  160.6190  201.7040  146.0680 C   0  0  0  0  0  1  0  0  0  0  0  0
  160.8860  201.8900  147.5500 C   0  0  1  0  0  3  0  0  0  0  0  0
  161.8790  200.9940  147.9550 O   0  0  0  0  0  0  0  0  0  0  0  0
  161.5800  199.8640  147.3480 O   0  0  0  0  0  1  0  0  0  0  0  0
  1  2  2  0  0  0  0
  1 33  1  0  0  0  0
  2 23  1  0  0  0  0
  4  5  1  0  0  0  0
  5  2  1  0  0  0  0
  5  3  2  0  0  0  0
  6  4  1  0  0  0  0
  7  6  2  0  0  0  0
  8  4  1  0  0  0  0
  9  8  1  0  0  0  0
 10  9  1  0  0  0  0
 10 22  2  0  0  0  0
 11 16  1  0  0  0  0
 11 10  1  0  0  0  0
 12 15  1  0  0  0  0
 13 18  1  0  0  0  0
 14 15  1  0  0  0  0
 14 16  2  0  0  0  0
 15 13  1  0  0  0  0
 16 18  1  0  0  0  0
 17 21  1  0  0  0  0
 18 22  1  0  0  0  0
 19 17  1  0  0  0  0
 19 20  2  3  0  0  0
 19 21  1  0  0  0  0
 20 14  1  0  0  0  0
 21 11  2  3  0  0  0
 23 25  1  0  0  0  0
 25 24  2  0  0  0  0
 26 24  1  0  0  0  0
 26 28  1  0  0  0  0
 28 27  2  0  0  0  0
 29 28  1  0  0  0  0
 31 32  1  0  0  0  0
 31 30  1  0  0  0  0
 32 30  1  0  0  0  0
 32 29  1  0  0  0  0
 34 33  1  0  0  0  0
 35 34  1  0  0  0  0
 35 37  2  0  0  0  0
 36 35  1  0  0  0  0
 38 39  2  0  0  0  0
 39 36  1  0  0  0  0
 41 40  1  6  0  0  0
 41 38  1  0  0  0  0
 41 42  1  0  0  0  0
 43 42  1  0  0  0  0
M  END
>  <MODEL>
6

>  <REMARK>
 VINA RESULT:      -6.4      2.796      9.654
  Name = 
  17 active torsions:
  status: ('A' for Active; 'I' for Inactive)
    1  A    between atoms: C_2  and  C_6
    2  A    between atoms: N_3  and  C_29
    3  A    between atoms: C_4  and  C_40
    4  A    between atoms: C_5  and  C_6
    5  A    between atoms: C_5  and  N_11
    6  A    between atoms: C_10  and  C_39
    7  A    between atoms: N_11  and  C_12
    8  A    between atoms: N_13  and  C_20
    9  A    between atoms: C_19  and  C_26
   10  A    between atoms: C_20  and  C_38
   11  A    between atoms: C_22  and  N_37
   12  A    between atoms: C_26  and  C_31
   13  A    between atoms: O_27  and  C_36
   14  A    between atoms: O_27  and  C_38
   15  A    between atoms: O_28  and  C_39
   16  A    between atoms: C_29  and  C_40
   17  A    between atoms: C_31  and  C_43
                            x       y       z     vdW  Elec       q    Type
                         _______ _______ _______ _____ _____    ______ ____

>  <TORSDO>
F 17

$$$$
=
 OpenBabel11052411253D

 43 47  0  0  1  0  0  0  0  0999 V2000
  160.4520  210.6450  151.6780 N   0  0  0  0  0  0  0  0  0  0  0  0
  160.8770  209.5290  152.1980 C   0  0  0  0  0  0  0  0  0  0  0  0
  161.9120  208.7040  150.2360 O   0  0  0  0  0  0  0  0  0  0  0  0
  161.0260  207.0560  151.6320 N   0  0  0  0  0  0  0  0  0  0  0  0
  161.3070  208.4320  151.3090 C   0  0  0  0  0  0  0  0  0  0  0  0
  161.3600  206.4660  152.8970 C   0  0  0  0  0  3  0  0  0  0  0  0
  161.2020  205.1700  153.1470 C   0  0  0  0  0  2  0  0  0  0  0  0
  160.4670  206.1790  150.6150 C   0  0  0  0  0  2  0  0  0  0  0  0
  160.8360  206.6760  149.2270 C   0  0  0  0  0  2  0  0  0  0  0  0
  161.3620  205.5520  148.3980 C   0  0  0  0  0  0  0  0  0  0  0  0
  161.4380  204.2240  148.8040 C   0  0  0  0  0  0  0  0  0  0  0  0
  160.0770  201.6190  145.0410 C   0  0  0  0  0  1  0  0  0  0  0  0
  161.4130  203.7900  145.4080 C   0  0  0  0  0  2  0  0  0  0  0  0
  161.1170  202.3770  147.2480 C   0  0  0  0  0  0  0  0  0  0  0  0
  160.9760  202.4460  145.8290 N   0  0  0  0  0  0  0  0  0  0  0  0
  161.7640  203.5740  147.6520 C   0  0  0  0  0  0  0  0  0  0  0  0
  161.4120  202.2440  150.3050 C   0  0  0  0  0  2  0  0  0  0  0  0
  161.8870  204.4200  146.6410 N   0  0  0  0  0  0  0  0  0  0  0  0
  160.1010  202.1570  149.5410 C   0  0  0  0  0  0  0  0  0  0  0  0
  160.2810  201.7380  148.0790 C   0  0  0  0  0  3  0  0  0  0  0  0
  160.6980  203.5410  149.9320 C   0  0  0  0  0  0  0  0  0  0  0  0
  161.5920  205.6410  147.0620 N   0  0  0  0  0  0  0  0  0  0  0  0
  160.9720  209.3520  153.6870 C   0  0  0  0  0  2  0  0  0  0  0  0
  161.9410  210.6900  155.4930 N   0  0  0  0  0  0  0  0  0  0  0  0
  161.9810  210.3000  154.2660 C   0  0  0  0  0  3  0  0  0  0  0  0
  160.9250  210.2520  156.4200 C   0  0  0  0  0  2  0  0  0  0  0  0
  160.0650  212.3600  157.1100 O   0  0  0  0  0  0  0  0  0  0  0  0
  159.8480  211.2750  156.5040 C   0  0  0  0  0  0  0  0  0  0  0  0
  158.6040  211.0110  155.9300 O   0  0  0  0  0  0  0  0  0  0  0  0
  156.2760  211.5610  156.0970 C   0  0  0  0  0  2  0  0  0  0  0  0
  156.6710  211.5760  154.6350 C   0  0  0  0  0  2  0  0  0  0  0  0
  157.6530  212.0420  155.6900 C   0  0  0  0  0  3  0  0  0  0  0  0
  160.0160  211.8030  152.4490 C   0  0  0  0  0  2  0  0  0  0  0  0
  158.7460  212.3870  151.8520 C   0  0  0  0  0  2  0  0  0  0  0  0
  159.0550  213.6810  151.1720 C   0  0  0  0  0  0  0  0  0  0  0  0
  158.2540  214.1530  150.0880 N   0  0  0  0  0  2  0  0  0  0  0  0
  160.0210  214.3780  151.5770 O   0  0  0  0  0  0  0  0  0  0  0  0
  157.1710  213.0950  148.2100 C   0  0  0  0  0  3  0  0  0  0  0  0
  157.2040  213.3730  149.5120 C   0  0  0  0  0  3  0  0  0  0  0  0
  159.4000  212.6610  147.2830 C   0  0  0  0  0  1  0  0  0  0  0  0
  158.2010  213.5910  147.2480 C   0  0  1  0  0  3  0  0  0  0  0  0
  157.6670  213.6040  145.9570 O   0  0  0  0  0  0  0  0  0  0  0  0
  156.3870  213.8690  146.1250 O   0  0  0  0  0  1  0  0  0  0  0  0
  1  2  2  0  0  0  0
  1 33  1  0  0  0  0
  2 23  1  0  0  0  0
  3  5  2  0  0  0  0
  4  6  1  0  0  0  0
  5  4  1  0  0  0  0
  5  2  1  0  0  0  0
  6  7  2  0  0  0  0
  8  4  1  0  0  0  0
  9  8  1  0  0  0  0
 10 11  1  0  0  0  0
 10  9  1  0  0  0  0
 11 21  1  0  0  0  0
 12 15  1  0  0  0  0
 13 15  1  0  0  0  0
 13 18  1  0  0  0  0
 14 16  1  0  0  0  0
 14 20  2  0  0  0  0
 15 14  1  0  0  0  0
 16 11  2  0  0  0  0
 18 22  1  0  0  0  0
 18 16  1  0  0  0  0
 19 21  2  0  0  0  0
 19 17  1  0  0  0  0
 20 19  1  0  0  0  0
 21 17  1  0  0  0  0
 22 10  2  0  0  0  0
 23 25  1  0  0  0  0
 24 26  1  0  0  0  0
 25 24  2  0  0  0  0
 26 28  1  0  0  0  0
 28 27  2  0  0  0  0
 29 28  1  0  0  0  0
 31 32  1  0  0  0  0
 31 30  1  0  0  0  0
 32 29  1  0  0  0  0
 32 30  1  0  0  0  0
 34 33  1  0  0  0  0
 35 37  2  0  0  0  0
 35 34  1  0  0  0  0
 36 35  1  0  0  0  0
 38 39  2  0  0  0  0
 39 36  1  0  0  0  0
 41 40  1  6  0  0  0
 41 38  1  0  0  0  0
 42 43  1  0  0  0  0
 42 41  1  0  0  0  0
M  END
>  <MODEL>
7

>  <REMARK>
 VINA RESULT:      -6.4      1.971      5.600
  Name = 
  17 active torsions:
  status: ('A' for Active; 'I' for Inactive)
    1  A    between atoms: C_2  and  C_6
    2  A    between atoms: N_3  and  C_29
    3  A    between atoms: C_4  and  C_40
    4  A    between atoms: C_5  and  C_6
    5  A    between atoms: C_5  and  N_11
    6  A    between atoms: C_10  and  C_39
    7  A    between atoms: N_11  and  C_12
    8  A    between atoms: N_13  and  C_20
    9  A    between atoms: C_19  and  C_26
   10  A    between atoms: C_20  and  C_38
   11  A    between atoms: C_22  and  N_37
   12  A    between atoms: C_26  and  C_31
   13  A    between atoms: O_27  and  C_36
   14  A    between atoms: O_27  and  C_38
   15  A    between atoms: O_28  and  C_39
   16  A    between atoms: C_29  and  C_40
   17  A    between atoms: C_31  and  C_43
                            x       y       z     vdW  Elec       q    Type
                         _______ _______ _______ _____ _____    ______ ____

>  <TORSDO>
F 17

$$$$
=
 OpenBabel11052411253D

 43 47  0  0  1  0  0  0  0  0999 V2000
  161.3200  205.0360  150.5710 N   0  0  0  0  0  0  0  0  0  0  0  0
  161.3880  206.0230  151.4190 C   0  0  0  0  0  0  0  0  0  0  0  0
  163.4510  207.1550  151.6710 O   0  0  0  0  0  0  0  0  0  0  0  0
  161.9000  208.2550  150.3170 N   0  0  0  0  0  0  0  0  0  0  0  0
  162.3030  207.1500  151.1480 C   0  0  0  0  0  0  0  0  0  0  0  0
  161.3550  208.0850  148.9990 C   0  0  0  0  0  3  0  0  0  0  0  0
  162.0700  207.6070  147.9850 C   0  0  0  0  0  2  0  0  0  0  0  0
  162.1340  209.6170  150.7690 C   0  0  0  0  0  2  0  0  0  0  0  0
  162.3770  210.5350  149.5820 C   0  0  0  0  0  2  0  0  0  0  0  0
  161.5340  211.7610  149.6950 C   0  0  0  0  0  0  0  0  0  0  0  0
  161.1560  212.5740  148.6320 C   0  0  0  0  0  0  0  0  0  0  0  0
  156.5840  213.7100  149.4110 C   0  0  0  0  0  1  0  0  0  0  0  0
  158.6790  213.3500  150.8650 C   0  0  0  0  0  2  0  0  0  0  0  0
  158.9980  213.7040  148.5750 C   0  0  0  0  0  0  0  0  0  0  0  0
  158.0220  213.7740  149.6150 N   0  0  0  0  0  0  0  0  0  0  0  0
  160.2370  213.4050  149.1990 C   0  0  0  0  0  0  0  0  0  0  0  0
  161.1040  213.5370  146.3430 C   0  0  0  0  0  2  0  0  0  0  0  0
  160.0760  213.1370  150.4860 N   0  0  0  0  0  0  0  0  0  0  0  0
  159.8410  212.6970  146.4270 C   0  0  0  0  0  0  0  0  0  0  0  0
  158.7590  213.3210  147.3130 C   0  0  0  0  0  3  0  0  0  0  0  0
  161.1410  212.2460  147.1560 C   0  0  0  0  0  0  0  0  0  0  0  0
  160.8260  212.0920  150.8060 N   0  0  0  0  0  0  0  0  0  0  0  0
  160.5250  206.0530  152.6480 C   0  0  0  0  0  2  0  0  0  0  0  0
  161.4950  207.1930  154.5840 N   0  0  0  0  0  0  0  0  0  0  0  0
  161.3720  206.1190  153.8840 C   0  0  0  0  0  3  0  0  0  0  0  0
  160.8320  208.4290  154.2420 C   0  0  0  0  0  2  0  0  0  0  0  0
  161.9370  209.3080  156.1570 O   0  0  0  0  0  0  0  0  0  0  0  0
  161.4140  209.5470  155.0340 C   0  0  0  0  0  0  0  0  0  0  0  0
  161.3550  210.8480  154.5320 O   0  0  0  0  0  0  0  0  0  0  0  0
  159.1800  211.1170  155.5060 C   0  0  0  0  0  2  0  0  0  0  0  0
  159.2090  211.8490  154.1800 C   0  0  0  0  0  2  0  0  0  0  0  0
  160.4470  211.8120  155.0520 C   0  0  0  0  0  3  0  0  0  0  0  0
  160.4470  203.8780  150.7180 C   0  0  0  0  0  2  0  0  0  0  0  0
  161.1370  202.6280  150.1970 C   0  0  0  0  0  2  0  0  0  0  0  0
  160.4550  202.1570  148.9540 C   0  0  0  0  0  0  0  0  0  0  0  0
  160.9150  202.5620  147.6630 N   0  0  0  0  0  2  0  0  0  0  0  0
  159.4760  201.3710  149.0430 O   0  0  0  0  0  0  0  0  0  0  0  0
  161.8400  204.5300  146.6200 C   0  0  0  0  0  3  0  0  0  0  0  0
  161.9550  203.5250  147.4860 C   0  0  0  0  0  3  0  0  0  0  0  0
  160.3900  206.2030  145.5640 C   0  0  0  0  0  1  0  0  0  0  0  0
  160.6380  204.7190  145.7510 C   0  0  1  0  0  3  0  0  0  0  0  0
  160.8640  204.1290  144.5050 O   0  0  0  0  0  0  0  0  0  0  0  0
  161.2890  205.1130  143.7390 O   0  0  0  0  0  1  0  0  0  0  0  0
  1 33  1  0  0  0  0
  1  2  2  0  0  0  0
  2 23  1  0  0  0  0
  4  8  1  0  0  0  0
  4  5  1  0  0  0  0
  5  2  1  0  0  0  0
  5  3  2  0  0  0  0
  6  4  1  0  0  0  0
  7  6  2  0  0  0  0
  9 10  1  0  0  0  0
  9  8  1  0  0  0  0
 10 22  2  0  0  0  0
 11 16  1  0  0  0  0
 11 10  1  0  0  0  0
 12 15  1  0  0  0  0
 14 16  2  0  0  0  0
 14 15  1  0  0  0  0
 15 13  1  0  0  0  0
 16 18  1  0  0  0  0
 17 19  1  0  0  0  0
 17 21  1  0  0  0  0
 18 22  1  0  0  0  0
 18 13  1  0  0  0  0
 19 21  1  0  0  0  0
 19 20  2  3  0  0  0
 20 14  1  0  0  0  0
 21 11  2  3  0  0  0
 23 25  1  0  0  0  0
 25 24  2  0  0  0  0
 26 24  1  0  0  0  0
 26 28  1  0  0  0  0
 28 27  2  0  0  0  0
 29 28  1  0  0  0  0
 29 32  1  0  0  0  0
 31 32  1  0  0  0  0
 31 30  1  0  0  0  0
 32 30  1  0  0  0  0
 34 33  1  0  0  0  0
 35 37  2  0  0  0  0
 35 34  1  0  0  0  0
 36 35  1  0  0  0  0
 38 39  2  0  0  0  0
 39 36  1  0  0  0  0
 41 40  1  6  0  0  0
 41 38  1  0  0  0  0
 42 41  1  0  0  0  0
 43 42  1  0  0  0  0
M  END
>  <MODEL>
8

>  <REMARK>
 VINA RESULT:      -6.1      2.934      9.738
  Name = 
  17 active torsions:
  status: ('A' for Active; 'I' for Inactive)
    1  A    between atoms: C_2  and  C_6
    2  A    between atoms: N_3  and  C_29
    3  A    between atoms: C_4  and  C_40
    4  A    between atoms: C_5  and  C_6
    5  A    between atoms: C_5  and  N_11
    6  A    between atoms: C_10  and  C_39
    7  A    between atoms: N_11  and  C_12
    8  A    between atoms: N_13  and  C_20
    9  A    between atoms: C_19  and  C_26
   10  A    between atoms: C_20  and  C_38
   11  A    between atoms: C_22  and  N_37
   12  A    between atoms: C_26  and  C_31
   13  A    between atoms: O_27  and  C_36
   14  A    between atoms: O_27  and  C_38
   15  A    between atoms: O_28  and  C_39
   16  A    between atoms: C_29  and  C_40
   17  A    between atoms: C_31  and  C_43
                            x       y       z     vdW  Elec       q    Type
                         _______ _______ _______ _____ _____    ______ ____

>  <TORSDO>
F 17

$$$$
=
 OpenBabel11052411253D

 43 47  0  0  1  0  0  0  0  0999 V2000
  161.7980  210.1730  150.3830 N   0  0  0  0  0  0  0  0  0  0  0  0
  161.5270  208.9710  150.8020 C   0  0  0  0  0  0  0  0  0  0  0  0
  159.6650  209.2630  152.2340 O   0  0  0  0  0  0  0  0  0  0  0  0
  161.4550  208.1110  153.1920 N   0  0  0  0  0  0  0  0  0  0  0  0
  160.8260  208.7920  152.0900 C   0  0  0  0  0  0  0  0  0  0  0  0
  162.0440  206.8070  153.0730 C   0  0  0  0  0  3  0  0  0  0  0  0
  161.3260  205.7170  152.8240 C   0  0  0  0  0  2  0  0  0  0  0  0
  161.4190  208.7060  154.5200 C   0  0  0  0  0  2  0  0  0  0  0  0
  161.8700  210.1560  154.4610 C   0  0  0  0  0  2  0  0  0  0  0  0
  160.8750  211.0360  155.1400 C   0  0  0  0  0  0  0  0  0  0  0  0
  160.1090  212.0120  154.5120 C   0  0  0  0  0  0  0  0  0  0  0  0
  155.7380  211.6690  156.4040 C   0  0  0  0  0  1  0  0  0  0  0  0
  158.1540  211.4210  157.2600 C   0  0  0  0  0  2  0  0  0  0  0  0
  157.8350  212.5250  155.2230 C   0  0  0  0  0  0  0  0  0  0  0  0
  157.1470  212.0270  156.3700 N   0  0  0  0  0  0  0  0  0  0  0  0
  159.2230  212.3720  155.4830 C   0  0  0  0  0  0  0  0  0  0  0  0
  159.3280  213.5840  152.7540 C   0  0  0  0  0  2  0  0  0  0  0  0
  159.4310  211.6920  156.6000 N   0  0  0  0  0  0  0  0  0  0  0  0
  158.2960  212.4690  152.7490 C   0  0  0  0  0  0  0  0  0  0  0  0
  157.3690  212.5000  153.9670 C   0  0  0  0  0  3  0  0  0  0  0  0
  159.7940  212.1590  153.0410 C   0  0  0  0  0  0  0  0  0  0  0  0
  160.4110  210.8230  156.3990 N   0  0  0  0  0  0  0  0  0  0  0  0
  161.8820  207.7630  149.9830 C   0  0  0  0  0  2  0  0  0  0  0  0
  160.7490  206.3400  148.3450 N   0  0  0  0  0  0  0  0  0  0  0  0
  160.6750  207.2480  149.2550 C   0  0  0  0  0  3  0  0  0  0  0  0
  161.9970  205.7370  147.9420 C   0  0  0  0  0  2  0  0  0  0  0  0
  161.6460  204.2380  146.1280 O   0  0  0  0  0  0  0  0  0  0  0  0
  161.7410  204.3840  147.3770 C   0  0  0  0  0  0  0  0  0  0  0  0
  161.5890  203.2970  148.2400 O   0  0  0  0  0  0  0  0  0  0  0  0
  160.1000  201.6200  149.0860 C   0  0  0  0  0  2  0  0  0  0  0  0
  161.3740  200.9440  148.6230 C   0  0  0  0  0  2  0  0  0  0  0  0
  160.8390  202.1460  147.8730 C   0  0  0  0  0  3  0  0  0  0  0  0
  162.4700  210.4790  149.1250 C   0  0  0  0  0  2  0  0  0  0  0  0
  161.8910  211.7430  148.5110 C   0  0  0  0  0  2  0  0  0  0  0  0
  162.9210  212.4090  147.6590 C   0  0  0  0  0  0  0  0  0  0  0  0
  162.5430  213.2600  146.5760 N   0  0  0  0  0  2  0  0  0  0  0  0
  164.1420  212.2370  147.9140 O   0  0  0  0  0  0  0  0  0  0  0  0
  160.8130  213.2820  144.8950 C   0  0  0  0  0  3  0  0  0  0  0  0
  161.1840  213.4240  146.1660 C   0  0  0  0  0  3  0  0  0  0  0  0
  161.0430  212.2540  142.6800 C   0  0  0  0  0  1  0  0  0  0  0  0
  161.7790  212.9680  143.7980 C   0  0  1  0  0  3  0  0  0  0  0  0
  162.3270  214.1540  143.3040 O   0  0  0  0  0  0  0  0  0  0  0  0
  161.6590  214.3970  142.1950 O   0  0  0  0  0  1  0  0  0  0  0  0
  1  2  2  0  0  0  0
  2  5  1  0  0  0  0
  4  8  1  0  0  0  0
  5  3  2  0  0  0  0
  5  4  1  0  0  0  0
  6  4  1  0  0  0  0
  7  6  2  0  0  0  0
  9  8  1  0  0  0  0
  9 10  1  0  0  0  0
 10 22  2  0  0  0  0
 11 10  1  0  0  0  0
 11 16  1  0  0  0  0
 14 16  2  0  0  0  0
 14 15  1  0  0  0  0
 15 12  1  0  0  0  0
 15 13  1  0  0  0  0
 16 18  1  0  0  0  0
 17 21  1  0  0  0  0
 18 13  1  0  0  0  0
 19 17  1  0  0  0  0
 19 21  1  0  0  0  0
 19 20  2  3  0  0  0
 20 14  1  0  0  0  0
 21 11  2  3  0  0  0
 22 18  1  0  0  0  0
 23  2  1  0  0  0  0
 24 25  2  0  0  0  0
 25 23  1  0  0  0  0
 26 24  1  0  0  0  0
 27 28  2  0  0  0  0
 28 26  1  0  0  0  0
 28 29  1  0  0  0  0
 31 30  1  0  0  0  0
 32 29  1  0  0  0  0
 32 31  1  0  0  0  0
 32 30  1  0  0  0  0
 33  1  1  0  0  0  0
 34 33  1  0  0  0  0
 35 37  2  0  0  0  0
 35 34  1  0  0  0  0
 36 35  1  0  0  0  0
 38 39  2  0  0  0  0
 39 36  1  0  0  0  0
 41 40  1  6  0  0  0
 41 38  1  0  0  0  0
 42 41  1  0  0  0  0
 43 42  1  0  0  0  0
M  END
>  <MODEL>
9

>  <REMARK>
 VINA RESULT:      -6.0      2.574      9.908
  Name = 
  17 active torsions:
  status: ('A' for Active; 'I' for Inactive)
    1  A    between atoms: C_2  and  C_6
    2  A    between atoms: N_3  and  C_29
    3  A    between atoms: C_4  and  C_40
    4  A    between atoms: C_5  and  C_6
    5  A    between atoms: C_5  and  N_11
    6  A    between atoms: C_10  and  C_39
    7  A    between atoms: N_11  and  C_12
    8  A    between atoms: N_13  and  C_20
    9  A    between atoms: C_19  and  C_26
   10  A    between atoms: C_20  and  C_38
   11  A    between atoms: C_22  and  N_37
   12  A    between atoms: C_26  and  C_31
   13  A    between atoms: O_27  and  C_36
   14  A    between atoms: O_27  and  C_38
   15  A    between atoms: O_28  and  C_39
   16  A    between atoms: C_29  and  C_40
   17  A    between atoms: C_31  and  C_43
                            x       y       z     vdW  Elec       q    Type
                         _______ _______ _______ _____ _____    ______ ____

>  <TORSDO>
F 17

$$$$
