=
 OpenBabel11052409593D

 39 43  0  0  1  0  0  0  0  0999 V2000
  161.2140  205.9680  151.8380 O   0  0  0  0  0  0  0  0  0  0  0  0
  162.3160  209.2740  149.1780 O   0  0  0  0  0  0  0  0  0  0  0  0
  161.4400  207.0050  154.0530 C   0  0  0  0  0  3  0  0  0  0  0  0
  161.8850  208.1090  151.4130 C   0  0  2  0  0  3  0  0  0  0  0  0
  161.8130  208.4160  149.9500 C   0  0  0  0  0  0  0  0  0  0  0  0
  161.4220  205.9320  153.2280 C   0  0  0  0  0  3  0  0  0  0  0  0
  160.9960  207.1970  149.7730 N   0  0  0  0  0  0  0  0  0  0  0  0
  160.8380  207.1770  151.2100 C   0  0  1  0  0  3  0  0  0  0  0  0
  161.2910  208.4770  153.7570 C   0  0  0  0  0  0  0  0  0  0  0  0
  161.4220  209.0100  152.5110 C   0  0  0  0  0  0  0  0  0  0  0  0
  159.7630  209.2630  155.5780 C   0  0  0  0  0  3  0  0  0  0  0  0
  159.5210  210.0230  156.6770 N   0  0  0  0  0  0  0  0  0  0  0  0
  160.4450  210.8500  157.1680 N   0  0  0  0  0  0  0  0  0  0  0  0
  161.9680  210.2090  155.4620 C   0  0  0  0  0  3  0  0  0  0  0  0
  161.6700  210.9660  156.5900 C   0  0  0  0  0  3  0  0  0  0  0  0
  161.0020  209.3440  154.9310 C   0  0  0  0  0  0  0  0  0  0  0  0
  160.4250  206.4880  148.6390 C   0  0  0  0  0  2  0  0  0  0  0  0
  161.5260  205.9440  147.7380 C   0  0  0  0  0  2  0  0  0  0  0  0
  161.1280  203.6970  148.8240 N   0  0  0  0  0  2  0  0  0  0  0  0
  161.4620  204.4540  147.6580 C   0  0  0  0  0  0  0  0  0  0  0  0
  161.6100  203.8710  146.5120 N   0  0  0  0  0  2  0  0  0  0  0  0
  160.8170  201.7010  150.1810 C   0  0  0  0  0  1  0  0  0  0  0  0
  160.8120  202.2780  148.7780 C   0  0  0  0  0  2  0  0  0  0  0  0
  161.1340  210.3630  152.2920 O   0  0  0  0  0  0  0  0  0  0  0  0
  159.8920  210.8530  152.3860 O   0  0  0  0  0  0  0  0  0  0  0  0
  160.0680  212.1890  152.7510 C   0  0  2  0  0  3  0  0  0  0  0  0
  159.5890  212.3830  154.0450 O   0  0  0  0  0  1  0  0  0  0  0  0
  159.3050  213.0920  151.7990 C   0  0  0  0  0  2  0  0  0  0  0  0
  160.4550  213.1200  149.3870 C   0  0  0  0  0  0  0  0  0  0  0  0
  159.9300  213.1030  150.4740 C   0  0  0  0  0  0  0  0  0  0  0  0
  161.0840  213.1430  148.0960 C   0  0  0  0  0  0  0  0  0  0  0  0
  159.7570  212.6070  144.1370 N   0  0  0  0  0  0  0  0  0  0  0  0
  161.4750  213.0400  145.8310 C   0  0  0  0  0  0  0  0  0  0  0  0
  160.4380  212.9470  146.8150 C   0  0  0  0  0  0  0  0  0  0  0  0
  162.6380  213.2690  146.4270 C   0  0  0  0  0  3  0  0  0  0  0  0
  161.1900  212.8810  144.3710 C   0  0  0  0  0  3  0  0  0  0  0  0
  159.1710  212.7020  146.5000 C   0  0  0  0  0  3  0  0  0  0  0  0
  158.8410  212.5240  145.0670 C   0  0  0  0  0  3  0  0  0  0  0  0
  162.3830  213.3320  147.8850 C   0  0  0  0  0  2  0  0  0  0  0  0
  1  6  1  0  0  0  0
  2  5  2  0  0  0  0
  4  5  1  6  0  0  0
  4 10  1  0  0  0  0
  6  3  2  0  0  0  0
  7  5  1  0  0  0  0
  7  8  1  0  0  0  0
  8  4  1  0  0  0  0
  8  1  1  1  0  0  0
  9  3  1  0  0  0  0
  9 16  1  0  0  0  0
 10  9  2  0  0  0  0
 11 12  1  0  0  0  0
 12 13  2  0  0  0  0
 14 15  2  0  0  0  0
 15 13  1  0  0  0  0
 16 14  1  0  0  0  0
 16 11  2  0  0  0  0
 17  7  1  0  0  0  0
 18 17  1  0  0  0  0
 20 18  1  0  0  0  0
 20 19  1  0  0  0  0
 21 20  2  0  0  0  0
 23 19  1  0  0  0  0
 23 22  1  0  0  0  0
 24 25  1  0  0  0  0
 24 10  1  0  0  0  0
 25 26  1  0  0  0  0
 26 27  1  1  0  0  0
 28 26  1  0  0  0  0
 29 30  3  0  0  0  0
 30 28  1  0  0  0  0
 31 29  1  0  0  0  0
 32 36  2  0  0  0  0
 32 38  1  0  0  0  0
 33 35  2  0  0  0  0
 33 34  1  0  0  0  0
 34 31  2  0  0  0  0
 35 39  1  0  0  0  0
 36 33  1  0  0  0  0
 37 34  1  0  0  0  0
 38 37  2  0  0  0  0
 39 31  1  0  0  0  0
M  END
>  <MODEL>
1

>  <REMARK>
 VINA RESULT:      -8.1      0.000      0.000
  Name = 
  11 active torsions:
  status: ('A' for Active; 'I' for Inactive)
    1  A    between atoms: C_1  and  C_5
    2  A    between atoms: N_7  and  C_26
    3  A    between atoms: C_8  and  C_15
    4  A    between atoms: C_8  and  O_17
    5  A    between atoms: C_10  and  C_38
    6  A    between atoms: C_15  and  C_19
    7  A    between atoms: O_17  and  O_37
    8  A    between atoms: C_24  and  N_30
    9  A    between atoms: C_24  and  C_38
   10  A    between atoms: C_32  and  C_34
   11  A    between atoms: C_35  and  O_37
                            x       y       z     vdW  Elec       q    Type
                         _______ _______ _______ _____ _____    ______ ____

>  <TORSDO>
F 11

$$$$
=
 OpenBabel11052409593D

 39 43  0  0  1  0  0  0  0  0999 V2000
  161.2040  206.1090  152.1420 O   0  0  0  0  0  0  0  0  0  0  0  0
  162.3080  209.3140  149.3620 O   0  0  0  0  0  0  0  0  0  0  0  0
  161.3530  207.2490  154.3130 C   0  0  0  0  0  3  0  0  0  0  0  0
  161.8440  208.2420  151.6370 C   0  0  2  0  0  3  0  0  0  0  0  0
  161.8030  208.4810  150.1600 C   0  0  0  0  0  0  0  0  0  0  0  0
  161.3770  206.1390  153.5370 C   0  0  0  0  0  3  0  0  0  0  0  0
  161.0150  207.2380  150.0190 N   0  0  0  0  0  0  0  0  0  0  0  0
  160.8210  207.2800  151.4510 C   0  0  1  0  0  3  0  0  0  0  0  0
  161.1830  208.7030  153.9460 C   0  0  0  0  0  0  0  0  0  0  0  0
  161.3350  209.1810  152.6820 C   0  0  0  0  0  0  0  0  0  0  0  0
  161.7950  210.5370  155.5370 C   0  0  0  0  0  3  0  0  0  0  0  0
  161.4690  211.3990  156.5350 N   0  0  0  0  0  0  0  0  0  0  0  0
  160.2550  211.3970  157.0870 N   0  0  0  0  0  0  0  0  0  0  0  0
  159.5730  209.6300  155.6540 C   0  0  0  0  0  3  0  0  0  0  0  0
  159.2910  210.5330  156.6730 C   0  0  0  0  0  3  0  0  0  0  0  0
  160.8480  209.6160  155.0730 C   0  0  0  0  0  0  0  0  0  0  0  0
  160.4870  206.4680  148.9050 C   0  0  0  0  0  2  0  0  0  0  0  0
  161.1820  205.1160  148.8110 C   0  0  0  0  0  2  0  0  0  0  0  0
  161.1910  203.4250  146.9340 N   0  0  0  0  0  2  0  0  0  0  0  0
  161.4570  204.7540  147.3890 C   0  0  0  0  0  0  0  0  0  0  0  0
  161.8360  205.6720  146.5600 N   0  0  0  0  0  2  0  0  0  0  0  0
  160.3810  201.7990  145.3140 C   0  0  0  0  0  1  0  0  0  0  0  0
  161.2020  203.0560  145.5270 C   0  0  0  0  0  2  0  0  0  0  0  0
  161.0270  210.5170  152.3940 O   0  0  0  0  0  0  0  0  0  0  0  0
  159.7670  210.9680  152.3650 O   0  0  0  0  0  0  0  0  0  0  0  0
  159.8790  212.3400  152.5960 C   0  0  2  0  0  3  0  0  0  0  0  0
  159.4290  212.6320  153.8820 O   0  0  0  0  0  1  0  0  0  0  0  0
  159.0390  213.1070  151.5900 C   0  0  0  0  0  2  0  0  0  0  0  0
  160.3930  213.4780  149.3160 C   0  0  0  0  0  0  0  0  0  0  0  0
  159.7790  213.3180  150.3430 C   0  0  0  0  0  0  0  0  0  0  0  0
  161.1260  213.6630  148.0940 C   0  0  0  0  0  0  0  0  0  0  0  0
  160.5510  212.5170  144.0850 N   0  0  0  0  0  0  0  0  0  0  0  0
  161.7980  213.6020  145.8950 C   0  0  0  0  0  0  0  0  0  0  0  0
  160.7460  213.1950  146.7780 C   0  0  0  0  0  0  0  0  0  0  0  0
  162.7300  214.2520  146.5800 C   0  0  0  0  0  3  0  0  0  0  0  0
  161.7630  213.2880  144.4330 C   0  0  0  0  0  3  0  0  0  0  0  0
  159.6880  212.5060  146.3630 C   0  0  0  0  0  3  0  0  0  0  0  0
  159.6150  212.1600  144.9260 C   0  0  0  0  0  3  0  0  0  0  0  0
  162.2960  214.2870  147.9950 C   0  0  0  0  0  2  0  0  0  0  0  0
  1  6  1  0  0  0  0
  2  5  2  0  0  0  0
  4  5  1  6  0  0  0
  4 10  1  0  0  0  0
  6  3  2  0  0  0  0
  7  5  1  0  0  0  0
  7  8  1  0  0  0  0
  8  4  1  0  0  0  0
  8  1  1  1  0  0  0
  9  3  1  0  0  0  0
  9 16  1  0  0  0  0
 10  9  2  0  0  0  0
 11 12  1  0  0  0  0
 12 13  2  0  0  0  0
 14 15  2  0  0  0  0
 15 13  1  0  0  0  0
 16 11  2  0  0  0  0
 16 14  1  0  0  0  0
 17  7  1  0  0  0  0
 18 17  1  0  0  0  0
 19 20  1  0  0  0  0
 20 18  1  0  0  0  0
 21 20  2  0  0  0  0
 22 23  1  0  0  0  0
 23 19  1  0  0  0  0
 24 10  1  0  0  0  0
 25 24  1  0  0  0  0
 25 26  1  0  0  0  0
 26 27  1  1  0  0  0
 28 26  1  0  0  0  0
 29 30  3  0  0  0  0
 30 28  1  0  0  0  0
 31 29  1  0  0  0  0
 32 36  2  0  0  0  0
 32 38  1  0  0  0  0
 33 35  2  0  0  0  0
 33 34  1  0  0  0  0
 34 31  2  0  0  0  0
 35 39  1  0  0  0  0
 36 33  1  0  0  0  0
 37 34  1  0  0  0  0
 38 37  2  0  0  0  0
 39 31  1  0  0  0  0
M  END
>  <MODEL>
2

>  <REMARK>
 VINA RESULT:      -7.8      1.000      1.384
  Name = 
  11 active torsions:
  status: ('A' for Active; 'I' for Inactive)
    1  A    between atoms: C_1  and  C_5
    2  A    between atoms: N_7  and  C_26
    3  A    between atoms: C_8  and  C_15
    4  A    between atoms: C_8  and  O_17
    5  A    between atoms: C_10  and  C_38
    6  A    between atoms: C_15  and  C_19
    7  A    between atoms: O_17  and  O_37
    8  A    between atoms: C_24  and  N_30
    9  A    between atoms: C_24  and  C_38
   10  A    between atoms: C_32  and  C_34
   11  A    between atoms: C_35  and  O_37
                            x       y       z     vdW  Elec       q    Type
                         _______ _______ _______ _____ _____    ______ ____

>  <TORSDO>
F 11

$$$$
=
 OpenBabel11052409593D

 39 43  0  0  1  0  0  0  0  0999 V2000
  158.7050  212.6860  155.0450 O   0  0  0  0  0  0  0  0  0  0  0  0
  162.3430  210.3450  154.3390 O   0  0  0  0  0  0  0  0  0  0  0  0
  158.4230  213.8440  152.8970 C   0  0  0  0  0  3  0  0  0  0  0  0
  160.4620  211.9800  153.7690 C   0  0  2  0  0  3  0  0  0  0  0  0
  161.2010  210.8650  154.4400 C   0  0  0  0  0  0  0  0  0  0  0  0
  158.2340  213.7330  154.2330 C   0  0  0  0  0  3  0  0  0  0  0  0
  160.0580  210.7150  155.3650 N   0  0  0  0  0  0  0  0  0  0  0  0
  159.3020  211.5480  154.4570 C   0  0  1  0  0  3  0  0  0  0  0  0
  159.1770  212.9600  151.9330 C   0  0  0  0  0  0  0  0  0  0  0  0
  160.0850  212.0250  152.3240 C   0  0  0  0  0  0  0  0  0  0  0  0
  157.5590  213.1410  150.0310 C   0  0  0  0  0  3  0  0  0  0  0  0
  157.2900  213.3880  148.7220 N   0  0  0  0  0  0  0  0  0  0  0  0
  158.2600  213.6780  147.8560 N   0  0  0  0  0  0  0  0  0  0  0  0
  159.8910  213.4970  149.5730 C   0  0  0  0  0  3  0  0  0  0  0  0
  159.5610  213.7420  148.2450 C   0  0  0  0  0  3  0  0  0  0  0  0
  158.8810  213.1810  150.4910 C   0  0  0  0  0  0  0  0  0  0  0  0
  159.7720  209.9000  156.5350 C   0  0  0  0  0  2  0  0  0  0  0  0
  159.3530  208.4960  156.1200 C   0  0  0  0  0  2  0  0  0  0  0  0
  160.4730  206.9560  154.4590 N   0  0  0  0  0  2  0  0  0  0  0  0
  160.5330  207.6920  155.6840 C   0  0  0  0  0  0  0  0  0  0  0  0
  161.6310  207.7520  156.3650 N   0  0  0  0  0  2  0  0  0  0  0  0
  161.2330  205.1420  153.0240 C   0  0  0  0  0  1  0  0  0  0  0  0
  161.6450  206.3480  153.8470 C   0  0  0  0  0  2  0  0  0  0  0  0
  160.6420  211.1500  151.3830 O   0  0  0  0  0  0  0  0  0  0  0  0
  161.9560  211.1090  151.1350 O   0  0  0  0  0  0  0  0  0  0  0  0
  162.1690  209.8510  150.5710 C   0  0  2  0  0  3  0  0  0  0  0  0
  162.0180  209.9320  149.1870 O   0  0  0  0  0  1  0  0  0  0  0  0
  161.1640  208.8560  151.1220 C   0  0  0  0  0  2  0  0  0  0  0  0
  161.2010  206.5810  149.7210 C   0  0  0  0  0  0  0  0  0  0  0  0
  161.1810  207.6110  150.3480 C   0  0  0  0  0  0  0  0  0  0  0  0
  161.2260  205.3500  148.9800 C   0  0  0  0  0  0  0  0  0  0  0  0
  161.6230  204.3420  144.9120 N   0  0  0  0  0  0  0  0  0  0  0  0
  161.3290  203.7990  147.2840 C   0  0  0  0  0  0  0  0  0  0  0  0
  161.3920  205.2050  147.5490 C   0  0  0  0  0  0  0  0  0  0  0  0
  161.1460  203.1380  148.4200 C   0  0  0  0  0  3  0  0  0  0  0  0
  161.4570  203.2530  145.8970 C   0  0  0  0  0  3  0  0  0  0  0  0
  161.5520  206.1090  146.5880 C   0  0  0  0  0  3  0  0  0  0  0  0
  161.6700  205.6180  145.1970 C   0  0  0  0  0  3  0  0  0  0  0  0
  161.0770  204.1390  149.5090 C   0  0  0  0  0  2  0  0  0  0  0  0
  2  5  2  0  0  0  0
  3  6  2  0  0  0  0
  4 10  1  6  0  0  0
  4  5  1  0  0  0  0
  4  8  1  0  0  0  0
  5  7  1  0  0  0  0
  6  1  1  0  0  0  0
  7 17  1  0  0  0  0
  8  1  1  1  0  0  0
  8  7  1  0  0  0  0
  9 10  2  0  0  0  0
  9  3  1  0  0  0  0
 11 16  1  0  0  0  0
 12 11  2  0  0  0  0
 13 15  2  0  0  0  0
 13 12  1  0  0  0  0
 14 16  2  0  0  0  0
 15 14  1  0  0  0  0
 16  9  1  0  0  0  0
 18 17  1  0  0  0  0
 19 20  1  0  0  0  0
 20 18  1  0  0  0  0
 20 21  2  0  0  0  0
 22 23  1  0  0  0  0
 23 19  1  0  0  0  0
 24 10  1  0  0  0  0
 25 24  1  0  0  0  0
 26 27  1  6  0  0  0
 26 28  1  0  0  0  0
 26 25  1  0  0  0  0
 29 30  3  0  0  0  0
 30 28  1  0  0  0  0
 31 39  1  0  0  0  0
 31 29  1  0  0  0  0
 32 38  1  0  0  0  0
 32 36  2  0  0  0  0
 33 34  1  0  0  0  0
 33 35  2  0  0  0  0
 34 31  2  0  0  0  0
 35 39  1  0  0  0  0
 36 33  1  0  0  0  0
 37 34  1  0  0  0  0
 38 37  2  0  0  0  0
M  END
>  <MODEL>
3

>  <REMARK>
 VINA RESULT:      -7.6      2.253      7.283
  Name = 
  11 active torsions:
  status: ('A' for Active; 'I' for Inactive)
    1  A    between atoms: C_1  and  C_5
    2  A    between atoms: N_7  and  C_26
    3  A    between atoms: C_8  and  C_15
    4  A    between atoms: C_8  and  O_17
    5  A    between atoms: C_10  and  C_38
    6  A    between atoms: C_15  and  C_19
    7  A    between atoms: O_17  and  O_37
    8  A    between atoms: C_24  and  N_30
    9  A    between atoms: C_24  and  C_38
   10  A    between atoms: C_32  and  C_34
   11  A    between atoms: C_35  and  O_37
                            x       y       z     vdW  Elec       q    Type
                         _______ _______ _______ _____ _____    ______ ____

>  <TORSDO>
F 11

$$$$
=
 OpenBabel11052409593D

 39 43  0  0  1  0  0  0  0  0999 V2000
  161.3760  207.1370  153.8940 O   0  0  0  0  0  0  0  0  0  0  0  0
  162.1040  209.1550  150.0710 O   0  0  0  0  0  0  0  0  0  0  0  0
  160.6800  209.0060  155.3280 C   0  0  0  0  0  3  0  0  0  0  0  0
  161.4630  208.9730  152.5400 C   0  0  2  0  0  3  0  0  0  0  0  0
  161.6950  208.5800  151.1140 C   0  0  0  0  0  0  0  0  0  0  0  0
  161.2060  207.7730  155.1370 C   0  0  0  0  0  3  0  0  0  0  0  0
  161.3600  207.1880  151.4830 N   0  0  0  0  0  0  0  0  0  0  0  0
  160.8370  207.7150  152.7230 C   0  0  1  0  0  3  0  0  0  0  0  0
  160.1810  210.0280  154.3360 C   0  0  0  0  0  0  0  0  0  0  0  0
  160.4740  209.9910  153.0080 C   0  0  0  0  0  0  0  0  0  0  0  0
  159.9480  212.2300  155.5050 C   0  0  0  0  0  3  0  0  0  0  0  0
  159.1800  213.2440  155.9810 N   0  0  0  0  0  0  0  0  0  0  0  0
  157.8510  213.2150  155.8820 N   0  0  0  0  0  0  0  0  0  0  0  0
  157.9470  211.1050  154.7970 C   0  0  0  0  0  3  0  0  0  0  0  0
  157.2070  212.1700  155.3000 C   0  0  0  0  0  3  0  0  0  0  0  0
  159.3430  211.1200  154.9030 C   0  0  0  0  0  0  0  0  0  0  0  0
  161.3530  205.9080  150.7940 C   0  0  0  0  0  2  0  0  0  0  0  0
  160.7600  206.0540  149.3980 C   0  0  0  0  0  2  0  0  0  0  0  0
  161.0830  203.5710  149.0540 N   0  0  0  0  0  2  0  0  0  0  0  0
  161.1460  204.9010  148.5310 C   0  0  0  0  0  0  0  0  0  0  0  0
  161.4360  205.1080  147.2880 N   0  0  0  0  0  2  0  0  0  0  0  0
  160.7250  201.1650  148.9730 C   0  0  0  0  0  1  0  0  0  0  0  0
  161.2080  202.3880  148.2170 C   0  0  0  0  0  2  0  0  0  0  0  0
  159.8630  210.8940  152.1280 O   0  0  0  0  0  0  0  0  0  0  0  0
  160.5250  211.9250  151.5900 O   0  0  0  0  0  0  0  0  0  0  0  0
  159.6880  213.0240  151.7910 C   0  0  2  0  0  3  0  0  0  0  0  0
  158.3700  212.6590  151.5210 O   0  0  0  0  0  1  0  0  0  0  0  0
  160.0880  214.1590  150.8660 C   0  0  0  0  0  2  0  0  0  0  0  0
  159.9080  213.4240  148.3030 C   0  0  0  0  0  0  0  0  0  0  0  0
  159.9880  213.7490  149.4620 C   0  0  0  0  0  0  0  0  0  0  0  0
  159.8140  213.0440  146.9200 C   0  0  0  0  0  0  0  0  0  0  0  0
  162.4940  212.9570  143.6750 N   0  0  0  0  0  0  0  0  0  0  0  0
  160.2980  212.6240  144.7100 C   0  0  0  0  0  0  0  0  0  0  0  0
  160.8790  213.0710  145.9410 C   0  0  0  0  0  0  0  0  0  0  0  0
  159.0130  212.3480  144.8980 C   0  0  0  0  0  3  0  0  0  0  0  0
  161.0990  212.5230  143.4520 C   0  0  0  0  0  3  0  0  0  0  0  0
  162.1540  213.4340  146.0400 C   0  0  0  0  0  3  0  0  0  0  0  0
  162.9850  213.3640  144.8170 C   0  0  0  0  0  3  0  0  0  0  0  0
  158.7040  212.6220  146.3200 C   0  0  0  0  0  2  0  0  0  0  0  0
  1  6  1  0  0  0  0
  2  5  2  0  0  0  0
  4  5  1  6  0  0  0
  4  8  1  0  0  0  0
  4 10  1  0  0  0  0
  5  7  1  0  0  0  0
  6  3  2  0  0  0  0
  7  8  1  0  0  0  0
  8  1  1  1  0  0  0
  9 16  1  0  0  0  0
  9  3  1  0  0  0  0
 10  9  2  0  0  0  0
 11 12  1  0  0  0  0
 13 12  2  0  0  0  0
 14 16  1  0  0  0  0
 14 15  2  0  0  0  0
 15 13  1  0  0  0  0
 16 11  2  0  0  0  0
 17  7  1  0  0  0  0
 18 17  1  0  0  0  0
 20 19  1  0  0  0  0
 20 18  1  0  0  0  0
 21 20  2  0  0  0  0
 23 22  1  0  0  0  0
 23 19  1  0  0  0  0
 24 10  1  0  0  0  0
 25 26  1  0  0  0  0
 25 24  1  0  0  0  0
 26 27  1  6  0  0  0
 28 26  1  0  0  0  0
 29 30  3  0  0  0  0
 30 28  1  0  0  0  0
 31 29  1  0  0  0  0
 32 38  1  0  0  0  0
 33 35  2  0  0  0  0
 33 34  1  0  0  0  0
 34 37  1  0  0  0  0
 34 31  2  0  0  0  0
 35 39  1  0  0  0  0
 36 32  2  0  0  0  0
 36 33  1  0  0  0  0
 38 37  2  0  0  0  0
 39 31  1  0  0  0  0
M  END
>  <MODEL>
4

>  <REMARK>
 VINA RESULT:      -7.5      1.648      2.404
  Name = 
  11 active torsions:
  status: ('A' for Active; 'I' for Inactive)
    1  A    between atoms: C_1  and  C_5
    2  A    between atoms: N_7  and  C_26
    3  A    between atoms: C_8  and  C_15
    4  A    between atoms: C_8  and  O_17
    5  A    between atoms: C_10  and  C_38
    6  A    between atoms: C_15  and  C_19
    7  A    between atoms: O_17  and  O_37
    8  A    between atoms: C_24  and  N_30
    9  A    between atoms: C_24  and  C_38
   10  A    between atoms: C_32  and  C_34
   11  A    between atoms: C_35  and  O_37
                            x       y       z     vdW  Elec       q    Type
                         _______ _______ _______ _____ _____    ______ ____

>  <TORSDO>
F 11

$$$$
=
 OpenBabel11052409593D

 39 43  0  0  1  0  0  0  0  0999 V2000
  158.5210  213.5620  152.8770 O   0  0  0  0  0  0  0  0  0  0  0  0
  161.0690  210.3420  154.4130 O   0  0  0  0  0  0  0  0  0  0  0  0
  159.6680  214.1620  150.7890 C   0  0  0  0  0  3  0  0  0  0  0  0
  160.3250  212.1660  152.7820 C   0  0  2  0  0  3  0  0  0  0  0  0
  160.2540  211.1200  153.8500 C   0  0  0  0  0  0  0  0  0  0  0  0
  158.8560  214.4450  151.8350 C   0  0  0  0  0  3  0  0  0  0  0  0
  158.8360  211.4820  154.0560 N   0  0  0  0  0  0  0  0  0  0  0  0
  158.9100  212.2050  152.8070 C   0  0  1  0  0  3  0  0  0  0  0  0
  160.4430  212.9100  150.4550 C   0  0  0  0  0  0  0  0  0  0  0  0
  160.7010  211.9240  151.3560 C   0  0  0  0  0  0  0  0  0  0  0  0
  160.1440  213.2620  147.9940 C   0  0  0  0  0  3  0  0  0  0  0  0
  160.6200  213.2150  146.7230 N   0  0  0  0  0  0  0  0  0  0  0  0
  161.8440  212.7590  146.4560 N   0  0  0  0  0  0  0  0  0  0  0  0
  162.2290  212.3480  148.7640 C   0  0  0  0  0  3  0  0  0  0  0  0
  162.6680  212.3220  147.4440 C   0  0  0  0  0  3  0  0  0  0  0  0
  160.9410  212.8160  149.0560 C   0  0  0  0  0  0  0  0  0  0  0  0
  157.7900  211.0830  154.9840 C   0  0  0  0  0  2  0  0  0  0  0  0
  157.6130  212.1320  156.0750 C   0  0  0  0  0  2  0  0  0  0  0  0
  156.0580  213.7930  154.9780 N   0  0  0  0  0  2  0  0  0  0  0  0
  156.2770  212.7890  155.9730 C   0  0  0  0  0  0  0  0  0  0  0  0
  155.3040  212.3730  156.7160 N   0  0  0  0  0  2  0  0  0  0  0  0
  154.5890  214.4490  153.1510 C   0  0  0  0  0  1  0  0  0  0  0  0
  154.7360  214.3060  154.6540 C   0  0  0  0  0  2  0  0  0  0  0  0
  161.3060  210.7320  150.9380 O   0  0  0  0  0  0  0  0  0  0  0  0
  162.1450  210.0440  151.7220 O   0  0  0  0  0  0  0  0  0  0  0  0
  162.2190  208.7800  151.1350 C   0  0  2  0  0  3  0  0  0  0  0  0
  161.7770  208.8550  149.8150 O   0  0  0  0  0  1  0  0  0  0  0  0
  161.3440  207.8010  151.8960 C   0  0  0  0  0  2  0  0  0  0  0  0
  161.1480  205.4730  150.5980 C   0  0  0  0  0  0  0  0  0  0  0  0
  161.2430  206.5250  151.1810 C   0  0  0  0  0  0  0  0  0  0  0  0
  161.0280  204.2200  149.9040 C   0  0  0  0  0  0  0  0  0  0  0  0
  161.3030  203.0160  145.8800 N   0  0  0  0  0  0  0  0  0  0  0  0
  160.9480  202.6030  148.2700 C   0  0  0  0  0  0  0  0  0  0  0  0
  161.1760  204.0020  148.4810 C   0  0  0  0  0  0  0  0  0  0  0  0
  160.6890  202.0130  149.4290 C   0  0  0  0  0  3  0  0  0  0  0  0
  161.0100  201.9930  146.9060 C   0  0  0  0  0  3  0  0  0  0  0  0
  161.4400  204.8430  147.4870 C   0  0  0  0  0  3  0  0  0  0  0  0
  161.4990  204.2880  146.1150 C   0  0  0  0  0  3  0  0  0  0  0  0
  160.7380  203.0570  150.4790 C   0  0  0  0  0  2  0  0  0  0  0  0
  3  6  2  0  0  0  0
  4 10  1  6  0  0  0
  4  8  1  0  0  0  0
  4  5  1  0  0  0  0
  5  7  1  0  0  0  0
  5  2  2  0  0  0  0
  6  1  1  0  0  0  0
  7 17  1  0  0  0  0
  8  1  1  1  0  0  0
  8  7  1  0  0  0  0
  9  3  1  0  0  0  0
  9 10  2  0  0  0  0
 11 16  1  0  0  0  0
 12 11  2  0  0  0  0
 13 12  1  0  0  0  0
 13 15  2  0  0  0  0
 14 16  2  0  0  0  0
 15 14  1  0  0  0  0
 16  9  1  0  0  0  0
 17 18  1  0  0  0  0
 19 20  1  0  0  0  0
 20 18  1  0  0  0  0
 20 21  2  0  0  0  0
 22 23  1  0  0  0  0
 23 19  1  0  0  0  0
 24 10  1  0  0  0  0
 24 25  1  0  0  0  0
 26 27  1  6  0  0  0
 26 25  1  0  0  0  0
 26 28  1  0  0  0  0
 29 30  3  0  0  0  0
 30 28  1  0  0  0  0
 31 39  1  0  0  0  0
 31 29  1  0  0  0  0
 32 38  1  0  0  0  0
 32 36  2  0  0  0  0
 33 34  1  0  0  0  0
 33 35  2  0  0  0  0
 34 31  2  0  0  0  0
 35 39  1  0  0  0  0
 36 33  1  0  0  0  0
 37 34  1  0  0  0  0
 38 37  2  0  0  0  0
M  END
>  <MODEL>
5

>  <REMARK>
 VINA RESULT:      -7.3      2.427      8.997
  Name = 
  11 active torsions:
  status: ('A' for Active; 'I' for Inactive)
    1  A    between atoms: C_1  and  C_5
    2  A    between atoms: N_7  and  C_26
    3  A    between atoms: C_8  and  C_15
    4  A    between atoms: C_8  and  O_17
    5  A    between atoms: C_10  and  C_38
    6  A    between atoms: C_15  and  C_19
    7  A    between atoms: O_17  and  O_37
    8  A    between atoms: C_24  and  N_30
    9  A    between atoms: C_24  and  C_38
   10  A    between atoms: C_32  and  C_34
   11  A    between atoms: C_35  and  O_37
                            x       y       z     vdW  Elec       q    Type
                         _______ _______ _______ _____ _____    ______ ____

>  <TORSDO>
F 11

$$$$
=
 OpenBabel11052409593D

 39 43  0  0  1  0  0  0  0  0999 V2000
  159.7050  211.8430  153.9570 O   0  0  0  0  0  0  0  0  0  0  0  0
  161.1790  208.6740  156.6030 O   0  0  0  0  0  0  0  0  0  0  0  0
  160.7340  211.2300  151.8120 C   0  0  0  0  0  3  0  0  0  0  0  0
  160.9090  209.9560  154.4070 C   0  0  2  0  0  3  0  0  0  0  0  0
  160.6150  209.4450  155.7830 C   0  0  0  0  0  0  0  0  0  0  0  0
  160.1940  212.1280  152.6690 C   0  0  0  0  0  3  0  0  0  0  0  0
  159.4360  210.3360  155.8210 N   0  0  0  0  0  0  0  0  0  0  0  0
  159.6030  210.5040  154.3950 C   0  0  1  0  0  3  0  0  0  0  0  0
  160.9970  209.7520  151.9710 C   0  0  0  0  0  0  0  0  0  0  0  0
  161.0100  209.1170  153.1740 C   0  0  0  0  0  0  0  0  0  0  0  0
  162.0760  209.5730  149.7190 C   0  0  0  0  0  3  0  0  0  0  0  0
  162.3560  208.8710  148.5900 N   0  0  0  0  0  0  0  0  0  0  0  0
  161.8810  207.6400  148.4030 N   0  0  0  0  0  0  0  0  0  0  0  0
  160.7820  207.7090  150.5070 C   0  0  0  0  0  3  0  0  0  0  0  0
  161.0990  207.0330  149.3340 C   0  0  0  0  0  3  0  0  0  0  0  0
  161.2660  209.0070  150.7110 C   0  0  0  0  0  0  0  0  0  0  0  0
  158.4330  210.6850  156.8140 C   0  0  0  0  0  2  0  0  0  0  0  0
  158.5060  212.1690  157.1490 C   0  0  0  0  0  2  0  0  0  0  0  0
  157.4120  213.7420  155.5020 N   0  0  0  0  0  2  0  0  0  0  0  0
  157.3000  212.8900  156.6450 C   0  0  0  0  0  0  0  0  0  0  0  0
  156.1470  212.6590  157.1840 N   0  0  0  0  0  2  0  0  0  0  0  0
  156.2880  213.8760  153.3470 C   0  0  0  0  0  1  0  0  0  0  0  0
  156.2560  214.2870  154.8070 C   0  0  0  0  0  2  0  0  0  0  0  0
  161.1250  207.7220  153.2310 O   0  0  0  0  0  0  0  0  0  0  0  0
  162.1370  207.1140  153.8610 O   0  0  0  0  0  0  0  0  0  0  0  0
  162.2510  205.8750  153.2290 C   0  0  2  0  0  3  0  0  0  0  0  0
  162.9240  206.0320  152.0180 O   0  0  0  0  0  1  0  0  0  0  0  0
  160.8720  205.3000  152.9590 C   0  0  0  0  0  2  0  0  0  0  0  0
  160.9190  203.6240  150.8790 C   0  0  0  0  0  0  0  0  0  0  0  0
  160.9040  204.3770  151.8210 C   0  0  0  0  0  0  0  0  0  0  0  0
  160.9310  202.7280  149.7550 C   0  0  0  0  0  0  0  0  0  0  0  0
  161.3070  203.1990  145.5890 N   0  0  0  0  0  0  0  0  0  0  0  0
  161.0150  201.8650  147.6240 C   0  0  0  0  0  0  0  0  0  0  0  0
  161.0920  203.0900  148.3630 C   0  0  0  0  0  0  0  0  0  0  0  0
  160.8290  200.8510  148.4600 C   0  0  0  0  0  3  0  0  0  0  0  0
  161.1340  201.8360  146.1340 C   0  0  0  0  0  3  0  0  0  0  0  0
  161.2570  204.2710  147.7760 C   0  0  0  0  0  3  0  0  0  0  0  0
  161.3660  204.2950  146.3000 C   0  0  0  0  0  3  0  0  0  0  0  0
  160.7720  201.4100  149.8300 C   0  0  0  0  0  2  0  0  0  0  0  0
  3  9  1  0  0  0  0
  3  6  2  0  0  0  0
  4 10  1  6  0  0  0
  4  5  1  0  0  0  0
  5  7  1  0  0  0  0
  5  2  2  0  0  0  0
  6  1  1  0  0  0  0
  7 17  1  0  0  0  0
  8  1  1  1  0  0  0
  8  4  1  0  0  0  0
  8  7  1  0  0  0  0
  9 10  2  0  0  0  0
 10 24  1  0  0  0  0
 11 16  1  0  0  0  0
 12 11  2  0  0  0  0
 13 12  1  0  0  0  0
 13 15  2  0  0  0  0
 14 16  2  0  0  0  0
 15 14  1  0  0  0  0
 16  9  1  0  0  0  0
 17 18  1  0  0  0  0
 19 20  1  0  0  0  0
 20 18  1  0  0  0  0
 20 21  2  0  0  0  0
 22 23  1  0  0  0  0
 23 19  1  0  0  0  0
 24 25  1  0  0  0  0
 26 27  1  6  0  0  0
 26 25  1  0  0  0  0
 28 26  1  0  0  0  0
 29 30  3  0  0  0  0
 30 28  1  0  0  0  0
 31 39  1  0  0  0  0
 31 29  1  0  0  0  0
 32 36  2  0  0  0  0
 32 38  1  0  0  0  0
 33 34  1  0  0  0  0
 33 35  2  0  0  0  0
 34 31  2  0  0  0  0
 35 39  1  0  0  0  0
 36 33  1  0  0  0  0
 37 34  1  0  0  0  0
 38 37  2  0  0  0  0
M  END
>  <MODEL>
6

>  <REMARK>
 VINA RESULT:      -7.1      2.996      8.989
  Name = 
  11 active torsions:
  status: ('A' for Active; 'I' for Inactive)
    1  A    between atoms: C_1  and  C_5
    2  A    between atoms: N_7  and  C_26
    3  A    between atoms: C_8  and  C_15
    4  A    between atoms: C_8  and  O_17
    5  A    between atoms: C_10  and  C_38
    6  A    between atoms: C_15  and  C_19
    7  A    between atoms: O_17  and  O_37
    8  A    between atoms: C_24  and  N_30
    9  A    between atoms: C_24  and  C_38
   10  A    between atoms: C_32  and  C_34
   11  A    between atoms: C_35  and  O_37
                            x       y       z     vdW  Elec       q    Type
                         _______ _______ _______ _____ _____    ______ ____

>  <TORSDO>
F 11

$$$$
=
 OpenBabel11052409593D

 39 43  0  0  1  0  0  0  0  0999 V2000
  158.2350  213.3430  153.6320 O   0  0  0  0  0  0  0  0  0  0  0  0
  161.2520  210.2950  154.5390 O   0  0  0  0  0  0  0  0  0  0  0  0
  159.0430  214.2340  151.4900 C   0  0  0  0  0  3  0  0  0  0  0  0
  160.1370  212.1600  153.1910 C   0  0  2  0  0  3  0  0  0  0  0  0
  160.3020  211.0270  154.1540 C   0  0  0  0  0  0  0  0  0  0  0  0
  158.3480  214.3410  152.6470 C   0  0  0  0  0  3  0  0  0  0  0  0
  158.8930  211.2170  154.5600 N   0  0  0  0  0  0  0  0  0  0  0  0
  158.7390  212.0460  153.3860 C   0  0  1  0  0  3  0  0  0  0  0  0
  159.8860  213.1050  150.9480 C   0  0  0  0  0  0  0  0  0  0  0  0
  160.3490  212.0790  151.7130 C   0  0  0  0  0  0  0  0  0  0  0  0
  161.4690  212.7840  149.0360 C   0  0  0  0  0  3  0  0  0  0  0  0
  161.7440  212.8130  147.7060 N   0  0  0  0  0  0  0  0  0  0  0  0
  160.8320  213.2070  146.8160 N   0  0  0  0  0  0  0  0  0  0  0  0
  159.2560  213.5840  148.5530 C   0  0  0  0  0  3  0  0  0  0  0  0
  159.5880  213.5950  147.2020 C   0  0  0  0  0  3  0  0  0  0  0  0
  160.2090  213.1820  149.4980 C   0  0  0  0  0  0  0  0  0  0  0  0
  158.0170  210.6330  155.5630 C   0  0  0  0  0  2  0  0  0  0  0  0
  158.2350  211.2960  156.9160 C   0  0  0  0  0  2  0  0  0  0  0  0
  156.4290  213.0280  156.5710 N   0  0  0  0  0  2  0  0  0  0  0  0
  157.7880  212.7200  156.8920 C   0  0  0  0  0  0  0  0  0  0  0  0
  158.6060  213.6510  157.2610 N   0  0  0  0  0  2  0  0  0  0  0  0
  154.3510  214.2470  156.9240 C   0  0  0  0  0  1  0  0  0  0  0  0
  155.8550  214.3520  156.7570 C   0  0  0  0  0  2  0  0  0  0  0  0
  161.0070  210.9980  151.1140 O   0  0  0  0  0  0  0  0  0  0  0  0
  162.0260  210.3650  151.7080 O   0  0  0  0  0  0  0  0  0  0  0  0
  162.2440  209.2330  150.9200 C   0  0  2  0  0  3  0  0  0  0  0  0
  161.9470  209.5290  149.5910 O   0  0  0  0  0  1  0  0  0  0  0  0
  161.3520  208.0960  151.3860 C   0  0  0  0  0  2  0  0  0  0  0  0
  161.3660  206.0780  149.6350 C   0  0  0  0  0  0  0  0  0  0  0  0
  161.3660  206.9920  150.4230 C   0  0  0  0  0  0  0  0  0  0  0  0
  161.3610  204.9870  148.7000 C   0  0  0  0  0  0  0  0  0  0  0  0
  160.7340  200.8340  148.9880 N   0  0  0  0  0  0  0  0  0  0  0  0
  161.2300  202.8930  147.7550 C   0  0  0  0  0  0  0  0  0  0  0  0
  161.1020  203.5940  148.9980 C   0  0  0  0  0  0  0  0  0  0  0  0
  161.5340  203.7510  146.7890 C   0  0  0  0  0  3  0  0  0  0  0  0
  161.0360  201.4130  147.6620 C   0  0  0  0  0  2  0  0  0  0  0  0
  160.8190  202.9780  150.1410 C   0  0  0  0  0  3  0  0  0  0  0  0
  160.6310  201.5110  150.1030 C   0  0  0  0  0  3  0  0  0  0  0  0
  161.6210  205.0960  147.4010 C   0  0  0  0  0  3  0  0  0  0  0  0
  3  6  2  0  0  0  0
  4 10  1  6  0  0  0
  4  8  1  0  0  0  0
  4  5  1  0  0  0  0
  5  2  2  0  0  0  0
  5  7  1  0  0  0  0
  6  1  1  0  0  0  0
  7 17  1  0  0  0  0
  8  1  1  1  0  0  0
  8  7  1  0  0  0  0
  9  3  1  0  0  0  0
  9 10  2  0  0  0  0
 11 16  1  0  0  0  0
 12 11  2  0  0  0  0
 13 15  2  0  0  0  0
 13 12  1  0  0  0  0
 14 16  2  0  0  0  0
 15 14  1  0  0  0  0
 16  9  1  0  0  0  0
 17 18  1  0  0  0  0
 19 23  1  0  0  0  0
 19 20  1  0  0  0  0
 20 18  1  0  0  0  0
 20 21  2  0  0  0  0
 23 22  1  0  0  0  0
 24 25  1  0  0  0  0
 24 10  1  0  0  0  0
 26 27  1  6  0  0  0
 26 28  1  0  0  0  0
 26 25  1  0  0  0  0
 29 30  3  0  0  0  0
 30 28  1  0  0  0  0
 31 34  1  0  0  0  0
 31 29  1  0  0  0  0
 32 38  2  0  0  0  0
 33 34  1  0  0  0  0
 34 37  2  0  0  0  0
 35 39  1  0  0  0  0
 35 33  2  0  0  0  0
 36 33  1  0  0  0  0
 36 32  1  0  0  0  0
 38 37  1  0  0  0  0
 39 31  2  0  0  0  0
M  END
>  <MODEL>
7

>  <REMARK>
 VINA RESULT:      -6.8      2.450      9.178
  Name = 
  11 active torsions:
  status: ('A' for Active; 'I' for Inactive)
    1  A    between atoms: C_1  and  C_5
    2  A    between atoms: N_7  and  C_26
    3  A    between atoms: C_8  and  C_15
    4  A    between atoms: C_8  and  O_17
    5  A    between atoms: C_10  and  C_38
    6  A    between atoms: C_15  and  C_19
    7  A    between atoms: O_17  and  O_37
    8  A    between atoms: C_24  and  N_30
    9  A    between atoms: C_24  and  C_38
   10  A    between atoms: C_32  and  C_34
   11  A    between atoms: C_35  and  O_37
                            x       y       z     vdW  Elec       q    Type
                         _______ _______ _______ _____ _____    ______ ____

>  <TORSDO>
F 11

$$$$
=
 OpenBabel11052409593D

 39 43  0  0  1  0  0  0  0  0999 V2000
  162.1230  205.6090  150.4770 O   0  0  0  0  0  0  0  0  0  0  0  0
  161.8360  209.7060  148.9450 O   0  0  0  0  0  0  0  0  0  0  0  0
  162.1360  205.9770  152.9060 C   0  0  0  0  0  3  0  0  0  0  0  0
  161.9890  207.8750  150.7230 C   0  0  2  0  0  3  0  0  0  0  0  0
  161.7130  208.5430  149.4130 C   0  0  0  0  0  0  0  0  0  0  0  0
  162.4290  205.2490  151.8020 C   0  0  0  0  0  3  0  0  0  0  0  0
  161.3520  207.2210  148.8580 N   0  0  0  0  0  0  0  0  0  0  0  0
  161.3130  206.7370  150.2190 C   0  0  1  0  0  3  0  0  0  0  0  0
  161.4720  207.3240  153.0500 C   0  0  0  0  0  0  0  0  0  0  0  0
  161.3240  208.2020  152.0210 C   0  0  0  0  0  0  0  0  0  0  0  0
  161.6210  208.6650  155.1590 C   0  0  0  0  0  3  0  0  0  0  0  0
  161.1480  208.9990  156.3870 N   0  0  0  0  0  0  0  0  0  0  0  0
  160.0790  208.3960  156.9080 N   0  0  0  0  0  0  0  0  0  0  0  0
  159.8600  207.0420  154.9700 C   0  0  0  0  0  3  0  0  0  0  0  0
  159.4160  207.4220  156.2320 C   0  0  0  0  0  3  0  0  0  0  0  0
  160.9880  207.6610  154.4160 C   0  0  0  0  0  0  0  0  0  0  0  0
  160.9800  206.7160  147.5470 C   0  0  0  0  0  2  0  0  0  0  0  0
  162.0940  205.8520  146.9690 C   0  0  0  0  0  2  0  0  0  0  0  0
  161.5290  203.4770  147.6200 N   0  0  0  0  0  2  0  0  0  0  0  0
  161.5870  204.4930  146.6160 C   0  0  0  0  0  0  0  0  0  0  0  0
  161.1100  204.2780  145.4330 N   0  0  0  0  0  2  0  0  0  0  0  0
  160.9850  201.3430  148.6590 C   0  0  0  0  0  1  0  0  0  0  0  0
  160.8340  202.2140  147.4250 C   0  0  0  0  0  2  0  0  0  0  0  0
  160.5760  209.3730  152.1980 O   0  0  0  0  0  0  0  0  0  0  0  0
  161.1270  210.5140  152.6280 O   0  0  0  0  0  0  0  0  0  0  0  0
  160.1300  211.1190  153.3960 C   0  0  2  0  0  3  0  0  0  0  0  0
  158.8960  210.5500  153.0850 O   0  0  0  0  0  1  0  0  0  0  0  0
  160.0780  212.6070  153.1020 C   0  0  0  0  0  2  0  0  0  0  0  0
  158.8910  213.0780  150.7550 C   0  0  0  0  0  0  0  0  0  0  0  0
  159.4200  212.8640  151.8180 C   0  0  0  0  0  0  0  0  0  0  0  0
  158.2650  213.3350  149.4870 C   0  0  0  0  0  0  0  0  0  0  0  0
  159.6580  213.9670  145.5650 N   0  0  0  0  0  0  0  0  0  0  0  0
  157.8960  213.7620  147.2570 C   0  0  0  0  0  0  0  0  0  0  0  0
  158.9320  213.5120  148.2140 C   0  0  0  0  0  0  0  0  0  0  0  0
  156.7150  213.7420  147.8610 C   0  0  0  0  0  3  0  0  0  0  0  0
  158.2010  214.0040  145.8130 C   0  0  0  0  0  3  0  0  0  0  0  0
  160.2200  213.4930  147.8880 C   0  0  0  0  0  3  0  0  0  0  0  0
  160.5730  213.7400  146.4720 C   0  0  0  0  0  3  0  0  0  0  0  0
  156.9560  213.4700  149.2970 C   0  0  0  0  0  2  0  0  0  0  0  0
  1  6  1  0  0  0  0
  2  5  2  0  0  0  0
  3  9  1  0  0  0  0
  4  5  1  6  0  0  0
  4 10  1  0  0  0  0
  6  3  2  0  0  0  0
  7  5  1  0  0  0  0
  7  8  1  0  0  0  0
  8  1  1  6  0  0  0
  8  4  1  0  0  0  0
  9 16  1  0  0  0  0
 10 24  1  0  0  0  0
 10  9  2  0  0  0  0
 11 12  1  0  0  0  0
 12 13  2  0  0  0  0
 14 15  2  0  0  0  0
 15 13  1  0  0  0  0
 16 14  1  0  0  0  0
 16 11  2  0  0  0  0
 17  7  1  0  0  0  0
 18 17  1  0  0  0  0
 20 18  1  0  0  0  0
 20 19  1  0  0  0  0
 21 20  2  0  0  0  0
 23 19  1  0  0  0  0
 23 22  1  0  0  0  0
 24 25  1  0  0  0  0
 25 26  1  0  0  0  0
 26 27  1  6  0  0  0
 28 26  1  0  0  0  0
 29 30  3  0  0  0  0
 30 28  1  0  0  0  0
 31 29  1  0  0  0  0
 32 36  2  0  0  0  0
 32 38  1  0  0  0  0
 33 35  2  0  0  0  0
 33 34  1  0  0  0  0
 34 31  2  0  0  0  0
 35 39  1  0  0  0  0
 36 33  1  0  0  0  0
 37 34  1  0  0  0  0
 38 37  2  0  0  0  0
 39 31  1  0  0  0  0
M  END
>  <MODEL>
8

>  <REMARK>
 VINA RESULT:      -6.8      1.448      2.373
  Name = 
  11 active torsions:
  status: ('A' for Active; 'I' for Inactive)
    1  A    between atoms: C_1  and  C_5
    2  A    between atoms: N_7  and  C_26
    3  A    between atoms: C_8  and  C_15
    4  A    between atoms: C_8  and  O_17
    5  A    between atoms: C_10  and  C_38
    6  A    between atoms: C_15  and  C_19
    7  A    between atoms: O_17  and  O_37
    8  A    between atoms: C_24  and  N_30
    9  A    between atoms: C_24  and  C_38
   10  A    between atoms: C_32  and  C_34
   11  A    between atoms: C_35  and  O_37
                            x       y       z     vdW  Elec       q    Type
                         _______ _______ _______ _____ _____    ______ ____

>  <TORSDO>
F 11

$$$$
=
 OpenBabel11052409593D

 39 43  0  0  1  0  0  0  0  0999 V2000
  160.2840  208.6810  156.3990 O   0  0  0  0  0  0  0  0  0  0  0  0
  160.7530  211.5580  153.1240 O   0  0  0  0  0  0  0  0  0  0  0  0
  160.1050  206.5540  155.1820 C   0  0  0  0  0  3  0  0  0  0  0  0
  160.4410  209.2570  154.1950 C   0  0  2  0  0  3  0  0  0  0  0  0
  160.8210  210.6960  154.0390 C   0  0  0  0  0  0  0  0  0  0  0  0
  159.8790  207.3420  156.2610 C   0  0  0  0  0  3  0  0  0  0  0  0
  161.1960  210.7120  155.4690 N   0  0  0  0  0  0  0  0  0  0  0  0
  161.1310  209.2680  155.4310 C   0  0  1  0  0  3  0  0  0  0  0  0
  160.7820  206.8570  153.8670 C   0  0  0  0  0  0  0  0  0  0  0  0
  161.0180  208.1190  153.4170 C   0  0  0  0  0  0  0  0  0  0  0  0
  162.3250  205.7130  152.2610 C   0  0  0  0  0  3  0  0  0  0  0  0
  162.7030  204.6130  151.5590 N   0  0  0  0  0  0  0  0  0  0  0  0
  162.0050  203.4790  151.6150 N   0  0  0  0  0  0  0  0  0  0  0  0
  160.4550  204.4710  153.1160 C   0  0  0  0  0  3  0  0  0  0  0  0
  160.8860  203.3740  152.3780 C   0  0  0  0  0  3  0  0  0  0  0  0
  161.1740  205.6710  153.0580 C   0  0  0  0  0  0  0  0  0  0  0  0
  161.6520  211.7230  156.4090 C   0  0  0  0  0  2  0  0  0  0  0  0
  160.4870  212.2440  157.2410 C   0  0  0  0  0  2  0  0  0  0  0  0
  158.1700  211.8320  156.3210 N   0  0  0  0  0  2  0  0  0  0  0  0
  159.3450  212.6470  156.3680 C   0  0  0  0  0  0  0  0  0  0  0  0
  159.3890  213.7780  155.7430 N   0  0  0  0  0  2  0  0  0  0  0  0
  156.2310  211.0850  155.0540 C   0  0  0  0  0  1  0  0  0  0  0  0
  156.9330  212.2690  155.6920 C   0  0  0  0  0  2  0  0  0  0  0  0
  161.7730  208.3200  152.2540 O   0  0  0  0  0  0  0  0  0  0  0  0
  161.2400  208.8260  151.1360 O   0  0  0  0  0  0  0  0  0  0  0  0
  162.3320  209.3090  150.4130 C   0  0  2  0  0  3  0  0  0  0  0  0
  162.7480  210.5230  150.9570 O   0  0  0  0  0  1  0  0  0  0  0  0
  161.9420  209.5240  148.9620 C   0  0  0  0  0  2  0  0  0  0  0  0
  161.9000  207.2120  147.6230 C   0  0  0  0  0  0  0  0  0  0  0  0
  161.9240  208.2530  148.2320 C   0  0  0  0  0  0  0  0  0  0  0  0
  161.8650  205.9730  146.8940 C   0  0  0  0  0  0  0  0  0  0  0  0
  160.6910  202.0320  147.7930 N   0  0  0  0  0  0  0  0  0  0  0  0
  161.5810  203.7670  146.3080 C   0  0  0  0  0  0  0  0  0  0  0  0
  161.4000  204.6940  147.3850 C   0  0  0  0  0  0  0  0  0  0  0  0
  162.1000  204.3950  145.2610 C   0  0  0  0  0  3  0  0  0  0  0  0
  161.2140  202.3230  146.4420 C   0  0  0  0  0  2  0  0  0  0  0  0
  160.9120  204.3320  148.5670 C   0  0  0  0  0  3  0  0  0  0  0  0
  160.5460  202.9090  148.7530 C   0  0  0  0  0  3  0  0  0  0  0  0
  162.2850  205.8140  145.6430 C   0  0  0  0  0  3  0  0  0  0  0  0
  2  5  2  0  0  0  0
  3  6  2  0  0  0  0
  4 10  1  6  0  0  0
  4  8  1  0  0  0  0
  5  4  1  0  0  0  0
  5  7  1  0  0  0  0
  6  1  1  0  0  0  0
  7 17  1  0  0  0  0
  8  7  1  0  0  0  0
  8  1  1  1  0  0  0
  9  3  1  0  0  0  0
 10  9  2  0  0  0  0
 11 16  1  0  0  0  0
 12 13  1  0  0  0  0
 12 11  2  0  0  0  0
 13 15  2  0  0  0  0
 15 14  1  0  0  0  0
 16 14  2  0  0  0  0
 16  9  1  0  0  0  0
 17 18  1  0  0  0  0
 19 20  1  0  0  0  0
 20 18  1  0  0  0  0
 21 20  2  0  0  0  0
 22 23  1  0  0  0  0
 23 19  1  0  0  0  0
 24 10  1  0  0  0  0
 25 24  1  0  0  0  0
 26 27  1  1  0  0  0
 26 25  1  0  0  0  0
 28 26  1  0  0  0  0
 29 30  3  0  0  0  0
 30 28  1  0  0  0  0
 31 34  1  0  0  0  0
 31 29  1  0  0  0  0
 32 38  2  0  0  0  0
 33 36  1  0  0  0  0
 33 34  1  0  0  0  0
 34 37  2  0  0  0  0
 35 39  1  0  0  0  0
 35 33  2  0  0  0  0
 36 32  1  0  0  0  0
 37 38  1  0  0  0  0
 39 31  2  0  0  0  0
M  END
>  <MODEL>
9

>  <REMARK>
 VINA RESULT:      -6.7      3.339      7.858
  Name = 
  11 active torsions:
  status: ('A' for Active; 'I' for Inactive)
    1  A    between atoms: C_1  and  C_5
    2  A    between atoms: N_7  and  C_26
    3  A    between atoms: C_8  and  C_15
    4  A    between atoms: C_8  and  O_17
    5  A    between atoms: C_10  and  C_38
    6  A    between atoms: C_15  and  C_19
    7  A    between atoms: O_17  and  O_37
    8  A    between atoms: C_24  and  N_30
    9  A    between atoms: C_24  and  C_38
   10  A    between atoms: C_32  and  C_34
   11  A    between atoms: C_35  and  O_37
                            x       y       z     vdW  Elec       q    Type
                         _______ _______ _______ _____ _____    ______ ____

>  <TORSDO>
F 11

$$$$
