=
 OpenBabel11042421113D

 64 70  0  0  1  0  0  0  0  0999 V2000
  161.5500  205.4780  147.1570 C   0  0  1  0  0  3  0  0  0  0  0  0
  160.8310  207.7630  147.0450 O   0  0  0  0  0  1  0  0  0  0  0  0
  160.5810  206.5560  146.7870 C   0  0  0  0  0  0  0  0  0  0  0  0
  159.4090  206.2240  146.1220 O   0  0  0  0  0  0  0  0  0  0  0  0
  161.5350  205.1700  148.6530 C   0  0  0  0  0  2  0  0  0  0  0  0
  162.3470  206.1750  149.4560 C   0  0  0  0  0  2  0  0  0  0  0  0
  161.6030  207.3340  151.5300 N   0  0  0  0  0  0  0  0  0  0  0  0
  161.6550  205.0790  151.5860 N   0  0  0  0  0  2  0  0  0  0  0  0
  161.8780  206.1960  150.8670 C   0  0  0  0  0  0  0  0  0  0  0  0
  161.2260  205.5240  152.7820 C   0  0  0  0  0  3  0  0  0  0  0  0
  161.2010  206.9040  152.7390 C   0  0  0  0  0  0  0  0  0  0  0  0
  160.7760  207.8200  153.8180 C   0  0  0  0  0  0  0  0  0  0  0  0
  160.7270  207.3680  155.1590 N   0  0  0  0  0  2  0  0  0  0  0  0
  160.0440  209.8060  154.9150 C   0  0  2  0  0  3  0  0  0  0  0  0
  160.1150  208.5870  156.2760 S   0  0  0  0  0  0  0  0  0  0  0  0
  160.3960  209.0830  153.6510 C   0  0  0  0  0  0  0  0  0  0  0  0
  160.3130  209.7050  152.3640 N   0  0  0  0  0  2  0  0  0  0  0  0
  160.9690  212.5350  147.1500 C   0  0  0  0  0  2  0  0  0  0  0  0
  159.7050  212.2940  146.3190 C   0  0  0  0  0  2  0  0  0  0  0  0
  161.9670  210.3440  149.7580 C   0  0  0  0  0  2  0  0  0  0  0  0
  158.5580  213.8920  147.6780 C   0  0  0  0  0  2  0  0  0  0  0  0
  160.6900  213.1580  150.8240 C   0  0  0  0  0  2  0  0  0  0  0  0
  160.7910  212.1120  148.5350 N   0  0  1  0  0  0  0  0  0  0  0  0
  160.9850  210.9550  152.0400 C   0  0  1  0  0  3  0  0  0  0  0  0
  158.9670  213.7200  149.1330 C   0  0  0  0  0  2  0  0  0  0  0  0
  162.2480  210.6660  151.2210 C   0  0  0  0  0  2  0  0  0  0  0  0
  160.0010  211.9090  151.3580 C   0  0  0  0  0  2  0  0  0  0  0  0
  158.4720  212.5780  147.0510 N   0  0  0  0  0  2  0  0  0  0  0  0
  162.1060  211.6080  148.9240 C   0  0  0  0  0  2  0  0  0  0  0  0
  160.4420  213.3210  149.3170 C   0  0  1  0  0  3  0  0  0  0  0  0
  161.0200  210.8550  155.1630 N   0  0  0  0  0  2  0  0  0  0  0  0
  160.6150  211.5390  156.3780 C   0  0  0  0  0  2  0  0  0  0  0  0
  159.2450  212.6550  156.0120 P   0  0  0  0  0  2  0  0  0  0  0  0
  158.9850  213.0300  154.5690 O   0  0  0  0  0  1  0  0  0  0  0  0
  158.3960  213.6550  157.2610 C   0  0  0  0  0 15  0  0  0  0  0  0
  160.9540  212.8360  156.3000 O   0  0  0  0  0  0  0  0  0  0  0  0
  161.3160  204.2710  146.3750 N   0  0  0  0  0  2  0  0  0  0  0  0
  161.4000  205.5610  142.8470 N   0  0  0  0  0  2  0  0  0  0  0  0
  161.8400  205.2340  144.1660 C   0  0  0  0  0  0  0  0  0  0  0  0
  163.0360  205.4430  144.5120 O   0  0  0  0  0  0  0  0  0  0  0  0
  160.9110  204.6790  145.0960 N   0  0  0  0  0  2  0  0  0  0  0  0
  162.2580  206.2030  141.8620 C   0  0  0  0  0  2  0  0  0  0  0  0
  161.5770  207.3710  141.2880 N   0  0  0  0  0  2  0  0  0  0  0  0
  161.6840  207.4030  139.8750 N   0  0  0  0  0  0  0  0  0  0  0  0
  162.4780  206.2750  139.4000 C   0  0  0  0  0  1  0  0  0  0  0  0
  162.3120  208.6510  139.4500 C   0  0  0  0  0  2  0  0  0  0  0  0
  161.5390  209.8370  140.0040 C   0  0  0  0  0  2  0  0  0  0  0  0
  160.5460  209.9660  137.8200 O   0  0  0  0  0  0  0  0  0  0  0  0
  158.6260  211.2540  137.2030 C   0  0  0  0  0  2  0  0  0  0  0  0
  158.4300  211.7260  138.6480 C   0  0  1  0  0  3  0  0  0  0  0  0
  160.6130  212.5010  139.3260 O   0  0  0  0  0  0  0  0  0  0  0  0
  159.6730  211.4600  139.5120 C   0  0  2  0  0  3  0  0  0  0  0  0
  160.1950  213.6400  139.9930 N   0  0  2  0  0  0  0  0  0  0  0  0
  159.2980  209.8840  137.1830 C   0  0  0  0  0  2  0  0  0  0  0  0
  158.0410  213.6950  141.1270 C   0  0  0  0  0  2  0  0  0  0  0  0
  160.2750  210.0830  139.1940 C   0  0  2  0  0  3  0  0  0  0  0  0
  160.4110  213.5590  141.4450 C   0  0  1  0  0  3  0  0  0  0  0  0
  158.1300  213.2240  138.6260 C   0  0  2  0  0  3  0  0  0  0  0  0
  158.7620  213.9720  139.8110 C   0  0  2  0  0  3  0  0  0  0  0  0
  156.7520  213.4450  138.5660 O   0  0  0  0  0  1  0  0  0  0  0  0
  159.0930  213.1880  142.0870 C   0  0  0  0  0  2  0  0  0  0  0  0
  161.5360  212.6180  141.8640 C   0  0  1  0  0  3  0  0  0  0  0  0
  162.7740  213.3900  142.0370 N   0  0  0  0  0  2  0  0  0  0  0  0
  161.9940  212.9610  143.2050 C   0  0  0  0  0  2  0  0  0  0  0  0
  1  5  1  1  0  0  0
  3  2  1  0  0  0  0
  3  1  1  0  0  0  0
  4  3  2  0  0  0  0
  5  6  1  0  0  0  0
  6  9  1  0  0  0  0
  7 11  1  0  0  0  0
  8 10  1  0  0  0  0
  9  7  2  0  0  0  0
  9  8  1  0  0  0  0
 11 10  2  0  0  0  0
 11 12  1  0  0  0  0
 12 13  1  0  0  0  0
 13 15  1  0  0  0  0
 14 31  1  1  0  0  0
 14 15  1  0  0  0  0
 16 12  2  0  0  0  0
 16 14  1  0  0  0  0
 17 16  1  0  0  0  0
 19 28  1  0  0  0  0
 19 18  1  0  0  0  0
 20 26  1  0  0  0  0
 21 25  1  0  0  0  0
 22 27  1  0  0  0  0
 23 18  1  6  0  0  0
 23 29  1  0  0  0  0
 23 30  1  0  0  0  0
 24 17  1  6  0  0  0
 26 24  1  0  0  0  0
 27 24  1  0  0  0  0
 28 21  1  0  0  0  0
 29 20  1  0  0  0  0
 30 25  1  1  0  0  0
 30 22  1  0  0  0  0
 31 32  1  0  0  0  0
 33 36  1  0  0  0  0
 34 33  1  0  0  0  0
 36 32  1  0  0  0  0
 37  1  1  0  0  0  0
 38 39  1  0  0  0  0
 39 40  2  0  0  0  0
 39 41  1  0  0  0  0
 41 37  1  0  0  0  0
 42 38  1  0  0  0  0
 43 42  1  0  0  0  0
 44 43  1  0  0  0  0
 45 44  1  0  0  0  0
 46 44  1  0  0  0  0
 46 47  1  0  0  0  0
 48 56  1  0  0  0  0
 50 49  1  6  0  0  0
 50 52  1  0  0  0  0
 52 51  1  6  0  0  0
 53 51  1  6  0  0  0
 53 57  1  0  0  0  0
 54 49  1  0  0  0  0
 54 48  1  0  0  0  0
 55 61  1  0  0  0  0
 56 52  1  0  0  0  0
 56 47  1  1  0  0  0
 57 62  1  0  0  0  0
 57 61  1  1  0  0  0
 58 60  1  1  0  0  0
 58 50  1  0  0  0  0
 58 59  1  0  0  0  0
 59 53  1  0  0  0  0
 59 55  1  1  0  0  0
 62 63  1  0  0  0  0
 62 64  1  1  0  0  0
 63 64  1  0  0  0  0
M  END
>  <MODEL>
1

>  <REMARK>
 VINA RESULT:      -4.1      0.000      0.000
  Name = 
  18 active torsions:
  status: ('A' for Active; 'I' for Inactive)
    1  A    between atoms: C_1  and  C_41
    2  A    between atoms: C_1  and  C_47
    3  A    between atoms: C_2  and  C_53
    4  A    between atoms: C_5  and  C_64
    5  A    between atoms: C_8  and  N_28
    6  A    between atoms: C_9  and  N_23
    7  A    between atoms: C_9  and  N_42
    8  A    between atoms: C_22  and  C_39
    9  A    between atoms: C_22  and  N_40
   10  A    between atoms: C_22  and  C_47
   11  A    between atoms: N_28  and  C_38
   12  A    between atoms: C_29  and  N_33
   13  A    between atoms: N_33  and  C_61
   14  A    between atoms: N_34  and  N_40
   15  A    between atoms: N_42  and  N_44
   16  A    between atoms: C_43  and  N_44
   17  A    between atoms: C_43  and  C_60
   18  A    between atoms: C_51  and  C_60
                            x       y       z     vdW  Elec       q    Type
                         _______ _______ _______ _____ _____    ______ ____

>  <TORSDO>
F 18

$$$$
=
 OpenBabel11042421113D

 64 70  0  0  1  0  0  0  0  0999 V2000
  161.3500  204.1630  145.0040 C   0  0  1  0  0  3  0  0  0  0  0  0
  159.5300  202.6900  144.4850 O   0  0  0  0  0  0  0  0  0  0  0  0
  160.5150  202.9420  145.2280 C   0  0  0  0  0  0  0  0  0  0  0  0
  160.8520  202.0610  146.2460 O   0  0  0  0  0  1  0  0  0  0  0  0
  161.1800  204.7330  143.5970 C   0  0  0  0  0  2  0  0  0  0  0  0
  161.4060  206.2380  143.5550 C   0  0  0  0  0  2  0  0  0  0  0  0
  161.3100  207.7870  141.6080 N   0  0  0  0  0  0  0  0  0  0  0  0
  162.6200  205.9630  141.3940 N   0  0  0  0  0  2  0  0  0  0  0  0
  161.7710  206.6570  142.1750 C   0  0  0  0  0  0  0  0  0  0  0  0
  162.6980  206.6780  140.2560 C   0  0  0  0  0  3  0  0  0  0  0  0
  161.8900  207.7900  140.3960 C   0  0  0  0  0  0  0  0  0  0  0  0
  161.6830  208.8680  139.4070 C   0  0  0  0  0  0  0  0  0  0  0  0
  161.7640  208.5900  138.0210 N   0  0  0  0  0  0  0  0  0  0  0  0
  161.2320  211.0290  138.5070 C   0  0  2  0  0  3  0  0  0  0  0  0
  161.5700  210.0260  137.0170 S   0  0  0  0  0  0  0  0  0  0  0  0
  161.4360  210.1410  139.6960 C   0  0  2  0  0  3  0  0  0  0  0  0
  161.3830  210.6360  141.0390 N   0  0  0  0  0  2  0  0  0  0  0  0
  159.8180  213.7290  145.8990 C   0  0  0  0  0  2  0  0  0  0  0  0
  159.9170  212.7920  147.1070 C   0  0  0  0  0  2  0  0  0  0  0  0
  159.3830  212.5130  142.5920 C   0  0  0  0  0  2  0  0  0  0  0  0
  162.2950  213.0270  147.0410 C   0  0  0  0  0  2  0  0  0  0  0  0
  162.4100  213.5790  143.2110 C   0  0  0  0  0  2  0  0  0  0  0  0
  160.4360  213.1440  144.7130 N   0  0  1  0  0  0  0  0  0  0  0  0
  161.5840  212.0380  141.3790 C   0  0  1  0  0  3  0  0  0  0  0  0
  162.7750  213.0150  145.5970 C   0  0  0  0  0  2  0  0  0  0  0  0
  160.2390  212.7720  141.3590 C   0  0  0  0  0  2  0  0  0  0  0  0
  162.3360  212.1440  142.7080 C   0  0  0  0  0  2  0  0  0  0  0  0
  161.1930  212.0830  147.1830 N   0  0  0  0  0  2  0  0  0  0  0  0
  159.6070  213.6220  143.6100 C   0  0  0  0  0  2  0  0  0  0  0  0
  161.8060  213.7000  144.6180 C   0  0  1  0  0  3  0  0  0  0  0  0
  159.8520  211.4860  138.4710 N   0  0  0  0  0  2  0  0  0  0  0  0
  159.0190  210.3620  138.8600 C   0  0  0  0  0  2  0  0  0  0  0  0
  157.4170  210.4880  138.0370 P   0  0  0  0  0  2  0  0  0  0  0  0
  157.0140  211.8180  137.4420 O   0  0  0  0  0  1  0  0  0  0  0  0
  156.1010  209.2540  138.1980 C   0  0  0  0  0 15  0  0  0  0  0  0
  158.0180  210.7930  139.6450 O   0  0  0  0  0  0  0  0  0  0  0  0
  161.0770  205.1790  146.0130 N   0  0  0  0  0  2  0  0  0  0  0  0
  161.0600  204.5810  149.7210 N   0  0  0  0  0  2  0  0  0  0  0  0
  160.9310  205.2620  148.4730 C   0  0  0  0  0  0  0  0  0  0  0  0
  160.5370  206.4600  148.4350 O   0  0  0  0  0  0  0  0  0  0  0  0
  161.2620  204.5780  147.2650 N   0  0  0  0  0  2  0  0  0  0  0  0
  160.8200  205.2260  151.0040 C   0  0  0  0  0  2  0  0  0  0  0  0
  160.6150  206.6680  150.8100 N   0  0  0  0  0  2  0  0  0  0  0  0
  161.6190  207.4350  151.4520 N   0  0  0  0  0  0  0  0  0  0  0  0
  162.7080  206.5740  151.9020 C   0  0  0  0  0  1  0  0  0  0  0  0
  161.0520  208.1390  152.5990 C   0  0  0  0  0  2  0  0  0  0  0  0
  161.5430  209.5760  152.6220 C   0  0  0  0  0  2  0  0  0  0  0  0
  160.7890  211.6010  151.5710 O   0  0  0  0  0  0  0  0  0  0  0  0
  159.0420  213.0420  152.3440 C   0  0  0  0  0  2  0  0  0  0  0  0
  158.7370  212.1060  153.5180 C   0  0  1  0  0  3  0  0  0  0  0  0
  160.8910  211.6740  154.5170 O   0  0  0  0  0  0  0  0  0  0  0  0
  159.8630  211.0840  153.7450 C   0  0  2  0  0  3  0  0  0  0  0  0
  160.4930  211.7720  155.8390 N   0  0  2  0  0  0  0  0  0  0  0  0
  159.6100  212.2480  151.1710 C   0  0  0  0  0  2  0  0  0  0  0  0
  158.2450  211.1200  156.5110 C   0  0  0  0  0  2  0  0  0  0  0  0
  160.3890  210.5450  152.4070 C   0  0  2  0  0  3  0  0  0  0  0  0
  160.5550  210.4840  156.5470 C   0  0  1  0  0  3  0  0  0  0  0  0
  158.5530  212.9560  154.7730 C   0  0  2  0  0  3  0  0  0  0  0  0
  159.1150  212.2800  156.0340 C   0  0  2  0  0  3  0  0  0  0  0  0
  157.2080  213.2970  154.9410 O   0  0  0  0  0  1  0  0  0  0  0  0
  159.1550  209.9140  156.5890 C   0  0  0  0  0  2  0  0  0  0  0  0
  161.5580  209.4920  155.9670 C   0  0  1  0  0  3  0  0  0  0  0  0
  162.2170  208.7720  157.0650 N   0  0  0  0  0  2  0  0  0  0  0  0
  161.1490  208.1300  156.2870 C   0  0  0  0  0  2  0  0  0  0  0  0
  1  5  1  6  0  0  0
  1  3  1  0  0  0  0
  1 37  1  0  0  0  0
  2  3  2  0  0  0  0
  3  4  1  0  0  0  0
  6  5  1  0  0  0  0
  7  9  2  0  0  0  0
  8  9  1  0  0  0  0
  9  6  1  0  0  0  0
 10 11  2  0  0  0  0
 10  8  1  0  0  0  0
 11  7  1  0  0  0  0
 12 16  1  0  0  0  0
 12 11  1  0  0  0  0
 13 12  2  0  0  0  0
 14 31  1  6  0  0  0
 14 16  1  0  0  0  0
 15 13  1  0  0  0  0
 15 14  1  0  0  0  0
 16 17  1  6  0  0  0
 18 19  1  0  0  0  0
 19 28  1  0  0  0  0
 20 29  1  0  0  0  0
 21 28  1  0  0  0  0
 23 29  1  6  0  0  0
 23 18  1  0  0  0  0
 24 17  1  1  0  0  0
 24 27  1  0  0  0  0
 25 21  1  0  0  0  0
 26 24  1  0  0  0  0
 26 20  1  0  0  0  0
 27 22  1  0  0  0  0
 30 22  1  6  0  0  0
 30 23  1  0  0  0  0
 30 25  1  0  0  0  0
 31 32  1  0  0  0  0
 32 36  1  0  0  0  0
 33 36  1  0  0  0  0
 34 33  1  0  0  0  0
 37 41  1  0  0  0  0
 38 42  1  0  0  0  0
 39 38  1  0  0  0  0
 40 39  2  0  0  0  0
 41 39  1  0  0  0  0
 43 42  1  0  0  0  0
 43 44  1  0  0  0  0
 44 45  1  0  0  0  0
 44 46  1  0  0  0  0
 46 47  1  0  0  0  0
 48 56  1  0  0  0  0
 50 49  1  6  0  0  0
 50 52  1  0  0  0  0
 50 58  1  0  0  0  0
 52 51  1  6  0  0  0
 53 51  1  6  0  0  0
 53 59  1  0  0  0  0
 53 57  1  0  0  0  0
 54 48  1  0  0  0  0
 54 49  1  0  0  0  0
 55 61  1  0  0  0  0
 56 47  1  1  0  0  0
 56 52  1  0  0  0  0
 57 61  1  6  0  0  0
 58 60  1  1  0  0  0
 58 59  1  0  0  0  0
 59 55  1  6  0  0  0
 62 64  1  6  0  0  0
 62 57  1  0  0  0  0
 62 63  1  0  0  0  0
 64 63  1  0  0  0  0
M  END
>  <MODEL>
2

>  <REMARK>
 VINA RESULT:      -4.1      3.830     12.138
  Name = 
  18 active torsions:
  status: ('A' for Active; 'I' for Inactive)
    1  A    between atoms: C_1  and  C_41
    2  A    between atoms: C_1  and  C_47
    3  A    between atoms: C_2  and  C_53
    4  A    between atoms: C_5  and  C_64
    5  A    between atoms: C_8  and  N_28
    6  A    between atoms: C_9  and  N_23
    7  A    between atoms: C_9  and  N_42
    8  A    between atoms: C_22  and  C_39
    9  A    between atoms: C_22  and  N_40
   10  A    between atoms: C_22  and  C_47
   11  A    between atoms: N_28  and  C_38
   12  A    between atoms: C_29  and  N_33
   13  A    between atoms: N_33  and  C_61
   14  A    between atoms: N_34  and  N_40
   15  A    between atoms: N_42  and  N_44
   16  A    between atoms: C_43  and  N_44
   17  A    between atoms: C_43  and  C_60
   18  A    between atoms: C_51  and  C_60
                            x       y       z     vdW  Elec       q    Type
                         _______ _______ _______ _____ _____    ______ ____

>  <TORSDO>
F 18

$$$$
=
 OpenBabel11042421113D

 64 70  0  0  1  0  0  0  0  0999 V2000
  161.6480  203.2990  146.6520 C   0  0  1  0  0  3  0  0  0  0  0  0
  161.1620  200.9620  146.4220 O   0  0  0  0  0  1  0  0  0  0  0  0
  160.9350  202.1390  146.0340 C   0  0  0  0  0  0  0  0  0  0  0  0
  159.9870  202.3660  145.0450 O   0  0  0  0  0  0  0  0  0  0  0  0
  161.5180  204.5730  145.8200 C   0  0  0  0  0  2  0  0  0  0  0  0
  162.4400  204.5650  144.6080 C   0  0  0  0  0  2  0  0  0  0  0  0
  162.3880  205.5540  142.3240 N   0  0  0  0  0  0  0  0  0  0  0  0
  161.0350  206.4880  143.8690 N   0  0  0  0  0  2  0  0  0  0  0  0
  161.9600  205.5480  143.6000 C   0  0  0  0  0  0  0  0  0  0  0  0
  160.8670  207.1440  142.7050 C   0  0  0  0  0  3  0  0  0  0  0  0
  161.7020  206.5680  141.7680 C   0  0  0  0  0  0  0  0  0  0  0  0
  161.8380  206.9470  140.3460 C   0  0  0  0  0  0  0  0  0  0  0  0
  162.3400  206.0180  139.4040 N   0  0  0  0  0  2  0  0  0  0  0  0
  161.7400  208.2550  138.3550 C   0  0  2  0  0  3  0  0  0  0  0  0
  162.5030  206.6950  137.7850 S   0  0  0  0  0  0  0  0  0  0  0  0
  161.5420  208.1380  139.8350 C   0  0  0  0  0  0  0  0  0  0  0  0
  161.0840  209.2340  140.6360 N   0  0  0  0  0  2  0  0  0  0  0  0
  160.1970  214.1610  143.8870 C   0  0  0  0  0  2  0  0  0  0  0  0
  160.2350  213.7640  145.3670 C   0  0  0  0  0  2  0  0  0  0  0  0
  159.4340  211.8310  141.3200 C   0  0  0  0  0  2  0  0  0  0  0  0
  162.6170  213.6150  145.2230 C   0  0  0  0  0  2  0  0  0  0  0  0
  162.6040  212.6120  141.4830 C   0  0  0  0  0  2  0  0  0  0  0  0
  160.6700  213.0800  143.0280 N   0  0  1  0  0  0  0  0  0  0  0  0
  161.4860  210.6140  140.3990 C   0  0  1  0  0  3  0  0  0  0  0  0
  163.0150  212.9740  143.9010 C   0  0  0  0  0  2  0  0  0  0  0  0
  160.2520  211.4660  140.0880 C   0  0  0  0  0  2  0  0  0  0  0  0
  162.3150  211.1210  141.5830 C   0  0  0  0  0  2  0  0  0  0  0  0
  161.4090  212.9670  145.7190 N   0  0  0  0  0  2  0  0  0  0  0  0
  159.8550  213.2040  141.8220 C   0  0  0  0  0  2  0  0  0  0  0  0
  162.0950  213.3550  142.7280 C   0  0  1  0  0  3  0  0  0  0  0  0
  160.4510  208.4220  137.7040 N   0  0  0  0  0  2  0  0  0  0  0  0
  159.9330  209.7180  138.1030 C   0  0  0  0  0  2  0  0  0  0  0  0
  158.1390  209.7350  137.9090 P   0  0  0  0  0  2  0  0  0  0  0  0
  157.4960  208.6710  137.0470 O   0  0  0  0  0  1  0  0  0  0  0  0
  157.0880  211.1420  138.3550 C   0  0  0  0  0 15  0  0  0  0  0  0
  159.4920  210.3810  137.0200 O   0  0  0  0  0  0  0  0  0  0  0  0
  161.1980  203.5240  148.0200 N   0  0  0  0  0  2  0  0  0  0  0  0
  161.4230  206.7990  149.8470 N   0  0  0  0  0  2  0  0  0  0  0  0
  160.9760  205.4890  149.4930 C   0  0  0  0  0  0  0  0  0  0  0  0
  160.0800  204.9140  150.1690 O   0  0  0  0  0  0  0  0  0  0  0  0
  161.5480  204.8380  148.3590 N   0  0  0  0  0  2  0  0  0  0  0  0
  160.8400  207.5660  150.9380 C   0  0  0  0  0  2  0  0  0  0  0  0
  161.8980  208.2480  151.6940 N   0  0  0  0  0  2  0  0  0  0  0  0
  161.4580  208.6420  152.9820 N   0  0  0  0  0  0  0  0  0  0  0  0
  161.0490  207.4750  153.7590 C   0  0  0  0  0  1  0  0  0  0  0  0
  160.3320  209.5640  152.8650 C   0  0  0  0  0  2  0  0  0  0  0  0
  160.8250  210.9340  152.4310 C   0  0  0  0  0  2  0  0  0  0  0  0
  160.1240  212.9070  151.2520 O   0  0  0  0  0  0  0  0  0  0  0  0
  158.1700  214.2140  151.6990 C   0  0  0  0  0  2  0  0  0  0  0  0
  157.7310  213.2510  152.8070 C   0  0  1  0  0  3  0  0  0  0  0  0
  159.7020  212.9670  154.1700 O   0  0  0  0  0  0  0  0  0  0  0  0
  158.8700  212.3100  153.2340 C   0  0  2  0  0  3  0  0  0  0  0  0
  159.0730  213.0270  155.4020 N   0  0  2  0  0  0  0  0  0  0  0  0
  158.9900  213.4710  150.6480 C   0  0  0  0  0  2  0  0  0  0  0  0
  156.7940  212.2120  155.6730 C   0  0  0  0  0  2  0  0  0  0  0  0
  159.6600  211.8200  152.0120 C   0  0  2  0  0  3  0  0  0  0  0  0
  159.1010  211.7420  156.1160 C   0  0  1  0  0  3  0  0  0  0  0  0
  157.2700  214.0770  154.0060 C   0  0  2  0  0  3  0  0  0  0  0  0
  157.6500  213.4350  155.3490 C   0  0  2  0  0  3  0  0  0  0  0  0
  155.8960  214.3200  153.9320 O   0  0  0  0  0  1  0  0  0  0  0  0
  157.7600  211.0740  155.9160 C   0  0  0  0  0  2  0  0  0  0  0  0
  160.2590  210.8290  155.7270 C   0  0  1  0  0  3  0  0  0  0  0  0
  161.4060  211.0990  156.6060 N   0  0  0  0  0  2  0  0  0  0  0  0
  160.5610  209.9170  156.8250 C   0  0  0  0  0  2  0  0  0  0  0  0
  1  5  1  6  0  0  0
  1 37  1  0  0  0  0
  3  2  1  0  0  0  0
  3  1  1  0  0  0  0
  4  3  2  0  0  0  0
  6  5  1  0  0  0  0
  7  9  2  0  0  0  0
  9  8  1  0  0  0  0
  9  6  1  0  0  0  0
 10  8  1  0  0  0  0
 11  7  1  0  0  0  0
 11 10  2  0  0  0  0
 12 11  1  0  0  0  0
 13 12  1  0  0  0  0
 14 31  1  6  0  0  0
 14 16  1  0  0  0  0
 15 14  1  0  0  0  0
 15 13  1  0  0  0  0
 16 12  2  0  0  0  0
 16 17  1  0  0  0  0
 18 19  1  0  0  0  0
 19 28  1  0  0  0  0
 20 29  1  0  0  0  0
 21 28  1  0  0  0  0
 22 27  1  0  0  0  0
 23 29  1  6  0  0  0
 23 18  1  0  0  0  0
 24 17  1  1  0  0  0
 24 27  1  0  0  0  0
 25 21  1  0  0  0  0
 26 24  1  0  0  0  0
 26 20  1  0  0  0  0
 30 22  1  6  0  0  0
 30 23  1  0  0  0  0
 30 25  1  0  0  0  0
 31 32  1  0  0  0  0
 34 33  1  0  0  0  0
 36 33  1  0  0  0  0
 36 32  1  0  0  0  0
 37 41  1  0  0  0  0
 38 42  1  0  0  0  0
 39 38  1  0  0  0  0
 39 40  2  0  0  0  0
 41 39  1  0  0  0  0
 42 43  1  0  0  0  0
 43 44  1  0  0  0  0
 44 45  1  0  0  0  0
 46 44  1  0  0  0  0
 47 46  1  0  0  0  0
 48 56  1  0  0  0  0
 50 49  1  6  0  0  0
 50 52  1  0  0  0  0
 50 58  1  0  0  0  0
 52 51  1  1  0  0  0
 53 51  1  6  0  0  0
 53 57  1  0  0  0  0
 54 48  1  0  0  0  0
 54 49  1  0  0  0  0
 55 61  1  0  0  0  0
 56 47  1  1  0  0  0
 56 52  1  0  0  0  0
 57 61  1  6  0  0  0
 58 60  1  1  0  0  0
 58 59  1  0  0  0  0
 59 53  1  0  0  0  0
 59 55  1  6  0  0  0
 62 57  1  0  0  0  0
 62 63  1  0  0  0  0
 62 64  1  1  0  0  0
 63 64  1  0  0  0  0
M  END
>  <MODEL>
3

>  <REMARK>
 VINA RESULT:      -1.8      3.895     12.132
  Name = 
  18 active torsions:
  status: ('A' for Active; 'I' for Inactive)
    1  A    between atoms: C_1  and  C_41
    2  A    between atoms: C_1  and  C_47
    3  A    between atoms: C_2  and  C_53
    4  A    between atoms: C_5  and  C_64
    5  A    between atoms: C_8  and  N_28
    6  A    between atoms: C_9  and  N_23
    7  A    between atoms: C_9  and  N_42
    8  A    between atoms: C_22  and  C_39
    9  A    between atoms: C_22  and  N_40
   10  A    between atoms: C_22  and  C_47
   11  A    between atoms: N_28  and  C_38
   12  A    between atoms: C_29  and  N_33
   13  A    between atoms: N_33  and  C_61
   14  A    between atoms: N_34  and  N_40
   15  A    between atoms: N_42  and  N_44
   16  A    between atoms: C_43  and  N_44
   17  A    between atoms: C_43  and  C_60
   18  A    between atoms: C_51  and  C_60
                            x       y       z     vdW  Elec       q    Type
                         _______ _______ _______ _____ _____    ______ ____

>  <TORSDO>
F 18

$$$$
