=
 OpenBabel11052411583D

 63 70  0  0  1  0  0  0  0  0999 V2000
  160.8090  210.5670  152.7090 C   0  0  1  0  0  3  0  0  0  0  0  0
  161.8160  208.7440  150.3510 C   0  0  0  0  0  2  0  0  0  0  0  0
  162.5580  210.0710  150.3720 C   0  0  0  0  0  2  0  0  0  0  0  0
  161.6030  211.2300  150.4260 C   0  0  0  0  0  0  0  0  0  0  0  0
  161.4490  208.3110  151.7670 C   0  0  1  0  0  3  0  0  0  0  0  0
  160.3270  209.1590  152.3590 C   0  0  0  0  0  2  0  0  0  0  0  0
  160.8320  211.4510  151.4950 C   0  0  0  0  0  3  0  0  0  0  0  0
  159.9420  212.5800  153.7010 O   0  0  0  0  0  1  0  0  0  0  0  0
  159.9680  211.1890  153.8340 C   0  0  2  0  0  3  0  0  0  0  0  0
  161.6790  210.8870  155.5580 C   0  0  0  0  0  2  0  0  0  0  0  0
  160.3960  210.7710  155.2260 C   0  0  0  0  0  0  0  0  0  0  0  0
  160.1800  208.9460  156.7430 O   0  0  0  0  0  1  0  0  0  0  0  0
  159.4960  210.0140  156.1600 C   0  0  1  0  0  3  0  0  0  0  0  0
  158.9690  210.8950  157.1920 N   0  0  0  0  0  2  0  0  0  0  0  0
  158.7140  213.4010  156.8450 C   0  0  0  0  0  2  0  0  0  0  0  0
  155.7850  212.8350  156.4970 C   0  0  0  0  0  2  0  0  0  0  0  0
  157.7800  214.4530  156.2720 C   0  0  0  0  0  2  0  0  0  0  0  0
  156.8050  211.7840  156.8250 C   0  0  0  0  0  3  0  0  0  0  0  0
  156.2270  214.4490  157.2020 S   0  0  0  0  0  0  0  0  0  0  0  0
  158.1210  212.0100  156.9080 C   0  0  0  0  0  0  0  0  0  0  0  0
  161.0890  206.8290  151.8080 C   0  0  0  0  0  2  0  0  0  0  0  0
  162.1590  205.9510  151.1760 C   0  0  0  0  0  2  0  0  0  0  0  0
  161.5520  205.1630  150.0610 C   0  0  0  0  0  3  0  0  0  0  0  0
  161.2170  203.8670  150.1660 C   0  0  0  0  0  0  0  0  0  0  0  0
  161.1110  203.9100  152.6460 C   0  0  0  0  0  2  0  0  0  0  0  0
  160.1980  202.8020  152.1790 C   0  0  0  0  0  2  0  0  0  0  0  0
  161.4890  203.0840  151.4270 C   0  0  0  0  0  3  0  0  0  0  0  0
  160.6940  203.1350  148.9550 C   0  0  2  0  0  3  0  0  0  0  0  0
  161.7880  200.8830  149.0720 O   0  0  0  0  0  0  0  0  0  0  0  0
  160.6390  201.6570  149.1810 C   0  0  0  0  0  0  0  0  0  0  0  0
  159.5470  201.1150  149.4940 O   0  0  0  0  0  1  0  0  0  0  0  0
  161.6400  203.5620  147.4550 S   0  0  0  0  0  0  0  0  0  0  0  0
  160.9860  205.2560  147.3880 C   0  0  0  0  0  2  0  0  0  0  0  0
  161.5880  205.9550  146.3360 O   0  0  0  0  0  0  0  0  0  0  0  0
  161.5450  205.4550  143.8900 C   0  0  0  0  0  2  0  0  0  0  0  0
  160.9680  204.2750  144.6700 C   0  0  2  0  0  3  0  0  0  0  0  0
  159.5290  206.2270  145.1340 O   0  0  0  0  0  1  0  0  0  0  0  0
  159.7900  203.8430  144.0550 O   0  0  0  0  0  1  0  0  0  0  0  0
  160.8200  205.6920  145.1940 C   0  0  1  0  0  0  0  0  0  0  0  0
  161.4990  212.1090  149.3460 O   0  0  0  0  0  0  0  0  0  0  0  0
  161.3780  211.6510  148.0060 C   0  0  0  0  0  2  0  0  0  0  0  0
  160.3550  212.4930  147.2650 C   0  0  0  0  0  2  0  0  0  0  0  0
  161.9250  213.1520  143.3290 C   0  0  0  0  0  0  0  0  0  0  0  0
  162.2990  212.9870  142.0590 C   0  0  0  0  0  2  0  0  0  0  0  0
  162.4910  213.0950  145.8610 C   0  0  0  0  0  3  0  0  0  0  0  0
  159.4870  212.8060  142.6750 C   0  0  0  0  0  3  0  0  0  0  0  0
  160.4930  213.2130  143.6590 C   0  0  0  0  0  0  0  0  0  0  0  0
  160.3580  213.1620  144.9340 C   0  0  0  0  0  3  0  0  0  0  0  0
  159.8650  212.6690  141.3990 C   0  0  0  0  0  3  0  0  0  0  0  0
  162.8900  213.1250  144.4190 N   0  0  0  0  0  0  0  0  0  0  0  0
  161.2790  212.9840  140.9390 C   0  0  2  0  0  3  0  0  0  0  0  0
  160.9770  213.1200  146.0650 C   0  0  0  0  0  0  0  0  0  0  0  0
  161.6830  212.0380  139.9110 N   0  0  0  0  0  2  0  0  0  0  0  0
  161.5030  209.8320  140.6460 O   0  0  0  0  0  1  0  0  0  0  0  0
  160.8170  210.8710  140.0150 C   0  0  2  0  0  3  0  0  0  0  0  0
  160.3340  210.4200  138.6370 C   0  0  0  0  0  2  0  0  0  0  0  0
  158.8760  209.9830  138.6590 C   0  0  1  0  0  3  0  0  0  0  0  0
  156.5290  211.3190  137.8430 C   0  0  0  0  0  2  0  0  0  0  0  0
  157.0090  210.0760  137.2240 C   0  0  1  0  0  3  0  0  0  0  0  0
  158.1270  210.8900  139.3760 O   0  0  0  0  0  0  0  0  0  0  0  0
  158.0250  211.0100  137.9620 C   0  0  1  0  0  0  0  0  0  0  0  0
  156.3750  208.9250  138.0120 C   0  0  0  0  0  2  0  0  0  0  0  0
  155.0090  209.3450  138.5140 C   0  0  0  0  0  1  0  0  0  0  0  0
  1  9  1  1  0  0  0
  2  3  1  0  0  0  0
  2  5  1  0  0  0  0
  3  4  1  0  0  0  0
  4  7  2  0  0  0  0
  5 21  1  6  0  0  0
  5  6  1  0  0  0  0
  6  1  1  0  0  0  0
  7  1  1  0  0  0  0
  9  8  1  1  0  0  0
  9 11  1  0  0  0  0
 11 10  2  0  0  0  0
 11 13  1  0  0  0  0
 13 12  1  1  0  0  0
 13 14  1  0  0  0  0
 15 20  1  0  0  0  0
 16 18  1  0  0  0  0
 16 19  1  0  0  0  0
 17 15  1  0  0  0  0
 17 19  1  0  0  0  0
 18 20  2  0  0  0  0
 20 14  1  0  0  0  0
 22 21  1  0  0  0  0
 23 24  2  0  0  0  0
 23 22  1  0  0  0  0
 24 27  1  0  0  0  0
 26 25  1  0  0  0  0
 27 26  1  0  0  0  0
 27 25  1  0  0  0  0
 28 32  1  6  0  0  0
 28 30  1  0  0  0  0
 28 24  1  0  0  0  0
 29 30  2  0  0  0  0
 30 31  1  0  0  0  0
 33 32  1  0  0  0  0
 34 33  1  0  0  0  0
 35 36  1  0  0  0  0
 35 39  1  0  0  0  0
 36 38  1  6  0  0  0
 36 39  1  0  0  0  0
 39 37  1  6  0  0  0
 39 34  1  0  0  0  0
 40  4  1  0  0  0  0
 41 40  1  0  0  0  0
 42 41  1  0  0  0  0
 43 47  2  0  0  0  0
 43 50  1  0  0  0  0
 44 43  1  0  0  0  0
 45 52  1  0  0  0  0
 46 47  1  0  0  0  0
 47 48  1  0  0  0  0
 48 52  2  0  0  0  0
 49 46  2  0  0  0  0
 50 45  2  0  0  0  0
 51 53  1  6  0  0  0
 51 49  1  0  0  0  0
 51 44  1  0  0  0  0
 52 42  1  0  0  0  0
 53 55  1  0  0  0  0
 55 54  1  6  0  0  0
 56 55  1  0  0  0  0
 57 56  1  6  0  0  0
 57 60  1  0  0  0  0
 59 58  1  0  0  0  0
 59 61  1  0  0  0  0
 59 62  1  1  0  0  0
 61 58  1  6  0  0  0
 61 57  1  0  0  0  0
 61 60  1  0  0  0  0
 62 63  1  0  0  0  0
M  END
>  <MODEL>
1

>  <REMARK>
 VINA RESULT:      -6.6      0.000      0.000
  Name = 
  24 active torsions:
  status: ('A' for Active; 'I' for Inactive)
    1  A    between atoms: C_1  and  C_49
    2  A    between atoms: C_3  and  C_52
    3  A    between atoms: C_5  and  C_10
    4  A    between atoms: C_5  and  C_26
    5  A    between atoms: C_6  and  O_28
    6  A    between atoms: C_6  and  S_29
    7  A    between atoms: O_8  and  C_21
    8  A    between atoms: O_8  and  C_61
    9  A    between atoms: N_13  and  C_26
   10  A    between atoms: N_13  and  C_58
   11  A    between atoms: C_17  and  C_22
   12  A    between atoms: C_17  and  C_42
   13  A    between atoms: C_18  and  C_43
   14  A    between atoms: O_28  and  C_45
   15  A    between atoms: S_29  and  C_52
   16  A    between atoms: C_30  and  C_59
   17  A    between atoms: C_30  and  C_61
   18  A    between atoms: N_34  and  C_60
   19  A    between atoms: N_34  and  C_63
   20  A    between atoms: C_37  and  C_53
   21  A    between atoms: C_40  and  C_49
   22  A    between atoms: C_40  and  C_60
   23  A    between atoms: C_42  and  C_44
   24  A    between atoms: C_52  and  C_53
                            x       y       z     vdW  Elec       q    Type
                         _______ _______ _______ _____ _____    ______ ____

>  <TORSDO>
F 24

$$$$
=
 OpenBabel11052411583D

 63 70  0  0  1  0  0  0  0  0999 V2000
  161.8940  207.3410  148.8630 C   0  0  1  0  0  3  0  0  0  0  0  0
  161.7610  208.9720  151.5500 C   0  0  0  0  0  2  0  0  0  0  0  0
  161.0290  209.6980  150.4310 C   0  0  0  0  0  2  0  0  0  0  0  0
  161.8910  209.8240  149.2060 C   0  0  0  0  0  0  0  0  0  0  0  0
  161.6450  207.4610  151.3750 C   0  0  1  0  0  3  0  0  0  0  0  0
  162.4910  206.9460  150.2130 C   0  0  0  0  0  2  0  0  0  0  0  0
  162.2590  208.7510  148.4980 C   0  0  0  0  0  3  0  0  0  0  0  0
  163.4170  206.8440  147.0680 O   0  0  0  0  0  1  0  0  0  0  0  0
  162.3010  206.3580  147.7550 C   0  0  2  0  0  3  0  0  0  0  0  0
  160.0280  206.6620  146.9020 C   0  0  0  0  0  2  0  0  0  0  0  0
  161.1770  205.9970  146.8060 C   0  0  0  0  0  0  0  0  0  0  0  0
  161.7170  205.0870  144.6710 O   0  0  0  0  0  1  0  0  0  0  0  0
  161.2090  204.7760  145.9330 C   0  0  1  0  0  3  0  0  0  0  0  0
  162.0080  203.7260  146.5500 N   0  0  0  0  0  2  0  0  0  0  0  0
  161.2020  201.4490  147.3460 C   0  0  0  0  0  2  0  0  0  0  0  0
  160.7960  202.7670  150.0130 C   0  0  0  0  0  2  0  0  0  0  0  0
  160.9660  200.6200  148.5960 C   0  0  0  0  0  2  0  0  0  0  0  0
  161.2690  203.4930  148.7880 C   0  0  0  0  0  3  0  0  0  0  0  0
  159.6750  201.3990  149.6000 S   0  0  0  0  0  0  0  0  0  0  0  0
  161.5260  202.9030  147.6150 C   0  0  0  0  0  0  0  0  0  0  0  0
  162.0000  206.7340  152.6680 C   0  0  0  0  0  2  0  0  0  0  0  0
  161.0390  207.0590  153.8020 C   0  0  0  0  0  2  0  0  0  0  0  0
  161.2480  208.4740  154.2320 C   0  0  0  0  0  3  0  0  0  0  0  0
  160.6520  209.0190  155.3060 C   0  0  0  0  0  0  0  0  0  0  0  0
  159.9440  206.7480  156.0180 C   0  0  0  0  0  2  0  0  0  0  0  0
  160.3670  207.4940  157.2600 C   0  0  0  0  0  2  0  0  0  0  0  0
  159.6630  208.2370  156.1360 C   0  0  0  0  0  3  0  0  0  0  0  0
  160.8570  210.4820  155.6060 C   0  0  2  0  0  3  0  0  0  0  0  0
  162.0860  211.9090  157.2610 O   0  0  0  0  0  1  0  0  0  0  0  0
  161.9620  210.6970  156.5930 C   0  0  0  0  0  0  0  0  0  0  0  0
  162.7700  209.7630  156.8380 O   0  0  0  0  0  0  0  0  0  0  0  0
  159.3060  211.2820  156.1350 S   0  0  0  0  0  0  0  0  0  0  0  0
  159.5040  212.6780  154.9890 C   0  0  0  0  0  2  0  0  0  0  0  0
  160.2790  212.2850  153.8920 O   0  0  0  0  0  0  0  0  0  0  0  0
  158.1330  211.8540  152.6920 C   0  0  0  0  0  2  0  0  0  0  0  0
  158.2560  213.3420  153.0140 C   0  0  2  0  0  3  0  0  0  0  0  0
  160.1510  212.7560  151.5430 O   0  0  0  0  0  1  0  0  0  0  0  0
  157.9110  214.0910  151.8860 O   0  0  0  0  0  1  0  0  0  0  0  0
  159.4950  212.5040  152.7520 C   0  0  1  0  0  0  0  0  0  0  0  0
  162.3310  211.0780  148.7790 O   0  0  0  0  0  0  0  0  0  0  0  0
  161.5060  211.9520  148.0200 C   0  0  0  0  0  2  0  0  0  0  0  0
  162.2280  213.2660  147.7850 C   0  0  0  0  0  2  0  0  0  0  0  0
  162.2340  212.8930  143.5120 C   0  0  0  0  0  0  0  0  0  0  0  0
  162.1890  212.4010  142.2730 C   0  0  0  0  0  2  0  0  0  0  0  0
  163.6090  213.6390  145.5830 C   0  0  0  0  0  3  0  0  0  0  0  0
  159.8380  212.1290  143.9220 C   0  0  0  0  0  3  0  0  0  0  0  0
  161.0120  212.9050  144.3300 C   0  0  0  0  0  0  0  0  0  0  0  0
  161.3210  213.2180  145.5360 C   0  0  0  0  0  3  0  0  0  0  0  0
  159.7900  211.6620  142.6700 C   0  0  0  0  0  3  0  0  0  0  0  0
  163.4910  213.2840  144.1330 N   0  0  0  0  0  0  0  0  0  0  0  0
  160.8770  211.9670  141.6520 C   0  0  2  0  0  3  0  0  0  0  0  0
  162.2770  213.5720  146.3270 C   0  0  0  0  0  0  0  0  0  0  0  0
  161.0970  210.8070  140.8040 N   0  0  0  0  0  2  0  0  0  0  0  0
  160.2760  212.4700  139.3910 O   0  0  0  0  0  1  0  0  0  0  0  0
  160.5420  211.1040  139.4900 C   0  0  2  0  0  3  0  0  0  0  0  0
  159.2670  210.3000  139.2360 C   0  0  0  0  0  2  0  0  0  0  0  0
  158.0340  211.1900  139.1760 C   0  0  1  0  0  3  0  0  0  0  0  0
  155.6680  210.9760  137.6550 C   0  0  0  0  0  2  0  0  0  0  0  0
  155.6940  210.9200  139.1230 C   0  0  1  0  0  3  0  0  0  0  0  0
  157.8220  211.6070  137.8800 O   0  0  0  0  0  0  0  0  0  0  0  0
  156.9810  210.5450  138.3160 C   0  0  1  0  0  0  0  0  0  0  0  0
  155.5400  212.3630  139.6150 C   0  0  0  0  0  2  0  0  0  0  0  0
  154.1650  212.8810  139.2470 C   0  0  0  0  0  1  0  0  0  0  0  0
  1  9  1  6  0  0  0
  1  6  1  0  0  0  0
  3  2  1  0  0  0  0
  4  3  1  0  0  0  0
  5  2  1  0  0  0  0
  5 21  1  1  0  0  0
  6  5  1  0  0  0  0
  7  1  1  0  0  0  0
  7  4  2  0  0  0  0
  9  8  1  6  0  0  0
 11 10  2  0  0  0  0
 11  9  1  0  0  0  0
 13 12  1  6  0  0  0
 13 14  1  0  0  0  0
 13 11  1  0  0  0  0
 14 20  1  0  0  0  0
 15 20  1  0  0  0  0
 15 17  1  0  0  0  0
 17 19  1  0  0  0  0
 18 16  1  0  0  0  0
 19 16  1  0  0  0  0
 20 18  2  0  0  0  0
 21 22  1  0  0  0  0
 22 23  1  0  0  0  0
 23 24  2  0  0  0  0
 24 27  1  0  0  0  0
 25 27  1  0  0  0  0
 25 26  1  0  0  0  0
 27 26  1  0  0  0  0
 28 24  1  1  0  0  0
 28 32  1  0  0  0  0
 28 30  1  0  0  0  0
 30 31  2  0  0  0  0
 30 29  1  0  0  0  0
 33 32  1  0  0  0  0
 34 33  1  0  0  0  0
 35 39  1  0  0  0  0
 35 36  1  0  0  0  0
 36 38  1  6  0  0  0
 39 37  1  6  0  0  0
 39 36  1  0  0  0  0
 39 34  1  0  0  0  0
 40  4  1  0  0  0  0
 41 40  1  0  0  0  0
 42 41  1  0  0  0  0
 43 50  2  0  0  0  0
 43 47  1  0  0  0  0
 44 43  1  0  0  0  0
 45 52  2  0  0  0  0
 46 47  1  0  0  0  0
 47 48  2  0  0  0  0
 48 52  1  0  0  0  0
 49 46  2  0  0  0  0
 50 45  1  0  0  0  0
 51 53  1  1  0  0  0
 51 44  1  0  0  0  0
 51 49  1  0  0  0  0
 52 42  1  0  0  0  0
 55 54  1  1  0  0  0
 55 53  1  0  0  0  0
 56 55  1  0  0  0  0
 57 56  1  6  0  0  0
 58 59  1  0  0  0  0
 59 62  1  1  0  0  0
 60 61  1  0  0  0  0
 60 57  1  0  0  0  0
 61 58  1  6  0  0  0
 61 59  1  0  0  0  0
 61 57  1  0  0  0  0
 63 62  1  0  0  0  0
M  END
>  <MODEL>
2

>  <REMARK>
 VINA RESULT:      -6.3      2.699      7.952
  Name = 
  24 active torsions:
  status: ('A' for Active; 'I' for Inactive)
    1  A    between atoms: C_1  and  C_49
    2  A    between atoms: C_3  and  C_52
    3  A    between atoms: C_5  and  C_10
    4  A    between atoms: C_5  and  C_26
    5  A    between atoms: C_6  and  O_28
    6  A    between atoms: C_6  and  S_29
    7  A    between atoms: O_8  and  C_21
    8  A    between atoms: O_8  and  C_61
    9  A    between atoms: N_13  and  C_26
   10  A    between atoms: N_13  and  C_58
   11  A    between atoms: C_17  and  C_22
   12  A    between atoms: C_17  and  C_42
   13  A    between atoms: C_18  and  C_43
   14  A    between atoms: O_28  and  C_45
   15  A    between atoms: S_29  and  C_52
   16  A    between atoms: C_30  and  C_59
   17  A    between atoms: C_30  and  C_61
   18  A    between atoms: N_34  and  C_60
   19  A    between atoms: N_34  and  C_63
   20  A    between atoms: C_37  and  C_53
   21  A    between atoms: C_40  and  C_49
   22  A    between atoms: C_40  and  C_60
   23  A    between atoms: C_42  and  C_44
   24  A    between atoms: C_52  and  C_53
                            x       y       z     vdW  Elec       q    Type
                         _______ _______ _______ _____ _____    ______ ____

>  <TORSDO>
F 24

$$$$
=
 OpenBabel11052411583D

 63 70  0  0  1  0  0  0  0  0999 V2000
  161.7270  205.8470  148.2160 C   0  0  1  0  0  3  0  0  0  0  0  0
  161.7960  207.4850  150.9010 C   0  0  0  0  0  2  0  0  0  0  0  0
  161.0310  208.2350  149.8210 C   0  0  0  0  0  2  0  0  0  0  0  0
  161.8300  208.3280  148.5510 C   0  0  0  0  0  0  0  0  0  0  0  0
  161.6180  205.9780  150.7370 C   0  0  1  0  0  3  0  0  0  0  0  0
  162.3820  205.4320  149.5340 C   0  0  0  0  0  2  0  0  0  0  0  0
  162.1210  207.2430  147.8270 C   0  0  0  0  0  3  0  0  0  0  0  0
  163.3240  205.0760  146.5900 O   0  0  0  0  0  1  0  0  0  0  0  0
  162.0400  204.8490  147.0910 C   0  0  2  0  0  3  0  0  0  0  0  0
  160.5810  205.9840  145.4860 C   0  0  0  0  0  2  0  0  0  0  0  0
  161.0070  204.8250  145.9830 C   0  0  0  0  0  0  0  0  0  0  0  0
  160.0900  203.5300  144.2040 O   0  0  0  0  0  1  0  0  0  0  0  0
  160.2670  203.5790  145.5880 C   0  0  1  0  0  3  0  0  0  0  0  0
  160.9780  202.3930  146.0440 N   0  0  0  0  0  0  0  0  0  0  0  0
  161.4300  200.5500  147.7370 C   0  0  0  0  0  2  0  0  0  0  0  0
  160.3880  202.4800  149.7890 C   0  0  0  0  0  2  0  0  0  0  0  0
  161.6350  200.2960  149.2200 C   0  0  0  0  0  2  0  0  0  0  0  0
  160.4400  202.7730  148.3180 C   0  0  0  0  0  2  0  0  0  0  0  0
  160.1190  200.7140  150.1170 S   0  0  0  0  0  0  0  0  0  0  0  0
  160.9700  201.9540  147.4040 C   0  0  0  0  0  0  0  0  0  0  0  0
  162.0150  205.2410  152.0110 C   0  0  0  0  0  2  0  0  0  0  0  0
  161.1200  205.5910  153.1910 C   0  0  0  0  0  2  0  0  0  0  0  0
  161.1760  207.0640  153.4300 C   0  0  0  0  0  3  0  0  0  0  0  0
  160.9340  207.6310  154.6240 C   0  0  0  0  0  0  0  0  0  0  0  0
  160.0830  207.7130  156.9540 C   0  0  0  0  0  2  0  0  0  0  0  0
  159.0470  206.9930  156.1250 C   0  0  0  0  0  2  0  0  0  0  0  0
  160.5240  206.8050  155.8180 C   0  0  0  0  0  3  0  0  0  0  0  0
  160.9270  209.1340  154.7430 C   0  0  2  0  0  3  0  0  0  0  0  0
  162.2350  210.2230  152.9030 O   0  0  0  0  0  1  0  0  0  0  0  0
  161.0110  209.7980  153.4040 C   0  0  0  0  0  0  0  0  0  0  0  0
  159.9670  209.9500  152.7170 O   0  0  0  0  0  0  0  0  0  0  0  0
  162.2270  209.7230  155.8780 S   0  0  0  0  0  0  0  0  0  0  0  0
  161.1760  211.0250  156.5870 C   0  0  0  0  0  2  0  0  0  0  0  0
  159.8350  210.7700  156.2810 O   0  0  0  0  0  0  0  0  0  0  0  0
  158.5230  212.3270  154.8360 C   0  0  0  0  0  2  0  0  0  0  0  0
  157.7000  211.9440  156.0640 C   0  0  2  0  0  3  0  0  0  0  0  0
  159.7290  213.0920  156.8780 O   0  0  0  0  0  1  0  0  0  0  0  0
  157.1130  213.0910  156.6060 O   0  0  0  0  0  1  0  0  0  0  0  0
  159.2140  212.0190  156.1430 C   0  0  1  0  0  0  0  0  0  0  0  0
  162.2900  209.5660  148.0970 O   0  0  0  0  0  0  0  0  0  0  0  0
  161.9300  210.7870  148.7290 C   0  0  0  0  0  2  0  0  0  0  0  0
  162.9410  211.8640  148.3830 C   0  0  0  0  0  2  0  0  0  0  0  0
  161.4570  213.8820  144.9010 C   0  0  0  0  0  0  0  0  0  0  0  0
  161.1170  214.1820  143.6470 C   0  0  0  0  0  2  0  0  0  0  0  0
  163.1700  213.9820  146.8480 C   0  0  0  0  0  3  0  0  0  0  0  0
  159.8090  211.9390  144.9030 C   0  0  0  0  0  3  0  0  0  0  0  0
  160.7100  212.8410  145.6240 C   0  0  0  0  0  0  0  0  0  0  0  0
  161.3260  212.5700  146.7170 C   0  0  0  0  0  3  0  0  0  0  0  0
  159.4530  212.2610  143.6540 C   0  0  0  0  0  3  0  0  0  0  0  0
  162.6410  214.4500  145.5280 N   0  0  0  0  0  0  0  0  0  0  0  0
  159.9000  213.5560  142.9970 C   0  0  2  0  0  3  0  0  0  0  0  0
  162.3280  212.8710  147.4720 C   0  0  0  0  0  0  0  0  0  0  0  0
  160.1630  213.3250  141.5850 N   0  0  0  0  0  2  0  0  0  0  0  0
  162.0480  211.9570  141.4730 O   0  0  0  0  0  1  0  0  0  0  0  0
  160.6530  211.9600  141.4410 C   0  0  2  0  0  3  0  0  0  0  0  0
  160.1550  211.3310  140.1410 C   0  0  0  0  0  2  0  0  0  0  0  0
  160.5090  209.8540  140.0500 C   0  0  1  0  0  3  0  0  0  0  0  0
  161.0410  208.2100  137.8190 C   0  0  0  0  0  2  0  0  0  0  0  0
  162.0310  208.4990  138.8650 C   0  0  1  0  0  3  0  0  0  0  0  0
  159.6010  209.2040  139.2430 O   0  0  0  0  0  0  0  0  0  0  0  0
  160.8490  209.4980  138.6270 C   0  0  1  0  0  0  0  0  0  0  0  0
  161.8620  207.4150  139.9340 C   0  0  0  0  0  2  0  0  0  0  0  0
  162.4410  206.1090  139.4300 C   0  0  0  0  0  1  0  0  0  0  0  0
  1  9  1  6  0  0  0
  1  6  1  0  0  0  0
  3  2  1  0  0  0  0
  4  3  1  0  0  0  0
  5  2  1  0  0  0  0
  5 21  1  1  0  0  0
  6  5  1  0  0  0  0
  7  1  1  0  0  0  0
  7  4  2  0  0  0  0
  9  8  1  6  0  0  0
 10 11  2  0  0  0  0
 11  9  1  0  0  0  0
 13 12  1  6  0  0  0
 13 11  1  0  0  0  0
 13 14  1  0  0  0  0
 14 20  2  0  0  0  0
 15 17  1  0  0  0  0
 16 19  1  0  0  0  0
 17 19  1  0  0  0  0
 18 16  1  0  0  0  0
 20 15  1  0  0  0  0
 20 18  1  0  0  0  0
 21 22  1  0  0  0  0
 22 23  1  0  0  0  0
 23 24  2  0  0  0  0
 24 28  1  0  0  0  0
 24 27  1  0  0  0  0
 26 25  1  0  0  0  0
 27 26  1  0  0  0  0
 27 25  1  0  0  0  0
 28 30  1  6  0  0  0
 28 32  1  0  0  0  0
 29 30  1  0  0  0  0
 31 30  2  0  0  0  0
 32 33  1  0  0  0  0
 34 33  1  0  0  0  0
 35 36  1  0  0  0  0
 35 39  1  0  0  0  0
 36 39  1  0  0  0  0
 36 38  1  1  0  0  0
 39 34  1  0  0  0  0
 39 37  1  1  0  0  0
 40  4  1  0  0  0  0
 40 41  1  0  0  0  0
 42 41  1  0  0  0  0
 43 50  2  0  0  0  0
 43 47  1  0  0  0  0
 44 43  1  0  0  0  0
 45 52  2  0  0  0  0
 46 47  1  0  0  0  0
 47 48  2  0  0  0  0
 48 52  1  0  0  0  0
 49 46  2  0  0  0  0
 50 45  1  0  0  0  0
 51 53  1  6  0  0  0
 51 44  1  0  0  0  0
 51 49  1  0  0  0  0
 52 42  1  0  0  0  0
 55 54  1  6  0  0  0
 55 53  1  0  0  0  0
 56 55  1  0  0  0  0
 57 56  1  6  0  0  0
 58 59  1  0  0  0  0
 59 62  1  1  0  0  0
 60 57  1  0  0  0  0
 61 58  1  6  0  0  0
 61 59  1  0  0  0  0
 61 60  1  0  0  0  0
 61 57  1  0  0  0  0
 63 62  1  0  0  0  0
M  END
>  <MODEL>
3

>  <REMARK>
 VINA RESULT:      -5.8      2.950      8.484
  Name = 
  24 active torsions:
  status: ('A' for Active; 'I' for Inactive)
    1  A    between atoms: C_1  and  C_49
    2  A    between atoms: C_3  and  C_52
    3  A    between atoms: C_5  and  C_10
    4  A    between atoms: C_5  and  C_26
    5  A    between atoms: C_6  and  O_28
    6  A    between atoms: C_6  and  S_29
    7  A    between atoms: O_8  and  C_21
    8  A    between atoms: O_8  and  C_61
    9  A    between atoms: N_13  and  C_26
   10  A    between atoms: N_13  and  C_58
   11  A    between atoms: C_17  and  C_22
   12  A    between atoms: C_17  and  C_42
   13  A    between atoms: C_18  and  C_43
   14  A    between atoms: O_28  and  C_45
   15  A    between atoms: S_29  and  C_52
   16  A    between atoms: C_30  and  C_59
   17  A    between atoms: C_30  and  C_61
   18  A    between atoms: N_34  and  C_60
   19  A    between atoms: N_34  and  C_63
   20  A    between atoms: C_37  and  C_53
   21  A    between atoms: C_40  and  C_49
   22  A    between atoms: C_40  and  C_60
   23  A    between atoms: C_42  and  C_44
   24  A    between atoms: C_52  and  C_53
                            x       y       z     vdW  Elec       q    Type
                         _______ _______ _______ _____ _____    ______ ____

>  <TORSDO>
F 24

$$$$
=
 OpenBabel11052411583D

 63 70  0  0  1  0  0  0  0  0999 V2000
  161.5330  209.7490  152.1150 C   0  0  1  0  0  3  0  0  0  0  0  0
  162.3780  207.7080  149.8750 C   0  0  0  0  0  2  0  0  0  0  0  0
  162.9390  209.0940  149.5930 C   0  0  0  0  0  2  0  0  0  0  0  0
  161.8650  210.1430  149.6620 C   0  0  0  0  0  0  0  0  0  0  0  0
  162.2980  207.4560  151.3770 C   0  0  1  0  0  3  0  0  0  0  0  0
  161.1850  208.2620  152.0410 C   0  0  0  0  0  2  0  0  0  0  0  0
  161.2510  210.4400  150.8120 C   0  0  0  0  0  3  0  0  0  0  0  0
  161.1580  211.7940  153.3250 O   0  0  0  0  0  1  0  0  0  0  0  0
  160.8090  210.4420  153.2790 C   0  0  2  0  0  3  0  0  0  0  0  0
  160.6620  208.4930  154.7520 C   0  0  0  0  0  2  0  0  0  0  0  0
  161.0140  209.7690  154.6210 C   0  0  0  0  0  0  0  0  0  0  0  0
  162.7500  210.5800  156.0390 O   0  0  0  0  0  1  0  0  0  0  0  0
  161.3660  210.5300  155.8670 C   0  0  1  0  0  3  0  0  0  0  0  0
  160.8170  211.8780  155.8160 N   0  0  0  0  0  0  0  0  0  0  0  0
  158.4380  211.0330  156.1220 C   0  0  0  0  0  2  0  0  0  0  0  0
  157.6680  213.9290  156.3220 C   0  0  0  0  0  2  0  0  0  0  0  0
  157.0680  211.4410  156.6340 C   0  0  0  0  0  2  0  0  0  0  0  0
  159.0670  213.4540  156.0600 C   0  0  0  0  0  2  0  0  0  0  0  0
  156.4280  212.8000  155.6230 S   0  0  0  0  0  0  0  0  0  0  0  0
  159.4360  212.1680  156.0430 C   0  0  0  0  0  0  0  0  0  0  0  0
  162.1400  205.9680  151.6730 C   0  0  0  0  0  2  0  0  0  0  0  0
  160.7070  205.4880  151.5010 C   0  0  0  0  0  2  0  0  0  0  0  0
  160.5690  204.8150  150.1750 C   0  0  0  0  0  3  0  0  0  0  0  0
  160.5510  203.4800  150.0190 C   0  0  0  0  0  0  0  0  0  0  0  0
  161.7040  201.4390  150.8340 C   0  0  0  0  0  2  0  0  0  0  0  0
  162.1640  202.5870  151.7000 C   0  0  0  0  0  2  0  0  0  0  0  0
  160.7310  202.5500  151.1930 C   0  0  0  0  0  3  0  0  0  0  0  0
  160.5000  202.8970  148.6300 C   0  0  2  0  0  3  0  0  0  0  0  0
  160.9900  200.4870  148.1450 O   0  0  0  0  0  0  0  0  0  0  0  0
  160.1230  201.4480  148.6500 C   0  0  0  0  0  0  0  0  0  0  0  0
  159.0220  201.0970  149.1490 O   0  0  0  0  0  1  0  0  0  0  0  0
  162.0570  203.1840  147.7240 S   0  0  0  0  0  0  0  0  0  0  0  0
  161.2570  203.0900  146.0940 C   0  0  0  0  0  2  0  0  0  0  0  0
  162.1080  203.6180  145.1180 O   0  0  0  0  0  0  0  0  0  0  0  0
  161.3100  205.5570  143.7630 C   0  0  0  0  0  2  0  0  0  0  0  0
  160.3650  205.3240  144.9400 C   0  0  2  0  0  3  0  0  0  0  0  0
  162.5870  205.8410  145.8830 O   0  0  0  0  0  1  0  0  0  0  0  0
  160.0750  206.5460  145.5520 O   0  0  0  0  0  1  0  0  0  0  0  0
  161.8410  204.9920  145.0590 C   0  0  1  0  0  0  0  0  0  0  0  0
  161.4800  210.8350  148.5120 O   0  0  0  0  0  0  0  0  0  0  0  0
  161.9050  212.1660  148.2510 C   0  0  0  0  0  2  0  0  0  0  0  0
  160.7080  213.0270  147.8930 C   0  0  0  0  0  2  0  0  0  0  0  0
  161.3760  213.9740  143.7640 C   0  0  0  0  0  0  0  0  0  0  0  0
  161.5380  213.8830  142.4430 C   0  0  0  0  0  2  0  0  0  0  0  0
  162.3910  214.0420  146.1510 C   0  0  0  0  0  3  0  0  0  0  0  0
  158.9770  213.1420  143.5440 C   0  0  0  0  0  3  0  0  0  0  0  0
  160.0440  213.7470  144.3460 C   0  0  0  0  0  0  0  0  0  0  0  0
  160.1550  213.6740  145.6230 C   0  0  0  0  0  3  0  0  0  0  0  0
  159.1370  213.0790  142.2180 C   0  0  0  0  0  3  0  0  0  0  0  0
  162.5070  214.1460  144.6630 N   0  0  0  0  0  0  0  0  0  0  0  0
  160.3530  213.6710  141.5230 C   0  0  2  0  0  3  0  0  0  0  0  0
  160.9650  213.7620  146.6230 C   0  0  0  0  0  0  0  0  0  0  0  0
  160.7440  212.8220  140.4090 N   0  0  0  0  0  2  0  0  0  0  0  0
  161.4500  210.7040  141.0820 O   0  0  0  0  0  1  0  0  0  0  0  0
  160.3330  211.4590  140.7220 C   0  0  2  0  0  3  0  0  0  0  0  0
  159.6210  210.8130  139.5350 C   0  0  0  0  0  2  0  0  0  0  0  0
  160.1250  209.4030  139.2660 C   0  0  1  0  0  3  0  0  0  0  0  0
  161.4070  208.2920  137.0110 C   0  0  0  0  0  2  0  0  0  0  0  0
  162.0370  208.3860  138.3360 C   0  0  1  0  0  3  0  0  0  0  0  0
  159.5420  208.9070  138.1200 O   0  0  0  0  0  0  0  0  0  0  0  0
  160.8780  209.3700  137.9630 C   0  0  1  0  0  0  0  0  0  0  0  0
  161.6820  207.0940  139.0780 C   0  0  0  0  0  2  0  0  0  0  0  0
  162.3430  207.0930  140.4420 C   0  0  0  0  0  1  0  0  0  0  0  0
  1  9  1  1  0  0  0
  2  5  1  0  0  0  0
  3  4  1  0  0  0  0
  3  2  1  0  0  0  0
  4  7  2  0  0  0  0
  5 21  1  6  0  0  0
  5  6  1  0  0  0  0
  6  1  1  0  0  0  0
  7  1  1  0  0  0  0
  9  8  1  1  0  0  0
  9 11  1  0  0  0  0
 11 10  2  0  0  0  0
 11 13  1  0  0  0  0
 13 12  1  6  0  0  0
 14 13  1  0  0  0  0
 14 20  2  0  0  0  0
 15 17  1  0  0  0  0
 18 16  1  0  0  0  0
 19 16  1  0  0  0  0
 19 17  1  0  0  0  0
 20 18  1  0  0  0  0
 20 15  1  0  0  0  0
 22 21  1  0  0  0  0
 23 22  1  0  0  0  0
 24 23  2  0  0  0  0
 24 27  1  0  0  0  0
 25 27  1  0  0  0  0
 25 26  1  0  0  0  0
 27 26  1  0  0  0  0
 28 32  1  1  0  0  0
 28 30  1  0  0  0  0
 28 24  1  0  0  0  0
 29 30  2  0  0  0  0
 30 31  1  0  0  0  0
 33 32  1  0  0  0  0
 34 33  1  0  0  0  0
 35 36  1  0  0  0  0
 35 39  1  0  0  0  0
 36 39  1  0  0  0  0
 36 38  1  1  0  0  0
 39 34  1  0  0  0  0
 39 37  1  1  0  0  0
 40  4  1  0  0  0  0
 41 40  1  0  0  0  0
 42 41  1  0  0  0  0
 43 47  2  0  0  0  0
 43 50  1  0  0  0  0
 44 43  1  0  0  0  0
 45 52  1  0  0  0  0
 46 47  1  0  0  0  0
 47 48  1  0  0  0  0
 48 52  2  0  0  0  0
 49 46  2  0  0  0  0
 50 45  2  0  0  0  0
 51 53  1  6  0  0  0
 51 49  1  0  0  0  0
 51 44  1  0  0  0  0
 52 42  1  0  0  0  0
 53 55  1  0  0  0  0
 55 54  1  6  0  0  0
 56 55  1  0  0  0  0
 57 56  1  6  0  0  0
 58 59  1  0  0  0  0
 59 62  1  1  0  0  0
 60 57  1  0  0  0  0
 61 58  1  6  0  0  0
 61 60  1  0  0  0  0
 61 59  1  0  0  0  0
 61 57  1  0  0  0  0
 62 63  1  0  0  0  0
M  END
>  <MODEL>
4

>  <REMARK>
 VINA RESULT:      -5.7      1.653      2.328
  Name = 
  24 active torsions:
  status: ('A' for Active; 'I' for Inactive)
    1  A    between atoms: C_1  and  C_49
    2  A    between atoms: C_3  and  C_52
    3  A    between atoms: C_5  and  C_10
    4  A    between atoms: C_5  and  C_26
    5  A    between atoms: C_6  and  O_28
    6  A    between atoms: C_6  and  S_29
    7  A    between atoms: O_8  and  C_21
    8  A    between atoms: O_8  and  C_61
    9  A    between atoms: N_13  and  C_26
   10  A    between atoms: N_13  and  C_58
   11  A    between atoms: C_17  and  C_22
   12  A    between atoms: C_17  and  C_42
   13  A    between atoms: C_18  and  C_43
   14  A    between atoms: O_28  and  C_45
   15  A    between atoms: S_29  and  C_52
   16  A    between atoms: C_30  and  C_59
   17  A    between atoms: C_30  and  C_61
   18  A    between atoms: N_34  and  C_60
   19  A    between atoms: N_34  and  C_63
   20  A    between atoms: C_37  and  C_53
   21  A    between atoms: C_40  and  C_49
   22  A    between atoms: C_40  and  C_60
   23  A    between atoms: C_42  and  C_44
   24  A    between atoms: C_52  and  C_53
                            x       y       z     vdW  Elec       q    Type
                         _______ _______ _______ _____ _____    ______ ____

>  <TORSDO>
F 24

$$$$
=
 OpenBabel11052411583D

 63 70  0  0  1  0  0  0  0  0999 V2000
  161.2420  210.6670  151.1760 C   0  0  1  0  0  3  0  0  0  0  0  0
  162.0370  209.6840  148.2960 C   0  0  0  0  0  2  0  0  0  0  0  0
  162.3720  211.1560  148.4840 C   0  0  0  0  0  2  0  0  0  0  0  0
  161.1900  211.9230  149.0080 C   0  0  0  0  0  0  0  0  0  0  0  0
  162.1910  208.9260  149.6100 C   0  0  1  0  0  3  0  0  0  0  0  0
  161.0820  209.2590  150.6040 C   0  0  0  0  0  2  0  0  0  0  0  0
  160.7020  211.7030  150.2320 C   0  0  0  0  0  3  0  0  0  0  0  0
  159.9490  212.0230  152.6850 O   0  0  0  0  0  1  0  0  0  0  0  0
  160.5960  210.7900  152.5640 C   0  0  2  0  0  3  0  0  0  0  0  0
  162.8320  210.3070  153.4350 C   0  0  0  0  0  2  0  0  0  0  0  0
  161.5530  210.5500  153.7140 C   0  0  0  0  0  0  0  0  0  0  0  0
  162.0040  209.5450  155.8280 O   0  0  0  0  0  1  0  0  0  0  0  0
  161.0910  210.3330  155.1250 C   0  0  1  0  0  3  0  0  0  0  0  0
  160.9010  211.6070  155.8050 N   0  0  0  0  0  0  0  0  0  0  0  0
  158.3700  211.4030  155.6750 C   0  0  0  0  0  2  0  0  0  0  0  0
  158.3010  213.9900  157.1980 C   0  0  0  0  0  2  0  0  0  0  0  0
  157.0830  211.8960  156.3140 C   0  0  0  0  0  2  0  0  0  0  0  0
  159.5660  213.3190  156.7490 C   0  0  0  0  0  2  0  0  0  0  0  0
  156.9280  213.6810  156.0510 S   0  0  0  0  0  0  0  0  0  0  0  0
  159.6130  212.1310  156.1370 C   0  0  0  0  0  0  0  0  0  0  0  0
  162.2680  207.4220  149.3660 C   0  0  0  0  0  2  0  0  0  0  0  0
  161.2050  206.9340  148.3930 C   0  0  0  0  0  2  0  0  0  0  0  0
  161.0530  205.4550  148.5320 C   0  0  0  0  0  3  0  0  0  0  0  0
  161.8050  204.5660  147.8600 C   0  0  0  0  0  0  0  0  0  0  0  0
  162.4760  204.4910  145.4710 C   0  0  0  0  0  2  0  0  0  0  0  0
  162.2190  205.9380  145.8180 C   0  0  0  0  0  2  0  0  0  0  0  0
  162.8370  205.0120  146.8530 C   0  0  0  0  0  3  0  0  0  0  0  0
  161.5140  203.0930  148.0000 C   0  0  2  0  0  3  0  0  0  0  0  0
  161.1710  201.3060  146.2760 O   0  0  0  0  0  1  0  0  0  0  0  0
  160.8180  202.5470  146.7930 C   0  0  0  0  0  0  0  0  0  0  0  0
  159.8900  203.2070  146.2570 O   0  0  0  0  0  0  0  0  0  0  0  0
  160.5990  202.7340  149.5360 S   0  0  0  0  0  0  0  0  0  0  0  0
  161.1490  204.2610  150.3540 C   0  0  0  0  0  2  0  0  0  0  0  0
  161.5850  203.9730  151.6520 O   0  0  0  0  0  0  0  0  0  0  0  0
  160.7860  206.2450  152.3090 C   0  0  0  0  0  2  0  0  0  0  0  0
  161.1350  205.4380  153.5570 C   0  0  2  0  0  3  0  0  0  0  0  0
  163.2040  205.6480  152.2260 O   0  0  0  0  0  1  0  0  0  0  0  0
  161.8880  206.2310  154.4270 O   0  0  0  0  0  1  0  0  0  0  0  0
  161.8780  205.2030  152.2550 C   0  0  1  0  0  0  0  0  0  0  0  0
  160.5700  212.8900  148.2150 O   0  0  0  0  0  0  0  0  0  0  0  0
  160.5990  212.8380  146.7950 C   0  0  0  0  0  2  0  0  0  0  0  0
  159.7380  213.9480  146.2210 C   0  0  0  0  0  2  0  0  0  0  0  0
  161.2250  214.1400  142.2030 C   0  0  0  0  0  0  0  0  0  0  0  0
  161.5890  213.8230  140.9600 C   0  0  0  0  0  2  0  0  0  0  0  0
  161.8260  214.4500  144.7080 C   0  0  0  0  0  3  0  0  0  0  0  0
  158.7970  213.6030  141.6480 C   0  0  0  0  0  3  0  0  0  0  0  0
  159.7960  214.1820  142.5490 C   0  0  0  0  0  0  0  0  0  0  0  0
  159.6800  214.2970  143.8220 C   0  0  0  0  0  3  0  0  0  0  0  0
  159.1640  213.3120  140.3950 C   0  0  0  0  0  3  0  0  0  0  0  0
  162.2040  214.3030  143.2680 N   0  0  0  0  0  0  0  0  0  0  0  0
  160.5560  213.6240  139.8700 C   0  0  2  0  0  3  0  0  0  0  0  0
  160.3150  214.4350  144.9370 C   0  0  0  0  0  0  0  0  0  0  0  0
  160.9900  212.5670  138.9710 N   0  0  0  0  0  2  0  0  0  0  0  0
  160.8540  210.3790  139.7640 O   0  0  0  0  0  1  0  0  0  0  0  0
  160.1230  211.4160  139.1840 C   0  0  2  0  0  3  0  0  0  0  0  0
  159.4960  210.9480  137.8710 C   0  0  0  0  0  2  0  0  0  0  0  0
  158.2490  210.1070  138.1030 C   0  0  1  0  0  3  0  0  0  0  0  0
  155.6230  210.8470  138.8210 C   0  0  0  0  0  2  0  0  0  0  0  0
  155.9610  210.1980  137.5460 C   0  0  1  0  0  3  0  0  0  0  0  0
  157.7530  210.3440  139.3660 O   0  0  0  0  0  0  0  0  0  0  0  0
  157.0600  211.0050  138.3140 C   0  0  1  0  0  0  0  0  0  0  0  0
  155.8660  208.6880  137.7890 C   0  0  0  0  0  2  0  0  0  0  0  0
  154.6810  208.1250  137.0310 C   0  0  0  0  0  1  0  0  0  0  0  0
  1  9  1  1  0  0  0
  2  3  1  0  0  0  0
  2  5  1  0  0  0  0
  3  4  1  0  0  0  0
  4  7  2  0  0  0  0
  5 21  1  6  0  0  0
  5  6  1  0  0  0  0
  6  1  1  0  0  0  0
  7  1  1  0  0  0  0
  9  8  1  1  0  0  0
  9 11  1  0  0  0  0
 10 11  2  0  0  0  0
 11 13  1  0  0  0  0
 13 14  1  0  0  0  0
 13 12  1  1  0  0  0
 14 20  2  0  0  0  0
 15 20  1  0  0  0  0
 15 17  1  0  0  0  0
 18 16  1  0  0  0  0
 19 17  1  0  0  0  0
 19 16  1  0  0  0  0
 20 18  1  0  0  0  0
 22 23  1  0  0  0  0
 22 21  1  0  0  0  0
 24 28  1  0  0  0  0
 24 23  2  0  0  0  0
 25 26  1  0  0  0  0
 25 27  1  0  0  0  0
 26 27  1  0  0  0  0
 27 24  1  0  0  0  0
 28 30  1  6  0  0  0
 28 32  1  0  0  0  0
 29 30  1  0  0  0  0
 31 30  2  0  0  0  0
 32 33  1  0  0  0  0
 33 34  1  0  0  0  0
 34 39  1  0  0  0  0
 35 36  1  0  0  0  0
 36 38  1  1  0  0  0
 39 37  1  6  0  0  0
 39 35  1  0  0  0  0
 39 36  1  0  0  0  0
 40  4  1  0  0  0  0
 41 40  1  0  0  0  0
 42 41  1  0  0  0  0
 43 47  2  0  0  0  0
 43 50  1  0  0  0  0
 44 43  1  0  0  0  0
 45 52  1  0  0  0  0
 46 47  1  0  0  0  0
 47 48  1  0  0  0  0
 48 52  2  0  0  0  0
 49 46  2  0  0  0  0
 50 45  2  0  0  0  0
 51 53  1  6  0  0  0
 51 49  1  0  0  0  0
 51 44  1  0  0  0  0
 52 42  1  0  0  0  0
 53 55  1  0  0  0  0
 55 54  1  6  0  0  0
 56 55  1  0  0  0  0
 57 56  1  1  0  0  0
 57 61  1  0  0  0  0
 57 60  1  0  0  0  0
 59 62  1  1  0  0  0
 59 61  1  0  0  0  0
 59 58  1  0  0  0  0
 61 58  1  6  0  0  0
 61 60  1  0  0  0  0
 63 62  1  0  0  0  0
M  END
>  <MODEL>
5

>  <REMARK>
 VINA RESULT:      -4.4      1.774      3.492
  Name = 
  24 active torsions:
  status: ('A' for Active; 'I' for Inactive)
    1  A    between atoms: C_1  and  C_49
    2  A    between atoms: C_3  and  C_52
    3  A    between atoms: C_5  and  C_10
    4  A    between atoms: C_5  and  C_26
    5  A    between atoms: C_6  and  O_28
    6  A    between atoms: C_6  and  S_29
    7  A    between atoms: O_8  and  C_21
    8  A    between atoms: O_8  and  C_61
    9  A    between atoms: N_13  and  C_26
   10  A    between atoms: N_13  and  C_58
   11  A    between atoms: C_17  and  C_22
   12  A    between atoms: C_17  and  C_42
   13  A    between atoms: C_18  and  C_43
   14  A    between atoms: O_28  and  C_45
   15  A    between atoms: S_29  and  C_52
   16  A    between atoms: C_30  and  C_59
   17  A    between atoms: C_30  and  C_61
   18  A    between atoms: N_34  and  C_60
   19  A    between atoms: N_34  and  C_63
   20  A    between atoms: C_37  and  C_53
   21  A    between atoms: C_40  and  C_49
   22  A    between atoms: C_40  and  C_60
   23  A    between atoms: C_42  and  C_44
   24  A    between atoms: C_52  and  C_53
                            x       y       z     vdW  Elec       q    Type
                         _______ _______ _______ _____ _____    ______ ____

>  <TORSDO>
F 24

$$$$
=
 OpenBabel11052411583D

 63 70  0  0  1  0  0  0  0  0999 V2000
  161.8070  210.5720  148.7880 C   0  0  1  0  0  3  0  0  0  0  0  0
  161.7100  207.7270  150.1270 C   0  0  0  0  0  2  0  0  0  0  0  0
  160.9260  208.7430  150.9440 C   0  0  0  0  0  2  0  0  0  0  0  0
  161.7470  209.9720  151.2210 C   0  0  0  0  0  0  0  0  0  0  0  0
  161.6300  208.0560  148.6400 C   0  0  1  0  0  3  0  0  0  0  0  0
  162.4550  209.2870  148.2730 C   0  0  0  0  0  2  0  0  0  0  0  0
  162.1230  210.7970  150.2390 C   0  0  0  0  0  3  0  0  0  0  0  0
  163.0800  212.6090  148.6560 O   0  0  0  0  0  1  0  0  0  0  0  0
  162.2080  211.7870  147.9380 C   0  0  2  0  0  3  0  0  0  0  0  0
  160.2530  213.2270  148.2410 C   0  0  0  0  0  2  0  0  0  0  0  0
  161.0330  212.5690  147.3870 C   0  0  0  0  0  0  0  0  0  0  0  0
  159.2120  212.7670  145.8620 O   0  0  0  0  0  1  0  0  0  0  0  0
  160.5660  212.4420  145.9660 C   0  0  1  0  0  3  0  0  0  0  0  0
  161.3550  213.2950  145.0890 N   0  0  0  0  0  2  0  0  0  0  0  0
  159.8240  213.8280  143.1290 C   0  0  0  0  0  2  0  0  0  0  0  0
  162.0920  212.9060  141.3900 C   0  0  0  0  0  2  0  0  0  0  0  0
  159.8260  214.1110  141.6370 C   0  0  0  0  0  2  0  0  0  0  0  0
  162.1280  212.8810  142.8890 C   0  0  0  0  0  3  0  0  0  0  0  0
  160.4130  212.6460  140.7480 S   0  0  0  0  0  0  0  0  0  0  0  0
  161.1560  213.3580  143.6750 C   0  0  0  0  0  0  0  0  0  0  0  0
  162.0410  206.8550  147.7930 C   0  0  0  0  0  2  0  0  0  0  0  0
  160.8470  206.1160  147.2110 C   0  0  0  0  0  2  0  0  0  0  0  0
  160.8310  204.7170  147.7350 C   0  0  0  0  0  3  0  0  0  0  0  0
  161.2910  203.6600  147.0440 C   0  0  0  0  0  0  0  0  0  0  0  0
  162.9590  204.8070  145.6070 C   0  0  0  0  0  2  0  0  0  0  0  0
  163.2510  203.3270  145.5370 C   0  0  0  0  0  2  0  0  0  0  0  0
  161.8130  203.8090  145.6360 C   0  0  0  0  0  3  0  0  0  0  0  0
  161.1490  202.2760  147.6240 C   0  0  2  0  0  3  0  0  0  0  0  0
  160.2260  201.4770  145.4350 O   0  0  0  0  0  0  0  0  0  0  0  0
  161.0120  201.2370  146.5550 C   0  0  0  0  0  0  0  0  0  0  0  0
  161.6340  200.1480  146.6620 O   0  0  0  0  0  1  0  0  0  0  0  0
  159.7860  202.1930  148.8340 S   0  0  0  0  0  0  0  0  0  0  0  0
  160.8300  202.7490  150.2150 C   0  0  0  0  0  2  0  0  0  0  0  0
  160.3220  203.9410  150.7420 O   0  0  0  0  0  0  0  0  0  0  0  0
  161.7330  205.8080  151.6130 C   0  0  0  0  0  2  0  0  0  0  0  0
  160.6930  205.4130  152.6590 C   0  0  2  0  0  3  0  0  0  0  0  0
  162.1090  203.4310  152.2600 O   0  0  0  0  0  1  0  0  0  0  0  0
  161.3070  205.3150  153.9110 O   0  0  0  0  0  1  0  0  0  0  0  0
  161.2490  204.3790  151.6970 C   0  0  1  0  0  0  0  0  0  0  0  0
  162.1410  210.2770  152.5250 O   0  0  0  0  0  0  0  0  0  0  0  0
  161.2210  210.7390  153.5050 C   0  0  0  0  0  2  0  0  0  0  0  0
  161.7590  210.4480  154.8940 C   0  0  0  0  0  2  0  0  0  0  0  0
  158.5330  212.4800  156.8580 C   0  0  0  0  0  0  0  0  0  0  0  0
  157.4510  213.2210  157.1030 C   0  0  0  0  0  2  0  0  0  0  0  0
  161.1130  212.2690  156.6730 C   0  0  0  0  0  3  0  0  0  0  0  0
  157.1320  210.8520  155.4870 C   0  0  0  0  0  3  0  0  0  0  0  0
  158.3860  211.1920  156.1640 C   0  0  0  0  0  0  0  0  0  0  0  0
  159.5510  210.7540  155.8480 C   0  0  0  0  0  3  0  0  0  0  0  0
  156.0450  211.5840  155.7580 C   0  0  0  0  0  3  0  0  0  0  0  0
  159.8750  212.9770  157.1250 N   0  0  0  0  0  0  0  0  0  0  0  0
  156.0630  212.7020  156.7880 C   0  0  2  0  0  3  0  0  0  0  0  0
  160.8210  210.9670  155.9280 C   0  0  0  0  0  0  0  0  0  0  0  0
  155.2210  213.7990  156.3360 N   0  0  0  0  0  2  0  0  0  0  0  0
  155.0150  213.0080  154.1530 O   0  0  0  0  0  1  0  0  0  0  0  0
  155.5260  214.0450  154.9330 C   0  0  2  0  0  3  0  0  0  0  0  0
  157.0320  214.1780  154.7120 C   0  0  0  0  0  2  0  0  0  0  0  0
  157.3990  214.1140  153.2360 C   0  0  1  0  0  3  0  0  0  0  0  0
  159.1420  212.3960  151.8330 C   0  0  0  0  0  2  0  0  0  0  0  0
  157.6950  212.4570  151.5860 C   0  0  1  0  0  3  0  0  0  0  0  0
  158.7640  214.2320  153.0880 O   0  0  0  0  0  0  0  0  0  0  0  0
  158.2580  212.9060  152.9760 C   0  0  1  0  0  0  0  0  0  0  0  0
  157.4830  213.5260  150.5090 C   0  0  0  0  0  2  0  0  0  0  0  0
  157.0990  212.8610  149.2030 C   0  0  0  0  0  1  0  0  0  0  0  0
  1  9  1  6  0  0  0
  1  7  1  0  0  0  0
  2  3  1  0  0  0  0
  3  4  1  0  0  0  0
  4 40  1  0  0  0  0
  5 21  1  6  0  0  0
  5  2  1  0  0  0  0
  6  5  1  0  0  0  0
  6  1  1  0  0  0  0
  7  4  2  0  0  0  0
  9  8  1  1  0  0  0
 11  9  1  0  0  0  0
 11 10  2  0  0  0  0
 13 12  1  1  0  0  0
 13 11  1  0  0  0  0
 14 13  1  0  0  0  0
 15 20  1  0  0  0  0
 16 18  1  0  0  0  0
 17 15  1  0  0  0  0
 18 20  2  0  0  0  0
 19 16  1  0  0  0  0
 19 17  1  0  0  0  0
 20 14  1  0  0  0  0
 22 23  1  0  0  0  0
 22 21  1  0  0  0  0
 24 28  1  0  0  0  0
 24 23  2  0  0  0  0
 25 27  1  0  0  0  0
 26 25  1  0  0  0  0
 26 27  1  0  0  0  0
 27 24  1  0  0  0  0
 28 30  1  6  0  0  0
 28 32  1  0  0  0  0
 29 30  2  0  0  0  0
 30 31  1  0  0  0  0
 32 33  1  0  0  0  0
 33 34  1  0  0  0  0
 34 39  1  0  0  0  0
 35 39  1  0  0  0  0
 35 36  1  0  0  0  0
 36 38  1  1  0  0  0
 39 37  1  1  0  0  0
 39 36  1  0  0  0  0
 40 41  1  0  0  0  0
 41 42  1  0  0  0  0
 42 52  1  0  0  0  0
 43 44  1  0  0  0  0
 43 50  1  0  0  0  0
 45 50  2  0  0  0  0
 46 49  2  0  0  0  0
 46 47  1  0  0  0  0
 47 43  2  0  0  0  0
 48 52  2  0  0  0  0
 48 47  1  0  0  0  0
 49 51  1  0  0  0  0
 51 53  1  6  0  0  0
 51 44  1  0  0  0  0
 52 45  1  0  0  0  0
 55 54  1  6  0  0  0
 55 53  1  0  0  0  0
 56 55  1  0  0  0  0
 57 56  1  1  0  0  0
 59 62  1  6  0  0  0
 59 58  1  0  0  0  0
 59 61  1  0  0  0  0
 60 57  1  0  0  0  0
 61 58  1  1  0  0  0
 61 60  1  0  0  0  0
 61 57  1  0  0  0  0
 63 62  1  0  0  0  0
M  END
>  <MODEL>
6

>  <REMARK>
 VINA RESULT:      -3.8      3.535     10.575
  Name = 
  24 active torsions:
  status: ('A' for Active; 'I' for Inactive)
    1  A    between atoms: C_1  and  C_49
    2  A    between atoms: C_3  and  C_52
    3  A    between atoms: C_5  and  C_10
    4  A    between atoms: C_5  and  C_26
    5  A    between atoms: C_6  and  O_28
    6  A    between atoms: C_6  and  S_29
    7  A    between atoms: O_8  and  C_21
    8  A    between atoms: O_8  and  C_61
    9  A    between atoms: N_13  and  C_26
   10  A    between atoms: N_13  and  C_58
   11  A    between atoms: C_17  and  C_22
   12  A    between atoms: C_17  and  C_42
   13  A    between atoms: C_18  and  C_43
   14  A    between atoms: O_28  and  C_45
   15  A    between atoms: S_29  and  C_52
   16  A    between atoms: C_30  and  C_59
   17  A    between atoms: C_30  and  C_61
   18  A    between atoms: N_34  and  C_60
   19  A    between atoms: N_34  and  C_63
   20  A    between atoms: C_37  and  C_53
   21  A    between atoms: C_40  and  C_49
   22  A    between atoms: C_40  and  C_60
   23  A    between atoms: C_42  and  C_44
   24  A    between atoms: C_52  and  C_53
                            x       y       z     vdW  Elec       q    Type
                         _______ _______ _______ _____ _____    ______ ____

>  <TORSDO>
F 24

$$$$
