=
 OpenBabel11042421003D

 66 69  0  0  1  0  0  0  0  0999 V2000
  161.4800  210.1070  147.9440 C   0  0  0  0  0  3  0  0  0  0  0  0
  162.6780  208.7770  151.0680 C   0  0  0  0  0  2  0  0  0  0  0  0
  161.6290  209.9600  149.2270 C   0  0  0  0  0  0  0  0  0  0  0  0
  161.3460  210.7480  152.7350 C   0  0  0  0  0  0  0  0  0  0  0  0
  162.4430  208.5640  152.5420 C   0  0  0  0  0  3  0  0  0  0  0  0
  161.2950  210.9000  151.4070 C   0  0  0  0  0  3  0  0  0  0  0  0
  161.7670  209.8330  150.5180 C   0  0  0  0  0  0  0  0  0  0  0  0
  161.8470  209.4720  153.3350 C   0  0  0  0  0  0  0  0  0  0  0  0
  160.6730  211.1720  147.4460 N   0  0  0  0  0  2  0  0  0  0  0  0
  161.0890  212.5710  147.5040 C   0  0  2  0  0  3  0  0  0  0  0  0
  160.9520  214.4520  151.1800 Cl  0  0  0  0  0  0  0  0  0  0  0  0
  161.4430  212.9630  148.9600 C   0  0  0  0  0  2  0  0  0  0  0  0
  160.0670  213.5210  146.8270 C   0  0  2  0  0  3  0  0  0  0  0  0
  158.9930  213.9630  147.7810 C   0  0  0  0  0  3  0  0  0  0  0  0
  160.7990  214.2770  149.4180 C   0  0  1  0  0  3  0  0  0  0  0  0
  159.3480  214.3260  149.0200 C   0  0  0  0  0  3  0  0  0  0  0  0
  159.9670  211.5300  144.9850 O   0  0  0  0  0  0  0  0  0  0  0  0
  157.8900  212.7720  145.4480 O   0  0  0  0  0  0  0  0  0  0  0  0
  159.3850  212.8910  145.2920 S   0  0  0  0  0  0  0  0  0  0  0  0
  159.7410  214.0080  144.0100 N   0  0  0  0  0  2  0  0  0  0  0  0
  159.5490  213.3120  142.7510 C   0  0  0  0  0  2  0  0  0  0  0  0
  161.0210  212.3490  141.1400 O   0  0  0  0  0  0  0  0  0  0  0  0
  160.8360  213.2520  142.0010 C   0  0  0  0  0  0  0  0  0  0  0  0
  161.8390  214.1780  142.2680 O   0  0  0  0  0  1  0  0  0  0  0  0
  161.6490  209.1740  154.7350 N   0  0  0  0  0  0  0  0  0  0  0  0
  161.5730  206.8300  154.0090 C   0  0  0  0  0  2  0  0  0  0  0  0
  161.3060  207.8010  155.1400 C   0  0  2  0  0  3  0  0  0  0  0  0
  159.8430  207.6700  155.5510 C   0  0  0  0  0  2  0  0  0  0  0  0
  159.2370  206.0200  155.0880 S   0  0  0  0  0  0  0  0  0  0  0  0
  160.8360  205.5560  154.3440 C   0  0  1  0  0  3  0  0  0  0  0  0
  160.1800  203.5620  153.1320 N   0  0  0  0  0  0  0  0  0  0  0  0
  160.6280  204.7730  153.0910 C   0  0  0  0  0  3  0  0  0  0  0  0
  161.0870  202.2450  151.2600 C   0  0  0  0  0  0  0  0  0  0  0  0
  159.9920  202.8550  151.9410 N   0  0  0  0  0  2  0  0  0  0  0  0
  162.2480  202.2870  151.7550 O   0  0  0  0  0  0  0  0  0  0  0  0
  160.8580  201.5700  149.9480 C   0  0  0  0  0  2  0  0  0  0  0  0
  160.6480  202.6000  148.8510 C   0  0  0  0  0  2  0  0  0  0  0  0
  161.8370  202.6110  147.8910 C   0  0  2  0  0  3  0  0  0  0  0  0
  162.1780  203.9580  147.2520 C   0  0  2  0  0  0  0  0  0  0  0  0
  161.4610  202.8900  146.4230 C   0  0  2  0  0  3  0  0  0  0  0  0
  163.7930  204.4080  145.5520 O   0  0  0  0  0  1  0  0  0  0  0  0
  163.6520  204.0690  146.8950 C   0  0  0  0  0  2  0  0  0  0  0  0
  160.0960  203.1640  146.2730 O   0  0  0  0  0  0  0  0  0  0  0  0
  159.7090  201.4000  144.7200 C   0  0  0  0  0  1  0  0  0  0  0  0
  159.8280  202.8960  144.9260 C   0  0  0  0  0  2  0  0  0  0  0  0
  161.4450  205.2960  147.5750 C   0  0  1  0  0  3  0  0  0  0  0  0
  160.4970  206.5600  144.1410 O   0  0  0  0  0  1  0  0  0  0  0  0
  160.5740  205.7820  145.2500 N   0  0  0  0  0  2  0  0  0  0  0  0
  162.0010  207.2710  146.3280 O   0  0  0  0  0  0  0  0  0  0  0  0
  161.3760  206.1760  146.3600 C   0  0  0  0  0  0  0  0  0  0  0  0
  160.1690  205.1430  148.1320 O   0  0  0  0  0  0  0  0  0  0  0  0
  160.0370  206.2000  149.0370 C   0  0  0  0  0  2  0  0  0  0  0  0
  162.2100  205.9890  150.0830 N   0  0  0  0  0  1  0  0  0  0  0  0
  160.7850  205.8720  150.3190 C   0  0  0  0  0  2  0  0  0  0  0  0
  162.5350  210.5880  156.3780 O   0  0  0  0  0  1  0  0  0  0  0  0
  161.3770  210.2710  155.6690 C   0  0  0  0  0  2  0  0  0  0  0  0
  161.0020  211.9330  153.5800 C   0  0  0  0  0  2  0  0  0  0  0  0
  158.8580  211.9240  152.3970 C   0  0  0  0  0  3  0  0  0  0  0  0
  159.5300  212.1800  153.5130 C   0  0  0  0  0  3  0  0  0  0  0  0
  157.3910  212.1900  152.3350 C   0  0  0  0  0  2  0  0  0  0  0  0
  157.1120  213.6750  152.5070 C   0  0  1  0  0  3  0  0  0  0  0  0
  156.8540  213.1830  150.3670 C   0  0  0  0  0  1  0  0  0  0  0  0
  156.7100  214.2180  151.2840 O   0  0  0  0  0  0  0  0  0  0  0  0
  156.0060  213.8740  153.5390 C   0  0  0  0  0  2  0  0  0  0  0  0
  153.8770  214.4300  153.7120 C   0  0  0  0  0  1  0  0  0  0  0  0
  154.7590  213.6690  152.9440 O   0  0  0  0  0  0  0  0  0  0  0  0
  1  3  2  0  0  0  0
  2  5  1  0  0  0  0
  3  7  2  0  0  0  0
  4  8  1  0  0  0  0
  4 57  1  0  0  0  0
  5  8  2  0  0  0  0
  6  4  2  0  0  0  0
  7  2  1  0  0  0  0
  7  6  1  0  0  0  0
  8 25  1  0  0  0  0
  9  1  1  0  0  0  0
 10  9  1  1  0  0  0
 10 12  1  0  0  0  0
 12 15  1  0  0  0  0
 13 19  1  6  0  0  0
 13 10  1  0  0  0  0
 13 14  1  0  0  0  0
 14 16  2  0  0  0  0
 15 11  1  1  0  0  0
 16 15  1  0  0  0  0
 17 19  2  0  0  0  0
 19 18  2  0  0  0  0
 20 19  1  0  0  0  0
 21 20  1  0  0  0  0
 22 23  2  0  0  0  0
 23 24  1  0  0  0  0
 23 21  1  0  0  0  0
 25 56  1  0  0  0  0
 26 30  1  0  0  0  0
 26 27  1  0  0  0  0
 27 25  1  6  0  0  0
 27 28  1  0  0  0  0
 29 28  1  0  0  0  0
 30 32  1  6  0  0  0
 30 29  1  0  0  0  0
 32 31  2  0  0  0  0
 33 35  2  0  0  0  0
 33 34  1  0  0  0  0
 34 31  1  0  0  0  0
 36 33  1  0  0  0  0
 37 36  1  0  0  0  0
 38 37  1  1  0  0  0
 39 42  1  6  0  0  0
 39 46  1  0  0  0  0
 39 38  1  0  0  0  0
 40 43  1  1  0  0  0
 40 39  1  0  0  0  0
 40 38  1  0  0  0  0
 41 42  1  0  0  0  0
 44 45  1  0  0  0  0
 45 43  1  0  0  0  0
 46 50  1  6  0  0  0
 46 51  1  0  0  0  0
 47 48  1  0  0  0  0
 48 50  1  0  0  0  0
 49 50  2  0  0  0  0
 51 52  1  0  0  0  0
 52 54  1  0  0  0  0
 53 54  1  0  0  0  0
 56 55  1  0  0  0  0
 58 59  2  0  0  0  0
 59 57  1  0  0  0  0
 60 58  1  0  0  0  0
 61 60  1  6  0  0  0
 61 64  1  0  0  0  0
 62 63  1  0  0  0  0
 63 61  1  0  0  0  0
 66 64  1  0  0  0  0
 66 65  1  0  0  0  0
M  END
>  <MODEL>
1

>  <REMARK>
 VINA RESULT:       1.3      0.000      0.000
  Name = 
  29 active torsions:
  status: ('A' for Active; 'I' for Inactive)
    1  A    between atoms: C_1  and  C_18
    2  A    between atoms: C_1  and  C_55
    3  A    between atoms: C_6  and  C_26
    4  A    between atoms: C_6  and  C_47
    5  A    between atoms: C_7  and  N_17
    6  A    between atoms: C_10  and  N_17
    7  A    between atoms: O_12  and  C_53
    8  A    between atoms: O_12  and  C_66
    9  A    between atoms: N_13  and  N_21
   10  A    between atoms: O_14  and  C_15
   11  A    between atoms: O_14  and  C_62
   12  A    between atoms: C_15  and  C_60
   13  A    between atoms: N_16  and  C_33
   14  A    between atoms: N_16  and  C_50
   15  A    between atoms: N_16  and  C_56
   16  A    between atoms: C_19  and  C_26
   17  A    between atoms: C_23  and  C_65
   18  A    between atoms: C_28  and  C_39
   19  A    between atoms: C_29  and  S_31
   20  A    between atoms: S_31  and  N_43
   21  A    between atoms: C_34  and  C_41
   22  A    between atoms: O_37  and  C_58
   23  A    between atoms: C_39  and  C_58
   24  A    between atoms: C_41  and  N_43
   25  A    between atoms: C_46  and  O_51
   26  A    between atoms: C_46  and  C_58
   27  A    between atoms: C_49  and  C_61
   28  A    between atoms: C_49  and  C_62
   29  A    between atoms: C_62  and  C_64
                            x       y       z     vdW  Elec       q    Type
                         _______ _______ _______ _____ _____    ______ ____

>  <TORSDO>
F 29

$$$$
=
 OpenBabel11042421003D

 66 69  0  0  1  0  0  0  0  0999 V2000
  161.6240  211.5830  148.8260 C   0  0  0  0  0  3  0  0  0  0  0  0
  161.1180  208.9030  151.1770 C   0  0  0  0  0  2  0  0  0  0  0  0
  161.5230  210.9670  149.9670 C   0  0  0  0  0  0  0  0  0  0  0  0
  161.7710  210.4740  153.5310 C   0  0  0  0  0  0  0  0  0  0  0  0
  160.7200  208.4790  152.5690 C   0  0  0  0  0  3  0  0  0  0  0  0
  161.9370  211.0330  152.3270 C   0  0  0  0  0  3  0  0  0  0  0  0
  161.4320  210.3680  151.1220 C   0  0  0  0  0  0  0  0  0  0  0  0
  161.0310  209.1810  153.6730 C   0  0  0  0  0  0  0  0  0  0  0  0
  162.0050  212.9570  148.7990 N   0  0  0  0  0  2  0  0  0  0  0  0
  161.0980  214.0200  148.3780 C   0  0  2  0  0  3  0  0  0  0  0  0
  157.0920  213.5860  149.2910 Cl  0  0  0  0  0  0  0  0  0  0  0  0
  159.7830  213.9550  149.1930 C   0  0  0  0  0  2  0  0  0  0  0  0
  160.8860  214.0430  146.8420 C   0  0  2  0  0  3  0  0  0  0  0  0
  159.7670  213.1340  146.4150 C   0  0  0  0  0  3  0  0  0  0  0  0
  158.5180  214.0350  148.3300 C   0  0  1  0  0  3  0  0  0  0  0  0
  158.6340  213.1340  147.1290 C   0  0  0  0  0  3  0  0  0  0  0  0
  163.5640  214.3950  146.5840 O   0  0  0  0  0  0  0  0  0  0  0  0
  162.6010  212.2750  145.7790 O   0  0  0  0  0  0  0  0  0  0  0  0
  162.3810  213.7620  145.8900 S   0  0  0  0  0  0  0  0  0  0  0  0
  162.1770  214.4330  144.3000 N   0  0  0  0  0  2  0  0  0  0  0  0
  163.2320  213.8990  143.4580 C   0  0  0  0  0  2  0  0  0  0  0  0
  162.9190  213.2590  141.1810 O   0  0  0  0  0  0  0  0  0  0  0  0
  162.6440  213.0380  142.3920 C   0  0  0  0  0  0  0  0  0  0  0  0
  161.7750  212.0070  142.7320 O   0  0  0  0  0  1  0  0  0  0  0  0
  160.5930  208.7070  154.9650 N   0  0  0  0  0  0  0  0  0  0  0  0
  161.3320  206.5180  154.1350 C   0  0  0  0  0  2  0  0  0  0  0  0
  160.7730  207.2870  155.3130 C   0  0  2  0  0  3  0  0  0  0  0  0
  159.4660  206.6290  155.7420 C   0  0  0  0  0  2  0  0  0  0  0  0
  159.4710  204.8890  155.2140 S   0  0  0  0  0  0  0  0  0  0  0  0
  161.1070  205.0530  154.4240 C   0  0  1  0  0  3  0  0  0  0  0  0
  160.2230  204.4370  152.2530 N   0  0  0  0  0  0  0  0  0  0  0  0
  161.1510  204.2940  153.1390 C   0  0  0  0  0  3  0  0  0  0  0  0
  161.1740  202.6020  150.9150 C   0  0  0  0  0  0  0  0  0  0  0  0
  160.2930  203.7150  151.0570 N   0  0  0  0  0  2  0  0  0  0  0  0
  161.8730  202.2140  151.8920 O   0  0  0  0  0  0  0  0  0  0  0  0
  161.2810  201.9090  149.5960 C   0  0  0  0  0  2  0  0  0  0  0  0
  160.7410  202.7950  148.4860 C   0  0  0  0  0  2  0  0  0  0  0  0
  161.7580  202.9150  147.3530 C   0  0  2  0  0  3  0  0  0  0  0  0
  161.4160  203.9050  146.2390 C   0  0  2  0  0  0  0  0  0  0  0  0
  161.2510  202.4040  145.9900 C   0  0  2  0  0  3  0  0  0  0  0  0
  163.4420  205.1420  146.4970 O   0  0  0  0  0  1  0  0  0  0  0  0
  162.6590  204.4650  145.5650 C   0  0  0  0  0  2  0  0  0  0  0  0
  159.9100  202.0030  146.0460 O   0  0  0  0  0  0  0  0  0  0  0  0
  161.1780  199.9880  145.9540 C   0  0  0  0  0  1  0  0  0  0  0  0
  159.9100  200.7020  145.5330 C   0  0  0  0  0  2  0  0  0  0  0  0
  160.1570  204.8250  146.2350 C   0  0  1  0  0  3  0  0  0  0  0  0
  160.9030  207.7890  148.4600 O   0  0  0  0  0  1  0  0  0  0  0  0
  160.5860  206.5350  148.0500 N   0  0  0  0  0  2  0  0  0  0  0  0
  160.7690  207.1060  145.8020 O   0  0  0  0  0  0  0  0  0  0  0  0
  160.5120  206.2210  146.6620 C   0  0  0  0  0  0  0  0  0  0  0  0
  159.4610  204.8560  145.0190 O   0  0  0  0  0  0  0  0  0  0  0  0
  160.2100  204.0570  144.1500 C   0  0  0  0  0  2  0  0  0  0  0  0
  157.9520  203.3100  143.6980 N   0  0  0  0  0  1  0  0  0  0  0  0
  159.2860  203.3960  143.1410 C   0  0  0  0  0  2  0  0  0  0  0  0
  158.5070  209.7700  154.9410 O   0  0  0  0  0  1  0  0  0  0  0  0
  159.6250  209.5000  155.7290 C   0  0  0  0  0  2  0  0  0  0  0  0
  162.4500  211.1230  154.6940 C   0  0  0  0  0  2  0  0  0  0  0  0
  160.3250  212.3210  154.9020 C   0  0  0  0  0  3  0  0  0  0  0  0
  161.4510  211.9160  155.4740 C   0  0  0  0  0  3  0  0  0  0  0  0
  159.3410  213.1270  155.6840 C   0  0  0  0  0  2  0  0  0  0  0  0
  158.3140  213.7570  154.7570 C   0  0  1  0  0  3  0  0  0  0  0  0
  158.4500  212.8340  152.7520 C   0  0  0  0  0  1  0  0  0  0  0  0
  157.7470  212.7670  153.9500 O   0  0  0  0  0  0  0  0  0  0  0  0
  157.2200  214.4270  155.5820 C   0  0  0  0  0  2  0  0  0  0  0  0
  155.2500  214.3050  154.5930 C   0  0  0  0  0  1  0  0  0  0  0  0
  156.0530  213.6610  155.5360 O   0  0  0  0  0  0  0  0  0  0  0  0
  1  3  2  0  0  0  0
  2  5  1  0  0  0  0
  3  7  2  0  0  0  0
  4  8  1  0  0  0  0
  4 57  1  0  0  0  0
  5  8  2  0  0  0  0
  6  4  2  0  0  0  0
  7  2  1  0  0  0  0
  7  6  1  0  0  0  0
  8 25  1  0  0  0  0
  9  1  1  0  0  0  0
 10  9  1  6  0  0  0
 10 12  1  0  0  0  0
 13 19  1  6  0  0  0
 13 10  1  0  0  0  0
 14 13  1  0  0  0  0
 14 16  2  0  0  0  0
 15 12  1  0  0  0  0
 15 11  1  1  0  0  0
 16 15  1  0  0  0  0
 18 19  2  0  0  0  0
 19 17  2  0  0  0  0
 20 19  1  0  0  0  0
 21 20  1  0  0  0  0
 22 23  2  0  0  0  0
 23 24  1  0  0  0  0
 23 21  1  0  0  0  0
 25 56  1  0  0  0  0
 26 30  1  0  0  0  0
 26 27  1  0  0  0  0
 27 25  1  6  0  0  0
 27 28  1  0  0  0  0
 29 28  1  0  0  0  0
 30 32  1  6  0  0  0
 30 29  1  0  0  0  0
 31 32  2  0  0  0  0
 33 34  1  0  0  0  0
 33 35  2  0  0  0  0
 34 31  1  0  0  0  0
 36 33  1  0  0  0  0
 37 36  1  0  0  0  0
 38 37  1  1  0  0  0
 39 42  1  6  0  0  0
 39 38  1  0  0  0  0
 40 43  1  1  0  0  0
 40 39  1  0  0  0  0
 40 38  1  0  0  0  0
 42 41  1  0  0  0  0
 45 44  1  0  0  0  0
 45 43  1  0  0  0  0
 46 51  1  6  0  0  0
 46 39  1  0  0  0  0
 46 50  1  0  0  0  0
 48 47  1  0  0  0  0
 49 50  2  0  0  0  0
 50 48  1  0  0  0  0
 52 51  1  0  0  0  0
 54 53  1  0  0  0  0
 54 52  1  0  0  0  0
 55 56  1  0  0  0  0
 57 59  1  0  0  0  0
 58 59  2  0  0  0  0
 58 60  1  0  0  0  0
 61 64  1  1  0  0  0
 61 60  1  0  0  0  0
 62 63  1  0  0  0  0
 63 61  1  0  0  0  0
 65 66  1  0  0  0  0
 66 64  1  0  0  0  0
M  END
>  <MODEL>
2

>  <REMARK>
 VINA RESULT:       3.2      1.924      2.702
  Name = 
  29 active torsions:
  status: ('A' for Active; 'I' for Inactive)
    1  A    between atoms: C_1  and  C_18
    2  A    between atoms: C_1  and  C_55
    3  A    between atoms: C_6  and  C_26
    4  A    between atoms: C_6  and  C_47
    5  A    between atoms: C_7  and  N_17
    6  A    between atoms: C_10  and  N_17
    7  A    between atoms: O_12  and  C_53
    8  A    between atoms: O_12  and  C_66
    9  A    between atoms: N_13  and  N_21
   10  A    between atoms: O_14  and  C_15
   11  A    between atoms: O_14  and  C_62
   12  A    between atoms: C_15  and  C_60
   13  A    between atoms: N_16  and  C_33
   14  A    between atoms: N_16  and  C_50
   15  A    between atoms: N_16  and  C_56
   16  A    between atoms: C_19  and  C_26
   17  A    between atoms: C_23  and  C_65
   18  A    between atoms: C_28  and  C_39
   19  A    between atoms: C_29  and  S_31
   20  A    between atoms: S_31  and  N_43
   21  A    between atoms: C_34  and  C_41
   22  A    between atoms: O_37  and  C_58
   23  A    between atoms: C_39  and  C_58
   24  A    between atoms: C_41  and  N_43
   25  A    between atoms: C_46  and  O_51
   26  A    between atoms: C_46  and  C_58
   27  A    between atoms: C_49  and  C_61
   28  A    between atoms: C_49  and  C_62
   29  A    between atoms: C_62  and  C_64
                            x       y       z     vdW  Elec       q    Type
                         _______ _______ _______ _____ _____    ______ ____

>  <TORSDO>
F 29

$$$$
=
 OpenBabel11042421003D

 66 69  0  0  1  0  0  0  0  0999 V2000
  159.1490  210.5690  157.1180 C   0  0  0  0  0  3  0  0  0  0  0  0
  160.1550  207.2970  156.0050 C   0  0  0  0  0  2  0  0  0  0  0  0
  159.5930  209.6350  156.3310 C   0  0  0  0  0  0  0  0  0  0  0  0
  160.6460  208.0810  153.2510 C   0  0  0  0  0  0  0  0  0  0  0  0
  160.9900  206.4660  155.0630 C   0  0  0  0  0  3  0  0  0  0  0  0
  160.1110  208.9820  154.0830 C   0  0  0  0  0  3  0  0  0  0  0  0
  160.0340  208.7110  155.5230 C   0  0  0  0  0  0  0  0  0  0  0  0
  161.2120  206.8010  153.7790 C   0  0  0  0  0  0  0  0  0  0  0  0
  158.9650  211.8890  156.6100 N   0  0  0  0  0  2  0  0  0  0  0  0
  157.6470  212.4910  156.4350 C   0  0  2  0  0  3  0  0  0  0  0  0
  154.3490  210.0790  157.0500 Cl  0  0  0  0  0  0  0  0  0  0  0  0
  156.5710  211.6400  157.1550 C   0  0  0  0  0  2  0  0  0  0  0  0
  157.3230  212.7870  154.9480 C   0  0  2  0  0  3  0  0  0  0  0  0
  156.7010  211.6040  154.2620 C   0  0  0  0  0  3  0  0  0  0  0  0
  155.3400  211.3450  156.2910 C   0  0  1  0  0  3  0  0  0  0  0  0
  155.7500  210.9170  154.9070 C   0  0  0  0  0  3  0  0  0  0  0  0
  159.6030  214.2600  154.9260 O   0  0  0  0  0  0  0  0  0  0  0  0
  159.4820  212.3070  153.4290 O   0  0  0  0  0  0  0  0  0  0  0  0
  158.7030  213.4560  154.0160 S   0  0  0  0  0  0  0  0  0  0  0  0
  158.0920  214.4530  152.7310 N   0  0  0  0  0  2  0  0  0  0  0  0
  157.8550  213.5970  151.5830 C   0  0  0  0  0  2  0  0  0  0  0  0
  155.6310  214.4510  151.7050 O   0  0  0  0  0  1  0  0  0  0  0  0
  156.5120  213.8840  151.0030 C   0  0  0  0  0  0  0  0  0  0  0  0
  156.2250  213.5060  149.6950 O   0  0  0  0  0  0  0  0  0  0  0  0
  162.0400  205.9510  152.9550 N   0  0  0  0  0  0  0  0  0  0  0  0
  161.8920  204.1080  151.3400 C   0  0  0  0  0  2  0  0  0  0  0  0
  161.6710  204.5370  152.7750 C   0  0  2  0  0  3  0  0  0  0  0  0
  160.2140  204.2720  153.1380 C   0  0  0  0  0  2  0  0  0  0  0  0
  159.5570  202.9620  152.0600 S   0  0  0  0  0  0  0  0  0  0  0  0
  161.1300  202.8190  151.1470 C   0  0  1  0  0  3  0  0  0  0  0  0
  161.6030  201.8050  148.9970 N   0  0  0  0  0  0  0  0  0  0  0  0
  160.8780  202.6190  149.6890 C   0  0  0  0  0  3  0  0  0  0  0  0
  160.3380  202.4050  146.9710 C   0  0  0  0  0  0  0  0  0  0  0  0
  161.3400  201.6350  147.6340 N   0  0  0  0  0  2  0  0  0  0  0  0
  159.7040  203.2990  147.5970 O   0  0  0  0  0  0  0  0  0  0  0  0
  160.0300  202.1360  145.5350 C   0  0  0  0  0  2  0  0  0  0  0  0
  160.5620  203.2570  144.6580 C   0  0  0  0  0  2  0  0  0  0  0  0
  162.0320  203.5300  144.9690 C   0  0  2  0  0  3  0  0  0  0  0  0
  162.3350  204.8300  145.7160 C   0  0  2  0  0  0  0  0  0  0  0  0
  162.6230  204.7380  144.2160 C   0  0  2  0  0  3  0  0  0  0  0  0
  164.5690  204.0000  145.8660 O   0  0  0  0  0  1  0  0  0  0  0  0
  163.6020  204.7310  146.5520 C   0  0  0  0  0  2  0  0  0  0  0  0
  161.6580  205.4030  143.4500 O   0  0  0  0  0  0  0  0  0  0  0  0
  161.6350  206.0870  141.1680 C   0  0  0  0  0  1  0  0  0  0  0  0
  162.3930  206.0940  142.4800 C   0  0  0  0  0  2  0  0  0  0  0  0
  161.2490  205.8240  146.2280 C   0  0  1  0  0  3  0  0  0  0  0  0
  157.8940  205.1120  144.6380 O   0  0  0  0  0  1  0  0  0  0  0  0
  158.9500  205.0680  145.4890 N   0  0  0  0  0  2  0  0  0  0  0  0
  160.1150  206.6930  144.2980 O   0  0  0  0  0  0  0  0  0  0  0  0
  160.0920  205.8940  145.2730 C   0  0  0  0  0  0  0  0  0  0  0  0
  160.7870  205.5670  147.5250 O   0  0  0  0  0  0  0  0  0  0  0  0
  160.8140  206.8050  148.1750 C   0  0  0  0  0  2  0  0  0  0  0  0
  162.8270  208.0530  148.6750 N   0  0  0  0  0  1  0  0  0  0  0  0
  161.9360  207.6560  147.6040 C   0  0  0  0  0  2  0  0  0  0  0  0
  163.4340  207.1730  151.5250 O   0  0  0  0  0  1  0  0  0  0  0  0
  163.4150  206.3620  152.6580 C   0  0  0  0  0  2  0  0  0  0  0  0
  160.5440  208.3500  151.7840 C   0  0  0  0  0  2  0  0  0  0  0  0
  161.8830  210.2920  151.1270 C   0  0  0  0  0  3  0  0  0  0  0  0
  160.7140  209.8140  151.5340 C   0  0  0  0  0  3  0  0  0  0  0  0
  162.0470  211.7580  150.8970 C   0  0  0  0  0  2  0  0  0  0  0  0
  160.9010  212.2950  150.0550 C   0  0  1  0  0  3  0  0  0  0  0  0
  159.8550  214.0960  149.3100 C   0  0  0  0  0  1  0  0  0  0  0  0
  160.7850  213.6740  150.2530 O   0  0  0  0  0  0  0  0  0  0  0  0
  161.1720  212.0150  148.5800 C   0  0  0  0  0  2  0  0  0  0  0  0
  162.5670  212.5060  146.9410 C   0  0  0  0  0  1  0  0  0  0  0  0
  162.5280  212.2010  148.3020 O   0  0  0  0  0  0  0  0  0  0  0  0
  3  1  2  0  0  0  0
  4  8  1  0  0  0  0
  4  6  2  0  0  0  0
  5  2  1  0  0  0  0
  6  7  1  0  0  0  0
  7  2  1  0  0  0  0
  7  3  2  0  0  0  0
  8  5  2  0  0  0  0
  9  1  1  0  0  0  0
 10  9  1  6  0  0  0
 10 12  1  0  0  0  0
 13 19  1  6  0  0  0
 13 10  1  0  0  0  0
 14 16  2  0  0  0  0
 14 13  1  0  0  0  0
 15 11  1  1  0  0  0
 15 12  1  0  0  0  0
 16 15  1  0  0  0  0
 18 19  2  0  0  0  0
 19 17  2  0  0  0  0
 20 19  1  0  0  0  0
 21 20  1  0  0  0  0
 23 21  1  0  0  0  0
 23 22  1  0  0  0  0
 24 23  2  0  0  0  0
 25  8  1  0  0  0  0
 26 27  1  0  0  0  0
 27 25  1  6  0  0  0
 27 28  1  0  0  0  0
 29 28  1  0  0  0  0
 30 32  1  6  0  0  0
 30 26  1  0  0  0  0
 30 29  1  0  0  0  0
 31 32  2  0  0  0  0
 33 35  2  0  0  0  0
 33 34  1  0  0  0  0
 34 31  1  0  0  0  0
 36 33  1  0  0  0  0
 37 36  1  0  0  0  0
 38 37  1  6  0  0  0
 38 39  1  0  0  0  0
 39 46  1  0  0  0  0
 39 42  1  1  0  0  0
 40 43  1  6  0  0  0
 40 38  1  0  0  0  0
 40 39  1  0  0  0  0
 41 42  1  0  0  0  0
 44 45  1  0  0  0  0
 45 43  1  0  0  0  0
 46 50  1  6  0  0  0
 46 51  1  0  0  0  0
 47 48  1  0  0  0  0
 49 50  2  0  0  0  0
 50 48  1  0  0  0  0
 51 52  1  0  0  0  0
 54 52  1  0  0  0  0
 54 53  1  0  0  0  0
 55 56  1  0  0  0  0
 56 25  1  0  0  0  0
 57  4  1  0  0  0  0
 58 59  2  0  0  0  0
 59 57  1  0  0  0  0
 60 58  1  0  0  0  0
 61 64  1  6  0  0  0
 61 63  1  0  0  0  0
 61 60  1  0  0  0  0
 62 63  1  0  0  0  0
 65 66  1  0  0  0  0
 66 64  1  0  0  0  0
M  END
>  <MODEL>
3

>  <REMARK>
 VINA RESULT:       3.6      3.185      6.108
  Name = 
  29 active torsions:
  status: ('A' for Active; 'I' for Inactive)
    1  A    between atoms: C_1  and  C_18
    2  A    between atoms: C_1  and  C_55
    3  A    between atoms: C_6  and  C_26
    4  A    between atoms: C_6  and  C_47
    5  A    between atoms: C_7  and  N_17
    6  A    between atoms: C_10  and  N_17
    7  A    between atoms: O_12  and  C_53
    8  A    between atoms: O_12  and  C_66
    9  A    between atoms: N_13  and  N_21
   10  A    between atoms: O_14  and  C_15
   11  A    between atoms: O_14  and  C_62
   12  A    between atoms: C_15  and  C_60
   13  A    between atoms: N_16  and  C_33
   14  A    between atoms: N_16  and  C_50
   15  A    between atoms: N_16  and  C_56
   16  A    between atoms: C_19  and  C_26
   17  A    between atoms: C_23  and  C_65
   18  A    between atoms: C_28  and  C_39
   19  A    between atoms: C_29  and  S_31
   20  A    between atoms: S_31  and  N_43
   21  A    between atoms: C_34  and  C_41
   22  A    between atoms: O_37  and  C_58
   23  A    between atoms: C_39  and  C_58
   24  A    between atoms: C_41  and  N_43
   25  A    between atoms: C_46  and  O_51
   26  A    between atoms: C_46  and  C_58
   27  A    between atoms: C_49  and  C_61
   28  A    between atoms: C_49  and  C_62
   29  A    between atoms: C_62  and  C_64
                            x       y       z     vdW  Elec       q    Type
                         _______ _______ _______ _____ _____    ______ ____

>  <TORSDO>
F 29

$$$$
=
 OpenBabel11042421003D

 66 69  0  0  1  0  0  0  0  0999 V2000
  161.4060  209.9530  147.4890 C   0  0  0  0  0  3  0  0  0  0  0  0
  162.5470  208.6600  150.6490 C   0  0  0  0  0  2  0  0  0  0  0  0
  161.5210  209.8130  148.7760 C   0  0  0  0  0  0  0  0  0  0  0  0
  161.1210  210.6010  152.2730 C   0  0  0  0  0  0  0  0  0  0  0  0
  162.2760  208.4440  152.1170 C   0  0  0  0  0  3  0  0  0  0  0  0
  161.1040  210.7490  150.9440 C   0  0  0  0  0  3  0  0  0  0  0  0
  161.6270  209.6920  150.0710 C   0  0  0  0  0  0  0  0  0  0  0  0
  161.6360  209.3390  152.8910 C   0  0  0  0  0  0  0  0  0  0  0  0
  160.5880  210.9980  146.9660 N   0  0  0  0  0  2  0  0  0  0  0  0
  160.8770  212.4120  147.1840 C   0  0  2  0  0  3  0  0  0  0  0  0
  159.0050  214.2760  150.3610 Cl  0  0  0  0  0  0  0  0  0  0  0  0
  160.5110  212.8140  148.6350 C   0  0  0  0  0  2  0  0  0  0  0  0
  160.2430  213.3220  146.1000 C   0  0  2  0  0  3  0  0  0  0  0  0
  158.8360  213.7170  146.4510 C   0  0  0  0  0  3  0  0  0  0  0  0
  159.6810  214.1000  148.7270 C   0  0  1  0  0  3  0  0  0  0  0  0
  158.5700  214.0910  147.7090 C   0  0  0  0  0  3  0  0  0  0  0  0
  161.7720  212.8250  143.9140 O   0  0  0  0  0  0  0  0  0  0  0  0
  160.0010  211.2050  144.4690 O   0  0  0  0  0  0  0  0  0  0  0  0
  160.3620  212.6680  144.4330 S   0  0  0  0  0  0  0  0  0  0  0  0
  159.2390  213.5120  143.4100 N   0  0  0  0  0  2  0  0  0  0  0  0
  159.5780  213.2010  142.0330 C   0  0  0  0  0  2  0  0  0  0  0  0
  157.2820  213.6350  141.5560 O   0  0  0  0  0  1  0  0  0  0  0  0
  158.4690  213.6200  141.1300 C   0  0  0  0  0  0  0  0  0  0  0  0
  158.7410  213.9720  139.8120 O   0  0  0  0  0  0  0  0  0  0  0  0
  161.4060  209.0390  154.2850 N   0  0  0  0  0  0  0  0  0  0  0  0
  161.5610  206.6910  153.5850 C   0  0  0  0  0  2  0  0  0  0  0  0
  161.1740  207.6440  154.6960 C   0  0  2  0  0  3  0  0  0  0  0  0
  159.7160  207.3880  155.0630 C   0  0  0  0  0  2  0  0  0  0  0  0
  159.2730  205.6850  154.6020 S   0  0  0  0  0  0  0  0  0  0  0  0
  160.9300  205.3590  153.9120 C   0  0  1  0  0  3  0  0  0  0  0  0
  160.2650  203.3890  152.6670 N   0  0  0  0  0  0  0  0  0  0  0  0
  160.8310  204.5500  152.6620 C   0  0  0  0  0  3  0  0  0  0  0  0
  161.3190  201.9690  150.9540 C   0  0  0  0  0  0  0  0  0  0  0  0
  160.1840  202.6550  151.4800 N   0  0  0  0  0  2  0  0  0  0  0  0
  162.4120  201.9690  151.5850 O   0  0  0  0  0  0  0  0  0  0  0  0
  161.2140  201.2670  149.6400 C   0  0  0  0  0  2  0  0  0  0  0  0
  160.9170  202.2600  148.5290 C   0  0  0  0  0  2  0  0  0  0  0  0
  161.9780  202.1730  147.4340 C   0  0  2  0  0  3  0  0  0  0  0  0
  162.1830  203.4310  146.5890 C   0  0  2  0  0  0  0  0  0  0  0  0
  161.4160  202.2440  146.0010 C   0  0  2  0  0  3  0  0  0  0  0  0
  164.2830  204.5660  146.6710 O   0  0  0  0  0  1  0  0  0  0  0  0
  163.5970  203.5310  146.0390 C   0  0  0  0  0  2  0  0  0  0  0  0
  160.0330  202.4610  145.9900 O   0  0  0  0  0  0  0  0  0  0  0  0
  158.0710  201.2420  145.4090 C   0  0  0  0  0  1  0  0  0  0  0  0
  159.5320  201.4990  145.1060 C   0  0  0  0  0  2  0  0  0  0  0  0
  161.4400  204.7810  146.8270 C   0  0  1  0  0  3  0  0  0  0  0  0
  161.1950  205.5130  143.1260 O   0  0  0  0  0  1  0  0  0  0  0  0
  161.3260  204.8450  144.3000 N   0  0  0  0  0  2  0  0  0  0  0  0
  161.1050  206.7910  145.5560 O   0  0  0  0  0  0  0  0  0  0  0  0
  161.2890  205.5440  145.5410 C   0  0  0  0  0  0  0  0  0  0  0  0
  160.1970  204.6590  147.4620 O   0  0  0  0  0  0  0  0  0  0  0  0
  160.0990  205.7820  148.2890 C   0  0  0  0  0  2  0  0  0  0  0  0
  161.5670  205.7070  150.2130 N   0  0  0  0  0  1  0  0  0  0  0  0
  161.4730  206.1370  148.8330 C   0  0  0  0  0  2  0  0  0  0  0  0
  162.1190  210.7340  155.7350 O   0  0  0  0  0  1  0  0  0  0  0  0
  160.9940  210.1160  155.1900 C   0  0  0  0  0  2  0  0  0  0  0  0
  160.7250  211.7790  153.1050 C   0  0  0  0  0  2  0  0  0  0  0  0
  158.7130  212.5530  154.2650 C   0  0  0  0  0  3  0  0  0  0  0  0
  159.3450  211.5680  153.6390 C   0  0  0  0  0  3  0  0  0  0  0  0
  157.3420  212.3280  154.8110 C   0  0  0  0  0  2  0  0  0  0  0  0
  157.4000  212.0830  156.3100 C   0  0  1  0  0  3  0  0  0  0  0  0
  158.3810  214.0290  155.9300 C   0  0  0  0  0  1  0  0  0  0  0  0
  158.2030  213.0580  156.9100 O   0  0  0  0  0  0  0  0  0  0  0  0
  155.9940  212.1530  156.8970 C   0  0  0  0  0  2  0  0  0  0  0  0
  155.6390  210.0360  156.3770 C   0  0  0  0  0  1  0  0  0  0  0  0
  155.1350  211.3220  156.1730 O   0  0  0  0  0  0  0  0  0  0  0  0
  1  3  2  0  0  0  0
  2  5  1  0  0  0  0
  3  7  2  0  0  0  0
  4  8  1  0  0  0  0
  4 57  1  0  0  0  0
  5  8  2  0  0  0  0
  6  4  2  0  0  0  0
  7  2  1  0  0  0  0
  7  6  1  0  0  0  0
  8 25  1  0  0  0  0
  9  1  1  0  0  0  0
 10  9  1  6  0  0  0
 10 12  1  0  0  0  0
 12 15  1  0  0  0  0
 13 19  1  6  0  0  0
 13 14  1  0  0  0  0
 13 10  1  0  0  0  0
 14 16  2  0  0  0  0
 15 11  1  1  0  0  0
 16 15  1  0  0  0  0
 17 19  2  0  0  0  0
 19 18  2  0  0  0  0
 20 19  1  0  0  0  0
 21 20  1  0  0  0  0
 23 22  1  0  0  0  0
 23 21  1  0  0  0  0
 24 23  2  0  0  0  0
 25 56  1  0  0  0  0
 26 30  1  0  0  0  0
 26 27  1  0  0  0  0
 27 25  1  6  0  0  0
 27 28  1  0  0  0  0
 29 28  1  0  0  0  0
 30 32  1  6  0  0  0
 30 29  1  0  0  0  0
 32 31  2  0  0  0  0
 33 34  1  0  0  0  0
 33 35  2  0  0  0  0
 34 31  1  0  0  0  0
 36 33  1  0  0  0  0
 37 36  1  0  0  0  0
 38 37  1  1  0  0  0
 39 42  1  6  0  0  0
 39 46  1  0  0  0  0
 39 38  1  0  0  0  0
 40 43  1  1  0  0  0
 40 39  1  0  0  0  0
 40 38  1  0  0  0  0
 42 41  1  0  0  0  0
 45 44  1  0  0  0  0
 45 43  1  0  0  0  0
 46 50  1  6  0  0  0
 46 51  1  0  0  0  0
 47 48  1  0  0  0  0
 48 50  1  0  0  0  0
 50 49  2  0  0  0  0
 51 52  1  0  0  0  0
 52 54  1  0  0  0  0
 54 53  1  0  0  0  0
 56 55  1  0  0  0  0
 57 59  1  0  0  0  0
 58 60  1  0  0  0  0
 59 58  2  0  0  0  0
 61 60  1  6  0  0  0
 61 64  1  0  0  0  0
 61 63  1  0  0  0  0
 62 63  1  0  0  0  0
 66 65  1  0  0  0  0
 66 64  1  0  0  0  0
M  END
>  <MODEL>
4

>  <REMARK>
 VINA RESULT:       3.6      1.663      1.963
  Name = 
  29 active torsions:
  status: ('A' for Active; 'I' for Inactive)
    1  A    between atoms: C_1  and  C_18
    2  A    between atoms: C_1  and  C_55
    3  A    between atoms: C_6  and  C_26
    4  A    between atoms: C_6  and  C_47
    5  A    between atoms: C_7  and  N_17
    6  A    between atoms: C_10  and  N_17
    7  A    between atoms: O_12  and  C_53
    8  A    between atoms: O_12  and  C_66
    9  A    between atoms: N_13  and  N_21
   10  A    between atoms: O_14  and  C_15
   11  A    between atoms: O_14  and  C_62
   12  A    between atoms: C_15  and  C_60
   13  A    between atoms: N_16  and  C_33
   14  A    between atoms: N_16  and  C_50
   15  A    between atoms: N_16  and  C_56
   16  A    between atoms: C_19  and  C_26
   17  A    between atoms: C_23  and  C_65
   18  A    between atoms: C_28  and  C_39
   19  A    between atoms: C_29  and  S_31
   20  A    between atoms: S_31  and  N_43
   21  A    between atoms: C_34  and  C_41
   22  A    between atoms: O_37  and  C_58
   23  A    between atoms: C_39  and  C_58
   24  A    between atoms: C_41  and  N_43
   25  A    between atoms: C_46  and  O_51
   26  A    between atoms: C_46  and  C_58
   27  A    between atoms: C_49  and  C_61
   28  A    between atoms: C_49  and  C_62
   29  A    between atoms: C_62  and  C_64
                            x       y       z     vdW  Elec       q    Type
                         _______ _______ _______ _____ _____    ______ ____

>  <TORSDO>
F 29

$$$$
=
 OpenBabel11042421003D

 66 69  0  0  1  0  0  0  0  0999 V2000
  161.5010  210.1240  147.1980 C   0  0  0  0  0  3  0  0  0  0  0  0
  162.6420  208.8300  150.3570 C   0  0  0  0  0  2  0  0  0  0  0  0
  161.6170  209.9830  148.4850 C   0  0  0  0  0  0  0  0  0  0  0  0
  161.2170  210.7710  151.9810 C   0  0  0  0  0  0  0  0  0  0  0  0
  162.3710  208.6140  151.8250 C   0  0  0  0  0  3  0  0  0  0  0  0
  161.1990  210.9190  150.6520 C   0  0  0  0  0  3  0  0  0  0  0  0
  161.7220  209.8630  149.7790 C   0  0  0  0  0  0  0  0  0  0  0  0
  161.7310  209.5090  152.5990 C   0  0  0  0  0  0  0  0  0  0  0  0
  160.6830  211.1690  146.6740 N   0  0  0  0  0  2  0  0  0  0  0  0
  161.0150  212.5820  146.8250 C   0  0  2  0  0  3  0  0  0  0  0  0
  159.9580  214.4250  150.3680 Cl  0  0  0  0  0  0  0  0  0  0  0  0
  161.0070  212.9760  148.3230 C   0  0  0  0  0  2  0  0  0  0  0  0
  160.1380  213.4960  145.9300 C   0  0  2  0  0  3  0  0  0  0  0  0
  158.8560  213.8860  146.6100 C   0  0  0  0  0  3  0  0  0  0  0  0
  160.2220  214.2590  148.6190 C   0  0  1  0  0  3  0  0  0  0  0  0
  158.9000  214.2520  147.8970 C   0  0  0  0  0  3  0  0  0  0  0  0
  159.4990  211.3840  144.3490 O   0  0  0  0  0  0  0  0  0  0  0  0
  158.7120  213.6150  143.6600 O   0  0  0  0  0  0  0  0  0  0  0  0
  159.8550  212.8510  144.2790 S   0  0  0  0  0  0  0  0  0  0  0  0
  161.2870  213.0850  143.3240 N   0  0  0  0  0  2  0  0  0  0  0  0
  162.3030  213.6620  144.1850 C   0  0  0  0  0  2  0  0  0  0  0  0
  163.8290  213.9190  142.3700 O   0  0  0  0  0  0  0  0  0  0  0  0
  163.6460  213.5220  143.5530 C   0  0  0  0  0  0  0  0  0  0  0  0
  164.6880  212.9310  144.2590 O   0  0  0  0  0  1  0  0  0  0  0  0
  161.5010  209.2090  153.9930 N   0  0  0  0  0  0  0  0  0  0  0  0
  161.5570  206.8680  153.2580 C   0  0  0  0  0  2  0  0  0  0  0  0
  161.2690  207.8140  154.4040 C   0  0  2  0  0  3  0  0  0  0  0  0
  159.8350  207.5830  154.8710 C   0  0  0  0  0  2  0  0  0  0  0  0
  159.3250  205.8960  154.4220 S   0  0  0  0  0  0  0  0  0  0  0  0
  160.9230  205.5450  153.6150 C   0  0  1  0  0  3  0  0  0  0  0  0
  160.0770  203.6330  152.3880 N   0  0  0  0  0  0  0  0  0  0  0  0
  160.7200  204.7530  152.3660 C   0  0  0  0  0  3  0  0  0  0  0  0
  160.9130  202.0430  150.7040 C   0  0  0  0  0  0  0  0  0  0  0  0
  159.8990  202.9150  151.2020 N   0  0  0  0  0  2  0  0  0  0  0  0
  161.9760  201.8620  151.3600 O   0  0  0  0  0  0  0  0  0  0  0  0
  160.7190  201.3600  149.3910 C   0  0  0  0  0  2  0  0  0  0  0  0
  160.8160  202.3600  148.2510 C   0  0  0  0  0  2  0  0  0  0  0  0
  162.1650  202.2390  147.5450 C   0  0  2  0  0  3  0  0  0  0  0  0
  162.4510  203.2700  146.4520 C   0  0  2  0  0  0  0  0  0  0  0  0
  162.0680  201.8420  146.0590 C   0  0  2  0  0  3  0  0  0  0  0  0
  164.1970  204.8980  146.3810 O   0  0  0  0  0  1  0  0  0  0  0  0
  163.9400  203.5320  146.2840 C   0  0  0  0  0  2  0  0  0  0  0  0
  160.7390  201.7500  145.6260 O   0  0  0  0  0  0  0  0  0  0  0  0
  161.1890  199.4680  146.1360 C   0  0  0  0  0  1  0  0  0  0  0  0
  160.6180  200.4480  145.1320 C   0  0  0  0  0  2  0  0  0  0  0  0
  161.4990  204.4480  146.0830 C   0  0  1  0  0  3  0  0  0  0  0  0
  161.2590  206.2690  149.3870 O   0  0  0  0  0  1  0  0  0  0  0  0
  161.1920  205.2910  148.4490 N   0  0  0  0  0  2  0  0  0  0  0  0
  162.0250  206.6840  146.7810 O   0  0  0  0  0  0  0  0  0  0  0  0
  161.5850  205.5470  147.1030 C   0  0  0  0  0  0  0  0  0  0  0  0
  161.6890  204.9690  144.7960 O   0  0  0  0  0  0  0  0  0  0  0  0
  160.5750  204.5470  144.0640 C   0  0  0  0  0  2  0  0  0  0  0  0
  158.4330  203.4700  144.4030 N   0  0  0  0  0  1  0  0  0  0  0  0
  159.3830  204.3920  144.9930 C   0  0  0  0  0  2  0  0  0  0  0  0
  159.7770  210.0750  155.3210 O   0  0  0  0  0  1  0  0  0  0  0  0
  161.0890  210.2860  154.8990 C   0  0  0  0  0  2  0  0  0  0  0  0
  160.8200  211.9490  152.8130 C   0  0  0  0  0  2  0  0  0  0  0  0
  158.7020  212.9840  153.4740 C   0  0  0  0  0  3  0  0  0  0  0  0
  159.3710  212.2430  152.5990 C   0  0  0  0  0  3  0  0  0  0  0  0
  157.2510  213.2580  153.2610 C   0  0  0  0  0  2  0  0  0  0  0  0
  156.5070  213.2440  154.5870 C   0  0  1  0  0  3  0  0  0  0  0  0
  156.1840  214.2590  156.5260 C   0  0  0  0  0  1  0  0  0  0  0  0
  157.0380  214.2260  155.4290 O   0  0  0  0  0  0  0  0  0  0  0  0
  155.0270  213.5260  154.3500 C   0  0  0  0  0  2  0  0  0  0  0  0
  154.2840  213.3620  152.2770 C   0  0  0  0  0  1  0  0  0  0  0  0
  154.8660  214.2600  153.1720 O   0  0  0  0  0  0  0  0  0  0  0  0
  1  3  2  0  0  0  0
  2  5  1  0  0  0  0
  3  7  2  0  0  0  0
  4  8  1  0  0  0  0
  4 57  1  0  0  0  0
  5  8  2  0  0  0  0
  6  4  2  0  0  0  0
  7  2  1  0  0  0  0
  7  6  1  0  0  0  0
  8 25  1  0  0  0  0
  9  1  1  0  0  0  0
 10  9  1  1  0  0  0
 10 12  1  0  0  0  0
 12 15  1  0  0  0  0
 13 19  1  6  0  0  0
 13 14  1  0  0  0  0
 13 10  1  0  0  0  0
 14 16  2  0  0  0  0
 15 11  1  1  0  0  0
 16 15  1  0  0  0  0
 18 19  2  0  0  0  0
 19 17  2  0  0  0  0
 20 21  1  0  0  0  0
 20 19  1  0  0  0  0
 22 23  2  0  0  0  0
 23 21  1  0  0  0  0
 23 24  1  0  0  0  0
 25 56  1  0  0  0  0
 26 30  1  0  0  0  0
 26 27  1  0  0  0  0
 27 25  1  6  0  0  0
 27 28  1  0  0  0  0
 29 28  1  0  0  0  0
 30 32  1  6  0  0  0
 30 29  1  0  0  0  0
 32 31  2  0  0  0  0
 33 34  1  0  0  0  0
 33 35  2  0  0  0  0
 34 31  1  0  0  0  0
 36 33  1  0  0  0  0
 37 36  1  0  0  0  0
 38 37  1  6  0  0  0
 39 42  1  6  0  0  0
 39 38  1  0  0  0  0
 40 43  1  6  0  0  0
 40 39  1  0  0  0  0
 40 38  1  0  0  0  0
 42 41  1  0  0  0  0
 45 43  1  0  0  0  0
 45 44  1  0  0  0  0
 46 51  1  6  0  0  0
 46 39  1  0  0  0  0
 46 50  1  0  0  0  0
 48 47  1  0  0  0  0
 49 50  2  0  0  0  0
 50 48  1  0  0  0  0
 52 51  1  0  0  0  0
 52 54  1  0  0  0  0
 53 54  1  0  0  0  0
 56 55  1  0  0  0  0
 59 57  1  0  0  0  0
 59 58  2  0  0  0  0
 60 58  1  0  0  0  0
 61 60  1  6  0  0  0
 61 63  1  0  0  0  0
 63 62  1  0  0  0  0
 64 61  1  0  0  0  0
 65 66  1  0  0  0  0
 66 64  1  0  0  0  0
M  END
>  <MODEL>
5

>  <REMARK>
 VINA RESULT:       3.6      1.523      2.302
  Name = 
  29 active torsions:
  status: ('A' for Active; 'I' for Inactive)
    1  A    between atoms: C_1  and  C_18
    2  A    between atoms: C_1  and  C_55
    3  A    between atoms: C_6  and  C_26
    4  A    between atoms: C_6  and  C_47
    5  A    between atoms: C_7  and  N_17
    6  A    between atoms: C_10  and  N_17
    7  A    between atoms: O_12  and  C_53
    8  A    between atoms: O_12  and  C_66
    9  A    between atoms: N_13  and  N_21
   10  A    between atoms: O_14  and  C_15
   11  A    between atoms: O_14  and  C_62
   12  A    between atoms: C_15  and  C_60
   13  A    between atoms: N_16  and  C_33
   14  A    between atoms: N_16  and  C_50
   15  A    between atoms: N_16  and  C_56
   16  A    between atoms: C_19  and  C_26
   17  A    between atoms: C_23  and  C_65
   18  A    between atoms: C_28  and  C_39
   19  A    between atoms: C_29  and  S_31
   20  A    between atoms: S_31  and  N_43
   21  A    between atoms: C_34  and  C_41
   22  A    between atoms: O_37  and  C_58
   23  A    between atoms: C_39  and  C_58
   24  A    between atoms: C_41  and  N_43
   25  A    between atoms: C_46  and  O_51
   26  A    between atoms: C_46  and  C_58
   27  A    between atoms: C_49  and  C_61
   28  A    between atoms: C_49  and  C_62
   29  A    between atoms: C_62  and  C_64
                            x       y       z     vdW  Elec       q    Type
                         _______ _______ _______ _____ _____    ______ ____

>  <TORSDO>
F 29

$$$$
