=
 OpenBabel11052411183D

 31 34  0  0  1  0  0  0  0  0999 V2000
  160.1940  201.6880  148.4400 O   0  0  0  0  0  0  0  0  0  0  0  0
  161.7330  206.9370  147.6200 C   0  0  0  0  0  2  0  0  0  0  0  0
  161.1860  205.7760  147.0200 O   0  0  0  0  0  0  0  0  0  0  0  0
  161.6550  206.7450  149.0780 C   0  0  0  0  0  0  0  0  0  0  0  0
  162.1850  207.6550  150.1460 C   0  0  2  0  0  3  0  0  0  0  0  0
  161.5570  203.5670  147.9460 C   0  0  1  0  0  3  0  0  0  0  0  0
  161.1530  205.5800  149.3400 C   0  0  0  0  0  0  0  0  0  0  0  0
  161.4370  205.8510  151.7300 C   0  0  0  0  0  0  0  0  0  0  0  0
  160.8090  204.8970  148.0680 C   0  0  1  0  0  3  0  0  0  0  0  0
  160.9580  202.5400  148.8680 C   0  0  0  0  0  0  0  0  0  0  0  0
  161.2250  202.6150  150.3360 C   0  0  0  0  0  2  0  0  0  0  0  0
  160.3960  203.7250  150.9650 C   0  0  0  0  0  2  0  0  0  0  0  0
  161.5290  203.1110  146.6240 O   0  0  0  0  0  1  0  0  0  0  0  0
  161.0120  205.0720  150.7170 C   0  0  0  0  0  0  0  0  0  0  0  0
  161.9960  207.1170  151.4700 O   0  0  0  0  0  0  0  0  0  0  0  0
  161.6520  209.0200  150.0140 N   0  0  0  0  0  0  0  0  0  0  0  0
  162.0940  209.4750  148.7000 C   0  0  0  0  0  1  0  0  0  0  0  0
  160.1370  209.6800  152.5320 C   0  0  0  0  0  2  0  0  0  0  0  0
  161.6620  209.6340  152.4560 C   0  0  0  0  0  2  0  0  0  0  0  0
  161.9560  211.4220  150.6800 C   0  0  0  0  0  2  0  0  0  0  0  0
  159.5950  211.0760  152.8450 C   0  0  0  0  0  2  0  0  0  0  0  0
  160.5370  211.7550  150.6590 N   0  0  0  0  0  2  0  0  0  0  0  0
  162.1860  209.9440  151.0410 C   0  0  2  0  0  3  0  0  0  0  0  0
  160.1970  212.2040  152.0020 C   0  0  0  0  0  2  0  0  0  0  0  0
  161.2920  205.4210  153.1520 C   0  0  0  0  0  2  0  0  0  0  0  0
  161.8280  206.4530  154.0250 N   0  0  0  0  0  2  0  0  0  0  0  0
  161.0230  207.1240  154.9930 C   0  0  0  0  0  0  0  0  0  0  0  0
  161.6280  208.0880  155.8560 N   0  0  0  0  0  2  0  0  0  0  0  0
  159.7890  206.8760  155.0780 O   0  0  0  0  0  0  0  0  0  0  0  0
  160.8660  208.8720  156.8180 C   0  0  0  0  0  2  0  0  0  0  0  0
  160.6680  210.2800  156.2930 C   0  0  0  0  0  1  0  0  0  0  0  0
  1 10  2  0  0  0  0
  2  4  1  0  0  0  0
  3  2  1  0  0  0  0
  4  7  2  0  0  0  0
  4  5  1  0  0  0  0
  5 16  1  1  0  0  0
  5 15  1  0  0  0  0
  6 13  1  6  0  0  0
  6  9  1  0  0  0  0
  6 10  1  0  0  0  0
  7 14  1  0  0  0  0
  8 25  1  0  0  0  0
  9  3  1  6  0  0  0
  9  7  1  0  0  0  0
 10 11  1  0  0  0  0
 11 12  1  0  0  0  0
 14 12  1  0  0  0  0
 14  8  2  0  0  0  0
 15  8  1  0  0  0  0
 17 16  1  0  0  0  0
 18 21  1  0  0  0  0
 19 18  1  0  0  0  0
 20 23  1  0  0  0  0
 22 20  1  0  0  0  0
 22 24  1  0  0  0  0
 23 16  1  6  0  0  0
 23 19  1  0  0  0  0
 24 21  1  0  0  0  0
 25 26  1  0  0  0  0
 26 27  1  0  0  0  0
 27 29  2  0  0  0  0
 27 28  1  0  0  0  0
 28 30  1  0  0  0  0
 31 30  1  0  0  0  0
M  END
>  <MODEL>
1

>  <REMARK>
 VINA RESULT:      -7.8      0.000      0.000
  Name = 
  5 active torsions:
  status: ('A' for Active; 'I' for Inactive)
    1  A    between atoms: C_1  and  N_19
    2  A    between atoms: N_2  and  C_7
    3  A    between atoms: C_7  and  C_18
    4  A    between atoms: C_14  and  N_22
    5  A    between atoms: N_22  and  C_24
                            x       y       z     vdW  Elec       q    Type
                         _______ _______ _______ _____ _____    ______ ____

>  <TORSDO>
F 5

$$$$
=
 OpenBabel11052411183D

 31 34  0  0  1  0  0  0  0  0999 V2000
  162.1950  203.9670  146.8110 O   0  0  0  0  0  0  0  0  0  0  0  0
  160.7380  204.9400  152.0570 C   0  0  0  0  0  2  0  0  0  0  0  0
  161.1040  203.9480  151.1140 O   0  0  0  0  0  0  0  0  0  0  0  0
  161.1030  206.2420  151.4740 C   0  0  0  0  0  0  0  0  0  0  0  0
  160.8380  207.6030  152.0470 C   0  0  2  0  0  3  0  0  0  0  0  0
  160.8380  204.2940  148.7300 C   0  0  1  0  0  3  0  0  0  0  0  0
  161.5990  206.0680  150.2900 C   0  0  0  0  0  0  0  0  0  0  0  0
  161.8170  208.4470  149.8900 C   0  0  0  0  0  0  0  0  0  0  0  0
  161.6490  204.6170  149.9880 C   0  0  1  0  0  3  0  0  0  0  0  0
  161.5690  204.7580  147.4990 C   0  0  0  0  0  0  0  0  0  0  0  0
  161.6080  206.2140  147.1640 C   0  0  0  0  0  2  0  0  0  0  0  0
  162.5930  206.9360  148.0720 C   0  0  0  0  0  2  0  0  0  0  0  0
  160.5790  202.9220  148.6550 O   0  0  0  0  0  1  0  0  0  0  0  0
  161.9950  207.1950  149.4260 C   0  0  0  0  0  0  0  0  0  0  0  0
  161.2690  208.6620  151.1690 O   0  0  0  0  0  0  0  0  0  0  0  0
  161.3880  207.7400  153.4040 N   0  0  0  0  0  0  0  0  0  0  0  0
  161.6180  206.3740  153.8610 C   0  0  0  0  0  1  0  0  0  0  0  0
  161.8580  210.5210  154.4610 C   0  0  0  0  0  2  0  0  0  0  0  0
  160.4670  209.9380  154.2180 C   0  0  0  0  0  2  0  0  0  0  0  0
  160.6600  207.9610  155.7970 C   0  0  0  0  0  2  0  0  0  0  0  0
  162.1310  210.8250  155.9360 C   0  0  0  0  0  2  0  0  0  0  0  0
  161.9610  208.3830  156.3020 N   0  0  0  0  0  2  0  0  0  0  0  0
  160.4480  208.4020  154.3380 C   0  0  2  0  0  3  0  0  0  0  0  0
  161.7670  209.6950  156.9030 C   0  0  0  0  0  2  0  0  0  0  0  0
  162.2290  209.6370  149.0880 C   0  0  0  0  0  2  0  0  0  0  0  0
  161.6720  210.8390  149.6880 N   0  0  0  0  0  2  0  0  0  0  0  0
  161.4080  212.0170  148.9270 C   0  0  0  0  0  0  0  0  0  0  0  0
  160.8080  213.1430  149.5710 N   0  0  0  0  0  2  0  0  0  0  0  0
  161.7130  212.0670  147.7050 O   0  0  0  0  0  0  0  0  0  0  0  0
  160.5750  214.4080  148.8880 C   0  0  0  0  0  2  0  0  0  0  0  0
  159.1560  214.4530  148.3560 C   0  0  0  0  0  1  0  0  0  0  0  0
  1 10  2  0  0  0  0
  3  2  1  0  0  0  0
  4  5  1  0  0  0  0
  4  2  1  0  0  0  0
  5 16  1  1  0  0  0
  6 13  1  6  0  0  0
  6  9  1  0  0  0  0
  7  4  2  0  0  0  0
  8 15  1  0  0  0  0
  9  7  1  1  0  0  0
  9  3  1  0  0  0  0
 10  6  1  0  0  0  0
 11 10  1  0  0  0  0
 11 12  1  0  0  0  0
 12 14  1  0  0  0  0
 14  8  2  0  0  0  0
 14  7  1  0  0  0  0
 15  5  1  0  0  0  0
 16 17  1  0  0  0  0
 18 21  1  0  0  0  0
 19 23  1  0  0  0  0
 19 18  1  0  0  0  0
 20 22  1  0  0  0  0
 21 24  1  0  0  0  0
 22 24  1  0  0  0  0
 23 16  1  6  0  0  0
 23 20  1  0  0  0  0
 25 26  1  0  0  0  0
 25  8  1  0  0  0  0
 27 28  1  0  0  0  0
 27 26  1  0  0  0  0
 29 27  2  0  0  0  0
 30 28  1  0  0  0  0
 31 30  1  0  0  0  0
M  END
>  <MODEL>
2

>  <REMARK>
 VINA RESULT:      -7.2      2.061      5.169
  Name = 
  5 active torsions:
  status: ('A' for Active; 'I' for Inactive)
    1  A    between atoms: C_1  and  N_19
    2  A    between atoms: N_2  and  C_7
    3  A    between atoms: C_7  and  C_18
    4  A    between atoms: C_14  and  N_22
    5  A    between atoms: N_22  and  C_24
                            x       y       z     vdW  Elec       q    Type
                         _______ _______ _______ _____ _____    ______ ____

>  <TORSDO>
F 5

$$$$
=
 OpenBabel11052411183D

 31 34  0  0  1  0  0  0  0  0999 V2000
  159.1800  209.6140  156.0840 O   0  0  0  0  0  0  0  0  0  0  0  0
  161.9970  206.1230  152.8480 C   0  0  0  0  0  2  0  0  0  0  0  0
  161.1770  206.2420  153.9980 O   0  0  0  0  0  0  0  0  0  0  0  0
  161.8670  207.3820  152.0950 C   0  0  0  0  0  0  0  0  0  0  0  0
  162.6060  207.7800  150.8520 C   0  0  2  0  0  3  0  0  0  0  0  0
  160.9750  208.3320  155.2090 C   0  0  1  0  0  3  0  0  0  0  0  0
  161.0870  208.1950  152.7340 C   0  0  0  0  0  0  0  0  0  0  0  0
  161.4210  209.9800  151.1310 C   0  0  0  0  0  0  0  0  0  0  0  0
  160.5870  207.5320  153.9620 C   0  0  1  0  0  3  0  0  0  0  0  0
  160.1330  209.5740  155.3210 C   0  0  0  0  0  0  0  0  0  0  0  0
  160.4050  210.7380  154.4250 C   0  0  0  0  0  2  0  0  0  0  0  0
  159.8800  210.4580  153.0250 C   0  0  0  0  0  2  0  0  0  0  0  0
  160.8370  207.5440  156.3570 O   0  0  0  0  0  1  0  0  0  0  0  0
  160.8170  209.5660  152.2610 C   0  0  0  0  0  0  0  0  0  0  0  0
  162.2830  209.1180  150.4260 O   0  0  0  0  0  0  0  0  0  0  0  0
  162.4360  206.7910  149.7760 N   0  0  0  0  0  0  0  0  0  0  0  0
  162.9400  207.4480  148.5750 C   0  0  0  0  0  1  0  0  0  0  0  0
  161.4430  203.9630  150.0690 C   0  0  0  0  0  2  0  0  0  0  0  0
  160.5870  205.1900  150.3760 C   0  0  0  0  0  2  0  0  0  0  0  0
  160.6810  206.2400  148.0670 C   0  0  0  0  0  2  0  0  0  0  0  0
  160.9060  203.1350  148.8990 C   0  0  0  0  0  2  0  0  0  0  0  0
  161.3970  205.1100  147.4890 N   0  0  0  0  0  2  0  0  0  0  0  0
  161.0180  206.4220  149.5580 C   0  0  2  0  0  3  0  0  0  0  0  0
  160.5370  203.9460  147.6540 C   0  0  0  0  0  2  0  0  0  0  0  0
  161.1680  211.3410  150.5700 C   0  0  0  0  0  2  0  0  0  0  0  0
  161.9330  211.5070  149.3440 N   0  0  0  0  0  2  0  0  0  0  0  0
  161.6800  212.5720  148.4290 C   0  0  0  0  0  0  0  0  0  0  0  0
  162.5070  212.7080  147.2710 N   0  0  0  0  0  2  0  0  0  0  0  0
  160.7300  213.3750  148.6330 O   0  0  0  0  0  0  0  0  0  0  0  0
  162.2710  213.7170  146.2490 C   0  0  0  0  0  2  0  0  0  0  0  0
  161.3960  213.1440  145.1520 C   0  0  0  0  0  1  0  0  0  0  0  0
  2  3  1  0  0  0  0
  4  7  2  0  0  0  0
  4  2  1  0  0  0  0
  5 16  1  6  0  0  0
  5  4  1  0  0  0  0
  6 10  1  0  0  0  0
  6 13  1  1  0  0  0
  8 14  2  0  0  0  0
  9  7  1  6  0  0  0
  9  3  1  0  0  0  0
  9  6  1  0  0  0  0
 10  1  2  0  0  0  0
 11 10  1  0  0  0  0
 12 11  1  0  0  0  0
 14  7  1  0  0  0  0
 14 12  1  0  0  0  0
 15  5  1  0  0  0  0
 15  8  1  0  0  0  0
 17 16  1  0  0  0  0
 18 19  1  0  0  0  0
 20 23  1  0  0  0  0
 21 18  1  0  0  0  0
 22 24  1  0  0  0  0
 22 20  1  0  0  0  0
 23 16  1  6  0  0  0
 23 19  1  0  0  0  0
 24 21  1  0  0  0  0
 25  8  1  0  0  0  0
 26 25  1  0  0  0  0
 27 29  2  0  0  0  0
 27 26  1  0  0  0  0
 28 27  1  0  0  0  0
 30 28  1  0  0  0  0
 31 30  1  0  0  0  0
M  END
>  <MODEL>
3

>  <REMARK>
 VINA RESULT:      -7.1      2.751      7.391
  Name = 
  5 active torsions:
  status: ('A' for Active; 'I' for Inactive)
    1  A    between atoms: C_1  and  N_19
    2  A    between atoms: N_2  and  C_7
    3  A    between atoms: C_7  and  C_18
    4  A    between atoms: C_14  and  N_22
    5  A    between atoms: N_22  and  C_24
                            x       y       z     vdW  Elec       q    Type
                         _______ _______ _______ _____ _____    ______ ____

>  <TORSDO>
F 5

$$$$
=
 OpenBabel11052411183D

 31 34  0  0  1  0  0  0  0  0999 V2000
  160.4370  208.4040  154.8350 O   0  0  0  0  0  0  0  0  0  0  0  0
  161.4570  205.3470  150.3400 C   0  0  0  0  0  2  0  0  0  0  0  0
  160.8920  205.3570  151.6390 O   0  0  0  0  0  0  0  0  0  0  0  0
  161.6490  206.7530  149.9450 C   0  0  0  0  0  0  0  0  0  0  0  0
  162.2970  207.2660  148.6930 C   0  0  2  0  0  3  0  0  0  0  0  0
  161.5650  206.9770  153.3120 C   0  0  1  0  0  3  0  0  0  0  0  0
  161.2790  207.5330  150.9100 C   0  0  0  0  0  0  0  0  0  0  0  0
  161.9590  209.5340  149.7270 C   0  0  0  0  0  0  0  0  0  0  0  0
  160.7640  206.7130  152.0340 C   0  0  1  0  0  3  0  0  0  0  0  0
  161.2060  208.3190  153.8900 C   0  0  0  0  0  0  0  0  0  0  0  0
  161.7210  209.5650  153.2480 C   0  0  0  0  0  2  0  0  0  0  0  0
  160.9440  209.8600  151.9740 C   0  0  0  0  0  2  0  0  0  0  0  0
  161.3350  205.9640  154.2490 O   0  0  0  0  0  1  0  0  0  0  0  0
  161.4160  209.0000  150.8370 C   0  0  0  0  0  0  0  0  0  0  0  0
  162.3800  208.7060  148.6690 O   0  0  0  0  0  0  0  0  0  0  0  0
  161.6600  206.7200  147.4850 N   0  0  0  0  0  0  0  0  0  0  0  0
  160.4930  205.9910  147.9670 C   0  0  0  0  0  1  0  0  0  0  0  0
  160.9130  205.5760  144.8010 C   0  0  0  0  0  2  0  0  0  0  0  0
  162.3540  205.8540  145.2240 C   0  0  0  0  0  2  0  0  0  0  0  0
  162.4000  204.3320  147.2540 C   0  0  0  0  0  2  0  0  0  0  0  0
  160.6330  204.0890  144.5700 C   0  0  0  0  0  2  0  0  0  0  0  0
  161.0700  203.7980  146.9890 N   0  0  0  0  0  2  0  0  0  0  0  0
  162.5390  205.7800  146.7510 C   0  0  2  0  0  3  0  0  0  0  0  0
  161.1320  203.1600  145.6800 C   0  0  0  0  0  2  0  0  0  0  0  0
  162.0960  211.0120  149.5640 C   0  0  0  0  0  2  0  0  0  0  0  0
  161.6020  211.4010  148.2530 N   0  0  0  0  0  2  0  0  0  0  0  0
  162.2170  212.4330  147.4830 C   0  0  0  0  0  0  0  0  0  0  0  0
  161.7140  212.7240  146.1780 N   0  0  0  0  0  2  0  0  0  0  0  0
  163.1860  213.0870  147.9550 O   0  0  0  0  0  0  0  0  0  0  0  0
  162.2330  213.8100  145.3590 C   0  0  0  0  0  2  0  0  0  0  0  0
  163.2370  213.2670  144.3610 C   0  0  0  0  0  1  0  0  0  0  0  0
  2  3  1  0  0  0  0
  3  9  1  0  0  0  0
  4  2  1  0  0  0  0
  4  7  2  0  0  0  0
  5 16  1  6  0  0  0
  5  4  1  0  0  0  0
  6 10  1  0  0  0  0
  6 13  1  1  0  0  0
  8 14  2  0  0  0  0
  9  7  1  6  0  0  0
  9  6  1  0  0  0  0
 10  1  2  0  0  0  0
 11 10  1  0  0  0  0
 12 11  1  0  0  0  0
 14  7  1  0  0  0  0
 14 12  1  0  0  0  0
 15  5  1  0  0  0  0
 15  8  1  0  0  0  0
 16 17  1  0  0  0  0
 18 19  1  0  0  0  0
 19 23  1  0  0  0  0
 21 18  1  0  0  0  0
 21 24  1  0  0  0  0
 22 20  1  0  0  0  0
 23 20  1  0  0  0  0
 23 16  1  1  0  0  0
 24 22  1  0  0  0  0
 25  8  1  0  0  0  0
 26 25  1  0  0  0  0
 27 29  2  0  0  0  0
 27 26  1  0  0  0  0
 28 27  1  0  0  0  0
 30 28  1  0  0  0  0
 31 30  1  0  0  0  0
M  END
>  <MODEL>
4

>  <REMARK>
 VINA RESULT:      -7.0      3.009      7.532
  Name = 
  5 active torsions:
  status: ('A' for Active; 'I' for Inactive)
    1  A    between atoms: C_1  and  N_19
    2  A    between atoms: N_2  and  C_7
    3  A    between atoms: C_7  and  C_18
    4  A    between atoms: C_14  and  N_22
    5  A    between atoms: N_22  and  C_24
                            x       y       z     vdW  Elec       q    Type
                         _______ _______ _______ _____ _____    ______ ____

>  <TORSDO>
F 5

$$$$
=
 OpenBabel11052411183D

 31 34  0  0  1  0  0  0  0  0999 V2000
  161.4680  209.4240  155.4160 O   0  0  0  0  0  0  0  0  0  0  0  0
  161.7930  209.2700  149.8970 C   0  0  0  0  0  2  0  0  0  0  0  0
  162.0190  210.0530  151.0560 O   0  0  0  0  0  0  0  0  0  0  0  0
  161.6120  207.8790  150.3450 C   0  0  0  0  0  0  0  0  0  0  0  0
  161.2600  206.6890  149.5030 C   0  0  2  0  0  3  0  0  0  0  0  0
  160.8480  209.6210  153.1340 C   0  0  1  0  0  3  0  0  0  0  0  0
  161.6800  207.8240  151.6380 C   0  0  0  0  0  0  0  0  0  0  0  0
  161.1800  205.4550  151.6930 C   0  0  0  0  0  0  0  0  0  0  0  0
  161.9550  209.1800  152.1720 C   0  0  1  0  0  3  0  0  0  0  0  0
  160.9630  208.8870  154.4420 C   0  0  0  0  0  0  0  0  0  0  0  0
  160.5400  207.4570  154.5290 C   0  0  0  0  0  2  0  0  0  0  0  0
  161.5870  206.5590  153.8850 C   0  0  0  0  0  2  0  0  0  0  0  0
  160.9070  211.0030  153.3430 O   0  0  0  0  0  1  0  0  0  0  0  0
  161.4680  206.5720  152.3870 C   0  0  0  0  0  0  0  0  0  0  0  0
  161.0900  205.4920  150.2880 O   0  0  0  0  0  0  0  0  0  0  0  0
  162.2100  206.5040  148.3950 N   0  0  0  0  0  0  0  0  0  0  0  0
  163.0730  207.6780  148.4360 C   0  0  0  0  0  1  0  0  0  0  0  0
  160.8480  204.0170  147.3800 C   0  0  0  0  0  2  0  0  0  0  0  0
  160.3880  205.4300  147.0280 C   0  0  0  0  0  2  0  0  0  0  0  0
  162.5360  206.2090  145.9230 C   0  0  0  0  0  2  0  0  0  0  0  0
  161.3390  203.2270  146.1640 C   0  0  0  0  0  2  0  0  0  0  0  0
  163.1610  204.8950  146.0190 N   0  0  0  0  0  2  0  0  0  0  0  0
  161.5420  206.4490  147.0740 C   0  0  2  0  0  3  0  0  0  0  0  0
  162.3200  203.9790  145.2610 C   0  0  0  0  0  2  0  0  0  0  0  0
  160.9900  204.1420  152.3790 C   0  0  0  0  0  2  0  0  0  0  0  0
  161.5850  203.0870  151.5750 N   0  0  0  0  0  2  0  0  0  0  0  0
  160.8470  202.3840  150.5770 C   0  0  0  0  0  0  0  0  0  0  0  0
  161.5100  201.3960  149.7850 N   0  0  0  0  0  2  0  0  0  0  0  0
  159.6210  202.6220  150.4050 O   0  0  0  0  0  0  0  0  0  0  0  0
  160.8150  200.5800  148.8000 C   0  0  0  0  0  2  0  0  0  0  0  0
  161.7650  200.2060  147.6790 C   0  0  0  0  0  1  0  0  0  0  0  0
  2  4  1  0  0  0  0
  2  3  1  0  0  0  0
  4  7  2  0  0  0  0
  5 16  1  6  0  0  0
  5 15  1  0  0  0  0
  5  4  1  0  0  0  0
  6 13  1  1  0  0  0
  6 10  1  0  0  0  0
  7  9  1  0  0  0  0
  7 14  1  0  0  0  0
  8 25  1  0  0  0  0
  8 14  2  0  0  0  0
  9  3  1  6  0  0  0
  9  6  1  0  0  0  0
 10 11  1  0  0  0  0
 10  1  2  0  0  0  0
 12 11  1  0  0  0  0
 14 12  1  0  0  0  0
 15  8  1  0  0  0  0
 16 17  1  0  0  0  0
 19 23  1  0  0  0  0
 19 18  1  0  0  0  0
 20 22  1  0  0  0  0
 20 23  1  0  0  0  0
 21 18  1  0  0  0  0
 23 16  1  1  0  0  0
 24 22  1  0  0  0  0
 24 21  1  0  0  0  0
 26 25  1  0  0  0  0
 27 26  1  0  0  0  0
 28 27  1  0  0  0  0
 29 27  2  0  0  0  0
 30 28  1  0  0  0  0
 31 30  1  0  0  0  0
M  END
>  <MODEL>
5

>  <REMARK>
 VINA RESULT:      -6.7      2.553      6.995
  Name = 
  5 active torsions:
  status: ('A' for Active; 'I' for Inactive)
    1  A    between atoms: C_1  and  N_19
    2  A    between atoms: N_2  and  C_7
    3  A    between atoms: C_7  and  C_18
    4  A    between atoms: C_14  and  N_22
    5  A    between atoms: N_22  and  C_24
                            x       y       z     vdW  Elec       q    Type
                         _______ _______ _______ _____ _____    ______ ____

>  <TORSDO>
F 5

$$$$
=
 OpenBabel11052411183D

 31 34  0  0  1  0  0  0  0  0999 V2000
  161.9160  203.4490  147.7340 O   0  0  0  0  0  0  0  0  0  0  0  0
  160.9620  205.5630  152.7550 C   0  0  0  0  0  2  0  0  0  0  0  0
  161.2630  204.3870  152.0230 O   0  0  0  0  0  0  0  0  0  0  0  0
  161.2240  206.7040  151.8620 C   0  0  0  0  0  0  0  0  0  0  0  0
  160.9750  208.1560  152.1420 C   0  0  2  0  0  3  0  0  0  0  0  0
  160.7490  204.1870  149.6630 C   0  0  1  0  0  3  0  0  0  0  0  0
  161.6050  206.2720  150.7010 C   0  0  0  0  0  0  0  0  0  0  0  0
  161.7050  208.5030  149.7600 C   0  0  0  0  0  0  0  0  0  0  0  0
  161.6710  204.7910  150.7260 C   0  0  1  0  0  3  0  0  0  0  0  0
  161.3370  204.3690  148.2910 C   0  0  0  0  0  0  0  0  0  0  0  0
  161.2960  205.7120  147.6380 C   0  0  0  0  0  2  0  0  0  0  0  0
  162.3430  206.6280  148.2540 C   0  0  0  0  0  2  0  0  0  0  0  0
  160.5270  202.8300  149.9240 O   0  0  0  0  0  1  0  0  0  0  0  0
  161.8760  207.1800  149.5710 C   0  0  0  0  0  0  0  0  0  0  0  0
  161.2810  208.9950  151.0100 O   0  0  0  0  0  0  0  0  0  0  0  0
  161.6540  208.6000  153.3690 N   0  0  0  0  0  0  0  0  0  0  0  0
  160.8870  208.0110  154.4610 C   0  0  0  0  0  1  0  0  0  0  0  0
  162.0170  209.9400  156.0420 C   0  0  0  0  0  2  0  0  0  0  0  0
  162.4880  210.5520  154.7240 C   0  0  0  0  0  2  0  0  0  0  0  0
  160.2240  210.6530  153.5820 C   0  0  0  0  0  2  0  0  0  0  0  0
  160.9220  210.7610  156.7260 C   0  0  0  0  0  2  0  0  0  0  0  0
  159.5100  210.2040  154.7710 N   0  0  0  0  0  2  0  0  0  0  0  0
  161.6480  210.0730  153.5240 C   0  0  2  0  0  3  0  0  0  0  0  0
  159.7720  211.1910  155.8100 C   0  0  0  0  0  2  0  0  0  0  0  0
  161.9960  209.4860  148.6750 C   0  0  0  0  0  2  0  0  0  0  0  0
  161.9920  210.8300  149.2290 N   0  0  0  0  0  2  0  0  0  0  0  0
  161.4710  211.9470  148.5100 C   0  0  0  0  0  0  0  0  0  0  0  0
  161.4470  213.2310  149.1370 N   0  0  0  0  0  2  0  0  0  0  0  0
  161.0470  211.8050  147.3310 O   0  0  0  0  0  0  0  0  0  0  0  0
  161.0040  214.4350  148.4500 C   0  0  0  0  0  2  0  0  0  0  0  0
  159.4900  214.4530  148.3660 C   0  0  0  0  0  1  0  0  0  0  0  0
  1 10  2  0  0  0  0
  3  2  1  0  0  0  0
  4  5  1  0  0  0  0
  4  2  1  0  0  0  0
  5 16  1  1  0  0  0
  6 13  1  1  0  0  0
  6  9  1  0  0  0  0
  7  4  2  0  0  0  0
  8 15  1  0  0  0  0
  9  7  1  1  0  0  0
  9  3  1  0  0  0  0
 10  6  1  0  0  0  0
 11 12  1  0  0  0  0
 11 10  1  0  0  0  0
 12 14  1  0  0  0  0
 14  8  2  0  0  0  0
 14  7  1  0  0  0  0
 15  5  1  0  0  0  0
 16 17  1  0  0  0  0
 18 21  1  0  0  0  0
 19 18  1  0  0  0  0
 20 22  1  0  0  0  0
 22 24  1  0  0  0  0
 23 16  1  1  0  0  0
 23 20  1  0  0  0  0
 23 19  1  0  0  0  0
 24 21  1  0  0  0  0
 25 26  1  0  0  0  0
 25  8  1  0  0  0  0
 27 28  1  0  0  0  0
 27 26  1  0  0  0  0
 29 27  2  0  0  0  0
 30 28  1  0  0  0  0
 31 30  1  0  0  0  0
M  END
>  <MODEL>
6

>  <REMARK>
 VINA RESULT:      -6.6      2.148      5.053
  Name = 
  5 active torsions:
  status: ('A' for Active; 'I' for Inactive)
    1  A    between atoms: C_1  and  N_19
    2  A    between atoms: N_2  and  C_7
    3  A    between atoms: C_7  and  C_18
    4  A    between atoms: C_14  and  N_22
    5  A    between atoms: N_22  and  C_24
                            x       y       z     vdW  Elec       q    Type
                         _______ _______ _______ _____ _____    ______ ____

>  <TORSDO>
F 5

$$$$
=
 OpenBabel11052411183D

 31 34  0  0  1  0  0  0  0  0999 V2000
  161.9990  204.8240  148.1720 O   0  0  0  0  0  0  0  0  0  0  0  0
  160.6770  207.4240  152.8710 C   0  0  0  0  0  2  0  0  0  0  0  0
  160.9810  206.1740  152.2760 O   0  0  0  0  0  0  0  0  0  0  0  0
  161.0920  208.4660  151.9170 C   0  0  0  0  0  0  0  0  0  0  0  0
  160.9000  209.9480  152.0460 C   0  0  2  0  0  3  0  0  0  0  0  0
  160.6910  205.7890  149.9010 C   0  0  1  0  0  3  0  0  0  0  0  0
  161.5600  207.9140  150.8420 C   0  0  0  0  0  0  0  0  0  0  0  0
  161.8810  210.0440  149.7320 C   0  0  0  0  0  0  0  0  0  0  0  0
  161.5370  206.4400  150.9990 C   0  0  1  0  0  3  0  0  0  0  0  0
  161.4220  205.8180  148.5860 C   0  0  0  0  0  0  0  0  0  0  0  0
  161.5230  207.0970  147.8210 C   0  0  0  0  0  2  0  0  0  0  0  0
  162.5550  208.0130  148.4630 C   0  0  0  0  0  2  0  0  0  0  0  0
  160.3670  204.4730  150.2500 O   0  0  0  0  0  1  0  0  0  0  0  0
  161.9930  208.7030  149.6730 C   0  0  0  0  0  0  0  0  0  0  0  0
  161.3650  210.6660  150.8850 O   0  0  0  0  0  0  0  0  0  0  0  0
  161.4790  210.4670  153.2950 N   0  0  0  0  0  0  0  0  0  0  0  0
  162.8720  210.0340  153.2760 C   0  0  0  0  0  1  0  0  0  0  0  0
  159.6950  212.1240  155.0670 C   0  0  0  0  0  2  0  0  0  0  0  0
  159.5040  210.6240  154.8490 C   0  0  0  0  0  2  0  0  0  0  0  0
  161.7670  209.8750  155.7180 C   0  0  0  0  0  2  0  0  0  0  0  0
  160.0430  212.4790  156.5150 C   0  0  0  0  0  2  0  0  0  0  0  0
  162.1410  211.2170  156.1470 N   0  0  0  0  0  2  0  0  0  0  0  0
  160.8250  209.9110  154.5020 C   0  0  2  0  0  3  0  0  0  0  0  0
  161.1540  211.6260  157.1370 C   0  0  0  0  0  2  0  0  0  0  0  0
  162.3340  210.9100  148.6040 C   0  0  0  0  0  2  0  0  0  0  0  0
  161.1770  211.5280  147.9760 N   0  0  0  0  0  2  0  0  0  0  0  0
  161.2990  212.6190  147.0650 C   0  0  0  0  0  0  0  0  0  0  0  0
  160.1240  213.1420  146.4420 N   0  0  0  0  0  2  0  0  0  0  0  0
  162.4290  213.1240  146.8230 O   0  0  0  0  0  0  0  0  0  0  0  0
  160.1500  214.3010  145.5610 C   0  0  0  0  0  2  0  0  0  0  0  0
  160.2780  213.8490  144.1190 C   0  0  0  0  0  1  0  0  0  0  0  0
  1 10  2  0  0  0  0
  3  2  1  0  0  0  0
  4  5  1  0  0  0  0
  4  2  1  0  0  0  0
  5 16  1  1  0  0  0
  6 13  1  1  0  0  0
  6  9  1  0  0  0  0
  7  4  2  0  0  0  0
  8 15  1  0  0  0  0
  9  7  1  6  0  0  0
  9  3  1  0  0  0  0
 10  6  1  0  0  0  0
 11 12  1  0  0  0  0
 11 10  1  0  0  0  0
 12 14  1  0  0  0  0
 14  8  2  0  0  0  0
 14  7  1  0  0  0  0
 15  5  1  0  0  0  0
 17 16  1  0  0  0  0
 18 21  1  0  0  0  0
 19 18  1  0  0  0  0
 20 22  1  0  0  0  0
 21 24  1  0  0  0  0
 22 24  1  0  0  0  0
 23 16  1  6  0  0  0
 23 19  1  0  0  0  0
 23 20  1  0  0  0  0
 25  8  1  0  0  0  0
 26 25  1  0  0  0  0
 27 26  1  0  0  0  0
 28 27  1  0  0  0  0
 29 27  2  0  0  0  0
 30 28  1  0  0  0  0
 31 30  1  0  0  0  0
M  END
>  <MODEL>
7

>  <REMARK>
 VINA RESULT:      -6.5      2.944      6.188
  Name = 
  5 active torsions:
  status: ('A' for Active; 'I' for Inactive)
    1  A    between atoms: C_1  and  N_19
    2  A    between atoms: N_2  and  C_7
    3  A    between atoms: C_7  and  C_18
    4  A    between atoms: C_14  and  N_22
    5  A    between atoms: N_22  and  C_24
                            x       y       z     vdW  Elec       q    Type
                         _______ _______ _______ _____ _____    ______ ____

>  <TORSDO>
F 5

$$$$
=
 OpenBabel11052411183D

 31 34  0  0  1  0  0  0  0  0999 V2000
  161.0770  206.8530  146.9640 O   0  0  0  0  0  0  0  0  0  0  0  0
  162.2400  209.0970  151.8830 C   0  0  0  0  0  2  0  0  0  0  0  0
  161.9710  209.3590  150.5170 O   0  0  0  0  0  0  0  0  0  0  0  0
  161.8340  207.7060  152.1420 C   0  0  0  0  0  0  0  0  0  0  0  0
  162.0000  206.9300  153.4150 C   0  0  2  0  0  3  0  0  0  0  0  0
  162.3260  207.6830  148.8030 C   0  0  1  0  0  3  0  0  0  0  0  0
  161.4020  207.1650  151.0470 C   0  0  0  0  0  0  0  0  0  0  0  0
  161.0760  205.0030  152.0900 C   0  0  0  0  0  0  0  0  0  0  0  0
  161.4430  208.1690  149.9560 C   0  0  1  0  0  3  0  0  0  0  0  0
  161.6280  206.6010  148.0250 C   0  0  0  0  0  0  0  0  0  0  0  0
  161.5260  205.2240  148.5960 C   0  0  0  0  0  2  0  0  0  0  0  0
  160.4650  205.1830  149.6850 C   0  0  0  0  0  2  0  0  0  0  0  0
  162.6610  208.7500  147.9620 O   0  0  0  0  0  1  0  0  0  0  0  0
  160.9860  205.7520  150.9740 C   0  0  0  0  0  0  0  0  0  0  0  0
  161.5530  205.5650  153.2890 O   0  0  0  0  0  0  0  0  0  0  0  0
  161.3820  207.6190  154.5590 N   0  0  0  0  0  0  0  0  0  0  0  0
  160.0830  206.9790  154.7310 C   0  0  0  0  0  1  0  0  0  0  0  0
  162.3160  209.7390  156.4840 C   0  0  0  0  0  2  0  0  0  0  0  0
  162.2440  209.9490  154.9720 C   0  0  0  0  0  2  0  0  0  0  0  0
  159.7570  209.5280  154.7000 C   0  0  0  0  0  2  0  0  0  0  0  0
  161.3610  210.6480  157.2600 C   0  0  0  0  0  2  0  0  0  0  0  0
  159.5320  209.4160  156.1360 N   0  0  0  0  0  2  0  0  0  0  0  0
  161.1710  209.0640  154.3100 C   0  0  2  0  0  3  0  0  0  0  0  0
  159.9290  210.6900  156.7190 C   0  0  0  0  0  2  0  0  0  0  0  0
  160.6380  203.5750  152.1030 C   0  0  0  0  0  2  0  0  0  0  0  0
  161.4430  202.8160  151.1600 N   0  0  0  0  0  2  0  0  0  0  0  0
  160.8610  202.0600  150.0990 C   0  0  0  0  0  0  0  0  0  0  0  0
  161.7140  201.3830  149.1750 N   0  0  0  0  0  2  0  0  0  0  0  0
  159.6070  201.9820  149.9860 O   0  0  0  0  0  0  0  0  0  0  0  0
  161.2030  200.5300  148.1110 C   0  0  0  0  0  2  0  0  0  0  0  0
  160.8380  201.3730  146.9050 C   0  0  0  0  0  1  0  0  0  0  0  0
  1 10  2  0  0  0  0
  2  4  1  0  0  0  0
  3  2  1  0  0  0  0
  4  5  1  0  0  0  0
  5 16  1  1  0  0  0
  6 13  1  6  0  0  0
  6  9  1  0  0  0  0
  7  4  2  0  0  0  0
  8 25  1  0  0  0  0
  8 15  1  0  0  0  0
  9  3  1  1  0  0  0
  9  7  1  0  0  0  0
 10 11  1  0  0  0  0
 10  6  1  0  0  0  0
 11 12  1  0  0  0  0
 12 14  1  0  0  0  0
 14  7  1  0  0  0  0
 14  8  2  0  0  0  0
 15  5  1  0  0  0  0
 16 17  1  0  0  0  0
 18 21  1  0  0  0  0
 19 18  1  0  0  0  0
 20 22  1  0  0  0  0
 22 24  1  0  0  0  0
 23 16  1  1  0  0  0
 23 20  1  0  0  0  0
 23 19  1  0  0  0  0
 24 21  1  0  0  0  0
 26 25  1  0  0  0  0
 27 26  1  0  0  0  0
 28 27  1  0  0  0  0
 29 27  2  0  0  0  0
 30 28  1  0  0  0  0
 31 30  1  0  0  0  0
M  END
>  <MODEL>
8

>  <REMARK>
 VINA RESULT:      -6.1      2.214      5.560
  Name = 
  5 active torsions:
  status: ('A' for Active; 'I' for Inactive)
    1  A    between atoms: C_1  and  N_19
    2  A    between atoms: N_2  and  C_7
    3  A    between atoms: C_7  and  C_18
    4  A    between atoms: C_14  and  N_22
    5  A    between atoms: N_22  and  C_24
                            x       y       z     vdW  Elec       q    Type
                         _______ _______ _______ _____ _____    ______ ____

>  <TORSDO>
F 5

$$$$
=
 OpenBabel11052411183D

 31 34  0  0  1  0  0  0  0  0999 V2000
  161.7710  206.5560  153.9390 O   0  0  0  0  0  0  0  0  0  0  0  0
  161.3160  211.3340  151.1910 C   0  0  0  0  0  2  0  0  0  0  0  0
  161.4950  210.7330  152.4620 O   0  0  0  0  0  0  0  0  0  0  0  0
  161.5750  210.2930  150.1830 C   0  0  0  0  0  0  0  0  0  0  0  0
  161.4300  210.4100  148.6950 C   0  0  2  0  0  3  0  0  0  0  0  0
  160.7950  208.4550  152.9050 C   0  0  1  0  0  3  0  0  0  0  0  0
  161.8430  209.1700  150.7720 C   0  0  0  0  0  0  0  0  0  0  0  0
  161.9990  207.9610  148.6790 C   0  0  0  0  0  0  0  0  0  0  0  0
  161.8270  209.3720  152.2410 C   0  0  1  0  0  3  0  0  0  0  0  0
  161.2880  207.0340  152.9240 C   0  0  0  0  0  0  0  0  0  0  0  0
  161.2750  206.2270  151.6670 C   0  0  0  0  0  2  0  0  0  0  0  0
  162.4150  206.6540  150.7550 C   0  0  0  0  0  2  0  0  0  0  0  0
  160.5170  208.8930  154.2040 O   0  0  0  0  0  1  0  0  0  0  0  0
  162.0800  207.9230  150.0230 C   0  0  0  0  0  0  0  0  0  0  0  0
  161.6980  209.1660  148.0170 O   0  0  0  0  0  0  0  0  0  0  0  0
  162.2230  211.5260  148.1550 N   0  0  0  0  0  0  0  0  0  0  0  0
  163.4060  211.5960  149.0040 C   0  0  0  0  0  1  0  0  0  0  0  0
  160.1010  212.3080  146.1660 C   0  0  0  0  0  2  0  0  0  0  0  0
  160.0920  212.7590  147.6250 C   0  0  0  0  0  2  0  0  0  0  0  0
  162.3190  213.9740  147.6070 C   0  0  0  0  0  2  0  0  0  0  0  0
  160.2590  213.4690  145.1810 C   0  0  0  0  0  2  0  0  0  0  0  0
  162.5040  213.7910  146.1730 N   0  0  0  0  0  2  0  0  0  0  0  0
  161.5090  212.8210  148.2260 C   0  0  2  0  0  3  0  0  0  0  0  0
  161.3830  214.4530  145.5220 C   0  0  0  0  0  2  0  0  0  0  0  0
  162.2630  206.7460  147.8510 C   0  0  0  0  0  2  0  0  0  0  0  0
  161.4520  205.6440  148.3400 N   0  0  0  0  0  2  0  0  0  0  0  0
  161.6160  204.3090  147.8640 C   0  0  0  0  0  0  0  0  0  0  0  0
  160.8230  203.2630  148.4290 N   0  0  0  0  0  2  0  0  0  0  0  0
  162.4440  204.0570  146.9470 O   0  0  0  0  0  0  0  0  0  0  0  0
  160.8730  201.8900  147.9500 C   0  0  0  0  0  2  0  0  0  0  0  0
  161.1160  200.9470  149.1120 C   0  0  0  0  0  1  0  0  0  0  0  0
  2  3  1  0  0  0  0
  4  7  2  0  0  0  0
  4  2  1  0  0  0  0
  5 16  1  6  0  0  0
  5  4  1  0  0  0  0
  6 10  1  0  0  0  0
  6 13  1  1  0  0  0
  8 14  2  0  0  0  0
  9  7  1  6  0  0  0
  9  3  1  0  0  0  0
  9  6  1  0  0  0  0
 10  1  2  0  0  0  0
 11 10  1  0  0  0  0
 12 11  1  0  0  0  0
 14 12  1  0  0  0  0
 14  7  1  0  0  0  0
 15  8  1  0  0  0  0
 15  5  1  0  0  0  0
 16 17  1  0  0  0  0
 18 19  1  0  0  0  0
 19 23  1  0  0  0  0
 20 23  1  0  0  0  0
 21 24  1  0  0  0  0
 21 18  1  0  0  0  0
 22 20  1  0  0  0  0
 23 16  1  6  0  0  0
 24 22  1  0  0  0  0
 25 26  1  0  0  0  0
 25  8  1  0  0  0  0
 27 26  1  0  0  0  0
 27 28  1  0  0  0  0
 29 27  2  0  0  0  0
 30 28  1  0  0  0  0
 30 31  1  0  0  0  0
M  END
>  <MODEL>
9

>  <REMARK>
 VINA RESULT:      -5.8      2.973      6.449
  Name = 
  5 active torsions:
  status: ('A' for Active; 'I' for Inactive)
    1  A    between atoms: C_1  and  N_19
    2  A    between atoms: N_2  and  C_7
    3  A    between atoms: C_7  and  C_18
    4  A    between atoms: C_14  and  N_22
    5  A    between atoms: N_22  and  C_24
                            x       y       z     vdW  Elec       q    Type
                         _______ _______ _______ _____ _____    ______ ____

>  <TORSDO>
F 5

$$$$
