=
 OpenBabel11052412073D

 50 53  0  0  1  0  0  0  0  0999 V2000
  161.7690  209.4520  150.5800 C   0  0  1  0  0  3  0  0  0  0  0  0
  161.7800  209.8870  152.0480 C   0  0  0  0  0  2  0  0  0  0  0  0
  160.5570  210.7320  152.3780 C   0  0  0  0  0  2  0  0  0  0  0  0
  159.9870  210.3210  153.6540 N   0  0  0  0  0  2  0  0  0  0  0  0
  158.6430  212.2160  153.9010 O   0  0  0  0  0  0  0  0  0  0  0  0
  158.9900  211.0860  154.3360 C   0  0  0  0  0  0  0  0  0  0  0  0
  158.3130  210.5250  155.5510 C   0  0  2  0  0  3  0  0  0  0  0  0
  156.3110  211.7720  156.4720 C   0  0  0  0  0  0  0  0  0  0  0  0
  155.7760  212.9170  157.2540 C   0  0  0  0  0  1  0  0  0  0  0  0
  155.5110  210.9700  155.9160 O   0  0  0  0  0  0  0  0  0  0  0  0
  157.7240  211.5910  156.3560 N   0  0  0  0  0  2  0  0  0  0  0  0
  159.4310  208.3690  156.1660 O   0  0  0  0  0  0  0  0  0  0  0  0
  159.2760  209.7340  156.3730 C   0  0  0  0  0  0  0  0  0  0  0  0
  159.9590  210.3080  157.2580 O   0  0  0  0  0  1  0  0  0  0  0  0
  162.3950  210.4010  149.7110 O   0  0  0  0  0  0  0  0  0  0  0  0
  160.8490  212.2010  149.7000 N   0  0  0  0  0  0  0  0  0  0  0  0
  158.5780  213.2040  148.6250 S   0  0  0  0  0  0  0  0  0  0  0  0
  162.0700  211.9130  147.7160 C   0  0  0  0  0  2  0  0  0  0  0  0
  161.7600  211.4940  149.1090 C   0  0  0  0  0  0  0  0  0  0  0  0
  160.6780  213.5260  146.3750 C   0  0  0  0  0  0  0  0  0  0  0  0
  160.3840  213.2740  148.8410 C   0  0  2  0  0  3  0  0  0  0  0  0
  159.5200  214.4470  146.3520 C   0  0  0  0  0  3  0  0  0  0  0  0
  158.5920  214.4480  147.3180 C   0  0  0  0  0  3  0  0  0  0  0  0
  161.0500  212.9800  147.5400 C   0  0  0  0  0  0  0  0  0  0  0  0
  159.6290  212.8230  143.7150 O   0  0  0  0  0  0  0  0  0  0  0  0
  161.4190  213.2170  145.1850 N   0  0  0  0  0  2  0  0  0  0  0  0
  160.8760  212.8820  143.8990 C   0  0  0  0  0  0  0  0  0  0  0  0
  162.9190  213.1500  142.7430 O   0  0  0  0  0  0  0  0  0  0  0  0
  161.7850  212.5980  142.7840 C   0  0  0  0  0  0  0  0  0  0  0  0
  161.3920  211.7140  141.7760 O   0  0  0  0  0  0  0  0  0  0  0  0
  161.8690  211.8360  140.4400 C   0  0  1  0  0  3  0  0  0  0  0  0
  161.4770  210.6090  139.6450 C   0  0  1  0  0  3  0  0  0  0  0  0
  160.7250  211.9070  139.4330 C   0  0  1  0  0  3  0  0  0  0  0  0
  162.4540  210.4060  138.5080 C   0  0  0  0  0  2  0  0  0  0  0  0
  163.3220  211.5020  138.4330 O   0  0  0  0  0  1  0  0  0  0  0  0
  159.4800  211.8410  140.0640 O   0  0  0  0  0  0  0  0  0  0  0  0
  158.5570  212.1700  139.0680 C   0  0  0  0  0  2  0  0  0  0  0  0
  157.4110  211.3950  139.2250 O   0  0  0  0  0  1  0  0  0  0  0  0
  162.2410  208.0170  150.3300 C   0  0  0  0  0  2  0  0  0  0  0  0
  161.7200  207.0270  151.3600 C   0  0  0  0  0  2  0  0  0  0  0  0
  161.5330  204.5940  151.4270 C   0  0  0  0  0  3  0  0  0  0  0  0
  161.4320  205.7180  150.7100 C   0  0  0  0  0  0  0  0  0  0  0  0
  160.9320  203.2030  149.3880 C   0  0  0  0  0  0  0  0  0  0  0  0
  160.9700  205.7130  149.2700 C   0  0  0  0  0  2  0  0  0  0  0  0
  161.2610  203.2860  150.8190 C   0  0  0  0  0  0  0  0  0  0  0  0
  160.8180  204.3320  148.6720 C   0  0  0  0  0  3  0  0  0  0  0  0
  161.3320  202.2430  151.5190 O   0  0  0  0  0  0  0  0  0  0  0  0
  160.7470  201.9420  148.8030 O   0  0  0  0  0  0  0  0  0  0  0  0
  161.2580  200.2300  147.1820 C   0  0  0  0  0  1  0  0  0  0  0  0
  160.9230  201.6930  147.4120 C   0  0  0  0  0  2  0  0  0  0  0  0
  1 39  1  1  0  0  0
  1  2  1  0  0  0  0
  2  3  1  0  0  0  0
  3  4  1  0  0  0  0
  4  6  1  0  0  0  0
  5  6  2  0  0  0  0
  7  6  1  6  0  0  0
  7 11  1  0  0  0  0
  7 13  1  0  0  0  0
  8  9  1  0  0  0  0
 10  8  2  0  0  0  0
 11  8  1  0  0  0  0
 12 13  2  0  0  0  0
 13 14  1  0  0  0  0
 15  1  1  0  0  0  0
 17 21  1  0  0  0  0
 18 19  1  0  0  0  0
 19 16  2  0  0  0  0
 19 15  1  0  0  0  0
 20 24  2  0  0  0  0
 21 24  1  6  0  0  0
 21 16  1  0  0  0  0
 22 20  1  0  0  0  0
 22 23  2  0  0  0  0
 23 17  1  0  0  0  0
 24 18  1  0  0  0  0
 25 27  2  0  0  0  0
 26 20  1  0  0  0  0
 27 26  1  0  0  0  0
 28 29  2  0  0  0  0
 29 27  1  0  0  0  0
 30 29  1  0  0  0  0
 31 30  1  1  0  0  0
 32 34  1  6  0  0  0
 32 31  1  0  0  0  0
 33 32  1  0  0  0  0
 33 36  1  1  0  0  0
 33 31  1  0  0  0  0
 35 34  1  0  0  0  0
 37 38  1  0  0  0  0
 37 36  1  0  0  0  0
 39 40  1  0  0  0  0
 42 40  1  0  0  0  0
 42 41  2  0  0  0  0
 43 45  1  0  0  0  0
 44 42  1  0  0  0  0
 45 41  1  0  0  0  0
 45 47  2  0  0  0  0
 46 44  1  0  0  0  0
 46 43  2  0  0  0  0
 48 43  1  0  0  0  0
 49 50  1  0  0  0  0
 50 48  1  0  0  0  0
M  END
>  <MODEL>
1

>  <REMARK>
 VINA RESULT:      -6.0      0.000      0.000
  Name = 
  20 active torsions:
  status: ('A' for Active; 'I' for Inactive)
    1  A    between atoms: C_2  and  C_7
    2  A    between atoms: C_2  and  O_8
    3  A    between atoms: C_2  and  C_35
    4  A    between atoms: N_3  and  C_18
    5  A    between atoms: O_4  and  C_9
    6  A    between atoms: O_4  and  C_40
    7  A    between atoms: C_6  and  C_7
    8  A    between atoms: C_6  and  C_15
    9  A    between atoms: O_8  and  C_23
   10  A    between atoms: C_11  and  C_36
   11  A    between atoms: C_18  and  C_35
   12  A    between atoms: C_22  and  CA_50
   13  A    between atoms: C_25  and  CA_50
   14  A    between atoms: N_26  and  C_28
   15  A    between atoms: C_30  and  C_37
   16  A    between atoms: C_30  and  O_48
   17  A    between atoms: C_33  and  O_48
   18  A    between atoms: O_38  and  C_39
   19  A    between atoms: O_38  and  C_42
   20  A    between atoms: N_47  and  CA_50
                            x       y       z     vdW  Elec       q    Type
                         _______ _______ _______ _____ _____    ______ ____

>  <TORSDO>
F 20

$$$$
=
 OpenBabel11052412073D

 50 53  0  0  1  0  0  0  0  0999 V2000
  161.5530  212.3740  149.5340 C   0  0  1  0  0  3  0  0  0  0  0  0
  160.1630  212.6420  150.1140 C   0  0  0  0  0  2  0  0  0  0  0  0
  160.0220  214.0940  150.5520 C   0  0  0  0  0  2  0  0  0  0  0  0
  159.5450  214.1650  151.9260 N   0  0  0  0  0  2  0  0  0  0  0  0
  157.2920  213.8860  151.3770 O   0  0  0  0  0  0  0  0  0  0  0  0
  158.1680  213.9960  152.2750 C   0  0  0  0  0  0  0  0  0  0  0  0
  157.7640  213.9020  153.7150 C   0  0  2  0  0  3  0  0  0  0  0  0
  158.8610  214.2020  155.9770 C   0  0  0  0  0  0  0  0  0  0  0  0
  160.1020  214.2350  156.7940 C   0  0  0  0  0  1  0  0  0  0  0  0
  157.7510  214.4530  156.5220 O   0  0  0  0  0  0  0  0  0  0  0  0
  158.9360  213.8890  154.5850 N   0  0  0  0  0  2  0  0  0  0  0  0
  157.5170  211.4220  153.9680 O   0  0  0  0  0  0  0  0  0  0  0  0
  156.9350  212.6820  153.9520 C   0  0  0  0  0  0  0  0  0  0  0  0
  155.6990  212.7980  154.1460 O   0  0  0  0  0  1  0  0  0  0  0  0
  162.0440  211.0650  149.8380 O   0  0  0  0  0  0  0  0  0  0  0  0
  161.1780  210.6680  152.0110 N   0  0  0  0  0  0  0  0  0  0  0  0
  161.6140  209.5350  154.4290 S   0  0  0  0  0  0  0  0  0  0  0  0
  161.4670  208.7560  150.6800 C   0  0  0  0  0  2  0  0  0  0  0  0
  161.5580  210.2310  150.8520 C   0  0  0  0  0  0  0  0  0  0  0  0
  161.0780  207.1280  152.5610 C   0  0  0  0  0  0  0  0  0  0  0  0
  160.7100  209.5800  152.8500 C   0  0  2  0  0  3  0  0  0  0  0  0
  160.7980  206.9370  154.0010 C   0  0  0  0  0  3  0  0  0  0  0  0
  160.9210  207.9340  154.8870 C   0  0  0  0  0  3  0  0  0  0  0  0
  161.0470  208.3670  152.0520 C   0  0  0  0  0  0  0  0  0  0  0  0
  160.4550  204.2820  152.9890 O   0  0  0  0  0  0  0  0  0  0  0  0
  161.3640  206.0190  151.6940 N   0  0  0  0  0  2  0  0  0  0  0  0
  161.0420  204.6400  151.9310 C   0  0  0  0  0  0  0  0  0  0  0  0
  162.1030  202.6360  151.2680 O   0  0  0  0  0  0  0  0  0  0  0  0
  161.4060  203.6330  150.9310 C   0  0  0  0  0  0  0  0  0  0  0  0
  160.9720  203.7790  149.6100 O   0  0  0  0  0  0  0  0  0  0  0  0
  161.6100  203.1040  148.5300 C   0  0  1  0  0  3  0  0  0  0  0  0
  160.6920  203.0880  147.3270 C   0  0  1  0  0  3  0  0  0  0  0  0
  161.8710  204.0390  147.3520 C   0  0  1  0  0  3  0  0  0  0  0  0
  161.0250  201.9010  146.4500 C   0  0  0  0  0  2  0  0  0  0  0  0
  160.3450  202.0120  145.2300 O   0  0  0  0  0  1  0  0  0  0  0  0
  161.4260  205.3360  147.6170 O   0  0  0  0  0  0  0  0  0  0  0  0
  162.1190  206.1430  146.7120 C   0  0  0  0  0  2  0  0  0  0  0  0
  161.8510  205.7170  145.4130 O   0  0  0  0  0  1  0  0  0  0  0  0
  161.7150  212.7390  148.0550 C   0  0  0  0  0  2  0  0  0  0  0  0
  160.4560  212.5000  147.2370 C   0  0  0  0  0  2  0  0  0  0  0  0
  161.9700  213.0490  145.4030 C   0  0  0  0  0  3  0  0  0  0  0  0
  160.7590  212.6270  145.7850 C   0  0  0  0  0  0  0  0  0  0  0  0
  161.2760  212.9230  142.9620 C   0  0  0  0  0  0  0  0  0  0  0  0
  159.7030  212.2100  144.7860 C   0  0  0  0  0  2  0  0  0  0  0  0
  162.3030  213.1900  143.9800 C   0  0  0  0  0  0  0  0  0  0  0  0
  160.0670  212.4880  143.3450 C   0  0  0  0  0  3  0  0  0  0  0  0
  163.4560  213.5600  143.6410 O   0  0  0  0  0  0  0  0  0  0  0  0
  161.5850  213.1340  141.6100 O   0  0  0  0  0  0  0  0  0  0  0  0
  161.9050  212.3820  139.3410 C   0  0  0  0  0  1  0  0  0  0  0  0
  162.2550  212.1710  140.8030 C   0  0  0  0  0  2  0  0  0  0  0  0
  1 39  1  6  0  0  0
  1 15  1  0  0  0  0
  1  2  1  0  0  0  0
  2  3  1  0  0  0  0
  3  4  1  0  0  0  0
  4  6  1  0  0  0  0
  5  6  2  0  0  0  0
  7  6  1  6  0  0  0
  7 13  1  0  0  0  0
  7 11  1  0  0  0  0
  8 10  2  0  0  0  0
  8  9  1  0  0  0  0
 11  8  1  0  0  0  0
 13 12  2  0  0  0  0
 13 14  1  0  0  0  0
 15 19  1  0  0  0  0
 17 23  1  0  0  0  0
 18 19  1  0  0  0  0
 18 24  1  0  0  0  0
 19 16  2  0  0  0  0
 20 22  1  0  0  0  0
 21 16  1  6  0  0  0
 21 17  1  0  0  0  0
 22 23  2  0  0  0  0
 24 20  2  0  0  0  0
 24 21  1  0  0  0  0
 26 27  1  0  0  0  0
 26 20  1  0  0  0  0
 27 25  2  0  0  0  0
 29 28  2  0  0  0  0
 29 27  1  0  0  0  0
 30 29  1  0  0  0  0
 31 30  1  1  0  0  0
 32 34  1  6  0  0  0
 32 33  1  0  0  0  0
 32 31  1  0  0  0  0
 33 36  1  1  0  0  0
 33 31  1  0  0  0  0
 35 34  1  0  0  0  0
 37 36  1  0  0  0  0
 38 37  1  0  0  0  0
 40 39  1  0  0  0  0
 41 42  2  0  0  0  0
 42 40  1  0  0  0  0
 43 46  2  0  0  0  0
 43 45  1  0  0  0  0
 44 42  1  0  0  0  0
 45 41  1  0  0  0  0
 46 44  1  0  0  0  0
 47 45  2  0  0  0  0
 48 43  1  0  0  0  0
 49 50  1  0  0  0  0
 50 48  1  0  0  0  0
M  END
>  <MODEL>
2

>  <REMARK>
 VINA RESULT:      -5.7      2.649      8.870
  Name = 
  20 active torsions:
  status: ('A' for Active; 'I' for Inactive)
    1  A    between atoms: C_2  and  C_7
    2  A    between atoms: C_2  and  O_8
    3  A    between atoms: C_2  and  C_35
    4  A    between atoms: N_3  and  C_18
    5  A    between atoms: O_4  and  C_9
    6  A    between atoms: O_4  and  C_40
    7  A    between atoms: C_6  and  C_7
    8  A    between atoms: C_6  and  C_15
    9  A    between atoms: O_8  and  C_23
   10  A    between atoms: C_11  and  C_36
   11  A    between atoms: C_18  and  C_35
   12  A    between atoms: C_22  and  CA_50
   13  A    between atoms: C_25  and  CA_50
   14  A    between atoms: N_26  and  C_28
   15  A    between atoms: C_30  and  C_37
   16  A    between atoms: C_30  and  O_48
   17  A    between atoms: C_33  and  O_48
   18  A    between atoms: O_38  and  C_39
   19  A    between atoms: O_38  and  C_42
   20  A    between atoms: N_47  and  CA_50
                            x       y       z     vdW  Elec       q    Type
                         _______ _______ _______ _____ _____    ______ ____

>  <TORSDO>
F 20

$$$$
=
 OpenBabel11052412073D

 50 53  0  0  1  0  0  0  0  0999 V2000
  161.6690  212.3870  149.1570 C   0  0  1  0  0  3  0  0  0  0  0  0
  160.2220  212.6050  149.6040 C   0  0  0  0  0  2  0  0  0  0  0  0
  159.9710  214.0660  149.9540 C   0  0  0  0  0  2  0  0  0  0  0  0
  159.6870  214.2050  151.3760 N   0  0  0  0  0  2  0  0  0  0  0  0
  157.3790  213.9260  151.1550 O   0  0  0  0  0  0  0  0  0  0  0  0
  158.3710  214.0660  151.9180 C   0  0  0  0  0  0  0  0  0  0  0  0
  158.1680  214.0420  153.4030 C   0  0  2  0  0  3  0  0  0  0  0  0
  159.4040  213.2120  155.4510 C   0  0  0  0  0  0  0  0  0  0  0  0
  160.4560  212.3390  156.0340 C   0  0  0  0  0  1  0  0  0  0  0  0
  158.7530  213.9880  156.2030 O   0  0  0  0  0  0  0  0  0  0  0  0
  159.1410  213.1660  154.0460 N   0  0  0  0  0  2  0  0  0  0  0  0
  156.4990  212.2630  153.9760 O   0  0  0  0  0  1  0  0  0  0  0  0
  156.7810  213.6020  153.7390 C   0  0  0  0  0  0  0  0  0  0  0  0
  155.8590  214.4530  153.8150 O   0  0  0  0  0  0  0  0  0  0  0  0
  162.1570  211.0760  149.4590 O   0  0  0  0  0  0  0  0  0  0  0  0
  161.4090  210.6600  151.6720 N   0  0  0  0  0  0  0  0  0  0  0  0
  161.9090  209.3940  154.0100 S   0  0  0  0  0  0  0  0  0  0  0  0
  161.4430  208.7890  150.2550 C   0  0  0  0  0  2  0  0  0  0  0  0
  161.6710  210.2430  150.4740 C   0  0  0  0  0  0  0  0  0  0  0  0
  161.0440  207.1210  152.0970 C   0  0  0  0  0  0  0  0  0  0  0  0
  160.9070  209.5800  152.5010 C   0  0  2  0  0  3  0  0  0  0  0  0
  160.8470  206.8930  153.5460 C   0  0  0  0  0  3  0  0  0  0  0  0
  161.1140  207.8370  154.4570 C   0  0  0  0  0  3  0  0  0  0  0  0
  161.0850  208.3790  151.6370 C   0  0  0  0  0  0  0  0  0  0  0  0
  160.7080  204.2430  152.6250 O   0  0  0  0  0  0  0  0  0  0  0  0
  161.1740  206.0290  151.1720 N   0  0  0  0  0  2  0  0  0  0  0  0
  161.0000  204.6340  151.4620 C   0  0  0  0  0  0  0  0  0  0  0  0
  160.6430  202.5060  150.5000 O   0  0  0  0  0  0  0  0  0  0  0  0
  161.1670  203.6490  150.3900 C   0  0  0  0  0  0  0  0  0  0  0  0
  161.9010  203.9840  149.2480 O   0  0  0  0  0  0  0  0  0  0  0  0
  161.3040  204.6420  148.1360 C   0  0  1  0  0  3  0  0  0  0  0  0
  162.2510  204.6090  146.9560 C   0  0  1  0  0  3  0  0  0  0  0  0
  161.0530  203.6810  146.9770 C   0  0  1  0  0  3  0  0  0  0  0  0
  161.9620  205.7770  146.0390 C   0  0  0  0  0  2  0  0  0  0  0  0
  160.8970  206.5270  146.5540 O   0  0  0  0  0  1  0  0  0  0  0  0
  161.4660  202.3830  147.2870 O   0  0  0  0  0  0  0  0  0  0  0  0
  160.7550  201.5620  146.4090 C   0  0  0  0  0  2  0  0  0  0  0  0
  161.2250  200.2560  146.5110 O   0  0  0  0  0  1  0  0  0  0  0  0
  161.9690  212.8140  147.7170 C   0  0  0  0  0  2  0  0  0  0  0  0
  160.7690  212.6870  146.7910 C   0  0  0  0  0  2  0  0  0  0  0  0
  160.3950  212.2730  144.4150 C   0  0  0  0  0  3  0  0  0  0  0  0
  161.2140  212.7260  145.3700 C   0  0  0  0  0  0  0  0  0  0  0  0
  162.1480  212.7580  142.6410 C   0  0  0  0  0  0  0  0  0  0  0  0
  162.5590  213.3390  145.0510 C   0  0  0  0  0  2  0  0  0  0  0  0
  160.8010  212.2930  143.0050 C   0  0  0  0  0  0  0  0  0  0  0  0
  162.9640  213.2240  143.5990 C   0  0  0  0  0  3  0  0  0  0  0  0
  160.0040  211.8910  142.1180 O   0  0  0  0  0  0  0  0  0  0  0  0
  162.5500  212.7010  141.2980 O   0  0  0  0  0  0  0  0  0  0  0  0
  163.0610  211.6340  139.1960 C   0  0  0  0  0  1  0  0  0  0  0  0
  162.1440  211.6690  140.4050 C   0  0  0  0  0  2  0  0  0  0  0  0
  1 39  1  6  0  0  0
  1 15  1  0  0  0  0
  1  2  1  0  0  0  0
  2  3  1  0  0  0  0
  3  4  1  0  0  0  0
  4  6  1  0  0  0  0
  5  6  2  0  0  0  0
  7  6  1  6  0  0  0
  7 13  1  0  0  0  0
  7 11  1  0  0  0  0
  8  9  1  0  0  0  0
  8 10  2  0  0  0  0
 11  8  1  0  0  0  0
 13 14  2  0  0  0  0
 13 12  1  0  0  0  0
 15 19  1  0  0  0  0
 16 21  1  0  0  0  0
 17 23  1  0  0  0  0
 18 19  1  0  0  0  0
 18 24  1  0  0  0  0
 19 16  2  0  0  0  0
 20 22  1  0  0  0  0
 21 24  1  6  0  0  0
 21 17  1  0  0  0  0
 22 23  2  0  0  0  0
 24 20  2  0  0  0  0
 26 27  1  0  0  0  0
 26 20  1  0  0  0  0
 27 25  2  0  0  0  0
 29 28  2  0  0  0  0
 29 27  1  0  0  0  0
 30 29  1  0  0  0  0
 31 30  1  1  0  0  0
 32 34  1  6  0  0  0
 32 33  1  0  0  0  0
 32 31  1  0  0  0  0
 33 36  1  1  0  0  0
 33 31  1  0  0  0  0
 34 35  1  0  0  0  0
 37 38  1  0  0  0  0
 37 36  1  0  0  0  0
 40 39  1  0  0  0  0
 41 42  2  0  0  0  0
 42 40  1  0  0  0  0
 43 45  1  0  0  0  0
 43 46  2  0  0  0  0
 44 42  1  0  0  0  0
 45 41  1  0  0  0  0
 46 44  1  0  0  0  0
 47 45  2  0  0  0  0
 48 43  1  0  0  0  0
 49 50  1  0  0  0  0
 50 48  1  0  0  0  0
M  END
>  <MODEL>
3

>  <REMARK>
 VINA RESULT:      -5.5      2.540      8.904
  Name = 
  20 active torsions:
  status: ('A' for Active; 'I' for Inactive)
    1  A    between atoms: C_2  and  C_7
    2  A    between atoms: C_2  and  O_8
    3  A    between atoms: C_2  and  C_35
    4  A    between atoms: N_3  and  C_18
    5  A    between atoms: O_4  and  C_9
    6  A    between atoms: O_4  and  C_40
    7  A    between atoms: C_6  and  C_7
    8  A    between atoms: C_6  and  C_15
    9  A    between atoms: O_8  and  C_23
   10  A    between atoms: C_11  and  C_36
   11  A    between atoms: C_18  and  C_35
   12  A    between atoms: C_22  and  CA_50
   13  A    between atoms: C_25  and  CA_50
   14  A    between atoms: N_26  and  C_28
   15  A    between atoms: C_30  and  C_37
   16  A    between atoms: C_30  and  O_48
   17  A    between atoms: C_33  and  O_48
   18  A    between atoms: O_38  and  C_39
   19  A    between atoms: O_38  and  C_42
   20  A    between atoms: N_47  and  CA_50
                            x       y       z     vdW  Elec       q    Type
                         _______ _______ _______ _____ _____    ______ ____

>  <TORSDO>
F 20

$$$$
=
 OpenBabel11052412073D

 50 53  0  0  1  0  0  0  0  0999 V2000
  161.4270  212.1720  148.5490 C   0  0  1  0  0  3  0  0  0  0  0  0
  161.7640  213.1090  147.3860 C   0  0  0  0  0  2  0  0  0  0  0  0
  160.5190  213.4400  146.5720 C   0  0  0  0  0  2  0  0  0  0  0  0
  160.8630  213.6080  145.1670 N   0  0  0  0  0  2  0  0  0  0  0  0
  159.7610  211.6770  144.4520 O   0  0  0  0  0  0  0  0  0  0  0  0
  160.4020  212.7170  144.1470 C   0  0  0  0  0  0  0  0  0  0  0  0
  160.6400  213.0400  142.7030 C   0  0  2  0  0  3  0  0  0  0  0  0
  159.5190  212.3550  140.5380 C   0  0  0  0  0  0  0  0  0  0  0  0
  158.8440  211.3040  139.7340 C   0  0  0  0  0  1  0  0  0  0  0  0
  159.6410  213.5180  140.0650 O   0  0  0  0  0  0  0  0  0  0  0  0
  160.0240  212.0390  141.8380 N   0  0  0  0  0  2  0  0  0  0  0  0
  162.7320  212.1910  141.6170 O   0  0  0  0  0  0  0  0  0  0  0  0
  162.1020  213.1360  142.4170 C   0  0  0  0  0  0  0  0  0  0  0  0
  162.7700  214.0850  142.8990 O   0  0  0  0  0  1  0  0  0  0  0  0
  162.4760  211.2440  148.8400 O   0  0  0  0  0  0  0  0  0  0  0  0
  162.3960  208.9410  148.2760 N   0  0  0  0  0  0  0  0  0  0  0  0
  160.8430  206.7380  148.0490 S   0  0  0  0  0  0  0  0  0  0  0  0
  161.9580  209.4390  150.5280 C   0  0  0  0  0  2  0  0  0  0  0  0
  162.3000  209.8900  149.1520 C   0  0  0  0  0  0  0  0  0  0  0  0
  161.1520  207.1250  151.1030 C   0  0  0  0  0  0  0  0  0  0  0  0
  162.1800  207.6430  148.8890 C   0  0  2  0  0  3  0  0  0  0  0  0
  160.8620  205.7550  150.6250 C   0  0  0  0  0  3  0  0  0  0  0  0
  160.7840  205.4590  149.3210 C   0  0  0  0  0  3  0  0  0  0  0  0
  161.7500  207.9900  150.2730 C   0  0  0  0  0  0  0  0  0  0  0  0
  161.6540  205.6960  153.6290 O   0  0  0  0  0  0  0  0  0  0  0  0
  160.8240  207.5430  152.4380 N   0  0  0  0  0  2  0  0  0  0  0  0
  161.0870  206.8230  153.6520 C   0  0  0  0  0  0  0  0  0  0  0  0
  159.7190  206.9060  155.5760 O   0  0  0  0  0  0  0  0  0  0  0  0
  160.6870  207.4040  154.9360 C   0  0  0  0  0  0  0  0  0  0  0  0
  161.3830  208.5020  155.4480 O   0  0  0  0  0  0  0  0  0  0  0  0
  161.5800  209.6890  154.6860 C   0  0  1  0  0  3  0  0  0  0  0  0
  160.7170  210.8010  155.2440 C   0  0  1  0  0  3  0  0  0  0  0  0
  162.2060  210.8020  155.5220 C   0  0  1  0  0  3  0  0  0  0  0  0
  160.4110  211.8030  154.1530 C   0  0  0  0  0  2  0  0  0  0  0  0
  159.1680  211.5110  153.5800 O   0  0  0  0  0  1  0  0  0  0  0  0
  162.4420  210.3880  156.8360 O   0  0  0  0  0  0  0  0  0  0  0  0
  163.6480  210.9950  157.1900 C   0  0  0  0  0  2  0  0  0  0  0  0
  164.2860  211.4620  156.0440 O   0  0  0  0  0  1  0  0  0  0  0  0
  160.8860  212.8690  149.8010 C   0  0  0  0  0  2  0  0  0  0  0  0
  160.0660  214.1100  149.4890 C   0  0  0  0  0  2  0  0  0  0  0  0
  157.6480  214.0230  149.8140 C   0  0  0  0  0  3  0  0  0  0  0  0
  158.8610  214.1590  150.3630 C   0  0  0  0  0  0  0  0  0  0  0  0
  156.5540  214.3290  152.0870 C   0  0  0  0  0  0  0  0  0  0  0  0
  159.0560  214.2960  151.8560 C   0  0  0  0  0  2  0  0  0  0  0  0
  156.4380  214.0690  150.6440 C   0  0  0  0  0  0  0  0  0  0  0  0
  157.7710  214.4520  152.6380 C   0  0  0  0  0  3  0  0  0  0  0  0
  155.3090  213.9090  150.1130 O   0  0  0  0  0  0  0  0  0  0  0  0
  155.3860  214.4450  152.8540 O   0  0  0  0  0  0  0  0  0  0  0  0
  155.2570  212.7620  154.5770 C   0  0  0  0  0  1  0  0  0  0  0  0
  155.3540  214.2440  154.2640 C   0  0  0  0  0  2  0  0  0  0  0  0
  1  2  1  6  0  0  0
  1 15  1  0  0  0  0
  1 39  1  0  0  0  0
  3  2  1  0  0  0  0
  4  3  1  0  0  0  0
  6  5  2  0  0  0  0
  6  4  1  0  0  0  0
  7 11  1  6  0  0  0
  7  6  1  0  0  0  0
  8 11  1  0  0  0  0
  9  8  1  0  0  0  0
 10  8  2  0  0  0  0
 12 13  2  0  0  0  0
 13  7  1  0  0  0  0
 13 14  1  0  0  0  0
 15 19  1  0  0  0  0
 16 21  1  0  0  0  0
 16 19  2  0  0  0  0
 17 23  1  0  0  0  0
 19 18  1  0  0  0  0
 20 26  1  0  0  0  0
 21 17  1  6  0  0  0
 21 24  1  0  0  0  0
 22 20  1  0  0  0  0
 23 22  2  0  0  0  0
 24 18  1  0  0  0  0
 24 20  2  0  0  0  0
 25 27  2  0  0  0  0
 26 27  1  0  0  0  0
 27 29  1  0  0  0  0
 29 30  1  0  0  0  0
 29 28  2  0  0  0  0
 31 32  1  0  0  0  0
 31 30  1  1  0  0  0
 31 33  1  0  0  0  0
 32 34  1  6  0  0  0
 32 33  1  0  0  0  0
 33 36  1  1  0  0  0
 35 34  1  0  0  0  0
 36 37  1  0  0  0  0
 38 37  1  0  0  0  0
 40 39  1  0  0  0  0
 40 42  1  0  0  0  0
 41 42  2  0  0  0  0
 41 45  1  0  0  0  0
 42 44  1  0  0  0  0
 43 46  2  0  0  0  0
 43 48  1  0  0  0  0
 44 46  1  0  0  0  0
 45 43  1  0  0  0  0
 47 45  2  0  0  0  0
 48 50  1  0  0  0  0
 50 49  1  0  0  0  0
M  END
>  <MODEL>
4

>  <REMARK>
 VINA RESULT:      -5.5      2.729     12.223
  Name = 
  20 active torsions:
  status: ('A' for Active; 'I' for Inactive)
    1  A    between atoms: C_2  and  C_7
    2  A    between atoms: C_2  and  O_8
    3  A    between atoms: C_2  and  C_35
    4  A    between atoms: N_3  and  C_18
    5  A    between atoms: O_4  and  C_9
    6  A    between atoms: O_4  and  C_40
    7  A    between atoms: C_6  and  C_7
    8  A    between atoms: C_6  and  C_15
    9  A    between atoms: O_8  and  C_23
   10  A    between atoms: C_11  and  C_36
   11  A    between atoms: C_18  and  C_35
   12  A    between atoms: C_22  and  CA_50
   13  A    between atoms: C_25  and  CA_50
   14  A    between atoms: N_26  and  C_28
   15  A    between atoms: C_30  and  C_37
   16  A    between atoms: C_30  and  O_48
   17  A    between atoms: C_33  and  O_48
   18  A    between atoms: O_38  and  C_39
   19  A    between atoms: O_38  and  C_42
   20  A    between atoms: N_47  and  CA_50
                            x       y       z     vdW  Elec       q    Type
                         _______ _______ _______ _____ _____    ______ ____

>  <TORSDO>
F 20

$$$$
=
 OpenBabel11052412073D

 50 53  0  0  1  0  0  0  0  0999 V2000
  161.2330  212.6830  148.8730 C   0  0  1  0  0  3  0  0  0  0  0  0
  161.8190  213.1540  147.5400 C   0  0  0  0  0  2  0  0  0  0  0  0
  160.9530  212.7030  146.3700 C   0  0  0  0  0  2  0  0  0  0  0  0
  161.2710  213.4750  145.1780 N   0  0  0  0  0  2  0  0  0  0  0  0
  160.4840  211.8700  143.6750 O   0  0  0  0  0  0  0  0  0  0  0  0
  160.9570  213.0230  143.8580 C   0  0  0  0  0  0  0  0  0  0  0  0
  161.1450  213.9360  142.6850 C   0  0  2  0  0  3  0  0  0  0  0  0
  158.7530  213.8870  141.8540 C   0  0  0  0  0  0  0  0  0  0  0  0
  157.7870  213.5290  140.7830 C   0  0  0  0  0  1  0  0  0  0  0  0
  158.3300  214.3820  142.9340 O   0  0  0  0  0  0  0  0  0  0  0  0
  160.1510  213.6660  141.6500 N   0  0  0  0  0  2  0  0  0  0  0  0
  163.6030  214.4170  142.7340 O   0  0  0  0  0  1  0  0  0  0  0  0
  162.5210  213.7970  142.1220 C   0  0  0  0  0  0  0  0  0  0  0  0
  162.7050  213.1070  141.0880 O   0  0  0  0  0  0  0  0  0  0  0  0
  162.1010  211.7960  149.5830 O   0  0  0  0  0  0  0  0  0  0  0  0
  161.2990  210.4620  151.3740 N   0  0  0  0  0  0  0  0  0  0  0  0
  161.8790  208.5100  153.1540 S   0  0  0  0  0  0  0  0  0  0  0  0
  161.8150  209.2940  149.4040 C   0  0  0  0  0  2  0  0  0  0  0  0
  161.7250  210.5750  150.1560 C   0  0  0  0  0  0  0  0  0  0  0  0
  161.6350  207.0150  150.4570 C   0  0  0  0  0  0  0  0  0  0  0  0
  160.9700  209.0830  151.6850 C   0  0  2  0  0  3  0  0  0  0  0  0
  161.3860  206.2300  151.6860 C   0  0  0  0  0  3  0  0  0  0  0  0
  161.3890  206.7920  152.9010 C   0  0  0  0  0  3  0  0  0  0  0  0
  161.4510  208.3410  150.4850 C   0  0  0  0  0  0  0  0  0  0  0  0
  159.9740  206.2640  148.1430 O   0  0  0  0  0  0  0  0  0  0  0  0
  162.0520  206.3880  149.2330 N   0  0  0  0  0  2  0  0  0  0  0  0
  161.2150  206.0390  148.1200 C   0  0  0  0  0  0  0  0  0  0  0  0
  162.2710  206.1220  146.0080 O   0  0  0  0  0  0  0  0  0  0  0  0
  161.8120  205.4060  146.9410 C   0  0  0  0  0  0  0  0  0  0  0  0
  161.8750  204.0120  146.8580 O   0  0  0  0  0  0  0  0  0  0  0  0
  160.7170  203.2190  146.6220 C   0  0  1  0  0  3  0  0  0  0  0  0
  161.1240  201.7820  146.3820 C   0  0  1  0  0  3  0  0  0  0  0  0
  160.5140  202.1710  147.7130 C   0  0  1  0  0  3  0  0  0  0  0  0
  160.0770  201.0910  145.5360 C   0  0  0  0  0  2  0  0  0  0  0  0
  159.6370  201.9600  144.5290 O   0  0  0  0  0  1  0  0  0  0  0  0
  161.5140  202.2440  148.6870 O   0  0  0  0  0  0  0  0  0  0  0  0
  160.8260  202.3970  149.8930 C   0  0  0  0  0  2  0  0  0  0  0  0
  160.4260  201.1480  150.3600 O   0  0  0  0  0  1  0  0  0  0  0  0
  160.6700  213.7990  149.7580 C   0  0  0  0  0  2  0  0  0  0  0  0
  159.2150  214.1250  149.4590 C   0  0  0  0  0  2  0  0  0  0  0  0
  157.0840  214.1850  150.6480 C   0  0  0  0  0  3  0  0  0  0  0  0
  158.4170  214.0980  150.7170 C   0  0  0  0  0  0  0  0  0  0  0  0
  156.9200  214.1110  153.1830 C   0  0  0  0  0  0  0  0  0  0  0  0
  159.1430  213.9070  152.0300 C   0  0  0  0  0  2  0  0  0  0  0  0
  156.2660  214.1650  151.8660 C   0  0  0  0  0  0  0  0  0  0  0  0
  158.2560  214.0110  153.2490 C   0  0  0  0  0  3  0  0  0  0  0  0
  155.0120  214.2180  151.7790 O   0  0  0  0  0  0  0  0  0  0  0  0
  156.1290  214.1680  154.3400 O   0  0  0  0  0  0  0  0  0  0  0  0
  155.8350  213.3430  156.5870 C   0  0  0  0  0  1  0  0  0  0  0  0
  155.7800  213.0190  155.1050 C   0  0  0  0  0  2  0  0  0  0  0  0
  1  2  1  6  0  0  0
  1 15  1  0  0  0  0
  1 39  1  0  0  0  0
  3  2  1  0  0  0  0
  4  3  1  0  0  0  0
  5  6  2  0  0  0  0
  6  4  1  0  0  0  0
  7 11  1  6  0  0  0
  7  6  1  0  0  0  0
  8 10  2  0  0  0  0
  9  8  1  0  0  0  0
 11  8  1  0  0  0  0
 13  7  1  0  0  0  0
 13 12  1  0  0  0  0
 14 13  2  0  0  0  0
 15 19  1  0  0  0  0
 16 21  1  0  0  0  0
 18 19  1  0  0  0  0
 18 24  1  0  0  0  0
 19 16  2  0  0  0  0
 20 24  2  0  0  0  0
 20 22  1  0  0  0  0
 21 24  1  6  0  0  0
 21 17  1  0  0  0  0
 22 23  2  0  0  0  0
 23 17  1  0  0  0  0
 26 20  1  0  0  0  0
 27 25  2  0  0  0  0
 27 26  1  0  0  0  0
 28 29  2  0  0  0  0
 29 27  1  0  0  0  0
 30 29  1  0  0  0  0
 31 30  1  1  0  0  0
 31 33  1  0  0  0  0
 32 34  1  6  0  0  0
 32 31  1  0  0  0  0
 32 33  1  0  0  0  0
 33 36  1  1  0  0  0
 35 34  1  0  0  0  0
 36 37  1  0  0  0  0
 37 38  1  0  0  0  0
 40 39  1  0  0  0  0
 40 42  1  0  0  0  0
 41 42  2  0  0  0  0
 41 45  1  0  0  0  0
 42 44  1  0  0  0  0
 43 46  2  0  0  0  0
 43 48  1  0  0  0  0
 44 46  1  0  0  0  0
 45 43  1  0  0  0  0
 47 45  2  0  0  0  0
 48 50  1  0  0  0  0
 50 49  1  0  0  0  0
M  END
>  <MODEL>
5

>  <REMARK>
 VINA RESULT:      -5.3      2.949     10.962
  Name = 
  20 active torsions:
  status: ('A' for Active; 'I' for Inactive)
    1  A    between atoms: C_2  and  C_7
    2  A    between atoms: C_2  and  O_8
    3  A    between atoms: C_2  and  C_35
    4  A    between atoms: N_3  and  C_18
    5  A    between atoms: O_4  and  C_9
    6  A    between atoms: O_4  and  C_40
    7  A    between atoms: C_6  and  C_7
    8  A    between atoms: C_6  and  C_15
    9  A    between atoms: O_8  and  C_23
   10  A    between atoms: C_11  and  C_36
   11  A    between atoms: C_18  and  C_35
   12  A    between atoms: C_22  and  CA_50
   13  A    between atoms: C_25  and  CA_50
   14  A    between atoms: N_26  and  C_28
   15  A    between atoms: C_30  and  C_37
   16  A    between atoms: C_30  and  O_48
   17  A    between atoms: C_33  and  O_48
   18  A    between atoms: O_38  and  C_39
   19  A    between atoms: O_38  and  C_42
   20  A    between atoms: N_47  and  CA_50
                            x       y       z     vdW  Elec       q    Type
                         _______ _______ _______ _____ _____    ______ ____

>  <TORSDO>
F 20

$$$$
=
 OpenBabel11052412073D

 50 53  0  0  1  0  0  0  0  0999 V2000
  161.2640  212.3900  149.0590 C   0  0  1  0  0  3  0  0  0  0  0  0
  161.7990  212.6230  147.6440 C   0  0  0  0  0  2  0  0  0  0  0  0
  160.7050  212.4150  146.6040 C   0  0  0  0  0  2  0  0  0  0  0  0
  161.2190  212.6870  145.2680 N   0  0  0  0  0  2  0  0  0  0  0  0
  159.1230  213.0900  144.3180 O   0  0  0  0  0  0  0  0  0  0  0  0
  160.3750  213.0760  144.1810 C   0  0  0  0  0  0  0  0  0  0  0  0
  160.9780  213.5150  142.8810 C   0  0  2  0  0  3  0  0  0  0  0  0
  159.4810  213.1300  140.8750 C   0  0  0  0  0  0  0  0  0  0  0  0
  158.9880  212.2140  139.8140 C   0  0  0  0  0  1  0  0  0  0  0  0
  158.9960  214.2910  140.9690 O   0  0  0  0  0  0  0  0  0  0  0  0
  160.4970  212.6880  141.7780 N   0  0  0  0  0  2  0  0  0  0  0  0
  163.1490  213.9830  144.0410 O   0  0  0  0  0  1  0  0  0  0  0  0
  162.4690  213.4650  142.9470 C   0  0  0  0  0  0  0  0  0  0  0  0
  163.1170  212.9430  142.0050 O   0  0  0  0  0  0  0  0  0  0  0  0
  162.0890  211.5120  149.8310 O   0  0  0  0  0  0  0  0  0  0  0  0
  161.1860  210.2360  151.6150 N   0  0  0  0  0  0  0  0  0  0  0  0
  161.6590  208.3280  153.4740 S   0  0  0  0  0  0  0  0  0  0  0  0
  161.7850  209.0090  149.7050 C   0  0  0  0  0  2  0  0  0  0  0  0
  161.6720  210.3110  150.4170 C   0  0  0  0  0  0  0  0  0  0  0  0
  161.5300  206.7610  150.8100 C   0  0  0  0  0  0  0  0  0  0  0  0
  160.8290  208.8690  151.9480 C   0  0  2  0  0  3  0  0  0  0  0  0
  161.2140  206.0130  152.0460 C   0  0  0  0  0  3  0  0  0  0  0  0
  161.1640  206.6090  153.2450 C   0  0  0  0  0  3  0  0  0  0  0  0
  161.3590  208.0900  150.7930 C   0  0  0  0  0  0  0  0  0  0  0  0
  160.1050  206.3740  148.2610 O   0  0  0  0  0  0  0  0  0  0  0  0
  161.9980  206.0970  149.6250 N   0  0  0  0  0  2  0  0  0  0  0  0
  161.2790  205.9290  148.3940 C   0  0  0  0  0  0  0  0  0  0  0  0
  162.7720  205.8210  146.5670 O   0  0  0  0  0  0  0  0  0  0  0  0
  161.9150  205.2260  147.2780 C   0  0  0  0  0  0  0  0  0  0  0  0
  161.5750  203.8970  147.0100 O   0  0  0  0  0  0  0  0  0  0  0  0
  161.6240  202.8910  148.0170 C   0  0  1  0  0  3  0  0  0  0  0  0
  160.2300  202.3630  148.2770 C   0  0  1  0  0  3  0  0  0  0  0  0
  161.2060  201.5260  147.4750 C   0  0  1  0  0  3  0  0  0  0  0  0
  160.1480  201.8200  149.6870 C   0  0  0  0  0  2  0  0  0  0  0  0
  161.2510  202.2630  150.4270 O   0  0  0  0  0  1  0  0  0  0  0  0
  160.8790  201.5900  146.1180 O   0  0  0  0  0  0  0  0  0  0  0  0
  160.5320  200.2810  145.7730 C   0  0  0  0  0  2  0  0  0  0  0  0
  161.3020  199.3880  146.5140 O   0  0  0  0  0  1  0  0  0  0  0  0
  160.8760  213.6620  149.8180 C   0  0  0  0  0  2  0  0  0  0  0  0
  159.3810  213.9360  149.8060 C   0  0  0  0  0  2  0  0  0  0  0  0
  159.5210  213.0480  152.0750 C   0  0  0  0  0  3  0  0  0  0  0  0
  158.8130  213.7290  151.1670 C   0  0  0  0  0  0  0  0  0  0  0  0
  157.6420  213.2930  153.7680 C   0  0  0  0  0  0  0  0  0  0  0  0
  157.4760  214.3540  151.4960 C   0  0  0  0  0  2  0  0  0  0  0  0
  158.9920  212.8210  153.4250 C   0  0  0  0  0  0  0  0  0  0  0  0
  156.9380  213.9860  152.8600 C   0  0  0  0  0  3  0  0  0  0  0  0
  159.6860  212.2040  154.2740 O   0  0  0  0  0  0  0  0  0  0  0  0
  157.1190  213.0030  155.0370 O   0  0  0  0  0  0  0  0  0  0  0  0
  155.4300  211.3660  155.5700 C   0  0  0  0  0  1  0  0  0  0  0  0
  155.7290  212.8280  155.2870 C   0  0  0  0  0  2  0  0  0  0  0  0
  1  2  1  6  0  0  0
  1 39  1  0  0  0  0
  1 15  1  0  0  0  0
  3  2  1  0  0  0  0
  4  3  1  0  0  0  0
  6  5  2  0  0  0  0
  6  4  1  0  0  0  0
  7 11  1  6  0  0  0
  7 13  1  0  0  0  0
  7  6  1  0  0  0  0
  8 10  2  0  0  0  0
  8 11  1  0  0  0  0
  9  8  1  0  0  0  0
 13 12  1  0  0  0  0
 14 13  2  0  0  0  0
 15 19  1  0  0  0  0
 16 21  1  0  0  0  0
 18 19  1  0  0  0  0
 18 24  1  0  0  0  0
 19 16  2  0  0  0  0
 20 22  1  0  0  0  0
 21 24  1  6  0  0  0
 21 17  1  0  0  0  0
 22 23  2  0  0  0  0
 23 17  1  0  0  0  0
 24 20  2  0  0  0  0
 25 27  2  0  0  0  0
 26 20  1  0  0  0  0
 27 26  1  0  0  0  0
 28 29  2  0  0  0  0
 29 27  1  0  0  0  0
 30 29  1  0  0  0  0
 31 30  1  6  0  0  0
 31 32  1  0  0  0  0
 32 34  1  1  0  0  0
 33 36  1  6  0  0  0
 33 31  1  0  0  0  0
 33 32  1  0  0  0  0
 34 35  1  0  0  0  0
 37 36  1  0  0  0  0
 37 38  1  0  0  0  0
 40 39  1  0  0  0  0
 40 42  1  0  0  0  0
 41 45  1  0  0  0  0
 42 44  1  0  0  0  0
 42 41  2  0  0  0  0
 43 48  1  0  0  0  0
 44 46  1  0  0  0  0
 45 43  1  0  0  0  0
 45 47  2  0  0  0  0
 46 43  2  0  0  0  0
 48 50  1  0  0  0  0
 50 49  1  0  0  0  0
M  END
>  <MODEL>
6

>  <REMARK>
 VINA RESULT:      -5.3      2.494     10.882
  Name = 
  20 active torsions:
  status: ('A' for Active; 'I' for Inactive)
    1  A    between atoms: C_2  and  C_7
    2  A    between atoms: C_2  and  O_8
    3  A    between atoms: C_2  and  C_35
    4  A    between atoms: N_3  and  C_18
    5  A    between atoms: O_4  and  C_9
    6  A    between atoms: O_4  and  C_40
    7  A    between atoms: C_6  and  C_7
    8  A    between atoms: C_6  and  C_15
    9  A    between atoms: O_8  and  C_23
   10  A    between atoms: C_11  and  C_36
   11  A    between atoms: C_18  and  C_35
   12  A    between atoms: C_22  and  CA_50
   13  A    between atoms: C_25  and  CA_50
   14  A    between atoms: N_26  and  C_28
   15  A    between atoms: C_30  and  C_37
   16  A    between atoms: C_30  and  O_48
   17  A    between atoms: C_33  and  O_48
   18  A    between atoms: O_38  and  C_39
   19  A    between atoms: O_38  and  C_42
   20  A    between atoms: N_47  and  CA_50
                            x       y       z     vdW  Elec       q    Type
                         _______ _______ _______ _____ _____    ______ ____

>  <TORSDO>
F 20

$$$$
=
 OpenBabel11052412073D

 50 53  0  0  1  0  0  0  0  0999 V2000
  161.4000  212.1620  148.1820 C   0  0  1  0  0  3  0  0  0  0  0  0
  162.0370  212.4480  146.8200 C   0  0  0  0  0  2  0  0  0  0  0  0
  162.0480  213.9420  146.5230 C   0  0  0  0  0  2  0  0  0  0  0  0
  161.5830  214.1920  145.1660 N   0  0  0  0  0  2  0  0  0  0  0  0
  163.5570  213.4860  144.1370 O   0  0  0  0  0  0  0  0  0  0  0  0
  162.3700  213.8870  144.0120 C   0  0  0  0  0  0  0  0  0  0  0  0
  161.7710  214.0000  142.6420 C   0  0  2  0  0  3  0  0  0  0  0  0
  159.4800  214.1210  141.5710 C   0  0  0  0  0  0  0  0  0  0  0  0
  158.0040  214.0140  141.7100 C   0  0  0  0  0  1  0  0  0  0  0  0
  159.9770  214.4510  140.4590 O   0  0  0  0  0  0  0  0  0  0  0  0
  160.3200  213.8510  142.6950 N   0  0  0  0  0  2  0  0  0  0  0  0
  163.2050  213.3600  140.6900 O   0  0  0  0  0  0  0  0  0  0  0  0
  162.3580  212.9800  141.7230 C   0  0  0  0  0  0  0  0  0  0  0  0
  162.0890  211.7640  141.8900 O   0  0  0  0  0  1  0  0  0  0  0  0
  162.1430  211.2190  148.9600 O   0  0  0  0  0  0  0  0  0  0  0  0
  161.2810  211.1710  151.1700 N   0  0  0  0  0  0  0  0  0  0  0  0
  161.7350  210.4670  153.7420 S   0  0  0  0  0  0  0  0  0  0  0  0
  161.6150  209.0700  150.1760 C   0  0  0  0  0  2  0  0  0  0  0  0
  161.6730  210.5550  150.1000 C   0  0  0  0  0  0  0  0  0  0  0  0
  161.2570  207.7710  152.3020 C   0  0  0  0  0  0  0  0  0  0  0  0
  160.8350  210.2280  152.1790 C   0  0  2  0  0  3  0  0  0  0  0  0
  160.9780  207.8170  153.7540 C   0  0  0  0  0  3  0  0  0  0  0  0
  161.0770  208.9490  154.4620 C   0  0  0  0  0  3  0  0  0  0  0  0
  161.2010  208.9070  151.5930 C   0  0  0  0  0  0  0  0  0  0  0  0
  160.5910  205.0280  153.1420 O   0  0  0  0  0  0  0  0  0  0  0  0
  161.5700  206.5390  151.6320 N   0  0  0  0  0  2  0  0  0  0  0  0
  161.2260  205.2150  152.0670 C   0  0  0  0  0  0  0  0  0  0  0  0
  161.6760  202.9150  151.7730 O   0  0  0  0  0  0  0  0  0  0  0  0
  161.6220  204.0630  151.2530 C   0  0  0  0  0  0  0  0  0  0  0  0
  161.9330  204.2430  149.9020 O   0  0  0  0  0  0  0  0  0  0  0  0
  160.9470  204.6280  148.9490 C   0  0  1  0  0  3  0  0  0  0  0  0
  161.6150  204.9610  147.6320 C   0  0  1  0  0  3  0  0  0  0  0  0
  160.8740  203.6480  147.7800 C   0  0  1  0  0  3  0  0  0  0  0  0
  160.7550  205.9360  146.8580 C   0  0  0  0  0  2  0  0  0  0  0  0
  161.0050  205.7980  145.4870 O   0  0  0  0  0  1  0  0  0  0  0  0
  161.7900  202.6030  147.9290 O   0  0  0  0  0  0  0  0  0  0  0  0
  161.0090  201.4450  147.9400 C   0  0  0  0  0  2  0  0  0  0  0  0
  160.9920  200.9110  149.2270 O   0  0  0  0  0  1  0  0  0  0  0  0
  161.0010  213.4070  148.9800 C   0  0  0  0  0  2  0  0  0  0  0  0
  159.6380  213.9560  148.5920 C   0  0  0  0  0  2  0  0  0  0  0  0
  157.4310  214.1280  149.6230 C   0  0  0  0  0  3  0  0  0  0  0  0
  158.7540  214.0210  149.7900 C   0  0  0  0  0  0  0  0  0  0  0  0
  157.0900  214.2140  152.1390 C   0  0  0  0  0  0  0  0  0  0  0  0
  159.3830  213.8990  151.1600 C   0  0  0  0  0  2  0  0  0  0  0  0
  156.5300  214.1980  150.7790 C   0  0  0  0  0  0  0  0  0  0  0  0
  158.4160  214.0950  152.3060 C   0  0  0  0  0  3  0  0  0  0  0  0
  155.2870  214.2680  150.6010 O   0  0  0  0  0  0  0  0  0  0  0  0
  156.2230  214.3580  153.2320 O   0  0  0  0  0  0  0  0  0  0  0  0
  157.0230  213.9810  155.4760 C   0  0  0  0  0  1  0  0  0  0  0  0
  156.1880  213.4470  154.3260 C   0  0  0  0  0  2  0  0  0  0  0  0
  1  2  1  6  0  0  0
  1 15  1  0  0  0  0
  1 39  1  0  0  0  0
  3  2  1  0  0  0  0
  4  3  1  0  0  0  0
  6  5  2  0  0  0  0
  6  4  1  0  0  0  0
  7 13  1  6  0  0  0
  7 11  1  0  0  0  0
  7  6  1  0  0  0  0
  8  9  1  0  0  0  0
  8 11  1  0  0  0  0
 10  8  2  0  0  0  0
 12 13  2  0  0  0  0
 13 14  1  0  0  0  0
 15 19  1  0  0  0  0
 17 23  1  0  0  0  0
 18 24  1  0  0  0  0
 19 18  1  0  0  0  0
 19 16  2  0  0  0  0
 20 22  1  0  0  0  0
 21 16  1  6  0  0  0
 21 17  1  0  0  0  0
 22 23  2  0  0  0  0
 24 21  1  0  0  0  0
 24 20  2  0  0  0  0
 26 27  1  0  0  0  0
 26 20  1  0  0  0  0
 27 25  2  0  0  0  0
 29 28  2  0  0  0  0
 29 27  1  0  0  0  0
 30 29  1  0  0  0  0
 31 30  1  1  0  0  0
 32 34  1  6  0  0  0
 32 33  1  0  0  0  0
 32 31  1  0  0  0  0
 33 36  1  1  0  0  0
 33 31  1  0  0  0  0
 35 34  1  0  0  0  0
 36 37  1  0  0  0  0
 37 38  1  0  0  0  0
 40 39  1  0  0  0  0
 40 42  1  0  0  0  0
 41 42  2  0  0  0  0
 41 45  1  0  0  0  0
 42 44  1  0  0  0  0
 43 46  2  0  0  0  0
 43 48  1  0  0  0  0
 44 46  1  0  0  0  0
 45 43  1  0  0  0  0
 47 45  2  0  0  0  0
 48 50  1  0  0  0  0
 50 49  1  0  0  0  0
M  END
>  <MODEL>
7

>  <REMARK>
 VINA RESULT:      -5.3      2.709     11.182
  Name = 
  20 active torsions:
  status: ('A' for Active; 'I' for Inactive)
    1  A    between atoms: C_2  and  C_7
    2  A    between atoms: C_2  and  O_8
    3  A    between atoms: C_2  and  C_35
    4  A    between atoms: N_3  and  C_18
    5  A    between atoms: O_4  and  C_9
    6  A    between atoms: O_4  and  C_40
    7  A    between atoms: C_6  and  C_7
    8  A    between atoms: C_6  and  C_15
    9  A    between atoms: O_8  and  C_23
   10  A    between atoms: C_11  and  C_36
   11  A    between atoms: C_18  and  C_35
   12  A    between atoms: C_22  and  CA_50
   13  A    between atoms: C_25  and  CA_50
   14  A    between atoms: N_26  and  C_28
   15  A    between atoms: C_30  and  C_37
   16  A    between atoms: C_30  and  O_48
   17  A    between atoms: C_33  and  O_48
   18  A    between atoms: O_38  and  C_39
   19  A    between atoms: O_38  and  C_42
   20  A    between atoms: N_47  and  CA_50
                            x       y       z     vdW  Elec       q    Type
                         _______ _______ _______ _____ _____    ______ ____

>  <TORSDO>
F 20

$$$$
=
 OpenBabel11052412073D

 50 53  0  0  1  0  0  0  0  0999 V2000
  162.0480  209.9310  149.1710 C   0  0  1  0  0  3  0  0  0  0  0  0
  162.4410  208.6840  148.3750 C   0  0  0  0  0  2  0  0  0  0  0  0
  161.3370  207.6360  148.4180 C   0  0  0  0  0  2  0  0  0  0  0  0
  161.1870  207.0050  147.1140 N   0  0  0  0  0  2  0  0  0  0  0  0
  161.5560  204.8330  147.8900 O   0  0  0  0  0  0  0  0  0  0  0  0
  161.2520  205.5880  146.9290 C   0  0  0  0  0  0  0  0  0  0  0  0
  160.9140  204.9870  145.5980 C   0  0  2  0  0  3  0  0  0  0  0  0
  160.0340  202.7190  144.8970 C   0  0  0  0  0  0  0  0  0  0  0  0
  160.0500  201.2420  145.0640 C   0  0  0  0  0  1  0  0  0  0  0  0
  159.2330  203.2430  144.0750 O   0  0  0  0  0  0  0  0  0  0  0  0
  160.9240  203.5290  145.6680 N   0  0  0  0  0  2  0  0  0  0  0  0
  161.4320  205.6940  143.2510 O   0  0  0  0  0  0  0  0  0  0  0  0
  161.8670  205.4570  144.5490 C   0  0  0  0  0  0  0  0  0  0  0  0
  163.0730  205.6470  144.8430 O   0  0  0  0  0  1  0  0  0  0  0  0
  162.4810  209.8850  150.5330 O   0  0  0  0  0  0  0  0  0  0  0  0
  161.2170  209.8740  152.5400 N   0  0  0  0  0  0  0  0  0  0  0  0
  161.1820  209.2310  155.1680 S   0  0  0  0  0  0  0  0  0  0  0  0
  161.7490  207.7570  151.6770 C   0  0  0  0  0  2  0  0  0  0  0  0
  161.8090  209.2400  151.5790 C   0  0  0  0  0  0  0  0  0  0  0  0
  161.0050  206.4990  153.7270 C   0  0  0  0  0  0  0  0  0  0  0  0
  160.5950  208.9480  153.4690 C   0  0  2  0  0  3  0  0  0  0  0  0
  160.4570  206.5730  155.0990 C   0  0  0  0  0  3  0  0  0  0  0  0
  160.4110  207.7220  155.7860 C   0  0  0  0  0  3  0  0  0  0  0  0
  161.0760  207.6190  152.9940 C   0  0  0  0  0  0  0  0  0  0  0  0
  160.1370  205.2440  151.2080 O   0  0  0  0  0  0  0  0  0  0  0  0
  161.4490  205.2570  153.1580 N   0  0  0  0  0  2  0  0  0  0  0  0
  161.0070  204.6740  151.9220 C   0  0  0  0  0  0  0  0  0  0  0  0
  162.4360  202.8140  152.2020 O   0  0  0  0  0  0  0  0  0  0  0  0
  161.5730  203.3940  151.4870 C   0  0  0  0  0  0  0  0  0  0  0  0
  161.1490  202.8210  150.2840 O   0  0  0  0  0  0  0  0  0  0  0  0
  160.3520  201.6420  150.2530 C   0  0  1  0  0  3  0  0  0  0  0  0
  159.3910  201.7080  149.0860 C   0  0  1  0  0  3  0  0  0  0  0  0
  160.6110  200.8150  148.9970 C   0  0  1  0  0  3  0  0  0  0  0  0
  158.1730  200.8610  149.3820 C   0  0  0  0  0  2  0  0  0  0  0  0
  157.0840  201.3240  148.6340 O   0  0  0  0  0  1  0  0  0  0  0  0
  161.5750  201.4110  148.1790 O   0  0  0  0  0  0  0  0  0  0  0  0
  162.3490  200.3490  147.7070 C   0  0  0  0  0  2  0  0  0  0  0  0
  161.5440  199.4770  146.9790 O   0  0  0  0  0  1  0  0  0  0  0  0
  162.3770  211.2610  148.4870 C   0  0  0  0  0  2  0  0  0  0  0  0
  161.1490  212.1100  148.2020 C   0  0  0  0  0  2  0  0  0  0  0  0
  160.0980  212.5440  146.0420 C   0  0  0  0  0  3  0  0  0  0  0  0
  161.1950  212.6210  146.8030 C   0  0  0  0  0  0  0  0  0  0  0  0
  161.3530  213.5600  144.0800 C   0  0  0  0  0  0  0  0  0  0  0  0
  162.4690  213.2710  146.3130 C   0  0  0  0  0  2  0  0  0  0  0  0
  160.1070  213.0340  144.6580 C   0  0  0  0  0  0  0  0  0  0  0  0
  162.4490  213.6480  144.8490 C   0  0  0  0  0  3  0  0  0  0  0  0
  159.0570  212.9800  143.9680 O   0  0  0  0  0  0  0  0  0  0  0  0
  161.3670  213.9540  142.7340 O   0  0  0  0  0  0  0  0  0  0  0  0
  161.9740  211.8480  141.7280 C   0  0  0  0  0  1  0  0  0  0  0  0
  162.2010  213.3490  141.7510 C   0  0  0  0  0  2  0  0  0  0  0  0
  1  2  1  6  0  0  0
  1 15  1  0  0  0  0
  2  3  1  0  0  0  0
  4  3  1  0  0  0  0
  6  4  1  0  0  0  0
  6  5  2  0  0  0  0
  7 13  1  6  0  0  0
  7 11  1  0  0  0  0
  7  6  1  0  0  0  0
  8  9  1  0  0  0  0
  8 11  1  0  0  0  0
 10  8  2  0  0  0  0
 12 13  2  0  0  0  0
 13 14  1  0  0  0  0
 15 19  1  0  0  0  0
 17 23  1  0  0  0  0
 18 24  1  0  0  0  0
 19 18  1  0  0  0  0
 19 16  2  0  0  0  0
 20 22  1  0  0  0  0
 21 16  1  6  0  0  0
 21 17  1  0  0  0  0
 22 23  2  0  0  0  0
 24 21  1  0  0  0  0
 24 20  2  0  0  0  0
 25 27  2  0  0  0  0
 26 20  1  0  0  0  0
 27 26  1  0  0  0  0
 29 27  1  0  0  0  0
 29 28  2  0  0  0  0
 30 29  1  0  0  0  0
 31 30  1  6  0  0  0
 32 34  1  1  0  0  0
 32 31  1  0  0  0  0
 33 36  1  6  0  0  0
 33 32  1  0  0  0  0
 33 31  1  0  0  0  0
 35 34  1  0  0  0  0
 37 36  1  0  0  0  0
 38 37  1  0  0  0  0
 39  1  1  0  0  0  0
 40 39  1  0  0  0  0
 41 42  2  0  0  0  0
 42 40  1  0  0  0  0
 43 45  1  0  0  0  0
 43 46  2  0  0  0  0
 44 42  1  0  0  0  0
 45 41  1  0  0  0  0
 46 44  1  0  0  0  0
 47 45  2  0  0  0  0
 48 43  1  0  0  0  0
 49 50  1  0  0  0  0
 50 48  1  0  0  0  0
M  END
>  <MODEL>
8

>  <REMARK>
 VINA RESULT:      -4.9      3.578     11.305
  Name = 
  20 active torsions:
  status: ('A' for Active; 'I' for Inactive)
    1  A    between atoms: C_2  and  C_7
    2  A    between atoms: C_2  and  O_8
    3  A    between atoms: C_2  and  C_35
    4  A    between atoms: N_3  and  C_18
    5  A    between atoms: O_4  and  C_9
    6  A    between atoms: O_4  and  C_40
    7  A    between atoms: C_6  and  C_7
    8  A    between atoms: C_6  and  C_15
    9  A    between atoms: O_8  and  C_23
   10  A    between atoms: C_11  and  C_36
   11  A    between atoms: C_18  and  C_35
   12  A    between atoms: C_22  and  CA_50
   13  A    between atoms: C_25  and  CA_50
   14  A    between atoms: N_26  and  C_28
   15  A    between atoms: C_30  and  C_37
   16  A    between atoms: C_30  and  O_48
   17  A    between atoms: C_33  and  O_48
   18  A    between atoms: O_38  and  C_39
   19  A    between atoms: O_38  and  C_42
   20  A    between atoms: N_47  and  CA_50
                            x       y       z     vdW  Elec       q    Type
                         _______ _______ _______ _____ _____    ______ ____

>  <TORSDO>
F 20

$$$$
=
 OpenBabel11052412073D

 50 53  0  0  1  0  0  0  0  0999 V2000
  161.7430  211.9590  148.8520 C   0  0  1  0  0  3  0  0  0  0  0  0
  162.5880  212.6880  147.8040 C   0  0  0  0  0  2  0  0  0  0  0  0
  162.2590  214.1750  147.7720 C   0  0  0  0  0  2  0  0  0  0  0  0
  161.2660  214.4510  146.7430 N   0  0  0  0  0  2  0  0  0  0  0  0
  162.3940  213.3020  145.0510 O   0  0  0  0  0  0  0  0  0  0  0  0
  161.3670  213.9350  145.4130 C   0  0  0  0  0  0  0  0  0  0  0  0
  160.2290  214.1050  144.4520 C   0  0  2  0  0  3  0  0  0  0  0  0
  158.6580  212.8910  146.0240 C   0  0  0  0  0  0  0  0  0  0  0  0
  157.3090  212.7800  146.6380 C   0  0  0  0  0  1  0  0  0  0  0  0
  159.5370  212.0270  146.2940 O   0  0  0  0  0  0  0  0  0  0  0  0
  158.9460  213.9740  145.1360 N   0  0  0  0  0  2  0  0  0  0  0  0
  160.5570  211.7680  143.6100 O   0  0  0  0  0  1  0  0  0  0  0  0
  160.3230  213.1100  143.3420 C   0  0  0  0  0  0  0  0  0  0  0  0
  160.1810  213.4900  142.1530 O   0  0  0  0  0  0  0  0  0  0  0  0
  162.3530  210.7540  149.3230 O   0  0  0  0  0  0  0  0  0  0  0  0
  161.5270  210.2960  151.4990 N   0  0  0  0  0  0  0  0  0  0  0  0
  161.9340  208.9680  153.8210 S   0  0  0  0  0  0  0  0  0  0  0  0
  161.5850  208.4580  150.0390 C   0  0  0  0  0  2  0  0  0  0  0  0
  161.8240  209.9030  150.3010 C   0  0  0  0  0  0  0  0  0  0  0  0
  161.1040  206.7530  151.8270 C   0  0  0  0  0  0  0  0  0  0  0  0
  160.9850  209.2030  152.2860 C   0  0  2  0  0  3  0  0  0  0  0  0
  160.8570  206.4930  153.2620 C   0  0  0  0  0  3  0  0  0  0  0  0
  161.1060  207.4120  154.2040 C   0  0  0  0  0  3  0  0  0  0  0  0
  161.1770  208.0200  151.3990 C   0  0  0  0  0  0  0  0  0  0  0  0
  160.4720  203.9000  152.2000 O   0  0  0  0  0  0  0  0  0  0  0  0
  161.2520  205.6820  150.8810 N   0  0  0  0  0  2  0  0  0  0  0  0
  160.9300  204.2990  151.0940 C   0  0  0  0  0  0  0  0  0  0  0  0
  161.1980  202.1010  150.2690 O   0  0  0  0  0  0  0  0  0  0  0  0
  161.1400  203.3350  150.0100 C   0  0  0  0  0  0  0  0  0  0  0  0
  161.2690  203.7880  148.6940 O   0  0  0  0  0  0  0  0  0  0  0  0
  161.7000  202.9310  147.6420 C   0  0  1  0  0  3  0  0  0  0  0  0
  160.7740  203.0770  146.4540 C   0  0  1  0  0  3  0  0  0  0  0  0
  162.1450  203.7200  146.4130 C   0  0  1  0  0  3  0  0  0  0  0  0
  160.7930  201.8060  145.6340 C   0  0  0  0  0  2  0  0  0  0  0  0
  159.5990  201.6930  144.9120 O   0  0  0  0  0  1  0  0  0  0  0  0
  162.0280  205.0970  146.6170 O   0  0  0  0  0  0  0  0  0  0  0  0
  161.3450  205.5670  145.4930 C   0  0  0  0  0  2  0  0  0  0  0  0
  161.8720  204.9730  144.3490 O   0  0  0  0  0  1  0  0  0  0  0  0
  161.2220  212.8450  149.9880 C   0  0  0  0  0  2  0  0  0  0  0  0
  159.7520  213.2040  149.8430 C   0  0  0  0  0  2  0  0  0  0  0  0
  159.7660  212.7580  152.2430 C   0  0  0  0  0  3  0  0  0  0  0  0
  159.0960  213.2170  151.1800 C   0  0  0  0  0  0  0  0  0  0  0  0
  157.7570  213.1990  153.7360 C   0  0  0  0  0  0  0  0  0  0  0  0
  157.7110  213.8130  151.2990 C   0  0  0  0  0  2  0  0  0  0  0  0
  159.1490  212.7520  153.5750 C   0  0  0  0  0  0  0  0  0  0  0  0
  157.0910  213.6710  152.6710 C   0  0  0  0  0  3  0  0  0  0  0  0
  159.8070  212.3440  154.5670 O   0  0  0  0  0  0  0  0  0  0  0  0
  157.1570  213.1170  155.0000 O   0  0  0  0  0  0  0  0  0  0  0  0
  156.2360  210.9090  155.3100 C   0  0  0  0  0  1  0  0  0  0  0  0
  155.9520  212.3990  155.2480 C   0  0  0  0  0  2  0  0  0  0  0  0
  1  2  1  1  0  0  0
  1 15  1  0  0  0  0
  1 39  1  0  0  0  0
  3  2  1  0  0  0  0
  4  3  1  0  0  0  0
  5  6  2  0  0  0  0
  6  4  1  0  0  0  0
  7 13  1  6  0  0  0
  7 11  1  0  0  0  0
  7  6  1  0  0  0  0
  8 10  2  0  0  0  0
  8  9  1  0  0  0  0
 11  8  1  0  0  0  0
 13 12  1  0  0  0  0
 14 13  2  0  0  0  0
 15 19  1  0  0  0  0
 16 21  1  0  0  0  0
 17 23  1  0  0  0  0
 18 19  1  0  0  0  0
 18 24  1  0  0  0  0
 19 16  2  0  0  0  0
 20 22  1  0  0  0  0
 21 24  1  6  0  0  0
 21 17  1  0  0  0  0
 22 23  2  0  0  0  0
 24 20  2  0  0  0  0
 26 27  1  0  0  0  0
 26 20  1  0  0  0  0
 27 25  2  0  0  0  0
 29 28  2  0  0  0  0
 29 27  1  0  0  0  0
 30 29  1  0  0  0  0
 31 30  1  1  0  0  0
 32 34  1  6  0  0  0
 32 31  1  0  0  0  0
 33 32  1  0  0  0  0
 33 36  1  1  0  0  0
 33 31  1  0  0  0  0
 35 34  1  0  0  0  0
 37 36  1  0  0  0  0
 38 37  1  0  0  0  0
 40 39  1  0  0  0  0
 40 42  1  0  0  0  0
 41 45  1  0  0  0  0
 42 44  1  0  0  0  0
 42 41  2  0  0  0  0
 43 48  1  0  0  0  0
 44 46  1  0  0  0  0
 45 43  1  0  0  0  0
 45 47  2  0  0  0  0
 46 43  2  0  0  0  0
 48 50  1  0  0  0  0
 50 49  1  0  0  0  0
M  END
>  <MODEL>
9

>  <REMARK>
 VINA RESULT:      -4.9      2.837     10.005
  Name = 
  20 active torsions:
  status: ('A' for Active; 'I' for Inactive)
    1  A    between atoms: C_2  and  C_7
    2  A    between atoms: C_2  and  O_8
    3  A    between atoms: C_2  and  C_35
    4  A    between atoms: N_3  and  C_18
    5  A    between atoms: O_4  and  C_9
    6  A    between atoms: O_4  and  C_40
    7  A    between atoms: C_6  and  C_7
    8  A    between atoms: C_6  and  C_15
    9  A    between atoms: O_8  and  C_23
   10  A    between atoms: C_11  and  C_36
   11  A    between atoms: C_18  and  C_35
   12  A    between atoms: C_22  and  CA_50
   13  A    between atoms: C_25  and  CA_50
   14  A    between atoms: N_26  and  C_28
   15  A    between atoms: C_30  and  C_37
   16  A    between atoms: C_30  and  O_48
   17  A    between atoms: C_33  and  O_48
   18  A    between atoms: O_38  and  C_39
   19  A    between atoms: O_38  and  C_42
   20  A    between atoms: N_47  and  CA_50
                            x       y       z     vdW  Elec       q    Type
                         _______ _______ _______ _____ _____    ______ ____

>  <TORSDO>
F 20

$$$$
