=
 OpenBabel11042422523D

 29 32  0  0  1  0  0  0  0  0999 V2000
  161.5640  203.5290  146.3500 C   0  0  0  0  0  3  0  0  0  0  0  0
  161.6570  208.3880  153.2390 N   0  0  0  0  0  2  0  0  0  0  0  0
  161.9860  206.0730  152.4520 C   0  0  0  0  0  2  0  0  0  0  0  0
  161.8370  206.2000  148.8630 C   0  0  0  0  0  0  0  0  0  0  0  0
  162.0930  207.7250  150.5440 C   0  0  1  0  0  3  0  0  0  0  0  0
  162.3280  205.5050  145.2720 C   0  0  0  0  0  3  0  0  0  0  0  0
  161.8770  205.5510  147.6350 C   0  0  0  0  0  0  0  0  0  0  0  0
  160.6550  208.8990  152.3040 C   0  0  2  0  0  3  0  0  0  0  0  0
  162.1910  207.5080  149.1340 O   0  0  0  0  0  0  0  0  0  0  0  0
  161.0800  203.5190  148.7630 C   0  0  0  0  0  0  0  0  0  0  0  0
  161.9690  204.1940  145.2340 N   0  0  0  0  0  0  0  0  0  0  0  0
  161.0110  204.2210  149.9950 C   0  0  0  0  0  0  0  0  0  0  0  0
  162.2900  206.2100  146.4750 C   0  0  0  0  0  3  0  0  0  0  0  0
  161.5070  204.1860  147.5860 C   0  0  0  0  0  0  0  0  0  0  0  0
  161.1510  208.8880  150.8500 C   0  0  0  0  0  2  0  0  0  0  0  0
  160.5880  201.8220  148.6790 Cl  0  0  0  0  0  0  0  0  0  0  0  0
  161.5860  206.4660  151.1060 N   0  0  0  0  0  0  0  0  0  0  0  0
  161.4460  205.5660  150.0070 C   0  0  0  0  0  0  0  0  0  0  0  0
  161.3360  206.9870  153.4910 C   0  0  0  0  0  2  0  0  0  0  0  0
  160.4320  203.5410  151.1710 C   0  0  0  0  0  3  0  0  0  0  0  0
  161.1400  202.7990  152.0130 C   0  0  0  0  0  2  0  0  0  0  0  0
  160.1840  210.2880  152.7180 C   0  0  0  0  0  2  0  0  0  0  0  0
  159.8910  210.3700  154.2110 C   0  0  0  0  0  2  0  0  0  0  0  0
  158.9570  211.5310  154.4960 C   0  0  0  0  0  2  0  0  0  0  0  0
  157.7460  211.3450  153.8260 O   0  0  0  0  0  0  0  0  0  0  0  0
  155.3740  210.3670  154.8910 O   0  0  0  0  0  1  0  0  0  0  0  0
  156.5400  211.5900  154.9920 P   0  0  0  0  0  0  0  0  0  0  0  0
  157.1510  211.5910  156.3760 O   0  0  0  0  0  1  0  0  0  0  0  0
  155.7980  213.0840  154.7150 O   0  0  0  0  0  0  0  0  0  0  0  0
  1 14  1  0  0  0  0
  2 19  1  0  0  0  0
  3 19  1  0  0  0  0
  4  9  1  0  0  0  0
  4 18  1  0  0  0  0
  5 15  1  6  0  0  0
  5 17  1  0  0  0  0
  6 13  2  0  0  0  0
  7  4  2  0  0  0  0
  8 22  1  1  0  0  0
  8  2  1  0  0  0  0
  9  5  1  0  0  0  0
 10 12  1  0  0  0  0
 11  6  1  0  0  0  0
 11  1  2  0  0  0  0
 12 18  2  0  0  0  0
 12 20  1  0  0  0  0
 13  7  1  0  0  0  0
 14  7  1  0  0  0  0
 14 10  2  0  0  0  0
 15  8  1  0  0  0  0
 16 10  1  0  0  0  0
 17  3  1  0  0  0  0
 18 17  1  0  0  0  0
 20 21  2  0  0  0  0
 22 23  1  0  0  0  0
 23 24  1  0  0  0  0
 25 24  1  0  0  0  0
 25 27  1  0  0  0  0
 26 27  1  0  0  0  0
 27 28  1  0  0  0  0
 29 27  2  0  0  0  0
M  END
>  <MODEL>
1

>  <REMARK>
 VINA RESULT:      -8.6      0.000      0.000
  Name = 
  6 active torsions:
  status: ('A' for Active; 'I' for Inactive)
    1  A    between atoms: O_2  and  P_16
    2  A    between atoms: O_2  and  C_26
    3  A    between atoms: C_9  and  C_25
    4  A    between atoms: C_13  and  C_21
    5  A    between atoms: C_22  and  C_25
    6  A    between atoms: C_22  and  C_26
                            x       y       z     vdW  Elec       q    Type
                         _______ _______ _______ _____ _____    ______ ____

>  <TORSDO>
F 6

$$$$
=
 OpenBabel11042422523D

 29 32  0  0  1  0  0  0  0  0999 V2000
  161.3110  203.2950  146.3600 C   0  0  0  0  0  3  0  0  0  0  0  0
  162.0010  208.6280  152.8530 N   0  0  0  0  0  2  0  0  0  0  0  0
  162.1560  206.2460  152.2310 C   0  0  0  0  0  2  0  0  0  0  0  0
  161.8540  206.1200  148.6510 C   0  0  0  0  0  0  0  0  0  0  0  0
  162.2760  207.7450  150.2000 C   0  0  1  0  0  3  0  0  0  0  0  0
  162.1420  205.1360  145.1060 C   0  0  0  0  0  3  0  0  0  0  0  0
  161.8010  205.3820  147.4750 C   0  0  0  0  0  0  0  0  0  0  0  0
  160.9900  209.1320  151.9240 C   0  0  2  0  0  3  0  0  0  0  0  0
  162.2980  207.4200  148.8090 O   0  0  0  0  0  0  0  0  0  0  0  0
  160.9360  203.4920  148.7840 C   0  0  0  0  0  0  0  0  0  0  0  0
  161.7040  203.8510  145.1820 N   0  0  0  0  0  0  0  0  0  0  0  0
  160.9630  204.2850  149.9610 C   0  0  0  0  0  0  0  0  0  0  0  0
  162.2000  205.9280  146.2530 C   0  0  0  0  0  3  0  0  0  0  0  0
  161.3490  204.0440  147.5440 C   0  0  0  0  0  0  0  0  0  0  0  0
  161.4190  208.9840  150.4560 C   0  0  0  0  0  2  0  0  0  0  0  0
  160.3400  201.8280  148.8490 Cl  0  0  0  0  0  0  0  0  0  0  0  0
  161.7210  206.5650  150.8760 N   0  0  0  0  0  0  0  0  0  0  0  0
  161.4780  205.5970  149.8550 C   0  0  0  0  0  0  0  0  0  0  0  0
  161.6080  207.2720  153.2230 C   0  0  0  0  0  2  0  0  0  0  0  0
  160.3990  203.7300  151.2080 C   0  0  0  0  0  3  0  0  0  0  0  0
  161.0730  202.9410  152.0340 C   0  0  0  0  0  2  0  0  0  0  0  0
  160.6210  210.5740  152.2500 C   0  0  0  0  0  2  0  0  0  0  0  0
  159.3050  210.6680  153.0110 C   0  0  0  0  0  2  0  0  0  0  0  0
  159.5310  211.3080  154.3670 C   0  0  0  0  0  2  0  0  0  0  0  0
  160.8770  211.6490  154.5160 O   0  0  0  0  0  0  0  0  0  0  0  0
  160.5630  209.4110  156.1300 O   0  0  0  0  0  1  0  0  0  0  0  0
  161.3880  210.8760  155.9360 P   0  0  0  0  0  0  0  0  0  0  0  0
  162.8770  210.6130  155.8740 O   0  0  0  0  0  0  0  0  0  0  0  0
  161.0580  211.8750  157.2590 O   0  0  0  0  0  1  0  0  0  0  0  0
  1 14  1  0  0  0  0
  2 19  1  0  0  0  0
  3 19  1  0  0  0  0
  4  9  1  0  0  0  0
  4 18  1  0  0  0  0
  5 15  1  6  0  0  0
  5 17  1  0  0  0  0
  6 11  1  0  0  0  0
  6 13  2  0  0  0  0
  7 14  1  0  0  0  0
  7  4  2  0  0  0  0
  8 22  1  1  0  0  0
  8  2  1  0  0  0  0
  9  5  1  0  0  0  0
 10 16  1  0  0  0  0
 10 12  1  0  0  0  0
 11  1  2  0  0  0  0
 12 20  1  0  0  0  0
 13  7  1  0  0  0  0
 14 10  2  0  0  0  0
 15  8  1  0  0  0  0
 17  3  1  0  0  0  0
 18 12  2  0  0  0  0
 18 17  1  0  0  0  0
 20 21  2  0  0  0  0
 22 23  1  0  0  0  0
 23 24  1  0  0  0  0
 24 25  1  0  0  0  0
 25 27  1  0  0  0  0
 27 26  1  0  0  0  0
 27 29  1  0  0  0  0
 28 27  2  0  0  0  0
M  END
>  <MODEL>
2

>  <REMARK>
 VINA RESULT:      -8.5      1.976      2.194
  Name = 
  6 active torsions:
  status: ('A' for Active; 'I' for Inactive)
    1  A    between atoms: O_2  and  P_16
    2  A    between atoms: O_2  and  C_26
    3  A    between atoms: C_9  and  C_25
    4  A    between atoms: C_13  and  C_21
    5  A    between atoms: C_22  and  C_25
    6  A    between atoms: C_22  and  C_26
                            x       y       z     vdW  Elec       q    Type
                         _______ _______ _______ _____ _____    ______ ____

>  <TORSDO>
F 6

$$$$
=
 OpenBabel11042422523D

 29 32  0  0  1  0  0  0  0  0999 V2000
  159.9870  209.3990  156.4670 C   0  0  0  0  0  3  0  0  0  0  0  0
  162.2010  207.7780  148.4950 N   0  0  0  0  0  2  0  0  0  0  0  0
  162.2570  209.5180  150.2440 C   0  0  0  0  0  2  0  0  0  0  0  0
  161.0300  207.9650  153.2450 C   0  0  0  0  0  0  0  0  0  0  0  0
  161.7960  207.2340  151.2220 C   0  0  1  0  0  3  0  0  0  0  0  0
  160.4060  207.0790  156.7730 C   0  0  0  0  0  3  0  0  0  0  0  0
  160.6920  208.0500  154.5900 C   0  0  0  0  0  0  0  0  0  0  0  0
  160.9680  207.0570  148.8070 C   0  0  2  0  0  3  0  0  0  0  0  0
  161.4610  206.8470  152.5560 O   0  0  0  0  0  0  0  0  0  0  0  0
  160.2560  210.4440  154.2560 C   0  0  0  0  0  0  0  0  0  0  0  0
  160.0410  208.2950  157.2600 N   0  0  0  0  0  0  0  0  0  0  0  0
  160.5680  210.3160  152.8760 C   0  0  0  0  0  0  0  0  0  0  0  0
  160.7400  206.9330  155.4260 C   0  0  0  0  0  3  0  0  0  0  0  0
  160.3130  209.3110  155.1070 C   0  0  0  0  0  0  0  0  0  0  0  0
  161.0000  206.4180  150.2040 C   0  0  0  0  0  2  0  0  0  0  0  0
  159.7470  212.0070  154.9090 Cl  0  0  0  0  0  0  0  0  0  0  0  0
  161.4720  208.6630  151.1280 N   0  0  0  0  0  0  0  0  0  0  0  0
  160.9990  209.0510  152.4180 C   0  0  0  0  0  0  0  0  0  0  0  0
  161.9590  209.1890  148.7810 C   0  0  0  0  0  2  0  0  0  0  0  0
  160.3670  211.4800  151.9890 C   0  0  0  0  0  3  0  0  0  0  0  0
  159.2150  212.1270  151.8750 C   0  0  0  0  0  2  0  0  0  0  0  0
  160.6560  206.0230  147.7320 C   0  0  0  0  0  2  0  0  0  0  0  0
  161.8270  205.0800  147.4910 C   0  0  0  0  0  2  0  0  0  0  0  0
  161.3730  203.6390  147.6280 C   0  0  0  0  0  2  0  0  0  0  0  0
  160.8520  203.4230  148.9060 O   0  0  0  0  0  0  0  0  0  0  0  0
  158.9910  201.3770  149.1730 O   0  0  0  0  0  1  0  0  0  0  0  0
  160.6370  201.7450  149.0310 P   0  0  0  0  0  0  0  0  0  0  0  0
  161.2040  201.0600  147.8080 O   0  0  0  0  0  0  0  0  0  0  0  0
  161.4490  201.1850  150.4050 O   0  0  0  0  0  1  0  0  0  0  0  0
  1 11  1  0  0  0  0
  2 19  1  0  0  0  0
  2  8  1  0  0  0  0
  3 17  1  0  0  0  0
  4  7  1  0  0  0  0
  5 15  1  6  0  0  0
  5  9  1  0  0  0  0
  6 11  2  0  0  0  0
  7 14  1  0  0  0  0
  7 13  2  0  0  0  0
  8 22  1  6  0  0  0
  8 15  1  0  0  0  0
  9  4  1  0  0  0  0
 10 16  1  0  0  0  0
 10 14  1  0  0  0  0
 12 10  2  0  0  0  0
 13  6  1  0  0  0  0
 14  1  2  0  0  0  0
 17  5  1  0  0  0  0
 17 18  1  0  0  0  0
 18 12  1  0  0  0  0
 18  4  2  0  0  0  0
 19  3  1  0  0  0  0
 20 12  1  0  0  0  0
 21 20  2  0  0  0  0
 23 24  1  0  0  0  0
 23 22  1  0  0  0  0
 24 25  1  0  0  0  0
 25 27  1  0  0  0  0
 27 26  1  0  0  0  0
 27 29  1  0  0  0  0
 28 27  2  0  0  0  0
M  END
>  <MODEL>
3

>  <REMARK>
 VINA RESULT:      -7.9      4.605      8.785
  Name = 
  6 active torsions:
  status: ('A' for Active; 'I' for Inactive)
    1  A    between atoms: O_2  and  P_16
    2  A    between atoms: O_2  and  C_26
    3  A    between atoms: C_9  and  C_25
    4  A    between atoms: C_13  and  C_21
    5  A    between atoms: C_22  and  C_25
    6  A    between atoms: C_22  and  C_26
                            x       y       z     vdW  Elec       q    Type
                         _______ _______ _______ _____ _____    ______ ____

>  <TORSDO>
F 6

$$$$
=
 OpenBabel11042422523D

 29 32  0  0  1  0  0  0  0  0999 V2000
  161.3730  203.4960  146.3190 C   0  0  0  0  0  3  0  0  0  0  0  0
  162.0350  208.6270  152.9760 N   0  0  0  0  0  2  0  0  0  0  0  0
  162.2860  206.2780  152.2610 C   0  0  0  0  0  2  0  0  0  0  0  0
  161.8580  206.2630  148.6920 C   0  0  0  0  0  0  0  0  0  0  0  0
  162.2550  207.8520  150.2840 C   0  0  1  0  0  3  0  0  0  0  0  0
  162.0620  205.4200  145.1050 C   0  0  0  0  0  3  0  0  0  0  0  0
  161.7980  205.5650  147.4920 C   0  0  0  0  0  0  0  0  0  0  0  0
  160.9670  209.1100  152.1020 C   0  0  2  0  0  3  0  0  0  0  0  0
  162.2410  207.5780  148.8820 O   0  0  0  0  0  0  0  0  0  0  0  0
  161.0790  203.5880  148.7600 C   0  0  0  0  0  0  0  0  0  0  0  0
  161.6930  204.1120  145.1490 N   0  0  0  0  0  0  0  0  0  0  0  0
  161.1100  204.3390  149.9650 C   0  0  0  0  0  0  0  0  0  0  0  0
  162.1230  206.1730  146.2780 C   0  0  0  0  0  3  0  0  0  0  0  0
  161.4170  204.2040  147.5280 C   0  0  0  0  0  0  0  0  0  0  0  0
  161.3470  209.0350  150.6160 C   0  0  0  0  0  2  0  0  0  0  0  0
  160.5700  201.8940  148.7850 Cl  0  0  0  0  0  0  0  0  0  0  0  0
  161.7860  206.6220  150.9350 N   0  0  0  0  0  0  0  0  0  0  0  0
  161.5540  205.6790  149.8890 C   0  0  0  0  0  0  0  0  0  0  0  0
  161.7260  207.2400  153.3100 C   0  0  0  0  0  2  0  0  0  0  0  0
  160.6210  203.7130  151.2090 C   0  0  0  0  0  3  0  0  0  0  0  0
  161.1640  202.6300  151.7500 C   0  0  0  0  0  2  0  0  0  0  0  0
  160.5380  210.5190  152.4950 C   0  0  0  0  0  2  0  0  0  0  0  0
  159.5720  210.5140  153.6720 C   0  0  0  0  0  2  0  0  0  0  0  0
  158.4990  211.5670  153.4710 C   0  0  0  0  0  2  0  0  0  0  0  0
  158.4030  211.8980  152.1170 O   0  0  0  0  0  0  0  0  0  0  0  0
  157.9030  214.0880  150.4840 O   0  0  0  0  0  0  0  0  0  0  0  0
  157.9320  213.5260  152.0800 P   0  0  0  0  0  0  0  0  0  0  0  0
  156.5580  213.6800  152.6950 O   0  0  0  0  0  1  0  0  0  0  0  0
  159.0400  214.4430  152.9680 O   0  0  0  0  0  1  0  0  0  0  0  0
  1 14  1  0  0  0  0
  2 19  1  0  0  0  0
  3 19  1  0  0  0  0
  4  9  1  0  0  0  0
  4 18  1  0  0  0  0
  5 15  1  6  0  0  0
  5 17  1  0  0  0  0
  6 11  1  0  0  0  0
  6 13  2  0  0  0  0
  7 14  1  0  0  0  0
  7  4  2  0  0  0  0
  8 22  1  1  0  0  0
  8  2  1  0  0  0  0
  9  5  1  0  0  0  0
 10 16  1  0  0  0  0
 10 12  1  0  0  0  0
 11  1  2  0  0  0  0
 12 20  1  0  0  0  0
 13  7  1  0  0  0  0
 14 10  2  0  0  0  0
 15  8  1  0  0  0  0
 17  3  1  0  0  0  0
 18 12  2  0  0  0  0
 18 17  1  0  0  0  0
 20 21  2  0  0  0  0
 22 23  1  0  0  0  0
 24 23  1  0  0  0  0
 25 24  1  0  0  0  0
 26 27  2  0  0  0  0
 27 25  1  0  0  0  0
 27 28  1  0  0  0  0
 27 29  1  0  0  0  0
M  END
>  <MODEL>
4

>  <REMARK>
 VINA RESULT:      -7.8      1.463      1.809
  Name = 
  6 active torsions:
  status: ('A' for Active; 'I' for Inactive)
    1  A    between atoms: O_2  and  P_16
    2  A    between atoms: O_2  and  C_26
    3  A    between atoms: C_9  and  C_25
    4  A    between atoms: C_13  and  C_21
    5  A    between atoms: C_22  and  C_25
    6  A    between atoms: C_22  and  C_26
                            x       y       z     vdW  Elec       q    Type
                         _______ _______ _______ _____ _____    ______ ____

>  <TORSDO>
F 6

$$$$
=
 OpenBabel11042422523D

 29 32  0  0  1  0  0  0  0  0999 V2000
  161.0170  202.6670  146.9600 C   0  0  0  0  0  3  0  0  0  0  0  0
  162.5980  209.9240  150.9490 N   0  0  0  0  0  2  0  0  0  0  0  0
  162.5390  207.4760  151.2540 C   0  0  0  0  0  2  0  0  0  0  0  0
  161.9360  206.0720  148.0000 C   0  0  0  0  0  0  0  0  0  0  0  0
  162.5930  208.1060  148.8070 C   0  0  1  0  0  3  0  0  0  0  0  0
  161.8640  203.8320  145.0690 C   0  0  0  0  0  3  0  0  0  0  0  0
  161.7370  204.9620  147.1890 C   0  0  0  0  0  0  0  0  0  0  0  0
  161.5500  210.1430  149.9520 C   0  0  2  0  0  3  0  0  0  0  0  0
  162.4780  207.2910  147.6380 O   0  0  0  0  0  0  0  0  0  0  0  0
  160.8560  203.7750  149.1510 C   0  0  0  0  0  0  0  0  0  0  0  0
  161.3480  202.7120  145.6410 N   0  0  0  0  0  0  0  0  0  0  0  0
  161.0340  204.9390  149.9450 C   0  0  0  0  0  0  0  0  0  0  0  0
  162.0700  204.9810  145.8330 C   0  0  0  0  0  3  0  0  0  0  0  0
  161.2020  203.7910  147.7760 C   0  0  0  0  0  0  0  0  0  0  0  0
  161.8460  209.4260  148.6250 C   0  0  0  0  0  2  0  0  0  0  0  0
  160.1570  202.3150  149.8620 Cl  0  0  0  0  0  0  0  0  0  0  0  0
  162.0170  207.3140  149.9020 N   0  0  0  0  0  0  0  0  0  0  0  0
  161.6260  206.0660  149.3300 C   0  0  0  0  0  0  0  0  0  0  0  0
  162.1460  208.8420  151.8180 C   0  0  0  0  0  2  0  0  0  0  0  0
  160.5380  204.9360  151.3360 C   0  0  0  0  0  3  0  0  0  0  0  0
  161.2270  204.4550  152.3610 C   0  0  0  0  0  2  0  0  0  0  0  0
  161.3080  211.6320  149.7350 C   0  0  0  0  0  2  0  0  0  0  0  0
  162.1960  212.2000  148.6360 C   0  0  0  0  0  2  0  0  0  0  0  0
  161.7970  213.6310  148.3300 C   0  0  0  0  0  2  0  0  0  0  0  0
  160.4100  213.7190  148.1880 O   0  0  0  0  0  0  0  0  0  0  0  0
  158.6900  214.4530  146.1330 O   0  0  0  0  0  1  0  0  0  0  0  0
  160.1190  213.6320  146.5190 P   0  0  0  0  0  0  0  0  0  0  0  0
  161.2750  214.2470  145.7610 O   0  0  0  0  0  0  0  0  0  0  0  0
  159.9630  212.0100  146.0690 O   0  0  0  0  0  1  0  0  0  0  0  0
  1 14  1  0  0  0  0
  2 19  1  0  0  0  0
  3 19  1  0  0  0  0
  4 18  1  0  0  0  0
  5 15  1  6  0  0  0
  5 17  1  0  0  0  0
  6 11  1  0  0  0  0
  6 13  2  0  0  0  0
  7 14  1  0  0  0  0
  7  4  2  0  0  0  0
  8 22  1  6  0  0  0
  8  2  1  0  0  0  0
  9  4  1  0  0  0  0
  9  5  1  0  0  0  0
 10 16  1  0  0  0  0
 10 12  1  0  0  0  0
 11  1  2  0  0  0  0
 12 20  1  0  0  0  0
 13  7  1  0  0  0  0
 14 10  2  0  0  0  0
 15  8  1  0  0  0  0
 17  3  1  0  0  0  0
 18 17  1  0  0  0  0
 18 12  2  0  0  0  0
 20 21  2  0  0  0  0
 23 22  1  0  0  0  0
 24 23  1  0  0  0  0
 25 24  1  0  0  0  0
 26 27  1  0  0  0  0
 27 25  1  0  0  0  0
 28 27  2  0  0  0  0
 29 27  1  0  0  0  0
M  END
>  <MODEL>
5

>  <REMARK>
 VINA RESULT:      -7.5      3.939      4.660
  Name = 
  6 active torsions:
  status: ('A' for Active; 'I' for Inactive)
    1  A    between atoms: O_2  and  P_16
    2  A    between atoms: O_2  and  C_26
    3  A    between atoms: C_9  and  C_25
    4  A    between atoms: C_13  and  C_21
    5  A    between atoms: C_22  and  C_25
    6  A    between atoms: C_22  and  C_26
                            x       y       z     vdW  Elec       q    Type
                         _______ _______ _______ _____ _____    ______ ____

>  <TORSDO>
F 6

$$$$
=
 OpenBabel11042422523D

 29 32  0  0  1  0  0  0  0  0999 V2000
  159.4760  211.0970  156.3450 C   0  0  0  0  0  3  0  0  0  0  0  0
  162.5000  209.1870  148.7100 N   0  0  0  0  0  2  0  0  0  0  0  0
  162.1150  211.0610  150.2680 C   0  0  0  0  0  2  0  0  0  0  0  0
  160.9860  209.5920  153.3480 C   0  0  0  0  0  0  0  0  0  0  0  0
  162.0120  208.8320  151.4540 C   0  0  1  0  0  3  0  0  0  0  0  0
  160.2880  208.9370  156.9130 C   0  0  0  0  0  3  0  0  0  0  0  0
  160.5440  209.7360  154.6580 C   0  0  0  0  0  0  0  0  0  0  0  0
  161.4010  208.2780  149.0320 C   0  0  2  0  0  3  0  0  0  0  0  0
  161.6610  208.5160  152.8030 O   0  0  0  0  0  0  0  0  0  0  0  0
  159.7030  211.9640  154.0520 C   0  0  0  0  0  0  0  0  0  0  0  0
  159.6740  210.1020  157.2510 N   0  0  0  0  0  0  0  0  0  0  0  0
  160.1290  211.7690  152.7120 C   0  0  0  0  0  0  0  0  0  0  0  0
  160.7370  208.7310  155.6080 C   0  0  0  0  0  3  0  0  0  0  0  0
  159.9060  210.9460  155.0190 C   0  0  0  0  0  0  0  0  0  0  0  0
  161.4520  207.7890  150.4880 C   0  0  0  0  0  2  0  0  0  0  0  0
  158.8730  213.4560  154.5110 Cl  0  0  0  0  0  0  0  0  0  0  0  0
  161.4400  210.1600  151.1950 N   0  0  0  0  0  0  0  0  0  0  0  0
  160.8140  210.5700  152.4110 C   0  0  0  0  0  0  0  0  0  0  0  0
  161.9850  210.5470  148.8340 C   0  0  0  0  0  2  0  0  0  0  0  0
  159.7810  212.7850  151.6980 C   0  0  0  0  0  3  0  0  0  0  0  0
  158.5860  212.8800  151.1320 C   0  0  0  0  0  2  0  0  0  0  0  0
  161.3590  207.1080  148.0570 C   0  0  0  0  0  2  0  0  0  0  0  0
  161.3650  205.7650  148.7760 C   0  0  0  0  0  2  0  0  0  0  0  0
  161.1860  204.6380  147.7770 C   0  0  0  0  0  2  0  0  0  0  0  0
  160.6990  205.1430  146.5690 O   0  0  0  0  0  0  0  0  0  0  0  0
  161.1870  202.6910  145.3580 O   0  0  0  0  0  1  0  0  0  0  0  0
  161.5710  204.3400  145.3570 P   0  0  0  0  0  0  0  0  0  0  0  0
  161.2420  204.9330  144.0040 O   0  0  0  0  0  0  0  0  0  0  0  0
  163.2260  204.5210  145.6530 O   0  0  0  0  0  1  0  0  0  0  0  0
  1 11  1  0  0  0  0
  2 19  1  0  0  0  0
  2  8  1  0  0  0  0
  3 17  1  0  0  0  0
  4  7  1  0  0  0  0
  5 15  1  6  0  0  0
  5  9  1  0  0  0  0
  6 11  2  0  0  0  0
  7 14  1  0  0  0  0
  7 13  2  0  0  0  0
  8 22  1  6  0  0  0
  8 15  1  0  0  0  0
  9  4  1  0  0  0  0
 10 16  1  0  0  0  0
 10 14  1  0  0  0  0
 12 10  2  0  0  0  0
 13  6  1  0  0  0  0
 14  1  2  0  0  0  0
 17  5  1  0  0  0  0
 17 18  1  0  0  0  0
 18 12  1  0  0  0  0
 18  4  2  0  0  0  0
 19  3  1  0  0  0  0
 20 12  1  0  0  0  0
 21 20  2  0  0  0  0
 22 23  1  0  0  0  0
 24 23  1  0  0  0  0
 25 24  1  0  0  0  0
 27 26  1  0  0  0  0
 27 29  1  0  0  0  0
 27 25  1  0  0  0  0
 28 27  2  0  0  0  0
M  END
>  <MODEL>
6

>  <REMARK>
 VINA RESULT:      -6.6      4.790      9.380
  Name = 
  6 active torsions:
  status: ('A' for Active; 'I' for Inactive)
    1  A    between atoms: O_2  and  P_16
    2  A    between atoms: O_2  and  C_26
    3  A    between atoms: C_9  and  C_25
    4  A    between atoms: C_13  and  C_21
    5  A    between atoms: C_22  and  C_25
    6  A    between atoms: C_22  and  C_26
                            x       y       z     vdW  Elec       q    Type
                         _______ _______ _______ _____ _____    ______ ____

>  <TORSDO>
F 6

$$$$
=
 OpenBabel11042422523D

 29 32  0  0  1  0  0  0  0  0999 V2000
  160.8270  202.7750  149.4150 C   0  0  0  0  0  3  0  0  0  0  0  0
  162.5320  211.0160  149.9150 N   0  0  0  0  0  2  0  0  0  0  0  0
  162.6220  208.9010  151.1830 C   0  0  0  0  0  2  0  0  0  0  0  0
  161.7060  206.3040  148.8730 C   0  0  0  0  0  0  0  0  0  0  0  0
  162.3590  208.4870  148.7040 C   0  0  1  0  0  3  0  0  0  0  0  0
  161.3920  203.0700  147.1250 C   0  0  0  0  0  3  0  0  0  0  0  0
  161.4630  204.9620  148.6090 C   0  0  0  0  0  0  0  0  0  0  0  0
  161.3660  210.8190  149.0550 C   0  0  2  0  0  3  0  0  0  0  0  0
  162.1450  207.2700  147.9860 O   0  0  0  0  0  0  0  0  0  0  0  0
  160.8740  204.6760  150.9770 C   0  0  0  0  0  0  0  0  0  0  0  0
  160.9980  202.2800  148.1590 N   0  0  0  0  0  0  0  0  0  0  0  0
  161.0910  206.0600  151.2060 C   0  0  0  0  0  0  0  0  0  0  0  0
  161.6340  204.4290  147.3300 C   0  0  0  0  0  3  0  0  0  0  0  0
  161.0550  204.1320  149.6790 C   0  0  0  0  0  0  0  0  0  0  0  0
  161.5360  209.6240  148.1030 C   0  0  0  0  0  2  0  0  0  0  0  0
  160.3310  203.6330  152.2970 Cl  0  0  0  0  0  0  0  0  0  0  0  0
  161.9520  208.2090  150.0880 N   0  0  0  0  0  0  0  0  0  0  0  0
  161.5540  206.8390  150.1200 C   0  0  0  0  0  0  0  0  0  0  0  0
  162.2360  210.3810  151.1950 C   0  0  0  0  0  2  0  0  0  0  0  0
  160.7620  206.6240  152.5310 C   0  0  0  0  0  3  0  0  0  0  0  0
  161.5150  206.4540  153.6090 C   0  0  0  0  0  2  0  0  0  0  0  0
  161.0320  212.0940  148.2890 C   0  0  0  0  0  2  0  0  0  0  0  0
  160.9040  213.2970  149.2150 C   0  0  0  0  0  2  0  0  0  0  0  0
  159.7440  213.0990  150.1710 C   0  0  0  0  0  2  0  0  0  0  0  0
  160.1740  213.2860  151.4870 O   0  0  0  0  0  0  0  0  0  0  0  0
  158.6620  211.2260  152.5770 O   0  0  0  0  0  1  0  0  0  0  0  0
  158.8370  212.9050  152.4590 P   0  0  0  0  0  0  0  0  0  0  0  0
  159.0200  213.4920  153.8420 O   0  0  0  0  0  1  0  0  0  0  0  0
  157.4420  213.5580  151.7620 O   0  0  0  0  0  0  0  0  0  0  0  0
  1 14  1  0  0  0  0
  2 19  1  0  0  0  0
  3 19  1  0  0  0  0
  4 18  1  0  0  0  0
  5 15  1  6  0  0  0
  5 17  1  0  0  0  0
  6 13  2  0  0  0  0
  6 11  1  0  0  0  0
  7  4  2  0  0  0  0
  7 14  1  0  0  0  0
  8 22  1  6  0  0  0
  8  2  1  0  0  0  0
  9  5  1  0  0  0  0
  9  4  1  0  0  0  0
 10 12  1  0  0  0  0
 10 16  1  0  0  0  0
 11  1  2  0  0  0  0
 12 20  1  0  0  0  0
 13  7  1  0  0  0  0
 14 10  2  0  0  0  0
 15  8  1  0  0  0  0
 17 18  1  0  0  0  0
 17  3  1  0  0  0  0
 18 12  2  0  0  0  0
 20 21  2  0  0  0  0
 22 23  1  0  0  0  0
 23 24  1  0  0  0  0
 24 25  1  0  0  0  0
 25 27  1  0  0  0  0
 27 26  1  0  0  0  0
 27 28  1  0  0  0  0
 29 27  2  0  0  0  0
M  END
>  <MODEL>
7

>  <REMARK>
 VINA RESULT:      -6.5      2.547      3.376
  Name = 
  6 active torsions:
  status: ('A' for Active; 'I' for Inactive)
    1  A    between atoms: O_2  and  P_16
    2  A    between atoms: O_2  and  C_26
    3  A    between atoms: C_9  and  C_25
    4  A    between atoms: C_13  and  C_21
    5  A    between atoms: C_22  and  C_25
    6  A    between atoms: C_22  and  C_26
                            x       y       z     vdW  Elec       q    Type
                         _______ _______ _______ _____ _____    ______ ____

>  <TORSDO>
F 6

$$$$
=
 OpenBabel11042422523D

 29 32  0  0  1  0  0  0  0  0999 V2000
  161.5770  202.7450  146.6830 C   0  0  0  0  0  3  0  0  0  0  0  0
  160.7300  207.8960  153.3030 N   0  0  0  0  0  2  0  0  0  0  0  0
  160.7160  207.8330  150.8360 C   0  0  0  0  0  2  0  0  0  0  0  0
  160.9160  204.3640  149.9180 C   0  0  0  0  0  0  0  0  0  0  0  0
  160.4330  205.5250  151.8250 C   0  0  1  0  0  3  0  0  0  0  0  0
  160.5870  201.1480  148.1380 C   0  0  0  0  0  3  0  0  0  0  0  0
  160.9830  203.3830  148.9360 C   0  0  0  0  0  0  0  0  0  0  0  0
  161.6750  206.8320  153.6400 C   0  0  2  0  0  3  0  0  0  0  0  0
  160.3910  204.2450  151.1910 O   0  0  0  0  0  0  0  0  0  0  0  0
  162.0120  205.0430  147.4470 C   0  0  0  0  0  0  0  0  0  0  0  0
  161.1120  201.4910  146.9320 N   0  0  0  0  0  0  0  0  0  0  0  0
  161.9680  206.0120  148.4840 C   0  0  0  0  0  0  0  0  0  0  0  0
  160.5100  202.0890  149.1660 C   0  0  0  0  0  3  0  0  0  0  0  0
  161.5260  203.7310  147.6770 C   0  0  0  0  0  0  0  0  0  0  0  0
  161.2130  205.4560  153.1370 C   0  0  0  0  0  2  0  0  0  0  0  0
  162.7200  205.4540  145.8790 Cl  0  0  0  0  0  0  0  0  0  0  0  0
  161.0870  206.4230  150.8640 N   0  0  0  0  0  0  0  0  0  0  0  0
  161.3630  205.6370  149.7050 C   0  0  0  0  0  0  0  0  0  0  0  0
  161.2240  208.5440  152.0920 C   0  0  0  0  0  2  0  0  0  0  0  0
  162.6060  207.3250  148.2610 C   0  0  0  0  0  3  0  0  0  0  0  0
  161.9300  208.4570  148.1140 C   0  0  0  0  0  2  0  0  0  0  0  0
  161.9560  206.8090  155.1380 C   0  0  0  0  0  2  0  0  0  0  0  0
  160.8850  207.5480  155.9310 C   0  0  0  0  0  2  0  0  0  0  0  0
  161.5080  208.6900  156.7100 C   0  0  0  0  0  2  0  0  0  0  0  0
  160.5440  209.6620  156.9850 O   0  0  0  0  0  0  0  0  0  0  0  0
  162.2430  210.6650  155.0300 O   0  0  0  0  0  1  0  0  0  0  0  0
  160.7430  210.8490  155.7900 P   0  0  0  0  0  0  0  0  0  0  0  0
  159.6390  210.7370  154.7610 O   0  0  0  0  0  0  0  0  0  0  0  0
  160.6730  212.3770  156.5110 O   0  0  0  0  0  1  0  0  0  0  0  0
  1 11  2  0  0  0  0
  1 14  1  0  0  0  0
  2  8  1  0  0  0  0
  3 17  1  0  0  0  0
  3 19  1  0  0  0  0
  4  9  1  0  0  0  0
  5 15  1  1  0  0  0
  6 13  2  0  0  0  0
  7 13  1  0  0  0  0
  7  4  2  0  0  0  0
  8 22  1  1  0  0  0
  9  5  1  0  0  0  0
 10 14  2  0  0  0  0
 10 12  1  0  0  0  0
 11  6  1  0  0  0  0
 12 18  2  0  0  0  0
 14  7  1  0  0  0  0
 15  8  1  0  0  0  0
 16 10  1  0  0  0  0
 17  5  1  0  0  0  0
 18  4  1  0  0  0  0
 18 17  1  0  0  0  0
 19  2  1  0  0  0  0
 20 12  1  0  0  0  0
 21 20  2  0  0  0  0
 22 23  1  0  0  0  0
 23 24  1  0  0  0  0
 24 25  1  0  0  0  0
 26 27  1  0  0  0  0
 27 29  1  0  0  0  0
 27 25  1  0  0  0  0
 28 27  2  0  0  0  0
M  END
>  <MODEL>
8

>  <REMARK>
 VINA RESULT:      -6.5      2.527      3.874
  Name = 
  6 active torsions:
  status: ('A' for Active; 'I' for Inactive)
    1  A    between atoms: O_2  and  P_16
    2  A    between atoms: O_2  and  C_26
    3  A    between atoms: C_9  and  C_25
    4  A    between atoms: C_13  and  C_21
    5  A    between atoms: C_22  and  C_25
    6  A    between atoms: C_22  and  C_26
                            x       y       z     vdW  Elec       q    Type
                         _______ _______ _______ _____ _____    ______ ____

>  <TORSDO>
F 6

$$$$
=
 OpenBabel11042422523D

 29 32  0  0  1  0  0  0  0  0999 V2000
  161.3450  206.0340  150.3440 C   0  0  0  0  0  3  0  0  0  0  0  0
  161.2310  211.8110  156.4830 N   0  0  0  0  0  2  0  0  0  0  0  0
  161.8500  209.4750  155.9810 C   0  0  0  0  0  2  0  0  0  0  0  0
  161.4000  209.0540  152.4400 C   0  0  0  0  0  0  0  0  0  0  0  0
  161.5500  210.8300  153.8700 C   0  0  1  0  0  3  0  0  0  0  0  0
  161.7070  207.9190  148.9420 C   0  0  0  0  0  3  0  0  0  0  0  0
  161.4430  208.2460  151.3110 C   0  0  0  0  0  0  0  0  0  0  0  0
  160.0910  212.0330  155.5940 C   0  0  2  0  0  3  0  0  0  0  0  0
  161.5690  210.4250  152.4990 O   0  0  0  0  0  0  0  0  0  0  0  0
  161.0600  206.3080  152.7720 C   0  0  0  0  0  0  0  0  0  0  0  0
  161.5520  206.5790  149.1150 N   0  0  0  0  0  0  0  0  0  0  0  0
  160.9810  207.1650  153.9010 C   0  0  0  0  0  0  0  0  0  0  0  0
  161.6560  208.7800  150.0390 C   0  0  0  0  0  3  0  0  0  0  0  0
  161.2850  206.8500  151.4810 C   0  0  0  0  0  0  0  0  0  0  0  0
  160.4670  211.8790  154.1110 C   0  0  0  0  0  2  0  0  0  0  0  0
  160.8310  204.5650  152.9640 Cl  0  0  0  0  0  0  0  0  0  0  0  0
  161.2890  209.6080  154.6420 N   0  0  0  0  0  0  0  0  0  0  0  0
  161.2030  208.5460  153.6920 C   0  0  0  0  0  0  0  0  0  0  0  0
  161.1500  210.4300  156.9500 C   0  0  0  0  0  2  0  0  0  0  0  0
  160.6090  206.5890  155.2100 C   0  0  0  0  0  3  0  0  0  0  0  0
  159.5330  206.9540  155.8950 C   0  0  0  0  0  2  0  0  0  0  0  0
  159.4460  213.3860  155.8650 C   0  0  0  0  0  2  0  0  0  0  0  0
  158.2950  213.2810  156.8570 C   0  0  0  0  0  2  0  0  0  0  0  0
  156.9690  213.4250  156.1350 C   0  0  0  0  0  2  0  0  0  0  0  0
  156.1830  212.2910  156.3510 O   0  0  0  0  0  0  0  0  0  0  0  0
  157.6880  210.1620  155.3900 O   0  0  0  0  0  1  0  0  0  0  0  0
  156.4710  211.2790  155.0210 P   0  0  0  0  0  0  0  0  0  0  0  0
  155.2030  210.5400  154.6500 O   0  0  0  0  0  1  0  0  0  0  0  0
  156.9660  212.2210  153.7070 O   0  0  0  0  0  0  0  0  0  0  0  0
  1 14  1  0  0  0  0
  2 19  1  0  0  0  0
  3 19  1  0  0  0  0
  4  9  1  0  0  0  0
  4 18  1  0  0  0  0
  5 15  1  6  0  0  0
  5 17  1  0  0  0  0
  6 11  1  0  0  0  0
  6 13  2  0  0  0  0
  7 14  1  0  0  0  0
  7  4  2  0  0  0  0
  8 22  1  6  0  0  0
  8  2  1  0  0  0  0
  9  5  1  0  0  0  0
 10 16  1  0  0  0  0
 10 12  1  0  0  0  0
 11  1  2  0  0  0  0
 12 20  1  0  0  0  0
 13  7  1  0  0  0  0
 14 10  2  0  0  0  0
 15  8  1  0  0  0  0
 17  3  1  0  0  0  0
 18 12  2  0  0  0  0
 18 17  1  0  0  0  0
 20 21  2  0  0  0  0
 22 23  1  0  0  0  0
 24 25  1  0  0  0  0
 24 23  1  0  0  0  0
 27 26  1  0  0  0  0
 27 25  1  0  0  0  0
 28 27  1  0  0  0  0
 29 27  2  0  0  0  0
M  END
>  <MODEL>
9

>  <REMARK>
 VINA RESULT:      -6.2      2.617      4.369
  Name = 
  6 active torsions:
  status: ('A' for Active; 'I' for Inactive)
    1  A    between atoms: O_2  and  P_16
    2  A    between atoms: O_2  and  C_26
    3  A    between atoms: C_9  and  C_25
    4  A    between atoms: C_13  and  C_21
    5  A    between atoms: C_22  and  C_25
    6  A    between atoms: C_22  and  C_26
                            x       y       z     vdW  Elec       q    Type
                         _______ _______ _______ _____ _____    ______ ____

>  <TORSDO>
F 6

$$$$
