=
 OpenBabel11042420263D

 31 34  0  0  1  0  0  0  0  0999 V2000
  160.5420  201.9300  149.3630 P   0  0  2  0  0  0  0  0  0  0  0  0
  161.4140  205.5250  152.5330 C   0  0  0  0  0  0  0  0  0  0  0  0
  161.0710  204.1650  152.4810 C   0  0  0  0  0  3  0  0  0  0  0  0
  161.5980  206.2550  151.3450 C   0  0  0  0  0  3  0  0  0  0  0  0
  160.9350  203.5240  148.9000 O   0  0  0  0  0  0  0  0  0  0  0  0
  161.1160  204.2780  150.0560 C   0  0  0  0  0  0  0  0  0  0  0  0
  160.9300  203.5560  151.2360 C   0  0  0  0  0  0  0  0  0  0  0  0
  161.4520  205.6400  150.0910 C   0  0  0  0  0  0  0  0  0  0  0  0
  161.6010  200.9430  148.9270 O   0  0  0  0  0  1  0  0  0  0  0  0
  158.9960  201.4780  148.8480 O   0  0  0  0  0  0  0  0  0  0  0  0
  160.6010  202.2190  151.0430 O   0  0  0  0  0  0  0  0  0  0  0  0
  160.9590  207.6470  148.8800 O   0  0  0  0  0  1  0  0  0  0  0  0
  161.6830  206.4530  148.8460 C   0  0  2  0  0  3  0  0  0  0  0  0
  161.4110  205.6890  147.5440 C   0  0  1  0  0  3  0  0  0  0  0  0
  160.4090  206.4310  146.6770 C   0  0  0  0  0  1  0  0  0  0  0  0
  162.6340  205.4500  146.7890 N   0  0  0  0  0  2  0  0  0  0  0  0
  162.2650  204.7670  145.5600 C   0  0  0  0  0  2  0  0  0  0  0  0
  161.9150  203.3200  145.8610 C   0  0  0  0  0  2  0  0  0  0  0  0
  160.6850  202.9200  145.1170 C   0  0  0  0  0  0  0  0  0  0  0  0
  160.1560  201.5350  145.2530 C   0  0  0  0  0  1  0  0  0  0  0  0
  160.0990  203.7290  144.4160 O   0  0  0  0  0  0  0  0  0  0  0  0
  161.5460  206.2070  153.8500 C   0  0  0  0  0  2  0  0  0  0  0  0
  160.9620  211.0740  153.9640 N   0  0  0  0  0  0  0  0  0  0  0  0
  161.5620  208.6810  153.8910 C   0  0  1  0  0  3  0  0  0  0  0  0
  160.6720  211.2550  155.2120 C   0  0  0  0  0  3  0  0  0  0  0  0
  160.6750  207.4490  153.8830 C   0  0  2  0  0  3  0  0  0  0  0  0
  160.8070  209.8340  153.2310 C   0  0  2  0  0  3  0  0  0  0  0  0
  160.9040  208.1900  155.1840 C   0  0  2  0  0  3  0  0  0  0  0  0
  161.3030  210.0200  151.8120 C   0  0  0  0  0  1  0  0  0  0  0  0
  159.7270  208.9830  155.5220 N   0  0  0  0  0  2  0  0  0  0  0  0
  160.2030  210.1910  156.1820 C   0  0  0  0  0  2  0  0  0  0  0  0
  1 10  2  6  0  0  0
  1 11  1  0  0  0  0
  2 22  1  0  0  0  0
  3  2  1  0  0  0  0
  4  2  2  0  0  0  0
  5  1  1  0  0  0  0
  5  6  1  0  0  0  0
  6  8  2  0  0  0  0
  6  7  1  0  0  0  0
  7  3  2  0  0  0  0
  8  4  1  0  0  0  0
  9  1  1  0  0  0  0
 11  7  1  0  0  0  0
 13 12  1  1  0  0  0
 13  8  1  0  0  0  0
 14 15  1  6  0  0  0
 14 13  1  0  0  0  0
 16 14  1  0  0  0  0
 17 18  1  0  0  0  0
 17 16  1  0  0  0  0
 19 20  1  0  0  0  0
 19 18  1  0  0  0  0
 21 19  2  0  0  0  0
 22 26  1  0  0  0  0
 23 25  2  0  0  0  0
 24 28  1  0  0  0  0
 25 31  1  0  0  0  0
 26 24  1  0  0  0  0
 26 28  1  0  0  0  0
 27 24  1  0  0  0  0
 27 23  1  0  0  0  0
 28 30  1  0  0  0  0
 29 27  1  0  0  0  0
 30 31  1  0  0  0  0
M  END
>  <MODEL>
1

>  <REMARK>
 VINA RESULT:      -8.6      0.000      0.000
  Name = 
  8 active torsions:
  status: ('A' for Active; 'I' for Inactive)
    1  A    between atoms: C_3  and  C_16
    2  A    between atoms: N_5  and  C_8
    3  A    between atoms: N_5  and  C_24
    4  A    between atoms: C_6  and  C_8
    5  A    between atoms: C_6  and  C_25
    6  A    between atoms: C_12  and  C_13
    7  A    between atoms: C_12  and  C_19
    8  A    between atoms: C_16  and  C_24
                            x       y       z     vdW  Elec       q    Type
                         _______ _______ _______ _____ _____    ______ ____

>  <TORSDO>
F 8

$$$$
=
 OpenBabel11042420263D

 31 34  0  0  1  0  0  0  0  0999 V2000
  160.5360  202.0240  149.3340 P   0  0  2  0  0  0  0  0  0  0  0  0
  161.4070  205.5390  152.5920 C   0  0  0  0  0  0  0  0  0  0  0  0
  161.2440  204.1480  152.4940 C   0  0  0  0  0  3  0  0  0  0  0  0
  161.3050  206.3490  151.4460 C   0  0  0  0  0  3  0  0  0  0  0  0
  160.6370  203.6800  148.9350 O   0  0  0  0  0  0  0  0  0  0  0  0
  160.8950  204.3920  150.1030 C   0  0  0  0  0  0  0  0  0  0  0  0
  160.9920  203.5910  151.2420 C   0  0  0  0  0  0  0  0  0  0  0  0
  161.0480  205.7840  150.1870 C   0  0  0  0  0  0  0  0  0  0  0  0
  161.6350  201.2220  148.6760 O   0  0  0  0  0  0  0  0  0  0  0  0
  159.0020  201.3850  149.0210 O   0  0  0  0  0  1  0  0  0  0  0  0
  160.8170  202.2330  151.0030 O   0  0  0  0  0  0  0  0  0  0  0  0
  159.9490  206.2880  148.1190 O   0  0  0  0  0  1  0  0  0  0  0  0
  160.9710  206.6850  148.9830 C   0  0  2  0  0  3  0  0  0  0  0  0
  162.2980  206.8270  148.2260 C   0  0  1  0  0  3  0  0  0  0  0  0
  162.1580  206.3590  146.7900 C   0  0  0  0  0  1  0  0  0  0  0  0
  162.7930  208.1980  148.2530 N   0  0  0  0  0  2  0  0  0  0  0  0
  161.7080  209.0470  148.7200 C   0  0  0  0  0  2  0  0  0  0  0  0
  162.2700  210.3590  149.2390 C   0  0  0  0  0  2  0  0  0  0  0  0
  162.0750  211.4400  148.2280 C   0  0  0  0  0  0  0  0  0  0  0  0
  163.1780  212.4000  147.9500 C   0  0  0  0  0  1  0  0  0  0  0  0
  161.0230  211.5270  147.6140 O   0  0  0  0  0  0  0  0  0  0  0  0
  161.6520  206.1640  153.9220 C   0  0  0  0  0  2  0  0  0  0  0  0
  160.3790  210.8400  154.6740 N   0  0  0  0  0  0  0  0  0  0  0  0
  161.3110  208.5920  154.2570 C   0  0  1  0  0  3  0  0  0  0  0  0
  160.2110  210.8420  155.9570 C   0  0  0  0  0  3  0  0  0  0  0  0
  160.6180  207.2430  154.1880 C   0  0  2  0  0  3  0  0  0  0  0  0
  160.3240  209.6730  153.8170 C   0  0  2  0  0  3  0  0  0  0  0  0
  160.8840  207.8720  155.5400 C   0  0  2  0  0  3  0  0  0  0  0  0
  160.6210  210.0810  152.3890 C   0  0  0  0  0  1  0  0  0  0  0  0
  159.6500  208.4300  156.0830 N   0  0  0  0  0  2  0  0  0  0  0  0
  160.0170  209.6230  156.8340 C   0  0  0  0  0  2  0  0  0  0  0  0
  1  9  2  6  0  0  0
  1 11  1  0  0  0  0
  2 22  1  0  0  0  0
  3  2  1  0  0  0  0
  4  2  2  0  0  0  0
  5  1  1  0  0  0  0
  5  6  1  0  0  0  0
  6  8  2  0  0  0  0
  6  7  1  0  0  0  0
  7  3  2  0  0  0  0
  8  4  1  0  0  0  0
 10  1  1  0  0  0  0
 11  7  1  0  0  0  0
 13 12  1  6  0  0  0
 13  8  1  0  0  0  0
 14 15  1  6  0  0  0
 14 16  1  0  0  0  0
 14 13  1  0  0  0  0
 16 17  1  0  0  0  0
 17 18  1  0  0  0  0
 19 18  1  0  0  0  0
 20 19  1  0  0  0  0
 21 19  2  0  0  0  0
 22 26  1  0  0  0  0
 23 25  2  0  0  0  0
 24 28  1  0  0  0  0
 25 31  1  0  0  0  0
 26 24  1  0  0  0  0
 26 28  1  0  0  0  0
 27 24  1  0  0  0  0
 27 23  1  0  0  0  0
 28 30  1  0  0  0  0
 29 27  1  0  0  0  0
 30 31  1  0  0  0  0
M  END
>  <MODEL>
2

>  <REMARK>
 VINA RESULT:      -8.5      1.841      3.617
  Name = 
  8 active torsions:
  status: ('A' for Active; 'I' for Inactive)
    1  A    between atoms: C_3  and  C_16
    2  A    between atoms: N_5  and  C_8
    3  A    between atoms: N_5  and  C_24
    4  A    between atoms: C_6  and  C_8
    5  A    between atoms: C_6  and  C_25
    6  A    between atoms: C_12  and  C_13
    7  A    between atoms: C_12  and  C_19
    8  A    between atoms: C_16  and  C_24
                            x       y       z     vdW  Elec       q    Type
                         _______ _______ _______ _____ _____    ______ ____

>  <TORSDO>
F 8

$$$$
=
 OpenBabel11042420263D

 31 34  0  0  1  0  0  0  0  0999 V2000
  161.5940  205.8270  146.7570 P   0  0  2  0  0  0  0  0  0  0  0  0
  161.6370  207.7730  151.2220 C   0  0  0  0  0  0  0  0  0  0  0  0
  161.9470  208.0780  149.8880 C   0  0  0  0  0  3  0  0  0  0  0  0
  161.1380  206.5020  151.5620 C   0  0  0  0  0  3  0  0  0  0  0  0
  161.0960  204.9910  148.1580 O   0  0  0  0  0  0  0  0  0  0  0  0
  161.2410  205.8450  149.2470 C   0  0  0  0  0  0  0  0  0  0  0  0
  161.7400  207.1050  148.9130 C   0  0  0  0  0  0  0  0  0  0  0  0
  160.9340  205.5230  150.5770 C   0  0  0  0  0  0  0  0  0  0  0  0
  160.4520  206.0220  145.7860 O   0  0  0  0  0  0  0  0  0  0  0  0
  162.9380  205.1060  146.0270 O   0  0  0  0  0  1  0  0  0  0  0  0
  161.9980  207.2770  147.5580 O   0  0  0  0  0  0  0  0  0  0  0  0
  160.3800  204.0320  152.3690 O   0  0  0  0  0  1  0  0  0  0  0  0
  160.3740  204.1850  150.9810 C   0  0  2  0  0  3  0  0  0  0  0  0
  161.0570  202.9920  150.3000 C   0  0  1  0  0  3  0  0  0  0  0  0
  161.8880  202.2000  151.2920 C   0  0  0  0  0  1  0  0  0  0  0  0
  160.0930  202.1130  149.6510 N   0  0  0  0  0  2  0  0  0  0  0  0
  160.8330  201.2240  148.7700 C   0  0  0  0  0  2  0  0  0  0  0  0
  161.1060  201.9210  147.4480 C   0  0  0  0  0  2  0  0  0  0  0  0
  160.8430  200.9920  146.3100 C   0  0  0  0  0  0  0  0  0  0  0  0
  160.0340  201.4550  145.1490 C   0  0  0  0  0  1  0  0  0  0  0  0
  161.3050  199.8620  146.3170 O   0  0  0  0  0  0  0  0  0  0  0  0
  161.8730  208.7850  152.2890 C   0  0  0  0  0  2  0  0  0  0  0  0
  159.7810  210.2320  156.4810 N   0  0  0  0  0  0  0  0  0  0  0  0
  161.0530  209.7180  154.4290 C   0  0  1  0  0  3  0  0  0  0  0  0
  160.0910  209.2460  157.2600 C   0  0  0  0  0  3  0  0  0  0  0  0
  160.7610  208.7240  153.3200 C   0  0  2  0  0  3  0  0  0  0  0  0
  159.7290  210.1810  155.0340 C   0  0  2  0  0  3  0  0  0  0  0  0
  161.3210  208.2240  154.6350 C   0  0  2  0  0  3  0  0  0  0  0  0
  159.3740  211.5510  154.4940 C   0  0  0  0  0  1  0  0  0  0  0  0
  160.2650  207.5930  155.4200 N   0  0  0  0  0  2  0  0  0  0  0  0
  160.5520  207.8720  156.8210 C   0  0  0  0  0  2  0  0  0  0  0  0
  1  9  2  6  0  0  0
  1 11  1  0  0  0  0
  1  5  1  0  0  0  0
  2  4  1  0  0  0  0
  2 22  1  0  0  0  0
  3  2  2  0  0  0  0
  5  6  1  0  0  0  0
  6  8  1  0  0  0  0
  7  6  2  0  0  0  0
  7  3  1  0  0  0  0
  8 13  1  0  0  0  0
  8  4  2  0  0  0  0
 10  1  1  0  0  0  0
 11  7  1  0  0  0  0
 13 12  1  1  0  0  0
 14 13  1  0  0  0  0
 14 15  1  1  0  0  0
 16 14  1  0  0  0  0
 17 16  1  0  0  0  0
 18 17  1  0  0  0  0
 19 21  2  0  0  0  0
 19 18  1  0  0  0  0
 20 19  1  0  0  0  0
 22 26  1  0  0  0  0
 23 25  2  0  0  0  0
 24 28  1  0  0  0  0
 24 27  1  0  0  0  0
 26 24  1  0  0  0  0
 26 28  1  0  0  0  0
 27 23  1  0  0  0  0
 28 30  1  0  0  0  0
 29 27  1  0  0  0  0
 30 31  1  0  0  0  0
 31 25  1  0  0  0  0
M  END
>  <MODEL>
3

>  <REMARK>
 VINA RESULT:      -8.3      2.226      3.689
  Name = 
  8 active torsions:
  status: ('A' for Active; 'I' for Inactive)
    1  A    between atoms: C_3  and  C_16
    2  A    between atoms: N_5  and  C_8
    3  A    between atoms: N_5  and  C_24
    4  A    between atoms: C_6  and  C_8
    5  A    between atoms: C_6  and  C_25
    6  A    between atoms: C_12  and  C_13
    7  A    between atoms: C_12  and  C_19
    8  A    between atoms: C_16  and  C_24
                            x       y       z     vdW  Elec       q    Type
                         _______ _______ _______ _____ _____    ______ ____

>  <TORSDO>
F 8

$$$$
=
 OpenBabel11042420263D

 31 34  0  0  1  0  0  0  0  0999 V2000
  161.3520  206.3940  146.9420 P   0  0  2  0  0  0  0  0  0  0  0  0
  161.5270  207.8380  151.5910 C   0  0  0  0  0  0  0  0  0  0  0  0
  161.7500  208.3050  150.2860 C   0  0  0  0  0  3  0  0  0  0  0  0
  161.1140  206.5110  151.8080 C   0  0  0  0  0  3  0  0  0  0  0  0
  160.9730  205.3820  148.2610 O   0  0  0  0  0  0  0  0  0  0  0  0
  161.1290  206.1190  149.4320 C   0  0  0  0  0  0  0  0  0  0  0  0
  161.5430  207.4350  149.2190 C   0  0  0  0  0  0  0  0  0  0  0  0
  160.9100  205.6350  150.7300 C   0  0  0  0  0  0  0  0  0  0  0  0
  160.1520  206.6270  146.0530 O   0  0  0  0  0  0  0  0  0  0  0  0
  162.6920  205.8360  146.0740 O   0  0  0  0  0  1  0  0  0  0  0  0
  161.7210  207.7690  147.8810 O   0  0  0  0  0  0  0  0  0  0  0  0
  160.4190  203.9670  152.3780 O   0  0  0  0  0  1  0  0  0  0  0  0
  160.4430  204.2310  151.0070 C   0  0  2  0  0  3  0  0  0  0  0  0
  161.2370  203.1520  150.2590 C   0  0  1  0  0  3  0  0  0  0  0  0
  161.7070  202.0650  151.2090 C   0  0  0  0  0  1  0  0  0  0  0  0
  160.4600  202.5590  149.1770 N   0  0  0  0  0  2  0  0  0  0  0  0
  161.3920  202.1700  148.1310 C   0  0  0  0  0  2  0  0  0  0  0  0
  160.7710  201.0860  147.2670 C   0  0  0  0  0  2  0  0  0  0  0  0
  160.5820  201.5830  145.8730 C   0  0  0  0  0  0  0  0  0  0  0  0
  161.0570  202.9450  145.5020 C   0  0  0  0  0  1  0  0  0  0  0  0
  160.0610  200.8700  145.0300 O   0  0  0  0  0  0  0  0  0  0  0  0
  161.7650  208.7400  152.7520 C   0  0  0  0  0  2  0  0  0  0  0  0
  159.4260  212.8520  154.0410 N   0  0  0  0  0  0  0  0  0  0  0  0
  160.8640  210.9540  153.3940 C   0  0  1  0  0  3  0  0  0  0  0  0
  159.1950  212.6180  155.2930 C   0  0  0  0  0  3  0  0  0  0  0  0
  160.5010  209.5140  153.0780 C   0  0  2  0  0  3  0  0  0  0  0  0
  159.6820  211.8490  153.0270 C   0  0  2  0  0  3  0  0  0  0  0  0
  160.5470  209.9670  154.5220 C   0  0  2  0  0  3  0  0  0  0  0  0
  159.9520  212.5300  151.7010 C   0  0  0  0  0  1  0  0  0  0  0  0
  159.1920  210.1530  155.0310 N   0  0  0  0  0  2  0  0  0  0  0  0
  159.2380  211.2650  155.9700 C   0  0  0  0  0  2  0  0  0  0  0  0
  1  9  2  6  0  0  0
  1 11  1  0  0  0  0
  1  5  1  0  0  0  0
  2  4  1  0  0  0  0
  2 22  1  0  0  0  0
  3  2  2  0  0  0  0
  5  6  1  0  0  0  0
  6  8  1  0  0  0  0
  7  6  2  0  0  0  0
  7  3  1  0  0  0  0
  8 13  1  0  0  0  0
  8  4  2  0  0  0  0
 10  1  1  0  0  0  0
 11  7  1  0  0  0  0
 13 12  1  1  0  0  0
 14 13  1  0  0  0  0
 14 15  1  1  0  0  0
 16 14  1  0  0  0  0
 17 16  1  0  0  0  0
 18 17  1  0  0  0  0
 19 18  1  0  0  0  0
 20 19  1  0  0  0  0
 21 19  2  0  0  0  0
 22 26  1  0  0  0  0
 23 25  2  0  0  0  0
 24 28  1  0  0  0  0
 25 31  1  0  0  0  0
 26 24  1  0  0  0  0
 26 28  1  0  0  0  0
 27 24  1  0  0  0  0
 27 23  1  0  0  0  0
 28 30  1  0  0  0  0
 29 27  1  0  0  0  0
 30 31  1  0  0  0  0
M  END
>  <MODEL>
4

>  <REMARK>
 VINA RESULT:      -7.7      2.216      3.615
  Name = 
  8 active torsions:
  status: ('A' for Active; 'I' for Inactive)
    1  A    between atoms: C_3  and  C_16
    2  A    between atoms: N_5  and  C_8
    3  A    between atoms: N_5  and  C_24
    4  A    between atoms: C_6  and  C_8
    5  A    between atoms: C_6  and  C_25
    6  A    between atoms: C_12  and  C_13
    7  A    between atoms: C_12  and  C_19
    8  A    between atoms: C_16  and  C_24
                            x       y       z     vdW  Elec       q    Type
                         _______ _______ _______ _____ _____    ______ ____

>  <TORSDO>
F 8

$$$$
=
 OpenBabel11042420263D

 31 34  0  0  1  0  0  0  0  0999 V2000
  161.9720  211.4540  148.5830 P   0  0  2  0  0  0  0  0  0  0  0  0
  161.2950  208.0610  152.0120 C   0  0  0  0  0  0  0  0  0  0  0  0
  161.7180  208.2090  150.6820 C   0  0  0  0  0  3  0  0  0  0  0  0
  160.8790  209.1810  152.7540 C   0  0  0  0  0  3  0  0  0  0  0  0
  161.3870  211.7950  150.1490 O   0  0  0  0  0  0  0  0  0  0  0  0
  161.3200  210.5980  150.8570 C   0  0  0  0  0  0  0  0  0  0  0  0
  161.7280  209.4840  150.1210 C   0  0  0  0  0  0  0  0  0  0  0  0
  160.8870  210.4640  152.1840 C   0  0  0  0  0  0  0  0  0  0  0  0
  163.3090  212.1110  148.3290 O   0  0  0  0  0  1  0  0  0  0  0  0
  160.8390  211.8260  147.3840 O   0  0  0  0  0  0  0  0  0  0  0  0
  162.1280  209.7730  148.8210 O   0  0  0  0  0  0  0  0  0  0  0  0
  160.8290  211.4710  154.3570 O   0  0  0  0  0  1  0  0  0  0  0  0
  160.4580  211.6390  153.0220 C   0  0  2  0  0  3  0  0  0  0  0  0
  158.9650  211.9730  152.9100 C   0  0  1  0  0  3  0  0  0  0  0  0
  158.1720  211.2950  154.0120 C   0  0  0  0  0  1  0  0  0  0  0  0
  158.7260  213.4100  152.9420 N   0  0  0  0  0  2  0  0  0  0  0  0
  157.7020  213.7070  151.9530 C   0  0  0  0  0  2  0  0  0  0  0  0
  158.2410  213.4360  150.5580 C   0  0  0  0  0  2  0  0  0  0  0  0
  157.1700  213.6440  149.5410 C   0  0  0  0  0  0  0  0  0  0  0  0
  157.4090  213.2530  148.1240 C   0  0  0  0  0  1  0  0  0  0  0  0
  156.0910  214.1130  149.8690 O   0  0  0  0  0  0  0  0  0  0  0  0
  161.2490  206.7060  152.6280 C   0  0  0  0  0  2  0  0  0  0  0  0
  160.5940  203.4510  149.0190 N   0  0  0  0  0  0  0  0  0  0  0  0
  160.6190  205.1510  150.8090 C   0  0  1  0  0  3  0  0  0  0  0  0
  160.6320  202.3410  149.6840 C   0  0  0  0  0  3  0  0  0  0  0  0
  161.7720  205.6700  151.6490 C   0  0  2  0  0  3  0  0  0  0  0  0
  161.1620  204.7120  149.4490 C   0  0  2  0  0  3  0  0  0  0  0  0
  161.1670  204.3200  151.9740 C   0  0  2  0  0  3  0  0  0  0  0  0
  160.8650  205.7780  148.4150 C   0  0  0  0  0  1  0  0  0  0  0  0
  162.0450  203.2530  151.5050 N   0  0  0  0  0  2  0  0  0  0  0  0
  161.1900  202.1540  151.0790 C   0  0  0  0  0  2  0  0  0  0  0  0
  1 10  2  6  0  0  0
  1 11  1  0  0  0  0
  1  5  1  0  0  0  0
  2 22  1  0  0  0  0
  2  4  1  0  0  0  0
  3  2  2  0  0  0  0
  5  6  1  0  0  0  0
  6  8  1  0  0  0  0
  7  3  1  0  0  0  0
  7  6  2  0  0  0  0
  8  4  2  0  0  0  0
  8 13  1  0  0  0  0
  9  1  1  0  0  0  0
 11  7  1  0  0  0  0
 13 12  1  1  0  0  0
 14 16  1  0  0  0  0
 14 13  1  0  0  0  0
 14 15  1  1  0  0  0
 17 16  1  0  0  0  0
 18 17  1  0  0  0  0
 19 21  2  0  0  0  0
 19 18  1  0  0  0  0
 20 19  1  0  0  0  0
 23 27  1  0  0  0  0
 23 25  2  0  0  0  0
 24 26  1  0  0  0  0
 24 28  1  0  0  0  0
 25 31  1  0  0  0  0
 26 28  1  0  0  0  0
 26 22  1  0  0  0  0
 27 24  1  0  0  0  0
 29 27  1  0  0  0  0
 30 28  1  0  0  0  0
 31 30  1  0  0  0  0
M  END
>  <MODEL>
5

>  <REMARK>
 VINA RESULT:      -7.5      4.316      8.381
  Name = 
  8 active torsions:
  status: ('A' for Active; 'I' for Inactive)
    1  A    between atoms: C_3  and  C_16
    2  A    between atoms: N_5  and  C_8
    3  A    between atoms: N_5  and  C_24
    4  A    between atoms: C_6  and  C_8
    5  A    between atoms: C_6  and  C_25
    6  A    between atoms: C_12  and  C_13
    7  A    between atoms: C_12  and  C_19
    8  A    between atoms: C_16  and  C_24
                            x       y       z     vdW  Elec       q    Type
                         _______ _______ _______ _____ _____    ______ ____

>  <TORSDO>
F 8

$$$$
=
 OpenBabel11042420263D

 31 34  0  0  1  0  0  0  0  0999 V2000
  162.1030  210.9100  148.7230 P   0  0  2  0  0  0  0  0  0  0  0  0
  161.3160  207.3140  151.9140 C   0  0  0  0  0  0  0  0  0  0  0  0
  161.5560  207.5390  150.5490 C   0  0  0  0  0  3  0  0  0  0  0  0
  161.2370  208.3960  152.8080 C   0  0  0  0  0  3  0  0  0  0  0  0
  161.8350  211.1650  150.3890 O   0  0  0  0  0  0  0  0  0  0  0  0
  161.6490  209.9240  150.9930 C   0  0  0  0  0  0  0  0  0  0  0  0
  161.7230  208.8480  150.1060 C   0  0  0  0  0  0  0  0  0  0  0  0
  161.4030  209.7160  152.3580 C   0  0  0  0  0  0  0  0  0  0  0  0
  163.4870  211.3500  148.3050 O   0  0  0  0  0  1  0  0  0  0  0  0
  160.8940  211.6080  147.7690 O   0  0  0  0  0  0  0  0  0  0  0  0
  161.9710  209.2110  148.7870 O   0  0  0  0  0  0  0  0  0  0  0  0
  162.1200  210.5740  154.4760 O   0  0  0  0  0  1  0  0  0  0  0  0
  161.3350  210.8430  153.3530 C   0  0  2  0  0  3  0  0  0  0  0  0
  159.9090  211.2250  153.7660 C   0  0  1  0  0  3  0  0  0  0  0  0
  159.6310  210.8210  155.2030 C   0  0  0  0  0  1  0  0  0  0  0  0
  159.6590  212.6510  153.5980 N   0  0  0  0  0  2  0  0  0  0  0  0
  158.5240  213.0000  154.4380 C   0  0  0  0  0  2  0  0  0  0  0  0
  157.2750  213.1380  153.5840 C   0  0  0  0  0  2  0  0  0  0  0  0
  156.0630  212.7910  154.3810 C   0  0  0  0  0  0  0  0  0  0  0  0
  155.9170  211.4210  154.9480 C   0  0  0  0  0  1  0  0  0  0  0  0
  155.2010  213.6290  154.5890 O   0  0  0  0  0  0  0  0  0  0  0  0
  161.1080  205.9250  152.4110 C   0  0  0  0  0  2  0  0  0  0  0  0
  160.6330  202.9420  148.5480 N   0  0  0  0  0  0  0  0  0  0  0  0
  160.5740  204.5240  150.4420 C   0  0  1  0  0  3  0  0  0  0  0  0
  160.5550  201.7930  149.1370 C   0  0  0  0  0  3  0  0  0  0  0  0
  161.6680  204.9260  151.4150 C   0  0  2  0  0  3  0  0  0  0  0  0
  161.2190  204.1420  149.1100 C   0  0  2  0  0  3  0  0  0  0  0  0
  160.9700  203.5930  151.5930 C   0  0  2  0  0  3  0  0  0  0  0  0
  161.0720  205.2850  148.1280 C   0  0  0  0  0  1  0  0  0  0  0  0
  161.8350  202.5110  151.1350 N   0  0  0  0  0  2  0  0  0  0  0  0
  160.9700  201.4890  150.5610 C   0  0  0  0  0  2  0  0  0  0  0  0
  1 10  2  6  0  0  0
  1 11  1  0  0  0  0
  1  5  1  0  0  0  0
  2 22  1  0  0  0  0
  2  4  1  0  0  0  0
  3  2  2  0  0  0  0
  5  6  1  0  0  0  0
  6  8  1  0  0  0  0
  7  3  1  0  0  0  0
  7  6  2  0  0  0  0
  8  4  2  0  0  0  0
  8 13  1  0  0  0  0
  9  1  1  0  0  0  0
 11  7  1  0  0  0  0
 13 14  1  0  0  0  0
 13 12  1  1  0  0  0
 14 15  1  1  0  0  0
 16 14  1  0  0  0  0
 16 17  1  0  0  0  0
 18 19  1  0  0  0  0
 18 17  1  0  0  0  0
 19 21  2  0  0  0  0
 19 20  1  0  0  0  0
 23 27  1  0  0  0  0
 23 25  2  0  0  0  0
 24 26  1  0  0  0  0
 24 28  1  0  0  0  0
 25 31  1  0  0  0  0
 26 28  1  0  0  0  0
 26 22  1  0  0  0  0
 27 24  1  0  0  0  0
 29 27  1  0  0  0  0
 30 28  1  0  0  0  0
 31 30  1  0  0  0  0
M  END
>  <MODEL>
6

>  <REMARK>
 VINA RESULT:      -7.2      3.926      8.839
  Name = 
  8 active torsions:
  status: ('A' for Active; 'I' for Inactive)
    1  A    between atoms: C_3  and  C_16
    2  A    between atoms: N_5  and  C_8
    3  A    between atoms: N_5  and  C_24
    4  A    between atoms: C_6  and  C_8
    5  A    between atoms: C_6  and  C_25
    6  A    between atoms: C_12  and  C_13
    7  A    between atoms: C_12  and  C_19
    8  A    between atoms: C_16  and  C_24
                            x       y       z     vdW  Elec       q    Type
                         _______ _______ _______ _____ _____    ______ ____

>  <TORSDO>
F 8

$$$$
=
 OpenBabel11042420263D

 31 34  0  0  1  0  0  0  0  0999 V2000
  162.0670  211.4800  148.4290 P   0  0  2  0  0  0  0  0  0  0  0  0
  161.7730  207.6490  151.4220 C   0  0  0  0  0  0  0  0  0  0  0  0
  161.9580  209.0400  151.4340 C   0  0  0  0  0  3  0  0  0  0  0  0
  161.6080  206.9650  150.2040 C   0  0  0  0  0  3  0  0  0  0  0  0
  161.8310  209.8780  147.8940 O   0  0  0  0  0  0  0  0  0  0  0  0
  161.7970  209.0480  149.0110 C   0  0  0  0  0  0  0  0  0  0  0  0
  161.9640  209.7240  150.2210 C   0  0  0  0  0  0  0  0  0  0  0  0
  161.6190  207.6570  148.9830 C   0  0  0  0  0  0  0  0  0  0  0  0
  160.8840  212.3600  148.1000 O   0  0  0  0  0  1  0  0  0  0  0  0
  163.5240  212.1320  147.8680 O   0  0  0  0  0  0  0  0  0  0  0  0
  162.1310  211.0980  150.0900 O   0  0  0  0  0  0  0  0  0  0  0  0
  160.0700  206.5590  147.5220 O   0  0  0  0  0  1  0  0  0  0  0  0
  161.4140  206.8890  147.7050 C   0  0  2  0  0  3  0  0  0  0  0  0
  162.3020  205.6450  147.5760 C   0  0  1  0  0  3  0  0  0  0  0  0
  161.7010  204.4680  148.3230 C   0  0  0  0  0  1  0  0  0  0  0  0
  162.5280  205.2820  146.1830 N   0  0  0  0  0  2  0  0  0  0  0  0
  162.3930  203.8370  146.0780 C   0  0  0  0  0  2  0  0  0  0  0  0
  161.1640  203.4940  145.2550 C   0  0  0  0  0  2  0  0  0  0  0  0
  160.6520  202.1440  145.6300 C   0  0  0  0  0  0  0  0  0  0  0  0
  160.8260  201.6460  147.0230 C   0  0  0  0  0  1  0  0  0  0  0  0
  160.0730  201.4530  144.8060 O   0  0  0  0  0  0  0  0  0  0  0  0
  161.7880  206.8880  152.7030 C   0  0  0  0  0  2  0  0  0  0  0  0
  160.1940  209.8990  156.2300 N   0  0  0  0  0  0  0  0  0  0  0  0
  161.2670  208.5370  154.4740 C   0  0  1  0  0  3  0  0  0  0  0  0
  160.2090  209.1050  157.2520 C   0  0  0  0  0  3  0  0  0  0  0  0
  160.7040  207.4080  153.6300 C   0  0  2  0  0  3  0  0  0  0  0  0
  160.1300  209.4880  154.8430 C   0  0  2  0  0  3  0  0  0  0  0  0
  161.0980  207.1340  155.0670 C   0  0  2  0  0  3  0  0  0  0  0  0
  160.1810  210.7120  153.9510 C   0  0  0  0  0  1  0  0  0  0  0  0
  159.9050  207.0470  155.9030 N   0  0  0  0  0  2  0  0  0  0  0  0
  160.2590  207.5920  157.2070 C   0  0  0  0  0  2  0  0  0  0  0  0
  1 10  2  6  0  0  0
  1 11  1  0  0  0  0
  2  3  1  0  0  0  0
  2 22  1  0  0  0  0
  4  2  2  0  0  0  0
  5  1  1  0  0  0  0
  5  6  1  0  0  0  0
  6  7  1  0  0  0  0
  7  3  2  0  0  0  0
  8  6  2  0  0  0  0
  8  4  1  0  0  0  0
  9  1  1  0  0  0  0
 11  7  1  0  0  0  0
 13 12  1  1  0  0  0
 13  8  1  0  0  0  0
 14 13  1  0  0  0  0
 14 15  1  1  0  0  0
 16 14  1  0  0  0  0
 17 16  1  0  0  0  0
 18 19  1  0  0  0  0
 18 17  1  0  0  0  0
 19 20  1  0  0  0  0
 21 19  2  0  0  0  0
 22 26  1  0  0  0  0
 23 25  2  0  0  0  0
 24 27  1  0  0  0  0
 24 28  1  0  0  0  0
 26 24  1  0  0  0  0
 26 28  1  0  0  0  0
 27 23  1  0  0  0  0
 28 30  1  0  0  0  0
 29 27  1  0  0  0  0
 30 31  1  0  0  0  0
 31 25  1  0  0  0  0
M  END
>  <MODEL>
7

>  <REMARK>
 VINA RESULT:      -7.0      2.773      4.600
  Name = 
  8 active torsions:
  status: ('A' for Active; 'I' for Inactive)
    1  A    between atoms: C_3  and  C_16
    2  A    between atoms: N_5  and  C_8
    3  A    between atoms: N_5  and  C_24
    4  A    between atoms: C_6  and  C_8
    5  A    between atoms: C_6  and  C_25
    6  A    between atoms: C_12  and  C_13
    7  A    between atoms: C_12  and  C_19
    8  A    between atoms: C_16  and  C_24
                            x       y       z     vdW  Elec       q    Type
                         _______ _______ _______ _____ _____    ______ ____

>  <TORSDO>
F 8

$$$$
=
 OpenBabel11042420263D

 31 34  0  0  1  0  0  0  0  0999 V2000
  161.3980  209.1420  156.3690 P   0  0  2  0  0  0  0  0  0  0  0  0
  160.8550  206.4360  152.3550 C   0  0  0  0  0  0  0  0  0  0  0  0
  160.9790  206.3220  153.7480 C   0  0  0  0  0  3  0  0  0  0  0  0
  160.8870  207.7020  151.7410 C   0  0  0  0  0  3  0  0  0  0  0  0
  161.3040  209.7930  154.7950 O   0  0  0  0  0  0  0  0  0  0  0  0
  161.1510  208.7390  153.8980 C   0  0  0  0  0  0  0  0  0  0  0  0
  161.1230  207.4820  154.5050 C   0  0  0  0  0  0  0  0  0  0  0  0
  161.0360  208.8690  152.5060 C   0  0  0  0  0  0  0  0  0  0  0  0
  160.2350  209.5830  157.2270 O   0  0  0  0  0  1  0  0  0  0  0  0
  162.8900  209.4580  157.1020 O   0  0  0  0  0  0  0  0  0  0  0  0
  161.2490  207.5130  155.8890 O   0  0  0  0  0  0  0  0  0  0  0  0
  162.3440  210.6410  151.5630 O   0  0  0  0  0  1  0  0  0  0  0  0
  161.0410  210.2040  151.8110 C   0  0  2  0  0  3  0  0  0  0  0  0
  160.2330  211.2880  152.5360 C   0  0  1  0  0  3  0  0  0  0  0  0
  160.2180  212.5800  151.7410 C   0  0  0  0  0  1  0  0  0  0  0  0
  158.8670  210.8570  152.8050 N   0  0  0  0  0  2  0  0  0  0  0  0
  158.2810  211.8110  153.7340 C   0  0  0  0  0  2  0  0  0  0  0  0
  157.9510  211.1160  155.0440 C   0  0  0  0  0  2  0  0  0  0  0  0
  156.9400  211.9050  155.8060 C   0  0  0  0  0  0  0  0  0  0  0  0
  155.9530  212.7470  155.0750 C   0  0  0  0  0  1  0  0  0  0  0  0
  156.9040  211.8470  157.0250 O   0  0  0  0  0  0  0  0  0  0  0  0
  160.7260  205.2100  151.5190 C   0  0  0  0  0  2  0  0  0  0  0  0
  161.3330  206.5370  146.8370 N   0  0  0  0  0  0  0  0  0  0  0  0
  160.7400  205.9880  149.1700 C   0  0  1  0  0  3  0  0  0  0  0  0
  161.2510  205.3880  146.2470 C   0  0  0  0  0  3  0  0  0  0  0  0
  161.5700  205.3440  150.2650 C   0  0  2  0  0  3  0  0  0  0  0  0
  161.6730  206.7490  148.2290 C   0  0  2  0  0  3  0  0  0  0  0  0
  160.9850  204.4760  149.1700 C   0  0  2  0  0  3  0  0  0  0  0  0
  161.6140  208.2300  148.5440 C   0  0  0  0  0  1  0  0  0  0  0  0
  162.0280  204.1010  148.2190 N   0  0  0  0  0  2  0  0  0  0  0  0
  161.4000  204.0330  146.9060 C   0  0  0  0  0  2  0  0  0  0  0  0
  1 10  2  1  0  0  0
  1  9  1  0  0  0  0
  2  3  1  0  0  0  0
  3  7  2  0  0  0  0
  4  2  2  0  0  0  0
  4  8  1  0  0  0  0
  5  1  1  0  0  0  0
  6  7  1  0  0  0  0
  6  5  1  0  0  0  0
  7 11  1  0  0  0  0
  8  6  2  0  0  0  0
 11  1  1  0  0  0  0
 13 12  1  1  0  0  0
 13  8  1  0  0  0  0
 13 14  1  0  0  0  0
 14 15  1  6  0  0  0
 14 16  1  0  0  0  0
 16 17  1  0  0  0  0
 17 18  1  0  0  0  0
 18 19  1  0  0  0  0
 19 21  2  0  0  0  0
 20 19  1  0  0  0  0
 22  2  1  0  0  0  0
 23 27  1  0  0  0  0
 24 26  1  0  0  0  0
 25 23  2  0  0  0  0
 25 31  1  0  0  0  0
 26 22  1  0  0  0  0
 27 29  1  0  0  0  0
 27 24  1  0  0  0  0
 28 24  1  0  0  0  0
 28 26  1  0  0  0  0
 30 28  1  0  0  0  0
 31 30  1  0  0  0  0
M  END
>  <MODEL>
8

>  <REMARK>
 VINA RESULT:      -7.0      4.359      8.755
  Name = 
  8 active torsions:
  status: ('A' for Active; 'I' for Inactive)
    1  A    between atoms: C_3  and  C_16
    2  A    between atoms: N_5  and  C_8
    3  A    between atoms: N_5  and  C_24
    4  A    between atoms: C_6  and  C_8
    5  A    between atoms: C_6  and  C_25
    6  A    between atoms: C_12  and  C_13
    7  A    between atoms: C_12  and  C_19
    8  A    between atoms: C_16  and  C_24
                            x       y       z     vdW  Elec       q    Type
                         _______ _______ _______ _____ _____    ______ ____

>  <TORSDO>
F 8

$$$$
=
 OpenBabel11042420263D

 31 34  0  0  1  0  0  0  0  0999 V2000
  160.2450  207.3240  155.7560 P   0  0  2  0  0  0  0  0  0  0  0  0
  161.5810  208.5720  151.2410 C   0  0  0  0  0  0  0  0  0  0  0  0
  161.3570  207.4460  152.0490 C   0  0  0  0  0  3  0  0  0  0  0  0
  161.4140  209.8660  151.7660 C   0  0  0  0  0  3  0  0  0  0  0  0
  160.3910  208.9380  155.2260 O   0  0  0  0  0  0  0  0  0  0  0  0
  160.7890  208.9220  153.8920 C   0  0  0  0  0  0  0  0  0  0  0  0
  160.9590  207.6380  153.3690 C   0  0  0  0  0  0  0  0  0  0  0  0
  161.0160  210.0570  153.0990 C   0  0  0  0  0  0  0  0  0  0  0  0
  158.8200  206.9840  156.1280 O   0  0  0  0  0  0  0  0  0  0  0  0
  161.3340  206.9590  156.9970 O   0  0  0  0  0  1  0  0  0  0  0  0
  160.6990  206.6140  154.2730 O   0  0  0  0  0  0  0  0  0  0  0  0
  161.1610  211.5520  154.9650 O   0  0  0  0  0  1  0  0  0  0  0  0
  160.8250  211.4590  153.6120 C   0  0  2  0  0  3  0  0  0  0  0  0
  159.4240  212.0300  153.3600 C   0  0  1  0  0  3  0  0  0  0  0  0
  159.3180  212.6120  151.9620 C   0  0  0  0  0  1  0  0  0  0  0  0
  158.3850  211.0280  153.5580 N   0  0  0  0  0  2  0  0  0  0  0  0
  157.7630  211.2910  154.8460 C   0  0  0  0  0  2  0  0  0  0  0  0
  156.2940  211.6240  154.6490 C   0  0  0  0  0  2  0  0  0  0  0  0
  156.0840  213.0990  154.7320 C   0  0  0  0  0  0  0  0  0  0  0  0
  155.5410  213.7000  155.9810 C   0  0  0  0  0  1  0  0  0  0  0  0
  156.3750  213.8170  153.7880 O   0  0  0  0  0  0  0  0  0  0  0  0
  162.0330  208.3960  149.8330 C   0  0  0  0  0  2  0  0  0  0  0  0
  161.3540  203.8360  148.1620 N   0  0  0  0  0  0  0  0  0  0  0  0
  161.9710  206.0300  149.1100 C   0  0  1  0  0  3  0  0  0  0  0  0
  161.5550  204.0090  146.8950 C   0  0  0  0  0  3  0  0  0  0  0  0
  161.1940  207.3340  149.1460 C   0  0  2  0  0  3  0  0  0  0  0  0
  160.9790  204.8680  149.1060 C   0  0  2  0  0  3  0  0  0  0  0  0
  161.8740  206.9100  147.8600 C   0  0  2  0  0  3  0  0  0  0  0  0
  160.8890  204.2720  150.4960 C   0  0  0  0  0  1  0  0  0  0  0  0
  160.8850  206.3970  146.9180 N   0  0  0  0  0  2  0  0  0  0  0  0
  161.5310  205.3330  146.1600 C   0  0  0  0  0  2  0  0  0  0  0  0
  1  9  2  1  0  0  0
  1 10  1  0  0  0  0
  2  4  2  0  0  0  0
  2  3  1  0  0  0  0
  3  7  2  0  0  0  0
  4  8  1  0  0  0  0
  5  1  1  0  0  0  0
  6  5  1  0  0  0  0
  7  6  1  0  0  0  0
  7 11  1  0  0  0  0
  8 13  1  0  0  0  0
  8  6  2  0  0  0  0
 11  1  1  0  0  0  0
 13 12  1  1  0  0  0
 14 15  1  6  0  0  0
 14 16  1  0  0  0  0
 14 13  1  0  0  0  0
 16 17  1  0  0  0  0
 18 19  1  0  0  0  0
 18 17  1  0  0  0  0
 19 20  1  0  0  0  0
 21 19  2  0  0  0  0
 22  2  1  0  0  0  0
 23 27  1  0  0  0  0
 24 26  1  0  0  0  0
 25 23  2  0  0  0  0
 26 22  1  0  0  0  0
 27 24  1  0  0  0  0
 27 29  1  0  0  0  0
 28 24  1  0  0  0  0
 28 26  1  0  0  0  0
 30 28  1  0  0  0  0
 31 25  1  0  0  0  0
 31 30  1  0  0  0  0
M  END
>  <MODEL>
9

>  <REMARK>
 VINA RESULT:      -7.0      4.123      8.954
  Name = 
  8 active torsions:
  status: ('A' for Active; 'I' for Inactive)
    1  A    between atoms: C_3  and  C_16
    2  A    between atoms: N_5  and  C_8
    3  A    between atoms: N_5  and  C_24
    4  A    between atoms: C_6  and  C_8
    5  A    between atoms: C_6  and  C_25
    6  A    between atoms: C_12  and  C_13
    7  A    between atoms: C_12  and  C_19
    8  A    between atoms: C_16  and  C_24
                            x       y       z     vdW  Elec       q    Type
                         _______ _______ _______ _____ _____    ______ ____

>  <TORSDO>
F 8

$$$$
