=
 OpenBabel11042422453D

 38 42  0  0  1  0  0  0  0  0999 V2000
  161.7860  209.8760  156.1530 N   0  0  0  0  0  0  0  0  0  0  0  0
  162.2400  210.3030  153.2260 C   0  0  0  0  0  2  0  0  0  0  0  0
  163.1540  207.0930  149.2320 C   0  0  0  0  0  2  0  0  0  0  0  0
  161.8130  211.3790  149.0820 O   0  0  0  0  0  0  0  0  0  0  0  0
  161.7990  209.1030  157.2610 C   0  0  0  0  0  3  0  0  0  0  0  0
  161.5630  205.9970  154.2210 C   0  0  0  0  0  2  0  0  0  0  0  0
  162.0800  209.7220  150.7390 C   0  0  0  0  0  0  0  0  0  0  0  0
  160.9590  207.8630  155.6550 N   0  0  0  0  0  0  0  0  0  0  0  0
  162.4700  207.9160  148.1430 C   0  0  0  0  0  3  0  0  0  0  0  0
  162.5610  207.2410  150.6000 C   0  0  0  0  0  0  0  0  0  0  0  0
  161.2780  209.0840  155.1900 C   0  0  0  0  0  0  0  0  0  0  0  0
  160.4270  206.7420  154.8980 C   0  0  0  0  0  2  0  0  0  0  0  0
  161.0420  209.5300  153.7760 C   0  0  1  0  0  3  0  0  0  0  0  0
  161.7150  205.2370  151.8280 C   0  0  1  0  0  0  0  0  0  0  0  0
  161.9910  210.1580  149.3310 C   0  0  0  0  0  0  0  0  0  0  0  0
  162.0330  209.1990  148.1820 C   0  0  0  0  0  3  0  0  0  0  0  0
  160.4790  205.8560  152.0870 O   0  0  0  0  0  0  0  0  0  0  0  0
  162.0450  210.6580  151.8250 N   0  0  0  0  0  2  0  0  0  0  0  0
  162.8570  206.2510  151.6720 C   0  0  0  0  0  2  0  0  0  0  0  0
  162.3010  208.4630  150.9030 C   0  0  0  0  0  0  0  0  0  0  0  0
  161.0190  205.0790  153.1350 C   0  0  2  0  0  3  0  0  0  0  0  0
  161.2920  207.8510  156.9550 C   0  0  0  0  0  3  0  0  0  0  0  0
  159.4640  210.4470  153.6190 S   0  0  0  0  0  0  0  0  0  0  0  0
  159.9920  211.9010  154.5780 C   0  0  0  0  0  1  0  0  0  0  0  0
  160.9890  202.9900  151.4510 F   0  0  0  0  0  0  0  0  0  0  0  0
  161.5640  204.0880  150.8330 C   0  0  1  0  0  3  0  0  0  0  0  0
  159.6150  206.7740  149.6280 O   0  0  0  0  0  0  0  0  0  0  0  0
  160.7740  204.5060  149.6290 C   0  0  0  0  0  0  0  0  0  0  0  0
  160.1780  205.6720  149.6280 C   0  0  0  0  0  0  0  0  0  0  0  0
  160.6490  203.5790  148.4530 C   0  0  2  0  0  3  0  0  0  0  0  0
  162.3280  203.8380  145.0810 N   0  0  0  0  0  1  0  0  0  0  0  0
  161.6420  203.3160  146.2120 C   0  0  0  0  0  0  0  0  0  0  0  0
  161.2540  201.2880  147.5710 C   0  0  0  0  0  0  0  0  0  0  0  0
  159.7150  201.4050  149.7890 Cl  0  0  0  0  0  0  0  0  0  0  0  0
  161.0170  202.1260  148.8060 C   0  0  2  0  0  3  0  0  0  0  0  0
  161.5310  200.1040  147.6840 O   0  0  0  0  0  0  0  0  0  0  0  0
  161.1610  201.8940  146.1970 C   0  0  0  0  0  2  0  0  0  0  0  0
  161.4130  204.0990  147.2650 C   0  0  0  0  0  3  0  0  0  0  0  0
  1  5  1  0  0  0  0
  2 13  1  0  0  0  0
  3 10  1  0  0  0  0
  4 15  2  0  0  0  0
  6 12  1  0  0  0  0
  7 20  2  0  0  0  0
  7 18  1  0  0  0  0
  8 22  1  0  0  0  0
  9 16  2  0  0  0  0
  9  3  1  0  0  0  0
 10 20  2  0  0  0  0
 10 19  1  0  0  0  0
 11  8  1  0  0  0  0
 11  1  2  0  0  0  0
 12  8  1  0  0  0  0
 13 23  1  1  0  0  0
 13 11  1  0  0  0  0
 14 26  1  6  0  0  0
 14 17  1  0  0  0  0
 14 21  1  0  0  0  0
 15  7  1  0  0  0  0
 16 15  1  0  0  0  0
 17 21  1  0  0  0  0
 18  2  1  0  0  0  0
 19 14  1  0  0  0  0
 21  6  1  1  0  0  0
 22  5  2  0  0  0  0
 23 24  1  0  0  0  0
 26 25  1  1  0  0  0
 28 26  1  0  0  0  0
 29 27  2  0  0  0  0
 29 28  2  0  0  0  0
 30 35  1  0  0  0  0
 30 28  1  1  0  0  0
 31 32  1  0  0  0  0
 32 38  2  0  0  0  0
 33 36  2  0  0  0  0
 33 35  1  0  0  0  0
 35 34  1  6  0  0  0
 37 32  1  0  0  0  0
 37 33  1  0  0  0  0
 38 30  1  0  0  0  0
M  END
>  <MODEL>
1

>  <REMARK>
 VINA RESULT:      -7.5      0.000      0.000
  Name = 
  4 active torsions:
  status: ('A' for Active; 'I' for Inactive)
    1  A    between atoms: S_5  and  C_19
    2  A    between atoms: C_9  and  C_26
    3  A    between atoms: C_21  and  C_35
    4  A    between atoms: C_26  and  C_35
                            x       y       z     vdW  Elec       q    Type
                         _______ _______ _______ _____ _____    ______ ____

>  <TORSDO>
F 4

$$$$
=
 OpenBabel11042422453D

 38 42  0  0  1  0  0  0  0  0999 V2000
  159.8950  212.4860  151.7970 N   0  0  0  0  0  0  0  0  0  0  0  0
  159.9390  209.7020  152.8920 C   0  0  0  0  0  2  0  0  0  0  0  0
  160.6800  205.0160  150.7510 C   0  0  0  0  0  2  0  0  0  0  0  0
  160.8970  206.1340  155.0970 O   0  0  0  0  0  0  0  0  0  0  0  0
  159.8570  213.3620  150.7690 C   0  0  0  0  0  3  0  0  0  0  0  0
  161.4710  209.8920  148.6960 C   0  0  0  0  0  2  0  0  0  0  0  0
  160.7320  207.2740  153.0390 C   0  0  0  0  0  0  0  0  0  0  0  0
  161.2860  211.7970  150.1920 N   0  0  0  0  0  0  0  0  0  0  0  0
  161.3360  204.3390  151.9510 C   0  0  0  0  0  3  0  0  0  0  0  0
  160.9310  206.4890  150.6410 C   0  0  0  0  0  0  0  0  0  0  0  0
  160.7680  211.5380  151.4060 C   0  0  0  0  0  0  0  0  0  0  0  0
  162.2240  210.9790  149.4410 C   0  0  0  0  0  2  0  0  0  0  0  0
  161.1600  210.3610  152.2500 C   0  0  1  0  0  3  0  0  0  0  0  0
  161.9950  207.4340  148.5870 C   0  0  1  0  0  0  0  0  0  0  0  0
  160.9870  206.0620  153.8440 C   0  0  0  0  0  0  0  0  0  0  0  0
  161.4180  204.7620  153.2380 C   0  0  0  0  0  3  0  0  0  0  0  0
  162.9570  208.1260  149.3450 O   0  0  0  0  0  0  0  0  0  0  0  0
  160.3140  208.5060  153.6390 N   0  0  0  0  0  2  0  0  0  0  0  0
  160.6880  207.2130  149.3620 C   0  0  0  0  0  2  0  0  0  0  0  0
  160.8090  207.1030  151.7640 C   0  0  0  0  0  0  0  0  0  0  0  0
  162.4340  208.8100  148.2260 C   0  0  2  0  0  3  0  0  0  0  0  0
  160.7150  212.9350  149.7680 C   0  0  0  0  0  3  0  0  0  0  0  0
  162.4530  210.8110  153.4660 S   0  0  0  0  0  0  0  0  0  0  0  0
  161.3090  211.2020  154.8260 C   0  0  0  0  0  1  0  0  0  0  0  0
  163.3770  205.4840  148.6400 F   0  0  0  0  0  0  0  0  0  0  0  0
  162.6270  206.2890  147.7990 C   0  0  1  0  0  3  0  0  0  0  0  0
  159.7160  206.7060  145.8450 O   0  0  0  0  0  0  0  0  0  0  0  0
  161.5900  205.4890  147.0680 C   0  0  0  0  0  0  0  0  0  0  0  0
  160.6270  206.1150  146.4390 C   0  0  0  0  0  0  0  0  0  0  0  0
  161.6480  203.9870  147.0860 C   0  0  2  0  0  3  0  0  0  0  0  0
  160.1720  201.6190  149.6290 N   0  0  0  0  0  1  0  0  0  0  0  0
  160.7330  202.1330  148.4270 C   0  0  0  0  0  0  0  0  0  0  0  0
  160.7940  201.8860  145.9680 C   0  0  0  0  0  0  0  0  0  0  0  0
  162.2320  203.6060  144.4590 Cl  0  0  0  0  0  0  0  0  0  0  0  0
  161.0800  203.3610  145.7990 C   0  0  2  0  0  3  0  0  0  0  0  0
  160.3610  201.2400  145.0280 O   0  0  0  0  0  0  0  0  0  0  0  0
  161.0270  201.2010  147.2880 C   0  0  0  0  0  2  0  0  0  0  0  0
  161.0120  203.4330  148.3320 C   0  0  0  0  0  3  0  0  0  0  0  0
  2 18  1  0  0  0  0
  3  9  1  0  0  0  0
  5  1  1  0  0  0  0
  6 12  1  0  0  0  0
  7 18  1  0  0  0  0
  7 15  1  0  0  0  0
  8 11  1  0  0  0  0
  9 16  2  0  0  0  0
 10  3  1  0  0  0  0
 10 20  2  0  0  0  0
 11  1  2  0  0  0  0
 11 13  1  0  0  0  0
 12  8  1  0  0  0  0
 13  2  1  0  0  0  0
 13 23  1  1  0  0  0
 14 26  1  6  0  0  0
 14 17  1  0  0  0  0
 14 19  1  0  0  0  0
 15  4  2  0  0  0  0
 16 15  1  0  0  0  0
 19 10  1  0  0  0  0
 20  7  2  0  0  0  0
 21 14  1  0  0  0  0
 21  6  1  1  0  0  0
 21 17  1  0  0  0  0
 22  8  1  0  0  0  0
 22  5  2  0  0  0  0
 23 24  1  0  0  0  0
 26 25  1  1  0  0  0
 27 29  2  0  0  0  0
 28 26  1  0  0  0  0
 29 28  2  0  0  0  0
 30 28  1  6  0  0  0
 30 38  1  0  0  0  0
 32 31  1  0  0  0  0
 33 37  1  0  0  0  0
 35 34  1  6  0  0  0
 35 33  1  0  0  0  0
 35 30  1  0  0  0  0
 36 33  2  0  0  0  0
 37 32  1  0  0  0  0
 38 32  2  0  0  0  0
M  END
>  <MODEL>
2

>  <REMARK>
 VINA RESULT:      -6.9      2.459      4.690
  Name = 
  4 active torsions:
  status: ('A' for Active; 'I' for Inactive)
    1  A    between atoms: S_5  and  C_19
    2  A    between atoms: C_9  and  C_26
    3  A    between atoms: C_21  and  C_35
    4  A    between atoms: C_26  and  C_35
                            x       y       z     vdW  Elec       q    Type
                         _______ _______ _______ _____ _____    ______ ____

>  <TORSDO>
F 4

$$$$
=
 OpenBabel11042422453D

 38 42  0  0  1  0  0  0  0  0999 V2000
  160.3250  210.4530  156.5020 N   0  0  0  0  0  0  0  0  0  0  0  0
  160.4590  212.0360  153.9660 C   0  0  0  0  0  2  0  0  0  0  0  0
  162.2360  211.0050  149.1840 C   0  0  0  0  0  2  0  0  0  0  0  0
  159.4820  214.3210  150.4540 O   0  0  0  0  0  0  0  0  0  0  0  0
  160.6610  209.3860  157.2610 C   0  0  0  0  0  3  0  0  0  0  0  0
  161.3720  207.7080  153.3080 C   0  0  0  0  0  2  0  0  0  0  0  0
  160.3900  212.3760  151.4310 C   0  0  0  0  0  0  0  0  0  0  0  0
  160.2270  208.6040  155.2550 N   0  0  0  0  0  0  0  0  0  0  0  0
  161.2560  211.8790  148.4050 C   0  0  0  0  0  3  0  0  0  0  0  0
  161.6970  210.4370  150.4610 C   0  0  0  0  0  0  0  0  0  0  0  0
  160.0780  209.9400  155.2820 C   0  0  0  0  0  0  0  0  0  0  0  0
  160.0820  207.7230  154.1080 C   0  0  0  0  0  2  0  0  0  0  0  0
  159.6330  210.7570  154.1040 C   0  0  1  0  0  3  0  0  0  0  0  0
  161.6610  207.9650  150.8220 C   0  0  1  0  0  0  0  0  0  0  0  0
  160.0860  213.2320  150.2670 C   0  0  0  0  0  0  0  0  0  0  0  0
  160.4030  212.8300  148.8600 C   0  0  0  0  0  3  0  0  0  0  0  0
  160.3020  207.9880  151.1800 O   0  0  0  0  0  0  0  0  0  0  0  0
  160.0840  212.7830  152.7710 N   0  0  0  0  0  2  0  0  0  0  0  0
  162.3700  209.2910  151.1320 C   0  0  0  0  0  2  0  0  0  0  0  0
  161.0420  211.2990  151.1550 C   0  0  0  0  0  0  0  0  0  0  0  0
  161.1290  207.1180  151.9260 C   0  0  2  0  0  3  0  0  0  0  0  0
  160.6060  208.2370  156.4890 C   0  0  0  0  0  3  0  0  0  0  0  0
  157.8290  211.0710  154.1520 S   0  0  0  0  0  0  0  0  0  0  0  0
  157.9020  212.4170  155.3750 C   0  0  0  0  0  1  0  0  0  0  0  0
  163.1330  207.5620  148.9810 F   0  0  0  0  0  0  0  0  0  0  0  0
  161.8710  207.2770  149.4760 C   0  0  1  0  0  3  0  0  0  0  0  0
  162.2450  204.5960  151.7420 O   0  0  0  0  0  0  0  0  0  0  0  0
  161.6510  205.7970  149.5760 C   0  0  0  0  0  0  0  0  0  0  0  0
  161.9560  205.1800  150.6900 C   0  0  0  0  0  0  0  0  0  0  0  0
  161.1140  205.0340  148.3980 C   0  0  2  0  0  3  0  0  0  0  0  0
  161.8970  205.5250  144.7380 N   0  0  0  0  0  1  0  0  0  0  0  0
  161.4610  204.9430  145.9590 C   0  0  0  0  0  0  0  0  0  0  0  0
  161.1750  202.8160  147.1860 C   0  0  0  0  0  0  0  0  0  0  0  0
  160.2800  202.8200  149.7360 Cl  0  0  0  0  0  0  0  0  0  0  0  0
  161.3700  203.5200  148.5090 C   0  0  2  0  0  3  0  0  0  0  0  0
  161.3190  201.6060  147.1150 O   0  0  0  0  0  0  0  0  0  0  0  0
  160.8140  203.5890  145.9460 C   0  0  0  0  0  2  0  0  0  0  0  0
  161.6100  205.6140  147.1010 C   0  0  0  0  0  3  0  0  0  0  0  0
  1  5  1  0  0  0  0
  2 13  1  0  0  0  0
  3 10  1  0  0  0  0
  6 12  1  0  0  0  0
  7 18  1  0  0  0  0
  8 11  1  0  0  0  0
  8 22  1  0  0  0  0
  9 16  2  0  0  0  0
  9  3  1  0  0  0  0
 10 19  1  0  0  0  0
 10 20  2  0  0  0  0
 11  1  2  0  0  0  0
 12  8  1  0  0  0  0
 13 23  1  1  0  0  0
 13 11  1  0  0  0  0
 14 26  1  6  0  0  0
 14 19  1  0  0  0  0
 14 17  1  0  0  0  0
 14 21  1  0  0  0  0
 15  4  2  0  0  0  0
 15  7  1  0  0  0  0
 16 15  1  0  0  0  0
 17 21  1  0  0  0  0
 18  2  1  0  0  0  0
 20  7  2  0  0  0  0
 21  6  1  1  0  0  0
 22  5  2  0  0  0  0
 23 24  1  0  0  0  0
 26 25  1  1  0  0  0
 26 28  1  0  0  0  0
 28 29  2  0  0  0  0
 29 27  2  0  0  0  0
 30 35  1  0  0  0  0
 30 28  1  1  0  0  0
 31 32  1  0  0  0  0
 32 38  2  0  0  0  0
 33 35  1  0  0  0  0
 35 34  1  1  0  0  0
 36 33  2  0  0  0  0
 37 32  1  0  0  0  0
 37 33  1  0  0  0  0
 38 30  1  0  0  0  0
M  END
>  <MODEL>
3

>  <REMARK>
 VINA RESULT:      -6.7      2.064      2.675
  Name = 
  4 active torsions:
  status: ('A' for Active; 'I' for Inactive)
    1  A    between atoms: S_5  and  C_19
    2  A    between atoms: C_9  and  C_26
    3  A    between atoms: C_21  and  C_35
    4  A    between atoms: C_26  and  C_35
                            x       y       z     vdW  Elec       q    Type
                         _______ _______ _______ _____ _____    ______ ____

>  <TORSDO>
F 4

$$$$
=
 OpenBabel11042422453D

 38 42  0  0  1  0  0  0  0  0999 V2000
  159.1490  213.5390  147.7690 N   0  0  0  0  0  0  0  0  0  0  0  0
  159.0740  213.0240  150.7160 C   0  0  0  0  0  2  0  0  0  0  0  0
  160.2150  208.8890  153.6640 C   0  0  0  0  0  2  0  0  0  0  0  0
  159.7460  213.1650  154.9630 O   0  0  0  0  0  0  0  0  0  0  0  0
  159.2530  213.1210  146.4880 C   0  0  0  0  0  3  0  0  0  0  0  0
  161.2240  209.7960  148.4890 C   0  0  0  0  0  2  0  0  0  0  0  0
  159.8770  211.9980  152.9180 C   0  0  0  0  0  0  0  0  0  0  0  0
  160.7800  212.0210  147.6200 N   0  0  0  0  0  0  0  0  0  0  0  0
  160.6920  209.6410  154.9040 C   0  0  0  0  0  3  0  0  0  0  0  0
  160.4540  209.5950  152.3650 C   0  0  0  0  0  0  0  0  0  0  0  0
  160.0880  212.8390  148.4340 C   0  0  0  0  0  0  0  0  0  0  0  0
  161.8360  211.0940  147.9920 C   0  0  0  0  0  2  0  0  0  0  0  0
  160.3660  212.9940  149.9000 C   0  0  1  0  0  3  0  0  0  0  0  0
  161.8020  208.5020  150.5680 C   0  0  1  0  0  0  0  0  0  0  0  0
  160.0270  212.0830  154.3840 C   0  0  0  0  0  0  0  0  0  0  0  0
  160.5680  210.9570  155.2100 C   0  0  0  0  0  3  0  0  0  0  0  0
  162.6240  209.6350  150.4290 O   0  0  0  0  0  0  0  0  0  0  0  0
  159.3510  213.0850  152.1460 N   0  0  0  0  0  2  0  0  0  0  0  0
  160.3960  208.8590  151.0720 C   0  0  0  0  0  2  0  0  0  0  0  0
  160.1510  210.8440  152.4120 C   0  0  0  0  0  0  0  0  0  0  0  0
  162.2660  208.9730  149.2340 C   0  0  2  0  0  3  0  0  0  0  0  0
  160.2610  212.1760  146.3930 C   0  0  0  0  0  3  0  0  0  0  0  0
  161.4510  214.4330  150.2250 S   0  0  0  0  0  0  0  0  0  0  0  0
  162.2400  214.4520  148.5850 C   0  0  0  0  0  1  0  0  0  0  0  0
  163.0720  207.6850  152.4210 F   0  0  0  0  0  0  0  0  0  0  0  0
  162.5660  207.3310  151.1810 C   0  0  1  0  0  3  0  0  0  0  0  0
  161.1700  205.1400  153.5710 O   0  0  0  0  0  0  0  0  0  0  0  0
  161.7070  206.1060  151.2770 C   0  0  0  0  0  0  0  0  0  0  0  0
  161.4310  205.6090  152.4560 C   0  0  0  0  0  0  0  0  0  0  0  0
  161.1970  205.4460  150.0260 C   0  0  2  0  0  3  0  0  0  0  0  0
  162.2660  206.0510  146.4570 N   0  0  0  0  0  1  0  0  0  0  0  0
  161.7040  205.4460  147.6140 C   0  0  0  0  0  0  0  0  0  0  0  0
  161.1770  203.2910  148.7040 C   0  0  0  0  0  0  0  0  0  0  0  0
  160.1100  203.2410  151.1870 Cl  0  0  0  0  0  0  0  0  0  0  0  0
  161.3320  203.9130  150.0730 C   0  0  2  0  0  3  0  0  0  0  0  0
  161.2350  202.0780  148.5780 O   0  0  0  0  0  0  0  0  0  0  0  0
  160.9600  204.1480  147.4870 C   0  0  0  0  0  2  0  0  0  0  0  0
  161.8240  206.0470  148.7980 C   0  0  0  0  0  3  0  0  0  0  0  0
  1 11  2  0  0  0  0
  2 18  1  0  0  0  0
  3  9  1  0  0  0  0
  5  1  1  0  0  0  0
  7 15  1  0  0  0  0
  8 12  1  0  0  0  0
  8 11  1  0  0  0  0
  9 16  2  0  0  0  0
 10 20  2  0  0  0  0
 10  3  1  0  0  0  0
 11 13  1  0  0  0  0
 12  6  1  0  0  0  0
 13 23  1  6  0  0  0
 13  2  1  0  0  0  0
 14 19  1  0  0  0  0
 14 26  1  1  0  0  0
 15  4  2  0  0  0  0
 15 16  1  0  0  0  0
 17 14  1  0  0  0  0
 18  7  1  0  0  0  0
 19 10  1  0  0  0  0
 20  7  2  0  0  0  0
 21  6  1  6  0  0  0
 21 17  1  0  0  0  0
 21 14  1  0  0  0  0
 22  5  2  0  0  0  0
 22  8  1  0  0  0  0
 24 23  1  0  0  0  0
 26 28  1  0  0  0  0
 26 25  1  1  0  0  0
 28 29  2  0  0  0  0
 29 27  2  0  0  0  0
 30 35  1  0  0  0  0
 30 28  1  1  0  0  0
 31 32  1  0  0  0  0
 32 38  2  0  0  0  0
 33 35  1  0  0  0  0
 35 34  1  1  0  0  0
 36 33  2  0  0  0  0
 37 32  1  0  0  0  0
 37 33  1  0  0  0  0
 38 30  1  0  0  0  0
M  END
>  <MODEL>
4

>  <REMARK>
 VINA RESULT:      -6.0      2.920      5.676
  Name = 
  4 active torsions:
  status: ('A' for Active; 'I' for Inactive)
    1  A    between atoms: S_5  and  C_19
    2  A    between atoms: C_9  and  C_26
    3  A    between atoms: C_21  and  C_35
    4  A    between atoms: C_26  and  C_35
                            x       y       z     vdW  Elec       q    Type
                         _______ _______ _______ _____ _____    ______ ____

>  <TORSDO>
F 4

$$$$
=
 OpenBabel11042422453D

 38 42  0  0  1  0  0  0  0  0999 V2000
  160.4500  209.9460  156.5330 N   0  0  0  0  0  0  0  0  0  0  0  0
  160.4970  211.7050  154.1120 C   0  0  0  0  0  2  0  0  0  0  0  0
  162.4070  211.1390  149.3040 C   0  0  0  0  0  2  0  0  0  0  0  0
  159.3960  214.1460  150.7450 O   0  0  0  0  0  0  0  0  0  0  0  0
  160.8550  208.8580  157.2240 C   0  0  0  0  0  3  0  0  0  0  0  0
  161.7400  207.5120  153.1800 C   0  0  0  0  0  2  0  0  0  0  0  0
  160.4350  212.2120  151.6050 C   0  0  0  0  0  0  0  0  0  0  0  0
  160.5070  208.1850  155.1630 N   0  0  0  0  0  0  0  0  0  0  0  0
  161.3750  211.9890  148.5680 C   0  0  0  0  0  3  0  0  0  0  0  0
  161.8960  210.4460  150.5300 C   0  0  0  0  0  0  0  0  0  0  0  0
  160.2570  209.5010  155.2770 C   0  0  0  0  0  0  0  0  0  0  0  0
  160.4430  207.3760  153.9560 C   0  0  0  0  0  2  0  0  0  0  0  0
  159.7680  210.3620  154.1490 C   0  0  1  0  0  3  0  0  0  0  0  0
  162.0420  207.9590  150.7230 C   0  0  1  0  0  0  0  0  0  0  0  0
  160.0830  213.1210  150.4960 C   0  0  0  0  0  0  0  0  0  0  0  0
  160.4470  212.8400  149.0710 C   0  0  0  0  0  3  0  0  0  0  0  0
  160.6800  207.8570  151.0570 O   0  0  0  0  0  0  0  0  0  0  0  0
  160.0820  212.5020  152.9640 N   0  0  0  0  0  2  0  0  0  0  0  0
  162.6450  209.3100  151.1350 C   0  0  0  0  0  2  0  0  0  0  0  0
  161.1700  211.2080  151.2690 C   0  0  0  0  0  0  0  0  0  0  0  0
  161.5600  207.0020  151.7570 C   0  0  2  0  0  3  0  0  0  0  0  0
  160.8970  207.7640  156.3760 C   0  0  0  0  0  3  0  0  0  0  0  0
  157.9450  210.5380  154.1850 S   0  0  0  0  0  0  0  0  0  0  0  0
  157.8880  211.6350  155.6360 C   0  0  0  0  0  1  0  0  0  0  0  0
  163.6320  206.9490  149.2520 F   0  0  0  0  0  0  0  0  0  0  0  0
  162.3200  207.3820  149.3370 C   0  0  1  0  0  3  0  0  0  0  0  0
  159.3530  206.7830  147.5210 O   0  0  0  0  0  0  0  0  0  0  0  0
  161.3630  206.2780  149.0010 C   0  0  0  0  0  0  0  0  0  0  0  0
  160.3290  206.5380  148.2400 C   0  0  0  0  0  0  0  0  0  0  0  0
  161.5790  204.8990  149.5590 C   0  0  2  0  0  3  0  0  0  0  0  0
  160.4540  203.5180  152.8870 N   0  0  0  0  0  1  0  0  0  0  0  0
  160.9140  203.5990  151.5440 C   0  0  0  0  0  0  0  0  0  0  0  0
  160.9120  202.4700  149.3450 C   0  0  0  0  0  0  0  0  0  0  0  0
  162.1050  203.6280  147.2150 Cl  0  0  0  0  0  0  0  0  0  0  0  0
  161.0340  203.7970  148.6320 C   0  0  2  0  0  3  0  0  0  0  0  0
  160.5160  201.4880  148.7370 O   0  0  0  0  0  0  0  0  0  0  0  0
  161.2630  202.3410  150.8020 C   0  0  0  0  0  2  0  0  0  0  0  0
  161.0510  204.7910  150.9640 C   0  0  0  0  0  3  0  0  0  0  0  0
  1  5  1  0  0  0  0
  2 13  1  0  0  0  0
  3 10  1  0  0  0  0
  6 12  1  0  0  0  0
  7 18  1  0  0  0  0
  8 11  1  0  0  0  0
  8 22  1  0  0  0  0
  9 16  2  0  0  0  0
  9  3  1  0  0  0  0
 10 19  1  0  0  0  0
 10 20  2  0  0  0  0
 11  1  2  0  0  0  0
 12  8  1  0  0  0  0
 13 23  1  1  0  0  0
 13 11  1  0  0  0  0
 14 26  1  6  0  0  0
 14 17  1  0  0  0  0
 14 19  1  0  0  0  0
 14 21  1  0  0  0  0
 15  4  2  0  0  0  0
 15  7  1  0  0  0  0
 16 15  1  0  0  0  0
 17 21  1  0  0  0  0
 18  2  1  0  0  0  0
 20  7  2  0  0  0  0
 21  6  1  1  0  0  0
 22  5  2  0  0  0  0
 23 24  1  0  0  0  0
 26 25  1  1  0  0  0
 27 29  2  0  0  0  0
 28 26  1  0  0  0  0
 29 28  2  0  0  0  0
 30 28  1  6  0  0  0
 30 38  1  0  0  0  0
 32 31  1  0  0  0  0
 33 37  1  0  0  0  0
 35 34  1  6  0  0  0
 35 33  1  0  0  0  0
 35 30  1  0  0  0  0
 36 33  2  0  0  0  0
 37 32  1  0  0  0  0
 38 32  2  0  0  0  0
M  END
>  <MODEL>
5

>  <REMARK>
 VINA RESULT:      -5.3      2.374      3.201
  Name = 
  4 active torsions:
  status: ('A' for Active; 'I' for Inactive)
    1  A    between atoms: S_5  and  C_19
    2  A    between atoms: C_9  and  C_26
    3  A    between atoms: C_21  and  C_35
    4  A    between atoms: C_26  and  C_35
                            x       y       z     vdW  Elec       q    Type
                         _______ _______ _______ _____ _____    ______ ____

>  <TORSDO>
F 4

$$$$
=
 OpenBabel11042422453D

 38 42  0  0  1  0  0  0  0  0999 V2000
  160.8780  209.3940  156.6450 N   0  0  0  0  0  0  0  0  0  0  0  0
  160.9000  211.2340  154.2860 C   0  0  0  0  0  2  0  0  0  0  0  0
  162.2840  210.6570  149.3010 C   0  0  0  0  0  2  0  0  0  0  0  0
  159.7780  213.9160  151.1150 O   0  0  0  0  0  0  0  0  0  0  0  0
  161.2190  208.2400  157.2610 C   0  0  0  0  0  3  0  0  0  0  0  0
  161.5710  206.9710  153.1120 C   0  0  0  0  0  2  0  0  0  0  0  0
  160.6660  211.8460  151.8130 C   0  0  0  0  0  0  0  0  0  0  0  0
  160.6090  207.6940  155.2230 N   0  0  0  0  0  0  0  0  0  0  0  0
  161.2910  211.6450  148.6940 C   0  0  0  0  0  3  0  0  0  0  0  0
  161.8130  209.9760  150.5490 C   0  0  0  0  0  0  0  0  0  0  0  0
  160.5210  209.0240  155.4010 C   0  0  0  0  0  0  0  0  0  0  0  0
  160.3430  206.9470  154.0050 C   0  0  0  0  0  2  0  0  0  0  0  0
  160.0310  209.9790  154.3520 C   0  0  1  0  0  3  0  0  0  0  0  0
  161.6930  207.4820  150.6520 C   0  0  1  0  0  0  0  0  0  0  0  0
  160.3180  212.8330  150.7710 C   0  0  0  0  0  0  0  0  0  0  0  0
  160.5160  212.5720  149.3090 C   0  0  0  0  0  3  0  0  0  0  0  0
  160.3650  207.5170  151.1120 O   0  0  0  0  0  0  0  0  0  0  0  0
  160.4750  212.1180  153.2070 N   0  0  0  0  0  2  0  0  0  0  0  0
  162.4810  208.7410  151.0450 C   0  0  0  0  0  2  0  0  0  0  0  0
  161.2480  210.7820  151.3770 C   0  0  0  0  0  0  0  0  0  0  0  0
  161.2040  206.5420  151.6980 C   0  0  2  0  0  3  0  0  0  0  0  0
  161.0580  207.1830  156.3800 C   0  0  0  0  0  3  0  0  0  0  0  0
  158.2500  210.3510  154.5680 S   0  0  0  0  0  0  0  0  0  0  0  0
  158.4710  211.5610  155.9100 C   0  0  0  0  0  1  0  0  0  0  0  0
  163.0080  207.2320  148.6710 F   0  0  0  0  0  0  0  0  0  0  0  0
  161.7750  206.9350  149.2290 C   0  0  1  0  0  3  0  0  0  0  0  0
  160.7320  204.2850  151.3140 O   0  0  0  0  0  0  0  0  0  0  0  0
  161.5050  205.4610  149.1920 C   0  0  0  0  0  0  0  0  0  0  0  0
  161.1080  204.8560  150.2830 C   0  0  0  0  0  0  0  0  0  0  0  0
  161.7200  204.6890  147.9200 C   0  0  2  0  0  3  0  0  0  0  0  0
  160.8550  201.0860  147.1960 N   0  0  0  0  0  1  0  0  0  0  0  0
  161.1910  202.4560  147.0190 C   0  0  0  0  0  0  0  0  0  0  0  0
  160.9430  204.4130  145.5300 C   0  0  0  0  0  0  0  0  0  0  0  0
  161.9780  206.8080  146.2380 Cl  0  0  0  0  0  0  0  0  0  0  0  0
  161.0500  205.3570  146.7060 C   0  0  2  0  0  3  0  0  0  0  0  0
  160.4550  204.8030  144.4810 O   0  0  0  0  0  0  0  0  0  0  0  0
  161.4230  202.9910  145.6360 C   0  0  0  0  0  2  0  0  0  0  0  0
  161.3200  203.2470  148.0840 C   0  0  0  0  0  3  0  0  0  0  0  0
  1  5  1  0  0  0  0
  2 13  1  0  0  0  0
  3 10  1  0  0  0  0
  6 12  1  0  0  0  0
  7 18  1  0  0  0  0
  8 11  1  0  0  0  0
  8 22  1  0  0  0  0
  9  3  1  0  0  0  0
  9 16  2  0  0  0  0
 10 19  1  0  0  0  0
 10 20  2  0  0  0  0
 11  1  2  0  0  0  0
 12  8  1  0  0  0  0
 13 23  1  1  0  0  0
 13 11  1  0  0  0  0
 14 26  1  6  0  0  0
 14 19  1  0  0  0  0
 14 17  1  0  0  0  0
 14 21  1  0  0  0  0
 15  4  2  0  0  0  0
 15  7  1  0  0  0  0
 16 15  1  0  0  0  0
 17 21  1  0  0  0  0
 18  2  1  0  0  0  0
 20  7  2  0  0  0  0
 21  6  1  1  0  0  0
 22  5  2  0  0  0  0
 23 24  1  0  0  0  0
 26 25  1  1  0  0  0
 28 26  1  0  0  0  0
 28 29  2  0  0  0  0
 29 27  2  0  0  0  0
 30 38  1  0  0  0  0
 30 28  1  1  0  0  0
 32 31  1  0  0  0  0
 32 38  2  0  0  0  0
 33 37  1  0  0  0  0
 33 35  1  0  0  0  0
 35 34  1  6  0  0  0
 35 30  1  0  0  0  0
 36 33  2  0  0  0  0
 37 32  1  0  0  0  0
M  END
>  <MODEL>
6

>  <REMARK>
 VINA RESULT:      -5.2      2.366      2.925
  Name = 
  4 active torsions:
  status: ('A' for Active; 'I' for Inactive)
    1  A    between atoms: S_5  and  C_19
    2  A    between atoms: C_9  and  C_26
    3  A    between atoms: C_21  and  C_35
    4  A    between atoms: C_26  and  C_35
                            x       y       z     vdW  Elec       q    Type
                         _______ _______ _______ _____ _____    ______ ____

>  <TORSDO>
F 4

$$$$
