=
 OpenBabel11042420323D

 49 53  0  0  1  0  0  0  0  0999 V2000
  160.7610  209.0940  152.9200 C   0  0  2  0  0  3  0  0  0  0  0  0
  159.6020  209.9970  154.9390 C   0  0  0  0  0  3  0  0  0  0  0  0
  159.4700  210.1100  156.3250 C   0  0  0  0  0  3  0  0  0  0  0  0
  161.5240  208.5720  155.2770 C   0  0  0  0  0  3  0  0  0  0  0  0
  161.3590  208.7110  156.6570 C   0  0  0  0  0  3  0  0  0  0  0  0
  160.3440  209.4700  157.1480 N   0  0  0  0  0  0  0  0  0  0  0  0
  160.6370  209.2250  154.4100 C   0  0  0  0  0  0  0  0  0  0  0  0
  160.7430  206.0320  150.6820 C   0  0  0  0  0  3  0  0  0  0  0  0
  161.2560  206.6420  153.3610 C   0  0  0  0  0  3  0  0  0  0  0  0
  160.6420  207.3520  151.1290 C   0  0  0  0  0  3  0  0  0  0  0  0
  160.9020  207.6650  152.4680 C   0  0  0  0  0  0  0  0  0  0  0  0
  161.3580  205.3220  152.9150 C   0  0  0  0  0  3  0  0  0  0  0  0
  161.1010  205.0150  151.5740 C   0  0  0  0  0  0  0  0  0  0  0  0
  161.1890  203.6040  151.0950 C   0  0  0  0  0  2  0  0  0  0  0  0
  159.6050  201.5040  147.8840 O   0  0  0  0  0  1  0  0  0  0  0  0
  160.9880  203.1620  146.8410 C   0  0  2  0  0  3  0  0  0  0  0  0
  160.9240  201.9480  147.7730 C   0  0  1  0  0  3  0  0  0  0  0  0
  161.4760  202.2220  149.1080 N   0  0  0  0  0  2  0  0  0  0  0  0
  160.9800  202.7670  145.4850 O   0  0  0  0  0  0  0  0  0  0  0  0
  159.6650  204.6510  145.2100 O   0  0  0  0  0  0  0  0  0  0  0  0
  162.2100  204.0310  147.1650 C   0  0  2  0  0  3  0  0  0  0  0  0
  161.2270  205.4370  145.0890 P   0  0  1  0  0  4  0  0  0  0  0  0
  161.9990  204.8760  148.7730 S   0  0  0  0  0  0  0  0  0  0  0  0
  161.0350  203.5330  149.5840 C   0  0  2  0  0  3  0  0  0  0  0  0
  160.5460  203.8190  144.6210 C   0  0  0  0  0  2  0  0  0  0  0  0
  162.5870  204.9900  146.1160 N   0  0  0  0  0  2  0  0  0  0  0  0
  161.5730  206.1320  143.7930 O   0  0  0  0  0  0  0  0  0  0  0  0
  162.5960  209.4550  151.3750 O   0  0  0  0  0  1  0  0  0  0  0  0
  161.7650  210.0800  152.3060 C   0  0  1  0  0  3  0  0  0  0  0  0
  161.0720  211.2090  151.6750 C   0  0  0  0  0  0  0  0  0  0  0  0
  160.5100  212.1430  151.1600 C   0  0  0  0  0  0  0  0  0  0  0  0
  157.8180  214.2450  148.6090 C   0  0  0  0  0  2  0  0  0  0  0  0
  159.8360  213.2830  150.5380 C   0  0  1  0  0  0  0  0  0  0  0  0
  159.3140  214.3490  148.3100 C   0  0  1  0  0  3  0  0  0  0  0  0
  158.3360  213.1940  150.8210 C   0  0  0  0  0  2  0  0  0  0  0  0
  160.3480  214.4520  151.0760 F   0  0  0  0  0  0  0  0  0  0  0  0
  157.5750  214.3150  150.1130 C   0  0  2  0  0  3  0  0  0  0  0  0
  160.0970  213.2510  149.0310 C   0  0  0  0  0  2  0  0  0  0  0  0
  156.0890  214.1910  150.3870 C   0  0  0  0  0  2  0  0  0  0  0  0
  155.8490  214.2660  151.7600 O   0  0  0  0  0  1  0  0  0  0  0  0
  159.5850  214.3250  146.8090 C   0  0  0  0  0  2  0  0  0  0  0  0
  159.8360  212.6350  146.1740 S   0  0  0  0  0  0  0  0  0  0  0  0
  160.3060  213.2520  144.5350 C   0  0  0  0  0  2  0  0  0  0  0  0
  159.6730  212.3810  143.4710 C   0  0  0  0  0  2  0  0  0  0  0  0
  160.7090  211.8400  142.6100 N   0  0  0  0  0  2  0  0  0  0  0  0
  160.6490  212.5770  141.3590 C   0  0  0  0  0  2  0  0  0  0  0  0
  162.6750  211.7320  140.4450 O   0  0  0  0  0  1  0  0  0  0  0  0
  162.0530  212.9020  140.8800 C   0  0  0  0  0  3  0  0  0  0  0  0
  162.7930  213.4600  141.9230 O   0  0  0  0  0  1  0  0  0  0  0  0
  1 29  1  1  0  0  0
  1  7  1  0  0  0  0
  2  3  1  0  0  0  0
  3  6  2  0  0  0  0
  4  5  2  0  0  0  0
  5  6  1  0  0  0  0
  7  2  2  0  0  0  0
  7  4  1  0  0  0  0
  8 10  2  0  0  0  0
  8 13  1  0  0  0  0
 10 11  1  0  0  0  0
 11  1  1  0  0  0  0
 11  9  2  0  0  0  0
 12  9  1  0  0  0  0
 13 12  2  0  0  0  0
 14 13  1  0  0  0  0
 16 19  1  6  0  0  0
 16 21  1  0  0  0  0
 16 17  1  0  0  0  0
 17 15  1  1  0  0  0
 17 18  1  0  0  0  0
 18 24  1  0  0  0  0
 21 26  1  6  0  0  0
 21 23  1  0  0  0  0
 22 27  2  6  0  0  0
 22 20  1  0  0  0  0
 22 26  1  0  0  0  0
 23 24  1  0  0  0  0
 24 14  1  1  0  0  0
 25 20  1  0  0  0  0
 25 19  1  0  0  0  0
 29 28  1  6  0  0  0
 30 29  1  0  0  0  0
 31 30  3  0  0  0  0
 32 37  1  0  0  0  0
 33 35  1  0  0  0  0
 33 36  1  1  0  0  0
 33 31  1  0  0  0  0
 34 41  1  6  0  0  0
 34 32  1  0  0  0  0
 34 38  1  0  0  0  0
 37 39  1  6  0  0  0
 37 35  1  0  0  0  0
 38 33  1  0  0  0  0
 39 40  1  0  0  0  0
 42 41  1  0  0  0  0
 43 42  1  0  0  0  0
 44 43  1  0  0  0  0
 45 44  1  0  0  0  0
 46 45  1  0  0  0  0
 47 48  1  0  0  0  0
 48 46  1  0  0  0  0
 48 49  1  0  0  0  0
M  END
>  <MODEL>
1

>  <REMARK>
 VINA RESULT:      -6.7      0.000      0.000
  Name = 
  15 active torsions:
  status: ('A' for Active; 'I' for Inactive)
    1  A    between atoms: N_2  and  C_6
    2  A    between atoms: N_2  and  C_21
    3  A    between atoms: S_3  and  C_23
    4  A    between atoms: S_3  and  C_34
    5  A    between atoms: C_6  and  C_34
    6  A    between atoms: C_8  and  C_40
    7  A    between atoms: C_11  and  C_23
    8  A    between atoms: C_17  and  C_43
    9  A    between atoms: C_19  and  C_47
   10  A    between atoms: C_20  and  C_45
   11  A    between atoms: C_21  and  C_24
   12  A    between atoms: C_28  and  C_31
   13  A    between atoms: C_28  and  C_38
   14  A    between atoms: C_42  and  C_47
   15  A    between atoms: C_45  and  C_47
                            x       y       z     vdW  Elec       q    Type
                         _______ _______ _______ _____ _____    ______ ____

>  <TORSDO>
F 15

$$$$
=
 OpenBabel11042420323D

 49 53  0  0  1  0  0  0  0  0999 V2000
  160.7510  209.7470  152.3230 C   0  0  2  0  0  3  0  0  0  0  0  0
  159.0990  210.4350  154.0650 C   0  0  0  0  0  3  0  0  0  0  0  0
  158.7370  210.6200  155.4020 C   0  0  0  0  0  3  0  0  0  0  0  0
  161.2730  209.6760  154.8000 C   0  0  0  0  0  3  0  0  0  0  0  0
  160.8740  209.8760  156.1230 C   0  0  0  0  0  3  0  0  0  0  0  0
  159.6250  210.3400  156.3940 N   0  0  0  0  0  0  0  0  0  0  0  0
  160.3770  209.9610  153.7600 C   0  0  0  0  0  0  0  0  0  0  0  0
  161.2250  205.9990  152.6630 C   0  0  0  0  0  3  0  0  0  0  0  0
  160.7610  207.8570  150.6270 C   0  0  0  0  0  3  0  0  0  0  0  0
  161.0970  207.3560  152.9720 C   0  0  0  0  0  3  0  0  0  0  0  0
  160.8600  208.2900  151.9580 C   0  0  0  0  0  0  0  0  0  0  0  0
  160.8870  206.5000  150.3180 C   0  0  0  0  0  3  0  0  0  0  0  0
  161.1190  205.5690  151.3360 C   0  0  0  0  0  0  0  0  0  0  0  0
  161.2750  204.1210  151.0100 C   0  0  0  0  0  2  0  0  0  0  0  0
  159.6450  201.6760  148.0780 O   0  0  0  0  0  1  0  0  0  0  0  0
  161.0240  203.1950  146.8370 C   0  0  2  0  0  3  0  0  0  0  0  0
  160.9640  202.0960  147.9020 C   0  0  1  0  0  3  0  0  0  0  0  0
  161.5320  202.5180  149.1910 N   0  0  0  0  0  2  0  0  0  0  0  0
  160.9980  202.6480  145.5360 O   0  0  0  0  0  0  0  0  0  0  0  0
  159.6890  204.4960  145.0600 O   0  0  0  0  0  0  0  0  0  0  0  0
  162.2530  204.0890  147.0460 C   0  0  2  0  0  3  0  0  0  0  0  0
  161.2530  205.2540  144.8340 P   0  0  1  0  0  4  0  0  0  0  0  0
  162.0640  205.1140  148.5490 S   0  0  0  0  0  0  0  0  0  0  0  0
  161.1030  203.8780  149.5190 C   0  0  2  0  0  3  0  0  0  0  0  0
  160.5590  203.5970  144.5610 C   0  0  0  0  0  2  0  0  0  0  0  0
  162.6230  204.9190  145.8900 N   0  0  0  0  0  2  0  0  0  0  0  0
  161.5880  205.7930  143.4630 O   0  0  0  0  0  0  0  0  0  0  0  0
  163.0210  209.8640  151.4750 O   0  0  0  0  0  1  0  0  0  0  0  0
  161.9200  210.6290  151.8630 C   0  0  1  0  0  3  0  0  0  0  0  0
  161.5120  211.5080  150.7610 C   0  0  0  0  0  0  0  0  0  0  0  0
  161.1850  212.2360  149.8580 C   0  0  0  0  0  0  0  0  0  0  0  0
  159.6280  213.4070  146.0660 C   0  0  0  0  0  2  0  0  0  0  0  0
  160.7970  213.1250  148.7630 C   0  0  1  0  0  0  0  0  0  0  0  0
  161.1310  213.5590  146.2990 C   0  0  1  0  0  3  0  0  0  0  0  0
  159.2950  212.9830  148.5100 C   0  0  0  0  0  2  0  0  0  0  0  0
  161.0920  214.4300  149.1220 F   0  0  0  0  0  0  0  0  0  0  0  0
  158.8560  213.8270  147.3130 C   0  0  2  0  0  3  0  0  0  0  0  0
  161.5860  212.7440  147.5100 C   0  0  0  0  0  2  0  0  0  0  0  0
  157.3700  213.6500  147.0670 C   0  0  0  0  0  2  0  0  0  0  0  0
  157.0990  212.3280  146.7110 O   0  0  0  0  0  1  0  0  0  0  0  0
  161.9280  213.1880  145.0530 C   0  0  0  0  0  2  0  0  0  0  0  0
  160.9110  213.2200  143.5400 S   0  0  0  0  0  0  0  0  0  0  0  0
  162.1570  212.2910  142.6060 C   0  0  0  0  0  2  0  0  0  0  0  0
  161.5010  211.6390  141.4060 C   0  0  0  0  0  2  0  0  0  0  0  0
  162.5200  211.0320  140.5700 N   0  0  0  0  0  2  0  0  0  0  0  0
  161.8960  210.7300  139.2930 C   0  0  0  0  0  2  0  0  0  0  0  0
  162.1320  208.4870  140.0480 O   0  0  0  0  0  1  0  0  0  0  0  0
  161.2930  209.3360  139.3260 C   0  0  0  0  0  3  0  0  0  0  0  0
  161.1510  208.8490  138.0260 O   0  0  0  0  0  1  0  0  0  0  0  0
  1 29  1  1  0  0  0
  1  7  1  0  0  0  0
  2  3  1  0  0  0  0
  3  6  2  0  0  0  0
  4  5  2  0  0  0  0
  5  6  1  0  0  0  0
  7  2  2  0  0  0  0
  7  4  1  0  0  0  0
  8 10  1  0  0  0  0
  9 11  1  0  0  0  0
 11  1  1  0  0  0  0
 11 10  2  0  0  0  0
 12  9  2  0  0  0  0
 12 13  1  0  0  0  0
 13  8  2  0  0  0  0
 14 13  1  0  0  0  0
 16 19  1  6  0  0  0
 16 21  1  0  0  0  0
 16 17  1  0  0  0  0
 17 15  1  1  0  0  0
 17 18  1  0  0  0  0
 18 24  1  0  0  0  0
 21 26  1  6  0  0  0
 21 23  1  0  0  0  0
 22 27  2  6  0  0  0
 22 20  1  0  0  0  0
 22 26  1  0  0  0  0
 23 24  1  0  0  0  0
 24 14  1  1  0  0  0
 25 20  1  0  0  0  0
 25 19  1  0  0  0  0
 29 28  1  6  0  0  0
 30 29  1  0  0  0  0
 31 30  3  0  0  0  0
 32 34  1  0  0  0  0
 32 37  1  0  0  0  0
 33 36  1  1  0  0  0
 33 31  1  0  0  0  0
 34 41  1  6  0  0  0
 34 38  1  0  0  0  0
 35 33  1  0  0  0  0
 37 39  1  6  0  0  0
 37 35  1  0  0  0  0
 38 33  1  0  0  0  0
 40 39  1  0  0  0  0
 42 41  1  0  0  0  0
 43 42  1  0  0  0  0
 44 43  1  0  0  0  0
 45 44  1  0  0  0  0
 46 48  1  0  0  0  0
 46 45  1  0  0  0  0
 48 47  1  0  0  0  0
 49 48  1  0  0  0  0
M  END
>  <MODEL>
2

>  <REMARK>
 VINA RESULT:      -6.7      1.797      2.262
  Name = 
  15 active torsions:
  status: ('A' for Active; 'I' for Inactive)
    1  A    between atoms: N_2  and  C_6
    2  A    between atoms: N_2  and  C_21
    3  A    between atoms: S_3  and  C_23
    4  A    between atoms: S_3  and  C_34
    5  A    between atoms: C_6  and  C_34
    6  A    between atoms: C_8  and  C_40
    7  A    between atoms: C_11  and  C_23
    8  A    between atoms: C_17  and  C_43
    9  A    between atoms: C_19  and  C_47
   10  A    between atoms: C_20  and  C_45
   11  A    between atoms: C_21  and  C_24
   12  A    between atoms: C_28  and  C_31
   13  A    between atoms: C_28  and  C_38
   14  A    between atoms: C_42  and  C_47
   15  A    between atoms: C_45  and  C_47
                            x       y       z     vdW  Elec       q    Type
                         _______ _______ _______ _____ _____    ______ ____

>  <TORSDO>
F 15

$$$$
=
 OpenBabel11042420323D

 49 53  0  0  1  0  0  0  0  0999 V2000
  160.7300  209.5530  155.0400 C   0  0  2  0  0  3  0  0  0  0  0  0
  159.3200  210.5650  156.8360 C   0  0  0  0  0  3  0  0  0  0  0  0
  158.1490  211.1990  157.2600 C   0  0  0  0  0  3  0  0  0  0  0  0
  158.4320  210.5140  154.5890 C   0  0  0  0  0  3  0  0  0  0  0  0
  157.2770  211.1480  155.0530 C   0  0  0  0  0  3  0  0  0  0  0  0
  157.1610  211.4740  156.3670 N   0  0  0  0  0  0  0  0  0  0  0  0
  159.4620  210.2170  155.4910 C   0  0  0  0  0  0  0  0  0  0  0  0
  162.9440  210.5770  152.1360 C   0  0  0  0  0  3  0  0  0  0  0  0
  160.2180  210.2280  152.6450 C   0  0  0  0  0  3  0  0  0  0  0  0
  162.5180  210.1600  153.4000 C   0  0  0  0  0  3  0  0  0  0  0  0
  161.1550  209.9800  153.6600 C   0  0  0  0  0  0  0  0  0  0  0  0
  160.6430  210.6420  151.3810 C   0  0  0  0  0  3  0  0  0  0  0  0
  162.0070  210.8180  151.1240 C   0  0  0  0  0  0  0  0  0  0  0  0
  162.4670  211.2800  149.7820 C   0  0  0  0  0  2  0  0  0  0  0  0
  161.0070  212.4550  146.0770 O   0  0  0  0  0  1  0  0  0  0  0  0
  159.4910  213.4790  147.6270 C   0  0  2  0  0  3  0  0  0  0  0  0
  160.9330  213.3810  147.1190 C   0  0  1  0  0  3  0  0  0  0  0  0
  161.8880  213.0230  148.1780 N   0  0  0  0  0  2  0  0  0  0  0  0
  158.7130  214.3140  146.7960 O   0  0  0  0  0  0  0  0  0  0  0  0
  157.0510  212.7610  147.2250 O   0  0  0  0  0  0  0  0  0  0  0  0
  159.4600  213.9530  149.0860 C   0  0  2  0  0  3  0  0  0  0  0  0
  156.8100  213.7590  148.6460 P   0  0  1  0  0  4  0  0  0  0  0  0
  160.1020  212.6560  150.2040 S   0  0  0  0  0  0  0  0  0  0  0  0
  161.3390  211.9660  149.0280 C   0  0  2  0  0  3  0  0  0  0  0  0
  157.3140  214.0480  146.9240 C   0  0  0  0  0  2  0  0  0  0  0  0
  158.1560  214.4470  149.5520 N   0  0  0  0  0  2  0  0  0  0  0  0
  155.4780  214.4510  148.8090 O   0  0  0  0  0  0  0  0  0  0  0  0
  159.5220  207.5890  155.7950 O   0  0  0  0  0  1  0  0  0  0  0  0
  160.7450  208.0400  155.2950 C   0  0  1  0  0  3  0  0  0  0  0  0
  161.0820  207.3050  154.0700 C   0  0  0  0  0  0  0  0  0  0  0  0
  161.3490  206.7000  153.0620 C   0  0  0  0  0  0  0  0  0  0  0  0
  160.7190  204.8930  149.2530 C   0  0  0  0  0  2  0  0  0  0  0  0
  161.6630  205.9630  151.8380 C   0  0  1  0  0  0  0  0  0  0  0  0
  160.9740  203.9730  150.4460 C   0  0  1  0  0  3  0  0  0  0  0  0
  161.4080  206.8660  150.6300 C   0  0  0  0  0  2  0  0  0  0  0  0
  162.9960  205.5880  151.8720 F   0  0  0  0  0  0  0  0  0  0  0  0
  161.6350  206.1110  149.3200 C   0  0  2  0  0  3  0  0  0  0  0  0
  160.7780  204.7180  151.7680 C   0  0  0  0  0  2  0  0  0  0  0  0
  161.3520  207.0180  148.1390 C   0  0  0  0  0  2  0  0  0  0  0  0
  161.4330  208.3540  148.5330 O   0  0  0  0  0  1  0  0  0  0  0  0
  160.1010  202.7230  150.3830 C   0  0  0  0  0  2  0  0  0  0  0  0
  160.9680  201.3070  149.6310 S   0  0  0  0  0  0  0  0  0  0  0  0
  161.2770  202.2270  148.1000 C   0  0  0  0  0  2  0  0  0  0  0  0
  160.4050  201.6690  146.9950 C   0  0  0  0  0  2  0  0  0  0  0  0
  160.8320  202.2140  145.7200 N   0  0  0  0  0  2  0  0  0  0  0  0
  161.6730  203.3640  146.0100 C   0  0  0  0  0  2  0  0  0  0  0  0
  160.3510  204.2140  144.2250 O   0  0  0  0  0  1  0  0  0  0  0  0
  161.1190  204.6000  145.3240 C   0  0  0  0  0  3  0  0  0  0  0  0
  162.1670  205.4140  144.8920 O   0  0  0  0  0  1  0  0  0  0  0  0
  1 29  1  6  0  0  0
  1  7  1  0  0  0  0
  2  3  1  0  0  0  0
  4  5  2  0  0  0  0
  4  7  1  0  0  0  0
  5  6  1  0  0  0  0
  6  3  2  0  0  0  0
  7  2  2  0  0  0  0
  8 10  1  0  0  0  0
  9 11  1  0  0  0  0
 10 11  2  0  0  0  0
 11  1  1  0  0  0  0
 12  9  2  0  0  0  0
 13 12  1  0  0  0  0
 13  8  2  0  0  0  0
 14 13  1  0  0  0  0
 16 19  1  6  0  0  0
 16 21  1  0  0  0  0
 17 15  1  6  0  0  0
 17 16  1  0  0  0  0
 17 18  1  0  0  0  0
 18 24  1  0  0  0  0
 19 25  1  0  0  0  0
 20 22  1  0  0  0  0
 21 26  1  1  0  0  0
 21 23  1  0  0  0  0
 22 27  2  6  0  0  0
 22 26  1  0  0  0  0
 24 14  1  1  0  0  0
 24 23  1  0  0  0  0
 25 20  1  0  0  0  0
 29 28  1  6  0  0  0
 30 29  1  0  0  0  0
 31 30  3  0  0  0  0
 32 37  1  0  0  0  0
 32 34  1  0  0  0  0
 33 36  1  1  0  0  0
 33 31  1  0  0  0  0
 34 41  1  1  0  0  0
 34 38  1  0  0  0  0
 35 33  1  0  0  0  0
 37 39  1  6  0  0  0
 37 35  1  0  0  0  0
 38 33  1  0  0  0  0
 39 40  1  0  0  0  0
 42 41  1  0  0  0  0
 43 42  1  0  0  0  0
 44 43  1  0  0  0  0
 45 46  1  0  0  0  0
 45 44  1  0  0  0  0
 47 48  1  0  0  0  0
 48 46  1  0  0  0  0
 49 48  1  0  0  0  0
M  END
>  <MODEL>
3

>  <REMARK>
 VINA RESULT:      -6.1      3.341      8.476
  Name = 
  15 active torsions:
  status: ('A' for Active; 'I' for Inactive)
    1  A    between atoms: N_2  and  C_6
    2  A    between atoms: N_2  and  C_21
    3  A    between atoms: S_3  and  C_23
    4  A    between atoms: S_3  and  C_34
    5  A    between atoms: C_6  and  C_34
    6  A    between atoms: C_8  and  C_40
    7  A    between atoms: C_11  and  C_23
    8  A    between atoms: C_17  and  C_43
    9  A    between atoms: C_19  and  C_47
   10  A    between atoms: C_20  and  C_45
   11  A    between atoms: C_21  and  C_24
   12  A    between atoms: C_28  and  C_31
   13  A    between atoms: C_28  and  C_38
   14  A    between atoms: C_42  and  C_47
   15  A    between atoms: C_45  and  C_47
                            x       y       z     vdW  Elec       q    Type
                         _______ _______ _______ _____ _____    ______ ____

>  <TORSDO>
F 15

$$$$
=
 OpenBabel11042420323D

 49 53  0  0  1  0  0  0  0  0999 V2000
  161.5820  209.7240  153.3690 C   0  0  2  0  0  3  0  0  0  0  0  0
  163.2140  210.4040  155.1340 C   0  0  0  0  0  3  0  0  0  0  0  0
  163.5010  210.8990  156.4080 C   0  0  0  0  0  3  0  0  0  0  0  0
  160.8570  210.5750  155.6410 C   0  0  0  0  0  3  0  0  0  0  0  0
  161.1860  211.0650  156.9070 C   0  0  0  0  0  3  0  0  0  0  0  0
  162.4900  211.2160  157.2610 N   0  0  0  0  0  0  0  0  0  0  0  0
  161.8820  210.2380  154.7470 C   0  0  0  0  0  0  0  0  0  0  0  0
  159.6940  212.7340  152.0410 C   0  0  0  0  0  3  0  0  0  0  0  0
  161.5620  210.8770  151.1060 C   0  0  0  0  0  3  0  0  0  0  0  0
  160.1700  211.7330  152.8930 C   0  0  0  0  0  3  0  0  0  0  0  0
  161.1090  210.8030  152.4320 C   0  0  0  0  0  0  0  0  0  0  0  0
  161.0880  211.8780  150.2550 C   0  0  0  0  0  3  0  0  0  0  0  0
  160.1530  212.8080  150.7210 C   0  0  0  0  0  0  0  0  0  0  0  0
  159.6280  213.8680  149.8110 C   0  0  0  0  0  2  0  0  0  0  0  0
  162.7790  212.7540  147.3500 O   0  0  0  0  0  1  0  0  0  0  0  0
  161.1070  213.5150  145.8090 C   0  0  2  0  0  3  0  0  0  0  0  0
  162.0360  213.8730  146.9730 C   0  0  1  0  0  3  0  0  0  0  0  0
  161.3130  214.4110  148.1350 N   0  0  0  0  0  2  0  0  0  0  0  0
  161.8010  213.5290  144.5790 O   0  0  0  0  0  0  0  0  0  0  0  0
  160.4640  211.7040  144.0950 O   0  0  0  0  0  0  0  0  0  0  0  0
  159.8890  214.4460  145.7780 C   0  0  2  0  0  3  0  0  0  0  0  0
  159.3370  212.9540  143.6050 P   0  0  1  0  0  4  0  0  0  0  0  0
  158.7750  214.1080  147.1880 S   0  0  0  0  0  0  0  0  0  0  0  0
  160.0960  213.6390  148.3830 C   0  0  2  0  0  3  0  0  0  0  0  0
  161.1420  212.7470  143.5800 C   0  0  0  0  0  2  0  0  0  0  0  0
  159.1420  214.4530  144.5110 N   0  0  0  0  0  2  0  0  0  0  0  0
  158.9040  212.9920  142.1590 O   0  0  0  0  0  0  0  0  0  0  0  0
  159.3740  208.7200  153.4050 O   0  0  0  0  0  1  0  0  0  0  0  0
  160.7410  208.4400  153.3720 C   0  0  1  0  0  3  0  0  0  0  0  0
  161.0490  207.6080  152.2030 C   0  0  0  0  0  0  0  0  0  0  0  0
  161.2940  206.9200  151.2440 C   0  0  0  0  0  0  0  0  0  0  0  0
  160.5370  204.5820  147.7610 C   0  0  0  0  0  2  0  0  0  0  0  0
  161.5810  206.0810  150.0810 C   0  0  1  0  0  0  0  0  0  0  0  0
  161.0390  203.8590  149.0110 C   0  0  1  0  0  3  0  0  0  0  0  0
  161.0810  206.7840  148.8190 C   0  0  0  0  0  2  0  0  0  0  0  0
  162.9500  205.8850  149.9990 F   0  0  0  0  0  0  0  0  0  0  0  0
  161.2760  205.9040  147.5840 C   0  0  2  0  0  3  0  0  0  0  0  0
  160.8770  204.7350  150.2550 C   0  0  0  0  0  2  0  0  0  0  0  0
  160.7500  206.6120  146.3500 C   0  0  0  0  0  2  0  0  0  0  0  0
  161.2650  206.0130  145.2000 O   0  0  0  0  0  1  0  0  0  0  0  0
  160.3480  202.5110  149.1910 C   0  0  0  0  0  2  0  0  0  0  0  0
  161.2160  201.4380  150.3820 S   0  0  0  0  0  0  0  0  0  0  0  0
  161.0410  199.9910  149.3030 C   0  0  0  0  0  2  0  0  0  0  0  0
  161.7540  200.2530  147.9940 C   0  0  0  0  0  2  0  0  0  0  0  0
  160.7890  200.2540  146.9090 N   0  0  0  0  0  2  0  0  0  0  0  0
  161.0040  201.4740  146.1500 C   0  0  0  0  0  2  0  0  0  0  0  0
  160.0230  200.7490  144.1080 O   0  0  0  0  0  1  0  0  0  0  0  0
  159.8790  201.6670  145.1480 C   0  0  0  0  0  3  0  0  0  0  0  0
  159.9220  202.9620  144.6310 O   0  0  0  0  0  1  0  0  0  0  0  0
  1 29  1  1  0  0  0
  1  7  1  0  0  0  0
  2  3  1  0  0  0  0
  3  6  2  0  0  0  0
  4  5  2  0  0  0  0
  5  6  1  0  0  0  0
  7  2  2  0  0  0  0
  7  4  1  0  0  0  0
  8 10  1  0  0  0  0
  9 11  1  0  0  0  0
 11 10  2  0  0  0  0
 11  1  1  0  0  0  0
 12 13  1  0  0  0  0
 12  9  2  0  0  0  0
 13  8  2  0  0  0  0
 14 13  1  0  0  0  0
 16 19  1  6  0  0  0
 16 17  1  0  0  0  0
 17 15  1  1  0  0  0
 17 18  1  0  0  0  0
 18 24  1  0  0  0  0
 21 26  1  6  0  0  0
 21 16  1  0  0  0  0
 21 23  1  0  0  0  0
 22 27  2  6  0  0  0
 22 20  1  0  0  0  0
 22 26  1  0  0  0  0
 23 24  1  0  0  0  0
 24 14  1  1  0  0  0
 25 20  1  0  0  0  0
 25 19  1  0  0  0  0
 29 28  1  6  0  0  0
 30 29  1  0  0  0  0
 31 30  3  0  0  0  0
 32 34  1  0  0  0  0
 33 36  1  6  0  0  0
 33 38  1  0  0  0  0
 33 31  1  0  0  0  0
 34 41  1  1  0  0  0
 34 38  1  0  0  0  0
 35 33  1  0  0  0  0
 37 39  1  6  0  0  0
 37 32  1  0  0  0  0
 37 35  1  0  0  0  0
 40 39  1  0  0  0  0
 41 42  1  0  0  0  0
 43 42  1  0  0  0  0
 44 43  1  0  0  0  0
 45 44  1  0  0  0  0
 46 45  1  0  0  0  0
 47 48  1  0  0  0  0
 48 46  1  0  0  0  0
 49 48  1  0  0  0  0
M  END
>  <MODEL>
4

>  <REMARK>
 VINA RESULT:      -4.8      2.923      8.980
  Name = 
  15 active torsions:
  status: ('A' for Active; 'I' for Inactive)
    1  A    between atoms: N_2  and  C_6
    2  A    between atoms: N_2  and  C_21
    3  A    between atoms: S_3  and  C_23
    4  A    between atoms: S_3  and  C_34
    5  A    between atoms: C_6  and  C_34
    6  A    between atoms: C_8  and  C_40
    7  A    between atoms: C_11  and  C_23
    8  A    between atoms: C_17  and  C_43
    9  A    between atoms: C_19  and  C_47
   10  A    between atoms: C_20  and  C_45
   11  A    between atoms: C_21  and  C_24
   12  A    between atoms: C_28  and  C_31
   13  A    between atoms: C_28  and  C_38
   14  A    between atoms: C_42  and  C_47
   15  A    between atoms: C_45  and  C_47
                            x       y       z     vdW  Elec       q    Type
                         _______ _______ _______ _____ _____    ______ ____

>  <TORSDO>
F 15

$$$$
=
 OpenBabel11042420323D

 49 53  0  0  1  0  0  0  0  0999 V2000
  161.8860  209.5470  153.7120 C   0  0  2  0  0  3  0  0  0  0  0  0
  163.8470  210.7600  154.6720 C   0  0  0  0  0  3  0  0  0  0  0  0
  164.5080  211.3560  155.7490 C   0  0  0  0  0  3  0  0  0  0  0  0
  162.0280  210.1890  156.1570 C   0  0  0  0  0  3  0  0  0  0  0  0
  162.7210  210.7930  157.2070 C   0  0  0  0  0  3  0  0  0  0  0  0
  163.9370  211.3590  156.9830 N   0  0  0  0  0  0  0  0  0  0  0  0
  162.5980  210.1690  154.8770 C   0  0  0  0  0  0  0  0  0  0  0  0
  159.5690  212.3300  152.5850 C   0  0  0  0  0  3  0  0  0  0  0  0
  161.5210  210.6730  151.4640 C   0  0  0  0  0  3  0  0  0  0  0  0
  160.2300  211.3930  153.3830 C   0  0  0  0  0  3  0  0  0  0  0  0
  161.2110  210.5630  152.8290 C   0  0  0  0  0  0  0  0  0  0  0  0
  160.8620  211.6120  150.6670 C   0  0  0  0  0  3  0  0  0  0  0  0
  159.8840  212.4420  151.2260 C   0  0  0  0  0  0  0  0  0  0  0  0
  159.1630  213.4330  150.3750 C   0  0  0  0  0  2  0  0  0  0  0  0
  162.5570  213.1810  147.9980 O   0  0  0  0  0  1  0  0  0  0  0  0
  160.8280  213.7670  146.4440 C   0  0  2  0  0  3  0  0  0  0  0  0
  161.6270  214.1740  147.6860 C   0  0  1  0  0  3  0  0  0  0  0  0
  160.7730  214.4470  148.8510 N   0  0  0  0  0  2  0  0  0  0  0  0
  161.5500  214.0350  145.2610 O   0  0  0  0  0  0  0  0  0  0  0  0
  160.6050  212.0500  144.5380 O   0  0  0  0  0  0  0  0  0  0  0  0
  159.4560  214.4530  146.4320 C   0  0  2  0  0  3  0  0  0  0  0  0
  159.2790  213.1110  144.1050 P   0  0  1  0  0  4  0  0  0  0  0  0
  158.3760  213.7720  147.7420 S   0  0  0  0  0  0  0  0  0  0  0  0
  159.7180  213.4400  148.9590 C   0  0  2  0  0  3  0  0  0  0  0  0
  161.0890  213.2480  144.1600 C   0  0  0  0  0  2  0  0  0  0  0  0
  158.7680  214.4480  145.1330 N   0  0  0  0  0  2  0  0  0  0  0  0
  158.8990  213.2120  142.6460 O   0  0  0  0  0  0  0  0  0  0  0  0
  159.7830  208.7340  154.6060 O   0  0  0  0  0  1  0  0  0  0  0  0
  161.0230  208.3390  154.1030 C   0  0  1  0  0  3  0  0  0  0  0  0
  160.8320  207.4390  152.9610 C   0  0  0  0  0  0  0  0  0  0  0  0
  160.6800  206.7060  152.0160 C   0  0  0  0  0  0  0  0  0  0  0  0
  161.7130  203.9330  148.9470 C   0  0  0  0  0  2  0  0  0  0  0  0
  160.4990  205.8240  150.8630 C   0  0  1  0  0  0  0  0  0  0  0  0
  161.3380  205.3540  148.5290 C   0  0  1  0  0  3  0  0  0  0  0  0
  160.8760  204.3960  151.2600 C   0  0  0  0  0  2  0  0  0  0  0  0
  159.1710  205.8680  150.4710 F   0  0  0  0  0  0  0  0  0  0  0  0
  160.7910  203.4500  150.0610 C   0  0  2  0  0  3  0  0  0  0  0  0
  161.3910  206.3120  149.7210 C   0  0  0  0  0  2  0  0  0  0  0  0
  161.1930  202.0480  150.4740 C   0  0  0  0  0  2  0  0  0  0  0  0
  162.0340  202.0990  151.5860 O   0  0  0  0  0  1  0  0  0  0  0  0
  162.2170  205.8490  147.3840 C   0  0  0  0  0  2  0  0  0  0  0  0
  161.2580  206.7020  146.0890 S   0  0  0  0  0  0  0  0  0  0  0  0
  161.4860  205.3290  144.9270 C   0  0  0  0  0  2  0  0  0  0  0  0
  162.4670  204.3350  145.5120 C   0  0  0  0  0  2  0  0  0  0  0  0
  161.9980  202.9860  145.2580 N   0  0  0  0  0  2  0  0  0  0  0  0
  160.5990  202.9410  145.6520 C   0  0  0  0  0  2  0  0  0  0  0  0
  161.2090  200.7700  146.4070 O   0  0  0  0  0  1  0  0  0  0  0  0
  160.1600  201.5010  145.8480 C   0  0  0  0  0  3  0  0  0  0  0  0
  159.8100  200.9400  144.6200 O   0  0  0  0  0  1  0  0  0  0  0  0
  1 29  1  1  0  0  0
  1  7  1  0  0  0  0
  2  7  2  0  0  0  0
  2  3  1  0  0  0  0
  3  6  2  0  0  0  0
  4  5  2  0  0  0  0
  6  5  1  0  0  0  0
  7  4  1  0  0  0  0
  8 10  1  0  0  0  0
  9 11  1  0  0  0  0
 11 10  2  0  0  0  0
 11  1  1  0  0  0  0
 12 13  1  0  0  0  0
 12  9  2  0  0  0  0
 13  8  2  0  0  0  0
 14 13  1  0  0  0  0
 16 19  1  6  0  0  0
 16 17  1  0  0  0  0
 17 15  1  1  0  0  0
 17 18  1  0  0  0  0
 18 24  1  0  0  0  0
 21 26  1  6  0  0  0
 21 16  1  0  0  0  0
 21 23  1  0  0  0  0
 22 27  2  6  0  0  0
 22 20  1  0  0  0  0
 22 26  1  0  0  0  0
 23 24  1  0  0  0  0
 24 14  1  1  0  0  0
 25 20  1  0  0  0  0
 25 19  1  0  0  0  0
 29 28  1  6  0  0  0
 30 29  1  0  0  0  0
 31 30  3  0  0  0  0
 32 37  1  0  0  0  0
 33 36  1  6  0  0  0
 33 35  1  0  0  0  0
 33 31  1  0  0  0  0
 34 41  1  6  0  0  0
 34 32  1  0  0  0  0
 34 38  1  0  0  0  0
 37 39  1  1  0  0  0
 37 35  1  0  0  0  0
 38 33  1  0  0  0  0
 39 40  1  0  0  0  0
 42 41  1  0  0  0  0
 43 44  1  0  0  0  0
 43 42  1  0  0  0  0
 45 44  1  0  0  0  0
 45 46  1  0  0  0  0
 46 48  1  0  0  0  0
 48 47  1  0  0  0  0
 49 48  1  0  0  0  0
M  END
>  <MODEL>
5

>  <REMARK>
 VINA RESULT:      -4.6      3.053      8.717
  Name = 
  15 active torsions:
  status: ('A' for Active; 'I' for Inactive)
    1  A    between atoms: N_2  and  C_6
    2  A    between atoms: N_2  and  C_21
    3  A    between atoms: S_3  and  C_23
    4  A    between atoms: S_3  and  C_34
    5  A    between atoms: C_6  and  C_34
    6  A    between atoms: C_8  and  C_40
    7  A    between atoms: C_11  and  C_23
    8  A    between atoms: C_17  and  C_43
    9  A    between atoms: C_19  and  C_47
   10  A    between atoms: C_20  and  C_45
   11  A    between atoms: C_21  and  C_24
   12  A    between atoms: C_28  and  C_31
   13  A    between atoms: C_28  and  C_38
   14  A    between atoms: C_42  and  C_47
   15  A    between atoms: C_45  and  C_47
                            x       y       z     vdW  Elec       q    Type
                         _______ _______ _______ _____ _____    ______ ____

>  <TORSDO>
F 15

$$$$
=
 OpenBabel11042420323D

 49 53  0  0  1  0  0  0  0  0999 V2000
  160.7030  205.8300  149.3000 C   0  0  2  0  0  3  0  0  0  0  0  0
  161.2100  203.6210  148.2510 C   0  0  0  0  0  3  0  0  0  0  0  0
  161.4770  202.8330  147.1290 C   0  0  0  0  0  3  0  0  0  0  0  0
  161.0700  205.5560  146.8100 C   0  0  0  0  0  3  0  0  0  0  0  0
  161.3410  204.7340  145.7140 C   0  0  0  0  0  3  0  0  0  0  0  0
  161.5370  203.4010  145.8950 N   0  0  0  0  0  0  0  0  0  0  0  0
  161.0080  204.9930  148.0920 C   0  0  0  0  0  0  0  0  0  0  0  0
  162.4110  208.9070  147.8860 C   0  0  0  0  0  3  0  0  0  0  0  0
  161.0180  208.1850  150.1990 C   0  0  0  0  0  3  0  0  0  0  0  0
  161.9100  207.6090  148.0220 C   0  0  0  0  0  3  0  0  0  0  0  0
  161.2080  207.2430  149.1760 C   0  0  0  0  0  0  0  0  0  0  0  0
  161.5180  209.4820  150.0620 C   0  0  0  0  0  3  0  0  0  0  0  0
  162.2150  209.8450  148.9050 C   0  0  0  0  0  0  0  0  0  0  0  0
  162.7680  211.2240  148.7610 C   0  0  0  0  0  2  0  0  0  0  0  0
  163.1670  212.6460  144.8810 O   0  0  0  0  0  1  0  0  0  0  0  0
  161.0720  213.5640  145.6010 C   0  0  2  0  0  3  0  0  0  0  0  0
  162.5870  213.4990  145.8210 C   0  0  1  0  0  3  0  0  0  0  0  0
  162.9490  213.0710  147.1800 N   0  0  0  0  0  2  0  0  0  0  0  0
  160.7450  214.4530  144.5540 O   0  0  0  0  0  0  0  0  0  0  0  0
  159.1250  212.8740  144.0640 O   0  0  0  0  0  0  0  0  0  0  0  0
  160.3490  213.9380  146.9020 C   0  0  2  0  0  3  0  0  0  0  0  0
  158.2180  213.7740  145.2650 P   0  0  1  0  0  4  0  0  0  0  0  0
  160.4370  212.5690  148.1120 S   0  0  0  0  0  0  0  0  0  0  0  0
  162.1010  211.9600  147.6100 C   0  0  2  0  0  3  0  0  0  0  0  0
  159.4570  214.1780  143.9990 C   0  0  0  0  0  2  0  0  0  0  0  0
  158.9640  214.4000  146.7340 N   0  0  0  0  0  2  0  0  0  0  0  0
  156.9420  214.4530  144.8270 O   0  0  0  0  0  0  0  0  0  0  0  0
  162.2140  204.3850  150.5310 O   0  0  0  0  0  1  0  0  0  0  0  0
  161.0350  205.1270  150.6240 C   0  0  1  0  0  3  0  0  0  0  0  0
  161.1430  206.0960  151.7200 C   0  0  0  0  0  0  0  0  0  0  0  0
  161.2320  206.9000  152.6140 C   0  0  0  0  0  0  0  0  0  0  0  0
  159.9610  209.6900  155.5760 C   0  0  0  0  0  2  0  0  0  0  0  0
  161.3410  207.8840  153.6910 C   0  0  1  0  0  0  0  0  0  0  0  0
  160.6990  210.2340  154.3530 C   0  0  1  0  0  3  0  0  0  0  0  0
  160.6040  207.3600  154.9240 C   0  0  0  0  0  2  0  0  0  0  0  0
  162.6810  208.0730  153.9900 F   0  0  0  0  0  0  0  0  0  0  0  0
  160.6110  208.3950  156.0510 C   0  0  2  0  0  3  0  0  0  0  0  0
  160.7260  209.2030  153.2220 C   0  0  0  0  0  2  0  0  0  0  0  0
  159.8530  207.8630  157.2520 C   0  0  0  0  0  2  0  0  0  0  0  0
  159.8510  206.4680  157.2370 O   0  0  0  0  0  1  0  0  0  0  0  0
  160.0980  211.5540  153.8800 C   0  0  0  0  0  2  0  0  0  0  0  0
  159.6690  211.5290  152.1080 S   0  0  0  0  0  0  0  0  0  0  0  0
  158.3860  212.7890  152.3360 C   0  0  0  0  0  2  0  0  0  0  0  0
  158.7110  213.6210  153.5590 C   0  0  0  0  0  2  0  0  0  0  0  0
  157.4940  214.2200  154.0730 N   0  0  0  0  0  2  0  0  0  0  0  0
  157.4500  213.9360  155.4980 C   0  0  0  0  0  2  0  0  0  0  0  0
  155.3880  213.0650  154.6950 O   0  0  0  0  0  1  0  0  0  0  0  0
  156.1260  213.2850  155.8580 C   0  0  0  0  0  3  0  0  0  0  0  0
  155.4040  214.1190  156.7120 O   0  0  0  0  0  1  0  0  0  0  0  0
  1 29  1  1  0  0  0
  3  2  2  0  0  0  0
  4  7  2  0  0  0  0
  5  6  2  0  0  0  0
  5  4  1  0  0  0  0
  6  3  1  0  0  0  0
  7  2  1  0  0  0  0
  7  1  1  0  0  0  0
  8 10  2  0  0  0  0
  8 13  1  0  0  0  0
 10 11  1  0  0  0  0
 11  1  1  0  0  0  0
 11  9  2  0  0  0  0
 12  9  1  0  0  0  0
 13 12  2  0  0  0  0
 14 13  1  0  0  0  0
 16 19  1  6  0  0  0
 16 17  1  0  0  0  0
 16 21  1  0  0  0  0
 17 15  1  6  0  0  0
 17 18  1  0  0  0  0
 18 24  1  0  0  0  0
 20 22  1  0  0  0  0
 21 26  1  6  0  0  0
 21 23  1  0  0  0  0
 22 27  2  6  0  0  0
 22 26  1  0  0  0  0
 24 23  1  0  0  0  0
 24 14  1  1  0  0  0
 25 20  1  0  0  0  0
 25 19  1  0  0  0  0
 29 28  1  6  0  0  0
 29 30  1  0  0  0  0
 30 31  3  0  0  0  0
 31 33  1  0  0  0  0
 32 37  1  0  0  0  0
 33 36  1  1  0  0  0
 33 35  1  0  0  0  0
 34 41  1  6  0  0  0
 34 32  1  0  0  0  0
 35 37  1  0  0  0  0
 37 39  1  1  0  0  0
 38 33  1  0  0  0  0
 38 34  1  0  0  0  0
 40 39  1  0  0  0  0
 42 43  1  0  0  0  0
 42 41  1  0  0  0  0
 43 44  1  0  0  0  0
 44 45  1  0  0  0  0
 45 46  1  0  0  0  0
 46 48  1  0  0  0  0
 47 48  1  0  0  0  0
 48 49  1  0  0  0  0
M  END
>  <MODEL>
6

>  <REMARK>
 VINA RESULT:      -4.5      3.570      9.416
  Name = 
  15 active torsions:
  status: ('A' for Active; 'I' for Inactive)
    1  A    between atoms: N_2  and  C_6
    2  A    between atoms: N_2  and  C_21
    3  A    between atoms: S_3  and  C_23
    4  A    between atoms: S_3  and  C_34
    5  A    between atoms: C_6  and  C_34
    6  A    between atoms: C_8  and  C_40
    7  A    between atoms: C_11  and  C_23
    8  A    between atoms: C_17  and  C_43
    9  A    between atoms: C_19  and  C_47
   10  A    between atoms: C_20  and  C_45
   11  A    between atoms: C_21  and  C_24
   12  A    between atoms: C_28  and  C_31
   13  A    between atoms: C_28  and  C_38
   14  A    between atoms: C_42  and  C_47
   15  A    between atoms: C_45  and  C_47
                            x       y       z     vdW  Elec       q    Type
                         _______ _______ _______ _____ _____    ______ ____

>  <TORSDO>
F 15

$$$$
=
 OpenBabel11042420323D

 49 53  0  0  1  0  0  0  0  0999 V2000
  160.4870  205.2890  149.0390 C   0  0  2  0  0  3  0  0  0  0  0  0
  160.9390  203.1770  147.7850 C   0  0  0  0  0  3  0  0  0  0  0  0
  161.3030  202.5030  146.6180 C   0  0  0  0  0  3  0  0  0  0  0  0
  161.2170  205.2730  146.6150 C   0  0  0  0  0  3  0  0  0  0  0  0
  161.5780  204.5630  145.4690 C   0  0  0  0  0  3  0  0  0  0  0  0
  161.6130  203.2040  145.4940 N   0  0  0  0  0  0  0  0  0  0  0  0
  160.8970  204.5730  147.7860 C   0  0  0  0  0  0  0  0  0  0  0  0
  162.6200  208.3450  148.3330 C   0  0  0  0  0  3  0  0  0  0  0  0
  160.5140  207.6300  150.0260 C   0  0  0  0  0  3  0  0  0  0  0  0
  162.0830  207.0560  148.2730 C   0  0  0  0  0  3  0  0  0  0  0  0
  161.0250  206.6930  149.1140 C   0  0  0  0  0  0  0  0  0  0  0  0
  161.0500  208.9190  150.0860 C   0  0  0  0  0  3  0  0  0  0  0  0
  162.1040  209.2780  149.2390 C   0  0  0  0  0  0  0  0  0  0  0  0
  162.6940  210.6470  149.3120 C   0  0  0  0  0  2  0  0  0  0  0  0
  163.8510  212.5860  145.8280 O   0  0  0  0  0  1  0  0  0  0  0  0
  161.5810  213.2940  146.1350 C   0  0  2  0  0  3  0  0  0  0  0  0
  163.0060  213.2780  146.6970 C   0  0  1  0  0  3  0  0  0  0  0  0
  163.0820  212.6930  148.0440 N   0  0  0  0  0  2  0  0  0  0  0  0
  161.4310  214.2960  145.1510 O   0  0  0  0  0  0  0  0  0  0  0  0
  160.0960  212.7160  144.1120 O   0  0  0  0  0  0  0  0  0  0  0  0
  160.5530  213.4570  147.2630 C   0  0  2  0  0  3  0  0  0  0  0  0
  158.8710  213.4030  145.1610 P   0  0  1  0  0  4  0  0  0  0  0  0
  160.4720  211.9470  148.2910 S   0  0  0  0  0  0  0  0  0  0  0  0
  162.2490  211.4930  148.1290 C   0  0  2  0  0  3  0  0  0  0  0  0
  160.3290  214.0320  144.2790 C   0  0  0  0  0  2  0  0  0  0  0  0
  159.2100  213.8660  146.8270 N   0  0  0  0  0  2  0  0  0  0  0  0
  157.6780  214.0680  144.5170 O   0  0  0  0  0  0  0  0  0  0  0  0
  161.6770  203.4910  150.1500 O   0  0  0  0  0  1  0  0  0  0  0  0
  160.6710  204.4450  150.3080 C   0  0  1  0  0  3  0  0  0  0  0  0
  160.9710  205.2960  151.4650 C   0  0  0  0  0  0  0  0  0  0  0  0
  161.2180  206.0040  152.4100 C   0  0  0  0  0  0  0  0  0  0  0  0
  160.5980  208.9920  155.3860 C   0  0  0  0  0  2  0  0  0  0  0  0
  161.5170  206.8710  153.5500 C   0  0  1  0  0  0  0  0  0  0  0  0
  161.6110  209.2850  154.2800 C   0  0  1  0  0  3  0  0  0  0  0  0
  160.5090  206.5970  154.6670 C   0  0  0  0  0  2  0  0  0  0  0  0
  162.7990  206.5950  153.9960 F   0  0  0  0  0  0  0  0  0  0  0  0
  160.7240  207.5440  155.8470 C   0  0  2  0  0  3  0  0  0  0  0  0
  161.4300  208.3290  153.0990 C   0  0  0  0  0  2  0  0  0  0  0  0
  159.6980  207.2700  156.9300 C   0  0  0  0  0  2  0  0  0  0  0  0
  158.8780  206.2070  156.5520 O   0  0  0  0  0  1  0  0  0  0  0  0
  161.5380  210.7400  153.8280 C   0  0  0  0  0  2  0  0  0  0  0  0
  159.9100  211.4900  154.1570 S   0  0  0  0  0  0  0  0  0  0  0  0
  159.6810  211.9140  152.4090 C   0  0  0  0  0  2  0  0  0  0  0  0
  159.2880  213.3710  152.2930 C   0  0  0  0  0  2  0  0  0  0  0  0
  157.9840  213.4730  151.6650 N   0  0  0  0  0  2  0  0  0  0  0  0
  158.1680  214.1980  150.4180 C   0  0  0  0  0  2  0  0  0  0  0  0
  155.7990  214.3260  150.5820 O   0  0  0  0  0  1  0  0  0  0  0  0
  156.8510  214.2830  149.6670 C   0  0  0  0  0  3  0  0  0  0  0  0
  156.7020  213.1670  148.8430 O   0  0  0  0  0  1  0  0  0  0  0  0
  1 11  1  0  0  0  0
  1 29  1  1  0  0  0
  2  7  1  0  0  0  0
  3  2  2  0  0  0  0
  4  7  2  0  0  0  0
  5  6  2  0  0  0  0
  5  4  1  0  0  0  0
  6  3  1  0  0  0  0
  7  1  1  0  0  0  0
  8 13  1  0  0  0  0
  9 12  1  0  0  0  0
 10  8  2  0  0  0  0
 10 11  1  0  0  0  0
 11  9  2  0  0  0  0
 13 14  1  0  0  0  0
 13 12  2  0  0  0  0
 16 19  1  6  0  0  0
 16 17  1  0  0  0  0
 16 21  1  0  0  0  0
 17 15  1  6  0  0  0
 17 18  1  0  0  0  0
 18 24  1  0  0  0  0
 20 25  1  0  0  0  0
 20 22  1  0  0  0  0
 21 26  1  6  0  0  0
 21 23  1  0  0  0  0
 22 27  2  6  0  0  0
 22 26  1  0  0  0  0
 24 23  1  0  0  0  0
 24 14  1  1  0  0  0
 25 19  1  0  0  0  0
 29 28  1  6  0  0  0
 29 30  1  0  0  0  0
 30 31  3  0  0  0  0
 31 33  1  0  0  0  0
 32 37  1  0  0  0  0
 33 36  1  1  0  0  0
 33 35  1  0  0  0  0
 34 41  1  6  0  0  0
 34 32  1  0  0  0  0
 35 37  1  0  0  0  0
 37 39  1  1  0  0  0
 38 33  1  0  0  0  0
 38 34  1  0  0  0  0
 40 39  1  0  0  0  0
 41 42  1  0  0  0  0
 43 42  1  0  0  0  0
 44 43  1  0  0  0  0
 45 44  1  0  0  0  0
 46 45  1  0  0  0  0
 48 46  1  0  0  0  0
 48 47  1  0  0  0  0
 49 48  1  0  0  0  0
M  END
>  <MODEL>
7

>  <REMARK>
 VINA RESULT:      -4.3      3.486      8.785
  Name = 
  15 active torsions:
  status: ('A' for Active; 'I' for Inactive)
    1  A    between atoms: N_2  and  C_6
    2  A    between atoms: N_2  and  C_21
    3  A    between atoms: S_3  and  C_23
    4  A    between atoms: S_3  and  C_34
    5  A    between atoms: C_6  and  C_34
    6  A    between atoms: C_8  and  C_40
    7  A    between atoms: C_11  and  C_23
    8  A    between atoms: C_17  and  C_43
    9  A    between atoms: C_19  and  C_47
   10  A    between atoms: C_20  and  C_45
   11  A    between atoms: C_21  and  C_24
   12  A    between atoms: C_28  and  C_31
   13  A    between atoms: C_28  and  C_38
   14  A    between atoms: C_42  and  C_47
   15  A    between atoms: C_45  and  C_47
                            x       y       z     vdW  Elec       q    Type
                         _______ _______ _______ _____ _____    ______ ____

>  <TORSDO>
F 15

$$$$
=
 OpenBabel11042420323D

 49 53  0  0  1  0  0  0  0  0999 V2000
  161.6860  208.8580  153.0320 C   0  0  2  0  0  3  0  0  0  0  0  0
  162.0490  210.4070  154.9570 C   0  0  0  0  0  3  0  0  0  0  0  0
  162.0620  210.6700  156.3290 C   0  0  0  0  0  3  0  0  0  0  0  0
  161.3970  208.1300  155.4390 C   0  0  0  0  0  3  0  0  0  0  0  0
  161.4230  208.4330  156.8020 C   0  0  0  0  0  3  0  0  0  0  0  0
  161.7530  209.6860  157.2150 N   0  0  0  0  0  0  0  0  0  0  0  0
  161.7170  209.1270  154.5080 C   0  0  0  0  0  0  0  0  0  0  0  0
  159.7720  211.9580  151.9770 C   0  0  0  0  0  3  0  0  0  0  0  0
  161.8510  210.3670  150.9950 C   0  0  0  0  0  3  0  0  0  0  0  0
  160.2120  210.8520  152.7110 C   0  0  0  0  0  3  0  0  0  0  0  0
  161.2540  210.0550  152.2270 C   0  0  0  0  0  0  0  0  0  0  0  0
  161.4130  211.4730  150.2620 C   0  0  0  0  0  3  0  0  0  0  0  0
  160.3730  212.2700  150.7520 C   0  0  0  0  0  0  0  0  0  0  0  0
  159.8870  213.4410  149.9650 C   0  0  0  0  0  2  0  0  0  0  0  0
  162.9950  212.5880  147.3480 O   0  0  0  0  0  1  0  0  0  0  0  0
  161.2740  213.4420  145.9130 C   0  0  2  0  0  3  0  0  0  0  0  0
  162.2240  213.7210  147.0820 C   0  0  1  0  0  3  0  0  0  0  0  0
  161.5220  214.1490  148.3010 N   0  0  0  0  0  2  0  0  0  0  0  0
  161.9370  213.5700  144.6730 O   0  0  0  0  0  0  0  0  0  0  0  0
  160.6170  211.7660  144.0720 O   0  0  0  0  0  0  0  0  0  0  0  0
  160.0400  214.3520  145.9870 C   0  0  2  0  0  3  0  0  0  0  0  0
  159.4590  213.0330  143.7130 P   0  0  1  0  0  4  0  0  0  0  0  0
  158.9670  213.8790  147.3910 S   0  0  0  0  0  0  0  0  0  0  0  0
  160.3230  213.3380  148.5120 C   0  0  2  0  0  3  0  0  0  0  0  0
  161.2660  212.8610  143.6300 C   0  0  0  0  0  2  0  0  0  0  0  0
  159.2630  214.4490  144.7430 N   0  0  0  0  0  2  0  0  0  0  0  0
  158.9900  213.1800  142.2850 O   0  0  0  0  0  0  0  0  0  0  0  0
  159.6040  207.6390  152.7800 O   0  0  0  0  0  1  0  0  0  0  0  0
  160.9920  207.5370  152.6710 C   0  0  1  0  0  3  0  0  0  0  0  0
  161.3530  207.1080  151.3150 C   0  0  0  0  0  0  0  0  0  0  0  0
  161.6400  206.7530  150.1990 C   0  0  0  0  0  0  0  0  0  0  0  0
  161.1840  204.8210  146.4270 C   0  0  0  0  0  2  0  0  0  0  0  0
  161.9790  206.3200  148.8430 C   0  0  1  0  0  0  0  0  0  0  0  0
  162.2460  204.2780  147.3830 C   0  0  1  0  0  3  0  0  0  0  0  0
  160.9240  206.8490  147.8700 C   0  0  0  0  0  2  0  0  0  0  0  0
  163.2230  206.8290  148.5090 F   0  0  0  0  0  0  0  0  0  0  0  0
  161.1830  206.3460  146.4500 C   0  0  2  0  0  3  0  0  0  0  0  0
  162.0190  204.7920  148.8060 C   0  0  0  0  0  2  0  0  0  0  0  0
  160.1120  206.8620  145.5100 C   0  0  0  0  0  2  0  0  0  0  0  0
  159.1850  205.8540  145.2430 O   0  0  0  0  0  1  0  0  0  0  0  0
  162.3000  202.7540  147.3490 C   0  0  0  0  0  2  0  0  0  0  0  0
  160.6410  201.9980  147.3780 S   0  0  0  0  0  0  0  0  0  0  0  0
  161.2700  200.4970  148.1780 C   0  0  0  0  0  2  0  0  0  0  0  0
  161.3160  200.7100  149.6770 C   0  0  0  0  0  2  0  0  0  0  0  0
  160.6770  201.9710  150.0050 N   0  0  0  0  0  2  0  0  0  0  0  0
  160.4220  201.9570  151.4360 C   0  0  0  0  0  2  0  0  0  0  0  0
  159.9710  204.2860  151.2650 O   0  0  0  0  0  1  0  0  0  0  0  0
  160.6620  203.3390  152.0200 C   0  0  0  0  0  3  0  0  0  0  0  0
  162.0260  203.6340  151.9960 O   0  0  0  0  0  1  0  0  0  0  0  0
  1 29  1  1  0  0  0
  1  7  1  0  0  0  0
  2  3  1  0  0  0  0
  3  6  2  0  0  0  0
  4  5  2  0  0  0  0
  5  6  1  0  0  0  0
  7  2  2  0  0  0  0
  7  4  1  0  0  0  0
  8 10  1  0  0  0  0
  9 11  1  0  0  0  0
 11 10  2  0  0  0  0
 11  1  1  0  0  0  0
 12 13  1  0  0  0  0
 12  9  2  0  0  0  0
 13  8  2  0  0  0  0
 14 13  1  0  0  0  0
 16 19  1  6  0  0  0
 16 21  1  0  0  0  0
 16 17  1  0  0  0  0
 17 15  1  1  0  0  0
 17 18  1  0  0  0  0
 18 24  1  0  0  0  0
 21 26  1  6  0  0  0
 21 23  1  0  0  0  0
 22 27  2  6  0  0  0
 22 20  1  0  0  0  0
 22 26  1  0  0  0  0
 23 24  1  0  0  0  0
 24 14  1  1  0  0  0
 25 20  1  0  0  0  0
 25 19  1  0  0  0  0
 29 28  1  6  0  0  0
 30 29  1  0  0  0  0
 31 30  3  0  0  0  0
 32 37  1  0  0  0  0
 32 34  1  0  0  0  0
 33 36  1  6  0  0  0
 33 31  1  0  0  0  0
 34 41  1  1  0  0  0
 34 38  1  0  0  0  0
 35 33  1  0  0  0  0
 37 39  1  6  0  0  0
 37 35  1  0  0  0  0
 38 33  1  0  0  0  0
 40 39  1  0  0  0  0
 41 42  1  0  0  0  0
 42 43  1  0  0  0  0
 43 44  1  0  0  0  0
 44 45  1  0  0  0  0
 45 46  1  0  0  0  0
 46 48  1  0  0  0  0
 47 48  1  0  0  0  0
 49 48  1  0  0  0  0
M  END
>  <MODEL>
8

>  <REMARK>
 VINA RESULT:      -4.1      2.972      9.066
  Name = 
  15 active torsions:
  status: ('A' for Active; 'I' for Inactive)
    1  A    between atoms: N_2  and  C_6
    2  A    between atoms: N_2  and  C_21
    3  A    between atoms: S_3  and  C_23
    4  A    between atoms: S_3  and  C_34
    5  A    between atoms: C_6  and  C_34
    6  A    between atoms: C_8  and  C_40
    7  A    between atoms: C_11  and  C_23
    8  A    between atoms: C_17  and  C_43
    9  A    between atoms: C_19  and  C_47
   10  A    between atoms: C_20  and  C_45
   11  A    between atoms: C_21  and  C_24
   12  A    between atoms: C_28  and  C_31
   13  A    between atoms: C_28  and  C_38
   14  A    between atoms: C_42  and  C_47
   15  A    between atoms: C_45  and  C_47
                            x       y       z     vdW  Elec       q    Type
                         _______ _______ _______ _____ _____    ______ ____

>  <TORSDO>
F 15

$$$$
=
 OpenBabel11042420323D

 49 54  0  0  1  0  0  0  0  0999 V2000
  160.3610  209.4300  153.8490 C   0  0  2  0  0  3  0  0  0  0  0  0
  159.5140  207.5300  155.2310 C   0  0  0  0  0  3  0  0  0  0  0  0
  159.6070  206.6900  156.3430 C   0  0  0  0  0  3  0  0  0  0  0  0
  161.4840  208.6990  155.9970 C   0  0  0  0  0  3  0  0  0  0  0  0
  161.5420  207.8400  157.0970 C   0  0  0  0  0  3  0  0  0  0  0  0
  160.6100  206.8620  157.2450 N   0  0  0  0  0  0  0  0  0  0  0  0
  160.4570  208.5440  155.0570 C   0  0  0  0  0  0  0  0  0  0  0  0
  162.0330  209.2280  150.4510 C   0  0  0  0  0  3  0  0  0  0  0  0
  161.4290  207.5110  152.5720 C   0  0  0  0  0  3  0  0  0  0  0  0
  161.3840  209.7220  151.5860 C   0  0  0  0  0  3  0  0  0  0  0  0
  161.0830  208.8690  152.6530 C   0  0  0  0  0  0  0  0  0  0  0  0
  162.0790  207.0170  151.4390 C   0  0  0  0  0  0  0  0  0  0  0  0
  162.3820  207.8750  150.3760 C   0  0  0  0  0  0  0  0  0  0  0  0
  163.0590  207.3490  149.1550 C   0  0  0  0  0  2  0  0  0  0  0  0
  162.7680  204.4300  146.2170 O   0  0  0  0  0  1  0  0  0  0  0  0
  161.3280  203.6200  147.9560 C   0  0  2  0  0  3  0  0  0  0  0  0
  161.6120  204.7310  146.9400 C   0  0  1  0  0  3  0  0  0  0  0  0
  161.7400  206.0570  147.5620 N   0  0  0  0  0  2  0  0  0  0  0  0
  160.6900  202.5190  147.3440 O   0  0  0  0  0  0  0  0  0  0  0  0
  162.0150  201.2800  148.7810 O   0  0  0  0  0  0  0  0  0  0  0  0
  160.5100  204.1600  149.1360 C   0  0  2  0  0  3  0  0  0  0  0  0
  160.6890  201.5800  149.8870 P   0  0  1  0  0  4  0  0  0  0  0  0
  161.5180  205.2840  150.1670 S   0  0  1  0  0  3  0  0  0  0  0  0
  162.5300  205.9710  148.7910 C   0  0  2  0  0  3  0  0  0  0  0  0
  160.8550  201.3160  148.0980 C   0  0  0  0  0  2  0  0  0  0  0  0
  159.8590  203.1330  149.9630 N   0  0  0  0  0  2  0  0  0  0  0  0
  159.9210  200.3910  150.4130 O   0  0  0  0  0  0  0  0  0  0  0  0
  161.9260  211.0830  154.6880 O   0  0  0  0  0  1  0  0  0  0  0  0
  160.6470  210.9070  154.1570 C   0  0  1  0  0  3  0  0  0  0  0  0
  160.4890  211.7330  152.9550 C   0  0  0  0  0  0  0  0  0  0  0  0
  160.3500  212.4080  151.9650 C   0  0  0  0  0  0  0  0  0  0  0  0
  159.0700  213.4430  148.0330 C   0  0  0  0  0  2  0  0  0  0  0  0
  160.1720  213.2230  150.7640 C   0  0  1  0  0  0  0  0  0  0  0  0
  160.5690  213.2580  148.2710 C   0  0  1  0  0  3  0  0  0  0  0  0
  158.6770  213.4140  150.5050 C   0  0  0  0  0  2  0  0  0  0  0  0
  160.7750  214.4530  150.9650 F   0  0  0  0  0  0  0  0  0  0  0  0
  158.4370  214.1850  149.2060 C   0  0  2  0  0  3  0  0  0  0  0  0
  160.8310  212.5130  149.5810 C   0  0  0  0  0  2  0  0  0  0  0  0
  156.9490  214.3390  148.9580 C   0  0  0  0  0  2  0  0  0  0  0  0
  156.6760  214.2140  147.5960 O   0  0  0  0  0  1  0  0  0  0  0  0
  161.2380  212.5570  147.0930 C   0  0  0  0  0  2  0  0  0  0  0  0
  160.4500  212.9660  145.5010 S   0  0  0  0  0  0  0  0  0  0  0  0
  161.8610  213.9850  144.9920 C   0  0  0  0  0  2  0  0  0  0  0  0
  162.1260  213.7740  143.5160 C   0  0  0  0  0  2  0  0  0  0  0  0
  161.5390  212.5150  143.0950 N   0  0  0  0  0  2  0  0  0  0  0  0
  160.7130  212.7990  141.9330 C   0  0  0  0  0  2  0  0  0  0  0  0
  160.8400  213.1770  139.5890 O   0  0  0  0  0  1  0  0  0  0  0  0
  161.5190  212.6000  140.6620 C   0  0  0  0  0  3  0  0  0  0  0  0
  161.6940  211.2370  140.4190 O   0  0  0  0  0  1  0  0  0  0  0  0
  1 29  1  1  0  0  0
  1  7  1  0  0  0  0
  2  3  1  0  0  0  0
  3  6  2  0  0  0  0
  4  5  2  0  0  0  0
  5  6  1  0  0  0  0
  7  2  2  0  0  0  0
  7  4  1  0  0  0  0
  8 10  1  0  0  0  0
  9 11  1  0  0  0  0
 10 11  2  0  0  0  0
 11  1  1  0  0  0  0
 12  9  2  0  0  0  0
 13  8  2  0  0  0  0
 13 12  1  0  0  0  0
 14 13  1  0  0  0  0
 16 19  1  6  0  0  0
 16 21  1  0  0  0  0
 17 15  1  1  0  0  0
 17 18  1  0  0  0  0
 17 16  1  0  0  0  0
 18 24  1  0  0  0  0
 19 25  1  0  0  0  0
 20 22  1  0  0  0  0
 21 26  1  1  0  0  0
 21 23  1  0  0  0  0
 22 26  1  0  0  0  0
 22 27  2  6  0  0  0
 23 12  1  6  0  0  0
 24 14  1  1  0  0  0
 24 23  1  0  0  0  0
 25 20  1  0  0  0  0
 29 28  1  6  0  0  0
 30 29  1  0  0  0  0
 31 30  3  0  0  0  0
 32 34  1  0  0  0  0
 32 37  1  0  0  0  0
 33 36  1  1  0  0  0
 33 31  1  0  0  0  0
 34 41  1  6  0  0  0
 34 38  1  0  0  0  0
 35 33  1  0  0  0  0
 37 39  1  6  0  0  0
 37 35  1  0  0  0  0
 38 33  1  0  0  0  0
 40 39  1  0  0  0  0
 42 41  1  0  0  0  0
 43 42  1  0  0  0  0
 44 43  1  0  0  0  0
 45 44  1  0  0  0  0
 46 45  1  0  0  0  0
 47 48  1  0  0  0  0
 48 46  1  0  0  0  0
 49 48  1  0  0  0  0
M  END
>  <MODEL>
9

>  <REMARK>
 VINA RESULT:      -4.1      1.980      2.985
  Name = 
  15 active torsions:
  status: ('A' for Active; 'I' for Inactive)
    1  A    between atoms: N_2  and  C_6
    2  A    between atoms: N_2  and  C_21
    3  A    between atoms: S_3  and  C_23
    4  A    between atoms: S_3  and  C_34
    5  A    between atoms: C_6  and  C_34
    6  A    between atoms: C_8  and  C_40
    7  A    between atoms: C_11  and  C_23
    8  A    between atoms: C_17  and  C_43
    9  A    between atoms: C_19  and  C_47
   10  A    between atoms: C_20  and  C_45
   11  A    between atoms: C_21  and  C_24
   12  A    between atoms: C_28  and  C_31
   13  A    between atoms: C_28  and  C_38
   14  A    between atoms: C_42  and  C_47
   15  A    between atoms: C_45  and  C_47
                            x       y       z     vdW  Elec       q    Type
                         _______ _______ _______ _____ _____    ______ ____

>  <TORSDO>
F 15

$$$$
