=
 OpenBabel11042423033D

 55 61  0  0  1  0  0  0  0  0999 V2000
  161.2910  203.0970  151.2770 C   0  0  0  0  0  2  0  0  0  0  0  0
  161.5220  206.9060  148.2490 C   0  0  0  0  0  0  0  0  0  0  0  0
  161.6500  206.4430  149.5260 N   0  0  0  0  0  0  0  0  0  0  0  0
  161.3000  205.8640  147.3410 C   0  0  0  0  0  0  0  0  0  0  0  0
  161.2310  204.6940  148.0780 C   0  0  0  0  0  0  0  0  0  0  0  0
  161.4390  205.1150  149.4040 C   0  0  0  0  0  0  0  0  0  0  0  0
  160.7640  202.9570  146.2440 C   0  0  0  0  0  1  0  0  0  0  0  0
  160.6660  200.9150  148.3690 O   0  0  0  0  0  1  0  0  0  0  0  0
  161.3620  204.1030  150.3050 C   0  0  0  0  0  0  0  0  0  0  0  0
  161.1030  202.7130  149.9420 C   0  0  0  0  0  0  0  0  0  0  0  0
  160.9710  203.3050  147.6790 C   0  0  0  0  0  0  0  0  0  0  0  0
  160.9070  202.2510  148.6670 C   0  0  0  0  0  0  0  0  0  0  0  0
  161.0700  206.0150  145.8710 C   0  0  0  0  0  2  0  0  0  0  0  0
  162.3760  205.8510  145.1200 C   0  0  0  0  0  1  0  0  0  0  0  0
  161.7220  207.2570  150.7570 C   0  0  2  0  0  3  0  0  0  0  0  0
  162.9910  206.9900  151.5640 C   0  0  0  0  0  1  0  0  0  0  0  0
  160.4730  207.1630  151.6460 C   0  0  0  0  0  2  0  0  0  0  0  0
  161.3700  206.0400  155.1660 C   0  0  0  0  0  3  0  0  0  0  0  0
  160.7400  207.1780  153.1300 C   0  0  0  0  0  0  0  0  0  0  0  0
  161.0700  207.1590  155.8790 N   0  0  0  0  0  0  0  0  0  0  0  0
  161.2070  206.0290  153.7810 C   0  0  0  0  0  3  0  0  0  0  0  0
  160.4460  208.3260  153.8840 C   0  0  0  0  0  0  0  0  0  0  0  0
  160.6180  208.2900  155.2730 C   0  0  0  0  0  3  0  0  0  0  0  0
  160.0080  209.5250  153.2390 N   0  0  0  0  0  2  0  0  0  0  0  0
  160.7990  210.2050  152.3730 O   0  0  0  0  0  0  0  0  0  0  0  0
  160.8480  211.5080  152.8760 C   0  0  1  0  0  3  0  0  0  0  0  0
  159.1010  213.0920  153.0450 C   0  0  2  0  0  0  0  0  0  0  0  0
  158.9350  214.4500  152.7630 O   0  0  0  0  0  1  0  0  0  0  0  0
  159.6610  212.6860  154.3860 C   0  0  2  0  0  3  0  0  0  0  0  0
  159.9830  212.4370  152.0340 C   0  0  2  0  0  3  0  0  0  0  0  0
  160.4180  211.5190  154.2170 O   0  0  0  0  0  0  0  0  0  0  0  0
  158.5060  212.0620  152.1000 C   0  0  2  0  0  3  0  0  0  0  0  0
  157.8200  212.6930  151.0610 O   0  0  0  0  0  1  0  0  0  0  0  0
  158.5410  212.4150  155.3730 C   0  0  0  0  0  2  0  0  0  0  0  0
  157.5410  213.4000  155.2640 O   0  0  0  0  0  0  0  0  0  0  0  0
  156.2710  212.7870  155.1050 C   0  0  0  0  0  0  0  0  0  0  0  0
  156.4870  211.2950  154.9340 C   0  0  0  0  0  1  0  0  0  0  0  0
  155.4100  212.9760  156.3490 C   0  0  0  0  0  1  0  0  0  0  0  0
  154.3270  213.9480  154.2490 O   0  0  0  0  0  1  0  0  0  0  0  0
  155.5080  213.2980  153.8730 C   0  0  0  0  0  2  0  0  0  0  0  0
  161.5640  208.3500  147.8640 C   0  0  0  0  0  2  0  0  0  0  0  0
  162.5040  209.0170  148.6500 O   0  0  0  0  0  0  0  0  0  0  0  0
  161.9250  210.2070  148.9390 N   0  0  0  0  0  2  0  0  0  0  0  0
  161.9620  210.9980  147.7210 C   0  0  0  0  0  2  0  0  0  0  0  0
  161.9520  212.4870  148.0700 C   0  0  0  0  0  2  0  0  0  0  0  0
  161.0580  213.2880  147.2150 N   0  0  0  0  0  0  0  0  0  0  0  0
  159.5180  212.9650  145.0130 S   0  0  0  0  0  0  0  0  0  0  0  0
  160.6980  214.3270  145.0880 C   0  0  0  0  0  2  0  0  0  0  0  0
  161.7520  213.9030  146.0780 C   0  0  2  0  0  3  0  0  0  0  0  0
  159.8780  212.5290  146.7580 C   0  0  2  0  0  3  0  0  0  0  0  0
  159.0350  213.9700  148.4330 C   0  0  0  0  0  1  0  0  0  0  0  0
  158.7050  212.8290  147.5940 N   0  0  0  0  0  0  0  0  0  0  0  0
  157.6050  213.2830  146.7570 C   0  0  0  0  0  1  0  0  0  0  0  0
  162.6300  213.0070  145.4510 O   0  0  0  0  0  0  0  0  0  0  0  0
  163.0690  213.6750  144.3050 C   0  0  0  0  0  1  0  0  0  0  0  0
  2  3  1  0  0  0  0
  3 15  1  0  0  0  0
  4  5  1  0  0  0  0
  4  2  2  0  0  0  0
  5  6  1  0  0  0  0
  6  3  1  0  0  0  0
  6  9  2  0  0  0  0
  7 11  1  0  0  0  0
  8 12  1  0  0  0  0
  9  1  1  0  0  0  0
 10  9  1  0  0  0  0
 10  1  1  0  0  0  0
 11  5  2  0  0  0  0
 11 12  1  0  0  0  0
 12 10  2  0  0  0  0
 13  4  1  0  0  0  0
 14 13  1  0  0  0  0
 15 16  1  1  0  0  0
 15 17  1  0  0  0  0
 17 19  1  0  0  0  0
 18 20  1  0  0  0  0
 19 21  1  0  0  0  0
 19 22  2  0  0  0  0
 21 18  2  0  0  0  0
 22 23  1  0  0  0  0
 23 20  2  0  0  0  0
 24 22  1  0  0  0  0
 25 24  1  0  0  0  0
 26 25  1  6  0  0  0
 26 31  1  0  0  0  0
 27 28  1  6  0  0  0
 27 29  1  0  0  0  0
 29 34  1  1  0  0  0
 30 32  1  0  0  0  0
 30 26  1  0  0  0  0
 30 27  1  0  0  0  0
 31 29  1  0  0  0  0
 32 27  1  0  0  0  0
 33 32  1  0  0  0  0
 35 34  1  0  0  0  0
 36 35  1  0  0  0  0
 36 38  1  0  0  0  0
 37 36  1  0  0  0  0
 40 39  1  0  0  0  0
 40 36  1  0  0  0  0
 41  2  1  0  0  0  0
 41 42  1  0  0  0  0
 42 43  1  0  0  0  0
 44 45  1  0  0  0  0
 44 43  1  0  0  0  0
 46 45  1  0  0  0  0
 47 48  1  0  0  0  0
 47 50  1  0  0  0  0
 48 49  1  0  0  0  0
 49 46  1  0  0  0  0
 50 46  1  0  0  0  0
 50 52  1  0  0  0  0
 52 51  1  0  0  0  0
 53 52  1  0  0  0  0
 54 49  1  0  0  0  0
 55 54  1  0  0  0  0
M  END
>  <MODEL>
1

>  <REMARK>
 VINA RESULT:      -5.7      0.000      0.000
  Name = 
  19 active torsions:
  status: ('A' for Active; 'I' for Inactive)
    1  A    between atoms: C_2  and  O_46
    2  A    between atoms: O_4  and  C_23
    3  A    between atoms: C_5  and  N_10
    4  A    between atoms: C_5  and  C_50
    5  A    between atoms: C_7  and  O_35
    6  A    between atoms: C_7  and  C_49
    7  A    between atoms: C_9  and  C_54
    8  A    between atoms: N_11  and  C_32
    9  A    between atoms: C_13  and  C_50
   10  A    between atoms: C_15  and  C_21
   11  A    between atoms: N_18  and  C_39
   12  A    between atoms: N_18  and  O_46
   13  A    between atoms: O_20  and  N_48
   14  A    between atoms: O_20  and  C_54
   15  A    between atoms: C_26  and  C_51
   16  A    between atoms: C_32  and  C_34
   17  A    between atoms: N_33  and  C_45
   18  A    between atoms: C_34  and  N_48
   19  A    between atoms: O_35  and  C_51
                            x       y       z     vdW  Elec       q    Type
                         _______ _______ _______ _____ _____    ______ ____

>  <TORSDO>
F 19

$$$$
=
 OpenBabel11042423033D

 55 61  0  0  1  0  0  0  0  0999 V2000
  161.5130  204.1630  150.8830 C   0  0  0  0  0  2  0  0  0  0  0  0
  161.1930  205.1240  146.1180 C   0  0  0  0  0  0  0  0  0  0  0  0
  161.4330  205.6010  147.3720 N   0  0  0  0  0  0  0  0  0  0  0  0
  161.0370  203.7330  146.1140 C   0  0  0  0  0  0  0  0  0  0  0  0
  161.1280  203.3130  147.4310 C   0  0  0  0  0  0  0  0  0  0  0  0
  161.3560  204.5000  148.1500 C   0  0  0  0  0  0  0  0  0  0  0  0
  160.7560  200.7830  147.1910 C   0  0  0  0  0  1  0  0  0  0  0  0
  160.9770  200.5930  150.1250 O   0  0  0  0  0  1  0  0  0  0  0  0
  161.4300  204.3060  149.4910 C   0  0  0  0  0  0  0  0  0  0  0  0
  161.3000  203.0000  150.1290 C   0  0  0  0  0  0  0  0  0  0  0  0
  160.9950  201.9850  148.0400 C   0  0  0  0  0  0  0  0  0  0  0  0
  161.0910  201.8160  149.4730 C   0  0  0  0  0  0  0  0  0  0  0  0
  160.7200  202.8890  144.9220 C   0  0  0  0  0  2  0  0  0  0  0  0
  159.2660  203.0650  144.5300 C   0  0  0  0  0  1  0  0  0  0  0  0
  161.4800  207.0200  147.7850 C   0  0  2  0  0  3  0  0  0  0  0  0
  162.8740  207.6250  147.6470 C   0  0  0  0  0  1  0  0  0  0  0  0
  160.8960  207.2880  149.1800 C   0  0  0  0  0  2  0  0  0  0  0  0
  162.2440  210.7990  149.7410 C   0  0  0  0  0  3  0  0  0  0  0  0
  161.4030  208.5370  149.8560 C   0  0  0  0  0  0  0  0  0  0  0  0
  162.4920  210.7700  151.0780 N   0  0  0  0  0  0  0  0  0  0  0  0
  161.6990  209.6830  149.1070 C   0  0  0  0  0  3  0  0  0  0  0  0
  161.6590  208.5320  151.2380 C   0  0  0  0  0  0  0  0  0  0  0  0
  162.2120  209.6730  151.8310 C   0  0  0  0  0  3  0  0  0  0  0  0
  161.3270  207.3900  152.0320 N   0  0  0  0  0  2  0  0  0  0  0  0
  161.7560  207.2560  153.3120 O   0  0  0  0  0  0  0  0  0  0  0  0
  160.6370  207.5450  154.1000 C   0  0  1  0  0  3  0  0  0  0  0  0
  160.4270  209.1230  155.8470 C   0  0  2  0  0  0  0  0  0  0  0  0
  159.8910  209.1400  157.1360 O   0  0  0  0  0  1  0  0  0  0  0  0
  159.5240  209.4170  154.6740 C   0  0  2  0  0  3  0  0  0  0  0  0
  161.0520  207.8010  155.5410 C   0  0  2  0  0  3  0  0  0  0  0  0
  159.9610  208.6630  153.5760 O   0  0  0  0  0  0  0  0  0  0  0  0
  161.9340  209.0380  155.6730 C   0  0  2  0  0  3  0  0  0  0  0  0
  162.5680  209.0280  156.9160 O   0  0  0  0  0  1  0  0  0  0  0  0
  159.5740  210.8910  154.3180 C   0  0  0  0  0  2  0  0  0  0  0  0
  158.5260  211.5860  154.9530 O   0  0  0  0  0  0  0  0  0  0  0  0
  158.2450  212.7870  154.2510 C   0  0  0  0  0  0  0  0  0  0  0  0
  156.7380  212.9420  154.1710 C   0  0  0  0  0  1  0  0  0  0  0  0
  158.7810  214.0000  155.0020 C   0  0  0  0  0  1  0  0  0  0  0  0
  157.9000  213.3980  151.9350 O   0  0  0  0  0  1  0  0  0  0  0  0
  158.7970  212.7880  152.8180 C   0  0  0  0  0  2  0  0  0  0  0  0
  161.0650  205.9790  144.8970 C   0  0  0  0  0  2  0  0  0  0  0  0
  162.1150  205.7050  144.0210 O   0  0  0  0  0  0  0  0  0  0  0  0
  161.5580  205.7730  142.7880 N   0  0  0  0  0  2  0  0  0  0  0  0
  162.2290  206.8510  142.0830 C   0  0  0  0  0  2  0  0  0  0  0  0
  161.5370  207.1010  140.7420 C   0  0  0  0  0  2  0  0  0  0  0  0
  162.0220  208.3050  140.0430 N   0  0  0  0  0  0  0  0  0  0  0  0
  161.0480  210.2660  138.4530 S   0  0  0  0  0  0  0  0  0  0  0  0
  162.5240  209.3580  137.9510 C   0  0  0  0  0  2  0  0  0  0  0  0
  162.4520  208.0330  138.6660 C   0  0  2  0  0  3  0  0  0  0  0  0
  161.0490  209.4120  140.0770 C   0  0  2  0  0  3  0  0  0  0  0  0
  162.4990  211.1810  140.6740 C   0  0  0  0  0  1  0  0  0  0  0  0
  161.3820  210.3730  141.1390 N   0  0  0  0  0  0  0  0  0  0  0  0
  160.2870  211.3130  141.3190 C   0  0  0  0  0  1  0  0  0  0  0  0
  161.5510  207.1990  137.9890 O   0  0  0  0  0  0  0  0  0  0  0  0
  162.3220  206.5410  137.0280 C   0  0  0  0  0  1  0  0  0  0  0  0
  2  3  1  0  0  0  0
  3 15  1  0  0  0  0
  3  6  1  0  0  0  0
  4  2  2  0  0  0  0
  4  5  1  0  0  0  0
  5 11  2  0  0  0  0
  5  6  1  0  0  0  0
  6  9  2  0  0  0  0
  7 11  1  0  0  0  0
  9 10  1  0  0  0  0
  9  1  1  0  0  0  0
 10  1  1  0  0  0  0
 11 12  1  0  0  0  0
 12  8  1  0  0  0  0
 12 10  2  0  0  0  0
 13  4  1  0  0  0  0
 14 13  1  0  0  0  0
 15 16  1  1  0  0  0
 15 17  1  0  0  0  0
 17 19  1  0  0  0  0
 18 20  1  0  0  0  0
 19 22  2  0  0  0  0
 20 23  2  0  0  0  0
 21 18  2  0  0  0  0
 21 19  1  0  0  0  0
 22 23  1  0  0  0  0
 22 24  1  0  0  0  0
 24 25  1  0  0  0  0
 26 25  1  6  0  0  0
 26 30  1  0  0  0  0
 27 28  1  1  0  0  0
 29 34  1  6  0  0  0
 29 27  1  0  0  0  0
 30 32  1  0  0  0  0
 30 27  1  0  0  0  0
 31 26  1  0  0  0  0
 31 29  1  0  0  0  0
 32 27  1  0  0  0  0
 32 33  1  0  0  0  0
 34 35  1  0  0  0  0
 36 35  1  0  0  0  0
 36 38  1  0  0  0  0
 37 36  1  0  0  0  0
 39 40  1  0  0  0  0
 40 36  1  0  0  0  0
 41  2  1  0  0  0  0
 42 41  1  0  0  0  0
 43 42  1  0  0  0  0
 44 43  1  0  0  0  0
 45 44  1  0  0  0  0
 46 50  1  0  0  0  0
 46 45  1  0  0  0  0
 47 50  1  0  0  0  0
 48 47  1  0  0  0  0
 48 49  1  0  0  0  0
 49 46  1  0  0  0  0
 50 52  1  0  0  0  0
 51 52  1  0  0  0  0
 52 53  1  0  0  0  0
 54 49  1  0  0  0  0
 55 54  1  0  0  0  0
M  END
>  <MODEL>
2

>  <REMARK>
 VINA RESULT:      -3.8      3.714      5.312
  Name = 
  19 active torsions:
  status: ('A' for Active; 'I' for Inactive)
    1  A    between atoms: C_2  and  O_46
    2  A    between atoms: O_4  and  C_23
    3  A    between atoms: C_5  and  N_10
    4  A    between atoms: C_5  and  C_50
    5  A    between atoms: C_7  and  O_35
    6  A    between atoms: C_7  and  C_49
    7  A    between atoms: C_9  and  C_54
    8  A    between atoms: N_11  and  C_32
    9  A    between atoms: C_13  and  C_50
   10  A    between atoms: C_15  and  C_21
   11  A    between atoms: N_18  and  C_39
   12  A    between atoms: N_18  and  O_46
   13  A    between atoms: O_20  and  N_48
   14  A    between atoms: O_20  and  C_54
   15  A    between atoms: C_26  and  C_51
   16  A    between atoms: C_32  and  C_34
   17  A    between atoms: N_33  and  C_45
   18  A    between atoms: C_34  and  N_48
   19  A    between atoms: O_35  and  C_51
                            x       y       z     vdW  Elec       q    Type
                         _______ _______ _______ _____ _____    ______ ____

>  <TORSDO>
F 19

$$$$
=
 OpenBabel11042423033D

 55 61  0  0  1  0  0  0  0  0999 V2000
  161.5780  206.4370  153.9710 C   0  0  0  0  0  2  0  0  0  0  0  0
  160.7870  211.0770  152.7170 C   0  0  0  0  0  0  0  0  0  0  0  0
  161.3100  209.8660  152.3700 N   0  0  0  0  0  0  0  0  0  0  0  0
  160.0850  211.0100  153.9260 C   0  0  0  0  0  0  0  0  0  0  0  0
  160.2110  209.7140  154.3950 C   0  0  0  0  0  0  0  0  0  0  0  0
  160.9790  209.0690  153.4090 C   0  0  0  0  0  0  0  0  0  0  0  0
  158.9200  209.8400  156.6120 C   0  0  0  0  0  1  0  0  0  0  0  0
  159.6240  207.0110  157.0470 O   0  0  0  0  0  1  0  0  0  0  0  0
  161.2590  207.7760  153.7090 C   0  0  0  0  0  0  0  0  0  0  0  0
  160.8010  207.1090  154.9240 C   0  0  0  0  0  0  0  0  0  0  0  0
  159.7320  209.0730  155.6250 C   0  0  0  0  0  0  0  0  0  0  0  0
  160.0410  207.6880  155.9060 C   0  0  0  0  0  0  0  0  0  0  0  0
  159.4250  212.1570  154.6220 C   0  0  0  0  0  2  0  0  0  0  0  0
  158.0110  212.3360  154.1060 C   0  0  0  0  0  1  0  0  0  0  0  0
  162.2460  209.5930  151.2590 C   0  0  2  0  0  3  0  0  0  0  0  0
  161.8800  210.3480  149.9840 C   0  0  0  0  0  1  0  0  0  0  0  0
  162.4620  208.0990  150.9730 C   0  0  0  0  0  2  0  0  0  0  0  0
  161.1300  207.8040  147.4240 C   0  0  0  0  0  3  0  0  0  0  0  0
  161.7630  207.5750  149.7450 C   0  0  0  0  0  0  0  0  0  0  0  0
  160.3410  206.7000  147.5360 N   0  0  0  0  0  0  0  0  0  0  0  0
  161.8510  208.2610  148.5270 C   0  0  0  0  0  3  0  0  0  0  0  0
  160.9500  206.4320  149.8340 C   0  0  0  0  0  0  0  0  0  0  0  0
  160.2400  206.0120  148.7040 C   0  0  0  0  0  3  0  0  0  0  0  0
  160.8770  205.6890  151.0540 N   0  0  0  0  0  2  0  0  0  0  0  0
  160.3160  204.4550  151.1110 O   0  0  0  0  0  0  0  0  0  0  0  0
  161.2720  203.5990  150.5570 C   0  0  1  0  0  3  0  0  0  0  0  0
  160.9380  201.5820  149.3690 C   0  0  2  0  0  0  0  0  0  0  0  0
  161.4880  200.2990  149.3780 O   0  0  0  0  0  1  0  0  0  0  0  0
  161.5960  202.6550  148.5360 C   0  0  2  0  0  3  0  0  0  0  0  0
  160.8620  202.1460  150.7500 C   0  0  2  0  0  3  0  0  0  0  0  0
  161.4330  203.8860  149.1880 O   0  0  0  0  0  0  0  0  0  0  0  0
  159.5760  201.8080  150.0030 C   0  0  2  0  0  3  0  0  0  0  0  0
  159.0580  200.6060  150.4860 O   0  0  0  0  0  1  0  0  0  0  0  0
  160.9590  202.7310  147.1620 C   0  0  0  0  0  2  0  0  0  0  0  0
  160.9870  204.0540  146.6790 O   0  0  0  0  0  0  0  0  0  0  0  0
  161.2880  204.0600  145.2920 C   0  0  0  0  0  0  0  0  0  0  0  0
  160.7950  202.7530  144.7000 C   0  0  0  0  0  1  0  0  0  0  0  0
  160.5500  205.1840  144.5750 C   0  0  0  0  0  1  0  0  0  0  0  0
  163.4350  204.9350  145.9860 O   0  0  0  0  0  1  0  0  0  0  0  0
  162.7930  204.1720  145.0050 C   0  0  0  0  0  2  0  0  0  0  0  0
  160.9770  212.3360  151.9330 C   0  0  0  0  0  2  0  0  0  0  0  0
  159.8930  212.5210  151.0740 O   0  0  0  0  0  0  0  0  0  0  0  0
  159.5150  213.8060  151.2720 N   0  0  0  0  0  2  0  0  0  0  0  0
  159.5290  214.4530  149.9710 C   0  0  0  0  0  2  0  0  0  0  0  0
  159.4010  213.4000  148.8690 C   0  0  0  0  0  2  0  0  0  0  0  0
  159.7860  213.8930  147.5340 N   0  0  0  0  0  0  0  0  0  0  0  0
  160.1670  212.9200  145.0380 S   0  0  0  0  0  0  0  0  0  0  0  0
  161.4400  213.9440  145.8030 C   0  0  0  0  0  2  0  0  0  0  0  0
  161.2310  213.8150  147.2900 C   0  0  2  0  0  3  0  0  0  0  0  0
  159.0360  213.2330  146.4480 C   0  0  2  0  0  3  0  0  0  0  0  0
  157.9810  214.1730  144.5520 C   0  0  0  0  0  1  0  0  0  0  0  0
  157.9120  214.0710  146.0020 N   0  0  0  0  0  0  0  0  0  0  0  0
  156.6530  213.3940  146.2720 C   0  0  0  0  0  1  0  0  0  0  0  0
  161.7720  212.5950  147.7200 O   0  0  0  0  0  0  0  0  0  0  0  0
  163.1260  212.8600  147.9390 C   0  0  0  0  0  1  0  0  0  0  0  0
  1 10  1  0  0  0  0
  2  4  2  0  0  0  0
  3  2  1  0  0  0  0
  3  6  1  0  0  0  0
  4  5  1  0  0  0  0
  4 13  1  0  0  0  0
  5 11  1  0  0  0  0
  6  9  1  0  0  0  0
  6  5  2  0  0  0  0
  9  1  1  0  0  0  0
  9 10  2  0  0  0  0
 10 12  1  0  0  0  0
 11 12  2  0  0  0  0
 11  7  1  0  0  0  0
 12  8  1  0  0  0  0
 14 13  1  0  0  0  0
 15 16  1  6  0  0  0
 15  3  1  0  0  0  0
 17 15  1  0  0  0  0
 18 20  2  0  0  0  0
 18 21  1  0  0  0  0
 19 22  1  0  0  0  0
 19 17  1  0  0  0  0
 20 23  1  0  0  0  0
 21 19  2  0  0  0  0
 22 24  1  0  0  0  0
 23 22  2  0  0  0  0
 24 25  1  0  0  0  0
 26 30  1  0  0  0  0
 26 25  1  6  0  0  0
 27 28  1  6  0  0  0
 27 32  1  0  0  0  0
 27 30  1  0  0  0  0
 29 34  1  6  0  0  0
 29 31  1  0  0  0  0
 29 27  1  0  0  0  0
 31 26  1  0  0  0  0
 32 33  1  0  0  0  0
 32 30  1  0  0  0  0
 35 34  1  0  0  0  0
 36 35  1  0  0  0  0
 37 36  1  0  0  0  0
 38 36  1  0  0  0  0
 40 36  1  0  0  0  0
 40 39  1  0  0  0  0
 41  2  1  0  0  0  0
 42 43  1  0  0  0  0
 42 41  1  0  0  0  0
 44 43  1  0  0  0  0
 45 44  1  0  0  0  0
 46 45  1  0  0  0  0
 47 48  1  0  0  0  0
 47 50  1  0  0  0  0
 48 49  1  0  0  0  0
 49 46  1  0  0  0  0
 49 54  1  0  0  0  0
 50 46  1  0  0  0  0
 51 52  1  0  0  0  0
 52 53  1  0  0  0  0
 52 50  1  0  0  0  0
 54 55  1  0  0  0  0
M  END
>  <MODEL>
3

>  <REMARK>
 VINA RESULT:      -3.5      2.129      8.475
  Name = 
  19 active torsions:
  status: ('A' for Active; 'I' for Inactive)
    1  A    between atoms: C_2  and  O_46
    2  A    between atoms: O_4  and  C_23
    3  A    between atoms: C_5  and  N_10
    4  A    between atoms: C_5  and  C_50
    5  A    between atoms: C_7  and  O_35
    6  A    between atoms: C_7  and  C_49
    7  A    between atoms: C_9  and  C_54
    8  A    between atoms: N_11  and  C_32
    9  A    between atoms: C_13  and  C_50
   10  A    between atoms: C_15  and  C_21
   11  A    between atoms: N_18  and  C_39
   12  A    between atoms: N_18  and  O_46
   13  A    between atoms: O_20  and  N_48
   14  A    between atoms: O_20  and  C_54
   15  A    between atoms: C_26  and  C_51
   16  A    between atoms: C_32  and  C_34
   17  A    between atoms: N_33  and  C_45
   18  A    between atoms: C_34  and  N_48
   19  A    between atoms: O_35  and  C_51
                            x       y       z     vdW  Elec       q    Type
                         _______ _______ _______ _____ _____    ______ ____

>  <TORSDO>
F 19

$$$$
