=
 OpenBabel11042421143D

 32 37  0  0  1  0  0  0  0  0999 V2000
  161.7990  210.5480  149.5520 C   0  0  0  0  0  0  0  0  0  0  0  0
  161.9350  209.4460  148.8650 N   0  0  0  0  0  0  0  0  0  0  0  0
  162.1260  210.1290  156.0880 N   0  0  0  0  0  1  0  0  0  0  0  0
  160.2210  210.9290  152.9690 C   0  0  0  0  0  0  0  0  0  0  0  0
  159.0010  211.3120  153.5270 C   0  0  0  0  0  3  0  0  0  0  0  0
  158.8500  211.2940  154.9130 C   0  0  0  0  0  3  0  0  0  0  0  0
  162.6680  210.1570  151.8550 C   0  0  0  0  0  3  0  0  0  0  0  0
  160.3930  210.9410  151.5840 C   0  0  0  0  0  3  0  0  0  0  0  0
  161.6230  210.5730  151.0190 C   0  0  0  0  0  0  0  0  0  0  0  0
  162.5040  210.1390  153.2430 C   0  0  0  0  0  3  0  0  0  0  0  0
  161.0840  210.5260  155.2000 C   0  0  0  0  0  0  0  0  0  0  0  0
  161.2830  210.5280  153.8100 C   0  0  0  0  0  0  0  0  0  0  0  0
  159.8810  210.9070  155.7110 N   0  0  0  0  0  0  0  0  0  0  0  0
  163.3610  213.2320  147.3440 N   0  0  0  0  0  2  0  0  0  0  0  0
  162.2860  213.0830  146.3730 C   0  0  2  0  0  3  0  0  0  0  0  0
  163.2990  212.0470  148.2130 C   0  0  0  0  0  2  0  0  0  0  0  0
  160.1170  213.3880  145.9300 C   0  0  0  0  0  2  0  0  0  0  0  0
  161.8960  211.8610  148.8370 C   0  0  1  0  0  3  0  0  0  0  0  0
  162.3330  214.0700  145.3120 N   0  0  0  0  0  0  0  0  0  0  0  0
  160.9360  214.1420  144.8880 C   0  0  0  0  0  2  0  0  0  0  0  0
  163.0760  213.4810  144.2120 C   0  0  0  0  0  1  0  0  0  0  0  0
  160.7930  211.9950  147.7730 C   0  0  0  0  0  2  0  0  0  0  0  0
  161.0180  213.2360  147.0490 N   0  0  1  0  0  0  0  0  0  0  0  0
  161.7750  208.0960  149.3280 C   0  0  0  0  0  0  0  0  0  0  0  0
  161.7900  205.5240  151.7330 C   0  0  0  0  0  3  0  0  0  0  0  0
  161.3560  204.1970  151.5810 C   0  0  0  0  0  3  0  0  0  0  0  0
  161.1530  207.0220  148.4680 C   0  0  0  0  0  2  0  0  0  0  0  0
  162.0400  207.7290  150.5490 N   0  0  0  0  0  0  0  0  0  0  0  0
  160.8280  203.7710  150.3440 C   0  0  0  0  0  3  0  0  0  0  0  0
  160.7360  204.6390  149.2930 N   0  0  0  0  0  0  0  0  0  0  0  0
  161.6750  206.3660  150.6320 C   0  0  0  0  0  0  0  0  0  0  0  0
  161.1600  205.9180  149.4530 C   0  0  0  0  0  0  0  0  0  0  0  0
  1  9  1  0  0  0  0
  2 24  1  0  0  0  0
  2  1  2  0  0  0  0
  4  5  2  0  0  0  0
  4 12  1  0  0  0  0
  5  6  1  0  0  0  0
  6 13  2  0  0  0  0
  7 10  2  0  0  0  0
  8  4  1  0  0  0  0
  9  8  2  0  0  0  0
  9  7  1  0  0  0  0
 10 12  1  0  0  0  0
 11 13  1  0  0  0  0
 11  3  1  0  0  0  0
 12 11  2  0  0  0  0
 14 16  1  0  0  0  0
 15 23  1  0  0  0  0
 15 14  1  1  0  0  0
 16 18  1  0  0  0  0
 18  1  1  6  0  0  0
 19 15  1  0  0  0  0
 20 19  1  0  0  0  0
 20 17  1  0  0  0  0
 21 19  1  0  0  0  0
 22 18  1  0  0  0  0
 23 17  1  6  0  0  0
 23 22  1  0  0  0  0
 24 28  2  0  0  0  0
 26 25  1  0  0  0  0
 27 24  1  0  0  0  0
 27 32  1  0  0  0  0
 28 31  1  0  0  0  0
 29 26  2  0  0  0  0
 30 32  2  0  0  0  0
 30 29  1  0  0  0  0
 31 25  2  0  0  0  0
 32 31  1  0  0  0  0
M  END
>  <MODEL>
1

>  <REMARK>
 VINA RESULT:      -7.7      0.000      0.000
  Name = 
  3 active torsions:
  status: ('A' for Active; 'I' for Inactive)
    1  A    between atoms: C_5  and  N_32
    2  A    between atoms: C_12  and  C_16
    3  A    between atoms: C_16  and  C_17
                            x       y       z     vdW  Elec       q    Type
                         _______ _______ _______ _____ _____    ______ ____

>  <TORSDO>
F 3

$$$$
=
 OpenBabel11042421143D

 32 37  0  0  1  0  0  0  0  0999 V2000
  161.7020  210.3450  150.3820 C   0  0  0  0  0  0  0  0  0  0  0  0
  161.9310  209.2110  149.7760 N   0  0  0  0  0  0  0  0  0  0  0  0
  158.5750  211.0350  156.1040 N   0  0  0  0  0  1  0  0  0  0  0  0
  161.7260  210.4960  154.1620 C   0  0  0  0  0  0  0  0  0  0  0  0
  162.6420  210.4130  155.2110 C   0  0  0  0  0  3  0  0  0  0  0  0
  162.1870  210.5370  156.5240 C   0  0  0  0  0  3  0  0  0  0  0  0
  159.8880  210.6650  152.0600 C   0  0  0  0  0  3  0  0  0  0  0  0
  162.1610  210.3730  152.8420 C   0  0  0  0  0  3  0  0  0  0  0  0
  161.2420  210.4370  151.7840 C   0  0  0  0  0  0  0  0  0  0  0  0
  159.4440  210.7920  153.3800 C   0  0  0  0  0  3  0  0  0  0  0  0
  159.9460  210.8230  155.7760 C   0  0  0  0  0  0  0  0  0  0  0  0
  160.3570  210.7040  154.4390 C   0  0  0  0  0  0  0  0  0  0  0  0
  160.8650  210.7370  156.7760 N   0  0  0  0  0  0  0  0  0  0  0  0
  163.2500  212.6010  147.7300 N   0  0  0  0  0  2  0  0  0  0  0  0
  161.9330  212.8890  147.1820 C   0  0  2  0  0  3  0  0  0  0  0  0
  163.0890  211.4190  148.5890 C   0  0  0  0  0  2  0  0  0  0  0  0
  159.9630  213.8980  147.4910 C   0  0  0  0  0  2  0  0  0  0  0  0
  161.9850  211.6230  149.6540 C   0  0  1  0  0  3  0  0  0  0  0  0
  161.9530  213.9070  146.1500 N   0  0  0  0  0  0  0  0  0  0  0  0
  160.5980  214.4530  146.2200 C   0  0  0  0  0  2  0  0  0  0  0  0
  162.0630  213.2220  144.8740 C   0  0  0  0  0  1  0  0  0  0  0  0
  160.7050  212.1960  149.0210 C   0  0  0  0  0  2  0  0  0  0  0  0
  161.0750  213.3660  148.2430 N   0  0  1  0  0  0  0  0  0  0  0  0
  161.6340  207.8870  150.2460 C   0  0  0  0  0  0  0  0  0  0  0  0
  160.3530  204.6180  149.9760 C   0  0  0  0  0  3  0  0  0  0  0  0
  160.4850  203.5600  150.8910 C   0  0  0  0  0  3  0  0  0  0  0  0
  162.1950  207.3510  151.5410 C   0  0  0  0  0  2  0  0  0  0  0  0
  160.9670  207.0190  149.5420 N   0  0  0  0  0  0  0  0  0  0  0  0
  161.2150  203.7540  152.0830 C   0  0  0  0  0  3  0  0  0  0  0  0
  161.7940  204.9610  152.3550 N   0  0  0  0  0  0  0  0  0  0  0  0
  160.9610  205.8260  150.3010 C   0  0  0  0  0  0  0  0  0  0  0  0
  161.6580  205.9750  151.4630 C   0  0  0  0  0  0  0  0  0  0  0  0
  1  9  1  0  0  0  0
  2 24  1  0  0  0  0
  2  1  2  0  0  0  0
  4 12  1  0  0  0  0
  4  5  2  0  0  0  0
  5  6  1  0  0  0  0
  6 13  2  0  0  0  0
  7 10  2  0  0  0  0
  8  4  1  0  0  0  0
  9  7  1  0  0  0  0
  9  8  2  0  0  0  0
 10 12  1  0  0  0  0
 11  3  1  0  0  0  0
 11 13  1  0  0  0  0
 12 11  2  0  0  0  0
 14 16  1  0  0  0  0
 15 14  1  1  0  0  0
 15 23  1  0  0  0  0
 16 18  1  0  0  0  0
 18  1  1  6  0  0  0
 19 20  1  0  0  0  0
 19 15  1  0  0  0  0
 20 17  1  0  0  0  0
 21 19  1  0  0  0  0
 22 18  1  0  0  0  0
 23 17  1  6  0  0  0
 23 22  1  0  0  0  0
 24 27  1  0  0  0  0
 25 31  2  0  0  0  0
 25 26  1  0  0  0  0
 26 29  2  0  0  0  0
 28 24  2  0  0  0  0
 28 31  1  0  0  0  0
 29 30  1  0  0  0  0
 31 32  1  0  0  0  0
 32 27  1  0  0  0  0
 32 30  2  0  0  0  0
M  END
>  <MODEL>
2

>  <REMARK>
 VINA RESULT:      -7.5      1.220      2.035
  Name = 
  3 active torsions:
  status: ('A' for Active; 'I' for Inactive)
    1  A    between atoms: C_5  and  N_32
    2  A    between atoms: C_12  and  C_16
    3  A    between atoms: C_16  and  C_17
                            x       y       z     vdW  Elec       q    Type
                         _______ _______ _______ _____ _____    ______ ____

>  <TORSDO>
F 3

$$$$
=
 OpenBabel11042421143D

 32 37  0  0  1  0  0  0  0  0999 V2000
  162.0220  209.6820  150.8960 C   0  0  0  0  0  0  0  0  0  0  0  0
  162.0400  210.9270  150.5020 N   0  0  0  0  0  0  0  0  0  0  0  0
  162.0630  205.4340  145.9010 N   0  0  0  0  0  1  0  0  0  0  0  0
  161.4280  206.2150  149.5040 C   0  0  0  0  0  0  0  0  0  0  0  0
  160.9860  204.9670  149.9440 C   0  0  0  0  0  3  0  0  0  0  0  0
  160.9140  203.9100  149.0360 C   0  0  0  0  0  3  0  0  0  0  0  0
  162.3120  208.7160  148.6170 C   0  0  0  0  0  3  0  0  0  0  0  0
  161.5090  207.2840  150.3970 C   0  0  0  0  0  3  0  0  0  0  0  0
  161.9700  208.5370  149.9630 C   0  0  0  0  0  0  0  0  0  0  0  0
  162.2320  207.6510  147.7160 C   0  0  0  0  0  3  0  0  0  0  0  0
  161.7050  205.3010  147.2740 C   0  0  0  0  0  0  0  0  0  0  0  0
  161.7940  206.3940  148.1510 C   0  0  0  0  0  0  0  0  0  0  0  0
  161.2700  204.0970  147.7370 N   0  0  0  0  0  0  0  0  0  0  0  0
  161.8310  210.3790  154.6370 N   0  0  0  0  0  2  0  0  0  0  0  0
  160.7740  209.3880  154.7850 C   0  0  2  0  0  3  0  0  0  0  0  0
  161.9240  210.6700  153.1990 C   0  0  0  0  0  2  0  0  0  0  0  0
  160.2260  207.2220  154.7350 C   0  0  0  0  0  2  0  0  0  0  0  0
  162.1300  209.3860  152.3610 C   0  0  1  0  0  3  0  0  0  0  0  0
  160.4130  209.1390  156.1670 N   0  0  0  0  0  0  0  0  0  0  0  0
  159.8790  207.7790  156.1120 C   0  0  0  0  0  2  0  0  0  0  0  0
  159.2990  210.0150  156.4840 C   0  0  0  0  0  1  0  0  0  0  0  0
  161.1390  208.2870  152.7790 C   0  0  0  0  0  2  0  0  0  0  0  0
  161.2210  208.1350  154.2230 N   0  0  1  0  0  0  0  0  0  0  0  0
  161.8460  211.4310  149.1720 C   0  0  0  0  0  0  0  0  0  0  0  0
  159.9390  212.4170  146.3800 C   0  0  0  0  0  3  0  0  0  0  0  0
  160.3880  213.0460  145.2060 C   0  0  0  0  0  3  0  0  0  0  0  0
  162.9730  212.0390  148.3710 C   0  0  0  0  0  2  0  0  0  0  0  0
  160.6750  211.5110  148.6090 N   0  0  0  0  0  0  0  0  0  0  0  0
  161.7550  213.3610  145.0600 C   0  0  0  0  0  3  0  0  0  0  0  0
  162.6470  213.0600  146.0510 N   0  0  0  0  0  0  0  0  0  0  0  0
  160.8880  212.1320  147.3560 C   0  0  0  0  0  0  0  0  0  0  0  0
  162.2010  212.4510  147.1790 C   0  0  0  0  0  0  0  0  0  0  0  0
  2  1  2  0  0  0  0
  3 11  1  0  0  0  0
  4  5  1  0  0  0  0
  4  8  1  0  0  0  0
  6  5  2  0  0  0  0
  7  9  1  0  0  0  0
  9  8  2  0  0  0  0
  9  1  1  0  0  0  0
 10 12  1  0  0  0  0
 10  7  2  0  0  0  0
 11 13  2  0  0  0  0
 11 12  1  0  0  0  0
 12  4  2  0  0  0  0
 13  6  1  0  0  0  0
 15 14  1  1  0  0  0
 15 19  1  0  0  0  0
 16 14  1  0  0  0  0
 17 20  1  0  0  0  0
 18  1  1  6  0  0  0
 18 22  1  0  0  0  0
 18 16  1  0  0  0  0
 19 21  1  0  0  0  0
 20 19  1  0  0  0  0
 23 22  1  6  0  0  0
 23 17  1  0  0  0  0
 23 15  1  0  0  0  0
 24  2  1  0  0  0  0
 25 31  1  0  0  0  0
 26 25  2  0  0  0  0
 27 24  1  0  0  0  0
 28 24  2  0  0  0  0
 29 26  1  0  0  0  0
 29 30  2  0  0  0  0
 30 32  1  0  0  0  0
 31 28  1  0  0  0  0
 32 31  2  0  0  0  0
 32 27  1  0  0  0  0
M  END
>  <MODEL>
3

>  <REMARK>
 VINA RESULT:      -7.3      1.744      8.140
  Name = 
  3 active torsions:
  status: ('A' for Active; 'I' for Inactive)
    1  A    between atoms: C_5  and  N_32
    2  A    between atoms: C_12  and  C_16
    3  A    between atoms: C_16  and  C_17
                            x       y       z     vdW  Elec       q    Type
                         _______ _______ _______ _____ _____    ______ ____

>  <TORSDO>
F 3

$$$$
=
 OpenBabel11042421143D

 32 37  0  0  1  0  0  0  0  0999 V2000
  161.8120  209.2500  150.7140 C   0  0  0  0  0  0  0  0  0  0  0  0
  161.9610  208.2820  149.8500 N   0  0  0  0  0  0  0  0  0  0  0  0
  159.9720  207.3360  156.7100 N   0  0  0  0  0  1  0  0  0  0  0  0
  161.7730  209.7280  154.4670 C   0  0  0  0  0  0  0  0  0  0  0  0
  162.2660  210.6210  155.4170 C   0  0  0  0  0  3  0  0  0  0  0  0
  161.9880  210.4040  156.7670 C   0  0  0  0  0  3  0  0  0  0  0  0
  160.7800  207.9350  152.5620 C   0  0  0  0  0  3  0  0  0  0  0  0
  162.0410  209.9280  153.1120 C   0  0  0  0  0  3  0  0  0  0  0  0
  161.5620  209.0230  152.1530 C   0  0  0  0  0  0  0  0  0  0  0  0
  160.5040  207.7290  153.9170 C   0  0  0  0  0  3  0  0  0  0  0  0
  160.7460  208.4400  156.2470 C   0  0  0  0  0  0  0  0  0  0  0  0
  161.0000  208.6190  154.8780 C   0  0  0  0  0  0  0  0  0  0  0  0
  161.2430  209.3310  157.1490 N   0  0  0  0  0  0  0  0  0  0  0  0
  162.3640  212.0800  148.2220 N   0  0  0  0  0  2  0  0  0  0  0  0
  161.0290  212.5970  148.4870 C   0  0  2  0  0  3  0  0  0  0  0  0
  162.3890  210.7110  148.7590 C   0  0  0  0  0  2  0  0  0  0  0  0
  159.6710  213.5930  149.9570 C   0  0  0  0  0  2  0  0  0  0  0  0
  161.9710  210.6650  150.2470 C   0  0  1  0  0  3  0  0  0  0  0  0
  160.7690  213.8680  147.8410 N   0  0  0  0  0  0  0  0  0  0  0  0
  159.7400  214.4530  148.7000 C   0  0  0  0  0  2  0  0  0  0  0  0
  160.1360  213.5780  146.5660 C   0  0  0  0  0  1  0  0  0  0  0  0
  160.6860  211.4760  150.4860 C   0  0  0  0  0  2  0  0  0  0  0  0
  160.8750  212.7970  149.9110 N   0  0  1  0  0  0  0  0  0  0  0  0
  161.7500  206.8780  150.0590 C   0  0  0  0  0  0  0  0  0  0  0  0
  161.6770  203.9080  151.9510 C   0  0  0  0  0  3  0  0  0  0  0  0
  161.1900  202.6490  151.5630 C   0  0  0  0  0  3  0  0  0  0  0  0
  161.0810  206.0040  149.0250 C   0  0  0  0  0  2  0  0  0  0  0  0
  162.0070  206.2830  151.1890 N   0  0  0  0  0  0  0  0  0  0  0  0
  160.6390  202.4780  150.2760 C   0  0  0  0  0  3  0  0  0  0  0  0
  160.5750  203.5270  149.4030 N   0  0  0  0  0  0  0  0  0  0  0  0
  161.5890  204.9420  151.0250 C   0  0  0  0  0  0  0  0  0  0  0  0
  161.0500  204.7380  149.7900 C   0  0  0  0  0  0  0  0  0  0  0  0
  1  9  1  0  0  0  0
  2 24  1  0  0  0  0
  2  1  2  0  0  0  0
  4 12  1  0  0  0  0
  4  5  2  0  0  0  0
  5  6  1  0  0  0  0
  6 13  2  0  0  0  0
  7 10  2  0  0  0  0
  8  4  1  0  0  0  0
  9  7  1  0  0  0  0
  9  8  2  0  0  0  0
 10 12  1  0  0  0  0
 11  3  1  0  0  0  0
 11 13  1  0  0  0  0
 12 11  2  0  0  0  0
 14 16  1  0  0  0  0
 15 14  1  1  0  0  0
 15 23  1  0  0  0  0
 16 18  1  0  0  0  0
 18 22  1  0  0  0  0
 18  1  1  6  0  0  0
 19 15  1  0  0  0  0
 19 20  1  0  0  0  0
 20 17  1  0  0  0  0
 21 19  1  0  0  0  0
 23 17  1  6  0  0  0
 23 22  1  0  0  0  0
 24 28  2  0  0  0  0
 26 25  1  0  0  0  0
 27 32  1  0  0  0  0
 27 24  1  0  0  0  0
 29 26  2  0  0  0  0
 30 32  2  0  0  0  0
 30 29  1  0  0  0  0
 31 28  1  0  0  0  0
 31 25  2  0  0  0  0
 32 31  1  0  0  0  0
M  END
>  <MODEL>
4

>  <REMARK>
 VINA RESULT:      -6.9      1.737      2.524
  Name = 
  3 active torsions:
  status: ('A' for Active; 'I' for Inactive)
    1  A    between atoms: C_5  and  N_32
    2  A    between atoms: C_12  and  C_16
    3  A    between atoms: C_16  and  C_17
                            x       y       z     vdW  Elec       q    Type
                         _______ _______ _______ _____ _____    ______ ____

>  <TORSDO>
F 3

$$$$
=
 OpenBabel11042421143D

 32 37  0  0  1  0  0  0  0  0999 V2000
  161.7500  209.9960  150.2140 C   0  0  0  0  0  0  0  0  0  0  0  0
  162.0600  208.9520  149.4930 N   0  0  0  0  0  0  0  0  0  0  0  0
  159.5370  210.8140  156.3320 N   0  0  0  0  0  1  0  0  0  0  0  0
  160.8360  208.6010  153.6100 C   0  0  0  0  0  0  0  0  0  0  0  0
  160.8280  207.3750  154.2740 C   0  0  0  0  0  3  0  0  0  0  0  0
  160.3930  207.3200  155.5990 C   0  0  0  0  0  3  0  0  0  0  0  0
  160.8540  211.0620  152.2800 C   0  0  0  0  0  3  0  0  0  0  0  0
  161.2670  208.6760  152.2840 C   0  0  0  0  0  3  0  0  0  0  0  0
  161.2600  209.9040  151.6050 C   0  0  0  0  0  0  0  0  0  0  0  0
  160.4240  210.9960  153.6080 C   0  0  0  0  0  3  0  0  0  0  0  0
  159.9780  209.6640  155.6140 C   0  0  0  0  0  0  0  0  0  0  0  0
  160.4070  209.7680  154.2810 C   0  0  0  0  0  0  0  0  0  0  0  0
  159.9820  208.4510  156.2330 N   0  0  0  0  0  0  0  0  0  0  0  0
  163.2210  212.6240  147.8800 N   0  0  0  0  0  2  0  0  0  0  0  0
  161.9040  212.8840  147.3150 C   0  0  2  0  0  3  0  0  0  0  0  0
  163.1150  211.3470  148.6010 C   0  0  0  0  0  2  0  0  0  0  0  0
  159.8610  213.7230  147.6540 C   0  0  0  0  0  2  0  0  0  0  0  0
  161.9670  211.3620  149.6380 C   0  0  1  0  0  3  0  0  0  0  0  0
  161.8860  214.0080  146.3990 N   0  0  0  0  0  0  0  0  0  0  0  0
  160.4960  214.4530  146.4760 C   0  0  0  0  0  2  0  0  0  0  0  0
  162.0840  213.4740  145.0630 C   0  0  0  0  0  1  0  0  0  0  0  0
  160.6710  211.9150  149.0210 C   0  0  0  0  0  2  0  0  0  0  0  0
  160.9830  213.1860  148.3870 N   0  0  1  0  0  0  0  0  0  0  0  0
  161.8370  207.5690  149.8070 C   0  0  0  0  0  0  0  0  0  0  0  0
  161.9660  204.6970  151.8410 C   0  0  0  0  0  3  0  0  0  0  0  0
  161.3790  203.4430  151.6030 C   0  0  0  0  0  3  0  0  0  0  0  0
  160.9800  206.6770  148.9390 C   0  0  0  0  0  2  0  0  0  0  0  0
  162.2510  207.0170  150.9110 N   0  0  0  0  0  0  0  0  0  0  0  0
  160.6230  203.2350  150.4300 C   0  0  0  0  0  3  0  0  0  0  0  0
  160.4560  204.2450  149.5240 N   0  0  0  0  0  0  0  0  0  0  0  0
  161.7660  205.6890  150.8870 C   0  0  0  0  0  0  0  0  0  0  0  0
  161.0290  205.4510  149.7660 C   0  0  0  0  0  0  0  0  0  0  0  0
  1  9  1  0  0  0  0
  2 24  1  0  0  0  0
  2  1  2  0  0  0  0
  4  5  2  0  0  0  0
  4 12  1  0  0  0  0
  5  6  1  0  0  0  0
  6 13  2  0  0  0  0
  7 10  2  0  0  0  0
  8  4  1  0  0  0  0
  9  7  1  0  0  0  0
  9  8  2  0  0  0  0
 10 12  1  0  0  0  0
 11 13  1  0  0  0  0
 11  3  1  0  0  0  0
 12 11  2  0  0  0  0
 14 16  1  0  0  0  0
 15 14  1  1  0  0  0
 15 23  1  0  0  0  0
 16 18  1  0  0  0  0
 18  1  1  6  0  0  0
 19 20  1  0  0  0  0
 19 15  1  0  0  0  0
 20 17  1  0  0  0  0
 21 19  1  0  0  0  0
 22 18  1  0  0  0  0
 23 17  1  6  0  0  0
 23 22  1  0  0  0  0
 24 28  2  0  0  0  0
 26 25  1  0  0  0  0
 27 32  1  0  0  0  0
 27 24  1  0  0  0  0
 29 26  2  0  0  0  0
 30 32  2  0  0  0  0
 30 29  1  0  0  0  0
 31 28  1  0  0  0  0
 31 25  2  0  0  0  0
 32 31  1  0  0  0  0
M  END
>  <MODEL>
5

>  <REMARK>
 VINA RESULT:      -6.8      1.394      1.766
  Name = 
  3 active torsions:
  status: ('A' for Active; 'I' for Inactive)
    1  A    between atoms: C_5  and  N_32
    2  A    between atoms: C_12  and  C_16
    3  A    between atoms: C_16  and  C_17
                            x       y       z     vdW  Elec       q    Type
                         _______ _______ _______ _____ _____    ______ ____

>  <TORSDO>
F 3

$$$$
=
 OpenBabel11042421143D

 32 37  0  0  1  0  0  0  0  0999 V2000
  161.4410  208.8970  152.4280 C   0  0  0  0  0  0  0  0  0  0  0  0
  161.2160  208.8900  153.7140 N   0  0  0  0  0  0  0  0  0  0  0  0
  159.7470  214.4520  149.3820 N   0  0  0  0  0  1  0  0  0  0  0  0
  161.8940  211.3980  149.6260 C   0  0  0  0  0  0  0  0  0  0  0  0
  162.6980  211.5810  148.5010 C   0  0  0  0  0  3  0  0  0  0  0  0
  162.5040  212.7070  147.7000 C   0  0  0  0  0  3  0  0  0  0  0  0
  160.2790  211.0330  151.8810 C   0  0  0  0  0  3  0  0  0  0  0  0
  162.0740  210.2790  150.4400 C   0  0  0  0  0  3  0  0  0  0  0  0
  161.2800  210.0990  151.5830 C   0  0  0  0  0  0  0  0  0  0  0  0
  160.0920  212.1550  151.0690 C   0  0  0  0  0  3  0  0  0  0  0  0
  160.7390  213.4660  149.1050 C   0  0  0  0  0  0  0  0  0  0  0  0
  160.8980  212.3490  149.9400 C   0  0  0  0  0  0  0  0  0  0  0  0
  161.5410  213.6150  148.0150 N   0  0  0  0  0  0  0  0  0  0  0  0
  162.2630  205.1900  152.1120 N   0  0  0  0  0  2  0  0  0  0  0  0
  161.3190  205.0570  151.0110 C   0  0  2  0  0  3  0  0  0  0  0  0
  161.9470  206.4650  152.7730 C   0  0  0  0  0  2  0  0  0  0  0  0
  160.8480  205.5630  148.8860 C   0  0  0  0  0  2  0  0  0  0  0  0
  161.9560  207.6500  151.7780 C   0  0  1  0  0  3  0  0  0  0  0  0
  161.3600  203.7540  150.3770 N   0  0  0  0  0  0  0  0  0  0  0  0
  160.8750  204.0450  149.0290 C   0  0  0  0  0  2  0  0  0  0  0  0
  160.3480  202.9330  151.0190 C   0  0  0  0  0  1  0  0  0  0  0  0
  161.1540  207.3130  150.5090 C   0  0  0  0  0  2  0  0  0  0  0  0
  161.6350  206.0400  149.9990 N   0  0  1  0  0  0  0  0  0  0  0  0
  160.6280  209.9300  154.5100 C   0  0  0  0  0  0  0  0  0  0  0  0
  158.0380  211.4900  156.3150 C   0  0  0  0  0  3  0  0  0  0  0  0
  158.1140  212.6460  157.1110 C   0  0  0  0  0  3  0  0  0  0  0  0
  161.4540  211.0410  155.1140 C   0  0  0  0  0  2  0  0  0  0  0  0
  159.3760  209.9280  154.8670 N   0  0  0  0  0  0  0  0  0  0  0  0
  159.3480  213.3120  157.2610 C   0  0  0  0  0  3  0  0  0  0  0  0
  160.4710  212.8430  156.6380 N   0  0  0  0  0  0  0  0  0  0  0  0
  159.2090  211.0560  155.7030 C   0  0  0  0  0  0  0  0  0  0  0  0
  160.3830  211.7270  155.8700 C   0  0  0  0  0  0  0  0  0  0  0  0
  1  2  2  0  0  0  0
  2 24  1  0  0  0  0
  4 12  2  0  0  0  0
  4  8  1  0  0  0  0
  5  4  1  0  0  0  0
  6 13  1  0  0  0  0
  6  5  2  0  0  0  0
  8  9  2  0  0  0  0
  9  7  1  0  0  0  0
  9  1  1  0  0  0  0
 10  7  2  0  0  0  0
 11  3  1  0  0  0  0
 11 12  1  0  0  0  0
 12 10  1  0  0  0  0
 13 11  2  0  0  0  0
 14 16  1  0  0  0  0
 15 14  1  1  0  0  0
 17 20  1  0  0  0  0
 18  1  1  1  0  0  0
 18 16  1  0  0  0  0
 19 15  1  0  0  0  0
 19 21  1  0  0  0  0
 20 19  1  0  0  0  0
 22 18  1  0  0  0  0
 23 17  1  6  0  0  0
 23 22  1  0  0  0  0
 23 15  1  0  0  0  0
 24 28  2  0  0  0  0
 24 27  1  0  0  0  0
 25 26  1  0  0  0  0
 26 29  2  0  0  0  0
 27 32  1  0  0  0  0
 28 31  1  0  0  0  0
 30 29  1  0  0  0  0
 31 32  1  0  0  0  0
 31 25  2  0  0  0  0
 32 30  2  0  0  0  0
M  END
>  <MODEL>
6

>  <REMARK>
 VINA RESULT:      -6.4      1.842      7.739
  Name = 
  3 active torsions:
  status: ('A' for Active; 'I' for Inactive)
    1  A    between atoms: C_5  and  N_32
    2  A    between atoms: C_12  and  C_16
    3  A    between atoms: C_16  and  C_17
                            x       y       z     vdW  Elec       q    Type
                         _______ _______ _______ _____ _____    ______ ____

>  <TORSDO>
F 3

$$$$
=
 OpenBabel11042421143D

 32 37  0  0  1  0  0  0  0  0999 V2000
  161.4740  208.7400  152.3510 C   0  0  0  0  0  0  0  0  0  0  0  0
  161.2550  208.7280  153.6380 N   0  0  0  0  0  0  0  0  0  0  0  0
  161.7040  213.6040  147.9590 N   0  0  0  0  0  1  0  0  0  0  0  0
  160.4060  212.1680  151.1610 C   0  0  0  0  0  0  0  0  0  0  0  0
  159.5860  213.2170  151.5770 C   0  0  0  0  0  3  0  0  0  0  0  0
  159.4890  214.3620  150.7860 C   0  0  0  0  0  3  0  0  0  0  0  0
  162.0540  210.0690  150.3240 C   0  0  0  0  0  3  0  0  0  0  0  0
  160.5160  211.0140  151.9370 C   0  0  0  0  0  3  0  0  0  0  0  0
  161.3250  209.9490  151.5140 C   0  0  0  0  0  0  0  0  0  0  0  0
  161.9520  211.2220  149.5410 C   0  0  0  0  0  3  0  0  0  0  0  0
  160.9970  213.4490  149.1870 C   0  0  0  0  0  0  0  0  0  0  0  0
  161.1260  212.2770  149.9500 C   0  0  0  0  0  0  0  0  0  0  0  0
  160.1870  214.4530  149.6230 N   0  0  0  0  0  0  0  0  0  0  0  0
  162.2400  205.0230  152.0070 N   0  0  0  0  0  2  0  0  0  0  0  0
  161.2930  204.9130  150.9060 C   0  0  2  0  0  3  0  0  0  0  0  0
  161.9450  206.2980  152.6770 C   0  0  0  0  0  2  0  0  0  0  0  0
  160.8280  205.4420  148.7850 C   0  0  0  0  0  2  0  0  0  0  0  0
  161.9710  207.4900  151.6910 C   0  0  1  0  0  3  0  0  0  0  0  0
  161.3140  203.6140  150.2620 N   0  0  0  0  0  0  0  0  0  0  0  0
  160.8320  203.9230  148.9160 C   0  0  0  0  0  2  0  0  0  0  0  0
  160.2910  202.8040  150.8990 C   0  0  0  0  0  1  0  0  0  0  0  0
  161.1620  207.1750  150.4210 C   0  0  0  0  0  2  0  0  0  0  0  0
  161.6230  205.8980  149.9010 N   0  0  1  0  0  0  0  0  0  0  0  0
  160.6860  209.7710  154.4430 C   0  0  0  0  0  0  0  0  0  0  0  0
  158.0890  211.4220  156.1560 C   0  0  0  0  0  3  0  0  0  0  0  0
  158.1870  212.5370  157.0060 C   0  0  0  0  0  3  0  0  0  0  0  0
  161.5390  210.8000  155.1450 C   0  0  0  0  0  2  0  0  0  0  0  0
  159.4150  209.8370  154.7230 N   0  0  0  0  0  0  0  0  0  0  0  0
  159.4490  213.1140  157.2600 C   0  0  0  0  0  3  0  0  0  0  0  0
  160.5770  212.5980  156.6860 N   0  0  0  0  0  0  0  0  0  0  0  0
  159.2670  210.9380  155.5970 C   0  0  0  0  0  0  0  0  0  0  0  0
  160.4680  211.5230  155.8660 C   0  0  0  0  0  0  0  0  0  0  0  0
  1  2  2  0  0  0  0
  2 24  1  0  0  0  0
  3 11  1  0  0  0  0
  4  5  1  0  0  0  0
  4  8  1  0  0  0  0
  6  5  2  0  0  0  0
  7  9  1  0  0  0  0
  9  8  2  0  0  0  0
  9  1  1  0  0  0  0
 10 12  1  0  0  0  0
 10  7  2  0  0  0  0
 11 13  2  0  0  0  0
 11 12  1  0  0  0  0
 12  4  2  0  0  0  0
 13  6  1  0  0  0  0
 14 16  1  0  0  0  0
 15 14  1  1  0  0  0
 17 20  1  0  0  0  0
 18  1  1  1  0  0  0
 18 16  1  0  0  0  0
 19 21  1  0  0  0  0
 19 15  1  0  0  0  0
 20 19  1  0  0  0  0
 22 18  1  0  0  0  0
 23 17  1  6  0  0  0
 23 22  1  0  0  0  0
 23 15  1  0  0  0  0
 24 28  2  0  0  0  0
 24 27  1  0  0  0  0
 25 26  1  0  0  0  0
 26 29  2  0  0  0  0
 27 32  1  0  0  0  0
 28 31  1  0  0  0  0
 30 29  1  0  0  0  0
 31 32  1  0  0  0  0
 31 25  2  0  0  0  0
 32 30  2  0  0  0  0
M  END
>  <MODEL>
7

>  <REMARK>
 VINA RESULT:      -6.1      2.148      7.512
  Name = 
  3 active torsions:
  status: ('A' for Active; 'I' for Inactive)
    1  A    between atoms: C_5  and  N_32
    2  A    between atoms: C_12  and  C_16
    3  A    between atoms: C_16  and  C_17
                            x       y       z     vdW  Elec       q    Type
                         _______ _______ _______ _____ _____    ______ ____

>  <TORSDO>
F 3

$$$$
=
 OpenBabel11042421143D

 32 37  0  0  1  0  0  0  0  0999 V2000
  161.7320  207.5000  150.6610 C   0  0  0  0  0  0  0  0  0  0  0  0
  161.7860  208.0470  149.4770 N   0  0  0  0  0  0  0  0  0  0  0  0
  162.4990  201.2270  152.4140 N   0  0  0  0  0  1  0  0  0  0  0  0
  160.9070  203.8310  150.2490 C   0  0  0  0  0  0  0  0  0  0  0  0
  160.1060  203.0170  149.4480 C   0  0  0  0  0  3  0  0  0  0  0  0
  160.1180  201.6370  149.6490 C   0  0  0  0  0  3  0  0  0  0  0  0
  162.5170  205.4580  151.8570 C   0  0  0  0  0  3  0  0  0  0  0  0
  160.9080  205.2140  150.0630 C   0  0  0  0  0  3  0  0  0  0  0  0
  161.6990  206.0380  150.8780 C   0  0  0  0  0  0  0  0  0  0  0  0
  162.5240  204.0740  152.0480 C   0  0  0  0  0  3  0  0  0  0  0  0
  161.6970  201.8570  151.4170 C   0  0  0  0  0  0  0  0  0  0  0  0
  161.7180  203.2510  151.2500 C   0  0  0  0  0  0  0  0  0  0  0  0
  160.9030  201.0920  150.6180 N   0  0  0  0  0  0  0  0  0  0  0  0
  161.1710  210.6580  152.7180 N   0  0  0  0  0  2  0  0  0  0  0  0
  160.2680  209.9390  153.6070 C   0  0  2  0  0  3  0  0  0  0  0  0
  161.3210  209.8200  151.5190 C   0  0  0  0  0  2  0  0  0  0  0  0
  160.0610  208.3700  155.1850 C   0  0  0  0  0  2  0  0  0  0  0  0
  161.7790  208.3850  151.8690 C   0  0  1  0  0  3  0  0  0  0  0  0
  159.8520  210.7220  154.7540 N   0  0  0  0  0  0  0  0  0  0  0  0
  159.5360  209.6900  155.7400 C   0  0  0  0  0  2  0  0  0  0  0  0
  158.5980  211.3640  154.4010 C   0  0  0  0  0  1  0  0  0  0  0  0
  160.9390  207.8000  153.0180 C   0  0  0  0  0  2  0  0  0  0  0  0
  160.9400  208.7620  154.1080 N   0  0  1  0  0  0  0  0  0  0  0  0
  161.6510  207.4010  148.2030 C   0  0  0  0  0  0  0  0  0  0  0  0
  162.7530  205.4710  145.4700 C   0  0  0  0  0  3  0  0  0  0  0  0
  161.9960  204.9990  144.3850 C   0  0  0  0  0  3  0  0  0  0  0  0
  160.3160  207.2660  147.5080 C   0  0  0  0  0  2  0  0  0  0  0  0
  162.6340  206.7840  147.6130 N   0  0  0  0  0  0  0  0  0  0  0  0
  160.6160  205.2840  144.3180 C   0  0  0  0  0  3  0  0  0  0  0  0
  160.0100  206.0160  145.2990 N   0  0  0  0  0  0  0  0  0  0  0  0
  162.0880  206.2120  146.4410 C   0  0  0  0  0  0  0  0  0  0  0  0
  160.7530  206.4680  146.3410 C   0  0  0  0  0  0  0  0  0  0  0  0
  1  9  1  0  0  0  0
  2  1  2  0  0  0  0
  4 12  1  0  0  0  0
  5  6  2  0  0  0  0
  5  4  1  0  0  0  0
  6 13  1  0  0  0  0
  7 10  1  0  0  0  0
  8  4  2  0  0  0  0
  8  9  1  0  0  0  0
  9  7  2  0  0  0  0
 11  3  1  0  0  0  0
 12 11  1  0  0  0  0
 12 10  2  0  0  0  0
 13 11  2  0  0  0  0
 15 14  1  6  0  0  0
 15 23  1  0  0  0  0
 15 19  1  0  0  0  0
 16 18  1  0  0  0  0
 16 14  1  0  0  0  0
 17 20  1  0  0  0  0
 18  1  1  6  0  0  0
 18 22  1  0  0  0  0
 19 20  1  0  0  0  0
 21 19  1  0  0  0  0
 23 22  1  6  0  0  0
 23 17  1  0  0  0  0
 24  2  1  0  0  0  0
 25 31  1  0  0  0  0
 26 25  2  0  0  0  0
 27 24  1  0  0  0  0
 28 24  2  0  0  0  0
 29 26  1  0  0  0  0
 29 30  2  0  0  0  0
 30 32  1  0  0  0  0
 31 28  1  0  0  0  0
 32 31  2  0  0  0  0
 32 27  1  0  0  0  0
M  END
>  <MODEL>
8

>  <REMARK>
 VINA RESULT:      -5.9      3.565      7.292
  Name = 
  3 active torsions:
  status: ('A' for Active; 'I' for Inactive)
    1  A    between atoms: C_5  and  N_32
    2  A    between atoms: C_12  and  C_16
    3  A    between atoms: C_16  and  C_17
                            x       y       z     vdW  Elec       q    Type
                         _______ _______ _______ _____ _____    ______ ____

>  <TORSDO>
F 3

$$$$
=
 OpenBabel11042421143D

 32 37  0  0  1  0  0  0  0  0999 V2000
  161.8480  208.4610  151.0670 C   0  0  0  0  0  0  0  0  0  0  0  0
  161.7060  207.2670  150.5560 N   0  0  0  0  0  0  0  0  0  0  0  0
  162.2060  213.3820  146.7470 N   0  0  0  0  0  1  0  0  0  0  0  0
  161.0700  212.0180  150.0400 C   0  0  0  0  0  0  0  0  0  0  0  0
  160.4210  213.1410  150.5530 C   0  0  0  0  0  3  0  0  0  0  0  0
  160.3800  214.3100  149.7930 C   0  0  0  0  0  3  0  0  0  0  0  0
  162.3760  209.7680  149.0110 C   0  0  0  0  0  3  0  0  0  0  0  0
  161.1220  210.8390  150.7850 C   0  0  0  0  0  3  0  0  0  0  0  0
  161.7580  209.7000  150.2670 C   0  0  0  0  0  0  0  0  0  0  0  0
  162.3310  210.9460  148.2610 C   0  0  0  0  0  3  0  0  0  0  0  0
  161.6090  213.2750  148.0370 C   0  0  0  0  0  0  0  0  0  0  0  0
  161.6760  212.0770  148.7660 C   0  0  0  0  0  0  0  0  0  0  0  0
  160.9670  214.3520  148.5660 N   0  0  0  0  0  0  0  0  0  0  0  0
  161.9360  210.2200  154.4450 N   0  0  0  0  0  2  0  0  0  0  0  0
  160.8500  209.3790  154.9300 C   0  0  2  0  0  3  0  0  0  0  0  0
  161.9450  210.0770  152.9820 C   0  0  0  0  0  2  0  0  0  0  0  0
  160.2100  207.3280  155.5440 C   0  0  0  0  0  2  0  0  0  0  0  0
  162.0410  208.5950  152.5460 C   0  0  1  0  0  3  0  0  0  0  0  0
  160.5720  209.5620  156.3420 N   0  0  0  0  0  0  0  0  0  0  0  0
  159.9790  208.2790  156.7140 C   0  0  0  0  0  2  0  0  0  0  0  0
  159.5190  210.5570  156.4450 C   0  0  0  0  0  1  0  0  0  0  0  0
  161.0350  207.7250  153.3180 C   0  0  0  0  0  2  0  0  0  0  0  0
  161.2070  207.9920  154.7370 N   0  0  1  0  0  0  0  0  0  0  0  0
  161.6160  206.9090  149.1690 C   0  0  0  0  0  0  0  0  0  0  0  0
  162.8090  205.5840  146.1320 C   0  0  0  0  0  3  0  0  0  0  0  0
  162.0910  205.3670  144.9430 C   0  0  0  0  0  3  0  0  0  0  0  0
  160.3090  206.9490  148.4130 C   0  0  0  0  0  2  0  0  0  0  0  0
  162.6160  206.4130  148.4990 N   0  0  0  0  0  0  0  0  0  0  0  0
  160.7180  205.6850  144.8870 C   0  0  0  0  0  3  0  0  0  0  0  0
  160.0800  206.2030  145.9790 N   0  0  0  0  0  0  0  0  0  0  0  0
  162.1120  206.1140  147.2130 C   0  0  0  0  0  0  0  0  0  0  0  0
  160.7850  206.4090  147.1200 C   0  0  0  0  0  0  0  0  0  0  0  0
  2  1  2  0  0  0  0
  3 11  1  0  0  0  0
  4  5  1  0  0  0  0
  4  8  1  0  0  0  0
  6  5  2  0  0  0  0
  7  9  1  0  0  0  0
  9  8  2  0  0  0  0
  9  1  1  0  0  0  0
 10 12  1  0  0  0  0
 10  7  2  0  0  0  0
 11 13  2  0  0  0  0
 11 12  1  0  0  0  0
 12  4  2  0  0  0  0
 13  6  1  0  0  0  0
 15 14  1  1  0  0  0
 15 19  1  0  0  0  0
 16 14  1  0  0  0  0
 17 20  1  0  0  0  0
 18  1  1  6  0  0  0
 18 16  1  0  0  0  0
 18 22  1  0  0  0  0
 19 21  1  0  0  0  0
 19 20  1  0  0  0  0
 23 22  1  6  0  0  0
 23 15  1  0  0  0  0
 23 17  1  0  0  0  0
 24  2  1  0  0  0  0
 25 31  1  0  0  0  0
 26 25  2  0  0  0  0
 27 24  1  0  0  0  0
 28 24  2  0  0  0  0
 29 26  1  0  0  0  0
 29 30  2  0  0  0  0
 30 32  1  0  0  0  0
 31 28  1  0  0  0  0
 32 31  2  0  0  0  0
 32 27  1  0  0  0  0
M  END
>  <MODEL>
9

>  <REMARK>
 VINA RESULT:      -5.6      2.160      6.785
  Name = 
  3 active torsions:
  status: ('A' for Active; 'I' for Inactive)
    1  A    between atoms: C_5  and  N_32
    2  A    between atoms: C_12  and  C_16
    3  A    between atoms: C_16  and  C_17
                            x       y       z     vdW  Elec       q    Type
                         _______ _______ _______ _____ _____    ______ ____

>  <TORSDO>
F 3

$$$$
