=
 OpenBabel11052410393D

 47 49  0  0  1  0  0  0  0  0999 V2000
  160.8950  210.2810  154.3020 N   0  0  0  0  0  2  0  0  0  0  0  0
  162.3480  210.1530  152.3010 N   0  0  0  0  0  2  0  0  0  0  0  0
  163.1790  210.7520  154.3850 O   0  0  0  0  0  0  0  0  0  0  0  0
  162.1840  210.4040  153.6960 C   0  0  0  0  0  0  0  0  0  0  0  0
  161.6630  207.3910  149.8050 C   0  0  0  0  0  0  0  0  0  0  0  0
  160.7720  208.3810  151.8460 C   0  0  0  0  0  0  0  0  0  0  0  0
  161.2330  209.7590  151.4540 C   0  0  2  0  0  3  0  0  0  0  0  0
  161.8720  208.7490  149.2730 C   0  0  0  0  0  3  0  0  0  0  0  0
  160.1310  208.2140  152.9140 O   0  0  0  0  0  0  0  0  0  0  0  0
  161.1130  207.2220  151.0100 C   0  0  0  0  0  2  0  0  0  0  0  0
  161.6450  209.8500  149.9980 C   0  0  0  0  0  0  0  0  0  0  0  0
  161.9790  206.2760  148.9590 N   0  0  0  0  0  0  0  0  0  0  0  0
  161.5350  204.5100  150.4420 O   0  0  0  0  0  0  0  0  0  0  0  0
  161.8500  204.8850  149.2820 C   0  0  0  0  0  0  0  0  0  0  0  0
  162.0860  203.8610  148.2210 C   0  0  0  0  0  2  0  0  0  0  0  0
  161.3650  201.7910  145.8880 C   0  0  0  0  0  2  0  0  0  0  0  0
  160.7770  203.4900  147.5210 C   0  0  2  0  0  3  0  0  0  0  0  0
  160.6730  202.0010  147.2160 C   0  0  2  0  0  3  0  0  0  0  0  0
  161.2250  203.1100  145.1470 C   0  0  0  0  0  2  0  0  0  0  0  0
  160.7390  204.1460  146.1540 C   0  0  0  0  0  2  0  0  0  0  0  0
  161.1790  201.0950  148.3000 C   0  0  0  0  0  0  0  0  0  0  0  0
  160.9990  201.4190  149.6370 O   0  0  0  0  0  1  0  0  0  0  0  0
  161.7130  199.9980  147.9940 O   0  0  0  0  0  0  0  0  0  0  0  0
  161.8050  211.0900  149.3700 O   0  0  0  0  0  0  0  0  0  0  0  0
  162.5460  211.2570  148.1680 C   0  0  1  0  0  3  0  0  0  0  0  0
  161.8340  212.0650  147.2820 O   0  0  0  0  0  1  0  0  0  0  0  0
  163.8700  211.9170  148.4830 C   0  0  0  0  0  1  0  0  0  0  0  0
  160.6350  210.7370  155.6590 C   0  0  1  0  0  3  0  0  0  0  0  0
  162.7980  211.1720  157.0370 C   0  0  0  0  0  1  0  0  0  0  0  0
  161.7660  207.8070  157.2530 O   0  0  0  0  0  0  0  0  0  0  0  0
  161.7390  209.0010  156.9240 C   0  0  0  0  0  0  0  0  0  0  0  0
  161.7110  210.2570  156.5760 C   0  0  0  0  0  0  0  0  0  0  0  0
  160.5340  212.2530  155.6920 C   0  0  0  0  0  2  0  0  0  0  0  0
  158.8420  213.9960  155.9250 N   0  0  0  0  0  2  0  0  0  0  0  0
  157.7160  213.7750  155.0170 C   0  0  2  0  0  3  0  0  0  0  0  0
  157.4090  212.2940  154.9720 C   0  0  1  0  0  3  0  0  0  0  0  0
  159.2680  212.6890  156.4200 C   0  0  1  0  0  3  0  0  0  0  0  0
  158.1610  211.7030  156.1390 C   0  0  0  0  0  2  0  0  0  0  0  0
  156.8520  214.4520  152.8710 O   0  0  0  0  0  1  0  0  0  0  0  0
  158.0250  214.3040  153.6130 C   0  0  2  0  0  3  0  0  0  0  0  0
  158.9800  213.3800  152.8760 C   0  0  0  0  0  2  0  0  0  0  0  0
  159.4400  213.9960  151.7120 O   0  0  0  0  0  0  0  0  0  0  0  0
  159.1440  213.0920  150.6940 C   0  0  0  0  0  2  0  0  0  0  0  0
  160.6630  214.3620  149.3670 O   0  0  0  0  0  1  0  0  0  0  0  0
  159.4220  213.7270  149.3470 C   0  0  0  0  0  2  0  0  0  0  0  0
  155.9170  212.0640  155.1270 C   0  0  0  0  0  2  0  0  0  0  0  0
  155.3320  213.1640  155.7430 O   0  0  0  0  0  1  0  0  0  0  0  0
  1 28  1  0  0  0  0
  2  4  1  0  0  0  0
  4  1  1  0  0  0  0
  4  3  2  0  0  0  0
  5 10  1  0  0  0  0
  6  9  2  0  0  0  0
  7  6  1  0  0  0  0
  7  2  1  1  0  0  0
  8  5  1  0  0  0  0
  8 11  2  0  0  0  0
 10  6  1  0  0  0  0
 11  7  1  0  0  0  0
 12 14  1  0  0  0  0
 12  5  2  0  0  0  0
 14 13  2  0  0  0  0
 15 14  1  0  0  0  0
 16 18  1  0  0  0  0
 17 15  1  6  0  0  0
 18 17  1  0  0  0  0
 18 21  1  1  0  0  0
 19 16  1  0  0  0  0
 19 20  1  0  0  0  0
 20 17  1  0  0  0  0
 21 22  1  0  0  0  0
 23 21  2  0  0  0  0
 24 11  1  0  0  0  0
 25 27  1  1  0  0  0
 25 24  1  0  0  0  0
 26 25  1  0  0  0  0
 28 33  1  6  0  0  0
 28 32  1  0  0  0  0
 31 30  2  0  0  0  0
 32 31  2  0  0  0  0
 32 29  1  0  0  0  0
 34 37  1  0  0  0  0
 35 40  1  6  0  0  0
 35 34  1  0  0  0  0
 36 35  1  0  0  0  0
 36 46  1  1  0  0  0
 36 38  1  0  0  0  0
 37 33  1  6  0  0  0
 38 37  1  0  0  0  0
 40 39  1  6  0  0  0
 41 40  1  0  0  0  0
 42 41  1  0  0  0  0
 43 42  1  0  0  0  0
 45 44  1  0  0  0  0
 45 43  1  0  0  0  0
 46 47  1  0  0  0  0
M  END
>  <MODEL>
1

>  <REMARK>
 VINA RESULT:      -4.1      0.000      0.000
  Name = 
  17 active torsions:
  status: ('A' for Active; 'I' for Inactive)
    1  A    between atoms: C_1  and  O_24
    2  A    between atoms: N_3  and  C_8
    3  A    between atoms: N_5  and  C_12
    4  A    between atoms: C_6  and  C_37
    5  A    between atoms: N_10  and  C_23
    6  A    between atoms: C_11  and  C_12
    7  A    between atoms: C_11  and  C_32
    8  A    between atoms: C_12  and  C_31
    9  A    between atoms: C_17  and  C_18
   10  A    between atoms: C_17  and  C_19
   11  A    between atoms: C_19  and  O_41
   12  A    between atoms: C_21  and  C_34
   13  A    between atoms: O_24  and  C_44
   14  A    between atoms: C_29  and  C_45
   15  A    between atoms: C_30  and  C_45
   16  A    between atoms: C_35  and  O_41
   17  A    between atoms: C_35  and  C_47
                            x       y       z     vdW  Elec       q    Type
                         _______ _______ _______ _____ _____    ______ ____

>  <TORSDO>
F 17

$$$$
=
 OpenBabel11052410393D

 47 49  0  0  1  0  0  0  0  0999 V2000
  160.1540  211.9740  152.5500 N   0  0  0  0  0  2  0  0  0  0  0  0
  159.6620  209.5610  152.8140 N   0  0  0  0  0  2  0  0  0  0  0  0
  157.9900  211.1700  152.8940 O   0  0  0  0  0  0  0  0  0  0  0  0
  159.2150  210.9150  152.7520 C   0  0  0  0  0  0  0  0  0  0  0  0
  161.6860  207.3280  150.5220 C   0  0  0  0  0  0  0  0  0  0  0  0
  161.5470  209.6320  151.3060 C   0  0  0  0  0  0  0  0  0  0  0  0
  161.0660  209.2070  152.6670 C   0  0  2  0  0  3  0  0  0  0  0  0
  161.4910  206.8760  151.9110 C   0  0  0  0  0  3  0  0  0  0  0  0
  161.7390  210.8500  151.0610 O   0  0  0  0  0  0  0  0  0  0  0  0
  161.7430  208.6340  150.2460 C   0  0  0  0  0  3  0  0  0  0  0  0
  161.2440  207.7220  152.9170 C   0  0  0  0  0  0  0  0  0  0  0  0
  161.9010  206.3350  149.5100 N   0  0  0  0  0  2  0  0  0  0  0  0
  159.6900  205.6150  149.1770 O   0  0  0  0  0  0  0  0  0  0  0  0
  160.9020  205.5610  148.8350 C   0  0  0  0  0  0  0  0  0  0  0  0
  161.3010  204.6770  147.6990 C   0  0  0  0  0  2  0  0  0  0  0  0
  160.1260  201.7690  148.3370 C   0  0  0  0  0  2  0  0  0  0  0  0
  161.9360  203.3840  148.2120 C   0  0  2  0  0  3  0  0  0  0  0  0
  161.3610  202.1400  147.5460 C   0  0  2  0  0  3  0  0  0  0  0  0
  160.3770  202.2850  149.7430 C   0  0  0  0  0  2  0  0  0  0  0  0
  161.5910  203.2060  149.6780 C   0  0  0  0  0  2  0  0  0  0  0  0
  161.1070  202.2700  146.0730 C   0  0  0  0  0  0  0  0  0  0  0  0
  161.7520  203.2440  145.3250 O   0  0  0  0  0  0  0  0  0  0  0  0
  160.3510  201.4440  145.4970 O   0  0  0  0  0  1  0  0  0  0  0  0
  161.1490  207.1920  154.2080 O   0  0  0  0  0  0  0  0  0  0  0  0
  160.7220  207.9570  155.3280 C   0  0  1  0  0  3  0  0  0  0  0  0
  159.3730  207.7090  155.5830 O   0  0  0  0  0  1  0  0  0  0  0  0
  161.5340  207.5650  156.5410 C   0  0  0  0  0  1  0  0  0  0  0  0
  159.7830  213.3720  152.7010 C   0  0  1  0  0  3  0  0  0  0  0  0
  159.9350  214.3240  150.2850 C   0  0  0  0  0  1  0  0  0  0  0  0
  156.5910  214.0540  151.3750 O   0  0  0  0  0  0  0  0  0  0  0  0
  157.8260  213.9620  151.4130 C   0  0  0  0  0  0  0  0  0  0  0  0
  159.1260  213.8660  151.4530 C   0  0  0  0  0  0  0  0  0  0  0  0
  158.8640  213.5440  153.8990 C   0  0  0  0  0  2  0  0  0  0  0  0
  158.7770  213.7870  156.3260 N   0  0  0  0  0  2  0  0  0  0  0  0
  158.8100  212.4870  156.9960 C   0  0  2  0  0  3  0  0  0  0  0  0
  159.7840  211.5870  156.2660 C   0  0  1  0  0  3  0  0  0  0  0  0
  159.6760  213.7110  155.1770 C   0  0  1  0  0  3  0  0  0  0  0  0
  160.5690  212.5090  155.3670 C   0  0  0  0  0  2  0  0  0  0  0  0
  157.2980  210.8560  156.0650 O   0  0  0  0  0  1  0  0  0  0  0  0
  157.4170  211.8500  157.0390 C   0  0  2  0  0  3  0  0  0  0  0  0
  156.3300  212.8920  156.8370 C   0  0  0  0  0  2  0  0  0  0  0  0
  155.3070  212.3700  156.0470 O   0  0  0  0  0  0  0  0  0  0  0  0
  154.4010  211.8280  156.9560 C   0  0  0  0  0  2  0  0  0  0  0  0
  153.0410  209.8930  157.2570 O   0  0  0  0  0  1  0  0  0  0  0  0
  154.2320  210.3460  156.6900 C   0  0  0  0  0  2  0  0  0  0  0  0
  160.7040  210.8990  157.2590 C   0  0  0  0  0  2  0  0  0  0  0  0
  161.9730  211.4600  157.1920 O   0  0  0  0  0  1  0  0  0  0  0  0
  1 28  1  0  0  0  0
  1  4  1  0  0  0  0
  4  2  1  0  0  0  0
  4  3  2  0  0  0  0
  5  8  1  0  0  0  0
  6  7  1  0  0  0  0
  7  2  1  6  0  0  0
  7 11  1  0  0  0  0
  8 11  2  0  0  0  0
  9  6  2  0  0  0  0
 10  5  2  0  0  0  0
 10  6  1  0  0  0  0
 11 24  1  0  0  0  0
 12  5  1  0  0  0  0
 14 13  2  0  0  0  0
 14 12  1  0  0  0  0
 15 14  1  0  0  0  0
 16 19  1  0  0  0  0
 17 15  1  6  0  0  0
 17 20  1  0  0  0  0
 18 21  1  6  0  0  0
 18 17  1  0  0  0  0
 18 16  1  0  0  0  0
 20 19  1  0  0  0  0
 22 21  2  0  0  0  0
 23 21  1  0  0  0  0
 24 25  1  0  0  0  0
 25 26  1  0  0  0  0
 25 27  1  1  0  0  0
 28 33  1  1  0  0  0
 29 32  1  0  0  0  0
 30 31  2  0  0  0  0
 31 32  2  0  0  0  0
 32 28  1  0  0  0  0
 34 35  1  0  0  0  0
 35 40  1  6  0  0  0
 36 35  1  0  0  0  0
 36 46  1  1  0  0  0
 37 33  1  6  0  0  0
 37 38  1  0  0  0  0
 37 34  1  0  0  0  0
 38 36  1  0  0  0  0
 40 39  1  6  0  0  0
 41 40  1  0  0  0  0
 42 41  1  0  0  0  0
 42 43  1  0  0  0  0
 45 43  1  0  0  0  0
 45 44  1  0  0  0  0
 47 46  1  0  0  0  0
M  END
>  <MODEL>
2

>  <REMARK>
 VINA RESULT:      -3.8      2.027      5.233
  Name = 
  17 active torsions:
  status: ('A' for Active; 'I' for Inactive)
    1  A    between atoms: C_1  and  O_24
    2  A    between atoms: N_3  and  C_8
    3  A    between atoms: N_5  and  C_12
    4  A    between atoms: C_6  and  C_37
    5  A    between atoms: N_10  and  C_23
    6  A    between atoms: C_11  and  C_12
    7  A    between atoms: C_11  and  C_32
    8  A    between atoms: C_12  and  C_31
    9  A    between atoms: C_17  and  C_18
   10  A    between atoms: C_17  and  C_19
   11  A    between atoms: C_19  and  O_41
   12  A    between atoms: C_21  and  C_34
   13  A    between atoms: O_24  and  C_44
   14  A    between atoms: C_29  and  C_45
   15  A    between atoms: C_30  and  C_45
   16  A    between atoms: C_35  and  O_41
   17  A    between atoms: C_35  and  C_47
                            x       y       z     vdW  Elec       q    Type
                         _______ _______ _______ _____ _____    ______ ____

>  <TORSDO>
F 17

$$$$
=
 OpenBabel11052410393D

 47 49  0  0  1  0  0  0  0  0999 V2000
  161.1880  211.9410  150.1470 N   0  0  0  0  0  2  0  0  0  0  0  0
  160.5540  211.3090  152.4550 N   0  0  0  0  0  2  0  0  0  0  0  0
  159.4540  212.9960  151.2990 O   0  0  0  0  0  0  0  0  0  0  0  0
  160.3560  212.1170  151.2960 C   0  0  0  0  0  0  0  0  0  0  0  0
  161.1460  207.9410  150.8320 C   0  0  0  0  0  0  0  0  0  0  0  0
  162.1970  210.1170  151.1480 C   0  0  0  0  0  0  0  0  0  0  0  0
  161.5860  210.2850  152.5130 C   0  0  2  0  0  3  0  0  0  0  0  0
  160.7690  207.9500  152.2560 C   0  0  0  0  0  3  0  0  0  0  0  0
  162.9730  210.9970  150.6950 O   0  0  0  0  0  0  0  0  0  0  0  0
  161.8490  208.9550  150.3190 C   0  0  0  0  0  3  0  0  0  0  0  0
  160.9950  208.9990  153.0550 C   0  0  0  0  0  0  0  0  0  0  0  0
  160.8180  206.7820  150.0510 N   0  0  0  0  0  2  0  0  0  0  0  0
  160.8980  207.7160  147.8970 O   0  0  0  0  0  0  0  0  0  0  0  0
  160.7630  206.6940  148.6220 C   0  0  0  0  0  0  0  0  0  0  0  0
  160.5500  205.3630  147.9770 C   0  0  0  0  0  2  0  0  0  0  0  0
  160.8960  202.2050  147.5890 C   0  0  0  0  0  2  0  0  0  0  0  0
  161.6330  204.3720  148.4030 C   0  0  2  0  0  3  0  0  0  0  0  0
  161.9050  203.3060  147.3490 C   0  0  2  0  0  3  0  0  0  0  0  0
  160.5710  202.2720  149.0720 C   0  0  0  0  0  2  0  0  0  0  0  0
  161.1430  203.5820  149.6020 C   0  0  0  0  0  2  0  0  0  0  0  0
  161.9150  203.8030  145.9330 C   0  0  0  0  0  0  0  0  0  0  0  0
  160.9550  203.3800  145.0250 O   0  0  0  0  0  0  0  0  0  0  0  0
  162.7620  204.6660  145.5830 O   0  0  0  0  0  1  0  0  0  0  0  0
  160.6640  208.8720  154.4080 O   0  0  0  0  0  0  0  0  0  0  0  0
  161.6060  209.0660  155.4560 C   0  0  1  0  0  3  0  0  0  0  0  0
  161.3520  210.2750  156.1030 O   0  0  0  0  0  1  0  0  0  0  0  0
  161.4840  207.9370  156.4540 C   0  0  0  0  0  1  0  0  0  0  0  0
  161.1740  212.8800  149.0350 C   0  0  1  0  0  3  0  0  0  0  0  0
  163.2290  214.2790  148.2700 C   0  0  0  0  0  1  0  0  0  0  0  0
  163.6150  210.8600  147.4950 O   0  0  0  0  0  0  0  0  0  0  0  0
  163.0880  211.8860  147.9460 C   0  0  0  0  0  0  0  0  0  0  0  0
  162.5330  212.9670  148.4210 C   0  0  0  0  0  0  0  0  0  0  0  0
  160.1420  212.4560  148.0040 C   0  0  0  0  0  2  0  0  0  0  0  0
  160.4140  214.4150  146.5740 N   0  0  0  0  0  2  0  0  0  0  0  0
  160.1210  214.1020  145.1740 C   0  0  2  0  0  3  0  0  0  0  0  0
  158.9290  213.1700  145.1230 C   0  0  1  0  0  3  0  0  0  0  0  0
  159.4600  213.6760  147.3970 C   0  0  1  0  0  3  0  0  0  0  0  0
  158.3280  213.2280  146.5050 C   0  0  0  0  0  2  0  0  0  0  0  0
  162.2770  214.4370  144.1500 O   0  0  0  0  0  1  0  0  0  0  0  0
  161.3320  213.4660  144.4850 C   0  0  2  0  0  3  0  0  0  0  0  0
  160.9180  212.7080  143.2350 C   0  0  0  0  0  2  0  0  0  0  0  0
  161.1720  213.4790  142.1010 O   0  0  0  0  0  0  0  0  0  0  0  0
  162.2820  212.8800  141.5100 C   0  0  0  0  0  2  0  0  0  0  0  0
  162.6540  211.1130  139.9530 O   0  0  0  0  0  1  0  0  0  0  0  0
  161.9440  211.4600  141.1020 C   0  0  0  0  0  2  0  0  0  0  0  0
  157.9320  213.6560  144.0860 C   0  0  0  0  0  2  0  0  0  0  0  0
  156.9620  214.4410  144.6970 O   0  0  0  0  0  1  0  0  0  0  0  0
  1  4  1  0  0  0  0
  4  3  2  0  0  0  0
  4  2  1  0  0  0  0
  5  8  1  0  0  0  0
  6  7  1  0  0  0  0
  7  2  1  6  0  0  0
  7 11  1  0  0  0  0
  8 11  2  0  0  0  0
  9  6  2  0  0  0  0
 10  5  2  0  0  0  0
 10  6  1  0  0  0  0
 11 24  1  0  0  0  0
 12  5  1  0  0  0  0
 13 14  2  0  0  0  0
 14 12  1  0  0  0  0
 15 14  1  0  0  0  0
 16 19  1  0  0  0  0
 17 15  1  6  0  0  0
 17 20  1  0  0  0  0
 18 21  1  6  0  0  0
 18 16  1  0  0  0  0
 18 17  1  0  0  0  0
 19 20  1  0  0  0  0
 22 21  2  0  0  0  0
 23 21  1  0  0  0  0
 24 25  1  0  0  0  0
 25 26  1  0  0  0  0
 25 27  1  1  0  0  0
 28 33  1  6  0  0  0
 28  1  1  0  0  0  0
 29 32  1  0  0  0  0
 30 31  2  0  0  0  0
 31 32  2  0  0  0  0
 32 28  1  0  0  0  0
 34 37  1  0  0  0  0
 35 40  1  1  0  0  0
 35 34  1  0  0  0  0
 36 46  1  6  0  0  0
 36 35  1  0  0  0  0
 36 38  1  0  0  0  0
 37 33  1  6  0  0  0
 38 37  1  0  0  0  0
 40 39  1  6  0  0  0
 41 40  1  0  0  0  0
 42 41  1  0  0  0  0
 43 42  1  0  0  0  0
 44 45  1  0  0  0  0
 45 43  1  0  0  0  0
 46 47  1  0  0  0  0
M  END
>  <MODEL>
3

>  <REMARK>
 VINA RESULT:      -3.5      3.441      7.108
  Name = 
  17 active torsions:
  status: ('A' for Active; 'I' for Inactive)
    1  A    between atoms: C_1  and  O_24
    2  A    between atoms: N_3  and  C_8
    3  A    between atoms: N_5  and  C_12
    4  A    between atoms: C_6  and  C_37
    5  A    between atoms: N_10  and  C_23
    6  A    between atoms: C_11  and  C_12
    7  A    between atoms: C_11  and  C_32
    8  A    between atoms: C_12  and  C_31
    9  A    between atoms: C_17  and  C_18
   10  A    between atoms: C_17  and  C_19
   11  A    between atoms: C_19  and  O_41
   12  A    between atoms: C_21  and  C_34
   13  A    between atoms: O_24  and  C_44
   14  A    between atoms: C_29  and  C_45
   15  A    between atoms: C_30  and  C_45
   16  A    between atoms: C_35  and  O_41
   17  A    between atoms: C_35  and  C_47
                            x       y       z     vdW  Elec       q    Type
                         _______ _______ _______ _____ _____    ______ ____

>  <TORSDO>
F 17

$$$$
=
 OpenBabel11052410393D

 47 49  0  0  1  0  0  0  0  0999 V2000
  160.9680  210.7820  151.8880 N   0  0  0  0  0  2  0  0  0  0  0  0
  162.2920  209.0120  150.7710 N   0  0  0  0  0  2  0  0  0  0  0  0
  163.2920  210.6600  152.0650 O   0  0  0  0  0  0  0  0  0  0  0  0
  162.2290  210.1700  151.6010 C   0  0  0  0  0  0  0  0  0  0  0  0
  161.4450  205.7560  149.0350 C   0  0  0  0  0  0  0  0  0  0  0  0
  160.7820  207.1340  150.9330 C   0  0  0  0  0  0  0  0  0  0  0  0
  161.0980  208.4090  150.1990 C   0  0  2  0  0  3  0  0  0  0  0  0
  161.4930  206.9740  148.2060 C   0  0  0  0  0  3  0  0  0  0  0  0
  160.3050  207.1820  152.0950 O   0  0  0  0  0  0  0  0  0  0  0  0
  161.0770  205.8340  150.3170 C   0  0  0  0  0  3  0  0  0  0  0  0
  161.3000  208.1980  148.7110 C   0  0  0  0  0  0  0  0  0  0  0  0
  161.7110  204.4950  148.4030 N   0  0  0  0  0  2  0  0  0  0  0  0
  160.4230  204.7440  146.4550 O   0  0  0  0  0  0  0  0  0  0  0  0
  161.2440  204.0590  147.1200 C   0  0  0  0  0  0  0  0  0  0  0  0
  161.7460  202.7690  146.5580 C   0  0  0  0  0  2  0  0  0  0  0  0
  161.5690  199.6720  147.3470 C   0  0  0  0  0  2  0  0  0  0  0  0
  160.6220  201.7350  146.4810 C   0  0  2  0  0  3  0  0  0  0  0  0
  160.6060  200.7910  147.6770 C   0  0  2  0  0  3  0  0  0  0  0  0
  161.5700  199.5760  145.8300 C   0  0  0  0  0  2  0  0  0  0  0  0
  160.8660  200.8190  145.2980 C   0  0  0  0  0  2  0  0  0  0  0  0
  160.8840  201.4410  149.0010 C   0  0  0  0  0  0  0  0  0  0  0  0
  159.9080  202.1920  149.6420 O   0  0  0  0  0  1  0  0  0  0  0  0
  161.9900  201.2490  149.5690 O   0  0  0  0  0  0  0  0  0  0  0  0
  161.2950  209.2770  147.8220 O   0  0  0  0  0  0  0  0  0  0  0  0
  161.4630  210.6250  148.2420 C   0  0  1  0  0  3  0  0  0  0  0  0
  162.8220  210.9300  148.3170 O   0  0  0  0  0  1  0  0  0  0  0  0
  160.8050  211.5480  147.2410 C   0  0  0  0  0  1  0  0  0  0  0  0
  160.8720  212.0800  152.5370 C   0  0  1  0  0  3  0  0  0  0  0  0
  158.7690  213.4900  151.9390 C   0  0  0  0  0  1  0  0  0  0  0  0
  161.3130  213.8460  149.5210 O   0  0  0  0  0  0  0  0  0  0  0  0
  160.7540  213.4580  150.5560 C   0  0  0  0  0  0  0  0  0  0  0  0
  160.1650  213.0480  151.6450 C   0  0  0  0  0  0  0  0  0  0  0  0
  160.1520  211.9480  153.8690 C   0  0  0  0  0  2  0  0  0  0  0  0
  160.6730  211.6000  156.2270 N   0  0  0  0  0  2  0  0  0  0  0  0
  159.8370  210.5500  156.8110 C   0  0  2  0  0  3  0  0  0  0  0  0
  159.6800  209.4340  155.8020 C   0  0  1  0  0  3  0  0  0  0  0  0
  161.0120  211.1840  154.8680 C   0  0  1  0  0  3  0  0  0  0  0  0
  160.7280  209.7070  154.7510 C   0  0  0  0  0  2  0  0  0  0  0  0
  157.4730  210.6540  156.3510 O   0  0  0  0  0  1  0  0  0  0  0  0
  158.4680  211.0990  157.2240 C   0  0  2  0  0  3  0  0  0  0  0  0
  158.4710  212.6170  157.2590 C   0  0  0  0  0  2  0  0  0  0  0  0
  157.2380  213.1100  156.8340 O   0  0  0  0  0  0  0  0  0  0  0  0
  157.5360  213.8950  155.7230 C   0  0  0  0  0  2  0  0  0  0  0  0
  156.1540  212.6170  154.2590 O   0  0  0  0  0  1  0  0  0  0  0  0
  156.3600  213.8990  154.7670 C   0  0  0  0  0  2  0  0  0  0  0  0
  159.9280  208.0910  156.4660 C   0  0  0  0  0  2  0  0  0  0  0  0
  160.7670  207.3200  155.6720 O   0  0  0  0  0  1  0  0  0  0  0  0
  1 28  1  0  0  0  0
  2  4  1  0  0  0  0
  4  1  1  0  0  0  0
  4  3  2  0  0  0  0
  5 10  2  0  0  0  0
  6  9  2  0  0  0  0
  7  2  1  1  0  0  0
  7  6  1  0  0  0  0
  8 11  2  0  0  0  0
  8  5  1  0  0  0  0
 10  6  1  0  0  0  0
 11  7  1  0  0  0  0
 12  5  1  0  0  0  0
 13 14  2  0  0  0  0
 14 12  1  0  0  0  0
 15 14  1  0  0  0  0
 16 18  1  0  0  0  0
 17 15  1  1  0  0  0
 17 18  1  0  0  0  0
 18 21  1  1  0  0  0
 19 16  1  0  0  0  0
 20 19  1  0  0  0  0
 20 17  1  0  0  0  0
 21 23  2  0  0  0  0
 21 22  1  0  0  0  0
 24 25  1  0  0  0  0
 24 11  1  0  0  0  0
 25 27  1  6  0  0  0
 25 26  1  0  0  0  0
 28 33  1  1  0  0  0
 30 31  2  0  0  0  0
 31 32  2  0  0  0  0
 32 29  1  0  0  0  0
 32 28  1  0  0  0  0
 34 35  1  0  0  0  0
 35 40  1  6  0  0  0
 36 46  1  1  0  0  0
 36 35  1  0  0  0  0
 37 33  1  6  0  0  0
 37 34  1  0  0  0  0
 38 37  1  0  0  0  0
 38 36  1  0  0  0  0
 40 39  1  6  0  0  0
 40 41  1  0  0  0  0
 42 41  1  0  0  0  0
 43 42  1  0  0  0  0
 44 45  1  0  0  0  0
 45 43  1  0  0  0  0
 47 46  1  0  0  0  0
M  END
>  <MODEL>
4

>  <REMARK>
 VINA RESULT:      -3.4      1.718      4.046
  Name = 
  17 active torsions:
  status: ('A' for Active; 'I' for Inactive)
    1  A    between atoms: C_1  and  O_24
    2  A    between atoms: N_3  and  C_8
    3  A    between atoms: N_5  and  C_12
    4  A    between atoms: C_6  and  C_37
    5  A    between atoms: N_10  and  C_23
    6  A    between atoms: C_11  and  C_12
    7  A    between atoms: C_11  and  C_32
    8  A    between atoms: C_12  and  C_31
    9  A    between atoms: C_17  and  C_18
   10  A    between atoms: C_17  and  C_19
   11  A    between atoms: C_19  and  O_41
   12  A    between atoms: C_21  and  C_34
   13  A    between atoms: O_24  and  C_44
   14  A    between atoms: C_29  and  C_45
   15  A    between atoms: C_30  and  C_45
   16  A    between atoms: C_35  and  O_41
   17  A    between atoms: C_35  and  C_47
                            x       y       z     vdW  Elec       q    Type
                         _______ _______ _______ _____ _____    ______ ____

>  <TORSDO>
F 17

$$$$
=
 OpenBabel11052410393D

 47 49  0  0  1  0  0  0  0  0999 V2000
  159.8500  211.7220  151.3420 N   0  0  0  0  0  2  0  0  0  0  0  0
  159.7550  210.0070  153.1270 N   0  0  0  0  0  2  0  0  0  0  0  0
  157.9450  211.3820  152.6480 O   0  0  0  0  0  0  0  0  0  0  0  0
  159.1290  211.0490  152.3780 C   0  0  0  0  0  0  0  0  0  0  0  0
  161.4830  207.7330  150.6430 C   0  0  0  0  0  0  0  0  0  0  0  0
  161.5220  210.0210  151.4820 C   0  0  0  0  0  0  0  0  0  0  0  0
  161.1230  209.5880  152.8670 C   0  0  2  0  0  3  0  0  0  0  0  0
  161.3700  207.2580  152.0330 C   0  0  0  0  0  3  0  0  0  0  0  0
  161.7580  211.2340  151.2490 O   0  0  0  0  0  0  0  0  0  0  0  0
  161.5870  209.0410  150.3900 C   0  0  0  0  0  3  0  0  0  0  0  0
  161.2430  208.0910  153.0720 C   0  0  0  0  0  0  0  0  0  0  0  0
  161.5720  206.7550  149.5970 N   0  0  0  0  0  2  0  0  0  0  0  0
  159.6290  205.5140  150.0450 O   0  0  0  0  0  0  0  0  0  0  0  0
  160.6210  205.7250  149.2980 C   0  0  0  0  0  0  0  0  0  0  0  0
  160.8070  204.8890  148.0750 C   0  0  0  0  0  2  0  0  0  0  0  0
  160.3590  201.7230  147.9220 C   0  0  0  0  0  2  0  0  0  0  0  0
  161.7120  203.6910  148.3650 C   0  0  2  0  0  3  0  0  0  0  0  0
  161.5080  202.5450  147.3820 C   0  0  2  0  0  3  0  0  0  0  0  0
  160.3860  201.9300  149.4260 C   0  0  0  0  0  2  0  0  0  0  0  0
  161.3330  203.0920  149.7060 C   0  0  0  0  0  2  0  0  0  0  0  0
  161.3210  202.9620  145.9530 C   0  0  0  0  0  0  0  0  0  0  0  0
  161.9310  204.1080  145.4620 O   0  0  0  0  0  1  0  0  0  0  0  0
  160.6580  202.2300  145.1730 O   0  0  0  0  0  0  0  0  0  0  0  0
  161.2170  207.5340  154.3550 O   0  0  0  0  0  0  0  0  0  0  0  0
  160.8220  208.2680  155.5070 C   0  0  1  0  0  3  0  0  0  0  0  0
  159.6360  207.7420  156.0180 O   0  0  0  0  0  1  0  0  0  0  0  0
  161.9020  208.1650  156.5610 C   0  0  0  0  0  1  0  0  0  0  0  0
  159.3400  212.9270  150.7070 C   0  0  1  0  0  3  0  0  0  0  0  0
  159.4140  214.2690  152.9340 C   0  0  0  0  0  1  0  0  0  0  0  0
  156.2180  214.3820  151.4470 O   0  0  0  0  0  0  0  0  0  0  0  0
  157.4170  214.0990  151.5820 C   0  0  0  0  0  0  0  0  0  0  0  0
  158.6780  213.8000  151.7230 C   0  0  0  0  0  0  0  0  0  0  0  0
  160.4670  213.6690  150.0090 C   0  0  0  0  0  2  0  0  0  0  0  0
  159.8810  212.6020  147.8940 N   0  0  0  0  0  2  0  0  0  0  0  0
  160.0210  213.5280  146.7700 C   0  0  2  0  0  3  0  0  0  0  0  0
  161.2610  214.3680  146.9820 C   0  0  1  0  0  3  0  0  0  0  0  0
  160.9790  212.8670  148.8190 C   0  0  1  0  0  3  0  0  0  0  0  0
  162.0220  213.6710  148.0820 C   0  0  0  0  0  2  0  0  0  0  0  0
  157.8420  214.1180  147.6170 O   0  0  0  0  0  1  0  0  0  0  0  0
  158.7830  214.4190  146.6290 C   0  0  2  0  0  3  0  0  0  0  0  0
  158.1480  214.2670  145.2580 C   0  0  0  0  0  2  0  0  0  0  0  0
  158.2540  212.9460  144.8250 O   0  0  0  0  0  0  0  0  0  0  0  0
  159.1770  212.9910  143.7820 C   0  0  0  0  0  2  0  0  0  0  0  0
  158.8510  213.4830  141.4730 O   0  0  0  0  0  1  0  0  0  0  0  0
  158.7450  214.0180  142.7560 C   0  0  0  0  0  2  0  0  0  0  0  0
  162.0850  214.4140  145.7080 C   0  0  0  0  0  2  0  0  0  0  0  0
  162.6910  213.1820  145.4940 O   0  0  0  0  0  1  0  0  0  0  0  0
  1  4  1  0  0  0  0
  4  3  2  0  0  0  0
  4  2  1  0  0  0  0
  5  8  1  0  0  0  0
  6  7  1  0  0  0  0
  7 11  1  0  0  0  0
  7  2  1  6  0  0  0
  8 11  2  0  0  0  0
  9  6  2  0  0  0  0
 10  5  2  0  0  0  0
 10  6  1  0  0  0  0
 11 24  1  0  0  0  0
 12  5  1  0  0  0  0
 14 12  1  0  0  0  0
 14 13  2  0  0  0  0
 15 14  1  0  0  0  0
 16 19  1  0  0  0  0
 17 15  1  6  0  0  0
 17 20  1  0  0  0  0
 18 21  1  6  0  0  0
 18 16  1  0  0  0  0
 18 17  1  0  0  0  0
 19 20  1  0  0  0  0
 22 21  1  0  0  0  0
 23 21  2  0  0  0  0
 24 25  1  0  0  0  0
 25 26  1  0  0  0  0
 25 27  1  1  0  0  0
 28 33  1  1  0  0  0
 28  1  1  0  0  0  0
 28 32  1  0  0  0  0
 30 31  2  0  0  0  0
 31 32  2  0  0  0  0
 32 29  1  0  0  0  0
 34 37  1  0  0  0  0
 35 40  1  1  0  0  0
 35 36  1  0  0  0  0
 35 34  1  0  0  0  0
 36 46  1  6  0  0  0
 36 38  1  0  0  0  0
 37 33  1  1  0  0  0
 38 37  1  0  0  0  0
 40 39  1  1  0  0  0
 41 40  1  0  0  0  0
 42 41  1  0  0  0  0
 43 42  1  0  0  0  0
 44 45  1  0  0  0  0
 45 43  1  0  0  0  0
 47 46  1  0  0  0  0
M  END
>  <MODEL>
5

>  <REMARK>
 VINA RESULT:      -3.3      2.828      6.243
  Name = 
  17 active torsions:
  status: ('A' for Active; 'I' for Inactive)
    1  A    between atoms: C_1  and  O_24
    2  A    between atoms: N_3  and  C_8
    3  A    between atoms: N_5  and  C_12
    4  A    between atoms: C_6  and  C_37
    5  A    between atoms: N_10  and  C_23
    6  A    between atoms: C_11  and  C_12
    7  A    between atoms: C_11  and  C_32
    8  A    between atoms: C_12  and  C_31
    9  A    between atoms: C_17  and  C_18
   10  A    between atoms: C_17  and  C_19
   11  A    between atoms: C_19  and  O_41
   12  A    between atoms: C_21  and  C_34
   13  A    between atoms: O_24  and  C_44
   14  A    between atoms: C_29  and  C_45
   15  A    between atoms: C_30  and  C_45
   16  A    between atoms: C_35  and  O_41
   17  A    between atoms: C_35  and  C_47
                            x       y       z     vdW  Elec       q    Type
                         _______ _______ _______ _____ _____    ______ ____

>  <TORSDO>
F 17

$$$$
=
 OpenBabel11052410393D

 47 49  0  0  1  0  0  0  0  0999 V2000
  161.7700  205.7110  147.6750 N   0  0  0  0  0  2  0  0  0  0  0  0
  160.9470  207.9880  148.1930 N   0  0  0  0  0  2  0  0  0  0  0  0
  159.7470  206.5280  146.8440 O   0  0  0  0  0  0  0  0  0  0  0  0
  160.7740  206.7290  147.5450 C   0  0  0  0  0  0  0  0  0  0  0  0
  161.5940  209.5680  151.5720 C   0  0  0  0  0  0  0  0  0  0  0  0
  162.0210  207.5300  150.3060 C   0  0  0  0  0  0  0  0  0  0  0  0
  162.1170  208.2810  149.0060 C   0  0  2  0  0  3  0  0  0  0  0  0
  161.9570  210.3500  150.3770 C   0  0  0  0  0  3  0  0  0  0  0  0
  162.2100  206.2870  150.3280 O   0  0  0  0  0  0  0  0  0  0  0  0
  161.6560  208.2340  151.5430 C   0  0  0  0  0  3  0  0  0  0  0  0
  162.2390  209.7800  149.2000 C   0  0  0  0  0  0  0  0  0  0  0  0
  161.2670  210.2790  152.7750 N   0  0  0  0  0  2  0  0  0  0  0  0
  159.8090  211.8990  151.8980 O   0  0  0  0  0  0  0  0  0  0  0  0
  160.3490  211.3730  152.9070 C   0  0  0  0  0  0  0  0  0  0  0  0
  160.0210  211.8940  154.2670 C   0  0  0  0  0  2  0  0  0  0  0  0
  158.6170  211.9770  157.1430 C   0  0  0  0  0  2  0  0  0  0  0  0
  158.8680  211.1060  154.8890 C   0  0  2  0  0  3  0  0  0  0  0  0
  157.9740  211.9660  155.7740 C   0  0  2  0  0  3  0  0  0  0  0  0
  159.3800  210.6670  157.2400 C   0  0  0  0  0  2  0  0  0  0  0  0
  159.4290  210.0660  155.8400 C   0  0  0  0  0  2  0  0  0  0  0  0
  157.6890  213.3400  155.2410 C   0  0  0  0  0  0  0  0  0  0  0  0
  157.3760  213.5310  153.9020 O   0  0  0  0  0  0  0  0  0  0  0  0
  157.6670  214.3210  156.0290 O   0  0  0  0  0  1  0  0  0  0  0  0
  162.6430  210.6120  148.1520 O   0  0  0  0  0  0  0  0  0  0  0  0
  162.5600  212.0300  148.2150 C   0  0  1  0  0  3  0  0  0  0  0  0
  163.7200  212.5960  147.6860 O   0  0  0  0  0  1  0  0  0  0  0  0
  161.3700  212.4990  147.4090 C   0  0  0  0  0  1  0  0  0  0  0  0
  161.7490  204.5050  146.8620 C   0  0  1  0  0  3  0  0  0  0  0  0
  163.9090  204.4540  145.4140 C   0  0  0  0  0  1  0  0  0  0  0  0
  161.1780  205.8060  143.6380 O   0  0  0  0  0  0  0  0  0  0  0  0
  161.7990  205.2900  144.5780 C   0  0  0  0  0  0  0  0  0  0  0  0
  162.4530  204.7480  145.5670 C   0  0  0  0  0  0  0  0  0  0  0  0
  162.3890  203.3520  147.6160 C   0  0  0  0  0  2  0  0  0  0  0  0
  161.9120  201.0490  148.2680 N   0  0  0  0  0  2  0  0  0  0  0  0
  160.6130  200.9380  148.9330 C   0  0  2  0  0  3  0  0  0  0  0  0
  159.6260  201.8430  148.2280 C   0  0  1  0  0  3  0  0  0  0  0  0
  161.7710  202.0250  147.1910 C   0  0  1  0  0  3  0  0  0  0  0  0
  160.2970  202.2170  146.9300 C   0  0  0  0  0  2  0  0  0  0  0  0
  159.9080  200.4720  151.1910 O   0  0  0  0  0  1  0  0  0  0  0  0
  160.7170  201.3060  150.4160 C   0  0  2  0  0  3  0  0  0  0  0  0
  160.3270  202.7550  150.6520 C   0  0  0  0  0  2  0  0  0  0  0  0
  161.4650  203.5610  150.6750 O   0  0  0  0  0  0  0  0  0  0  0  0
  161.8360  203.6070  152.0170 C   0  0  0  0  0  2  0  0  0  0  0  0
  161.4550  205.4500  153.4810 O   0  0  0  0  0  1  0  0  0  0  0  0
  160.8200  204.4100  152.8040 C   0  0  0  0  0  2  0  0  0  0  0  0
  158.3300  201.0980  147.9640 C   0  0  0  0  0  2  0  0  0  0  0  0
  157.6130  200.9660  149.1460 O   0  0  0  0  0  1  0  0  0  0  0  0
  3  4  2  0  0  0  0
  4  1  1  0  0  0  0
  4  2  1  0  0  0  0
  5 12  1  0  0  0  0
  6  9  2  0  0  0  0
  6 10  1  0  0  0  0
  7  2  1  6  0  0  0
  7 11  1  0  0  0  0
  7  6  1  0  0  0  0
  8  5  1  0  0  0  0
 10  5  2  0  0  0  0
 11  8  2  0  0  0  0
 12 14  1  0  0  0  0
 13 14  2  0  0  0  0
 14 15  1  0  0  0  0
 16 19  1  0  0  0  0
 17 15  1  1  0  0  0
 17 18  1  0  0  0  0
 17 20  1  0  0  0  0
 18 21  1  6  0  0  0
 18 16  1  0  0  0  0
 20 19  1  0  0  0  0
 21 23  1  0  0  0  0
 22 21  2  0  0  0  0
 24 25  1  0  0  0  0
 24 11  1  0  0  0  0
 25 27  1  6  0  0  0
 26 25  1  0  0  0  0
 28 33  1  1  0  0  0
 28  1  1  0  0  0  0
 29 32  1  0  0  0  0
 30 31  2  0  0  0  0
 31 32  2  0  0  0  0
 32 28  1  0  0  0  0
 34 35  1  0  0  0  0
 35 40  1  1  0  0  0
 36 46  1  6  0  0  0
 36 35  1  0  0  0  0
 37 33  1  1  0  0  0
 37 34  1  0  0  0  0
 38 37  1  0  0  0  0
 38 36  1  0  0  0  0
 40 41  1  0  0  0  0
 40 39  1  1  0  0  0
 41 42  1  0  0  0  0
 42 43  1  0  0  0  0
 43 45  1  0  0  0  0
 45 44  1  0  0  0  0
 46 47  1  0  0  0  0
M  END
>  <MODEL>
6

>  <REMARK>
 VINA RESULT:      -3.1      2.311     10.649
  Name = 
  17 active torsions:
  status: ('A' for Active; 'I' for Inactive)
    1  A    between atoms: C_1  and  O_24
    2  A    between atoms: N_3  and  C_8
    3  A    between atoms: N_5  and  C_12
    4  A    between atoms: C_6  and  C_37
    5  A    between atoms: N_10  and  C_23
    6  A    between atoms: C_11  and  C_12
    7  A    between atoms: C_11  and  C_32
    8  A    between atoms: C_12  and  C_31
    9  A    between atoms: C_17  and  C_18
   10  A    between atoms: C_17  and  C_19
   11  A    between atoms: C_19  and  O_41
   12  A    between atoms: C_21  and  C_34
   13  A    between atoms: O_24  and  C_44
   14  A    between atoms: C_29  and  C_45
   15  A    between atoms: C_30  and  C_45
   16  A    between atoms: C_35  and  O_41
   17  A    between atoms: C_35  and  C_47
                            x       y       z     vdW  Elec       q    Type
                         _______ _______ _______ _____ _____    ______ ____

>  <TORSDO>
F 17

$$$$
=
 OpenBabel11052410393D

 47 49  0  0  1  0  0  0  0  0999 V2000
  160.4010  211.6500  152.9140 N   0  0  0  0  0  2  0  0  0  0  0  0
  159.7340  212.3100  155.2060 N   0  0  0  0  0  2  0  0  0  0  0  0
  159.7160  213.8190  153.4400 O   0  0  0  0  0  0  0  0  0  0  0  0
  159.9350  212.6420  153.8330 C   0  0  0  0  0  0  0  0  0  0  0  0
  160.9170  209.0160  153.7630 C   0  0  0  0  0  0  0  0  0  0  0  0
  161.4320  210.6230  155.5220 C   0  0  0  0  0  0  0  0  0  0  0  0
  159.9810  210.9710  155.7170 C   0  0  2  0  0  3  0  0  0  0  0  0
  159.4910  209.1270  154.1210 C   0  0  0  0  0  3  0  0  0  0  0  0
  162.3070  211.1560  156.2500 O   0  0  0  0  0  0  0  0  0  0  0  0
  161.8340  209.7020  154.4510 C   0  0  0  0  0  3  0  0  0  0  0  0
  159.0440  209.9890  155.0410 C   0  0  0  0  0  0  0  0  0  0  0  0
  161.2870  208.0910  152.7310 N   0  0  0  0  0  2  0  0  0  0  0  0
  162.1030  206.3260  154.0500 O   0  0  0  0  0  0  0  0  0  0  0  0
  161.8070  206.7670  152.9070 C   0  0  0  0  0  0  0  0  0  0  0  0
  161.9960  205.8890  151.7140 C   0  0  0  0  0  2  0  0  0  0  0  0
  161.2300  204.3660  149.0040 C   0  0  0  0  0  2  0  0  0  0  0  0
  160.7030  205.7840  150.9040 C   0  0  2  0  0  3  0  0  0  0  0  0
  160.4830  204.3950  150.3190 C   0  0  2  0  0  3  0  0  0  0  0  0
  161.2520  205.8060  148.5210 C   0  0  0  0  0  2  0  0  0  0  0  0
  160.8020  206.6810  149.6860 C   0  0  0  0  0  2  0  0  0  0  0  0
  160.8430  203.2590  151.2310 C   0  0  0  0  0  0  0  0  0  0  0  0
  160.3710  203.2200  152.5360 O   0  0  0  0  0  1  0  0  0  0  0  0
  161.5250  202.2980  150.7900 O   0  0  0  0  0  0  0  0  0  0  0  0
  157.6810  209.9590  155.3560 O   0  0  0  0  0  0  0  0  0  0  0  0
  156.8000  211.0390  155.0770 C   0  0  1  0  0  3  0  0  0  0  0  0
  155.5800  210.5470  154.6140 O   0  0  0  0  0  1  0  0  0  0  0  0
  156.5650  211.8330  156.3420 C   0  0  0  0  0  1  0  0  0  0  0  0
  160.8310  211.9900  151.5660 C   0  0  1  0  0  3  0  0  0  0  0  0
  162.8820  210.4330  151.9310 C   0  0  0  0  0  1  0  0  0  0  0  0
  161.6440  210.2120  148.6360 O   0  0  0  0  0  0  0  0  0  0  0  0
  161.7160  210.5780  149.8170 C   0  0  0  0  0  0  0  0  0  0  0  0
  161.7910  210.9630  151.0610 C   0  0  0  0  0  0  0  0  0  0  0  0
  159.6280  212.1040  150.6450 C   0  0  0  0  0  2  0  0  0  0  0  0
  159.3920  214.1100  149.2750 N   0  0  0  0  0  2  0  0  0  0  0  0
  158.1290  214.1080  148.5350 C   0  0  2  0  0  3  0  0  0  0  0  0
  157.0410  213.5570  149.4300 C   0  0  1  0  0  3  0  0  0  0  0  0
  159.1270  213.5420  150.5940 C   0  0  1  0  0  3  0  0  0  0  0  0
  157.6340  213.5630  150.8170 C   0  0  0  0  0  2  0  0  0  0  0  0
  157.3640  212.1940  147.2850 O   0  0  0  0  0  1  0  0  0  0  0  0
  158.2410  213.2800  147.2510 C   0  0  2  0  0  3  0  0  0  0  0  0
  159.6600  212.7800  147.0410 C   0  0  0  0  0  2  0  0  0  0  0  0
  160.3010  213.5490  146.0710 O   0  0  0  0  0  0  0  0  0  0  0  0
  160.5730  212.6570  145.0360 C   0  0  0  0  0  2  0  0  0  0  0  0
  162.6610  213.7320  144.6240 O   0  0  0  0  0  1  0  0  0  0  0  0
  161.4780  213.3150  144.0150 C   0  0  0  0  0  2  0  0  0  0  0  0
  155.8140  214.4500  149.3710 C   0  0  0  0  0  2  0  0  0  0  0  0
  155.0140  214.2260  150.4850 O   0  0  0  0  0  1  0  0  0  0  0  0
  1  4  1  0  0  0  0
  3  4  2  0  0  0  0
  4  2  1  0  0  0  0
  5  8  1  0  0  0  0
  5 10  2  0  0  0  0
  6  7  1  0  0  0  0
  6  9  2  0  0  0  0
  7  2  1  6  0  0  0
  8 11  2  0  0  0  0
 10  6  1  0  0  0  0
 11 24  1  0  0  0  0
 11  7  1  0  0  0  0
 12 14  1  0  0  0  0
 12  5  1  0  0  0  0
 14 13  2  0  0  0  0
 15 14  1  0  0  0  0
 16 18  1  0  0  0  0
 17 15  1  6  0  0  0
 18 17  1  0  0  0  0
 18 21  1  1  0  0  0
 19 16  1  0  0  0  0
 19 20  1  0  0  0  0
 20 17  1  0  0  0  0
 21 22  1  0  0  0  0
 23 21  2  0  0  0  0
 25 24  1  0  0  0  0
 25 27  1  1  0  0  0
 26 25  1  0  0  0  0
 28 33  1  6  0  0  0
 28  1  1  0  0  0  0
 30 31  2  0  0  0  0
 31 32  2  0  0  0  0
 32 28  1  0  0  0  0
 32 29  1  0  0  0  0
 34 37  1  0  0  0  0
 35 40  1  6  0  0  0
 35 34  1  0  0  0  0
 35 36  1  0  0  0  0
 36 46  1  1  0  0  0
 36 38  1  0  0  0  0
 37 33  1  6  0  0  0
 37 38  1  0  0  0  0
 40 39  1  1  0  0  0
 41 40  1  0  0  0  0
 42 41  1  0  0  0  0
 43 42  1  0  0  0  0
 45 44  1  0  0  0  0
 45 43  1  0  0  0  0
 46 47  1  0  0  0  0
M  END
>  <MODEL>
7

>  <REMARK>
 VINA RESULT:      -3.1      2.424      5.623
  Name = 
  17 active torsions:
  status: ('A' for Active; 'I' for Inactive)
    1  A    between atoms: C_1  and  O_24
    2  A    between atoms: N_3  and  C_8
    3  A    between atoms: N_5  and  C_12
    4  A    between atoms: C_6  and  C_37
    5  A    between atoms: N_10  and  C_23
    6  A    between atoms: C_11  and  C_12
    7  A    between atoms: C_11  and  C_32
    8  A    between atoms: C_12  and  C_31
    9  A    between atoms: C_17  and  C_18
   10  A    between atoms: C_17  and  C_19
   11  A    between atoms: C_19  and  O_41
   12  A    between atoms: C_21  and  C_34
   13  A    between atoms: O_24  and  C_44
   14  A    between atoms: C_29  and  C_45
   15  A    between atoms: C_30  and  C_45
   16  A    between atoms: C_35  and  O_41
   17  A    between atoms: C_35  and  C_47
                            x       y       z     vdW  Elec       q    Type
                         _______ _______ _______ _____ _____    ______ ____

>  <TORSDO>
F 17

$$$$
=
 OpenBabel11052410393D

 47 49  0  0  1  0  0  0  0  0999 V2000
  160.3280  207.4590  154.1820 N   0  0  0  0  0  2  0  0  0  0  0  0
  161.7490  206.0260  152.7460 N   0  0  0  0  0  2  0  0  0  0  0  0
  162.5710  207.0380  154.6680 O   0  0  0  0  0  0  0  0  0  0  0  0
  161.5890  206.8460  153.9030 C   0  0  0  0  0  0  0  0  0  0  0  0
  161.3390  204.2960  149.4040 C   0  0  0  0  0  0  0  0  0  0  0  0
  160.4530  204.2930  151.6750 C   0  0  0  0  0  0  0  0  0  0  0  0
  160.6520  205.7770  151.8230 C   0  0  2  0  0  3  0  0  0  0  0  0
  161.2830  205.7690  149.4170 C   0  0  0  0  0  3  0  0  0  0  0  0
  159.9290  203.6340  152.6090 O   0  0  0  0  0  0  0  0  0  0  0  0
  160.9150  203.6010  150.4640 C   0  0  0  0  0  3  0  0  0  0  0  0
  160.9340  206.4680  150.5030 C   0  0  0  0  0  0  0  0  0  0  0  0
  161.7690  203.6440  148.2000 N   0  0  0  0  0  2  0  0  0  0  0  0
  159.7500  202.6360  147.5480 O   0  0  0  0  0  0  0  0  0  0  0  0
  160.9560  202.8930  147.2900 C   0  0  0  0  0  0  0  0  0  0  0  0
  161.5470  202.4100  146.0060 C   0  0  0  0  0  2  0  0  0  0  0  0
  160.9450  205.5540  145.9940 C   0  0  0  0  0  2  0  0  0  0  0  0
  161.3180  203.4250  144.8850 C   0  0  2  0  0  3  0  0  0  0  0  0
  161.9540  204.7790  145.1760 C   0  0  2  0  0  3  0  0  0  0  0  0
  159.5880  205.0060  145.5850 C   0  0  0  0  0  2  0  0  0  0  0  0
  159.8360  203.7330  144.7840 C   0  0  0  0  0  2  0  0  0  0  0  0
  163.3110  204.7180  145.8120 C   0  0  0  0  0  0  0  0  0  0  0  0
  164.3140  203.9250  145.2710 O   0  0  0  0  0  0  0  0  0  0  0  0
  163.5660  205.4440  146.8080 O   0  0  0  0  0  1  0  0  0  0  0  0
  160.8430  207.8580  150.3830 O   0  0  0  0  0  0  0  0  0  0  0  0
  161.9490  208.6760  150.0230 C   0  0  1  0  0  3  0  0  0  0  0  0
  161.8470  209.0450  148.6820 O   0  0  0  0  0  1  0  0  0  0  0  0
  161.9490  209.9230  150.8790 C   0  0  0  0  0  1  0  0  0  0  0  0
  160.1750  208.4720  155.2140 C   0  0  1  0  0  3  0  0  0  0  0  0
  160.4820  206.8960  157.2610 C   0  0  0  0  0  1  0  0  0  0  0  0
  162.8830  209.4790  157.2300 O   0  0  0  0  0  0  0  0  0  0  0  0
  161.9270  208.7910  156.8470 C   0  0  0  0  0  0  0  0  0  0  0  0
  160.9200  208.0670  156.4440 C   0  0  0  0  0  0  0  0  0  0  0  0
  160.6650  209.8170  154.7060 C   0  0  0  0  0  2  0  0  0  0  0  0
  160.1140  212.1950  154.7290 N   0  0  0  0  0  2  0  0  0  0  0  0
  158.7970  212.4450  154.1420 C   0  0  2  0  0  3  0  0  0  0  0  0
  157.8510  211.3490  154.5820 C   0  0  1  0  0  3  0  0  0  0  0  0
  160.0230  210.9530  155.4930 C   0  0  1  0  0  3  0  0  0  0  0  0
  158.5620  210.6500  155.7140 C   0  0  0  0  0  2  0  0  0  0  0  0
  160.1370  212.1110  152.1660 O   0  0  0  0  0  1  0  0  0  0  0  0
  158.8750  212.5080  152.6140 C   0  0  2  0  0  3  0  0  0  0  0  0
  158.5710  213.9060  152.1040 C   0  0  0  0  0  2  0  0  0  0  0  0
  158.6260  213.9310  150.7110 O   0  0  0  0  0  0  0  0  0  0  0  0
  157.4700  213.2700  150.3010 C   0  0  0  0  0  2  0  0  0  0  0  0
  157.1050  213.5230  147.9590 O   0  0  0  0  0  1  0  0  0  0  0  0
  156.7870  214.0620  149.2040 C   0  0  0  0  0  2  0  0  0  0  0  0
  156.5430  211.9510  155.0640 C   0  0  0  0  0  2  0  0  0  0  0  0
  155.6970  210.9440  155.5100 O   0  0  0  0  0  1  0  0  0  0  0  0
  1 28  1  0  0  0  0
  2  4  1  0  0  0  0
  4  1  1  0  0  0  0
  4  3  2  0  0  0  0
  5  8  1  0  0  0  0
  5 10  2  0  0  0  0
  6  7  1  0  0  0  0
  6  9  2  0  0  0  0
  7  2  1  1  0  0  0
  8 11  2  0  0  0  0
 10  6  1  0  0  0  0
 11  7  1  0  0  0  0
 12  5  1  0  0  0  0
 14 13  2  0  0  0  0
 14 12  1  0  0  0  0
 15 14  1  0  0  0  0
 17 18  1  0  0  0  0
 17 15  1  1  0  0  0
 18 21  1  1  0  0  0
 18 16  1  0  0  0  0
 19 16  1  0  0  0  0
 20 17  1  0  0  0  0
 20 19  1  0  0  0  0
 21 23  1  0  0  0  0
 22 21  2  0  0  0  0
 24 11  1  0  0  0  0
 25 24  1  0  0  0  0
 25 27  1  1  0  0  0
 26 25  1  0  0  0  0
 28 33  1  6  0  0  0
 28 32  1  0  0  0  0
 31 30  2  0  0  0  0
 32 31  2  0  0  0  0
 32 29  1  0  0  0  0
 34 37  1  0  0  0  0
 35 40  1  6  0  0  0
 35 36  1  0  0  0  0
 35 34  1  0  0  0  0
 36 46  1  1  0  0  0
 36 38  1  0  0  0  0
 37 33  1  6  0  0  0
 37 38  1  0  0  0  0
 40 39  1  1  0  0  0
 41 40  1  0  0  0  0
 42 41  1  0  0  0  0
 43 42  1  0  0  0  0
 44 45  1  0  0  0  0
 45 43  1  0  0  0  0
 46 47  1  0  0  0  0
M  END
>  <MODEL>
8

>  <REMARK>
 VINA RESULT:      -2.6      2.190      3.247
  Name = 
  17 active torsions:
  status: ('A' for Active; 'I' for Inactive)
    1  A    between atoms: C_1  and  O_24
    2  A    between atoms: N_3  and  C_8
    3  A    between atoms: N_5  and  C_12
    4  A    between atoms: C_6  and  C_37
    5  A    between atoms: N_10  and  C_23
    6  A    between atoms: C_11  and  C_12
    7  A    between atoms: C_11  and  C_32
    8  A    between atoms: C_12  and  C_31
    9  A    between atoms: C_17  and  C_18
   10  A    between atoms: C_17  and  C_19
   11  A    between atoms: C_19  and  O_41
   12  A    between atoms: C_21  and  C_34
   13  A    between atoms: O_24  and  C_44
   14  A    between atoms: C_29  and  C_45
   15  A    between atoms: C_30  and  C_45
   16  A    between atoms: C_35  and  O_41
   17  A    between atoms: C_35  and  C_47
                            x       y       z     vdW  Elec       q    Type
                         _______ _______ _______ _____ _____    ______ ____

>  <TORSDO>
F 17

$$$$
=
 OpenBabel11052410393D

 47 49  0  0  1  0  0  0  0  0999 V2000
  160.7600  209.8430  153.8010 N   0  0  0  0  0  2  0  0  0  0  0  0
  162.3610  209.8220  151.9110 N   0  0  0  0  0  2  0  0  0  0  0  0
  163.0090  210.4090  154.0620 O   0  0  0  0  0  0  0  0  0  0  0  0
  162.0840  210.0350  153.2940 C   0  0  0  0  0  0  0  0  0  0  0  0
  162.2300  207.7280  148.7600 C   0  0  0  0  0  0  0  0  0  0  0  0
  161.2380  207.8980  150.9800 C   0  0  0  0  0  0  0  0  0  0  0  0
  161.3290  209.3990  150.9760 C   0  0  2  0  0  3  0  0  0  0  0  0
  162.0740  209.1860  148.6120 C   0  0  0  0  0  3  0  0  0  0  0  0
  160.7160  207.3040  151.9580 O   0  0  0  0  0  0  0  0  0  0  0  0
  161.8030  207.1190  149.8700 C   0  0  0  0  0  2  0  0  0  0  0  0
  161.6270  209.9670  149.6020 C   0  0  0  0  0  0  0  0  0  0  0  0
  162.7590  206.9870  147.6510 N   0  0  0  0  0  0  0  0  0  0  0  0
  162.2820  204.8010  148.3660 O   0  0  0  0  0  0  0  0  0  0  0  0
  162.7160  205.5660  147.4640 C   0  0  0  0  0  0  0  0  0  0  0  0
  163.1880  204.9820  146.1740 C   0  0  0  0  0  2  0  0  0  0  0  0
  160.0530  204.4050  146.4640 C   0  0  0  0  0  2  0  0  0  0  0  0
  162.2970  203.8150  145.7470 C   0  0  2  0  0  3  0  0  0  0  0  0
  160.9330  204.2680  145.2420 C   0  0  2  0  0  3  0  0  0  0  0  0
  160.6140  203.4230  147.4780 C   0  0  0  0  0  2  0  0  0  0  0  0
  161.9730  202.9640  146.9590 C   0  0  0  0  0  2  0  0  0  0  0  0
  160.9520  205.4970  144.3820 C   0  0  0  0  0  0  0  0  0  0  0  0
  161.5710  205.4860  143.1410 O   0  0  0  0  0  0  0  0  0  0  0  0
  160.3410  206.5310  144.7610 O   0  0  0  0  0  1  0  0  0  0  0  0
  161.4480  211.3270  149.3290 O   0  0  0  0  0  0  0  0  0  0  0  0
  161.8650  211.9330  148.1120 C   0  0  1  0  0  3  0  0  0  0  0  0
  161.3350  213.2190  148.0180 O   0  0  0  0  0  1  0  0  0  0  0  0
  163.3740  212.0170  148.0860 C   0  0  0  0  0  1  0  0  0  0  0  0
  160.3810  210.2580  155.1420 C   0  0  1  0  0  3  0  0  0  0  0  0
  162.1660  209.8480  156.9890 C   0  0  0  0  0  1  0  0  0  0  0  0
  160.2480  206.9550  156.3600 O   0  0  0  0  0  0  0  0  0  0  0  0
  160.6260  208.1310  156.2600 C   0  0  0  0  0  0  0  0  0  0  0  0
  161.0240  209.3680  156.1550 C   0  0  0  0  0  0  0  0  0  0  0  0
  160.7710  211.7080  155.3730 C   0  0  0  0  0  2  0  0  0  0  0  0
  159.5850  213.6810  156.1830 N   0  0  0  0  0  2  0  0  0  0  0  0
  158.1810  213.6700  155.7700 C   0  0  2  0  0  3  0  0  0  0  0  0
  157.6530  212.2560  155.8790 C   0  0  1  0  0  3  0  0  0  0  0  0
  159.9560  212.3070  156.5120 C   0  0  1  0  0  3  0  0  0  0  0  0
  158.6840  211.5150  156.6920 C   0  0  0  0  0  2  0  0  0  0  0  0
  156.6700  214.2930  153.9980 O   0  0  0  0  0  1  0  0  0  0  0  0
  158.0210  214.1960  154.3410 C   0  0  2  0  0  3  0  0  0  0  0  0
  158.7360  213.3030  153.3420 C   0  0  0  0  0  2  0  0  0  0  0  0
  157.8870  212.9950  152.2800 O   0  0  0  0  0  0  0  0  0  0  0  0
  158.2760  213.8550  151.2560 C   0  0  0  0  0  2  0  0  0  0  0  0
  158.3650  213.3550  148.9270 O   0  0  0  0  0  1  0  0  0  0  0  0
  157.4920  213.5440  149.9970 C   0  0  0  0  0  2  0  0  0  0  0  0
  156.3110  212.2540  156.5900 C   0  0  0  0  0  2  0  0  0  0  0  0
  155.4430  211.3730  155.9560 O   0  0  0  0  0  1  0  0  0  0  0  0
  1 28  1  0  0  0  0
  2  4  1  0  0  0  0
  4  1  1  0  0  0  0
  4  3  2  0  0  0  0
  5 10  1  0  0  0  0
  6  9  2  0  0  0  0
  7  6  1  0  0  0  0
  7  2  1  1  0  0  0
  8  5  1  0  0  0  0
  8 11  2  0  0  0  0
 10  6  1  0  0  0  0
 11  7  1  0  0  0  0
 12  5  2  0  0  0  0
 14 12  1  0  0  0  0
 14 13  2  0  0  0  0
 15 14  1  0  0  0  0
 16 19  1  0  0  0  0
 17 15  1  1  0  0  0
 17 20  1  0  0  0  0
 18 21  1  1  0  0  0
 18 17  1  0  0  0  0
 18 16  1  0  0  0  0
 20 19  1  0  0  0  0
 21 23  1  0  0  0  0
 22 21  2  0  0  0  0
 24 11  1  0  0  0  0
 25 27  1  1  0  0  0
 25 24  1  0  0  0  0
 26 25  1  0  0  0  0
 28 33  1  1  0  0  0
 28 32  1  0  0  0  0
 31 30  2  0  0  0  0
 32 31  2  0  0  0  0
 32 29  1  0  0  0  0
 34 37  1  0  0  0  0
 35 40  1  6  0  0  0
 35 36  1  0  0  0  0
 35 34  1  0  0  0  0
 36 46  1  1  0  0  0
 36 38  1  0  0  0  0
 37 33  1  6  0  0  0
 37 38  1  0  0  0  0
 40 39  1  6  0  0  0
 41 40  1  0  0  0  0
 42 41  1  0  0  0  0
 43 42  1  0  0  0  0
 44 45  1  0  0  0  0
 45 43  1  0  0  0  0
 47 46  1  0  0  0  0
M  END
>  <MODEL>
9

>  <REMARK>
 VINA RESULT:      -2.5      1.879      2.315
  Name = 
  17 active torsions:
  status: ('A' for Active; 'I' for Inactive)
    1  A    between atoms: C_1  and  O_24
    2  A    between atoms: N_3  and  C_8
    3  A    between atoms: N_5  and  C_12
    4  A    between atoms: C_6  and  C_37
    5  A    between atoms: N_10  and  C_23
    6  A    between atoms: C_11  and  C_12
    7  A    between atoms: C_11  and  C_32
    8  A    between atoms: C_12  and  C_31
    9  A    between atoms: C_17  and  C_18
   10  A    between atoms: C_17  and  C_19
   11  A    between atoms: C_19  and  O_41
   12  A    between atoms: C_21  and  C_34
   13  A    between atoms: O_24  and  C_44
   14  A    between atoms: C_29  and  C_45
   15  A    between atoms: C_30  and  C_45
   16  A    between atoms: C_35  and  O_41
   17  A    between atoms: C_35  and  C_47
                            x       y       z     vdW  Elec       q    Type
                         _______ _______ _______ _____ _____    ______ ____

>  <TORSDO>
F 17

$$$$
