=
 OpenBabel11042420433D

 27 29  0  0  1  0  0  0  0  0999 V2000
  161.4620  204.1670  150.8990 C   0  0  0  0  0  2  0  0  0  0  0  0
  160.8110  210.8200  152.2330 C   0  0  0  0  0  0  0  0  0  0  0  0
  161.8560  207.9180  151.5380 N   0  0  0  0  0  0  0  0  0  0  0  0
  161.5970  205.4940  151.6100 C   0  0  0  0  0  0  0  0  0  0  0  0
  161.7520  205.4360  153.0390 N   0  0  0  0  0  2  0  0  0  0  0  0
  161.4320  207.7280  148.7640 N   0  0  0  0  0  0  0  0  0  0  0  0
  160.8620  203.0000  148.6840 C   0  0  0  0  0  1  0  0  0  0  0  0
  160.4240  207.1950  154.0850 C   0  0  0  0  0  2  0  0  0  0  0  0
  163.2570  210.3120  152.5280 C   0  0  0  0  0  1  0  0  0  0  0  0
  161.1520  205.3830  148.7880 N   0  0  0  0  0  0  0  0  0  0  0  0
  161.6320  206.6480  150.9090 C   0  0  0  0  0  0  0  0  0  0  0  0
  161.1400  204.2550  149.4290 C   0  0  0  0  0  0  0  0  0  0  0  0
  161.6680  208.9910  149.4000 C   0  0  0  0  0  0  0  0  0  0  0  0
  160.3210  210.1980  153.2810 C   0  0  0  0  0  0  0  0  0  0  0  0
  161.4180  206.6220  149.4450 C   0  0  0  0  0  0  0  0  0  0  0  0
  162.0750  210.3390  151.5710 C   0  0  1  0  0  3  0  0  0  0  0  0
  161.8850  209.0290  150.8620 C   0  0  0  0  0  0  0  0  0  0  0  0
  161.6830  210.0480  148.7170 O   0  0  0  0  0  0  0  0  0  0  0  0
  160.5140  208.4360  154.9610 C   0  0  1  0  0  3  0  0  0  0  0  0
  161.7960  206.5600  153.9660 C   0  0  0  0  0  2  0  0  0  0  0  0
  159.8200  209.5980  154.3280 C   0  0  0  0  0  3  0  0  0  0  0  0
  160.2620  213.1020  152.4980 F   0  0  0  0  0  0  0  0  0  0  0  0
  158.7240  211.7190  151.6010 F   0  0  0  0  0  0  0  0  0  0  0  0
  160.5330  212.3160  150.4070 F   0  0  0  0  0  0  0  0  0  0  0  0
  160.0760  212.0040  151.6750 C   0  0  0  0  0  0  0  0  0  0  0  0
  159.9590  208.1600  156.3560 C   0  0  0  0  0  2  0  0  0  0  0  0
  161.0050  207.7060  157.2600 N   0  0  0  0  0  1  0  0  0  0  0  0
  1  4  1  0  0  0  0
  2 14  2  0  0  0  0
  4  5  1  0  0  0  0
  5 20  1  0  0  0  0
  6 13  1  0  0  0  0
  6 15  2  0  0  0  0
  7 12  1  0  0  0  0
  8 19  1  0  0  0  0
 10 12  2  0  0  0  0
 10 15  1  0  0  0  0
 11  3  1  0  0  0  0
 11  4  2  0  0  0  0
 12  1  1  0  0  0  0
 13 17  1  0  0  0  0
 14 21  2  0  0  0  0
 15 11  1  0  0  0  0
 16  2  1  0  0  0  0
 16  9  1  1  0  0  0
 17  3  2  0  0  0  0
 17 16  1  0  0  0  0
 18 13  2  0  0  0  0
 19 26  1  1  0  0  0
 20  8  1  0  0  0  0
 21 19  1  0  0  0  0
 23 25  1  0  0  0  0
 24 25  1  0  0  0  0
 25  2  1  0  0  0  0
 25 22  1  0  0  0  0
 26 27  1  0  0  0  0
M  END
>  <MODEL>
1

>  <REMARK>
 VINA RESULT:      -6.4      0.000      0.000
  Name = 
  2 active torsions:
  status: ('A' for Active; 'I' for Inactive)
    1  A    between atoms: C_2  and  C_26
    2  A    between atoms: C_18  and  C_24
                            x       y       z     vdW  Elec       q    Type
                         _______ _______ _______ _____ _____    ______ ____

>  <TORSDO>
F 2

$$$$
=
 OpenBabel11042420433D

 27 29  0  0  1  0  0  0  0  0999 V2000
  160.7870  211.5680  151.2000 C   0  0  0  0  0  2  0  0  0  0  0  0
  161.4590  204.7850  151.2190 C   0  0  0  0  0  0  0  0  0  0  0  0
  161.8330  207.9060  151.5590 N   0  0  0  0  0  0  0  0  0  0  0  0
  161.3230  210.1920  150.8790 C   0  0  0  0  0  0  0  0  0  0  0  0
  161.9630  210.0420  149.5990 N   0  0  0  0  0  2  0  0  0  0  0  0
  160.4390  208.4660  153.9380 N   0  0  0  0  0  0  0  0  0  0  0  0
  159.3090  212.9490  152.7940 C   0  0  0  0  0  1  0  0  0  0  0  0
  161.3120  207.9170  148.5950 C   0  0  0  0  0  2  0  0  0  0  0  0
  163.7720  205.6900  151.6220 C   0  0  0  0  0  1  0  0  0  0  0  0
  159.9040  210.6800  153.3120 N   0  0  0  0  0  0  0  0  0  0  0  0
  161.2490  209.1970  151.7890 C   0  0  0  0  0  0  0  0  0  0  0  0
  159.9810  211.6640  152.4700 C   0  0  0  0  0  0  0  0  0  0  0  0
  161.0350  207.1840  153.7040 C   0  0  0  0  0  0  0  0  0  0  0  0
  161.2970  205.1220  149.9610 C   0  0  0  0  0  0  0  0  0  0  0  0
  160.5320  209.4230  153.0640 C   0  0  0  0  0  0  0  0  0  0  0  0
  162.3400  205.5980  152.1300 C   0  0  1  0  0  3  0  0  0  0  0  0
  161.7560  206.9470  152.4350 C   0  0  0  0  0  0  0  0  0  0  0  0
  160.9370  206.2750  154.5700 O   0  0  0  0  0  0  0  0  0  0  0  0
  161.8540  206.5880  148.0880 C   0  0  1  0  0  3  0  0  0  0  0  0
  162.4660  208.8100  149.0060 C   0  0  0  0  0  2  0  0  0  0  0  0
  161.1280  205.4360  148.7040 C   0  0  0  0  0  3  0  0  0  0  0  0
  161.6110  202.5500  151.9680 F   0  0  0  0  0  0  0  0  0  0  0  0
  159.7630  203.1880  150.8460 F   0  0  0  0  0  0  0  0  0  0  0  0
  160.1000  203.8950  152.9540 F   0  0  0  0  0  0  0  0  0  0  0  0
  160.7240  203.5910  151.7570 C   0  0  0  0  0  0  0  0  0  0  0  0
  161.7970  206.5220  146.5650 C   0  0  0  0  0  2  0  0  0  0  0  0
  160.4520  206.2200  146.1000 N   0  0  0  0  0  1  0  0  0  0  0  0
  1 12  1  0  0  0  0
  2 25  1  0  0  0  0
  2 16  1  0  0  0  0
  3 11  1  0  0  0  0
  3 17  2  0  0  0  0
  4  1  1  0  0  0  0
  4 11  2  0  0  0  0
  5  4  1  0  0  0  0
  8 20  1  0  0  0  0
 11 15  1  0  0  0  0
 12  7  1  0  0  0  0
 12 10  2  0  0  0  0
 13  6  1  0  0  0  0
 13 18  2  0  0  0  0
 14  2  2  0  0  0  0
 15 10  1  0  0  0  0
 15  6  2  0  0  0  0
 16  9  1  6  0  0  0
 16 17  1  0  0  0  0
 17 13  1  0  0  0  0
 19 26  1  6  0  0  0
 19  8  1  0  0  0  0
 19 21  1  0  0  0  0
 20  5  1  0  0  0  0
 21 14  2  0  0  0  0
 23 25  1  0  0  0  0
 25 22  1  0  0  0  0
 25 24  1  0  0  0  0
 27 26  1  0  0  0  0
M  END
>  <MODEL>
2

>  <REMARK>
 VINA RESULT:      -6.2      3.614      7.023
  Name = 
  2 active torsions:
  status: ('A' for Active; 'I' for Inactive)
    1  A    between atoms: C_2  and  C_26
    2  A    between atoms: C_18  and  C_24
                            x       y       z     vdW  Elec       q    Type
                         _______ _______ _______ _____ _____    ______ ____

>  <TORSDO>
F 2

$$$$
=
 OpenBabel11042420433D

 27 29  0  0  1  0  0  0  0  0999 V2000
  159.3650  212.9820  150.4050 C   0  0  0  0  0  2  0  0  0  0  0  0
  160.7190  208.4800  155.3400 C   0  0  0  0  0  0  0  0  0  0  0  0
  160.5950  211.0020  153.4380 N   0  0  0  0  0  0  0  0  0  0  0  0
  160.1290  212.0000  151.2610 C   0  0  0  0  0  0  0  0  0  0  0  0
  161.2120  211.3040  150.6180 N   0  0  0  0  0  2  0  0  0  0  0  0
  158.3640  212.4230  154.3960 N   0  0  0  0  0  0  0  0  0  0  0  0
  157.2590  214.4530  150.2320 C   0  0  0  0  0  1  0  0  0  0  0  0
  161.2180  208.9650  151.3110 C   0  0  0  0  0  2  0  0  0  0  0  0
  162.6020  210.1470  155.4170 C   0  0  0  0  0  1  0  0  0  0  0  0
  157.8620  213.3950  152.3030 N   0  0  0  0  0  0  0  0  0  0  0  0
  159.8310  211.8520  152.5700 C   0  0  0  0  0  0  0  0  0  0  0  0
  158.1390  213.5780  151.0490 C   0  0  0  0  0  0  0  0  0  0  0  0
  159.1410  211.5800  155.2560 C   0  0  0  0  0  0  0  0  0  0  0  0
  161.0010  207.8680  154.2130 C   0  0  0  0  0  0  0  0  0  0  0  0
  158.6710  212.5720  153.1420 C   0  0  0  0  0  0  0  0  0  0  0  0
  161.1030  209.9200  155.5540 C   0  0  1  0  0  3  0  0  0  0  0  0
  160.3030  210.8580  154.6970 C   0  0  0  0  0  0  0  0  0  0  0  0
  158.8270  211.4580  156.4700 O   0  0  0  0  0  0  0  0  0  0  0  0
  162.0510  207.9000  152.0090 C   0  0  1  0  0  3  0  0  0  0  0  0
  162.0310  210.2380  151.1800 C   0  0  0  0  0  2  0  0  0  0  0  0
  161.2790  207.2380  153.1030 C   0  0  0  0  0  3  0  0  0  0  0  0
  160.8540  206.9670  157.1490 F   0  0  0  0  0  0  0  0  0  0  0  0
  159.0290  206.9080  155.8270 F   0  0  0  0  0  0  0  0  0  0  0  0
  159.3250  208.6150  157.2610 F   0  0  0  0  0  0  0  0  0  0  0  0
  159.9720  207.7360  156.4100 C   0  0  0  0  0  0  0  0  0  0  0  0
  162.5730  206.8730  151.0070 C   0  0  0  0  0  2  0  0  0  0  0  0
  161.5900  206.6010  149.9700 N   0  0  0  0  0  1  0  0  0  0  0  0
  1 12  1  0  0  0  0
  1  4  1  0  0  0  0
  2 16  1  0  0  0  0
  2 25  1  0  0  0  0
  3 17  2  0  0  0  0
  4 11  2  0  0  0  0
  5 20  1  0  0  0  0
  5  4  1  0  0  0  0
  6 13  1  0  0  0  0
  7 12  1  0  0  0  0
  8 19  1  0  0  0  0
 10 15  1  0  0  0  0
 11 15  1  0  0  0  0
 11  3  1  0  0  0  0
 12 10  2  0  0  0  0
 13 18  2  0  0  0  0
 14  2  2  0  0  0  0
 15  6  2  0  0  0  0
 16  9  1  6  0  0  0
 17 13  1  0  0  0  0
 17 16  1  0  0  0  0
 19 26  1  6  0  0  0
 19 21  1  0  0  0  0
 20  8  1  0  0  0  0
 21 14  2  0  0  0  0
 23 25  1  0  0  0  0
 25 22  1  0  0  0  0
 25 24  1  0  0  0  0
 27 26  1  0  0  0  0
M  END
>  <MODEL>
3

>  <REMARK>
 VINA RESULT:      -5.3      3.758      6.672
  Name = 
  2 active torsions:
  status: ('A' for Active; 'I' for Inactive)
    1  A    between atoms: C_2  and  C_26
    2  A    between atoms: C_18  and  C_24
                            x       y       z     vdW  Elec       q    Type
                         _______ _______ _______ _____ _____    ______ ____

>  <TORSDO>
F 2

$$$$
=
 OpenBabel11042420433D

 27 29  0  0  1  0  0  0  0  0999 V2000
  160.5020  212.6890  149.1890 C   0  0  0  0  0  2  0  0  0  0  0  0
  160.5040  209.0330  154.9410 C   0  0  0  0  0  0  0  0  0  0  0  0
  161.0470  211.1300  152.6400 N   0  0  0  0  0  0  0  0  0  0  0  0
  160.9790  211.7660  150.2850 C   0  0  0  0  0  0  0  0  0  0  0  0
  161.9540  210.7790  149.9050 N   0  0  0  0  0  2  0  0  0  0  0  0
  159.0670  213.0820  153.0650 N   0  0  0  0  0  0  0  0  0  0  0  0
  158.7510  214.4530  148.5150 C   0  0  0  0  0  1  0  0  0  0  0  0
  161.4370  208.6500  150.9790 C   0  0  0  0  0  2  0  0  0  0  0  0
  162.6650  210.3200  154.9630 C   0  0  0  0  0  1  0  0  0  0  0  0
  158.9510  213.7150  150.7930 N   0  0  0  0  0  0  0  0  0  0  0  0
  160.5440  211.9240  151.5540 C   0  0  0  0  0  0  0  0  0  0  0  0
  159.3670  213.6050  149.5690 C   0  0  0  0  0  0  0  0  0  0  0  0
  159.5840  212.2920  154.1440 C   0  0  0  0  0  0  0  0  0  0  0  0
  160.7560  208.1780  153.9770 C   0  0  0  0  0  0  0  0  0  0  0  0
  159.5050  212.9340  151.8510 C   0  0  0  0  0  0  0  0  0  0  0  0
  161.1450  210.3950  154.9540 C   0  0  1  0  0  3  0  0  0  0  0  0
  160.6240  211.2820  153.8600 C   0  0  0  0  0  0  0  0  0  0  0  0
  159.1480  212.4600  155.3130 O   0  0  0  0  0  0  0  0  0  0  0  0
  161.9800  207.6050  151.9430 C   0  0  1  0  0  3  0  0  0  0  0  0
  162.4950  209.7100  150.7350 C   0  0  0  0  0  2  0  0  0  0  0  0
  161.0000  207.3100  153.0320 C   0  0  0  0  0  3  0  0  0  0  0  0
  158.5470  209.6150  156.1280 F   0  0  0  0  0  0  0  0  0  0  0  0
  160.2010  208.5520  157.2310 F   0  0  0  0  0  0  0  0  0  0  0  0
  158.9390  207.4330  155.7430 F   0  0  0  0  0  0  0  0  0  0  0  0
  159.5340  208.6510  156.0230 C   0  0  0  0  0  0  0  0  0  0  0  0
  162.3730  206.3310  151.2000 C   0  0  0  0  0  2  0  0  0  0  0  0
  161.2050  205.6530  150.6580 N   0  0  0  0  0  1  0  0  0  0  0  0
  1 12  1  0  0  0  0
  1  4  1  0  0  0  0
  2 16  1  0  0  0  0
  2 25  1  0  0  0  0
  3 17  2  0  0  0  0
  4 11  2  0  0  0  0
  5  4  1  0  0  0  0
  5 20  1  0  0  0  0
  6 13  1  0  0  0  0
  7 12  1  0  0  0  0
  8 19  1  0  0  0  0
 10 15  1  0  0  0  0
 11 15  1  0  0  0  0
 11  3  1  0  0  0  0
 12 10  2  0  0  0  0
 13 18  2  0  0  0  0
 14  2  2  0  0  0  0
 15  6  2  0  0  0  0
 16  9  1  6  0  0  0
 17 13  1  0  0  0  0
 17 16  1  0  0  0  0
 19 26  1  6  0  0  0
 19 21  1  0  0  0  0
 20  8  1  0  0  0  0
 21 14  2  0  0  0  0
 24 25  1  0  0  0  0
 25 22  1  0  0  0  0
 25 23  1  0  0  0  0
 27 26  1  0  0  0  0
M  END
>  <MODEL>
4

>  <REMARK>
 VINA RESULT:      -4.9      3.472      6.214
  Name = 
  2 active torsions:
  status: ('A' for Active; 'I' for Inactive)
    1  A    between atoms: C_2  and  C_26
    2  A    between atoms: C_18  and  C_24
                            x       y       z     vdW  Elec       q    Type
                         _______ _______ _______ _____ _____    ______ ____

>  <TORSDO>
F 2

$$$$
=
 OpenBabel11042420433D

 27 29  0  0  1  0  0  0  0  0999 V2000
  161.0880  204.3270  150.0130 C   0  0  0  0  0  2  0  0  0  0  0  0
  161.7350  210.0400  153.6730 C   0  0  0  0  0  0  0  0  0  0  0  0
  160.6880  207.4880  152.1290 N   0  0  0  0  0  0  0  0  0  0  0  0
  160.9720  205.7790  150.4120 C   0  0  0  0  0  0  0  0  0  0  0  0
  160.8810  206.7290  149.3350 N   0  0  0  0  0  2  0  0  0  0  0  0
  160.9910  205.4240  154.0160 N   0  0  0  0  0  0  0  0  0  0  0  0
  161.6010  201.9390  150.8280 C   0  0  0  0  0  1  0  0  0  0  0  0
  162.2380  208.6910  149.8460 C   0  0  0  0  0  2  0  0  0  0  0  0
  159.3090  209.9350  153.0150 C   0  0  0  0  0  1  0  0  0  0  0  0
  161.2930  203.7390  152.3890 N   0  0  0  0  0  0  0  0  0  0  0  0
  160.8960  206.1300  151.7140 C   0  0  0  0  0  0  0  0  0  0  0  0
  161.3450  203.3670  151.1470 C   0  0  0  0  0  0  0  0  0  0  0  0
  160.7710  206.7810  154.4200 C   0  0  0  0  0  0  0  0  0  0  0  0
  162.2770  210.3030  152.5060 C   0  0  0  0  0  0  0  0  0  0  0  0
  161.0450  205.0950  152.7600 C   0  0  0  0  0  0  0  0  0  0  0  0
  160.4480  209.2650  153.7700 C   0  0  1  0  0  3  0  0  0  0  0  0
  160.6190  207.8240  153.3840 C   0  0  0  0  0  0  0  0  0  0  0  0
  160.7160  207.0740  155.6440 O   0  0  0  0  0  0  0  0  0  0  0  0
  162.1750  210.1950  150.0690 C   0  0  1  0  0  3  0  0  0  0  0  0
  160.8680  208.1820  149.4410 C   0  0  0  0  0  2  0  0  0  0  0  0
  162.8290  210.5810  151.3560 C   0  0  0  0  0  3  0  0  0  0  0  0
  162.4860  209.4520  155.8340 F   0  0  0  0  0  0  0  0  0  0  0  0
  161.7410  211.5510  155.4850 F   0  0  0  0  0  0  0  0  0  0  0  0
  163.7240  210.9070  154.6440 F   0  0  0  0  0  0  0  0  0  0  0  0
  162.4340  210.4930  154.9230 C   0  0  0  0  0  0  0  0  0  0  0  0
  162.7930  210.9460  148.8920 C   0  0  0  0  0  2  0  0  0  0  0  0
  161.8110  211.7880  148.2280 N   0  0  0  0  0  1  0  0  0  0  0  0
  1  4  1  0  0  0  0
  1 12  1  0  0  0  0
  2 16  1  0  0  0  0
  2 25  1  0  0  0  0
  3 17  2  0  0  0  0
  4 11  2  0  0  0  0
  5 20  1  0  0  0  0
  5  4  1  0  0  0  0
  6 13  1  0  0  0  0
  7 12  1  0  0  0  0
  8 19  1  0  0  0  0
 10 15  1  0  0  0  0
 11  3  1  0  0  0  0
 11 15  1  0  0  0  0
 12 10  2  0  0  0  0
 13 18  2  0  0  0  0
 14  2  2  0  0  0  0
 15  6  2  0  0  0  0
 16  9  1  6  0  0  0
 17 16  1  0  0  0  0
 17 13  1  0  0  0  0
 19 26  1  6  0  0  0
 19 21  1  0  0  0  0
 20  8  1  0  0  0  0
 21 14  2  0  0  0  0
 24 25  1  0  0  0  0
 25 23  1  0  0  0  0
 25 22  1  0  0  0  0
 27 26  1  0  0  0  0
M  END
>  <MODEL>
5

>  <REMARK>
 VINA RESULT:      -4.5      2.586      4.690
  Name = 
  2 active torsions:
  status: ('A' for Active; 'I' for Inactive)
    1  A    between atoms: C_2  and  C_26
    2  A    between atoms: C_18  and  C_24
                            x       y       z     vdW  Elec       q    Type
                         _______ _______ _______ _____ _____    ______ ____

>  <TORSDO>
F 2

$$$$
=
 OpenBabel11042420433D

 27 29  0  0  1  0  0  0  0  0999 V2000
  160.7980  208.9380  153.6110 C   0  0  0  0  0  2  0  0  0  0  0  0
  159.5490  213.4360  148.6440 C   0  0  0  0  0  0  0  0  0  0  0  0
  160.7840  211.7460  151.0130 N   0  0  0  0  0  0  0  0  0  0  0  0
  160.5150  210.2530  152.9230 C   0  0  0  0  0  0  0  0  0  0  0  0
  159.8290  211.2450  153.7070 N   0  0  0  0  0  2  0  0  0  0  0  0
  162.0110  209.5860  149.6930 N   0  0  0  0  0  0  0  0  0  0  0  0
  161.5570  206.4980  153.2890 C   0  0  0  0  0  1  0  0  0  0  0  0
  158.1530  212.3690  152.3360 C   0  0  0  0  0  2  0  0  0  0  0  0
  161.3900  214.4530  150.0240 C   0  0  0  0  0  1  0  0  0  0  0  0
  161.7520  208.0990  151.5080 N   0  0  0  0  0  0  0  0  0  0  0  0
  160.9490  210.4780  151.6640 C   0  0  0  0  0  0  0  0  0  0  0  0
  161.3690  207.8600  152.7250 C   0  0  0  0  0  0  0  0  0  0  0  0
  161.8520  210.8610  149.0560 C   0  0  0  0  0  0  0  0  0  0  0  0
  158.5460  213.5470  149.4840 C   0  0  0  0  0  0  0  0  0  0  0  0
  161.6050  209.3860  150.9110 C   0  0  0  0  0  0  0  0  0  0  0  0
  160.9620  213.2890  149.1430 C   0  0  1  0  0  3  0  0  0  0  0  0
  161.2000  211.9590  149.7990 C   0  0  0  0  0  0  0  0  0  0  0  0
  162.2600  211.0310  147.8770 O   0  0  0  0  0  0  0  0  0  0  0  0
  157.7380  213.7240  151.7820 C   0  0  1  0  0  3  0  0  0  0  0  0
  159.3460  212.5440  153.2570 C   0  0  0  0  0  2  0  0  0  0  0  0
  157.5350  213.6660  150.3030 C   0  0  0  0  0  3  0  0  0  0  0  0
  158.2170  214.2750  146.8830 F   0  0  0  0  0  0  0  0  0  0  0  0
  158.9320  212.1400  146.7720 F   0  0  0  0  0  0  0  0  0  0  0  0
  160.3800  213.8310  146.4520 F   0  0  0  0  0  0  0  0  0  0  0  0
  159.2690  213.4220  147.1690 C   0  0  0  0  0  0  0  0  0  0  0  0
  156.4870  214.2410  152.4870 C   0  0  0  0  0  2  0  0  0  0  0  0
  155.3250  214.1820  151.6130 N   0  0  0  0  0  1  0  0  0  0  0  0
  2 16  1  0  0  0  0
  2 14  2  0  0  0  0
  3 11  1  0  0  0  0
  4  1  1  0  0  0  0
  4  5  1  0  0  0  0
  6 15  2  0  0  0  0
  8 20  1  0  0  0  0
 10 12  2  0  0  0  0
 11  4  2  0  0  0  0
 12  7  1  0  0  0  0
 12  1  1  0  0  0  0
 13  6  1  0  0  0  0
 13 17  1  0  0  0  0
 14 21  2  0  0  0  0
 15 10  1  0  0  0  0
 15 11  1  0  0  0  0
 16 17  1  0  0  0  0
 16  9  1  1  0  0  0
 17  3  2  0  0  0  0
 18 13  2  0  0  0  0
 19  8  1  0  0  0  0
 19 26  1  1  0  0  0
 20  5  1  0  0  0  0
 21 19  1  0  0  0  0
 22 25  1  0  0  0  0
 23 25  1  0  0  0  0
 24 25  1  0  0  0  0
 25  2  1  0  0  0  0
 27 26  1  0  0  0  0
M  END
>  <MODEL>
6

>  <REMARK>
 VINA RESULT:      -4.2      3.354      5.287
  Name = 
  2 active torsions:
  status: ('A' for Active; 'I' for Inactive)
    1  A    between atoms: C_2  and  C_26
    2  A    between atoms: C_18  and  C_24
                            x       y       z     vdW  Elec       q    Type
                         _______ _______ _______ _____ _____    ______ ____

>  <TORSDO>
F 2

$$$$
=
 OpenBabel11042420433D

 27 29  0  0  1  0  0  0  0  0999 V2000
  160.8250  210.6480  155.1550 C   0  0  0  0  0  2  0  0  0  0  0  0
  161.5190  205.9460  150.2700 C   0  0  0  0  0  0  0  0  0  0  0  0
  161.8600  207.8270  152.7870 N   0  0  0  0  0  0  0  0  0  0  0  0
  161.3850  209.9130  153.9590 C   0  0  0  0  0  0  0  0  0  0  0  0
  162.1010  210.7120  153.0010 N   0  0  0  0  0  2  0  0  0  0  0  0
  160.3220  206.5450  154.7630 N   0  0  0  0  0  0  0  0  0  0  0  0
  159.2480  210.5020  157.1850 C   0  0  0  0  0  1  0  0  0  0  0  0
  161.5200  210.0070  150.7390 C   0  0  0  0  0  2  0  0  0  0  0  0
  163.7990  206.1800  151.3050 C   0  0  0  0  0  1  0  0  0  0  0  0
  159.8180  208.5420  155.9190 N   0  0  0  0  0  0  0  0  0  0  0  0
  161.2580  208.5720  153.8560 C   0  0  0  0  0  0  0  0  0  0  0  0
  159.9430  209.8250  156.0600 C   0  0  0  0  0  0  0  0  0  0  0  0
  160.9360  205.8090  153.6970 C   0  0  0  0  0  0  0  0  0  0  0  0
  161.4320  207.0970  149.6440 C   0  0  0  0  0  0  0  0  0  0  0  0
  160.4650  207.8330  154.8620 C   0  0  0  0  0  0  0  0  0  0  0  0
  162.3400  205.8070  151.5230 C   0  0  1  0  0  3  0  0  0  0  0  0
  161.7330  206.5370  152.6870 C   0  0  0  0  0  0  0  0  0  0  0  0
  160.7890  204.5600  153.6260 O   0  0  0  0  0  0  0  0  0  0  0  0
  162.0970  209.4390  149.4500 C   0  0  1  0  0  3  0  0  0  0  0  0
  162.6440  210.2750  151.7210 C   0  0  0  0  0  2  0  0  0  0  0  0
  161.3390  208.2310  149.0030 C   0  0  0  0  0  3  0  0  0  0  0  0
  160.0430  205.1380  148.6120 F   0  0  0  0  0  0  0  0  0  0  0  0
  159.8750  204.3100  150.7020 F   0  0  0  0  0  0  0  0  0  0  0  0
  161.6160  203.7350  149.4000 F   0  0  0  0  0  0  0  0  0  0  0  0
  160.7560  204.7660  149.7380 C   0  0  0  0  0  0  0  0  0  0  0  0
  162.1320  210.5010  148.3550 C   0  0  0  0  0  2  0  0  0  0  0  0
  161.8530  211.8240  148.8920 N   0  0  0  0  0  1  0  0  0  0  0  0
  1 12  1  0  0  0  0
  2 16  1  0  0  0  0
  3 11  1  0  0  0  0
  4  1  1  0  0  0  0
  5  4  1  0  0  0  0
  6 15  2  0  0  0  0
  8 20  1  0  0  0  0
 10 12  2  0  0  0  0
 11  4  2  0  0  0  0
 11 15  1  0  0  0  0
 12  7  1  0  0  0  0
 13  6  1  0  0  0  0
 14  2  2  0  0  0  0
 15 10  1  0  0  0  0
 16  9  1  6  0  0  0
 16 17  1  0  0  0  0
 17  3  2  0  0  0  0
 17 13  1  0  0  0  0
 18 13  2  0  0  0  0
 19 26  1  6  0  0  0
 19  8  1  0  0  0  0
 20  5  1  0  0  0  0
 21 19  1  0  0  0  0
 21 14  2  0  0  0  0
 22 25  1  0  0  0  0
 24 25  1  0  0  0  0
 25  2  1  0  0  0  0
 25 23  1  0  0  0  0
 26 27  1  0  0  0  0
M  END
>  <MODEL>
7

>  <REMARK>
 VINA RESULT:      -4.2      3.466      6.638
  Name = 
  2 active torsions:
  status: ('A' for Active; 'I' for Inactive)
    1  A    between atoms: C_2  and  C_26
    2  A    between atoms: C_18  and  C_24
                            x       y       z     vdW  Elec       q    Type
                         _______ _______ _______ _____ _____    ______ ____

>  <TORSDO>
F 2

$$$$
=
 OpenBabel11042420433D

 27 29  0  0  1  0  0  0  0  0999 V2000
  161.7950  204.6670  149.6100 C   0  0  0  0  0  2  0  0  0  0  0  0
  160.8070  210.8630  152.2730 C   0  0  0  0  0  0  0  0  0  0  0  0
  161.9910  208.2370  150.9710 N   0  0  0  0  0  0  0  0  0  0  0  0
  161.8850  205.8340  150.5650 C   0  0  0  0  0  0  0  0  0  0  0  0
  162.1190  205.5070  151.9470 N   0  0  0  0  0  2  0  0  0  0  0  0
  161.4330  208.5680  148.2330 N   0  0  0  0  0  0  0  0  0  0  0  0
  161.1520  203.9210  147.2300 C   0  0  0  0  0  1  0  0  0  0  0  0
  160.7410  206.9270  153.3750 C   0  0  0  0  0  2  0  0  0  0  0  0
  163.2920  210.4820  152.3630 C   0  0  0  0  0  1  0  0  0  0  0  0
  161.3000  206.2500  147.7980 N   0  0  0  0  0  0  0  0  0  0  0  0
  161.8120  207.1030  150.1090 C   0  0  0  0  0  0  0  0  0  0  0  0
  161.3910  205.0200  148.2010 C   0  0  0  0  0  0  0  0  0  0  0  0
  161.6240  209.6940  149.1000 C   0  0  0  0  0  0  0  0  0  0  0  0
  160.4120  210.0140  153.1930 C   0  0  0  0  0  0  0  0  0  0  0  0
  161.5240  207.3510  148.6790 C   0  0  0  0  0  0  0  0  0  0  0  0
  162.0610  210.6130  151.4780 C   0  0  1  0  0  3  0  0  0  0  0  0
  161.9150  209.4580  150.5290 C   0  0  0  0  0  0  0  0  0  0  0  0
  161.5380  210.8630  148.6420 O   0  0  0  0  0  0  0  0  0  0  0  0
  160.8010  207.9740  154.4780 C   0  0  1  0  0  3  0  0  0  0  0  0
  162.1420  206.4260  153.0770 C   0  0  0  0  0  2  0  0  0  0  0  0
  160.0040  209.1860  154.1180 C   0  0  0  0  0  3  0  0  0  0  0  0
  159.4100  211.9810  150.7320 F   0  0  0  0  0  0  0  0  0  0  0  0
  160.7670  213.2110  152.0460 F   0  0  0  0  0  0  0  0  0  0  0  0
  158.9570  212.2060  152.9250 F   0  0  0  0  0  0  0  0  0  0  0  0
  159.9720  212.0800  151.9930 C   0  0  0  0  0  0  0  0  0  0  0  0
  160.3390  207.3890  155.8100 C   0  0  0  0  0  2  0  0  0  0  0  0
  158.9480  206.9670  155.7470 N   0  0  0  0  0  1  0  0  0  0  0  0
  1  4  1  0  0  0  0
  2 14  2  0  0  0  0
  4  5  1  0  0  0  0
  5 20  1  0  0  0  0
  6 15  2  0  0  0  0
  6 13  1  0  0  0  0
  7 12  1  0  0  0  0
  8 19  1  0  0  0  0
 10 12  2  0  0  0  0
 10 15  1  0  0  0  0
 11  4  2  0  0  0  0
 11  3  1  0  0  0  0
 12  1  1  0  0  0  0
 13 17  1  0  0  0  0
 14 21  2  0  0  0  0
 15 11  1  0  0  0  0
 16  2  1  0  0  0  0
 16  9  1  1  0  0  0
 17  3  2  0  0  0  0
 17 16  1  0  0  0  0
 18 13  2  0  0  0  0
 19 26  1  1  0  0  0
 20  8  1  0  0  0  0
 21 19  1  0  0  0  0
 22 25  1  0  0  0  0
 25 23  1  0  0  0  0
 25  2  1  0  0  0  0
 25 24  1  0  0  0  0
 27 26  1  0  0  0  0
M  END
>  <MODEL>
8

>  <REMARK>
 VINA RESULT:      -3.8      1.042      1.332
  Name = 
  2 active torsions:
  status: ('A' for Active; 'I' for Inactive)
    1  A    between atoms: C_2  and  C_26
    2  A    between atoms: C_18  and  C_24
                            x       y       z     vdW  Elec       q    Type
                         _______ _______ _______ _____ _____    ______ ____

>  <TORSDO>
F 2

$$$$
