=
 OpenBabel11042422513D

 29 33  0  0  1  0  0  0  0  0999 V2000
  158.6720  214.0100  153.2760 O   0  0  0  0  0  1  0  0  0  0  0  0
  160.9970  211.0350  151.5200 N   0  0  0  0  0  0  0  0  0  0  0  0
  162.1550  210.2330  151.1440 C   0  0  1  0  0  3  0  0  0  0  0  0
  161.3260  207.8520  148.2170 C   0  0  0  0  0  1  0  0  0  0  0  0
  161.7070  208.9410  150.4500 C   0  0  1  0  0  3  0  0  0  0  0  0
  162.0230  208.9860  148.9430 C   0  0  2  0  0  3  0  0  0  0  0  0
  161.1450  212.3820  149.3450 C   0  0  1  0  0  3  0  0  0  0  0  0
  159.7260  213.1310  151.3350 C   0  0  0  0  0  0  0  0  0  0  0  0
  159.6260  211.7400  153.3490 C   0  0  0  0  0  3  0  0  0  0  0  0
  159.1440  213.6720  148.2800 C   0  0  0  0  0  0  0  0  0  0  0  0
  158.5160  214.2550  149.5090 C   0  0  0  0  0  2  0  0  0  0  0  0
  162.2470  211.3540  148.9700 C   0  0  1  0  0  0  0  0  0  0  0  0
  160.2390  212.7900  148.1800 C   0  0  0  0  0  0  0  0  0  0  0  0
  159.3320  212.9810  152.6120 C   0  0  0  0  0  0  0  0  0  0  0  0
  160.3050  211.9470  150.5810 C   0  0  2  0  0  3  0  0  0  0  0  0
  163.2210  211.9670  147.9760 C   0  0  0  0  0  1  0  0  0  0  0  0
  159.5050  214.4370  150.6400 C   0  0  0  0  0  2  0  0  0  0  0  0
  163.0540  211.0510  150.2390 C   0  0  0  0  0  2  0  0  0  0  0  0
  158.4570  213.8730  146.7600 S   0  0  0  0  0  0  0  0  0  0  0  0
  159.5430  212.8910  145.9530 C   0  0  0  0  0  0  0  0  0  0  0  0
  160.4390  210.8250  152.8220 C   0  0  0  0  0  3  0  0  0  0  0  0
  160.4580  212.3720  146.8510 C   0  0  0  0  0  3  0  0  0  0  0  0
  161.6180  210.2140  148.3750 O   0  0  0  0  0  0  0  0  0  0  0  0
  160.6710  207.3620  152.5940 O   0  0  0  0  0  0  0  0  0  0  0  0
  162.3870  207.8130  151.0720 N   0  0  0  0  0  2  0  0  0  0  0  0
  162.4800  205.9580  152.6470 O   0  0  0  0  0  1  0  0  0  0  0  0
  161.7980  207.0490  152.1250 C   0  0  0  0  0  0  0  0  0  0  0  0
  159.5250  212.6240  144.5430 C   0  0  0  0  0  0  0  0  0  0  0  0
  159.5110  212.4070  143.4060 N   0  0  0  0  0  0  0  0  0  0  0  0
  2 21  1  0  0  0  0
  3 18  1  6  0  0  0
  3  2  1  0  0  0  0
  5 25  1  1  0  0  0
  5  3  1  0  0  0  0
  6  4  1  6  0  0  0
  6  5  1  0  0  0  0
  7 13  1  6  0  0  0
  7 15  1  0  0  0  0
  8 14  2  0  0  0  0
 10 11  1  0  0  0  0
 11 17  1  0  0  0  0
 12 16  1  6  0  0  0
 12  7  1  0  0  0  0
 12 18  1  0  0  0  0
 13 10  2  0  0  0  0
 14  1  1  0  0  0  0
 14  9  1  0  0  0  0
 15  8  1  1  0  0  0
 15  2  1  0  0  0  0
 17  8  1  0  0  0  0
 19 10  1  0  0  0  0
 20 19  1  0  0  0  0
 20 22  2  0  0  0  0
 21  9  2  0  0  0  0
 22 13  1  0  0  0  0
 23  6  1  0  0  0  0
 23 12  1  0  0  0  0
 25 27  1  0  0  0  0
 27 24  2  0  0  0  0
 27 26  1  0  0  0  0
 28 20  1  0  0  0  0
 29 28  3  0  0  0  0
M  END
>  <MODEL>
1

>  <REMARK>
 VINA RESULT:      -4.4      0.000      0.000
  Name = 
  2 active torsions:
  status: ('A' for Active; 'I' for Inactive)
    1  A    between atoms: C_6  and  N_16
    2  A    between atoms: C_23  and  C_26
                            x       y       z     vdW  Elec       q    Type
                         _______ _______ _______ _____ _____    ______ ____

>  <TORSDO>
F 2

$$$$
=
 OpenBabel11042422513D

 29 33  0  0  1  0  0  0  0  0999 V2000
  160.7240  202.8260  152.6910 O   0  0  0  0  0  1  0  0  0  0  0  0
  160.9910  203.3690  148.5700 N   0  0  0  0  0  0  0  0  0  0  0  0
  161.4590  203.2640  147.1940 C   0  0  1  0  0  3  0  0  0  0  0  0
  159.8280  205.9460  144.9430 C   0  0  0  0  0  1  0  0  0  0  0  0
  160.4330  203.8750  146.2320 C   0  0  1  0  0  3  0  0  0  0  0  0
  160.9460  205.2070  145.6530 C   0  0  2  0  0  3  0  0  0  0  0  0
  162.2750  205.5620  148.9060 C   0  0  1  0  0  3  0  0  0  0  0  0
  161.3140  204.2170  150.8560 C   0  0  0  0  0  0  0  0  0  0  0  0
  160.0670  202.1550  150.4130 C   0  0  0  0  0  3  0  0  0  0  0  0
  161.6780  207.3490  150.7090 C   0  0  0  0  0  0  0  0  0  0  0  0
  161.3520  206.4600  151.8700 C   0  0  0  0  0  2  0  0  0  0  0  0
  162.5610  205.4410  147.3830 C   0  0  1  0  0  0  0  0  0  0  0  0
  162.0060  206.9910  149.3870 C   0  0  0  0  0  0  0  0  0  0  0  0
  160.7140  203.1100  151.3290 C   0  0  0  0  0  0  0  0  0  0  0  0
  161.1600  204.5890  149.3920 C   0  0  2  0  0  3  0  0  0  0  0  0
  163.8490  206.1690  147.0330 C   0  0  0  0  0  1  0  0  0  0  0  0
  162.0510  205.1190  151.7940 C   0  0  0  0  0  2  0  0  0  0  0  0
  162.8010  203.9580  147.0710 C   0  0  0  0  0  2  0  0  0  0  0  0
  161.5100  209.0170  150.8040 S   0  0  0  0  0  0  0  0  0  0  0  0
  161.8820  209.3160  149.2020 C   0  0  0  0  0  0  0  0  0  0  0  0
  160.2230  202.2810  149.0960 C   0  0  0  0  0  3  0  0  0  0  0  0
  162.1310  208.1200  148.5520 C   0  0  0  0  0  3  0  0  0  0  0  0
  161.4720  206.0350  146.6710 O   0  0  0  0  0  0  0  0  0  0  0  0
  160.7670  201.0430  146.4060 O   0  0  0  0  0  1  0  0  0  0  0  0
  160.1730  202.9280  145.1570 N   0  0  0  0  0  2  0  0  0  0  0  0
  160.0310  200.6640  144.2710 O   0  0  0  0  0  0  0  0  0  0  0  0
  160.3370  201.5180  145.3210 C   0  0  0  0  0  0  0  0  0  0  0  0
  161.9290  210.6140  148.5920 C   0  0  0  0  0  0  0  0  0  0  0  0
  161.9670  211.6610  148.1000 N   0  0  0  0  0  0  0  0  0  0  0  0
  2 21  1  0  0  0  0
  2 15  1  0  0  0  0
  3 18  1  1  0  0  0
  3  2  1  0  0  0  0
  5 25  1  6  0  0  0
  5  3  1  0  0  0  0
  6  4  1  1  0  0  0
  6  5  1  0  0  0  0
  6 23  1  0  0  0  0
  7 13  1  6  0  0  0
  7 15  1  0  0  0  0
  8 14  2  0  0  0  0
  8 17  1  0  0  0  0
  9 14  1  0  0  0  0
 10 19  1  0  0  0  0
 10 11  1  0  0  0  0
 12 16  1  6  0  0  0
 12  7  1  0  0  0  0
 13 10  2  0  0  0  0
 14  1  1  0  0  0  0
 15  8  1  1  0  0  0
 17 11  1  0  0  0  0
 18 12  1  0  0  0  0
 20 19  1  0  0  0  0
 21  9  2  0  0  0  0
 22 20  2  0  0  0  0
 22 13  1  0  0  0  0
 23 12  1  0  0  0  0
 25 27  1  0  0  0  0
 26 27  2  0  0  0  0
 27 24  1  0  0  0  0
 28 20  1  0  0  0  0
 29 28  3  0  0  0  0
M  END
>  <MODEL>
2

>  <REMARK>
 VINA RESULT:      -2.5      4.687      7.700
  Name = 
  2 active torsions:
  status: ('A' for Active; 'I' for Inactive)
    1  A    between atoms: C_6  and  N_16
    2  A    between atoms: C_23  and  C_26
                            x       y       z     vdW  Elec       q    Type
                         _______ _______ _______ _____ _____    ______ ____

>  <TORSDO>
F 2

$$$$
=
 OpenBabel11042422513D

 29 33  0  0  1  0  0  0  0  0999 V2000
  159.7130  208.8530  157.2560 O   0  0  0  0  0  1  0  0  0  0  0  0
  161.0590  207.4360  153.5780 N   0  0  0  0  0  0  0  0  0  0  0  0
  161.9420  206.9230  152.5390 C   0  0  1  0  0  3  0  0  0  0  0  0
  160.2800  207.1150  149.0570 C   0  0  0  0  0  1  0  0  0  0  0  0
  161.1270  206.4520  151.3290 C   0  0  1  0  0  3  0  0  0  0  0  0
  161.3000  207.4140  150.1390 C   0  0  2  0  0  3  0  0  0  0  0  0
  161.3270  209.8320  152.7110 C   0  0  1  0  0  3  0  0  0  0  0  0
  160.3300  209.3010  155.0050 C   0  0  0  0  0  0  0  0  0  0  0  0
  160.0830  206.9690  155.7120 C   0  0  0  0  0  3  0  0  0  0  0  0
  159.6120  211.7490  153.1460 C   0  0  0  0  0  0  0  0  0  0  0  0
  159.2660  211.4800  154.5790 C   0  0  0  0  0  2  0  0  0  0  0  0
  162.1010  209.1550  151.5470 C   0  0  1  0  0  0  0  0  0  0  0  0
  160.4420  211.0070  152.2830 C   0  0  0  0  0  0  0  0  0  0  0  0
  160.0350  208.4170  155.9750 C   0  0  0  0  0  0  0  0  0  0  0  0
  160.5260  208.8170  153.5790 C   0  0  2  0  0  3  0  0  0  0  0  0
  163.0970  210.1310  150.9420 C   0  0  0  0  0  1  0  0  0  0  0  0
  160.3730  210.7630  155.3220 C   0  0  0  0  0  2  0  0  0  0  0  0
  162.9250  208.0060  152.1430 C   0  0  0  0  0  2  0  0  0  0  0  0
  158.8560  212.9670  152.2710 S   0  0  0  0  0  0  0  0  0  0  0  0
  159.5850  212.6060  150.8120 C   0  0  0  0  0  0  0  0  0  0  0  0
  160.5920  206.5130  154.5680 C   0  0  0  0  0  3  0  0  0  0  0  0
  160.4250  211.5170  150.9680 C   0  0  0  0  0  3  0  0  0  0  0  0
  161.1570  208.7590  150.5470 O   0  0  0  0  0  0  0  0  0  0  0  0
  160.4370  204.0460  152.7070 O   0  0  0  0  0  1  0  0  0  0  0  0
  161.5640  205.1130  150.9590 N   0  0  0  0  0  2  0  0  0  0  0  0
  161.5760  202.6950  151.2500 O   0  0  0  0  0  0  0  0  0  0  0  0
  161.1590  203.9470  151.6790 C   0  0  0  0  0  0  0  0  0  0  0  0
  159.3680  213.3130  149.5810 C   0  0  0  0  0  0  0  0  0  0  0  0
  159.1940  213.8820  148.5900 N   0  0  0  0  0  0  0  0  0  0  0  0
  2 15  1  0  0  0  0
  2 21  1  0  0  0  0
  3 18  1  6  0  0  0
  3  2  1  0  0  0  0
  5 25  1  6  0  0  0
  5  3  1  0  0  0  0
  6  4  1  6  0  0  0
  6 23  1  0  0  0  0
  6  5  1  0  0  0  0
  7 13  1  6  0  0  0
  7 15  1  0  0  0  0
  8 17  1  0  0  0  0
  8 14  2  0  0  0  0
  9 14  1  0  0  0  0
 10 11  1  0  0  0  0
 11 17  1  0  0  0  0
 12 16  1  6  0  0  0
 12 18  1  0  0  0  0
 12  7  1  0  0  0  0
 13 10  2  0  0  0  0
 14  1  1  0  0  0  0
 15  8  1  1  0  0  0
 19 10  1  0  0  0  0
 20 22  2  0  0  0  0
 20 19  1  0  0  0  0
 21  9  2  0  0  0  0
 22 13  1  0  0  0  0
 23 12  1  0  0  0  0
 25 27  1  0  0  0  0
 26 27  2  0  0  0  0
 27 24  1  0  0  0  0
 28 20  1  0  0  0  0
 29 28  3  0  0  0  0
M  END
>  <MODEL>
3

>  <REMARK>
 VINA RESULT:      -2.1      2.888      4.424
  Name = 
  2 active torsions:
  status: ('A' for Active; 'I' for Inactive)
    1  A    between atoms: C_6  and  N_16
    2  A    between atoms: C_23  and  C_26
                            x       y       z     vdW  Elec       q    Type
                         _______ _______ _______ _____ _____    ______ ____

>  <TORSDO>
F 2

$$$$
=
 OpenBabel11042422513D

 29 33  0  0  1  0  0  0  0  0999 V2000
  160.9620  208.9400  155.3500 O   0  0  0  0  0  1  0  0  0  0  0  0
  161.3570  206.7800  151.8110 N   0  0  0  0  0  0  0  0  0  0  0  0
  161.9140  205.9120  150.7820 C   0  0  1  0  0  3  0  0  0  0  0  0
  159.9370  206.2000  147.4760 C   0  0  0  0  0  1  0  0  0  0  0  0
  160.8480  205.5730  149.7330 C   0  0  1  0  0  3  0  0  0  0  0  0
  161.1320  206.2990  148.4040 C   0  0  2  0  0  3  0  0  0  0  0  0
  162.1810  208.8720  150.5830 C   0  0  1  0  0  3  0  0  0  0  0  0
  161.3820  208.9260  153.0110 C   0  0  0  0  0  0  0  0  0  0  0  0
  160.5750  206.8710  154.0700 C   0  0  0  0  0  3  0  0  0  0  0  0
  161.1560  211.2510  150.8870 C   0  0  0  0  0  0  0  0  0  0  0  0
  160.9370  211.2610  152.3690 C   0  0  0  0  0  2  0  0  0  0  0  0
  162.5720  207.8670  149.4640 C   0  0  1  0  0  0  0  0  0  0  0  0
  161.6200  210.2020  150.0690 C   0  0  0  0  0  0  0  0  0  0  0  0
  160.9760  208.2870  154.1220 C   0  0  0  0  0  0  0  0  0  0  0  0
  161.2450  208.2480  151.6590 C   0  0  2  0  0  3  0  0  0  0  0  0
  163.7170  208.4250  148.6350 C   0  0  0  0  0  1  0  0  0  0  0  0
  161.8800  210.3340  153.1050 C   0  0  0  0  0  2  0  0  0  0  0  0
  163.1050  206.5990  150.1440 C   0  0  0  0  0  2  0  0  0  0  0  0
  160.6700  212.5330  149.9160 S   0  0  0  0  0  0  0  0  0  0  0  0
  161.0700  211.8070  148.4650 C   0  0  0  0  0  0  0  0  0  0  0  0
  160.7790  206.1570  152.9640 C   0  0  0  0  0  3  0  0  0  0  0  0
  161.5780  210.5420  148.7010 C   0  0  0  0  0  3  0  0  0  0  0  0
  161.4330  207.6620  148.6230 O   0  0  0  0  0  0  0  0  0  0  0  0
  160.4590  203.6110  151.7720 O   0  0  0  0  0  1  0  0  0  0  0  0
  160.8340  204.1320  149.5250 N   0  0  0  0  0  2  0  0  0  0  0  0
  160.5630  201.8450  150.3170 O   0  0  0  0  0  0  0  0  0  0  0  0
  160.6080  203.2060  150.5880 C   0  0  0  0  0  0  0  0  0  0  0  0
  160.9060  212.4030  147.1690 C   0  0  0  0  0  0  0  0  0  0  0  0
  160.7730  212.8830  146.1250 N   0  0  0  0  0  0  0  0  0  0  0  0
  2 21  1  0  0  0  0
  3 18  1  6  0  0  0
  3  2  1  0  0  0  0
  5 25  1  6  0  0  0
  5  3  1  0  0  0  0
  6  4  1  6  0  0  0
  6 23  1  0  0  0  0
  6  5  1  0  0  0  0
  7 13  1  6  0  0  0
  7 15  1  0  0  0  0
  8 17  1  0  0  0  0
  8 14  2  0  0  0  0
  9 14  1  0  0  0  0
 10 11  1  0  0  0  0
 11 17  1  0  0  0  0
 12 16  1  6  0  0  0
 12 18  1  0  0  0  0
 12  7  1  0  0  0  0
 13 10  2  0  0  0  0
 14  1  1  0  0  0  0
 15  2  1  0  0  0  0
 15  8  1  1  0  0  0
 19 10  1  0  0  0  0
 20 22  2  0  0  0  0
 20 19  1  0  0  0  0
 21  9  2  0  0  0  0
 22 13  1  0  0  0  0
 23 12  1  0  0  0  0
 25 27  1  0  0  0  0
 26 27  2  0  0  0  0
 27 24  1  0  0  0  0
 28 20  1  0  0  0  0
 29 28  3  0  0  0  0
M  END
>  <MODEL>
4

>  <REMARK>
 VINA RESULT:      -1.5      2.561      4.108
  Name = 
  2 active torsions:
  status: ('A' for Active; 'I' for Inactive)
    1  A    between atoms: C_6  and  N_16
    2  A    between atoms: C_23  and  C_26
                            x       y       z     vdW  Elec       q    Type
                         _______ _______ _______ _____ _____    ______ ____

>  <TORSDO>
F 2

$$$$
