=
 OpenBabel11042420093D

 30 34  0  0  1  0  0  0  0  0999 V2000
  160.7750  205.7840  151.0720 C   0  0  0  0  0  0  0  0  0  0  0  0
  161.5870  205.6760  148.6840 C   0  0  0  0  0  0  0  0  0  0  0  0
  161.8280  211.2230  150.9460 C   0  0  2  0  0  3  0  0  0  0  0  0
  158.4150  210.3190  155.5010 C   0  0  0  0  0  1  0  0  0  0  0  0
  162.6110  207.7520  148.6600 N   0  0  0  0  0  0  0  0  0  0  0  0
  161.0170  208.1160  152.0360 C   0  0  1  0  0  3  0  0  0  0  0  0
  161.3950  206.2650  149.8450 C   0  0  2  0  0  3  0  0  0  0  0  0
  162.3630  206.5940  147.7950 C   0  0  0  0  0  3  0  0  0  0  0  0
  160.7410  206.6760  152.1880 N   0  0  0  0  0  2  0  0  0  0  0  0
  161.9030  208.6360  155.8040 C   0  0  0  0  0  2  0  0  0  0  0  0
  159.5380  209.3740  155.1140 C   0  0  2  0  0  3  0  0  0  0  0  0
  161.7840  207.8580  154.4970 C   0  0  0  0  0  2  0  0  0  0  0  0
  160.3590  211.4450  151.2700 C   0  0  0  0  0  2  0  0  0  0  0  0
  160.5570  209.2210  156.2560 C   0  0  1  0  0  3  0  0  0  0  0  0
  162.0210  207.5520  149.7930 C   0  0  0  0  0  0  0  0  0  0  0  0
  161.3100  208.7950  153.3760 C   0  0  2  0  0  3  0  0  0  0  0  0
  160.0170  208.4190  157.2600 O   0  0  0  0  0  1  0  0  0  0  0  0
  160.7480  211.1780  153.7820 C   0  0  0  0  0  2  0  0  0  0  0  0
  161.1540  204.4010  148.3490 O   0  0  0  0  0  1  0  0  0  0  0  0
  161.9740  210.9090  149.5910 C   0  0  0  0  0  0  0  0  0  0  0  0
  162.0090  209.8790  150.6020 C   0  0  2  0  0  3  0  0  0  0  0  0
  160.3220  204.6120  151.1720 O   0  0  0  0  0  0  0  0  0  0  0  0
  162.1270  208.4420  151.0030 C   0  0  1  0  0  3  0  0  0  0  0  0
  160.1610  212.0380  152.6630 C   0  0  0  0  0  2  0  0  0  0  0  0
  160.1820  209.7590  153.7710 C   0  0  2  0  0  3  0  0  0  0  0  0
  162.0280  211.3010  148.2210 N   0  0  0  0  0  0  0  0  0  0  0  0
  162.0860  212.9880  146.4270 N   0  0  0  0  0  2  0  0  0  0  0  0
  162.0930  214.3610  145.9510 C   0  0  0  0  0  1  0  0  0  0  0  0
  161.9880  213.5900  148.6790 O   0  0  0  0  0  0  0  0  0  0  0  0
  162.0320  212.6710  147.8170 C   0  0  0  0  0  0  0  0  0  0  0  0
  1 22  2  0  0  0  0
  1  9  1  0  0  0  0
  3 13  1  6  0  0  0
  5 15  2  0  0  0  0
  6  9  1  1  0  0  0
  6 16  1  0  0  0  0
  7  2  1  1  0  0  0
  7  1  1  0  0  0  0
  8  5  1  0  0  0  0
  8  2  2  0  0  0  0
 10 14  1  0  0  0  0
 11  4  1  1  0  0  0
 11 14  1  0  0  0  0
 12 10  1  0  0  0  0
 13 24  1  0  0  0  0
 14 17  1  1  0  0  0
 15  7  1  0  0  0  0
 16 25  1  0  0  0  0
 16 12  1  1  0  0  0
 19  2  1  0  0  0  0
 20  3  1  0  0  0  0
 21 20  1  6  0  0  0
 21  3  1  0  0  0  0
 21 23  1  0  0  0  0
 23 15  1  6  0  0  0
 23  6  1  0  0  0  0
 24 18  1  0  0  0  0
 25 18  1  1  0  0  0
 25 11  1  0  0  0  0
 26 20  2  0  0  0  0
 27 30  1  0  0  0  0
 28 27  1  0  0  0  0
 30 26  1  0  0  0  0
 30 29  2  0  0  0  0
M  END
>  <MODEL>
1

>  <REMARK>
 VINA RESULT:      -7.0      0.000      0.000
  Name = 
  1 active torsions:
  status: ('A' for Active; 'I' for Inactive)
    1  A    between atoms: N_2  and  C_24
                            x       y       z     vdW  Elec       q    Type
                         _______ _______ _______ _____ _____    ______ ____

>  <TORSDO>
F 1

$$$$
=
 OpenBabel11042420093D

 30 34  0  0  1  0  0  0  0  0999 V2000
  161.9340  210.3510  150.4580 C   0  0  0  0  0  0  0  0  0  0  0  0
  162.2600  208.3960  148.8940 C   0  0  0  0  0  0  0  0  0  0  0  0
  160.5560  206.6890  154.3830 C   0  0  2  0  0  3  0  0  0  0  0  0
  161.7010  211.6450  157.0930 C   0  0  0  0  0  1  0  0  0  0  0  0
  161.1670  206.8280  150.2000 N   0  0  0  0  0  0  0  0  0  0  0  0
  161.0850  209.6000  152.7250 C   0  0  1  0  0  3  0  0  0  0  0  0
  161.8710  208.9650  150.0150 C   0  0  2  0  0  3  0  0  0  0  0  0
  161.8710  206.9530  148.9200 C   0  0  0  0  0  3  0  0  0  0  0  0
  161.3950  210.6570  151.7460 N   0  0  0  0  0  2  0  0  0  0  0  0
  158.5990  211.8200  154.7620 C   0  0  0  0  0  2  0  0  0  0  0  0
  160.9500  211.5820  155.7750 C   0  0  2  0  0  3  0  0  0  0  0  0
  159.3470  211.3500  153.5170 C   0  0  0  0  0  2  0  0  0  0  0  0
  161.7090  207.2420  155.2050 C   0  0  0  0  0  2  0  0  0  0  0  0
  159.5530  212.2130  155.8980 C   0  0  1  0  0  3  0  0  0  0  0  0
  161.2180  207.9680  150.8100 C   0  0  0  0  0  0  0  0  0  0  0  0
  160.1760  210.1020  153.8500 C   0  0  2  0  0  3  0  0  0  0  0  0
  159.6700  213.6020  155.9460 O   0  0  0  0  0  1  0  0  0  0  0  0
  160.2870  209.1500  156.1400 C   0  0  0  0  0  2  0  0  0  0  0  0
  162.9090  209.0400  147.8500 O   0  0  0  0  0  1  0  0  0  0  0  0
  161.0460  205.8260  153.3970 C   0  0  0  0  0  0  0  0  0  0  0  0
  160.6650  207.1820  153.0780 C   0  0  0  0  0  0  0  0  0  0  0  0
  162.4000  211.2620  149.7230 O   0  0  0  0  0  0  0  0  0  0  0  0
  160.5140  208.3020  152.0970 C   0  0  1  0  0  3  0  0  0  0  0  0
  161.2230  207.9820  156.4500 C   0  0  0  0  0  2  0  0  0  0  0  0
  160.9260  210.1600  155.1890 C   0  0  2  0  0  3  0  0  0  0  0  0
  161.5610  204.5590  152.9970 N   0  0  0  0  0  2  0  0  0  0  0  0
  161.5510  202.5380  151.5880 N   0  0  0  0  0  2  0  0  0  0  0  0
  161.0100  201.7170  150.5180 C   0  0  0  0  0  1  0  0  0  0  0  0
  159.9800  204.2390  151.3080 O   0  0  0  0  0  0  0  0  0  0  0  0
  160.9820  203.8000  151.9340 C   0  0  0  0  0  0  0  0  0  0  0  0
  1  9  1  0  0  0  0
  2  8  2  0  0  0  0
  3 13  1  1  0  0  0
  5 15  2  0  0  0  0
  6  9  1  6  0  0  0
  6 16  1  0  0  0  0
  7  2  1  6  0  0  0
  7  1  1  0  0  0  0
  7 15  1  0  0  0  0
  8  5  1  0  0  0  0
 10 14  1  0  0  0  0
 11 14  1  0  0  0  0
 11  4  1  1  0  0  0
 12 10  1  0  0  0  0
 13 24  1  0  0  0  0
 14 17  1  6  0  0  0
 16 12  1  6  0  0  0
 16 25  1  0  0  0  0
 18 24  1  0  0  0  0
 19  2  1  0  0  0  0
 20  3  1  0  0  0  0
 21 20  2  0  0  0  0
 21  3  1  0  0  0  0
 22  1  2  0  0  0  0
 23 15  1  6  0  0  0
 23  6  1  0  0  0  0
 23 21  1  0  0  0  0
 25 11  1  0  0  0  0
 25 18  1  1  0  0  0
 26 20  1  0  0  0  0
 27 30  1  0  0  0  0
 28 27  1  0  0  0  0
 29 30  2  0  0  0  0
 30 26  1  0  0  0  0
M  END
>  <MODEL>
2

>  <REMARK>
 VINA RESULT:      -6.8      2.462      5.781
  Name = 
  1 active torsions:
  status: ('A' for Active; 'I' for Inactive)
    1  A    between atoms: N_2  and  C_24
                            x       y       z     vdW  Elec       q    Type
                         _______ _______ _______ _____ _____    ______ ____

>  <TORSDO>
F 1

$$$$
=
 OpenBabel11042420093D

 30 34  0  0  1  0  0  0  0  0999 V2000
  160.9680  206.6190  151.2910 C   0  0  0  0  0  0  0  0  0  0  0  0
  161.7230  206.3990  148.8920 C   0  0  0  0  0  0  0  0  0  0  0  0
  161.2060  212.1150  150.6240 C   0  0  2  0  0  3  0  0  0  0  0  0
  158.0860  211.1750  155.3770 C   0  0  0  0  0  1  0  0  0  0  0  0
  162.4300  208.5880  148.6360 N   0  0  0  0  0  0  0  0  0  0  0  0
  160.8910  209.0440  152.0260 C   0  0  1  0  0  3  0  0  0  0  0  0
  161.4780  207.0630  150.0010 C   0  0  2  0  0  3  0  0  0  0  0  0
  162.3310  207.3280  147.8930 C   0  0  0  0  0  3  0  0  0  0  0  0
  160.8330  207.6010  152.3220 N   0  0  0  0  0  2  0  0  0  0  0  0
  161.7900  210.0480  155.6920 C   0  0  0  0  0  2  0  0  0  0  0  0
  159.3260  210.3680  155.0340 C   0  0  2  0  0  3  0  0  0  0  0  0
  161.7520  209.1380  154.4680 C   0  0  0  0  0  2  0  0  0  0  0  0
  159.7300  212.1540  150.9850 C   0  0  0  0  0  2  0  0  0  0  0  0
  160.3860  210.4750  156.1420 C   0  0  1  0  0  3  0  0  0  0  0  0
  161.9060  208.4160  149.8060 C   0  0  0  0  0  0  0  0  0  0  0  0
  161.1160  209.8840  153.2860 C   0  0  2  0  0  3  0  0  0  0  0  0
  159.9970  209.7040  157.2370 O   0  0  0  0  0  1  0  0  0  0  0  0
  160.2210  212.1890  153.4940 C   0  0  0  0  0  2  0  0  0  0  0  0
  161.4730  205.0480  148.6930 O   0  0  0  0  0  1  0  0  0  0  0  0
  161.3600  211.6960  149.2980 C   0  0  0  0  0  0  0  0  0  0  0  0
  161.5740  210.7840  150.3980 C   0  0  0  0  0  0  0  0  0  0  0  0
  160.6950  205.4100  151.5170 O   0  0  0  0  0  0  0  0  0  0  0  0
  161.9120  209.4240  150.9240 C   0  0  1  0  0  3  0  0  0  0  0  0
  159.4850  212.8440  152.3250 C   0  0  0  0  0  2  0  0  0  0  0  0
  159.8700  210.7100  153.6360 C   0  0  2  0  0  3  0  0  0  0  0  0
  161.3190  211.9570  147.8970 N   0  0  0  0  0  2  0  0  0  0  0  0
  161.9740  213.2190  145.8860 N   0  0  0  0  0  2  0  0  0  0  0  0
  162.7060  214.2770  145.2120 C   0  0  0  0  0  1  0  0  0  0  0  0
  162.7940  213.7640  148.0000 O   0  0  0  0  0  0  0  0  0  0  0  0
  162.0650  213.0160  147.2950 C   0  0  0  0  0  0  0  0  0  0  0  0
  1 22  2  0  0  0  0
  1  9  1  0  0  0  0
  3 13  1  6  0  0  0
  5 15  2  0  0  0  0
  6  9  1  1  0  0  0
  6 16  1  0  0  0  0
  7  2  1  1  0  0  0
  7  1  1  0  0  0  0
  8  5  1  0  0  0  0
  8  2  2  0  0  0  0
 10 14  1  0  0  0  0
 11  4  1  1  0  0  0
 11 14  1  0  0  0  0
 12 10  1  0  0  0  0
 13 24  1  0  0  0  0
 14 17  1  1  0  0  0
 15  7  1  0  0  0  0
 16 25  1  0  0  0  0
 16 12  1  1  0  0  0
 19  2  1  0  0  0  0
 20 21  2  0  0  0  0
 20  3  1  0  0  0  0
 21  3  1  0  0  0  0
 21 23  1  0  0  0  0
 23 15  1  6  0  0  0
 23  6  1  0  0  0  0
 24 18  1  0  0  0  0
 25 18  1  1  0  0  0
 25 11  1  0  0  0  0
 26 20  1  0  0  0  0
 27 30  1  0  0  0  0
 28 27  1  0  0  0  0
 30 26  1  0  0  0  0
 30 29  2  0  0  0  0
M  END
>  <MODEL>
3

>  <REMARK>
 VINA RESULT:      -6.5      0.968      1.005
  Name = 
  1 active torsions:
  status: ('A' for Active; 'I' for Inactive)
    1  A    between atoms: N_2  and  C_24
                            x       y       z     vdW  Elec       q    Type
                         _______ _______ _______ _____ _____    ______ ____

>  <TORSDO>
F 1

$$$$
=
 OpenBabel11042420093D

 30 34  0  0  1  0  0  0  0  0999 V2000
  160.9250  207.8930  151.7380 C   0  0  0  0  0  0  0  0  0  0  0  0
  161.8900  207.5870  149.4250 C   0  0  0  0  0  0  0  0  0  0  0  0
  160.2920  213.2620  150.5170 C   0  0  2  0  0  3  0  0  0  0  0  0
  157.0130  212.2360  155.1440 C   0  0  0  0  0  1  0  0  0  0  0  0
  162.2390  209.8330  148.9850 N   0  0  0  0  0  0  0  0  0  0  0  0
  160.3870  210.3250  152.2100 C   0  0  1  0  0  3  0  0  0  0  0  0
  161.4520  208.2990  150.4420 C   0  0  2  0  0  3  0  0  0  0  0  0
  162.4100  208.5120  148.3730 C   0  0  0  0  0  3  0  0  0  0  0  0
  160.5480  208.9280  152.6500 N   0  0  0  0  0  2  0  0  0  0  0  0
  160.8180  211.8050  155.7990 C   0  0  0  0  0  2  0  0  0  0  0  0
  158.3940  211.6280  154.9620 C   0  0  2  0  0  3  0  0  0  0  0  0
  161.0280  210.7930  154.6760 C   0  0  0  0  0  2  0  0  0  0  0  0
  158.8070  213.0760  150.7820 C   0  0  0  0  0  2  0  0  0  0  0  0
  159.3310  212.0200  156.1160 C   0  0  1  0  0  3  0  0  0  0  0  0
  161.6620  209.6820  150.1330 C   0  0  0  0  0  0  0  0  0  0  0  0
  160.3700  211.3040  153.3860 C   0  0  2  0  0  3  0  0  0  0  0  0
  158.9930  211.2980  157.2600 O   0  0  0  0  0  1  0  0  0  0  0  0
  159.0890  213.4280  153.2980 C   0  0  0  0  0  2  0  0  0  0  0  0
  161.8860  206.2010  149.3530 O   0  0  0  0  0  1  0  0  0  0  0  0
  160.6170  212.7550  149.2540 C   0  0  0  0  0  0  0  0  0  0  0  0
  160.8940  212.0000  150.4540 C   0  0  0  0  0  0  0  0  0  0  0  0
  160.8420  206.6810  152.0710 O   0  0  0  0  0  0  0  0  0  0  0  0
  161.4130  210.7740  151.1380 C   0  0  1  0  0  3  0  0  0  0  0  0
  158.3460  213.8340  152.0250 C   0  0  0  0  0  2  0  0  0  0  0  0
  158.9800  211.9290  153.5720 C   0  0  2  0  0  3  0  0  0  0  0  0
  160.6420  212.8740  147.8340 N   0  0  0  0  0  2  0  0  0  0  0  0
  161.8060  213.1530  145.6810 N   0  0  0  0  0  2  0  0  0  0  0  0
  163.0050  213.3240  144.8780 C   0  0  0  0  0  1  0  0  0  0  0  0
  162.9640  213.0860  147.7040 O   0  0  0  0  0  0  0  0  0  0  0  0
  161.8570  213.0390  147.1020 C   0  0  0  0  0  0  0  0  0  0  0  0
  1 22  2  0  0  0  0
  1  9  1  0  0  0  0
  3 13  1  6  0  0  0
  5 15  2  0  0  0  0
  6  9  1  1  0  0  0
  6 16  1  0  0  0  0
  7  2  1  1  0  0  0
  7  1  1  0  0  0  0
  8  5  1  0  0  0  0
  8  2  2  0  0  0  0
 10 14  1  0  0  0  0
 11  4  1  1  0  0  0
 11 14  1  0  0  0  0
 12 10  1  0  0  0  0
 13 24  1  0  0  0  0
 14 17  1  1  0  0  0
 15  7  1  0  0  0  0
 16 25  1  0  0  0  0
 16 12  1  1  0  0  0
 19  2  1  0  0  0  0
 20 21  2  0  0  0  0
 20  3  1  0  0  0  0
 21  3  1  0  0  0  0
 21 23  1  0  0  0  0
 23 15  1  6  0  0  0
 23  6  1  0  0  0  0
 24 18  1  0  0  0  0
 25 18  1  1  0  0  0
 25 11  1  0  0  0  0
 26 20  1  0  0  0  0
 27 30  1  0  0  0  0
 28 27  1  0  0  0  0
 30 29  2  0  0  0  0
 30 26  1  0  0  0  0
M  END
>  <MODEL>
4

>  <REMARK>
 VINA RESULT:      -6.2      1.764      2.364
  Name = 
  1 active torsions:
  status: ('A' for Active; 'I' for Inactive)
    1  A    between atoms: N_2  and  C_24
                            x       y       z     vdW  Elec       q    Type
                         _______ _______ _______ _____ _____    ______ ____

>  <TORSDO>
F 1

$$$$
=
 OpenBabel11042420093D

 30 34  0  0  1  0  0  0  0  0999 V2000
  161.5880  209.3520  148.6380 C   0  0  0  0  0  0  0  0  0  0  0  0
  161.8080  210.5080  150.8710 C   0  0  0  0  0  0  0  0  0  0  0  0
  161.8680  204.5330  151.3620 C   0  0  2  0  0  3  0  0  0  0  0  0
  159.8010  203.3330  146.1180 C   0  0  0  0  0  1  0  0  0  0  0  0
  162.5180  208.6540  152.0610 N   0  0  0  0  0  0  0  0  0  0  0  0
  161.7530  206.8330  148.8720 C   0  0  1  0  0  3  0  0  0  0  0  0
  161.8270  209.4640  150.0700 C   0  0  0  0  0  0  0  0  0  0  0  0
  162.2200  210.0780  152.2420 C   0  0  0  0  0  2  0  0  0  0  0  0
  161.7100  208.0540  148.0490 N   0  0  0  0  0  2  0  0  0  0  0  0
  163.4470  204.6760  146.0910 C   0  0  0  0  0  2  0  0  0  0  0  0
  160.9110  204.3430  146.3540 C   0  0  2  0  0  3  0  0  0  0  0  0
  163.1170  205.9570  146.8520 C   0  0  0  0  0  2  0  0  0  0  0  0
  160.5050  204.2020  150.7770 C   0  0  0  0  0  2  0  0  0  0  0  0
  162.1860  203.9610  145.5840 C   0  0  1  0  0  3  0  0  0  0  0  0
  162.2500  208.3310  150.8370 C   0  0  0  0  0  0  0  0  0  0  0  0
  162.2700  205.6240  148.0880 C   0  0  2  0  0  3  0  0  0  0  0  0
  162.0120  204.2350  144.2270 O   0  0  0  0  0  1  0  0  0  0  0  0
  161.5200  203.3150  148.6040 C   0  0  0  0  0  2  0  0  0  0  0  0
  161.4740  211.8030  150.4960 O   0  0  0  0  0  1  0  0  0  0  0  0
  161.7220  205.4190  152.4360 C   0  0  0  0  0  0  0  0  0  0  0  0
  162.1340  205.8880  151.1330 C   0  0  0  0  0  0  0  0  0  0  0  0
  161.3290  210.3590  147.9270 O   0  0  0  0  0  0  0  0  0  0  0  0
  162.5290  206.9940  150.2050 C   0  0  1  0  0  3  0  0  0  0  0  0
  160.5750  203.0510  149.7760 C   0  0  0  0  0  2  0  0  0  0  0  0
  161.1560  204.5940  147.8520 C   0  0  2  0  0  3  0  0  0  0  0  0
  161.3930  205.6800  153.7980 N   0  0  0  0  0  2  0  0  0  0  0  0
  160.3670  207.0370  155.5800 N   0  0  0  0  0  2  0  0  0  0  0  0
  159.6270  208.1930  156.0530 C   0  0  0  0  0  1  0  0  0  0  0  0
  160.2770  207.6800  153.3400 O   0  0  0  0  0  0  0  0  0  0  0  0
  160.6600  206.8390  154.1980 C   0  0  0  0  0  0  0  0  0  0  0  0
  1  7  1  0  0  0  0
  2  8  1  0  0  0  0
  3 13  1  6  0  0  0
  3 20  1  0  0  0  0
  5  8  1  0  0  0  0
  6  9  1  6  0  0  0
  6 23  1  0  0  0  0
  7 15  1  0  0  0  0
  7  2  2  0  0  0  0
  9  1  1  0  0  0  0
 10 12  1  0  0  0  0
 11  4  1  1  0  0  0
 11 25  1  0  0  0  0
 14 17  1  6  0  0  0
 14 10  1  0  0  0  0
 14 11  1  0  0  0  0
 15  5  2  0  0  0  0
 16 12  1  6  0  0  0
 16  6  1  0  0  0  0
 18 24  1  0  0  0  0
 19  2  1  0  0  0  0
 20 26  1  0  0  0  0
 21  3  1  0  0  0  0
 21 20  2  0  0  0  0
 22  1  2  0  0  0  0
 23 15  1  1  0  0  0
 23 21  1  0  0  0  0
 24 13  1  0  0  0  0
 25 16  1  0  0  0  0
 25 18  1  1  0  0  0
 26 30  1  0  0  0  0
 27 28  1  0  0  0  0
 29 30  2  0  0  0  0
 30 27  1  0  0  0  0
M  END
>  <MODEL>
5

>  <REMARK>
 VINA RESULT:      -4.6      2.580      7.953
  Name = 
  1 active torsions:
  status: ('A' for Active; 'I' for Inactive)
    1  A    between atoms: N_2  and  C_24
                            x       y       z     vdW  Elec       q    Type
                         _______ _______ _______ _____ _____    ______ ____

>  <TORSDO>
F 1

$$$$
=
 OpenBabel11042420093D

 30 34  0  0  1  0  0  0  0  0999 V2000
  162.0920  209.1400  140.0650 C   0  0  0  0  0  0  0  0  0  0  0  0
  161.0050  208.0090  138.0860 C   0  0  0  0  0  0  0  0  0  0  0  0
  158.4180  213.2430  139.4490 C   0  0  2  0  0  3  0  0  0  0  0  0
  160.6760  213.8400  144.7180 C   0  0  0  0  0  1  0  0  0  0  0  0
  159.8240  209.8560  137.3420 N   0  0  0  0  0  0  0  0  0  0  0  0
  161.0590  211.4080  140.5260 C   0  0  1  0  0  3  0  0  0  0  0  0
  161.2120  209.0140  138.9110 C   0  0  2  0  0  3  0  0  0  0  0  0
  160.0630  208.4480  137.0120 C   0  0  0  0  0  3  0  0  0  0  0  0
  162.1040  210.3940  140.7510 N   0  0  0  0  0  2  0  0  0  0  0  0
  163.2430  214.3640  141.8500 C   0  0  0  0  0  2  0  0  0  0  0  0
  161.5040  213.4470  143.5070 C   0  0  2  0  0  3  0  0  0  0  0  0
  162.9820  213.0100  141.1960 C   0  0  0  0  0  2  0  0  0  0  0  0
  157.9620  212.9550  140.8710 C   0  0  0  0  0  2  0  0  0  0  0  0
  162.6410  214.4530  143.2600 C   0  0  1  0  0  3  0  0  0  0  0  0
  160.4540  210.1340  138.4370 C   0  0  0  0  0  0  0  0  0  0  0  0
  161.4700  212.7880  141.0460 C   0  0  2  0  0  3  0  0  0  0  0  0
  163.6480  214.2620  144.2060 O   0  0  0  0  0  1  0  0  0  0  0  0
  159.7970  214.4180  141.8840 C   0  0  0  0  0  2  0  0  0  0  0  0
  161.5840  206.7520  138.1900 O   0  0  0  0  0  1  0  0  0  0  0  0
  157.8800  212.2930  138.5750 C   0  0  0  0  0  0  0  0  0  0  0  0
  159.2480  212.1980  139.0280 C   0  0  0  0  0  0  0  0  0  0  0  0
  162.8520  208.2020  140.4260 O   0  0  0  0  0  0  0  0  0  0  0  0
  160.5720  211.5000  139.0560 C   0  0  1  0  0  3  0  0  0  0  0  0
  158.3040  214.0970  141.8260 C   0  0  0  0  0  2  0  0  0  0  0  0
  160.6320  213.1970  142.2660 C   0  0  2  0  0  3  0  0  0  0  0  0
  156.7900  211.7780  137.8150 N   0  0  0  0  0  2  0  0  0  0  0  0
  155.2120  209.9950  137.1810 N   0  0  0  0  0  2  0  0  0  0  0  0
  154.6740  208.6510  137.2970 C   0  0  0  0  0  1  0  0  0  0  0  0
  156.8420  209.6690  138.8170 O   0  0  0  0  0  0  0  0  0  0  0  0
  156.3070  210.4440  137.9780 C   0  0  0  0  0  0  0  0  0  0  0  0
  1 22  2  0  0  0  0
  1  9  1  0  0  0  0
  2 19  1  0  0  0  0
  3 13  1  1  0  0  0
  5 15  2  0  0  0  0
  6  9  1  6  0  0  0
  6 16  1  0  0  0  0
  7  2  1  6  0  0  0
  7  1  1  0  0  0  0
  8  5  1  0  0  0  0
  8  2  2  0  0  0  0
 10 14  1  0  0  0  0
 11  4  1  1  0  0  0
 12 10  1  0  0  0  0
 13 24  1  0  0  0  0
 14 11  1  0  0  0  0
 14 17  1  1  0  0  0
 15  7  1  0  0  0  0
 16 12  1  1  0  0  0
 16 25  1  0  0  0  0
 20 21  2  0  0  0  0
 20  3  1  0  0  0  0
 21 23  1  0  0  0  0
 21  3  1  0  0  0  0
 23 15  1  1  0  0  0
 23  6  1  0  0  0  0
 24 18  1  0  0  0  0
 25 18  1  6  0  0  0
 25 11  1  0  0  0  0
 26 30  1  0  0  0  0
 26 20  1  0  0  0  0
 27 28  1  0  0  0  0
 27 30  1  0  0  0  0
 30 29  2  0  0  0  0
M  END
>  <MODEL>
6

>  <REMARK>
 VINA RESULT:      -4.6      9.283     12.203
  Name = 
  1 active torsions:
  status: ('A' for Active; 'I' for Inactive)
    1  A    between atoms: N_2  and  C_24
                            x       y       z     vdW  Elec       q    Type
                         _______ _______ _______ _____ _____    ______ ____

>  <TORSDO>
F 1

$$$$
