=
 OpenBabel11042422293D

 34 36  0  0  1  0  0  0  0  0999 V2000
  162.1090  209.1290  150.3570 C   0  0  2  0  0  3  0  0  0  0  0  0
  161.5420  205.4890  150.4460 C   0  0  2  0  0  3  0  0  0  0  0  0
  162.2620  207.6650  149.8860 C   0  0  1  0  0  3  0  0  0  0  0  0
  161.0650  206.8530  150.1690 N   0  0  1  0  0  0  0  0  0  0  0  0
  161.1660  204.5460  149.3380 C   0  0  0  0  0  3  0  0  0  0  0  0
  161.3980  204.9350  148.0840 C   0  0  0  0  0  0  0  0  0  0  0  0
  161.3560  207.3390  148.7820 C   0  0  2  0  0  3  0  0  0  0  0  0
  162.0040  206.2930  147.8590 C   0  0  0  0  0  2  0  0  0  0  0  0
  160.9590  203.4780  151.8650 C   0  0  0  0  0  1  0  0  0  0  0  0
  161.0260  204.9960  151.7950 C   0  0  0  0  0  2  0  0  0  0  0  0
  160.9730  204.0590  146.9440 C   0  0  1  0  0  3  0  0  0  0  0  0
  162.9600  204.0890  145.5980 O   0  0  0  0  0  1  0  0  0  0  0  0
  161.7360  204.3700  145.6940 C   0  0  0  0  0  0  0  0  0  0  0  0
  161.0870  204.9870  144.6330 O   0  0  0  0  0  0  0  0  0  0  0  0
  161.1580  201.4650  147.5770 C   0  0  0  0  0  3  0  0  0  0  0  0
  161.0740  202.6340  147.2920 C   0  0  0  0  0  0  0  0  0  0  0  0
  160.9820  209.4020  151.3540 C   0  0  0  0  0  2  0  0  0  0  0  0
  161.2640  208.1810  153.5100 O   0  0  0  0  0  1  0  0  0  0  0  0
  161.4850  209.3260  152.7560 C   0  0  0  0  0  0  0  0  0  0  0  0
  162.1050  210.2990  153.2590 O   0  0  0  0  0  0  0  0  0  0  0  0
  161.9680  210.0650  149.1680 C   0  0  0  0  0  2  0  0  0  0  0  0
  162.0810  211.5200  149.6150 C   0  0  0  0  0  2  0  0  0  0  0  0
  160.9210  212.8980  144.7340 C   0  0  0  0  0  0  0  0  0  0  0  0
  160.3460  212.1990  147.9290 C   0  0  0  0  0  2  0  0  0  0  0  0
  161.7300  212.5010  148.5020 C   0  0  2  0  0  3  0  0  0  0  0  0
  157.3580  212.5130  145.9560 C   0  0  0  0  0  1  0  0  0  0  0  0
  158.5870  212.5440  145.1750 N   0  0  0  0  0  0  0  0  0  0  0  0
  159.8550  213.3570  147.0780 C   0  0  0  0  0  2  0  0  0  0  0  0
  162.6570  213.7190  146.5200 C   0  0  0  0  0  2  0  0  0  0  0  0
  163.2630  213.1890  144.2770 N   0  0  0  0  0  2  0  0  0  0  0  0
  162.3020  213.2840  145.1380 C   0  0  0  0  0  0  0  0  0  0  0  0
  162.8130  212.5100  147.4260 C   0  0  0  0  0  2  0  0  0  0  0  0
  160.7350  212.5120  143.5120 N   0  0  0  0  0  2  0  0  0  0  0  0
  159.7390  212.9280  145.6420 C   0  0  0  0  0  0  0  0  0  0  0  0
  1 21  1  6  0  0  0
  1 17  1  0  0  0  0
  2 10  1  1  0  0  0
  3  4  1  0  0  0  0
  3  1  1  1  0  0  0
  4  2  1  0  0  0  0
  5  2  1  0  0  0  0
  6  5  2  0  0  0  0
  7  3  1  0  0  0  0
  7  4  1  0  0  0  0
  8  6  1  0  0  0  0
  8  7  1  0  0  0  0
 10  9  1  0  0  0  0
 11 16  1  0  0  0  0
 11  6  1  0  0  0  0
 12 13  1  0  0  0  0
 13 11  1  0  0  0  0
 14 13  2  0  0  0  0
 16 15  3  0  0  0  0
 17 19  1  0  0  0  0
 19 20  2  0  0  0  0
 19 18  1  0  0  0  0
 21 22  1  0  0  0  0
 23 31  1  0  0  0  0
 23 34  1  0  0  0  0
 24 25  1  0  0  0  0
 25 22  1  0  0  0  0
 27 34  2  0  0  0  0
 27 26  1  0  0  0  0
 28 24  1  0  0  0  0
 29 32  1  0  0  0  0
 30 31  2  0  0  0  0
 31 29  1  0  0  0  0
 32 25  1  0  0  0  0
 33 23  2  0  0  0  0
 34 28  1  0  0  0  0
M  END
>  <MODEL>
1

>  <REMARK>
 VINA RESULT:      -7.8      0.000      0.000
  Name = 
  10 active torsions:
  status: ('A' for Active; 'I' for Inactive)
    1  A    between atoms: C_4  and  C_25
    2  A    between atoms: C_6  and  C_22
    3  A    between atoms: C_8  and  C_12
    4  A    between atoms: C_8  and  C_22
    5  A    between atoms: C_9  and  C_27
    6  A    between atoms: C_13  and  C_15
    7  A    between atoms: C_15  and  C_16
    8  A    between atoms: C_15  and  C_32
    9  A    between atoms: C_22  and  C_30
   10  A    between atoms: C_27  and  C_30
                            x       y       z     vdW  Elec       q    Type
                         _______ _______ _______ _____ _____    ______ ____

>  <TORSDO>
F 10

$$$$
=
 OpenBabel11042422293D

 34 36  0  0  1  0  0  0  0  0999 V2000
  161.0070  207.8660  150.9980 C   0  0  2  0  0  3  0  0  0  0  0  0
  160.8250  205.8980  147.8880 C   0  0  2  0  0  3  0  0  0  0  0  0
  160.5850  206.6790  150.1010 C   0  0  1  0  0  3  0  0  0  0  0  0
  161.5800  206.3830  149.0540 N   0  0  1  0  0  0  0  0  0  0  0  0
  161.0570  204.4300  147.6630 C   0  0  0  0  0  3  0  0  0  0  0  0
  160.9700  203.6170  148.7160 C   0  0  0  0  0  0  0  0  0  0  0  0
  161.4610  205.5170  150.2700 C   0  0  2  0  0  3  0  0  0  0  0  0
  160.6630  204.2200  150.0590 C   0  0  0  0  0  2  0  0  0  0  0  0
  160.4240  206.2130  145.4100 C   0  0  0  0  0  1  0  0  0  0  0  0
  161.1640  206.7130  146.6430 C   0  0  0  0  0  2  0  0  0  0  0  0
  161.2660  202.1560  148.5530 C   0  0  1  0  0  3  0  0  0  0  0  0
  161.1850  200.8000  150.5310 O   0  0  0  0  0  1  0  0  0  0  0  0
  160.5540  201.3310  149.5780 C   0  0  0  0  0  0  0  0  0  0  0  0
  159.1840  201.1370  149.4690 O   0  0  0  0  0  0  0  0  0  0  0  0
  160.7190  201.3150  146.0720 C   0  0  0  0  0  3  0  0  0  0  0  0
  160.9650  201.6940  147.1900 C   0  0  0  0  0  0  0  0  0  0  0  0
  162.3480  208.5220  150.6620 C   0  0  0  0  0  2  0  0  0  0  0  0
  161.9720  209.5990  148.4450 O   0  0  0  0  0  0  0  0  0  0  0  0
  162.1480  209.7320  149.8160 C   0  0  0  0  0  0  0  0  0  0  0  0
  162.1430  210.8770  150.3400 O   0  0  0  0  0  1  0  0  0  0  0  0
  160.9950  207.4640  152.4630 C   0  0  0  0  0  2  0  0  0  0  0  0
  161.3680  208.6510  153.3470 C   0  0  0  0  0  2  0  0  0  0  0  0
  158.9700  212.9610  155.0040 C   0  0  0  0  0  0  0  0  0  0  0  0
  160.0710  210.7330  152.8010 C   0  0  0  0  0  2  0  0  0  0  0  0
  160.1600  209.5090  153.7100 C   0  0  2  0  0  3  0  0  0  0  0  0
  158.8220  213.7530  151.3040 C   0  0  0  0  0  1  0  0  0  0  0  0
  158.9100  213.8070  152.7570 N   0  0  0  0  0  0  0  0  0  0  0  0
  158.7090  211.3940  152.9260 C   0  0  0  0  0  2  0  0  0  0  0  0
  158.8370  210.4180  155.6330 C   0  0  0  0  0  2  0  0  0  0  0  0
  159.0890  212.1400  157.2600 N   0  0  0  0  0  2  0  0  0  0  0  0
  158.9490  211.8580  156.0060 C   0  0  0  0  0  0  0  0  0  0  0  0
  160.1900  209.8860  155.1890 C   0  0  0  0  0  2  0  0  0  0  0  0
  159.0960  214.1730  155.4430 N   0  0  0  0  0  2  0  0  0  0  0  0
  158.8540  212.7620  153.5310 C   0  0  0  0  0  0  0  0  0  0  0  0
  1 17  1  6  0  0  0
  1 21  1  0  0  0  0
  2 10  1  6  0  0  0
  2  4  1  0  0  0  0
  3  7  1  0  0  0  0
  3  1  1  1  0  0  0
  4  3  1  0  0  0  0
  4  7  1  0  0  0  0
  5  2  1  0  0  0  0
  5  6  2  0  0  0  0
  6  8  1  0  0  0  0
  8  7  1  0  0  0  0
  9 10  1  0  0  0  0
 11  6  1  0  0  0  0
 11 13  1  0  0  0  0
 13 12  1  0  0  0  0
 14 13  2  0  0  0  0
 15 16  3  0  0  0  0
 16 11  1  0  0  0  0
 18 19  2  0  0  0  0
 19 20  1  0  0  0  0
 19 17  1  0  0  0  0
 21 22  1  0  0  0  0
 22 25  1  0  0  0  0
 23 33  2  0  0  0  0
 23 31  1  0  0  0  0
 24 28  1  0  0  0  0
 24 25  1  0  0  0  0
 25 32  1  0  0  0  0
 26 27  1  0  0  0  0
 27 34  2  0  0  0  0
 28 34  1  0  0  0  0
 29 31  1  0  0  0  0
 31 30  2  0  0  0  0
 32 29  1  0  0  0  0
 34 23  1  0  0  0  0
M  END
>  <MODEL>
2

>  <REMARK>
 VINA RESULT:      -7.7      4.026      6.276
  Name = 
  10 active torsions:
  status: ('A' for Active; 'I' for Inactive)
    1  A    between atoms: C_4  and  C_25
    2  A    between atoms: C_6  and  C_22
    3  A    between atoms: C_8  and  C_12
    4  A    between atoms: C_8  and  C_22
    5  A    between atoms: C_9  and  C_27
    6  A    between atoms: C_13  and  C_15
    7  A    between atoms: C_15  and  C_16
    8  A    between atoms: C_15  and  C_32
    9  A    between atoms: C_22  and  C_30
   10  A    between atoms: C_27  and  C_30
                            x       y       z     vdW  Elec       q    Type
                         _______ _______ _______ _____ _____    ______ ____

>  <TORSDO>
F 10

$$$$
=
 OpenBabel11042422293D

 34 36  0  0  1  0  0  0  0  0999 V2000
  161.5390  207.9680  149.4830 C   0  0  2  0  0  3  0  0  0  0  0  0
  161.2710  205.5100  146.7510 C   0  0  2  0  0  3  0  0  0  0  0  0
  161.0350  206.6850  148.7830 C   0  0  1  0  0  3  0  0  0  0  0  0
  162.0300  206.1230  147.8530 N   0  0  1  0  0  0  0  0  0  0  0  0
  161.3670  204.0110  146.7920 C   0  0  0  0  0  3  0  0  0  0  0  0
  161.1680  203.4060  147.9630 C   0  0  0  0  0  0  0  0  0  0  0  0
  161.7890  205.4970  149.1920 C   0  0  2  0  0  3  0  0  0  0  0  0
  160.8760  204.2590  149.1670 C   0  0  0  0  0  2  0  0  0  0  0  0
  161.3070  205.1670  144.2450 C   0  0  0  0  0  1  0  0  0  0  0  0
  161.7270  206.0610  145.4030 C   0  0  0  0  0  2  0  0  0  0  0  0
  161.3270  201.9180  148.0680 C   0  0  1  0  0  3  0  0  0  0  0  0
  161.1930  200.9420  150.2560 O   0  0  0  0  0  1  0  0  0  0  0  0
  160.5790  201.3640  149.2400 C   0  0  0  0  0  0  0  0  0  0  0  0
  159.1930  201.3020  149.2000 O   0  0  0  0  0  0  0  0  0  0  0  0
  160.6220  200.6950  145.7940 C   0  0  0  0  0  3  0  0  0  0  0  0
  160.9390  201.2460  146.8180 C   0  0  0  0  0  0  0  0  0  0  0  0
  162.3410  208.9400  148.6150 C   0  0  0  0  0  2  0  0  0  0  0  0
  161.5400  211.1920  147.9050 O   0  0  0  0  0  0  0  0  0  0  0  0
  161.9730  210.3510  148.9220 C   0  0  0  0  0  0  0  0  0  0  0  0
  162.0580  210.7850  150.1010 O   0  0  0  0  0  1  0  0  0  0  0  0
  162.3430  207.6220  150.7270 C   0  0  0  0  0  2  0  0  0  0  0  0
  161.5440  206.6960  151.6400 C   0  0  0  0  0  2  0  0  0  0  0  0
  161.1530  210.1590  155.5040 C   0  0  0  0  0  0  0  0  0  0  0  0
  160.7600  208.9470  152.4380 C   0  0  0  0  0  2  0  0  0  0  0  0
  160.8240  207.4530  152.7510 C   0  0  2  0  0  3  0  0  0  0  0  0
  159.9410  212.4350  152.7310 C   0  0  0  0  0  1  0  0  0  0  0  0
  160.5430  211.8670  153.9300 N   0  0  0  0  0  0  0  0  0  0  0  0
  159.7640  209.6430  153.3490 C   0  0  0  0  0  2  0  0  0  0  0  0
  160.5590  207.6180  155.2360 C   0  0  0  0  0  2  0  0  0  0  0  0
  161.8260  208.4630  157.0700 N   0  0  0  0  0  2  0  0  0  0  0  0
  161.1830  208.7480  155.9840 C   0  0  0  0  0  0  0  0  0  0  0  0
  161.4710  207.1720  154.1050 C   0  0  0  0  0  2  0  0  0  0  0  0
  161.7500  211.0550  156.2240 N   0  0  0  0  0  2  0  0  0  0  0  0
  160.4790  210.6070  154.2520 C   0  0  0  0  0  0  0  0  0  0  0  0
  1 17  1  6  0  0  0
  1 21  1  0  0  0  0
  2 10  1  6  0  0  0
  2  5  1  0  0  0  0
  2  4  1  0  0  0  0
  3  7  1  0  0  0  0
  3  1  1  1  0  0  0
  4  3  1  0  0  0  0
  4  7  1  0  0  0  0
  5  6  2  0  0  0  0
  6 11  1  0  0  0  0
  6  8  1  0  0  0  0
  8  7  1  0  0  0  0
  9 10  1  0  0  0  0
 11 13  1  0  0  0  0
 13 12  1  0  0  0  0
 14 13  2  0  0  0  0
 15 16  3  0  0  0  0
 16 11  1  0  0  0  0
 17 19  1  0  0  0  0
 18 19  2  0  0  0  0
 19 20  1  0  0  0  0
 21 22  1  0  0  0  0
 22 25  1  0  0  0  0
 23 31  1  0  0  0  0
 23 33  2  0  0  0  0
 24 25  1  0  0  0  0
 24 28  1  0  0  0  0
 25 32  1  0  0  0  0
 26 27  1  0  0  0  0
 27 34  2  0  0  0  0
 28 34  1  0  0  0  0
 29 31  1  0  0  0  0
 31 30  2  0  0  0  0
 32 29  1  0  0  0  0
 34 23  1  0  0  0  0
M  END
>  <MODEL>
3

>  <REMARK>
 VINA RESULT:      -7.6      3.764      6.689
  Name = 
  10 active torsions:
  status: ('A' for Active; 'I' for Inactive)
    1  A    between atoms: C_4  and  C_25
    2  A    between atoms: C_6  and  C_22
    3  A    between atoms: C_8  and  C_12
    4  A    between atoms: C_8  and  C_22
    5  A    between atoms: C_9  and  C_27
    6  A    between atoms: C_13  and  C_15
    7  A    between atoms: C_15  and  C_16
    8  A    between atoms: C_15  and  C_32
    9  A    between atoms: C_22  and  C_30
   10  A    between atoms: C_27  and  C_30
                            x       y       z     vdW  Elec       q    Type
                         _______ _______ _______ _____ _____    ______ ____

>  <TORSDO>
F 10

$$$$
=
 OpenBabel11042422293D

 34 36  0  0  1  0  0  0  0  0999 V2000
  161.3160  208.1900  150.9150 C   0  0  2  0  0  3  0  0  0  0  0  0
  161.2430  204.5460  150.3710 C   0  0  2  0  0  3  0  0  0  0  0  0
  161.6730  206.8610  150.2120 C   0  0  1  0  0  3  0  0  0  0  0  0
  160.5910  205.8640  150.3080 N   0  0  1  0  0  0  0  0  0  0  0  0
  161.0180  203.7660  149.1070 C   0  0  0  0  0  3  0  0  0  0  0  0
  161.2160  204.3910  147.9460 C   0  0  0  0  0  0  0  0  0  0  0  0
  160.8380  206.6140  149.0350 C   0  0  2  0  0  3  0  0  0  0  0  0
  161.6360  205.8350  147.9750 C   0  0  0  0  0  2  0  0  0  0  0  0
  161.3530  202.3590  151.6370 C   0  0  0  0  0  1  0  0  0  0  0  0
  160.7770  203.7670  151.5970 C   0  0  0  0  0  2  0  0  0  0  0  0
  160.9320  203.6760  146.6590 C   0  0  1  0  0  3  0  0  0  0  0  0
  161.1880  204.6950  144.5010 O   0  0  0  0  0  0  0  0  0  0  0  0
  161.7450  204.2270  145.5290 C   0  0  0  0  0  0  0  0  0  0  0  0
  163.1300  204.2090  145.6120 O   0  0  0  0  0  1  0  0  0  0  0  0
  161.2760  201.0330  146.9080 C   0  0  0  0  0  3  0  0  0  0  0  0
  161.1210  202.2240  146.7960 C   0  0  0  0  0  0  0  0  0  0  0  0
  162.3690  209.2970  150.8400 C   0  0  0  0  0  2  0  0  0  0  0  0
  161.5140  211.4490  149.9150 O   0  0  0  0  0  1  0  0  0  0  0  0
  162.0970  210.2090  149.6930 C   0  0  0  0  0  0  0  0  0  0  0  0
  162.3900  209.8550  148.5200 O   0  0  0  0  0  0  0  0  0  0  0  0
  160.9430  207.9470  152.3690 C   0  0  0  0  0  2  0  0  0  0  0  0
  161.2430  209.1830  153.2120 C   0  0  0  0  0  2  0  0  0  0  0  0
  158.5710  213.2500  155.0540 C   0  0  0  0  0  0  0  0  0  0  0  0
  159.8550  211.2270  152.7540 C   0  0  0  0  0  2  0  0  0  0  0  0
  159.9810  209.9540  153.5870 C   0  0  2  0  0  3  0  0  0  0  0  0
  158.4940  214.2700  151.4080 C   0  0  0  0  0  1  0  0  0  0  0  0
  158.5350  214.2350  152.8630 N   0  0  0  0  0  0  0  0  0  0  0  0
  158.4570  211.8090  152.8750 C   0  0  0  0  0  2  0  0  0  0  0  0
  158.5540  210.6680  155.5170 C   0  0  0  0  0  2  0  0  0  0  0  0
  158.6640  212.2930  157.2570 N   0  0  0  0  0  2  0  0  0  0  0  0
  158.5770  212.0850  155.9840 C   0  0  0  0  0  0  0  0  0  0  0  0
  159.9460  210.2350  155.0870 C   0  0  0  0  0  2  0  0  0  0  0  0
  158.6190  214.4370  155.5720 N   0  0  0  0  0  2  0  0  0  0  0  0
  158.5110  213.1410  153.5680 C   0  0  0  0  0  0  0  0  0  0  0  0
  1 17  1  1  0  0  0
  1 21  1  0  0  0  0
  2 10  1  1  0  0  0
  3  4  1  0  0  0  0
  3  1  1  1  0  0  0
  4  2  1  0  0  0  0
  5  2  1  0  0  0  0
  6  8  1  0  0  0  0
  6  5  2  0  0  0  0
  7  3  1  0  0  0  0
  7  4  1  0  0  0  0
  8  7  1  0  0  0  0
 10  9  1  0  0  0  0
 11 16  1  0  0  0  0
 11  6  1  0  0  0  0
 12 13  2  0  0  0  0
 13 14  1  0  0  0  0
 13 11  1  0  0  0  0
 16 15  3  0  0  0  0
 19 18  1  0  0  0  0
 19 17  1  0  0  0  0
 20 19  2  0  0  0  0
 21 22  1  0  0  0  0
 22 25  1  0  0  0  0
 23 33  2  0  0  0  0
 23 31  1  0  0  0  0
 24 28  1  0  0  0  0
 24 25  1  0  0  0  0
 25 32  1  0  0  0  0
 26 27  1  0  0  0  0
 27 34  2  0  0  0  0
 28 34  1  0  0  0  0
 29 31  1  0  0  0  0
 31 30  2  0  0  0  0
 32 29  1  0  0  0  0
 34 23  1  0  0  0  0
M  END
>  <MODEL>
4

>  <REMARK>
 VINA RESULT:      -7.5      3.828      5.798
  Name = 
  10 active torsions:
  status: ('A' for Active; 'I' for Inactive)
    1  A    between atoms: C_4  and  C_25
    2  A    between atoms: C_6  and  C_22
    3  A    between atoms: C_8  and  C_12
    4  A    between atoms: C_8  and  C_22
    5  A    between atoms: C_9  and  C_27
    6  A    between atoms: C_13  and  C_15
    7  A    between atoms: C_15  and  C_16
    8  A    between atoms: C_15  and  C_32
    9  A    between atoms: C_22  and  C_30
   10  A    between atoms: C_27  and  C_30
                            x       y       z     vdW  Elec       q    Type
                         _______ _______ _______ _____ _____    ______ ____

>  <TORSDO>
F 10

$$$$
=
 OpenBabel11042422293D

 34 36  0  0  1  0  0  0  0  0999 V2000
  161.3780  207.4440  151.1880 C   0  0  2  0  0  3  0  0  0  0  0  0
  160.5000  208.5570  154.5900 C   0  0  2  0  0  3  0  0  0  0  0  0
  160.5520  208.1930  152.2590 C   0  0  1  0  0  3  0  0  0  0  0  0
  161.3720  208.6210  153.4060 N   0  0  1  0  0  0  0  0  0  0  0  0
  160.1700  209.9330  155.0970 C   0  0  0  0  0  3  0  0  0  0  0  0
  159.7780  210.8470  154.2090 C   0  0  0  0  0  0  0  0  0  0  0  0
  160.9290  209.6040  152.3660 C   0  0  2  0  0  3  0  0  0  0  0  0
  159.7070  210.4490  152.7600 C   0  0  0  0  0  2  0  0  0  0  0  0
  160.0800  207.0590  156.5840 C   0  0  0  0  0  1  0  0  0  0  0  0
  161.1270  207.6960  155.6820 C   0  0  0  0  0  2  0  0  0  0  0  0
  159.5090  212.2520  154.6580 C   0  0  1  0  0  3  0  0  0  0  0  0
  157.5970  213.3380  153.6970 O   0  0  0  0  0  0  0  0  0  0  0  0
  158.0500  212.5820  154.5970 C   0  0  0  0  0  0  0  0  0  0  0  0
  157.1910  212.0590  155.5530 O   0  0  0  0  0  1  0  0  0  0  0  0
  160.5110  212.7100  157.0970 C   0  0  0  0  0  3  0  0  0  0  0  0
  160.0600  212.5040  155.9980 C   0  0  0  0  0  0  0  0  0  0  0  0
  160.9780  207.6930  149.7330 C   0  0  0  0  0  2  0  0  0  0  0  0
  162.3310  209.7480  149.3300 O   0  0  0  0  0  1  0  0  0  0  0  0
  162.0530  208.4270  149.0060 C   0  0  0  0  0  0  0  0  0  0  0  0
  162.7060  207.8530  148.0950 O   0  0  0  0  0  0  0  0  0  0  0  0
  161.3850  205.9490  151.4610 C   0  0  0  0  0  2  0  0  0  0  0  0
  160.4550  205.2240  150.4920 C   0  0  0  0  0  2  0  0  0  0  0  0
  160.9140  202.1510  146.3190 C   0  0  0  0  0  0  0  0  0  0  0  0
  160.9650  204.9880  148.0430 C   0  0  0  0  0  2  0  0  0  0  0  0
  161.2170  204.4250  149.4400 C   0  0  2  0  0  3  0  0  0  0  0  0
  161.2060  205.4510  144.4860 C   0  0  0  0  0  1  0  0  0  0  0  0
  160.9320  204.0770  144.8860 N   0  0  0  0  0  0  0  0  0  0  0  0
  161.9700  204.4280  147.0510 C   0  0  0  0  0  2  0  0  0  0  0  0
  161.8820  202.1100  148.7570 C   0  0  0  0  0  2  0  0  0  0  0  0
  160.8320  200.2210  147.7510 N   0  0  0  0  0  2  0  0  0  0  0  0
  161.2140  201.4470  147.5990 C   0  0  0  0  0  0  0  0  0  0  0  0
  160.8770  202.9400  149.5370 C   0  0  0  0  0  2  0  0  0  0  0  0
  160.3070  201.4820  145.3910 N   0  0  0  0  0  2  0  0  0  0  0  0
  161.2690  203.5700  146.0360 C   0  0  0  0  0  0  0  0  0  0  0  0
  1 17  1  6  0  0  0
  1 21  1  0  0  0  0
  2  5  1  0  0  0  0
  2 10  1  1  0  0  0
  3  1  1  6  0  0  0
  3  7  1  0  0  0  0
  3  4  1  0  0  0  0
  4  2  1  0  0  0  0
  6 11  1  0  0  0  0
  6  5  2  0  0  0  0
  7  8  1  0  0  0  0
  7  4  1  0  0  0  0
  8  6  1  0  0  0  0
 10  9  1  0  0  0  0
 11 16  1  0  0  0  0
 12 13  2  0  0  0  0
 13 11  1  0  0  0  0
 13 14  1  0  0  0  0
 16 15  3  0  0  0  0
 19 18  1  0  0  0  0
 19 17  1  0  0  0  0
 20 19  2  0  0  0  0
 22 21  1  0  0  0  0
 23 31  1  0  0  0  0
 24 25  1  0  0  0  0
 25 32  1  0  0  0  0
 25 22  1  0  0  0  0
 26 27  1  0  0  0  0
 27 34  2  0  0  0  0
 28 24  1  0  0  0  0
 29 32  1  0  0  0  0
 31 30  2  0  0  0  0
 31 29  1  0  0  0  0
 33 23  2  0  0  0  0
 34 23  1  0  0  0  0
 34 28  1  0  0  0  0
M  END
>  <MODEL>
5

>  <REMARK>
 VINA RESULT:      -7.4      4.378      9.002
  Name = 
  10 active torsions:
  status: ('A' for Active; 'I' for Inactive)
    1  A    between atoms: C_4  and  C_25
    2  A    between atoms: C_6  and  C_22
    3  A    between atoms: C_8  and  C_12
    4  A    between atoms: C_8  and  C_22
    5  A    between atoms: C_9  and  C_27
    6  A    between atoms: C_13  and  C_15
    7  A    between atoms: C_15  and  C_16
    8  A    between atoms: C_15  and  C_32
    9  A    between atoms: C_22  and  C_30
   10  A    between atoms: C_27  and  C_30
                            x       y       z     vdW  Elec       q    Type
                         _______ _______ _______ _____ _____    ______ ____

>  <TORSDO>
F 10

$$$$
=
 OpenBabel11042422293D

 34 36  0  0  1  0  0  0  0  0999 V2000
  161.3030  208.2980  153.1410 C   0  0  2  0  0  3  0  0  0  0  0  0
  161.1160  209.7770  156.5110 C   0  0  2  0  0  3  0  0  0  0  0  0
  160.6040  208.8060  154.4230 C   0  0  1  0  0  3  0  0  0  0  0  0
  161.3360  209.9140  155.0630 N   0  0  1  0  0  0  0  0  0  0  0  0
  160.2310  210.8730  157.0330 C   0  0  0  0  0  3  0  0  0  0  0  0
  159.1130  211.1450  156.3600 C   0  0  0  0  0  0  0  0  0  0  0  0
  160.0900  210.1700  154.2710 C   0  0  2  0  0  3  0  0  0  0  0  0
  158.8180  210.3510  155.1170 C   0  0  0  0  0  2  0  0  0  0  0  0
  163.4600  210.7110  156.6950 C   0  0  0  0  0  1  0  0  0  0  0  0
  162.4440  209.7290  157.2610 C   0  0  0  0  0  2  0  0  0  0  0  0
  158.2370  212.2790  156.8010 C   0  0  1  0  0  3  0  0  0  0  0  0
  159.6220  214.0650  155.9940 O   0  0  0  0  0  1  0  0  0  0  0  0
  158.4880  213.5160  155.9970 C   0  0  0  0  0  0  0  0  0  0  0  0
  157.4540  214.0720  155.2570 O   0  0  0  0  0  0  0  0  0  0  0  0
  155.6500  211.5950  156.7540 C   0  0  0  0  0  3  0  0  0  0  0  0
  156.8150  211.9030  156.7760 C   0  0  0  0  0  0  0  0  0  0  0  0
  160.8510  208.9380  151.8270 C   0  0  0  0  0  2  0  0  0  0  0  0
  161.9530  210.0010  149.8600 O   0  0  0  0  0  0  0  0  0  0  0  0
  161.9510  209.7430  151.2240 C   0  0  0  0  0  0  0  0  0  0  0  0
  162.8810  210.1850  151.9470 O   0  0  0  0  0  1  0  0  0  0  0  0
  161.1920  206.7860  153.0300 C   0  0  0  0  0  2  0  0  0  0  0  0
  162.0690  206.2670  151.8950 C   0  0  0  0  0  2  0  0  0  0  0  0
  161.3890  204.0340  147.2440 C   0  0  0  0  0  0  0  0  0  0  0  0
  161.4970  204.2170  150.5580 C   0  0  0  0  0  2  0  0  0  0  0  0
  161.2510  205.7140  150.7320 C   0  0  2  0  0  3  0  0  0  0  0  0
  161.2020  200.8620  149.3030 C   0  0  0  0  0  1  0  0  0  0  0  0
  161.4250  201.8620  148.2680 N   0  0  0  0  0  0  0  0  0  0  0  0
  160.4490  203.6040  149.6460 C   0  0  0  0  0  2  0  0  0  0  0  0
  160.4720  206.2020  148.4030 C   0  0  0  0  0  2  0  0  0  0  0  0
  161.4180  206.2070  146.2150 N   0  0  0  0  0  2  0  0  0  0  0  0
  161.0870  205.4940  147.2420 C   0  0  0  0  0  0  0  0  0  0  0  0
  161.5280  206.5000  149.4540 C   0  0  0  0  0  2  0  0  0  0  0  0
  161.9470  203.5320  146.1890 N   0  0  0  0  0  2  0  0  0  0  0  0
  161.0900  203.1150  148.3790 C   0  0  0  0  0  0  0  0  0  0  0  0
  1 17  1  6  0  0  0
  2  5  1  0  0  0  0
  2 10  1  1  0  0  0
  3  1  1  6  0  0  0
  3  4  1  0  0  0  0
  4  2  1  0  0  0  0
  6 11  1  0  0  0  0
  6  5  2  0  0  0  0
  7  3  1  0  0  0  0
  7  4  1  0  0  0  0
  7  8  1  0  0  0  0
  8  6  1  0  0  0  0
  9 10  1  0  0  0  0
 12 13  1  0  0  0  0
 13 11  1  0  0  0  0
 14 13  2  0  0  0  0
 15 16  3  0  0  0  0
 16 11  1  0  0  0  0
 18 19  2  0  0  0  0
 19 17  1  0  0  0  0
 19 20  1  0  0  0  0
 21  1  1  0  0  0  0
 22 21  1  0  0  0  0
 23 34  1  0  0  0  0
 24 25  1  0  0  0  0
 25 22  1  0  0  0  0
 27 34  2  0  0  0  0
 27 26  1  0  0  0  0
 28 24  1  0  0  0  0
 29 32  1  0  0  0  0
 30 31  2  0  0  0  0
 31 23  1  0  0  0  0
 31 29  1  0  0  0  0
 32 25  1  0  0  0  0
 33 23  2  0  0  0  0
 34 28  1  0  0  0  0
M  END
>  <MODEL>
6

>  <REMARK>
 VINA RESULT:      -7.3      4.390      9.253
  Name = 
  10 active torsions:
  status: ('A' for Active; 'I' for Inactive)
    1  A    between atoms: C_4  and  C_25
    2  A    between atoms: C_6  and  C_22
    3  A    between atoms: C_8  and  C_12
    4  A    between atoms: C_8  and  C_22
    5  A    between atoms: C_9  and  C_27
    6  A    between atoms: C_13  and  C_15
    7  A    between atoms: C_15  and  C_16
    8  A    between atoms: C_15  and  C_32
    9  A    between atoms: C_22  and  C_30
   10  A    between atoms: C_27  and  C_30
                            x       y       z     vdW  Elec       q    Type
                         _______ _______ _______ _____ _____    ______ ____

>  <TORSDO>
F 10

$$$$
=
 OpenBabel11042422293D

 34 36  0  0  1  0  0  0  0  0999 V2000
  161.0280  207.5260  152.3230 C   0  0  2  0  0  3  0  0  0  0  0  0
  161.3950  206.4680  148.8120 C   0  0  2  0  0  3  0  0  0  0  0  0
  160.7260  206.6800  151.0650 C   0  0  1  0  0  3  0  0  0  0  0  0
  161.9040  206.5280  150.1920 N   0  0  1  0  0  0  0  0  0  0  0  0
  161.5540  205.0910  148.2340 C   0  0  0  0  0  3  0  0  0  0  0  0
  161.1670  204.0540  148.9780 C   0  0  0  0  0  0  0  0  0  0  0  0
  161.4450  205.4040  151.0680 C   0  0  2  0  0  3  0  0  0  0  0  0
  160.6130  204.3280  150.3490 C   0  0  0  0  0  2  0  0  0  0  0  0
  161.9770  208.9150  148.5410 C   0  0  0  0  0  1  0  0  0  0  0  0
  162.0700  207.5210  147.9370 C   0  0  0  0  0  2  0  0  0  0  0  0
  161.3740  202.6580  148.4720 C   0  0  1  0  0  3  0  0  0  0  0  0
  159.3630  201.4680  149.0210 O   0  0  0  0  0  0  0  0  0  0  0  0
  160.5850  201.6610  149.2620 C   0  0  0  0  0  0  0  0  0  0  0  0
  161.2050  200.9520  150.2810 O   0  0  0  0  0  1  0  0  0  0  0  0
  160.8370  202.4720  145.8570 C   0  0  0  0  0  3  0  0  0  0  0  0
  161.0790  202.5560  147.0350 C   0  0  0  0  0  0  0  0  0  0  0  0
  161.9620  208.7210  152.1240 C   0  0  0  0  0  2  0  0  0  0  0  0
  160.0840  210.3280  152.4540 O   0  0  0  0  0  0  0  0  0  0  0  0
  161.3890  209.9500  152.7430 C   0  0  0  0  0  0  0  0  0  0  0  0
  162.0860  210.6500  153.5230 O   0  0  0  0  0  1  0  0  0  0  0  0
  161.5610  206.6500  153.4450 C   0  0  0  0  0  2  0  0  0  0  0  0
  160.4590  206.3440  154.4550 C   0  0  0  0  0  2  0  0  0  0  0  0
  161.0110  211.0170  156.6750 C   0  0  0  0  0  0  0  0  0  0  0  0
  159.3930  208.4240  155.3770 C   0  0  0  0  0  2  0  0  0  0  0  0
  160.4380  207.3360  155.6130 C   0  0  2  0  0  3  0  0  0  0  0  0
  157.3050  211.2940  155.9510 C   0  0  0  0  0  1  0  0  0  0  0  0
  158.7230  211.5430  156.1670 N   0  0  0  0  0  0  0  0  0  0  0  0
  159.1300  209.2010  156.6560 C   0  0  0  0  0  2  0  0  0  0  0  0
  161.8930  208.6050  157.2090 C   0  0  0  0  0  2  0  0  0  0  0  0
  163.3190  210.5130  157.1240 N   0  0  0  0  0  2  0  0  0  0  0  0
  162.1070  210.0700  157.0250 C   0  0  0  0  0  0  0  0  0  0  0  0
  161.8300  207.9120  155.8580 C   0  0  0  0  0  2  0  0  0  0  0  0
  161.3190  212.2650  156.5160 N   0  0  0  0  0  2  0  0  0  0  0  0
  159.5840  210.6240  156.4970 C   0  0  0  0  0  0  0  0  0  0  0  0
  1 17  1  6  0  0  0
  1 21  1  0  0  0  0
  2 10  1  6  0  0  0
  2  4  1  0  0  0  0
  3  7  1  0  0  0  0
  3  1  1  1  0  0  0
  4  3  1  0  0  0  0
  4  7  1  0  0  0  0
  5  2  1  0  0  0  0
  5  6  2  0  0  0  0
  6  8  1  0  0  0  0
  8  7  1  0  0  0  0
 10  9  1  0  0  0  0
 11  6  1  0  0  0  0
 11 13  1  0  0  0  0
 12 13  2  0  0  0  0
 13 14  1  0  0  0  0
 15 16  3  0  0  0  0
 16 11  1  0  0  0  0
 17 19  1  0  0  0  0
 18 19  2  0  0  0  0
 19 20  1  0  0  0  0
 21 22  1  0  0  0  0
 22 25  1  0  0  0  0
 23 31  1  0  0  0  0
 24 25  1  0  0  0  0
 24 28  1  0  0  0  0
 25 32  1  0  0  0  0
 26 27  1  0  0  0  0
 27 34  2  0  0  0  0
 31 30  2  0  0  0  0
 31 29  1  0  0  0  0
 32 29  1  0  0  0  0
 33 23  2  0  0  0  0
 34 28  1  0  0  0  0
 34 23  1  0  0  0  0
M  END
>  <MODEL>
7

>  <REMARK>
 VINA RESULT:      -7.3      4.100      7.249
  Name = 
  10 active torsions:
  status: ('A' for Active; 'I' for Inactive)
    1  A    between atoms: C_4  and  C_25
    2  A    between atoms: C_6  and  C_22
    3  A    between atoms: C_8  and  C_12
    4  A    between atoms: C_8  and  C_22
    5  A    between atoms: C_9  and  C_27
    6  A    between atoms: C_13  and  C_15
    7  A    between atoms: C_15  and  C_16
    8  A    between atoms: C_15  and  C_32
    9  A    between atoms: C_22  and  C_30
   10  A    between atoms: C_27  and  C_30
                            x       y       z     vdW  Elec       q    Type
                         _______ _______ _______ _____ _____    ______ ____

>  <TORSDO>
F 10

$$$$
=
 OpenBabel11042422293D

 34 36  0  0  1  0  0  0  0  0999 V2000
  161.2760  207.1730  153.5880 C   0  0  2  0  0  3  0  0  0  0  0  0
  160.9900  206.6680  149.9490 C   0  0  2  0  0  3  0  0  0  0  0  0
  160.8320  206.4550  152.2930 C   0  0  1  0  0  3  0  0  0  0  0  0
  161.7860  206.6470  151.1860 N   0  0  1  0  0  0  0  0  0  0  0  0
  161.2290  205.4330  149.1270 C   0  0  0  0  0  3  0  0  0  0  0  0
  161.1950  204.2540  149.7490 C   0  0  0  0  0  0  0  0  0  0  0  0
  161.7270  205.3510  151.9360 C   0  0  2  0  0  3  0  0  0  0  0  0
  160.9350  204.2370  151.2300 C   0  0  0  0  0  2  0  0  0  0  0  0
  162.4950  207.7940  148.2560 C   0  0  0  0  0  1  0  0  0  0  0  0
  161.2680  207.9350  149.1450 C   0  0  0  0  0  2  0  0  0  0  0  0
  161.5000  203.0010  148.9840 C   0  0  1  0  0  3  0  0  0  0  0  0
  161.1940  200.9420  150.1780 O   0  0  0  0  0  1  0  0  0  0  0  0
  160.6800  201.8460  149.4660 C   0  0  0  0  0  0  0  0  0  0  0  0
  159.3400  201.7650  149.1130 O   0  0  0  0  0  0  0  0  0  0  0  0
  161.2150  203.3670  146.3480 C   0  0  0  0  0  3  0  0  0  0  0  0
  161.3440  203.2020  147.5360 C   0  0  0  0  0  0  0  0  0  0  0  0
  160.3900  206.9580  154.8160 C   0  0  0  0  0  2  0  0  0  0  0  0
  160.0050  208.6520  156.6050 O   0  0  0  0  0  1  0  0  0  0  0  0
  160.8710  207.7750  155.9660 C   0  0  0  0  0  0  0  0  0  0  0  0
  162.0640  207.6760  156.3560 O   0  0  0  0  0  0  0  0  0  0  0  0
  161.4490  208.6630  153.3450 C   0  0  0  0  0  2  0  0  0  0  0  0
  160.1730  209.2610  152.7580 C   0  0  0  0  0  2  0  0  0  0  0  0
  157.3790  213.5810  153.5390 C   0  0  0  0  0  0  0  0  0  0  0  0
  158.9630  210.7780  154.3550 C   0  0  0  0  0  2  0  0  0  0  0  0
  159.9530  210.7060  153.1940 C   0  0  2  0  0  3  0  0  0  0  0  0
  156.9540  212.1320  157.0110 C   0  0  0  0  0  1  0  0  0  0  0  0
  156.7840  212.8140  155.7360 N   0  0  0  0  0  0  0  0  0  0  0  0
  159.0010  212.1500  155.0070 C   0  0  0  0  0  2  0  0  0  0  0  0
  159.6540  213.0450  152.3490 C   0  0  0  0  0  2  0  0  0  0  0  0
  157.9230  214.3150  151.3150 N   0  0  0  0  0  2  0  0  0  0  0  0
  158.3080  213.6870  152.3780 C   0  0  0  0  0  0  0  0  0  0  0  0
  159.5230  211.5690  152.0110 C   0  0  0  0  0  2  0  0  0  0  0  0
  156.2230  214.1590  153.4420 N   0  0  0  0  0  2  0  0  0  0  0  0
  157.6910  212.8550  154.8030 C   0  0  0  0  0  0  0  0  0  0  0  0
  1 21  1  6  0  0  0
  1 17  1  0  0  0  0
  2 10  1  6  0  0  0
  2  4  1  0  0  0  0
  3  1  1  1  0  0  0
  4  7  1  0  0  0  0
  4  3  1  0  0  0  0
  5  6  2  0  0  0  0
  5  2  1  0  0  0  0
  6  8  1  0  0  0  0
  7  3  1  0  0  0  0
  8  7  1  0  0  0  0
  9 10  1  0  0  0  0
 11 13  1  0  0  0  0
 11  6  1  0  0  0  0
 13 12  1  0  0  0  0
 14 13  2  0  0  0  0
 15 16  3  0  0  0  0
 16 11  1  0  0  0  0
 17 19  1  0  0  0  0
 19 20  2  0  0  0  0
 19 18  1  0  0  0  0
 22 25  1  0  0  0  0
 22 21  1  0  0  0  0
 23 34  1  0  0  0  0
 24 28  1  0  0  0  0
 25 24  1  0  0  0  0
 27 26  1  0  0  0  0
 29 31  1  0  0  0  0
 30 31  2  0  0  0  0
 31 23  1  0  0  0  0
 32 29  1  0  0  0  0
 32 25  1  0  0  0  0
 33 23  2  0  0  0  0
 34 28  1  0  0  0  0
 34 27  2  0  0  0  0
M  END
>  <MODEL>
8

>  <REMARK>
 VINA RESULT:      -7.3      4.241      5.967
  Name = 
  10 active torsions:
  status: ('A' for Active; 'I' for Inactive)
    1  A    between atoms: C_4  and  C_25
    2  A    between atoms: C_6  and  C_22
    3  A    between atoms: C_8  and  C_12
    4  A    between atoms: C_8  and  C_22
    5  A    between atoms: C_9  and  C_27
    6  A    between atoms: C_13  and  C_15
    7  A    between atoms: C_15  and  C_16
    8  A    between atoms: C_15  and  C_32
    9  A    between atoms: C_22  and  C_30
   10  A    between atoms: C_27  and  C_30
                            x       y       z     vdW  Elec       q    Type
                         _______ _______ _______ _____ _____    ______ ____

>  <TORSDO>
F 10

$$$$
=
 OpenBabel11042422293D

 34 36  0  0  1  0  0  0  0  0999 V2000
  160.7030  207.4420  153.8900 C   0  0  2  0  0  3  0  0  0  0  0  0
  161.4040  210.4180  151.8320 C   0  0  2  0  0  3  0  0  0  0  0  0
  160.9470  208.9440  153.6170 C   0  0  1  0  0  3  0  0  0  0  0  0
  160.4880  209.3560  152.2790 N   0  0  1  0  0  0  0  0  0  0  0  0
  160.7160  211.7530  151.8060 C   0  0  0  0  0  3  0  0  0  0  0  0
  159.9910  212.1020  152.8690 C   0  0  0  0  0  0  0  0  0  0  0  0
  159.6960  209.6980  153.5030 C   0  0  2  0  0  3  0  0  0  0  0  0
  159.8960  211.1340  154.0170 C   0  0  0  0  0  2  0  0  0  0  0  0
  162.0000  211.2660  149.5250 C   0  0  0  0  0  1  0  0  0  0  0  0
  162.0110  210.0770  150.4750 C   0  0  0  0  0  2  0  0  0  0  0  0
  159.2280  213.3930  152.8580 C   0  0  1  0  0  3  0  0  0  0  0  0
  156.8330  213.2960  152.7280 O   0  0  0  0  0  1  0  0  0  0  0  0
  157.9340  213.2620  152.1160 C   0  0  0  0  0  0  0  0  0  0  0  0
  157.9500  213.0890  150.7390 O   0  0  0  0  0  0  0  0  0  0  0  0
  158.8410  214.3270  155.3360 C   0  0  0  0  0  3  0  0  0  0  0  0
  159.0150  213.9050  154.2190 C   0  0  0  0  0  0  0  0  0  0  0  0
  160.3740  207.0640  155.3360 C   0  0  0  0  0  2  0  0  0  0  0  0
  160.0650  208.9990  156.8790 O   0  0  0  0  0  1  0  0  0  0  0  0
  160.9170  208.0770  156.2850 C   0  0  0  0  0  0  0  0  0  0  0  0
  162.1480  208.1030  156.5460 O   0  0  0  0  0  0  0  0  0  0  0  0
  161.8780  206.6090  153.4070 C   0  0  0  0  0  2  0  0  0  0  0  0
  161.4180  205.2040  153.0260 C   0  0  0  0  0  2  0  0  0  0  0  0
  161.7030  204.6500  147.8600 C   0  0  0  0  0  0  0  0  0  0  0  0
  161.0850  203.7580  150.9990 C   0  0  0  0  0  2  0  0  0  0  0  0
  160.8570  205.1390  151.6090 C   0  0  2  0  0  3  0  0  0  0  0  0
  160.9600  201.0260  148.6650 C   0  0  0  0  0  1  0  0  0  0  0  0
  161.4390  202.2740  148.0880 N   0  0  0  0  0  0  0  0  0  0  0  0
  160.2430  203.5800  149.7470 C   0  0  0  0  0  2  0  0  0  0  0  0
  160.6270  206.4200  149.4700 C   0  0  0  0  0  2  0  0  0  0  0  0
  162.0320  207.0220  147.6410 N   0  0  0  0  0  2  0  0  0  0  0  0
  161.4580  206.0580  148.2850 C   0  0  0  0  0  0  0  0  0  0  0  0
  161.4360  206.2570  150.7460 C   0  0  0  0  0  2  0  0  0  0  0  0
  162.4630  204.4540  146.8300 N   0  0  0  0  0  2  0  0  0  0  0  0
  161.1310  203.4550  148.5420 C   0  0  0  0  0  0  0  0  0  0  0  0
  1 21  1  1  0  0  0
  1 17  1  0  0  0  0
  2 10  1  6  0  0  0
  2  4  1  0  0  0  0
  3  1  1  6  0  0  0
  4  7  1  0  0  0  0
  4  3  1  0  0  0  0
  5  2  1  0  0  0  0
  5  6  2  0  0  0  0
  6  8  1  0  0  0  0
  7  3  1  0  0  0  0
  7  8  1  0  0  0  0
  9 10  1  0  0  0  0
 11  6  1  0  0  0  0
 11 16  1  0  0  0  0
 13 12  1  0  0  0  0
 13 11  1  0  0  0  0
 14 13  2  0  0  0  0
 16 15  3  0  0  0  0
 17 19  1  0  0  0  0
 19 20  2  0  0  0  0
 19 18  1  0  0  0  0
 22 21  1  0  0  0  0
 23 31  1  0  0  0  0
 23 34  1  0  0  0  0
 24 25  1  0  0  0  0
 25 22  1  0  0  0  0
 27 34  2  0  0  0  0
 27 26  1  0  0  0  0
 28 24  1  0  0  0  0
 29 32  1  0  0  0  0
 30 31  2  0  0  0  0
 31 29  1  0  0  0  0
 32 25  1  0  0  0  0
 33 23  2  0  0  0  0
 34 28  1  0  0  0  0
M  END
>  <MODEL>
9

>  <REMARK>
 VINA RESULT:      -7.3      4.222      8.599
  Name = 
  10 active torsions:
  status: ('A' for Active; 'I' for Inactive)
    1  A    between atoms: C_4  and  C_25
    2  A    between atoms: C_6  and  C_22
    3  A    between atoms: C_8  and  C_12
    4  A    between atoms: C_8  and  C_22
    5  A    between atoms: C_9  and  C_27
    6  A    between atoms: C_13  and  C_15
    7  A    between atoms: C_15  and  C_16
    8  A    between atoms: C_15  and  C_32
    9  A    between atoms: C_22  and  C_30
   10  A    between atoms: C_27  and  C_30
                            x       y       z     vdW  Elec       q    Type
                         _______ _______ _______ _____ _____    ______ ____

>  <TORSDO>
F 10

$$$$
