=
 OpenBabel11042422183D

 52 57  0  0  1  0  0  0  0  0999 V2000
  159.4190  211.0000  152.7830 C   0  0  2  0  0  3  0  0  0  0  0  0
  158.1300  213.4080  152.0940 S   0  0  0  0  0  0  0  0  0  0  0  0
  160.1970  212.6220  150.9350 C   0  0  0  0  0  3  0  0  0  0  0  0
  159.3240  212.2400  151.9420 C   0  0  0  0  0  0  0  0  0  0  0  0
  158.6860  214.4380  150.8840 C   0  0  0  0  0  3  0  0  0  0  0  0
  159.8340  213.8460  150.3590 C   0  0  0  0  0  0  0  0  0  0  0  0
  160.6000  214.4530  149.2390 C   0  0  0  0  0  2  0  0  0  0  0  0
  159.8390  214.3420  148.0050 N   0  0  0  0  0  2  0  0  0  0  0  0
  159.1890  213.1010  148.0390 N   0  0  0  0  0  2  0  0  0  0  0  0
  158.0530  214.1300  144.1240 N   0  0  0  0  0  1  0  0  0  0  0  0
  159.2480  212.7260  145.6030 C   0  0  0  0  0  0  0  0  0  0  0  0
  159.6400  212.3740  146.9300 N   0  0  0  0  0  2  0  0  0  0  0  0
  158.4760  213.7520  145.4050 N   0  0  0  0  0  0  0  0  0  0  0  0
  159.7140  211.8740  144.4630 C   0  0  0  0  0  2  0  0  0  0  0  0
  160.6790  211.9560  142.1870 C   0  0  0  0  0  2  0  0  0  0  0  0
  160.5520  212.6910  143.4920 C   0  0  2  0  0  3  0  0  0  0  0  0
  162.1250  212.1500  141.8650 C   0  0  0  0  0  2  0  0  0  0  0  0
  161.8470  212.8730  143.9980 O   0  0  0  0  0  0  0  0  0  0  0  0
  162.6520  213.0180  142.9080 N   0  0  0  0  0  2  0  0  0  0  0  0
  159.6030  210.9360  156.6510 C   0  0  0  0  0  2  0  0  0  0  0  0
  158.9310  211.9840  155.3330 S   0  0  0  0  0  0  0  0  0  0  0  0
  160.0960  211.2470  154.1400 C   0  0  1  0  0  3  0  0  0  0  0  0
  160.8380  210.2560  156.0950 C   0  0  2  0  0  3  0  0  0  0  0  0
  160.5950  209.9940  154.6870 N   0  0  0  0  0  2  0  0  0  0  0  0
  162.1480  206.5790  154.1300 O   0  0  0  0  0  1  0  0  0  0  0  0
  159.8610  208.2160  157.2600 C   0  0  0  0  0  2  0  0  0  0  0  0
  160.0640  206.6910  155.2840 C   0  0  0  0  0  2  0  0  0  0  0  0
  162.0480  208.0210  156.0300 C   0  0  0  0  0  2  0  0  0  0  0  0
  161.1430  208.9540  156.8470 C   0  0  1  0  0  3  0  0  0  0  0  0
  161.3040  207.4460  154.8230 C   0  0  1  0  0  3  0  0  0  0  0  0
  159.1350  207.6290  156.0480 C   0  0  0  0  0  2  0  0  0  0  0  0
  159.9820  209.9220  152.0690 O   0  0  0  0  0  0  0  0  0  0  0  0
  161.2940  210.0790  152.0960 O   0  0  0  0  0  0  0  0  0  0  0  0
  161.2250  207.0560  149.2300 C   0  0  2  0  0  3  0  0  0  0  0  0
  161.8040  208.9590  151.4340 C   0  0  1  0  0  3  0  0  0  0  0  0
  160.8120  207.8010  151.5730 C   0  0  0  0  0  2  0  0  0  0  0  0
  162.2690  208.1470  149.0110 C   0  0  0  0  0  2  0  0  0  0  0  0
  162.0570  209.2720  149.9780 C   0  0  0  0  0  0  0  0  0  0  0  0
  162.1980  210.4270  149.6010 O   0  0  0  0  0  0  0  0  0  0  0  0
  161.2150  206.6190  150.6920 C   0  0  0  0  0  2  0  0  0  0  0  0
  161.5140  205.9630  148.4100 O   0  0  0  0  0  0  0  0  0  0  0  0
  162.0810  206.4800  147.3370 O   0  0  0  0  0  0  0  0  0  0  0  0
  162.3930  205.1620  146.3130 P   0  0  1  0  0  0  0  0  0  0  0  0
  161.4680  203.7600  146.8250 N   0  0  0  0  0  2  0  0  0  0  0  0
  160.4140  205.0750  144.4830 C   0  0  0  0  0  2  0  0  0  0  0  0
  161.8520  205.5540  144.6270 C   0  0  0  0  0  2  0  0  0  0  0  0
  161.2670  202.9230  145.6440 C   0  0  2  0  0  3  0  0  0  0  0  0
  160.2780  203.5510  144.6410 C   0  0  0  0  0  2  0  0  0  0  0  0
  163.8710  204.8440  146.3150 O   0  0  0  0  0  0  0  0  0  0  0  0
  160.8160  201.3460  147.5300 C   0  0  0  0  0  1  0  0  0  0  0  0
  160.8310  201.5090  146.0230 C   0  0  0  0  0  3  0  0  0  0  0  0
  159.4660  201.1580  145.4530 C   0  0  0  0  0  1  0  0  0  0  0  0
  1 32  1  6  0  0  0
  3  4  2  0  0  0  0
  4  2  1  0  0  0  0
  4  1  1  0  0  0  0
  5  2  1  0  0  0  0
  6  5  2  0  0  0  0
  6  3  1  0  0  0  0
  7  6  1  0  0  0  0
  8  9  1  0  0  0  0
  8  7  1  0  0  0  0
 10 13  1  0  0  0  0
 11 12  1  0  0  0  0
 12  9  1  0  0  0  0
 13 11  2  0  0  0  0
 14 11  1  0  0  0  0
 15 16  1  0  0  0  0
 16 18  1  0  0  0  0
 16 14  1  1  0  0  0
 17 15  1  0  0  0  0
 17 19  1  0  0  0  0
 19 18  1  0  0  0  0
 21 20  1  0  0  0  0
 22  1  1  6  0  0  0
 22 24  1  0  0  0  0
 22 21  1  0  0  0  0
 23 20  1  1  0  0  0
 23 29  1  0  0  0  0
 24 23  1  0  0  0  0
 27 31  1  0  0  0  0
 29 28  1  6  0  0  0
 29 26  1  0  0  0  0
 30 25  1  1  0  0  0
 30 27  1  0  0  0  0
 30 28  1  0  0  0  0
 31 26  1  0  0  0  0
 32 33  1  0  0  0  0
 34 41  1  6  0  0  0
 34 40  1  0  0  0  0
 35 36  1  0  0  0  0
 35 33  1  1  0  0  0
 37 34  1  0  0  0  0
 37 38  1  0  0  0  0
 38 35  1  0  0  0  0
 39 38  2  0  0  0  0
 40 36  1  0  0  0  0
 42 41  1  0  0  0  0
 43 49  2  1  0  0  0
 43 44  1  0  0  0  0
 43 42  1  0  0  0  0
 45 46  1  0  0  0  0
 45 48  1  0  0  0  0
 46 43  1  0  0  0  0
 47 51  1  1  0  0  0
 47 44  1  0  0  0  0
 48 47  1  0  0  0  0
 51 50  1  0  0  0  0
 52 51  1  0  0  0  0
M  END
>  <MODEL>
1

>  <REMARK>
 VINA RESULT:      -6.9      0.000      0.000
  Name = 
  16 active torsions:
  status: ('A' for Active; 'I' for Inactive)
    1  A    between atoms: O_1  and  O_26
    2  A    between atoms: O_1  and  C_41
    3  A    between atoms: C_3  and  N_8
    4  A    between atoms: C_3  and  C_49
    5  A    between atoms: C_4  and  O_37
    6  A    between atoms: C_6  and  C_22
    7  A    between atoms: C_6  and  C_28
    8  A    between atoms: N_8  and  N_14
    9  A    between atoms: P_13  and  O_21
   10  A    between atoms: N_14  and  N_36
   11  A    between atoms: C_16  and  O_26
   12  A    between atoms: C_18  and  C_41
   13  A    between atoms: O_21  and  O_37
   14  A    between atoms: C_24  and  C_41
   15  A    between atoms: C_25  and  C_40
   16  A    between atoms: C_29  and  C_45
                            x       y       z     vdW  Elec       q    Type
                         _______ _______ _______ _____ _____    ______ ____

>  <TORSDO>
F 16

$$$$
=
 OpenBabel11042422183D

 52 58  0  0  1  0  0  0  0  0999 V2000
  160.1970  213.4700  146.2630 C   0  0  2  0  0  3  0  0  0  0  0  0
  162.6400  213.3190  147.6570 S   0  0  1  0  0  3  0  0  0  0  0  0
  161.0020  211.4340  147.6260 C   0  0  0  0  0  3  0  0  0  0  0  0
  161.1670  212.7170  147.1260 C   0  0  0  0  0  0  0  0  0  0  0  0
  163.1150  211.9680  148.5420 C   0  0  0  0  0  3  0  0  0  0  0  0
  162.0890  211.0320  148.4140 C   0  0  0  0  0  0  0  0  0  0  0  0
  162.1580  209.6860  149.0410 C   0  0  0  0  0  2  0  0  0  0  0  0
  162.0610  209.8120  150.4860 N   0  0  0  0  0  2  0  0  0  0  0  0
  161.8820  208.5190  150.9950 N   0  0  0  0  0  2  0  0  0  0  0  0
  161.7120  204.3210  151.1640 N   0  0  0  0  0  1  0  0  0  0  0  0
  161.2010  206.3440  150.0540 C   0  0  0  0  0  0  0  0  0  0  0  0
  161.2520  207.7700  149.9930 N   0  0  0  0  0  2  0  0  0  0  0  0
  161.7250  205.7180  151.0640 N   0  0  0  0  0  0  0  0  0  0  0  0
  160.5670  205.5970  148.9210 C   0  0  0  0  0  2  0  0  0  0  0  0
  160.9090  206.2740  146.5660 C   0  0  0  0  0  2  0  0  0  0  0  0
  161.5100  205.5340  147.7290 C   0  0  2  0  0  3  0  0  0  0  0  0
  161.1950  205.3480  145.4310 C   0  0  0  0  0  2  0  0  0  0  0  0
  161.6980  204.2050  147.3260 O   0  0  0  0  0  0  0  0  0  0  0  0
  161.9810  204.2590  145.9930 N   0  0  0  0  0  2  0  0  0  0  0  0
  163.0010  214.3310  143.7350 C   0  0  0  0  0  2  0  0  0  0  0  0
  162.6840  214.4510  145.5160 S   0  0  1  0  0  3  0  0  0  0  0  0
  160.8890  214.3520  145.2130 C   0  0  1  0  0  3  0  0  0  0  0  0
  161.6630  214.4510  143.0340 C   0  0  2  0  0  3  0  0  0  0  0  0
  160.6690  213.8110  143.8800 N   0  0  0  0  0  2  0  0  0  0  0  0
  158.0840  213.2820  140.8150 O   0  0  0  0  0  1  0  0  0  0  0  0
  162.0750  212.3080  141.7240 C   0  0  0  0  0  2  0  0  0  0  0  0
  159.6620  211.6570  141.5620 C   0  0  0  0  0  2  0  0  0  0  0  0
  160.3700  213.9650  140.8990 C   0  0  0  0  0  2  0  0  0  0  0  0
  161.7000  213.7960  141.6470 C   0  0  1  0  0  3  0  0  0  0  0  0
  159.2630  213.1280  141.5420 C   0  0  1  0  0  3  0  0  0  0  0  0
  160.9530  211.4780  142.3520 C   0  0  0  0  0  2  0  0  0  0  0  0
  159.2420  214.1680  147.0320 O   0  0  0  0  0  0  0  0  0  0  0  0
  158.6740  213.2890  147.8410 O   0  0  0  0  0  0  0  0  0  0  0  0
  157.0540  213.8670  151.6350 C   0  0  2  0  0  3  0  0  0  0  0  0
  158.1220  214.0540  148.8720 C   0  0  1  0  0  3  0  0  0  0  0  0
  156.7190  213.5300  149.1880 C   0  0  0  0  0  2  0  0  0  0  0  0
  158.4470  214.4510  151.4180 C   0  0  0  0  0  2  0  0  0  0  0  0
  159.0000  214.0010  150.1000 C   0  0  0  0  0  0  0  0  0  0  0  0
  160.1820  213.7000  150.0130 O   0  0  0  0  0  0  0  0  0  0  0  0
  156.1530  214.1890  150.4460 C   0  0  0  0  0  2  0  0  0  0  0  0
  156.5030  214.3970  152.8040 O   0  0  0  0  0  0  0  0  0  0  0  0
  157.4970  214.4210  153.6700 O   0  0  0  0  0  0  0  0  0  0  0  0
  157.2550  213.0720  154.6730 P   0  0  1  0  0  0  0  0  0  0  0  0
  158.5940  211.9470  154.5140 N   0  0  0  0  0  2  0  0  0  0  0  0
  158.6390  213.4960  156.9480 C   0  0  0  0  0  2  0  0  0  0  0  0
  157.2180  213.5950  156.4080 C   0  0  0  0  0  2  0  0  0  0  0  0
  158.6720  211.1930  155.7640 C   0  0  2  0  0  3  0  0  0  0  0  0
  159.1770  212.0560  156.9390 C   0  0  0  0  0  2  0  0  0  0  0  0
  155.9540  212.3910  154.3160 O   0  0  0  0  0  0  0  0  0  0  0  0
  160.2930  209.9720  154.3050 C   0  0  0  0  0  1  0  0  0  0  0  0
  159.5230  209.9340  155.6100 C   0  0  0  0  0  3  0  0  0  0  0  0
  160.4850  209.7470  156.7710 C   0  0  0  0  0  1  0  0  0  0  0  0
  1 32  1  1  0  0  0
  1  4  1  0  0  0  0
  2  5  1  6  0  0  0
  3  6  1  0  0  0  0
  4  3  2  0  0  0  0
  4  2  1  0  0  0  0
  6  5  2  0  0  0  0
  6  7  1  0  0  0  0
  7  8  1  0  0  0  0
  8  9  1  0  0  0  0
 11 13  2  0  0  0  0
 12 11  1  0  0  0  0
 12  9  1  0  0  0  0
 13 10  1  0  0  0  0
 14 11  1  0  0  0  0
 15 16  1  0  0  0  0
 16 14  1  1  0  0  0
 17 19  1  0  0  0  0
 17 15  1  0  0  0  0
 18 16  1  0  0  0  0
 19 18  1  0  0  0  0
 21 20  1  6  0  0  0
 21  2  1  0  0  0  0
 22 24  1  6  0  0  0
 22 21  1  0  0  0  0
 22  1  1  0  0  0  0
 23 20  1  1  0  0  0
 23 24  1  0  0  0  0
 26 31  1  0  0  0  0
 27 31  1  0  0  0  0
 28 30  1  0  0  0  0
 29 28  1  1  0  0  0
 29 26  1  0  0  0  0
 29 23  1  0  0  0  0
 30 25  1  6  0  0  0
 30 27  1  0  0  0  0
 32 33  1  0  0  0  0
 34 41  1  1  0  0  0
 35 33  1  6  0  0  0
 35 36  1  0  0  0  0
 35 38  1  0  0  0  0
 36 40  1  0  0  0  0
 37 34  1  0  0  0  0
 38 37  1  0  0  0  0
 39 38  2  0  0  0  0
 40 34  1  0  0  0  0
 41 42  1  0  0  0  0
 42 43  1  0  0  0  0
 43 49  2  6  0  0  0
 43 46  1  0  0  0  0
 44 43  1  0  0  0  0
 44 47  1  0  0  0  0
 46 45  1  0  0  0  0
 47 51  1  6  0  0  0
 47 48  1  0  0  0  0
 48 45  1  0  0  0  0
 50 51  1  0  0  0  0
 51 52  1  0  0  0  0
M  END
>  <MODEL>
2

>  <REMARK>
 VINA RESULT:      -6.4      3.642     10.672
  Name = 
  16 active torsions:
  status: ('A' for Active; 'I' for Inactive)
    1  A    between atoms: O_1  and  O_26
    2  A    between atoms: O_1  and  C_41
    3  A    between atoms: C_3  and  N_8
    4  A    between atoms: C_3  and  C_49
    5  A    between atoms: C_4  and  O_37
    6  A    between atoms: C_6  and  C_22
    7  A    between atoms: C_6  and  C_28
    8  A    between atoms: N_8  and  N_14
    9  A    between atoms: P_13  and  O_21
   10  A    between atoms: N_14  and  N_36
   11  A    between atoms: C_16  and  O_26
   12  A    between atoms: C_18  and  C_41
   13  A    between atoms: O_21  and  O_37
   14  A    between atoms: C_24  and  C_41
   15  A    between atoms: C_25  and  C_40
   16  A    between atoms: C_29  and  C_45
                            x       y       z     vdW  Elec       q    Type
                         _______ _______ _______ _____ _____    ______ ____

>  <TORSDO>
F 16

$$$$
=
 OpenBabel11042422183D

 52 57  0  0  1  0  0  0  0  0999 V2000
  160.1930  210.1910  153.3510 C   0  0  2  0  0  3  0  0  0  0  0  0
  160.4340  212.9470  152.8220 S   0  0  0  0  0  0  0  0  0  0  0  0
  158.4770  211.6050  152.0440 C   0  0  0  0  0  3  0  0  0  0  0  0
  159.6610  211.4600  152.7520 C   0  0  0  0  0  0  0  0  0  0  0  0
  159.2880  213.8230  151.9530 C   0  0  0  0  0  3  0  0  0  0  0  0
  158.2850  212.9200  151.6030 C   0  0  0  0  0  0  0  0  0  0  0  0
  157.0750  213.3330  150.8440 C   0  0  0  0  0  2  0  0  0  0  0  0
  157.4630  214.1600  149.7120 N   0  0  0  0  0  2  0  0  0  0  0  0
  156.7430  213.6940  148.6040 N   0  0  0  0  0  2  0  0  0  0  0  0
  160.9110  213.2300  148.3030 N   0  0  0  0  0  1  0  0  0  0  0  0
  158.8620  213.9430  147.3670 C   0  0  0  0  0  0  0  0  0  0  0  0
  157.4460  214.1000  147.4620 N   0  0  0  0  0  2  0  0  0  0  0  0
  159.5210  213.3940  148.3430 N   0  0  0  0  0  0  0  0  0  0  0  0
  159.5630  214.4530  146.1460 C   0  0  0  0  0  2  0  0  0  0  0  0
  161.1090  213.8670  144.3050 C   0  0  0  0  0  2  0  0  0  0  0  0
  160.2580  213.3140  145.4140 C   0  0  2  0  0  3  0  0  0  0  0  0
  160.8080  212.9240  143.1870 C   0  0  0  0  0  2  0  0  0  0  0  0
  159.3110  212.4610  144.8290 O   0  0  0  0  0  0  0  0  0  0  0  0
  159.9310  211.9070  143.7490 N   0  0  0  0  0  2  0  0  0  0  0  0
  160.4220  211.6490  156.9310 C   0  0  0  0  0  2  0  0  0  0  0  0
  161.4960  210.8420  155.7140 S   0  0  0  0  0  0  0  0  0  0  0  0
  160.0360  210.1380  154.8780 C   0  0  1  0  0  3  0  0  0  0  0  0
  159.0190  211.1160  156.7140 C   0  0  2  0  0  3  0  0  0  0  0  0
  158.8570  210.8870  155.2880 N   0  0  0  0  0  2  0  0  0  0  0  0
  155.6340  212.5050  154.3260 O   0  0  0  0  0  1  0  0  0  0  0  0
  158.4810  213.5450  157.2450 C   0  0  0  0  0  2  0  0  0  0  0  0
  157.3220  214.0140  155.0740 C   0  0  0  0  0  2  0  0  0  0  0  0
  156.6590  212.0140  156.4260 C   0  0  0  0  0  2  0  0  0  0  0  0
  157.9620  212.0990  157.2320 C   0  0  1  0  0  3  0  0  0  0  0  0
  156.8460  212.5680  155.0120 C   0  0  1  0  0  3  0  0  0  0  0  0
  158.6460  214.0950  155.8260 C   0  0  0  0  0  2  0  0  0  0  0  0
  161.5060  209.9150  152.9180 O   0  0  0  0  0  0  0  0  0  0  0  0
  161.5800  210.2690  151.6460 O   0  0  0  0  0  0  0  0  0  0  0  0
  161.0720  207.0420  149.0600 C   0  0  2  0  0  3  0  0  0  0  0  0
  161.9930  209.1140  150.9760 C   0  0  1  0  0  3  0  0  0  0  0  0
  161.0890  207.9480  151.3830 C   0  0  0  0  0  2  0  0  0  0  0  0
  162.0150  208.1370  148.5690 C   0  0  0  0  0  2  0  0  0  0  0  0
  161.9510  209.3250  149.4810 C   0  0  0  0  0  0  0  0  0  0  0  0
  161.9760  210.4510  149.0060 O   0  0  0  0  0  0  0  0  0  0  0  0
  161.3580  206.7130  150.5230 C   0  0  0  0  0  2  0  0  0  0  0  0
  161.2380  205.8980  148.2760 O   0  0  0  0  0  0  0  0  0  0  0  0
  162.1830  206.2100  147.4100 O   0  0  0  0  0  0  0  0  0  0  0  0
  162.3520  204.8440  146.4160 P   0  0  1  0  0  0  0  0  0  0  0  0
  161.4240  203.5010  147.0630 N   0  0  0  0  0  2  0  0  0  0  0  0
  160.2160  204.7720  144.7710 C   0  0  0  0  0  2  0  0  0  0  0  0
  161.6780  205.1960  144.7690 C   0  0  0  0  0  2  0  0  0  0  0  0
  161.0870  202.6300  145.9380 C   0  0  2  0  0  3  0  0  0  0  0  0
  160.0370  203.2620  145.0010 C   0  0  0  0  0  2  0  0  0  0  0  0
  163.8110  204.4660  146.3020 O   0  0  0  0  0  0  0  0  0  0  0  0
  161.1550  200.1740  145.4800 C   0  0  0  0  0  1  0  0  0  0  0  0
  160.6330  201.2500  146.4100 C   0  0  0  0  0  3  0  0  0  0  0  0
  161.0730  200.9580  147.8350 C   0  0  0  0  0  1  0  0  0  0  0  0
  1 32  1  1  0  0  0
  3  4  2  0  0  0  0
  4  2  1  0  0  0  0
  4  1  1  0  0  0  0
  5  2  1  0  0  0  0
  6  5  2  0  0  0  0
  6  3  1  0  0  0  0
  7  6  1  0  0  0  0
  8  7  1  0  0  0  0
  9  8  1  0  0  0  0
 10 13  1  0  0  0  0
 11 12  1  0  0  0  0
 11 13  2  0  0  0  0
 12  9  1  0  0  0  0
 14 11  1  0  0  0  0
 15 16  1  0  0  0  0
 16 14  1  6  0  0  0
 17 19  1  0  0  0  0
 17 15  1  0  0  0  0
 18 16  1  0  0  0  0
 19 18  1  0  0  0  0
 21 20  1  0  0  0  0
 22  1  1  6  0  0  0
 22 24  1  0  0  0  0
 22 21  1  0  0  0  0
 23 20  1  6  0  0  0
 23 29  1  0  0  0  0
 24 23  1  0  0  0  0
 27 31  1  0  0  0  0
 29 28  1  6  0  0  0
 29 26  1  0  0  0  0
 30 25  1  6  0  0  0
 30 27  1  0  0  0  0
 30 28  1  0  0  0  0
 31 26  1  0  0  0  0
 33 32  1  0  0  0  0
 34 41  1  6  0  0  0
 34 40  1  0  0  0  0
 35 36  1  0  0  0  0
 35 33  1  1  0  0  0
 37 34  1  0  0  0  0
 37 38  1  0  0  0  0
 38 35  1  0  0  0  0
 39 38  2  0  0  0  0
 40 36  1  0  0  0  0
 42 41  1  0  0  0  0
 43 49  2  6  0  0  0
 43 44  1  0  0  0  0
 43 42  1  0  0  0  0
 45 48  1  0  0  0  0
 46 45  1  0  0  0  0
 46 43  1  0  0  0  0
 47 51  1  1  0  0  0
 47 44  1  0  0  0  0
 48 47  1  0  0  0  0
 50 51  1  0  0  0  0
 51 52  1  0  0  0  0
M  END
>  <MODEL>
3

>  <REMARK>
 VINA RESULT:      -6.0      1.866      3.123
  Name = 
  16 active torsions:
  status: ('A' for Active; 'I' for Inactive)
    1  A    between atoms: O_1  and  O_26
    2  A    between atoms: O_1  and  C_41
    3  A    between atoms: C_3  and  N_8
    4  A    between atoms: C_3  and  C_49
    5  A    between atoms: C_4  and  O_37
    6  A    between atoms: C_6  and  C_22
    7  A    between atoms: C_6  and  C_28
    8  A    between atoms: N_8  and  N_14
    9  A    between atoms: P_13  and  O_21
   10  A    between atoms: N_14  and  N_36
   11  A    between atoms: C_16  and  O_26
   12  A    between atoms: C_18  and  C_41
   13  A    between atoms: O_21  and  O_37
   14  A    between atoms: C_24  and  C_41
   15  A    between atoms: C_25  and  C_40
   16  A    between atoms: C_29  and  C_45
                            x       y       z     vdW  Elec       q    Type
                         _______ _______ _______ _____ _____    ______ ____

>  <TORSDO>
F 16

$$$$
=
 OpenBabel11042422183D

 52 57  0  0  1  0  0  0  0  0999 V2000
  160.4560  212.1130  152.9230 C   0  0  2  0  0  3  0  0  0  0  0  0
  160.8810  211.8090  155.6910 S   0  0  0  0  0  0  0  0  0  0  0  0
  159.8610  210.0100  154.2920 C   0  0  0  0  0  3  0  0  0  0  0  0
  160.3730  211.2930  154.1780 C   0  0  0  0  0  0  0  0  0  0  0  0
  160.4650  210.4160  156.5400 C   0  0  0  0  0  3  0  0  0  0  0  0
  159.9140  209.5370  155.6090 C   0  0  0  0  0  0  0  0  0  0  0  0
  159.4480  208.1750  155.9820 C   0  0  0  0  0  2  0  0  0  0  0  0
  160.5380  207.4320  156.5940 N   0  0  0  0  0  2  0  0  0  0  0  0
  161.4410  207.1180  155.5690 N   0  0  0  0  0  2  0  0  0  0  0  0
  163.2040  206.0470  151.9060 N   0  0  0  0  0  1  0  0  0  0  0  0
  161.3120  206.1150  153.3210 C   0  0  0  0  0  0  0  0  0  0  0  0
  160.7090  206.4740  154.5640 N   0  0  0  0  0  2  0  0  0  0  0  0
  162.5690  206.3670  153.1130 N   0  0  0  0  0  0  0  0  0  0  0  0
  160.4610  205.4830  152.2630 C   0  0  0  0  0  2  0  0  0  0  0  0
  160.5630  203.9940  150.2900 C   0  0  0  0  0  2  0  0  0  0  0  0
  161.1910  204.3160  151.6170 C   0  0  2  0  0  3  0  0  0  0  0  0
  160.5130  202.5020  150.3270 C   0  0  0  0  0  2  0  0  0  0  0  0
  161.0850  203.1710  152.4190 O   0  0  0  0  0  0  0  0  0  0  0  0
  161.1730  202.1120  151.5650 N   0  0  0  0  0  2  0  0  0  0  0  0
  157.0360  213.9170  152.7050 C   0  0  0  0  0  2  0  0  0  0  0  0
  158.3230  213.2900  151.5920 S   0  0  0  0  0  0  0  0  0  0  0  0
  159.5380  213.3440  152.9510 C   0  0  1  0  0  3  0  0  0  0  0  0
  157.7210  214.3310  153.9920 C   0  0  2  0  0  3  0  0  0  0  0  0
  158.8210  213.4070  154.2160 N   0  0  0  0  0  2  0  0  0  0  0  0
  157.7080  211.2240  157.0660 O   0  0  0  0  0  1  0  0  0  0  0  0
  155.3460  213.8300  154.7560 C   0  0  0  0  0  2  0  0  0  0  0  0
  155.8470  211.5280  155.6060 C   0  0  0  0  0  2  0  0  0  0  0  0
  157.2690  213.4540  156.3350 C   0  0  0  0  0  2  0  0  0  0  0  0
  156.7440  214.3100  155.1750 C   0  0  1  0  0  3  0  0  0  0  0  0
  157.2590  211.9670  155.9760 C   0  0  1  0  0  3  0  0  0  0  0  0
  155.3430  212.3380  154.4170 C   0  0  0  0  0  2  0  0  0  0  0  0
  160.2900  211.3220  151.7670 O   0  0  0  0  0  0  0  0  0  0  0  0
  161.0220  211.8700  150.8120 O   0  0  0  0  0  0  0  0  0  0  0  0
  161.9100  208.3320  148.7990 C   0  0  2  0  0  3  0  0  0  0  0  0
  161.8680  210.8460  150.3760 C   0  0  1  0  0  3  0  0  0  0  0  0
  161.3620  209.5100  150.9260 C   0  0  0  0  0  2  0  0  0  0  0  0
  162.4850  209.6030  148.1800 C   0  0  0  0  0  2  0  0  0  0  0  0
  161.9280  210.8130  148.8670 C   0  0  0  0  0  0  0  0  0  0  0  0
  161.6300  211.7980  148.2060 O   0  0  0  0  0  0  0  0  0  0  0  0
  162.1210  208.3350  150.3110 C   0  0  0  0  0  2  0  0  0  0  0  0
  162.5340  207.2160  148.2350 O   0  0  0  0  0  0  0  0  0  0  0  0
  161.5710  206.3290  148.0770 O   0  0  0  0  0  0  0  0  0  0  0  0
  162.1350  205.2590  146.8850 P   0  0  1  0  0  0  0  0  0  0  0  0
  161.2690  203.7340  146.9770 N   0  0  0  0  0  2  0  0  0  0  0  0
  160.4480  205.4250  144.7870 C   0  0  0  0  0  2  0  0  0  0  0  0
  161.8060  205.9450  145.2390 C   0  0  0  0  0  2  0  0  0  0  0  0
  161.3090  203.1370  145.6430 C   0  0  2  0  0  3  0  0  0  0  0  0
  160.4210  203.8950  144.6340 C   0  0  0  0  0  2  0  0  0  0  0  0
  163.6190  205.0300  147.0560 O   0  0  0  0  0  0  0  0  0  0  0  0
  160.7340  201.1950  147.1080 C   0  0  0  0  0  1  0  0  0  0  0  0
  160.9440  201.6540  145.6790 C   0  0  0  0  0  3  0  0  0  0  0  0
  159.7070  201.3470  144.8520 C   0  0  0  0  0  1  0  0  0  0  0  0
  1 32  1  6  0  0  0
  1  4  1  0  0  0  0
  2  5  1  0  0  0  0
  3  6  1  0  0  0  0
  4  3  2  0  0  0  0
  4  2  1  0  0  0  0
  6  7  1  0  0  0  0
  6  5  2  0  0  0  0
  7  8  1  0  0  0  0
  9  8  1  0  0  0  0
 10 13  1  0  0  0  0
 11 12  1  0  0  0  0
 12  9  1  0  0  0  0
 13 11  2  0  0  0  0
 14 11  1  0  0  0  0
 15 17  1  0  0  0  0
 15 16  1  0  0  0  0
 16 14  1  1  0  0  0
 16 18  1  0  0  0  0
 17 19  1  0  0  0  0
 19 18  1  0  0  0  0
 21 20  1  0  0  0  0
 21 22  1  0  0  0  0
 22  1  1  1  0  0  0
 22 24  1  0  0  0  0
 23 20  1  6  0  0  0
 23 24  1  0  0  0  0
 23 29  1  0  0  0  0
 27 30  1  0  0  0  0
 29 26  1  6  0  0  0
 29 28  1  0  0  0  0
 30 28  1  0  0  0  0
 30 25  1  1  0  0  0
 31 26  1  0  0  0  0
 31 27  1  0  0  0  0
 33 32  1  0  0  0  0
 34 41  1  6  0  0  0
 34 40  1  0  0  0  0
 35 33  1  6  0  0  0
 35 36  1  0  0  0  0
 37 34  1  0  0  0  0
 37 38  1  0  0  0  0
 38 35  1  0  0  0  0
 39 38  2  0  0  0  0
 40 36  1  0  0  0  0
 42 41  1  0  0  0  0
 43 44  1  0  0  0  0
 43 49  2  1  0  0  0
 43 42  1  0  0  0  0
 45 46  1  0  0  0  0
 46 43  1  0  0  0  0
 47 51  1  1  0  0  0
 47 44  1  0  0  0  0
 48 45  1  0  0  0  0
 48 47  1  0  0  0  0
 51 50  1  0  0  0  0
 52 51  1  0  0  0  0
M  END
>  <MODEL>
4

>  <REMARK>
 VINA RESULT:      -6.0      3.727      6.655
  Name = 
  16 active torsions:
  status: ('A' for Active; 'I' for Inactive)
    1  A    between atoms: O_1  and  O_26
    2  A    between atoms: O_1  and  C_41
    3  A    between atoms: C_3  and  N_8
    4  A    between atoms: C_3  and  C_49
    5  A    between atoms: C_4  and  O_37
    6  A    between atoms: C_6  and  C_22
    7  A    between atoms: C_6  and  C_28
    8  A    between atoms: N_8  and  N_14
    9  A    between atoms: P_13  and  O_21
   10  A    between atoms: N_14  and  N_36
   11  A    between atoms: C_16  and  O_26
   12  A    between atoms: C_18  and  C_41
   13  A    between atoms: O_21  and  O_37
   14  A    between atoms: C_24  and  C_41
   15  A    between atoms: C_25  and  C_40
   16  A    between atoms: C_29  and  C_45
                            x       y       z     vdW  Elec       q    Type
                         _______ _______ _______ _____ _____    ______ ____

>  <TORSDO>
F 16

$$$$
=
 OpenBabel11042422183D

 52 57  0  0  1  0  0  0  0  0999 V2000
  160.3620  212.3500  152.6960 C   0  0  2  0  0  3  0  0  0  0  0  0
  158.9260  212.8330  155.0700 S   0  0  0  0  0  0  0  0  0  0  0  0
  160.6600  211.0450  154.9000 C   0  0  0  0  0  3  0  0  0  0  0  0
  160.0650  212.0350  154.1330 C   0  0  0  0  0  0  0  0  0  0  0  0
  159.1520  211.9440  156.4810 C   0  0  0  0  0  3  0  0  0  0  0  0
  160.1410  211.0020  156.2000 C   0  0  0  0  0  0  0  0  0  0  0  0
  160.6370  210.0420  157.2210 C   0  0  0  0  0  2  0  0  0  0  0  0
  162.0430  209.7540  156.9830 N   0  0  0  0  0  2  0  0  0  0  0  0
  162.1690  208.3600  156.9320 N   0  0  0  0  0  2  0  0  0  0  0  0
  158.5310  206.6180  155.7430 N   0  0  0  0  0  1  0  0  0  0  0  0
  160.7030  207.3830  155.2070 C   0  0  0  0  0  0  0  0  0  0  0  0
  161.9390  207.9770  155.6050 N   0  0  0  0  0  2  0  0  0  0  0  0
  159.7560  207.2090  156.0800 N   0  0  0  0  0  0  0  0  0  0  0  0
  160.5400  206.9400  153.7860 C   0  0  0  0  0  2  0  0  0  0  0  0
  162.0400  205.7780  152.1990 C   0  0  0  0  0  2  0  0  0  0  0  0
  161.3420  205.6740  153.5260 C   0  0  2  0  0  3  0  0  0  0  0  0
  161.8080  204.4200  151.6220 C   0  0  0  0  0  2  0  0  0  0  0  0
  160.4900  204.5620  153.4650 O   0  0  0  0  0  0  0  0  0  0  0  0
  161.1160  203.6620  152.6540 N   0  0  0  0  0  2  0  0  0  0  0  0
  157.2450  214.0690  151.1720 C   0  0  0  0  0  2  0  0  0  0  0  0
  157.7250  213.2160  152.6980 S   0  0  0  0  0  0  0  0  0  0  0  0
  159.1010  212.4020  151.8210 C   0  0  1  0  0  3  0  0  0  0  0  0
  158.0660  213.4700  150.0470 C   0  0  2  0  0  3  0  0  0  0  0  0
  159.3710  213.1340  150.5920 N   0  0  0  0  0  2  0  0  0  0  0  0
  156.5770  212.6420  146.0230 O   0  0  0  0  0  1  0  0  0  0  0  0
  159.6230  214.4530  148.2910 C   0  0  0  0  0  2  0  0  0  0  0  0
  158.9070  212.9160  146.4470 C   0  0  0  0  0  2  0  0  0  0  0  0
  157.1800  214.1580  147.7660 C   0  0  0  0  0  2  0  0  0  0  0  0
  158.2020  214.4490  148.8740 C   0  0  1  0  0  3  0  0  0  0  0  0
  157.5060  212.8510  147.0420 C   0  0  1  0  0  3  0  0  0  0  0  0
  159.9320  213.1490  147.5530 C   0  0  0  0  0  2  0  0  0  0  0  0
  161.3680  211.5120  152.1710 O   0  0  0  0  0  0  0  0  0  0  0  0
  161.1740  211.4400  150.8650 O   0  0  0  0  0  0  0  0  0  0  0  0
  161.8810  207.9560  148.6920 C   0  0  2  0  0  3  0  0  0  0  0  0
  161.9410  210.3490  150.4480 C   0  0  1  0  0  3  0  0  0  0  0  0
  161.2210  209.0540  150.8310 C   0  0  0  0  0  2  0  0  0  0  0  0
  162.6700  209.1830  148.2440 C   0  0  0  0  0  2  0  0  0  0  0  0
  162.1780  210.4060  148.9570 C   0  0  0  0  0  0  0  0  0  0  0  0
  162.0790  211.4610  148.3460 O   0  0  0  0  0  0  0  0  0  0  0  0
  161.9070  207.8360  150.2140 C   0  0  0  0  0  2  0  0  0  0  0  0
  162.4340  206.8100  148.1160 O   0  0  0  0  0  0  0  0  0  0  0  0
  161.5340  206.3960  147.2460 O   0  0  0  0  0  0  0  0  0  0  0  0
  162.0880  204.8830  146.7100 P   0  0  1  0  0  0  0  0  0  0  0  0
  161.1510  203.5950  147.4480 N   0  0  0  0  0  2  0  0  0  0  0  0
  160.4820  204.1040  144.6880 C   0  0  0  0  0  2  0  0  0  0  0  0
  161.8460  204.7400  144.9180 C   0  0  0  0  0  2  0  0  0  0  0  0
  161.2080  202.4480  146.5420 C   0  0  2  0  0  3  0  0  0  0  0  0
  160.3910  202.6770  145.2540 C   0  0  0  0  0  2  0  0  0  0  0  0
  163.5530  204.7210  147.0430 O   0  0  0  0  0  0  0  0  0  0  0  0
  161.5550  199.9780  146.6970 C   0  0  0  0  0  1  0  0  0  0  0  0
  160.7750  201.1590  147.2380 C   0  0  0  0  0  3  0  0  0  0  0  0
  160.9390  201.2380  148.7470 C   0  0  0  0  0  1  0  0  0  0  0  0
  1 32  1  6  0  0  0
  1  4  1  0  0  0  0
  2  5  1  0  0  0  0
  3  6  1  0  0  0  0
  4  3  2  0  0  0  0
  4  2  1  0  0  0  0
  6  5  2  0  0  0  0
  6  7  1  0  0  0  0
  8  7  1  0  0  0  0
  9  8  1  0  0  0  0
 10 13  1  0  0  0  0
 11 12  1  0  0  0  0
 11 13  2  0  0  0  0
 12  9  1  0  0  0  0
 14 11  1  0  0  0  0
 15 16  1  0  0  0  0
 16 14  1  6  0  0  0
 17 15  1  0  0  0  0
 17 19  1  0  0  0  0
 18 16  1  0  0  0  0
 19 18  1  0  0  0  0
 20 21  1  0  0  0  0
 22  1  1  1  0  0  0
 22 21  1  0  0  0  0
 23 24  1  0  0  0  0
 23 20  1  1  0  0  0
 24 22  1  0  0  0  0
 26 29  1  0  0  0  0
 27 30  1  0  0  0  0
 27 31  1  0  0  0  0
 29 28  1  6  0  0  0
 29 23  1  0  0  0  0
 30 25  1  6  0  0  0
 30 28  1  0  0  0  0
 31 26  1  0  0  0  0
 33 32  1  0  0  0  0
 34 41  1  6  0  0  0
 34 40  1  0  0  0  0
 35 36  1  0  0  0  0
 35 33  1  6  0  0  0
 37 34  1  0  0  0  0
 37 38  1  0  0  0  0
 38 35  1  0  0  0  0
 39 38  2  0  0  0  0
 40 36  1  0  0  0  0
 42 41  1  0  0  0  0
 43 49  2  1  0  0  0
 43 42  1  0  0  0  0
 43 44  1  0  0  0  0
 45 46  1  0  0  0  0
 45 48  1  0  0  0  0
 46 43  1  0  0  0  0
 47 51  1  1  0  0  0
 47 44  1  0  0  0  0
 48 47  1  0  0  0  0
 50 51  1  0  0  0  0
 51 52  1  0  0  0  0
M  END
>  <MODEL>
5

>  <REMARK>
 VINA RESULT:      -5.9      2.541      7.465
  Name = 
  16 active torsions:
  status: ('A' for Active; 'I' for Inactive)
    1  A    between atoms: O_1  and  O_26
    2  A    between atoms: O_1  and  C_41
    3  A    between atoms: C_3  and  N_8
    4  A    between atoms: C_3  and  C_49
    5  A    between atoms: C_4  and  O_37
    6  A    between atoms: C_6  and  C_22
    7  A    between atoms: C_6  and  C_28
    8  A    between atoms: N_8  and  N_14
    9  A    between atoms: P_13  and  O_21
   10  A    between atoms: N_14  and  N_36
   11  A    between atoms: C_16  and  O_26
   12  A    between atoms: C_18  and  C_41
   13  A    between atoms: O_21  and  O_37
   14  A    between atoms: C_24  and  C_41
   15  A    between atoms: C_25  and  C_40
   16  A    between atoms: C_29  and  C_45
                            x       y       z     vdW  Elec       q    Type
                         _______ _______ _______ _____ _____    ______ ____

>  <TORSDO>
F 16

$$$$
=
 OpenBabel11042422183D

 52 57  0  0  1  0  0  0  0  0999 V2000
  161.5670  208.5740  151.8730 C   0  0  2  0  0  3  0  0  0  0  0  0
  161.2170  206.0280  153.0250 S   0  0  0  0  0  0  0  0  0  0  0  0
  161.2960  206.3750  150.5540 C   0  0  0  0  0  3  0  0  0  0  0  0
  161.3790  207.0910  151.7380 C   0  0  0  0  0  0  0  0  0  0  0  0
  161.0350  204.6220  152.1180 C   0  0  0  0  0  3  0  0  0  0  0  0
  161.1010  205.0060  150.7790 C   0  0  0  0  0  0  0  0  0  0  0  0
  161.0070  204.0250  149.6660 C   0  0  0  0  0  2  0  0  0  0  0  0
  160.7710  202.6940  150.2020 N   0  0  0  0  0  2  0  0  0  0  0  0
  161.1940  201.7820  149.2270 N   0  0  0  0  0  2  0  0  0  0  0  0
  160.8580  199.6540  145.6160 N   0  0  0  0  0  1  0  0  0  0  0  0
  161.0070  201.7120  146.7690 C   0  0  0  0  0  0  0  0  0  0  0  0
  161.1170  202.4400  147.9930 N   0  0  0  0  0  2  0  0  0  0  0  0
  160.9530  200.4140  146.7890 N   0  0  0  0  0  0  0  0  0  0  0  0
  160.9900  202.4710  145.4780 C   0  0  0  0  0  2  0  0  0  0  0  0
  160.5270  204.7000  144.5110 C   0  0  0  0  0  2  0  0  0  0  0  0
  160.9940  203.9690  145.7390 C   0  0  2  0  0  3  0  0  0  0  0  0
  161.4970  205.8320  144.4390 C   0  0  0  0  0  2  0  0  0  0  0  0
  162.2950  204.4110  146.0190 O   0  0  0  0  0  0  0  0  0  0  0  0
  162.3340  205.7160  145.6240 N   0  0  0  0  0  2  0  0  0  0  0  0
  161.5810  210.0810  148.3060 C   0  0  0  0  0  2  0  0  0  0  0  0
  161.6200  208.4520  149.1000 S   0  0  0  0  0  0  0  0  0  0  0  0
  162.2320  209.2080  150.6420 C   0  0  1  0  0  3  0  0  0  0  0  0
  162.2660  211.0530  149.2450 C   0  0  2  0  0  3  0  0  0  0  0  0
  161.9580  210.6370  150.6030 N   0  0  0  0  0  2  0  0  0  0  0  0
  159.5280  212.1840  146.0330 O   0  0  0  0  0  1  0  0  0  0  0  0
  162.8770  213.3370  148.3040 C   0  0  0  0  0  2  0  0  0  0  0  0
  161.7740  212.9850  146.0830 C   0  0  0  0  0  2  0  0  0  0  0  0
  160.4940  212.5370  148.1880 C   0  0  0  0  0  2  0  0  0  0  0  0
  161.7970  212.4930  148.9970 C   0  0  1  0  0  3  0  0  0  0  0  0
  160.7260  212.0960  146.7410 C   0  0  1  0  0  3  0  0  0  0  0  0
  163.0870  212.9000  146.8530 C   0  0  0  0  0  2  0  0  0  0  0  0
  162.2010  208.9160  153.0850 O   0  0  0  0  0  0  0  0  0  0  0  0
  161.6110  208.2230  154.0440 O   0  0  0  0  0  0  0  0  0  0  0  0
  159.7900  211.2200  156.2950 C   0  0  2  0  0  3  0  0  0  0  0  0
  161.5160  209.1090  155.1210 C   0  0  1  0  0  3  0  0  0  0  0  0
  161.4770  210.5430  154.5880 C   0  0  0  0  0  2  0  0  0  0  0  0
  159.7970  209.8320  156.9290 C   0  0  0  0  0  2  0  0  0  0  0  0
  160.2850  208.8130  155.9450 C   0  0  0  0  0  0  0  0  0  0  0  0
  159.7490  207.7150  155.8980 O   0  0  0  0  0  0  0  0  0  0  0  0
  161.1610  211.5390  155.7030 C   0  0  0  0  0  2  0  0  0  0  0  0
  159.4560  212.1720  157.2600 O   0  0  0  0  0  0  0  0  0  0  0  0
  159.3210  213.3020  156.5940 O   0  0  0  0  0  0  0  0  0  0  0  0
  157.7750  213.2300  155.8940 P   0  0  1  0  0  0  0  0  0  0  0  0
  157.7520  214.1160  154.3780 N   0  0  0  0  0  2  0  0  0  0  0  0
  157.8080  211.2470  154.0660 C   0  0  0  0  0  2  0  0  0  0  0  0
  157.3600  211.5100  155.4970 C   0  0  0  0  0  2  0  0  0  0  0  0
  156.6950  213.5300  153.5540 C   0  0  2  0  0  3  0  0  0  0  0  0
  157.0620  212.1220  153.0430 C   0  0  0  0  0  2  0  0  0  0  0  0
  156.7490  213.7970  156.8470 O   0  0  0  0  0  0  0  0  0  0  0  0
  157.0470  214.0380  151.1320 C   0  0  0  0  0  1  0  0  0  0  0  0
  156.3120  214.4460  152.3930 C   0  0  0  0  0  3  0  0  0  0  0  0
  154.8140  214.4530  152.1380 C   0  0  0  0  0  1  0  0  0  0  0  0
  1 32  1  1  0  0  0
  3  6  1  0  0  0  0
  3  4  2  0  0  0  0
  4  1  1  0  0  0  0
  4  2  1  0  0  0  0
  5  2  1  0  0  0  0
  6  5  2  0  0  0  0
  7  8  1  0  0  0  0
  7  6  1  0  0  0  0
  9  8  1  0  0  0  0
 10 13  1  0  0  0  0
 11 13  2  0  0  0  0
 11 12  1  0  0  0  0
 12  9  1  0  0  0  0
 14 11  1  0  0  0  0
 15 16  1  0  0  0  0
 16 14  1  6  0  0  0
 16 18  1  0  0  0  0
 17 15  1  0  0  0  0
 17 19  1  0  0  0  0
 19 18  1  0  0  0  0
 20 21  1  0  0  0  0
 21 22  1  0  0  0  0
 22  1  1  1  0  0  0
 23 20  1  6  0  0  0
 23 24  1  0  0  0  0
 24 22  1  0  0  0  0
 26 29  1  0  0  0  0
 27 30  1  0  0  0  0
 27 31  1  0  0  0  0
 29 28  1  6  0  0  0
 29 23  1  0  0  0  0
 30 25  1  6  0  0  0
 30 28  1  0  0  0  0
 31 26  1  0  0  0  0
 32 33  1  0  0  0  0
 34 37  1  0  0  0  0
 34 41  1  1  0  0  0
 35 33  1  6  0  0  0
 35 38  1  0  0  0  0
 36 35  1  0  0  0  0
 36 40  1  0  0  0  0
 38 37  1  0  0  0  0
 39 38  2  0  0  0  0
 40 34  1  0  0  0  0
 42 41  1  0  0  0  0
 43 42  1  0  0  0  0
 43 49  2  1  0  0  0
 44 43  1  0  0  0  0
 45 46  1  0  0  0  0
 46 43  1  0  0  0  0
 47 51  1  6  0  0  0
 47 44  1  0  0  0  0
 48 47  1  0  0  0  0
 48 45  1  0  0  0  0
 50 51  1  0  0  0  0
 52 51  1  0  0  0  0
M  END
>  <MODEL>
6

>  <REMARK>
 VINA RESULT:      -5.5      3.711     10.012
  Name = 
  16 active torsions:
  status: ('A' for Active; 'I' for Inactive)
    1  A    between atoms: O_1  and  O_26
    2  A    between atoms: O_1  and  C_41
    3  A    between atoms: C_3  and  N_8
    4  A    between atoms: C_3  and  C_49
    5  A    between atoms: C_4  and  O_37
    6  A    between atoms: C_6  and  C_22
    7  A    between atoms: C_6  and  C_28
    8  A    between atoms: N_8  and  N_14
    9  A    between atoms: P_13  and  O_21
   10  A    between atoms: N_14  and  N_36
   11  A    between atoms: C_16  and  O_26
   12  A    between atoms: C_18  and  C_41
   13  A    between atoms: O_21  and  O_37
   14  A    between atoms: C_24  and  C_41
   15  A    between atoms: C_25  and  C_40
   16  A    between atoms: C_29  and  C_45
                            x       y       z     vdW  Elec       q    Type
                         _______ _______ _______ _____ _____    ______ ____

>  <TORSDO>
F 16

$$$$
=
 OpenBabel11042422183D

 52 57  0  0  1  0  0  0  0  0999 V2000
  162.3790  206.3810  151.9230 C   0  0  2  0  0  3  0  0  0  0  0  0
  161.4500  207.0760  149.3570 S   0  0  0  0  0  0  0  0  0  0  0  0
  162.4840  208.7450  150.8990 C   0  0  0  0  0  3  0  0  0  0  0  0
  162.1590  207.3980  150.8420 C   0  0  0  0  0  0  0  0  0  0  0  0
  161.5330  208.6390  148.7380 C   0  0  0  0  0  3  0  0  0  0  0  0
  162.1280  209.4230  149.7260 C   0  0  0  0  0  0  0  0  0  0  0  0
  162.3980  210.8720  149.5350 C   0  0  0  0  0  2  0  0  0  0  0  0
  161.6350  211.3700  148.4010 N   0  0  0  0  0  2  0  0  0  0  0  0
  162.0730  212.6780  148.1590 N   0  0  0  0  0  2  0  0  0  0  0  0
  158.0800  213.2580  146.9770 N   0  0  0  0  0  1  0  0  0  0  0  0
  160.3790  213.1740  146.4370 C   0  0  0  0  0  0  0  0  0  0  0  0
  161.7370  212.9810  146.8330 N   0  0  0  0  0  2  0  0  0  0  0  0
  159.4280  213.0900  147.3180 N   0  0  0  0  0  0  0  0  0  0  0  0
  160.0800  213.4350  144.9930 C   0  0  0  0  0  2  0  0  0  0  0  0
  161.8770  212.8700  143.3900 C   0  0  0  0  0  2  0  0  0  0  0  0
  160.6730  212.3420  144.1180 C   0  0  2  0  0  3  0  0  0  0  0  0
  161.6730  212.3200  142.0170 C   0  0  0  0  0  2  0  0  0  0  0  0
  159.7440  211.9350  143.1500 O   0  0  0  0  0  0  0  0  0  0  0  0
  160.4820  211.4860  142.0950 N   0  0  0  0  0  2  0  0  0  0  0  0
  160.6660  202.9710  151.2670 C   0  0  0  0  0  2  0  0  0  0  0  0
  161.5240  203.8310  152.6120 S   0  0  0  0  0  0  0  0  0  0  0  0
  162.3290  204.9360  151.4050 C   0  0  1  0  0  3  0  0  0  0  0  0
  161.2560  203.4750  149.9650 C   0  0  2  0  0  3  0  0  0  0  0  0
  161.5890  204.8770  150.1520 N   0  0  0  0  0  2  0  0  0  0  0  0
  161.2050  199.9790  147.3440 O   0  0  0  0  0  1  0  0  0  0  0  0
  160.6680  204.1450  147.5820 C   0  0  0  0  0  2  0  0  0  0  0  0
  161.7260  202.1480  146.5020 C   0  0  0  0  0  2  0  0  0  0  0  0
  160.1210  201.8280  148.3960 C   0  0  0  0  0  2  0  0  0  0  0  0
  160.2710  203.3010  148.8020 C   0  0  1  0  0  3  0  0  0  0  0  0
  161.3940  201.3060  147.7280 C   0  0  1  0  0  3  0  0  0  0  0  0
  161.9310  203.6030  146.9100 C   0  0  0  0  0  2  0  0  0  0  0  0
  161.5370  206.6020  153.0330 O   0  0  0  0  0  0  0  0  0  0  0  0
  160.8360  207.6940  152.7790 O   0  0  0  0  0  0  0  0  0  0  0  0
  159.7170  210.1660  155.9410 C   0  0  2  0  0  3  0  0  0  0  0  0
  161.0800  208.5380  153.8660 C   0  0  1  0  0  3  0  0  0  0  0  0
  160.4720  209.9140  153.5780 C   0  0  0  0  0  2  0  0  0  0  0  0
  160.3370  208.8290  156.3380 C   0  0  0  0  0  2  0  0  0  0  0  0
  160.5010  207.9540  155.1330 C   0  0  0  0  0  0  0  0  0  0  0  0
  160.2670  206.7570  155.2210 O   0  0  0  0  0  0  0  0  0  0  0  0
  160.5220  210.8100  154.8150 C   0  0  0  0  0  2  0  0  0  0  0  0
  159.6900  211.0150  157.0500 O   0  0  0  0  0  0  0  0  0  0  0  0
  160.0560  212.1940  156.5870 O   0  0  0  0  0  0  0  0  0  0  0  0
  158.6210  213.0940  156.4620 P   0  0  1  0  0  0  0  0  0  0  0  0
  158.2750  213.4580  154.7800 N   0  0  0  0  0  2  0  0  0  0  0  0
  156.6300  211.3660  155.8940 C   0  0  0  0  0  2  0  0  0  0  0  0
  157.2260  212.1140  157.0790 C   0  0  0  0  0  2  0  0  0  0  0  0
  156.8290  213.6380  154.6680 C   0  0  2  0  0  3  0  0  0  0  0  0
  156.0580  212.3110  154.8240 C   0  0  0  0  0  2  0  0  0  0  0  0
  158.7410  214.3720  157.2610 O   0  0  0  0  0  0  0  0  0  0  0  0
  157.4930  214.0750  152.2980 C   0  0  0  0  0  1  0  0  0  0  0  0
  156.4470  214.3370  153.3640 C   0  0  0  0  0  3  0  0  0  0  0  0
  155.0800  213.9060  152.8610 C   0  0  0  0  0  1  0  0  0  0  0  0
  1 32  1  1  0  0  0
  2  4  1  0  0  0  0
  4  3  2  0  0  0  0
  4  1  1  0  0  0  0
  5  2  1  0  0  0  0
  5  6  2  0  0  0  0
  6  3  1  0  0  0  0
  7  6  1  0  0  0  0
  8  7  1  0  0  0  0
  9  8  1  0  0  0  0
 10 13  1  0  0  0  0
 11 12  1  0  0  0  0
 11 13  2  0  0  0  0
 12  9  1  0  0  0  0
 14 11  1  0  0  0  0
 15 16  1  0  0  0  0
 16 14  1  1  0  0  0
 17 19  1  0  0  0  0
 17 15  1  0  0  0  0
 18 16  1  0  0  0  0
 19 18  1  0  0  0  0
 20 21  1  0  0  0  0
 22  1  1  1  0  0  0
 22 21  1  0  0  0  0
 23 24  1  0  0  0  0
 23 20  1  1  0  0  0
 24 22  1  0  0  0  0
 27 31  1  0  0  0  0
 27 30  1  0  0  0  0
 28 29  1  0  0  0  0
 29 26  1  6  0  0  0
 29 23  1  0  0  0  0
 30 25  1  6  0  0  0
 30 28  1  0  0  0  0
 31 26  1  0  0  0  0
 33 32  1  0  0  0  0
 34 37  1  0  0  0  0
 34 41  1  1  0  0  0
 35 33  1  6  0  0  0
 35 38  1  0  0  0  0
 36 35  1  0  0  0  0
 36 40  1  0  0  0  0
 38 39  2  0  0  0  0
 38 37  1  0  0  0  0
 40 34  1  0  0  0  0
 42 41  1  0  0  0  0
 43 42  1  0  0  0  0
 43 46  1  0  0  0  0
 43 49  2  1  0  0  0
 44 43  1  0  0  0  0
 45 46  1  0  0  0  0
 47 51  1  6  0  0  0
 47 44  1  0  0  0  0
 47 48  1  0  0  0  0
 48 45  1  0  0  0  0
 50 51  1  0  0  0  0
 52 51  1  0  0  0  0
M  END
>  <MODEL>
7

>  <REMARK>
 VINA RESULT:      -5.4      3.615      8.671
  Name = 
  16 active torsions:
  status: ('A' for Active; 'I' for Inactive)
    1  A    between atoms: O_1  and  O_26
    2  A    between atoms: O_1  and  C_41
    3  A    between atoms: C_3  and  N_8
    4  A    between atoms: C_3  and  C_49
    5  A    between atoms: C_4  and  O_37
    6  A    between atoms: C_6  and  C_22
    7  A    between atoms: C_6  and  C_28
    8  A    between atoms: N_8  and  N_14
    9  A    between atoms: P_13  and  O_21
   10  A    between atoms: N_14  and  N_36
   11  A    between atoms: C_16  and  O_26
   12  A    between atoms: C_18  and  C_41
   13  A    between atoms: O_21  and  O_37
   14  A    between atoms: C_24  and  C_41
   15  A    between atoms: C_25  and  C_40
   16  A    between atoms: C_29  and  C_45
                            x       y       z     vdW  Elec       q    Type
                         _______ _______ _______ _____ _____    ______ ____

>  <TORSDO>
F 16

$$$$
=
 OpenBabel11042422183D

 52 57  0  0  1  0  0  0  0  0999 V2000
  159.1220  212.2850  152.1130 C   0  0  2  0  0  3  0  0  0  0  0  0
  161.2550  212.7240  150.3280 S   0  0  0  0  0  0  0  0  0  0  0  0
  158.8880  213.2430  149.7300 C   0  0  0  0  0  3  0  0  0  0  0  0
  159.6420  212.7470  150.7830 C   0  0  0  0  0  0  0  0  0  0  0  0
  161.0480  213.3430  148.7760 C   0  0  0  0  0  3  0  0  0  0  0  0
  159.6800  213.5660  148.6210 C   0  0  0  0  0  0  0  0  0  0  0  0
  159.1060  214.1420  147.3760 C   0  0  0  0  0  2  0  0  0  0  0  0
  159.1430  213.1500  146.3130 N   0  0  0  0  0  2  0  0  0  0  0  0
  159.3590  213.8460  145.1170 N   0  0  0  0  0  2  0  0  0  0  0  0
  162.9670  212.7270  143.2700 N   0  0  0  0  0  1  0  0  0  0  0  0
  160.6210  212.5190  143.4650 C   0  0  0  0  0  0  0  0  0  0  0  0
  159.3930  212.8920  144.0910 N   0  0  0  0  0  2  0  0  0  0  0  0
  161.7380  213.0500  143.8600 N   0  0  0  0  0  0  0  0  0  0  0  0
  160.5840  211.5390  142.3330 C   0  0  0  0  0  2  0  0  0  0  0  0
  159.0970  212.1010  140.4380 C   0  0  0  0  0  2  0  0  0  0  0  0
  160.4810  212.2650  141.0010 C   0  0  2  0  0  3  0  0  0  0  0  0
  159.3810  211.8190  139.0000 C   0  0  0  0  0  2  0  0  0  0  0  0
  161.3770  211.7130  140.0750 O   0  0  0  0  0  0  0  0  0  0  0  0
  160.8240  211.9350  138.8490 N   0  0  0  0  0  2  0  0  0  0  0  0
  158.0530  214.2930  155.2460 C   0  0  0  0  0  2  0  0  0  0  0  0
  157.8470  214.3590  153.4460 S   0  0  0  0  0  0  0  0  0  0  0  0
  159.3290  213.3190  153.2290 C   0  0  1  0  0  3  0  0  0  0  0  0
  159.3980  213.6480  155.5190 C   0  0  2  0  0  3  0  0  0  0  0  0
  159.6180  212.6480  154.4880 N   0  0  0  0  0  2  0  0  0  0  0  0
  162.3900  210.7110  156.7500 O   0  0  0  0  0  1  0  0  0  0  0  0
  158.3710  211.9150  157.0750 C   0  0  0  0  0  2  0  0  0  0  0  0
  160.0790  210.1400  156.6170 C   0  0  0  0  0  2  0  0  0  0  0  0
  160.8250  212.4460  157.2450 C   0  0  0  0  0  2  0  0  0  0  0  0
  159.4370  213.0100  156.9130 C   0  0  1  0  0  3  0  0  0  0  0  0
  161.1390  211.2120  156.3950 C   0  0  1  0  0  3  0  0  0  0  0  0
  158.7040  210.6790  156.2360 C   0  0  0  0  0  2  0  0  0  0  0  0
  159.6020  211.0010  152.4480 O   0  0  0  0  0  0  0  0  0  0  0  0
  160.7770  210.8590  151.8600 O   0  0  0  0  0  0  0  0  0  0  0  0
  162.5050  207.1380  151.1310 C   0  0  2  0  0  3  0  0  0  0  0  0
  160.7840  209.5440  151.3860 C   0  0  1  0  0  3  0  0  0  0  0  0
  161.8660  209.4050  150.3110 C   0  0  0  0  0  2  0  0  0  0  0  0
  161.4190  207.1610  152.2030 C   0  0  0  0  0  2  0  0  0  0  0  0
  161.0290  208.5740  152.5180 C   0  0  0  0  0  0  0  0  0  0  0  0
  160.8090  208.8940  153.6770 O   0  0  0  0  0  0  0  0  0  0  0  0
  162.0630  207.9430  149.9110 C   0  0  0  0  0  2  0  0  0  0  0  0
  162.7650  205.8170  150.7590 O   0  0  0  0  0  0  0  0  0  0  0  0
  161.7370  205.1260  151.2120 O   0  0  0  0  0  0  0  0  0  0  0  0
  160.8300  204.7130  149.8360 P   0  0  1  0  0  0  0  0  0  0  0  0
  161.8710  204.6270  148.4240 N   0  0  0  0  0  2  0  0  0  0  0  0
  161.0850  202.0540  149.4680 C   0  0  0  0  0  2  0  0  0  0  0  0
  160.1060  203.0650  150.0500 C   0  0  0  0  0  2  0  0  0  0  0  0
  161.2370  203.7070  147.4800 C   0  0  2  0  0  3  0  0  0  0  0  0
  161.3010  202.2420  147.9570 C   0  0  0  0  0  2  0  0  0  0  0  0
  159.7330  205.7300  149.6170 O   0  0  0  0  0  0  0  0  0  0  0  0
  160.7980  204.4310  145.1280 C   0  0  0  0  0  1  0  0  0  0  0  0
  161.8260  203.8470  146.0770 C   0  0  0  0  0  3  0  0  0  0  0  0
  163.0820  204.7020  146.0650 C   0  0  0  0  0  1  0  0  0  0  0  0
  1 32  1  1  0  0  0
  2  4  1  0  0  0  0
  3  4  2  0  0  0  0
  4  1  1  0  0  0  0
  5  2  1  0  0  0  0
  6  5  2  0  0  0  0
  6  3  1  0  0  0  0
  7  6  1  0  0  0  0
  8  7  1  0  0  0  0
  9  8  1  0  0  0  0
 10 13  1  0  0  0  0
 11 13  2  0  0  0  0
 11 12  1  0  0  0  0
 12  9  1  0  0  0  0
 14 11  1  0  0  0  0
 15 16  1  0  0  0  0
 16 14  1  1  0  0  0
 17 15  1  0  0  0  0
 18 16  1  0  0  0  0
 19 17  1  0  0  0  0
 19 18  1  0  0  0  0
 21 20  1  0  0  0  0
 22  1  1  6  0  0  0
 22 21  1  0  0  0  0
 22 24  1  0  0  0  0
 23 20  1  6  0  0  0
 23 29  1  0  0  0  0
 24 23  1  0  0  0  0
 29 26  1  6  0  0  0
 29 28  1  0  0  0  0
 30 27  1  0  0  0  0
 30 25  1  1  0  0  0
 30 28  1  0  0  0  0
 31 27  1  0  0  0  0
 31 26  1  0  0  0  0
 33 32  1  0  0  0  0
 34 41  1  6  0  0  0
 34 37  1  0  0  0  0
 35 33  1  1  0  0  0
 35 38  1  0  0  0  0
 36 35  1  0  0  0  0
 37 38  1  0  0  0  0
 38 39  2  0  0  0  0
 40 36  1  0  0  0  0
 40 34  1  0  0  0  0
 41 42  1  0  0  0  0
 43 49  2  6  0  0  0
 43 46  1  0  0  0  0
 43 42  1  0  0  0  0
 44 43  1  0  0  0  0
 45 46  1  0  0  0  0
 47 51  1  6  0  0  0
 47 48  1  0  0  0  0
 47 44  1  0  0  0  0
 48 45  1  0  0  0  0
 50 51  1  0  0  0  0
 52 51  1  0  0  0  0
M  END
>  <MODEL>
8

>  <REMARK>
 VINA RESULT:      -5.1      2.155      3.466
  Name = 
  16 active torsions:
  status: ('A' for Active; 'I' for Inactive)
    1  A    between atoms: O_1  and  O_26
    2  A    between atoms: O_1  and  C_41
    3  A    between atoms: C_3  and  N_8
    4  A    between atoms: C_3  and  C_49
    5  A    between atoms: C_4  and  O_37
    6  A    between atoms: C_6  and  C_22
    7  A    between atoms: C_6  and  C_28
    8  A    between atoms: N_8  and  N_14
    9  A    between atoms: P_13  and  O_21
   10  A    between atoms: N_14  and  N_36
   11  A    between atoms: C_16  and  O_26
   12  A    between atoms: C_18  and  C_41
   13  A    between atoms: O_21  and  O_37
   14  A    between atoms: C_24  and  C_41
   15  A    between atoms: C_25  and  C_40
   16  A    between atoms: C_29  and  C_45
                            x       y       z     vdW  Elec       q    Type
                         _______ _______ _______ _____ _____    ______ ____

>  <TORSDO>
F 16

$$$$
=
 OpenBabel11042422183D

 52 57  0  0  1  0  0  0  0  0999 V2000
  159.4980  211.7060  152.1140 C   0  0  2  0  0  3  0  0  0  0  0  0
  161.8920  211.3720  150.6690 S   0  0  0  0  0  0  0  0  0  0  0  0
  159.9900  212.7380  149.8030 C   0  0  0  0  0  3  0  0  0  0  0  0
  160.3450  211.9760  150.9050 C   0  0  0  0  0  0  0  0  0  0  0  0
  162.1590  212.0600  149.1560 C   0  0  0  0  0  3  0  0  0  0  0  0
  161.0040  212.7730  148.8370 C   0  0  0  0  0  0  0  0  0  0  0  0
  160.8720  213.5480  147.5760 C   0  0  0  0  0  2  0  0  0  0  0  0
  160.1670  212.7540  146.5830 N   0  0  0  0  0  2  0  0  0  0  0  0
  160.0650  213.5420  145.4290 N   0  0  0  0  0  2  0  0  0  0  0  0
  163.6810  214.3930  143.4610 N   0  0  0  0  0  1  0  0  0  0  0  0
  161.7460  213.0560  143.6920 C   0  0  0  0  0  0  0  0  0  0  0  0
  160.5190  212.7600  144.3590 N   0  0  0  0  0  2  0  0  0  0  0  0
  162.4760  214.0540  144.0900 N   0  0  0  0  0  0  0  0  0  0  0  0
  162.1470  212.2200  142.5160 C   0  0  0  0  0  2  0  0  0  0  0  0
  161.1010  210.9330  140.6810 C   0  0  0  0  0  2  0  0  0  0  0  0
  161.0480  212.2140  141.4650 C   0  0  2  0  0  3  0  0  0  0  0  0
  160.9050  211.4190  139.2830 C   0  0  0  0  0  2  0  0  0  0  0  0
  161.2350  213.2670  140.5590 O   0  0  0  0  0  0  0  0  0  0  0  0
  160.6710  212.8520  139.3890 N   0  0  0  0  0  2  0  0  0  0  0  0
  158.7950  214.3740  154.8320 C   0  0  0  0  0  2  0  0  0  0  0  0
  159.2780  214.2970  153.0860 S   0  0  0  0  0  0  0  0  0  0  0  0
  159.8710  212.5880  153.3150 C   0  0  1  0  0  3  0  0  0  0  0  0
  159.3460  213.1310  155.5030 C   0  0  2  0  0  3  0  0  0  0  0  0
  159.2850  212.0500  154.5350 N   0  0  0  0  0  2  0  0  0  0  0  0
  155.8070  210.5680  155.4840 O   0  0  0  0  0  1  0  0  0  0  0  0
  157.6430  213.9360  157.2140 C   0  0  0  0  0  2  0  0  0  0  0  0
  155.6670  212.8650  156.1080 C   0  0  0  0  0  2  0  0  0  0  0  0
  157.7140  211.5030  156.5750 C   0  0  0  0  0  2  0  0  0  0  0  0
  158.5470  212.7780  156.7640 C   0  0  1  0  0  3  0  0  0  0  0  0
  156.5570  211.7370  155.6010 C   0  0  1  0  0  3  0  0  0  0  0  0
  156.4790  214.1490  156.2440 C   0  0  0  0  0  2  0  0  0  0  0  0
  159.4510  210.3320  152.4280 O   0  0  0  0  0  0  0  0  0  0  0  0
  160.7000  209.9190  152.5610 O   0  0  0  0  0  0  0  0  0  0  0  0
  162.3980  206.1830  151.8420 C   0  0  2  0  0  3  0  0  0  0  0  0
  160.6930  208.5990  152.1020 C   0  0  1  0  0  3  0  0  0  0  0  0
  161.7540  208.4430  151.0090 C   0  0  0  0  0  2  0  0  0  0  0  0
  161.3320  206.2230  152.9340 C   0  0  0  0  0  2  0  0  0  0  0  0
  160.9550  207.6400  153.2400 C   0  0  0  0  0  0  0  0  0  0  0  0
  160.7570  207.9750  154.3990 O   0  0  0  0  0  0  0  0  0  0  0  0
  161.9370  206.9760  150.6220 C   0  0  0  0  0  2  0  0  0  0  0  0
  162.6460  204.8570  151.4800 O   0  0  0  0  0  0  0  0  0  0  0  0
  161.6080  204.1800  151.9310 O   0  0  0  0  0  0  0  0  0  0  0  0
  160.6920  203.7890  150.5540 P   0  0  1  0  0  0  0  0  0  0  0  0
  161.6680  203.9620  149.1050 N   0  0  0  0  0  2  0  0  0  0  0  0
  161.2420  201.2270  149.9190 C   0  0  0  0  0  2  0  0  0  0  0  0
  160.1790  202.0520  150.6310 C   0  0  0  0  0  2  0  0  0  0  0  0
  161.1050  203.0640  148.0990 C   0  0  2  0  0  3  0  0  0  0  0  0
  161.3640  201.5790  148.4270 C   0  0  0  0  0  2  0  0  0  0  0  0
  159.4740  204.6790  150.4750 O   0  0  0  0  0  0  0  0  0  0  0  0
  160.9450  202.5110  145.6660 C   0  0  0  0  0  1  0  0  0  0  0  0
  161.6060  203.4050  146.6960 C   0  0  0  0  0  3  0  0  0  0  0  0
  161.3690  204.8630  146.3410 C   0  0  0  0  0  1  0  0  0  0  0  0
  1 32  1  1  0  0  0
  2  4  1  0  0  0  0
  3  4  2  0  0  0  0
  4  1  1  0  0  0  0
  5  2  1  0  0  0  0
  6  5  2  0  0  0  0
  6  3  1  0  0  0  0
  7  6  1  0  0  0  0
  8  7  1  0  0  0  0
  9  8  1  0  0  0  0
 10 13  1  0  0  0  0
 11 13  2  0  0  0  0
 11 12  1  0  0  0  0
 12  9  1  0  0  0  0
 14 11  1  0  0  0  0
 15 16  1  0  0  0  0
 16 14  1  1  0  0  0
 17 19  1  0  0  0  0
 17 15  1  0  0  0  0
 18 16  1  0  0  0  0
 19 18  1  0  0  0  0
 21 22  1  0  0  0  0
 21 20  1  0  0  0  0
 22  1  1  6  0  0  0
 22 24  1  0  0  0  0
 23 20  1  6  0  0  0
 23 29  1  0  0  0  0
 24 23  1  0  0  0  0
 27 31  1  0  0  0  0
 29 28  1  6  0  0  0
 29 26  1  0  0  0  0
 30 25  1  1  0  0  0
 30 27  1  0  0  0  0
 30 28  1  0  0  0  0
 31 26  1  0  0  0  0
 32 33  1  0  0  0  0
 34 41  1  6  0  0  0
 34 37  1  0  0  0  0
 35 33  1  1  0  0  0
 35 38  1  0  0  0  0
 36 35  1  0  0  0  0
 37 38  1  0  0  0  0
 38 39  2  0  0  0  0
 40 36  1  0  0  0  0
 40 34  1  0  0  0  0
 41 42  1  0  0  0  0
 43 49  2  6  0  0  0
 43 46  1  0  0  0  0
 43 42  1  0  0  0  0
 44 43  1  0  0  0  0
 45 46  1  0  0  0  0
 47 51  1  6  0  0  0
 47 48  1  0  0  0  0
 47 44  1  0  0  0  0
 48 45  1  0  0  0  0
 50 51  1  0  0  0  0
 52 51  1  0  0  0  0
M  END
>  <MODEL>
9

>  <REMARK>
 VINA RESULT:      -5.1      2.517      4.078
  Name = 
  16 active torsions:
  status: ('A' for Active; 'I' for Inactive)
    1  A    between atoms: O_1  and  O_26
    2  A    between atoms: O_1  and  C_41
    3  A    between atoms: C_3  and  N_8
    4  A    between atoms: C_3  and  C_49
    5  A    between atoms: C_4  and  O_37
    6  A    between atoms: C_6  and  C_22
    7  A    between atoms: C_6  and  C_28
    8  A    between atoms: N_8  and  N_14
    9  A    between atoms: P_13  and  O_21
   10  A    between atoms: N_14  and  N_36
   11  A    between atoms: C_16  and  O_26
   12  A    between atoms: C_18  and  C_41
   13  A    between atoms: O_21  and  O_37
   14  A    between atoms: C_24  and  C_41
   15  A    between atoms: C_25  and  C_40
   16  A    between atoms: C_29  and  C_45
                            x       y       z     vdW  Elec       q    Type
                         _______ _______ _______ _____ _____    ______ ____

>  <TORSDO>
F 16

$$$$
