=
 OpenBabel11042422303D

 34 38  0  0  1  0  0  0  0  0999 V2000
  160.7150  210.8180  154.8330 C   0  0  1  0  0  0  0  0  0  0  0  0
  159.7040  211.6010  152.6100 C   0  0  0  0  0  3  0  0  0  0  0  0
  160.5830  210.6230  157.2590 C   0  0  0  0  0  2  0  0  0  0  0  0
  160.3810  212.1220  155.2680 O   0  0  0  0  0  0  0  0  0  0  0  0
  162.0680  210.3090  155.3450 C   0  0  1  0  0  3  0  0  0  0  0  0
  159.8460  211.0440  156.0050 C   0  0  1  0  0  0  0  0  0  0  0  0
  158.5360  212.2570  152.5980 C   0  0  0  0  0  0  0  0  0  0  0  0
  157.7040  211.8090  156.0570 C   0  0  0  0  0  2  0  0  0  0  0  0
  158.5040  210.6880  155.7830 O   0  0  0  0  0  0  0  0  0  0  0  0
  160.0350  210.4270  153.4900 C   0  0  1  0  0  3  0  0  0  0  0  0
  162.7330  211.6490  157.2010 O   0  0  0  0  0  1  0  0  0  0  0  0
  157.4320  211.8860  153.5430 C   0  0  0  0  0  2  0  0  0  0  0  0
  162.0460  210.4840  156.8590 C   0  0  1  0  0  3  0  0  0  0  0  0
  157.5510  212.7020  154.8250 C   0  0  0  0  0  2  0  0  0  0  0  0
  162.2190  208.9470  155.0730 O   0  0  0  0  0  1  0  0  0  0  0  0
  162.2180  208.5900  150.9260 C   0  0  0  0  0  3  0  0  0  0  0  0
  161.9930  207.2640  151.3070 C   0  0  0  0  0  0  0  0  0  0  0  0
  161.6030  209.6410  151.6120 C   0  0  0  0  0  0  0  0  0  0  0  0
  161.1440  206.9840  152.3870 C   0  0  0  0  0  0  0  0  0  0  0  0
  162.6160  206.2380  150.6080 O   0  0  0  0  0  1  0  0  0  0  0  0
  160.7440  209.3600  152.7010 C   0  0  0  0  0  0  0  0  0  0  0  0
  160.5260  208.0300  153.0750 C   0  0  0  0  0  3  0  0  0  0  0  0
  160.8870  205.5800  152.8140 C   0  0  0  0  0  1  0  0  0  0  0  0
  161.8870  211.0350  151.1630 C   0  0  0  0  0  1  0  0  0  0  0  0
  158.3400  213.4150  151.6850 C   0  0  0  0  0  0  0  0  0  0  0  0
  157.7890  214.4530  152.1450 O   0  0  0  0  0  0  0  0  0  0  0  0
  162.2360  213.4900  148.2030 Cl  0  0  0  0  0  0  0  0  0  0  0  0
  157.8050  213.3030  149.2150 C   0  0  0  0  0  0  0  0  0  0  0  0
  160.5310  213.4120  148.5890 C   0  0  0  0  0  0  0  0  0  0  0  0
  156.4420  213.2580  149.4900 O   0  0  0  0  0  1  0  0  0  0  0  0
  158.2250  213.2680  147.8820 C   0  0  0  0  0  3  0  0  0  0  0  0
  160.1180  213.4430  149.9220 C   0  0  0  0  0  3  0  0  0  0  0  0
  158.7550  213.3970  150.2560 C   0  0  0  0  0  0  0  0  0  0  0  0
  159.5850  213.3240  147.5690 C   0  0  0  0  0  3  0  0  0  0  0  0
  1  4  1  6  0  0  0
  1  5  1  0  0  0  0
  1  6  1  0  0  0  0
  2 10  1  0  0  0  0
  4  6  1  0  0  0  0
  5 15  1  1  0  0  0
  5 13  1  0  0  0  0
  6  3  1  1  0  0  0
  7  2  2  0  0  0  0
  7 12  1  0  0  0  0
  9  6  1  0  0  0  0
  9  8  1  0  0  0  0
 10 21  1  6  0  0  0
 10  1  1  0  0  0  0
 12 14  1  0  0  0  0
 13 11  1  6  0  0  0
 13  3  1  0  0  0  0
 14  8  1  0  0  0  0
 16 17  2  0  0  0  0
 16 18  1  0  0  0  0
 17 19  1  0  0  0  0
 18 21  2  0  0  0  0
 19 23  1  0  0  0  0
 19 22  2  0  0  0  0
 20 17  1  0  0  0  0
 21 22  1  0  0  0  0
 24 18  1  0  0  0  0
 25 26  2  0  0  0  0
 25  7  1  0  0  0  0
 27 29  1  0  0  0  0
 28 30  1  0  0  0  0
 28 33  1  0  0  0  0
 29 32  1  0  0  0  0
 31 28  2  0  0  0  0
 32 33  2  0  0  0  0
 33 25  1  0  0  0  0
 34 31  1  0  0  0  0
 34 29  2  0  0  0  0
M  END
>  <MODEL>
1

>  <REMARK>
 VINA RESULT:      -6.9      0.000      0.000
  Name = 
  3 active torsions:
  status: ('A' for Active; 'I' for Inactive)
    1  A    between atoms: C_8  and  C_24
    2  A    between atoms: C_19  and  C_27
    3  A    between atoms: C_24  and  C_30
                            x       y       z     vdW  Elec       q    Type
                         _______ _______ _______ _____ _____    ______ ____

>  <TORSDO>
F 3

$$$$
=
 OpenBabel11042422303D

 34 38  0  0  1  0  0  0  0  0999 V2000
  160.8840  211.0190  154.8870 C   0  0  1  0  0  0  0  0  0  0  0  0
  159.3600  211.8730  153.0090 C   0  0  0  0  0  3  0  0  0  0  0  0
  161.2540  210.5260  157.2460 C   0  0  0  0  0  2  0  0  0  0  0  0
  160.4580  212.1900  155.5570 O   0  0  0  0  0  0  0  0  0  0  0  0
  162.3690  210.6870  155.0780 C   0  0  1  0  0  3  0  0  0  0  0  0
  160.2360  210.9600  156.2120 C   0  0  1  0  0  0  0  0  0  0  0  0
  158.1310  212.3220  153.2950 C   0  0  0  0  0  0  0  0  0  0  0  0
  158.0580  211.3470  156.7450 C   0  0  0  0  0  2  0  0  0  0  0  0
  158.9410  210.4140  156.1780 O   0  0  0  0  0  0  0  0  0  0  0  0
  160.0190  210.6770  153.6410 C   0  0  1  0  0  3  0  0  0  0  0  0
  163.1830  211.8970  156.9640 O   0  0  0  0  0  1  0  0  0  0  0  0
  157.2950  211.6650  154.3540 C   0  0  0  0  0  2  0  0  0  0  0  0
  162.6160  210.6810  156.5820 C   0  0  1  0  0  3  0  0  0  0  0  0
  157.5430  212.3370  155.6990 C   0  0  0  0  0  2  0  0  0  0  0  0
  162.6560  209.4100  154.5910 O   0  0  0  0  0  1  0  0  0  0  0  0
  161.5470  207.7420  151.7000 C   0  0  0  0  0  3  0  0  0  0  0  0
  162.0220  208.4080  150.5680 C   0  0  0  0  0  0  0  0  0  0  0  0
  160.8910  208.4430  152.7150 C   0  0  0  0  0  0  0  0  0  0  0  0
  161.8400  209.7930  150.4460 C   0  0  0  0  0  0  0  0  0  0  0  0
  162.6720  207.6870  149.5740 O   0  0  0  0  0  1  0  0  0  0  0  0
  160.7060  209.8410  152.5950 C   0  0  0  0  0  0  0  0  0  0  0  0
  161.1850  210.4990  151.4570 C   0  0  0  0  0  3  0  0  0  0  0  0
  162.3360  210.5280  149.2490 C   0  0  0  0  0  1  0  0  0  0  0  0
  160.3990  207.6760  153.8960 C   0  0  0  0  0  1  0  0  0  0  0  0
  157.5980  213.5280  152.6070 C   0  0  0  0  0  0  0  0  0  0  0  0
  157.1090  214.4530  153.3120 O   0  0  0  0  0  0  0  0  0  0  0  0
  160.3650  213.5380  148.1730 Cl  0  0  0  0  0  0  0  0  0  0  0  0
  156.4200  213.9310  150.4040 C   0  0  0  0  0  0  0  0  0  0  0  0
  158.8450  213.6840  149.0280 C   0  0  0  0  0  0  0  0  0  0  0  0
  155.2000  214.0710  151.0570 O   0  0  0  0  0  1  0  0  0  0  0  0
  156.4570  214.0540  149.0120 C   0  0  0  0  0  3  0  0  0  0  0  0
  158.8140  213.5560  150.4170 C   0  0  0  0  0  3  0  0  0  0  0  0
  157.6090  213.6840  151.1270 C   0  0  0  0  0  0  0  0  0  0  0  0
  157.6670  213.9320  148.3240 C   0  0  0  0  0  3  0  0  0  0  0  0
  1  5  1  0  0  0  0
  1  4  1  6  0  0  0
  1  6  1  0  0  0  0
  2  7  2  0  0  0  0
  2 10  1  0  0  0  0
  4  6  1  0  0  0  0
  5 15  1  1  0  0  0
  5 13  1  0  0  0  0
  6  3  1  1  0  0  0
  7 12  1  0  0  0  0
  9  6  1  0  0  0  0
  9  8  1  0  0  0  0
 10 21  1  6  0  0  0
 10  1  1  0  0  0  0
 12 14  1  0  0  0  0
 13 11  1  1  0  0  0
 13  3  1  0  0  0  0
 14  8  1  0  0  0  0
 16 18  1  0  0  0  0
 17 16  2  0  0  0  0
 18 24  1  0  0  0  0
 19 17  1  0  0  0  0
 19 22  2  0  0  0  0
 20 17  1  0  0  0  0
 21 18  2  0  0  0  0
 22 21  1  0  0  0  0
 23 19  1  0  0  0  0
 25  7  1  0  0  0  0
 25 26  2  0  0  0  0
 27 29  1  0  0  0  0
 28 30  1  0  0  0  0
 28 33  1  0  0  0  0
 29 32  1  0  0  0  0
 31 28  2  0  0  0  0
 32 33  2  0  0  0  0
 33 25  1  0  0  0  0
 34 31  1  0  0  0  0
 34 29  2  0  0  0  0
M  END
>  <MODEL>
2

>  <REMARK>
 VINA RESULT:      -6.9      1.092      1.957
  Name = 
  3 active torsions:
  status: ('A' for Active; 'I' for Inactive)
    1  A    between atoms: C_8  and  C_24
    2  A    between atoms: C_19  and  C_27
    3  A    between atoms: C_24  and  C_30
                            x       y       z     vdW  Elec       q    Type
                         _______ _______ _______ _____ _____    ______ ____

>  <TORSDO>
F 3

$$$$
=
 OpenBabel11042422303D

 34 38  0  0  1  0  0  0  0  0999 V2000
  158.1650  212.3670  153.8990 C   0  0  1  0  0  0  0  0  0  0  0  0
  159.5080  210.6470  152.5520 C   0  0  0  0  0  3  0  0  0  0  0  0
  157.8070  213.6240  155.9570 C   0  0  0  0  0  2  0  0  0  0  0  0
  158.2220  211.3870  154.9170 O   0  0  0  0  0  0  0  0  0  0  0  0
  156.8150  213.0870  153.7900 C   0  0  1  0  0  3  0  0  0  0  0  0
  158.7290  212.6670  155.2290 C   0  0  1  0  0  0  0  0  0  0  0  0
  160.5540  210.0240  153.1130 C   0  0  0  0  0  0  0  0  0  0  0  0
  160.6890  211.9510  156.1350 C   0  0  0  0  0  2  0  0  0  0  0  0
  160.1220  212.8510  155.2180 O   0  0  0  0  0  0  0  0  0  0  0  0
  159.1590  212.0980  152.7340 C   0  0  1  0  0  3  0  0  0  0  0  0
  155.6000  212.7350  155.8110 O   0  0  0  0  0  1  0  0  0  0  0  0
  161.4730  210.7510  154.0510 C   0  0  0  0  0  2  0  0  0  0  0  0
  156.4930  213.6070  155.1860 C   0  0  1  0  0  3  0  0  0  0  0  0
  160.9790  210.5970  155.4840 C   0  0  0  0  0  2  0  0  0  0  0  0
  156.9090  214.1860  152.9340 O   0  0  0  0  0  1  0  0  0  0  0  0
  159.2950  213.6760  149.2390 C   0  0  0  0  0  3  0  0  0  0  0  0
  157.9330  213.8770  149.0000 C   0  0  0  0  0  0  0  0  0  0  0  0
  159.7290  213.1000  150.4360 C   0  0  0  0  0  0  0  0  0  0  0  0
  156.9920  213.4990  149.9680 C   0  0  0  0  0  0  0  0  0  0  0  0
  157.5280  214.4530  147.8030 O   0  0  0  0  0  1  0  0  0  0  0  0
  158.7820  212.7180  151.4150 C   0  0  0  0  0  0  0  0  0  0  0  0
  157.4210  212.9230  151.1660 C   0  0  0  0  0  3  0  0  0  0  0  0
  155.5350  213.7020  149.7390 C   0  0  0  0  0  1  0  0  0  0  0  0
  161.1950  212.9030  150.6310 C   0  0  0  0  0  1  0  0  0  0  0  0
  160.7820  208.5760  152.8640 C   0  0  0  0  0  0  0  0  0  0  0  0
  160.6150  207.7700  153.8200 O   0  0  0  0  0  0  0  0  0  0  0  0
  160.7390  204.5990  149.4740 Cl  0  0  0  0  0  0  0  0  0  0  0  0
  161.9610  208.8230  150.6390 C   0  0  0  0  0  0  0  0  0  0  0  0
  161.2060  206.2260  149.9170 C   0  0  0  0  0  0  0  0  0  0  0  0
  162.3640  210.1120  150.9710 O   0  0  0  0  0  1  0  0  0  0  0  0
  162.3300  208.3000  149.3960 C   0  0  0  0  0  3  0  0  0  0  0  0
  160.8310  206.7430  151.1580 C   0  0  0  0  0  3  0  0  0  0  0  0
  161.2070  208.0410  151.5420 C   0  0  0  0  0  0  0  0  0  0  0  0
  161.9550  207.0040  149.0350 C   0  0  0  0  0  3  0  0  0  0  0  0
  1  4  1  1  0  0  0
  1  6  1  0  0  0  0
  2 10  1  0  0  0  0
  2  7  2  0  0  0  0
  4  6  1  0  0  0  0
  5 15  1  6  0  0  0
  5  1  1  0  0  0  0
  5 13  1  0  0  0  0
  6  3  1  1  0  0  0
  7 12  1  0  0  0  0
  9  6  1  0  0  0  0
  9  8  1  0  0  0  0
 10 21  1  6  0  0  0
 10  1  1  0  0  0  0
 12 14  1  0  0  0  0
 13 11  1  1  0  0  0
 13  3  1  0  0  0  0
 14  8  1  0  0  0  0
 16 18  1  0  0  0  0
 17 16  2  0  0  0  0
 17 19  1  0  0  0  0
 18 24  1  0  0  0  0
 18 21  2  0  0  0  0
 19 22  2  0  0  0  0
 20 17  1  0  0  0  0
 22 21  1  0  0  0  0
 23 19  1  0  0  0  0
 25  7  1  0  0  0  0
 25 26  2  0  0  0  0
 27 29  1  0  0  0  0
 28 30  1  0  0  0  0
 28 33  1  0  0  0  0
 29 32  1  0  0  0  0
 31 28  2  0  0  0  0
 32 33  2  0  0  0  0
 33 25  1  0  0  0  0
 34 31  1  0  0  0  0
 34 29  2  0  0  0  0
M  END
>  <MODEL>
3

>  <REMARK>
 VINA RESULT:      -5.4      2.214      6.019
  Name = 
  3 active torsions:
  status: ('A' for Active; 'I' for Inactive)
    1  A    between atoms: C_8  and  C_24
    2  A    between atoms: C_19  and  C_27
    3  A    between atoms: C_24  and  C_30
                            x       y       z     vdW  Elec       q    Type
                         _______ _______ _______ _____ _____    ______ ____

>  <TORSDO>
F 3

$$$$
=
 OpenBabel11042422303D

 34 38  0  0  1  0  0  0  0  0999 V2000
  157.8100  212.7390  154.2920 C   0  0  1  0  0  0  0  0  0  0  0  0
  159.2220  210.9850  153.0630 C   0  0  0  0  0  3  0  0  0  0  0  0
  157.3920  214.1060  156.2660 C   0  0  0  0  0  2  0  0  0  0  0  0
  157.8920  211.8260  155.3690 O   0  0  0  0  0  0  0  0  0  0  0  0
  156.4380  213.4040  154.1290 C   0  0  1  0  0  3  0  0  0  0  0  0
  158.3520  213.1380  155.6050 C   0  0  1  0  0  0  0  0  0  0  0  0
  160.2830  210.4340  153.6680 C   0  0  0  0  0  0  0  0  0  0  0  0
  160.3270  212.5460  156.5660 C   0  0  0  0  0  2  0  0  0  0  0  0
  159.7390  213.3680  155.5920 O   0  0  0  0  0  0  0  0  0  0  0  0
  158.8230  212.4330  153.1520 C   0  0  1  0  0  3  0  0  0  0  0  0
  155.2180  213.1360  156.1600 O   0  0  0  0  0  1  0  0  0  0  0  0
  161.1700  211.2480  154.5650 C   0  0  0  0  0  2  0  0  0  0  0  0
  156.0870  213.9970  155.4890 C   0  0  1  0  0  3  0  0  0  0  0  0
  160.6680  211.1650  156.0020 C   0  0  0  0  0  2  0  0  0  0  0  0
  156.5020  214.4510  153.2080 O   0  0  0  0  0  1  0  0  0  0  0  0
  158.9300  213.6990  149.5330 C   0  0  0  0  0  3  0  0  0  0  0  0
  157.5730  213.9500  149.3130 C   0  0  0  0  0  0  0  0  0  0  0  0
  159.3720  213.2050  150.7630 C   0  0  0  0  0  0  0  0  0  0  0  0
  156.6450  213.7040  150.3340 C   0  0  0  0  0  0  0  0  0  0  0  0
  157.1610  214.4420  148.0810 O   0  0  0  0  0  1  0  0  0  0  0  0
  158.4370  212.9570  151.7960 C   0  0  0  0  0  0  0  0  0  0  0  0
  157.0810  213.2110  151.5650 C   0  0  0  0  0  3  0  0  0  0  0  0
  155.1930  213.9620  150.1260 C   0  0  0  0  0  1  0  0  0  0  0  0
  160.8320  212.9500  150.9350 C   0  0  0  0  0  1  0  0  0  0  0  0
  160.5610  208.9820  153.5100 C   0  0  0  0  0  0  0  0  0  0  0  0
  160.3170  208.2160  154.4820 O   0  0  0  0  0  0  0  0  0  0  0  0
  162.2950  209.7670  148.6430 Cl  0  0  0  0  0  0  0  0  0  0  0  0
  161.4020  207.0180  152.1550 C   0  0  0  0  0  0  0  0  0  0  0  0
  161.9580  208.7080  149.9940 C   0  0  0  0  0  0  0  0  0  0  0  0
  161.1280  206.1480  153.2050 O   0  0  0  0  0  1  0  0  0  0  0  0
  161.9490  206.5000  150.9770 C   0  0  0  0  0  3  0  0  0  0  0  0
  161.4170  209.2310  151.1690 C   0  0  0  0  0  3  0  0  0  0  0  0
  161.1240  208.3980  152.2620 C   0  0  0  0  0  0  0  0  0  0  0  0
  162.2250  207.3430  149.8980 C   0  0  0  0  0  3  0  0  0  0  0  0
  1  4  1  1  0  0  0
  1  6  1  0  0  0  0
  2 10  1  0  0  0  0
  2  7  2  0  0  0  0
  4  6  1  0  0  0  0
  5 15  1  6  0  0  0
  5  1  1  0  0  0  0
  5 13  1  0  0  0  0
  6  3  1  1  0  0  0
  7 12  1  0  0  0  0
  9  6  1  0  0  0  0
  9  8  1  0  0  0  0
 10 21  1  6  0  0  0
 10  1  1  0  0  0  0
 12 14  1  0  0  0  0
 13 11  1  1  0  0  0
 13  3  1  0  0  0  0
 14  8  1  0  0  0  0
 16 18  1  0  0  0  0
 17 16  2  0  0  0  0
 17 19  1  0  0  0  0
 18 24  1  0  0  0  0
 18 21  2  0  0  0  0
 19 22  2  0  0  0  0
 20 17  1  0  0  0  0
 22 21  1  0  0  0  0
 23 19  1  0  0  0  0
 25  7  1  0  0  0  0
 25 26  2  0  0  0  0
 27 29  1  0  0  0  0
 28 33  1  0  0  0  0
 28 30  1  0  0  0  0
 29 32  1  0  0  0  0
 31 28  2  0  0  0  0
 32 33  2  0  0  0  0
 33 25  1  0  0  0  0
 34 29  2  0  0  0  0
 34 31  1  0  0  0  0
M  END
>  <MODEL>
4

>  <REMARK>
 VINA RESULT:      -5.0      1.673      6.038
  Name = 
  3 active torsions:
  status: ('A' for Active; 'I' for Inactive)
    1  A    between atoms: C_8  and  C_24
    2  A    between atoms: C_19  and  C_27
    3  A    between atoms: C_24  and  C_30
                            x       y       z     vdW  Elec       q    Type
                         _______ _______ _______ _____ _____    ______ ____

>  <TORSDO>
F 3

$$$$
=
 OpenBabel11042422303D

 34 38  0  0  1  0  0  0  0  0999 V2000
  159.1440  211.8530  154.9740 C   0  0  1  0  0  0  0  0  0  0  0  0
  159.8930  209.9610  153.4140 C   0  0  0  0  0  3  0  0  0  0  0  0
  159.3560  213.0600  157.0820 C   0  0  0  0  0  2  0  0  0  0  0  0
  159.1440  210.8360  155.9570 O   0  0  0  0  0  0  0  0  0  0  0  0
  157.9700  212.8360  155.0820 C   0  0  1  0  0  3  0  0  0  0  0  0
  159.9440  211.9710  156.2090 C   0  0  1  0  0  0  0  0  0  0  0  0
  160.8570  209.1140  153.8000 C   0  0  0  0  0  0  0  0  0  0  0  0
  161.8240  210.8320  156.7960 C   0  0  0  0  0  2  0  0  0  0  0  0
  161.3290  211.8690  155.9900 O   0  0  0  0  0  0  0  0  0  0  0  0
  159.8810  211.4430  153.6680 C   0  0  1  0  0  3  0  0  0  0  0  0
  157.0150  212.6440  157.2580 O   0  0  0  0  0  1  0  0  0  0  0  0
  162.0330  209.5960  154.5990 C   0  0  0  0  0  2  0  0  0  0  0  0
  157.9690  213.3440  156.5190 C   0  0  1  0  0  3  0  0  0  0  0  0
  161.7300  209.4790  156.0880 C   0  0  0  0  0  2  0  0  0  0  0  0
  158.1650  213.9320  154.2390 O   0  0  0  0  0  1  0  0  0  0  0  0
  159.7850  213.0060  150.1660 C   0  0  0  0  0  3  0  0  0  0  0  0
  158.5310  213.6190  150.1980 C   0  0  0  0  0  0  0  0  0  0  0  0
  160.2550  212.2900  151.2710 C   0  0  0  0  0  0  0  0  0  0  0  0
  157.7330  213.5170  151.3460 C   0  0  0  0  0  0  0  0  0  0  0  0
  158.0870  214.3260  149.0860 O   0  0  0  0  0  1  0  0  0  0  0  0
  159.4530  212.1860  152.4320 C   0  0  0  0  0  0  0  0  0  0  0  0
  158.1980  212.8030  152.4530 C   0  0  0  0  0  3  0  0  0  0  0  0
  156.3920  214.1610  151.4070 C   0  0  0  0  0  1  0  0  0  0  0  0
  161.6000  211.6510  151.1740 C   0  0  0  0  0  1  0  0  0  0  0  0
  160.7420  207.6630  153.4970 C   0  0  0  0  0  0  0  0  0  0  0  0
  160.4110  206.8810  154.4300 O   0  0  0  0  0  0  0  0  0  0  0  0
  161.6350  208.5370  148.4230 Cl  0  0  0  0  0  0  0  0  0  0  0  0
  161.1280  205.7030  151.9450 C   0  0  0  0  0  0  0  0  0  0  0  0
  161.4460  207.4450  149.7760 C   0  0  0  0  0  0  0  0  0  0  0  0
  160.9640  204.8090  152.9980 O   0  0  0  0  0  1  0  0  0  0  0  0
  161.3990  205.2000  150.6690 C   0  0  0  0  0  3  0  0  0  0  0  0
  161.1800  207.9540  151.0490 C   0  0  0  0  0  3  0  0  0  0  0  0
  161.0090  207.0960  152.1480 C   0  0  0  0  0  0  0  0  0  0  0  0
  161.5570  206.0680  149.5860 C   0  0  0  0  0  3  0  0  0  0  0  0
  1  5  1  0  0  0  0
  1  4  1  1  0  0  0
  1  6  1  0  0  0  0
  2 10  1  0  0  0  0
  2  7  2  0  0  0  0
  4  6  1  0  0  0  0
  5 15  1  6  0  0  0
  5 13  1  0  0  0  0
  6  3  1  1  0  0  0
  7 12  1  0  0  0  0
  9  6  1  0  0  0  0
  9  8  1  0  0  0  0
 10 21  1  6  0  0  0
 10  1  1  0  0  0  0
 12 14  1  0  0  0  0
 13  3  1  0  0  0  0
 13 11  1  1  0  0  0
 14  8  1  0  0  0  0
 16 17  2  0  0  0  0
 16 18  1  0  0  0  0
 17 19  1  0  0  0  0
 18 21  2  0  0  0  0
 19 23  1  0  0  0  0
 19 22  2  0  0  0  0
 20 17  1  0  0  0  0
 21 22  1  0  0  0  0
 24 18  1  0  0  0  0
 25  7  1  0  0  0  0
 25 26  2  0  0  0  0
 27 29  1  0  0  0  0
 28 33  1  0  0  0  0
 28 30  1  0  0  0  0
 29 32  1  0  0  0  0
 31 28  2  0  0  0  0
 32 33  2  0  0  0  0
 33 25  1  0  0  0  0
 34 29  2  0  0  0  0
 34 31  1  0  0  0  0
M  END
>  <MODEL>
5

>  <REMARK>
 VINA RESULT:      -4.8      1.740      5.920
  Name = 
  3 active torsions:
  status: ('A' for Active; 'I' for Inactive)
    1  A    between atoms: C_8  and  C_24
    2  A    between atoms: C_19  and  C_27
    3  A    between atoms: C_24  and  C_30
                            x       y       z     vdW  Elec       q    Type
                         _______ _______ _______ _____ _____    ______ ____

>  <TORSDO>
F 3

$$$$
