=
 OpenBabel11052411503D

 40 42  0  0  1  0  0  0  0  0999 V2000
  161.4140  207.1860  148.7270 C   0  0  0  0  0  3  0  0  0  0  0  0
  162.1960  209.4400  148.7510 O   0  0  0  0  0  0  0  0  0  0  0  0
  161.6540  208.3410  149.3430 C   0  0  0  0  0  0  0  0  0  0  0  0
  161.3780  208.6430  150.6940 N   0  0  0  0  0  0  0  0  0  0  0  0
  161.5970  209.9700  150.9210 O   0  0  0  0  0  0  0  0  0  0  0  0
  162.3120  210.4260  149.7720 C   0  0  2  0  0  3  0  0  0  0  0  0
  161.4920  205.4140  152.5790 C   0  0  0  0  0  3  0  0  0  0  0  0
  161.5580  206.3460  151.5390 C   0  0  0  0  0  3  0  0  0  0  0  0
  160.9750  208.1110  153.0850 C   0  0  0  0  0  3  0  0  0  0  0  0
  161.1680  205.8300  153.8720 C   0  0  0  0  0  3  0  0  0  0  0  0
  160.9130  207.1810  154.1260 C   0  0  0  0  0  0  0  0  0  0  0  0
  161.3000  207.7040  151.7810 C   0  0  0  0  0  0  0  0  0  0  0  0
  161.7270  208.1500  156.1730 N   0  0  0  0  0  1  0  0  0  0  0  0
  160.5510  207.6270  155.4990 C   0  0  0  0  0  2  0  0  0  0  0  0
  161.7370  211.7520  149.2960 C   0  0  0  0  0  2  0  0  0  0  0  0
  161.8300  211.8720  147.7850 C   0  0  0  0  0  2  0  0  0  0  0  0
  160.5770  212.5210  147.2260 C   0  0  0  0  0  2  0  0  0  0  0  0
  160.9600  213.5530  146.1860 C   0  0  2  0  0  3  0  0  0  0  0  0
  162.0600  213.0270  145.3650 N   0  0  0  0  0  0  0  0  0  0  0  0
  162.3220  214.0080  146.4290 C   0  0  0  0  0  2  0  0  0  0  0  0
  162.0310  213.7390  144.1590 N   0  0  0  0  0  2  0  0  0  0  0  0
  161.1810  212.9980  143.2420 C   0  0  0  0  0  2  0  0  0  0  0  0
  161.9380  212.0370  142.5710 O   0  0  0  0  0  0  0  0  0  0  0  0
  161.0350  211.4150  141.7080 C   0  0  0  0  0  2  0  0  0  0  0  0
  161.7230  211.0840  140.3990 C   0  0  0  0  0  2  0  0  0  0  0  0
  160.8870  210.2910  139.6110 O   0  0  0  0  0  0  0  0  0  0  0  0
  161.7390  209.3590  139.0200 C   0  0  0  0  0  2  0  0  0  0  0  0
  162.0770  207.4010  140.3420 O   0  0  0  0  0  1  0  0  0  0  0  0
  161.2720  207.9530  139.3440 C   0  0  0  0  0  2  0  0  0  0  0  0
  161.7370  206.9950  147.2870 C   0  0  0  0  0  2  0  0  0  0  0  0
  160.9200  205.8470  146.7350 C   0  0  0  0  0  2  0  0  0  0  0  0
  161.1030  205.7800  145.2330 C   0  0  0  0  0  2  0  0  0  0  0  0
  161.4750  204.4280  144.8500 N   0  0  0  0  0  2  0  0  0  0  0  0
  161.4310  203.6110  146.0520 C   0  0  0  0  0  2  0  0  0  0  0  0
  160.8270  202.2460  145.7480 C   0  0  0  0  0  2  0  0  0  0  0  0
  160.9950  201.3640  146.8910 N   0  0  0  0  0  2  0  0  0  0  0  0
  159.3830  201.3840  149.1680 O   0  0  0  0  0  0  0  0  0  0  0  0
  160.3820  202.1510  149.1420 C   0  0  0  0  0  0  0  0  0  0  0  0
  161.2370  202.1850  148.0010 N   0  0  0  0  0  2  0  0  0  0  0  0
  160.6550  202.9670  150.2320 O   0  0  0  0  0  1  0  0  0  0  0  0
  1  3  2  0  0  0  0
  2  3  1  0  0  0  0
  2  6  1  0  0  0  0
  3  4  1  0  0  0  0
  4  5  1  0  0  0  0
  4 12  1  0  0  0  0
  6 15  1  6  0  0  0
  6  5  1  0  0  0  0
  7 10  1  0  0  0  0
  8 12  1  0  0  0  0
  8  7  2  0  0  0  0
  9 11  1  0  0  0  0
 10 11  2  0  0  0  0
 11 14  1  0  0  0  0
 12  9  2  0  0  0  0
 14 13  1  0  0  0  0
 16 15  1  0  0  0  0
 17 16  1  0  0  0  0
 18 20  1  0  0  0  0
 18 17  1  1  0  0  0
 19 18  1  0  0  0  0
 19 20  1  0  0  0  0
 21 19  1  0  0  0  0
 22 21  1  0  0  0  0
 23 22  1  0  0  0  0
 24 23  1  0  0  0  0
 25 24  1  0  0  0  0
 26 25  1  0  0  0  0
 27 29  1  0  0  0  0
 27 26  1  0  0  0  0
 29 28  1  0  0  0  0
 30  1  1  0  0  0  0
 31 30  1  0  0  0  0
 32 31  1  0  0  0  0
 33 32  1  0  0  0  0
 33 34  1  0  0  0  0
 35 34  1  0  0  0  0
 35 36  1  0  0  0  0
 36 39  1  0  0  0  0
 38 37  2  0  0  0  0
 38 40  1  0  0  0  0
 39 38  1  0  0  0  0
M  END
>  <MODEL>
1

>  <REMARK>
 VINA RESULT:      -6.7      0.000      0.000
  Name = 
  22 active torsions:
  status: ('A' for Active; 'I' for Inactive)
    1  A    between atoms: O_1  and  C_8
    2  A    between atoms: O_1  and  C_22
    3  A    between atoms: C_2  and  O_4
    4  A    between atoms: C_2  and  C_8
    5  A    between atoms: N_3  and  C_26
    6  A    between atoms: N_3  and  N_27
    7  A    between atoms: O_4  and  C_19
    8  A    between atoms: C_5  and  C_20
    9  A    between atoms: C_7  and  C_40
   10  A    between atoms: C_16  and  N_17
   11  A    between atoms: C_16  and  C_26
   12  A    between atoms: N_17  and  C_31
   13  A    between atoms: C_18  and  C_35
   14  A    between atoms: C_19  and  C_24
   15  A    between atoms: C_20  and  C_28
   16  A    between atoms: C_22  and  N_32
   17  A    between atoms: C_25  and  C_37
   18  A    between atoms: C_25  and  C_38
   19  A    between atoms: C_28  and  C_31
   20  A    between atoms: N_29  and  C_39
   21  A    between atoms: N_32  and  N_33
   22  A    between atoms: C_37  and  C_40
                            x       y       z     vdW  Elec       q    Type
                         _______ _______ _______ _____ _____    ______ ____

>  <TORSDO>
F 22

$$$$
=
 OpenBabel11052411503D

 40 42  0  0  1  0  0  0  0  0999 V2000
  161.6550  208.0330  149.4300 C   0  0  0  0  0  3  0  0  0  0  0  0
  162.0410  207.0850  151.5850 O   0  0  0  0  0  0  0  0  0  0  0  0
  161.6980  207.0030  150.2710 C   0  0  0  0  0  0  0  0  0  0  0  0
  161.3840  205.6610  149.9680 N   0  0  0  0  0  0  0  0  0  0  0  0
  161.3750  204.9220  151.1150 O   0  0  0  0  0  0  0  0  0  0  0  0
  161.9940  205.7570  152.0940 C   0  0  2  0  0  3  0  0  0  0  0  0
  162.0050  205.1950  146.3080 C   0  0  0  0  0  3  0  0  0  0  0  0
  161.9050  205.7830  147.5720 C   0  0  0  0  0  3  0  0  0  0  0  0
  161.1490  203.6790  148.4910 C   0  0  0  0  0  3  0  0  0  0  0  0
  161.6780  203.8490  146.1350 C   0  0  0  0  0  3  0  0  0  0  0  0
  161.2520  203.0880  147.2290 C   0  0  0  0  0  0  0  0  0  0  0  0
  161.4750  205.0320  148.6770 C   0  0  0  0  0  0  0  0  0  0  0  0
  160.4580  201.4310  145.6760 N   0  0  0  0  0  1  0  0  0  0  0  0
  160.8850  201.6580  147.0460 C   0  0  0  0  0  2  0  0  0  0  0  0
  161.1970  205.7120  153.3900 C   0  0  0  0  0  2  0  0  0  0  0  0
  161.0250  207.1060  153.9690 C   0  0  0  0  0  2  0  0  0  0  0  0
  160.2180  207.0520  155.2520 C   0  0  0  0  0  2  0  0  0  0  0  0
  160.4120  208.3370  156.0290 C   0  0  2  0  0  3  0  0  0  0  0  0
  161.8480  208.6400  156.1120 N   0  0  0  0  0  0  0  0  0  0  0  0
  161.1370  208.0580  157.2610 C   0  0  0  0  0  2  0  0  0  0  0  0
  161.9500  210.0160  156.3580 N   0  0  0  0  0  2  0  0  0  0  0  0
  161.2750  210.6990  155.2660 C   0  0  0  0  0  2  0  0  0  0  0  0
  162.0520  210.6190  154.1100 O   0  0  0  0  0  0  0  0  0  0  0  0
  161.1330  210.6860  153.0620 C   0  0  0  0  0  2  0  0  0  0  0  0
  159.7950  211.1710  153.5850 C   0  0  0  0  0  2  0  0  0  0  0  0
  158.9620  211.5070  152.5170 O   0  0  0  0  0  0  0  0  0  0  0  0
  158.8060  212.8900  152.6130 C   0  0  0  0  0  2  0  0  0  0  0  0
  157.6980  214.0950  154.3500 O   0  0  0  0  0  1  0  0  0  0  0  0
  157.4870  213.2150  153.2860 C   0  0  0  0  0  2  0  0  0  0  0  0
  161.9950  209.4110  149.8760 C   0  0  0  0  0  2  0  0  0  0  0  0
  162.2390  210.2870  148.6660 C   0  0  0  0  0  2  0  0  0  0  0  0
  161.9170  211.7250  149.0170 C   0  0  0  0  0  2  0  0  0  0  0  0
  162.4340  212.6040  147.9820 N   0  0  0  0  0  2  0  0  0  0  0  0
  161.3300  213.4330  147.5270 C   0  0  0  0  0  2  0  0  0  0  0  0
  160.9510  213.0800  146.0950 C   0  0  0  0  0  2  0  0  0  0  0  0
  159.5580  213.4150  145.8530 N   0  0  0  0  0  2  0  0  0  0  0  0
  157.0730  212.2140  146.2620 O   0  0  0  0  0  0  0  0  0  0  0  0
  157.6450  212.7450  147.2510 C   0  0  0  0  0  0  0  0  0  0  0  0
  158.9140  213.3780  147.0970 N   0  0  0  0  0  2  0  0  0  0  0  0
  157.0370  212.7130  148.4990 O   0  0  0  0  0  1  0  0  0  0  0  0
  1 30  1  0  0  0  0
  1  3  2  0  0  0  0
  2  6  1  0  0  0  0
  3  2  1  0  0  0  0
  4  3  1  0  0  0  0
  4  5  1  0  0  0  0
  5  6  1  0  0  0  0
  6 15  1  1  0  0  0
  7  8  1  0  0  0  0
  8 12  2  0  0  0  0
  9 12  1  0  0  0  0
 10  7  2  0  0  0  0
 10 11  1  0  0  0  0
 11  9  2  0  0  0  0
 12  4  1  0  0  0  0
 13 14  1  0  0  0  0
 14 11  1  0  0  0  0
 15 16  1  0  0  0  0
 16 17  1  0  0  0  0
 18 17  1  6  0  0  0
 18 19  1  0  0  0  0
 18 20  1  0  0  0  0
 19 21  1  0  0  0  0
 19 20  1  0  0  0  0
 22 21  1  0  0  0  0
 23 22  1  0  0  0  0
 24 25  1  0  0  0  0
 24 23  1  0  0  0  0
 26 27  1  0  0  0  0
 26 25  1  0  0  0  0
 27 29  1  0  0  0  0
 29 28  1  0  0  0  0
 31 32  1  0  0  0  0
 31 30  1  0  0  0  0
 33 32  1  0  0  0  0
 34 33  1  0  0  0  0
 35 34  1  0  0  0  0
 36 35  1  0  0  0  0
 36 39  1  0  0  0  0
 37 38  2  0  0  0  0
 38 40  1  0  0  0  0
 39 38  1  0  0  0  0
M  END
>  <MODEL>
2

>  <REMARK>
 VINA RESULT:      -6.6      3.501      9.830
  Name = 
  22 active torsions:
  status: ('A' for Active; 'I' for Inactive)
    1  A    between atoms: O_1  and  C_8
    2  A    between atoms: O_1  and  C_22
    3  A    between atoms: C_2  and  O_4
    4  A    between atoms: C_2  and  C_8
    5  A    between atoms: N_3  and  C_26
    6  A    between atoms: N_3  and  N_27
    7  A    between atoms: O_4  and  C_19
    8  A    between atoms: C_5  and  C_20
    9  A    between atoms: C_7  and  C_40
   10  A    between atoms: C_16  and  N_17
   11  A    between atoms: C_16  and  C_26
   12  A    between atoms: N_17  and  C_31
   13  A    between atoms: C_18  and  C_35
   14  A    between atoms: C_19  and  C_24
   15  A    between atoms: C_20  and  C_28
   16  A    between atoms: C_22  and  N_32
   17  A    between atoms: C_25  and  C_37
   18  A    between atoms: C_25  and  C_38
   19  A    between atoms: C_28  and  C_31
   20  A    between atoms: N_29  and  C_39
   21  A    between atoms: N_32  and  N_33
   22  A    between atoms: C_37  and  C_40
                            x       y       z     vdW  Elec       q    Type
                         _______ _______ _______ _____ _____    ______ ____

>  <TORSDO>
F 22

$$$$
=
 OpenBabel11052411503D

 40 42  0  0  1  0  0  0  0  0999 V2000
  161.5920  207.4580  149.7600 C   0  0  0  0  0  3  0  0  0  0  0  0
  161.8570  206.9690  152.0800 O   0  0  0  0  0  0  0  0  0  0  0  0
  161.5220  206.6360  150.8040 C   0  0  0  0  0  0  0  0  0  0  0  0
  161.0800  205.2960  150.7870 N   0  0  0  0  0  0  0  0  0  0  0  0
  160.9830  204.8280  152.0650 O   0  0  0  0  0  0  0  0  0  0  0  0
  161.6720  205.7940  152.8620 C   0  0  2  0  0  3  0  0  0  0  0  0
  160.6940  202.1850  148.7450 C   0  0  0  0  0  3  0  0  0  0  0  0
  160.6670  203.0780  149.8200 C   0  0  0  0  0  3  0  0  0  0  0  0
  161.6030  204.8040  148.4110 C   0  0  0  0  0  3  0  0  0  0  0  0
  161.1750  202.6020  147.5020 C   0  0  0  0  0  3  0  0  0  0  0  0
  161.6270  203.9140  147.3330 C   0  0  0  0  0  0  0  0  0  0  0  0
  161.1220  204.3960  149.6650 C   0  0  0  0  0  0  0  0  0  0  0  0
  161.0550  204.7220  145.1410 N   0  0  0  0  0  1  0  0  0  0  0  0
  162.1570  204.3580  146.0150 C   0  0  0  0  0  2  0  0  0  0  0  0
  160.8600  206.1080  154.1100 C   0  0  0  0  0  2  0  0  0  0  0  0
  160.9550  207.5830  154.4610 C   0  0  0  0  0  2  0  0  0  0  0  0
  160.1600  207.8820  155.7170 C   0  0  0  0  0  2  0  0  0  0  0  0
  160.6000  209.2110  156.2940 C   0  0  2  0  0  3  0  0  0  0  0  0
  161.5050  209.8740  155.3430 N   0  0  0  0  0  0  0  0  0  0  0  0
  162.0370  209.1880  156.5310 C   0  0  0  0  0  2  0  0  0  0  0  0
  161.4710  211.2410  155.6500 N   0  0  0  0  0  2  0  0  0  0  0  0
  160.2600  211.7850  155.0560 C   0  0  0  0  0  2  0  0  0  0  0  0
  160.2990  211.6170  153.6720 O   0  0  0  0  0  0  0  0  0  0  0  0
  158.9750  211.7660  153.2610 C   0  0  0  0  0  2  0  0  0  0  0  0
  158.6100  213.2380  153.2340 C   0  0  0  0  0  2  0  0  0  0  0  0
  157.7050  213.4820  152.2000 O   0  0  0  0  0  0  0  0  0  0  0  0
  158.4100  213.1820  151.0360 C   0  0  0  0  0  2  0  0  0  0  0  0
  158.3640  213.4710  148.6660 O   0  0  0  0  0  1  0  0  0  0  0  0
  157.5810  213.5510  149.8200 C   0  0  0  0  0  2  0  0  0  0  0  0
  162.0630  208.8610  149.9100 C   0  0  0  0  0  2  0  0  0  0  0  0
  161.9290  209.5830  148.5860 C   0  0  0  0  0  2  0  0  0  0  0  0
  162.1330  211.0680  148.8030 C   0  0  0  0  0  2  0  0  0  0  0  0
  161.4510  211.8080  147.7550 N   0  0  0  0  0  2  0  0  0  0  0  0
  161.8270  213.2060  147.8990 C   0  0  0  0  0  2  0  0  0  0  0  0
  161.5500  213.9690  146.6100 C   0  0  0  0  0  2  0  0  0  0  0  0
  162.1200  213.2550  145.4800 N   0  0  0  0  0  2  0  0  0  0  0  0
  162.5180  212.3970  142.8540 O   0  0  0  0  0  1  0  0  0  0  0  0
  161.3350  212.5990  143.2400 C   0  0  0  0  0  0  0  0  0  0  0  0
  161.0750  213.0440  144.5700 N   0  0  0  0  0  2  0  0  0  0  0  0
  160.2790  212.3860  142.3650 O   0  0  0  0  0  0  0  0  0  0  0  0
  1 30  1  0  0  0  0
  1  3  2  0  0  0  0
  2  6  1  0  0  0  0
  3  2  1  0  0  0  0
  4  3  1  0  0  0  0
  4  5  1  0  0  0  0
  5  6  1  0  0  0  0
  6 15  1  1  0  0  0
  7  8  1  0  0  0  0
  9 12  1  0  0  0  0
 10  7  2  0  0  0  0
 11 10  1  0  0  0  0
 11  9  2  0  0  0  0
 12  8  2  0  0  0  0
 12  4  1  0  0  0  0
 13 14  1  0  0  0  0
 14 11  1  0  0  0  0
 15 16  1  0  0  0  0
 16 17  1  0  0  0  0
 18 17  1  6  0  0  0
 18 20  1  0  0  0  0
 19 21  1  0  0  0  0
 19 18  1  0  0  0  0
 19 20  1  0  0  0  0
 22 21  1  0  0  0  0
 23 22  1  0  0  0  0
 24 23  1  0  0  0  0
 25 24  1  0  0  0  0
 26 25  1  0  0  0  0
 27 26  1  0  0  0  0
 28 29  1  0  0  0  0
 29 27  1  0  0  0  0
 31 32  1  0  0  0  0
 31 30  1  0  0  0  0
 33 34  1  0  0  0  0
 33 32  1  0  0  0  0
 35 34  1  0  0  0  0
 36 35  1  0  0  0  0
 37 38  1  0  0  0  0
 38 39  1  0  0  0  0
 39 36  1  0  0  0  0
 40 38  2  0  0  0  0
M  END
>  <MODEL>
3

>  <REMARK>
 VINA RESULT:      -6.5      2.560      9.426
  Name = 
  22 active torsions:
  status: ('A' for Active; 'I' for Inactive)
    1  A    between atoms: O_1  and  C_8
    2  A    between atoms: O_1  and  C_22
    3  A    between atoms: C_2  and  O_4
    4  A    between atoms: C_2  and  C_8
    5  A    between atoms: N_3  and  C_26
    6  A    between atoms: N_3  and  N_27
    7  A    between atoms: O_4  and  C_19
    8  A    between atoms: C_5  and  C_20
    9  A    between atoms: C_7  and  C_40
   10  A    between atoms: C_16  and  N_17
   11  A    between atoms: C_16  and  C_26
   12  A    between atoms: N_17  and  C_31
   13  A    between atoms: C_18  and  C_35
   14  A    between atoms: C_19  and  C_24
   15  A    between atoms: C_20  and  C_28
   16  A    between atoms: C_22  and  N_32
   17  A    between atoms: C_25  and  C_37
   18  A    between atoms: C_25  and  C_38
   19  A    between atoms: C_28  and  C_31
   20  A    between atoms: N_29  and  C_39
   21  A    between atoms: N_32  and  N_33
   22  A    between atoms: C_37  and  C_40
                            x       y       z     vdW  Elec       q    Type
                         _______ _______ _______ _____ _____    ______ ____

>  <TORSDO>
F 22

$$$$
=
 OpenBabel11052411503D

 40 42  0  0  1  0  0  0  0  0999 V2000
  161.3290  205.7120  152.1960 C   0  0  0  0  0  3  0  0  0  0  0  0
  162.2990  207.3660  150.7760 O   0  0  0  0  0  0  0  0  0  0  0  0
  161.5880  206.9760  151.8690 C   0  0  0  0  0  0  0  0  0  0  0  0
  161.1670  208.1260  152.5690 N   0  0  0  0  0  0  0  0  0  0  0  0
  161.4720  209.2420  151.8450 O   0  0  0  0  0  0  0  0  0  0  0  0
  162.3690  208.7860  150.8310 C   0  0  2  0  0  3  0  0  0  0  0  0
  160.1960  207.1010  156.0340 C   0  0  0  0  0  3  0  0  0  0  0  0
  160.4930  207.0480  154.6690 C   0  0  0  0  0  3  0  0  0  0  0  0
  160.9330  209.4250  154.6720 C   0  0  0  0  0  3  0  0  0  0  0  0
  160.2690  208.3160  156.7190 C   0  0  0  0  0  3  0  0  0  0  0  0
  160.6420  209.4790  156.0380 C   0  0  0  0  0  0  0  0  0  0  0  0
  160.8640  208.2090  153.9740 C   0  0  0  0  0  0  0  0  0  0  0  0
  160.6950  211.8730  155.8030 N   0  0  0  0  0  1  0  0  0  0  0  0
  160.7040  210.7790  156.7590 C   0  0  0  0  0  2  0  0  0  0  0  0
  161.9820  209.3900  149.4890 C   0  0  0  0  0  2  0  0  0  0  0  0
  161.8950  210.9040  149.5810 C   0  0  0  0  0  2  0  0  0  0  0  0
  162.4830  211.5450  148.3380 C   0  0  0  0  0  2  0  0  0  0  0  0
  161.3800  212.1950  147.5310 C   0  0  2  0  0  3  0  0  0  0  0  0
  161.8690  213.4680  146.9810 N   0  0  0  0  0  0  0  0  0  0  0  0
  160.9890  213.4500  148.1600 C   0  0  0  0  0  2  0  0  0  0  0  0
  161.0560  213.7620  145.8780 N   0  0  0  0  0  2  0  0  0  0  0  0
  161.9350  213.9760  144.7400 C   0  0  0  0  0  2  0  0  0  0  0  0
  162.2650  212.7490  144.1630 O   0  0  0  0  0  0  0  0  0  0  0  0
  161.8980  212.8800  142.8230 C   0  0  0  0  0  2  0  0  0  0  0  0
  160.7670  211.9220  142.5060 C   0  0  0  0  0  2  0  0  0  0  0  0
  161.1590  211.0440  141.4950 O   0  0  0  0  0  0  0  0  0  0  0  0
  162.2560  211.6630  140.8960 C   0  0  0  0  0  2  0  0  0  0  0  0
  163.7090  211.5610  139.0050 O   0  0  0  0  0  1  0  0  0  0  0  0
  162.6760  210.8890  139.6610 C   0  0  0  0  0  2  0  0  0  0  0  0
  161.8180  204.5810  151.3640 C   0  0  0  0  0  2  0  0  0  0  0  0
  160.6900  204.0710  150.4920 C   0  0  0  0  0  2  0  0  0  0  0  0
  160.6850  202.5570  150.5170 C   0  0  0  0  0  2  0  0  0  0  0  0
  160.2980  202.0530  149.2090 N   0  0  0  0  0  2  0  0  0  0  0  0
  161.1700  202.6800  148.2290 C   0  0  0  0  0  2  0  0  0  0  0  0
  160.9510  202.0710  146.8510 C   0  0  0  0  0  2  0  0  0  0  0  0
  161.3430  203.0180  145.8210 N   0  0  0  0  0  2  0  0  0  0  0  0
  163.5320  204.7420  145.9710 O   0  0  0  0  0  0  0  0  0  0  0  0
  162.4340  205.1350  146.4480 C   0  0  0  0  0  0  0  0  0  0  0  0
  161.2840  204.2920  146.4030 N   0  0  0  0  0  2  0  0  0  0  0  0
  162.3410  206.3960  147.0200 O   0  0  0  0  0  1  0  0  0  0  0  0
  2  6  1  0  0  0  0
  2  3  1  0  0  0  0
  3  1  2  0  0  0  0
  3  4  1  0  0  0  0
  4 12  1  0  0  0  0
  5  4  1  0  0  0  0
  6 15  1  6  0  0  0
  6  5  1  0  0  0  0
  7 10  1  0  0  0  0
  8  7  2  0  0  0  0
  9 11  1  0  0  0  0
 11 10  2  0  0  0  0
 11 14  1  0  0  0  0
 12  8  1  0  0  0  0
 12  9  2  0  0  0  0
 13 14  1  0  0  0  0
 15 16  1  0  0  0  0
 17 16  1  0  0  0  0
 18 20  1  0  0  0  0
 18 17  1  1  0  0  0
 19 18  1  0  0  0  0
 19 20  1  0  0  0  0
 21 19  1  0  0  0  0
 22 21  1  0  0  0  0
 23 22  1  0  0  0  0
 24 23  1  0  0  0  0
 25 24  1  0  0  0  0
 26 25  1  0  0  0  0
 27 26  1  0  0  0  0
 28 29  1  0  0  0  0
 29 27  1  0  0  0  0
 30  1  1  0  0  0  0
 31 32  1  0  0  0  0
 31 30  1  0  0  0  0
 33 32  1  0  0  0  0
 34 33  1  0  0  0  0
 35 34  1  0  0  0  0
 36 39  1  0  0  0  0
 36 35  1  0  0  0  0
 37 38  2  0  0  0  0
 38 40  1  0  0  0  0
 39 38  1  0  0  0  0
M  END
>  <MODEL>
4

>  <REMARK>
 VINA RESULT:      -6.4      2.125      3.273
  Name = 
  22 active torsions:
  status: ('A' for Active; 'I' for Inactive)
    1  A    between atoms: O_1  and  C_8
    2  A    between atoms: O_1  and  C_22
    3  A    between atoms: C_2  and  O_4
    4  A    between atoms: C_2  and  C_8
    5  A    between atoms: N_3  and  C_26
    6  A    between atoms: N_3  and  N_27
    7  A    between atoms: O_4  and  C_19
    8  A    between atoms: C_5  and  C_20
    9  A    between atoms: C_7  and  C_40
   10  A    between atoms: C_16  and  N_17
   11  A    between atoms: C_16  and  C_26
   12  A    between atoms: N_17  and  C_31
   13  A    between atoms: C_18  and  C_35
   14  A    between atoms: C_19  and  C_24
   15  A    between atoms: C_20  and  C_28
   16  A    between atoms: C_22  and  N_32
   17  A    between atoms: C_25  and  C_37
   18  A    between atoms: C_25  and  C_38
   19  A    between atoms: C_28  and  C_31
   20  A    between atoms: N_29  and  C_39
   21  A    between atoms: N_32  and  N_33
   22  A    between atoms: C_37  and  C_40
                            x       y       z     vdW  Elec       q    Type
                         _______ _______ _______ _____ _____    ______ ____

>  <TORSDO>
F 22

$$$$
=
 OpenBabel11052411503D

 40 42  0  0  1  0  0  0  0  0999 V2000
  161.2450  205.6260  152.0320 C   0  0  0  0  0  3  0  0  0  0  0  0
  162.2900  207.1610  150.5340 O   0  0  0  0  0  0  0  0  0  0  0  0
  161.5500  206.8590  151.6350 C   0  0  0  0  0  0  0  0  0  0  0  0
  161.1560  208.0620  152.2600 N   0  0  0  0  0  0  0  0  0  0  0  0
  161.5080  209.1220  151.4760 O   0  0  0  0  0  0  0  0  0  0  0  0
  162.4050  208.5790  150.5060 C   0  0  2  0  0  3  0  0  0  0  0  0
  160.4060  207.2550  155.8350 C   0  0  0  0  0  3  0  0  0  0  0  0
  160.7140  207.1110  154.4790 C   0  0  0  0  0  3  0  0  0  0  0  0
  160.6420  209.5120  154.2080 C   0  0  0  0  0  3  0  0  0  0  0  0
  160.2160  208.5270  156.3780 C   0  0  0  0  0  3  0  0  0  0  0  0
  160.3380  209.6580  155.5640 C   0  0  0  0  0  0  0  0  0  0  0  0
  160.8350  208.2370  153.6510 C   0  0  0  0  0  0  0  0  0  0  0  0
  160.2820  212.0170  155.0940 N   0  0  0  0  0  1  0  0  0  0  0  0
  160.1200  211.0150  156.1340 C   0  0  0  0  0  2  0  0  0  0  0  0
  162.0580  209.1140  149.1240 C   0  0  0  0  0  2  0  0  0  0  0  0
  161.6400  210.5730  149.1980 C   0  0  0  0  0  2  0  0  0  0  0  0
  162.5670  211.4330  148.3600 C   0  0  0  0  0  2  0  0  0  0  0  0
  161.8260  212.6660  147.8860 C   0  0  2  0  0  3  0  0  0  0  0  0
  162.4040  213.1160  146.6110 N   0  0  0  0  0  0  0  0  0  0  0  0
  162.7350  213.8040  147.8690 C   0  0  0  0  0  2  0  0  0  0  0  0
  161.4190  213.8870  145.9790 N   0  0  0  0  0  2  0  0  0  0  0  0
  160.8860  213.0900  144.8860 C   0  0  0  0  0  2  0  0  0  0  0  0
  159.5940  213.5180  144.5790 O   0  0  0  0  0  0  0  0  0  0  0  0
  158.7680  212.4730  144.9950 C   0  0  0  0  0  2  0  0  0  0  0  0
  157.8370  212.9610  146.0880 C   0  0  0  0  0  2  0  0  0  0  0  0
  158.3300  212.5800  147.3360 O   0  0  0  0  0  0  0  0  0  0  0  0
  158.1240  213.6930  148.1510 C   0  0  0  0  0  2  0  0  0  0  0  0
  156.0010  213.7670  149.2400 O   0  0  0  0  0  1  0  0  0  0  0  0
  156.6740  214.1300  148.0720 C   0  0  0  0  0  2  0  0  0  0  0  0
  161.7100  204.4320  151.2760 C   0  0  0  0  0  2  0  0  0  0  0  0
  160.5560  203.4700  151.0930 C   0  0  0  0  0  2  0  0  0  0  0  0
  160.9810  202.3490  150.1680 C   0  0  0  0  0  2  0  0  0  0  0  0
  160.2870  202.4810  148.8970 N   0  0  0  0  0  2  0  0  0  0  0  0
  160.9910  201.6510  147.9320 C   0  0  0  0  0  2  0  0  0  0  0  0
  161.0150  202.3240  146.5660 C   0  0  0  0  0  2  0  0  0  0  0  0
  161.5570  203.6670  146.6840 N   0  0  0  0  0  2  0  0  0  0  0  0
  160.2920  205.8440  145.4810 O   0  0  0  0  0  1  0  0  0  0  0  0
  161.1670  205.2250  144.8180 C   0  0  0  0  0  0  0  0  0  0  0  0
  161.8410  204.1010  145.3820 N   0  0  0  0  0  2  0  0  0  0  0  0
  161.4780  205.6400  143.5300 O   0  0  0  0  0  0  0  0  0  0  0  0
  2  3  1  0  0  0  0
  3  1  2  0  0  0  0
  3  4  1  0  0  0  0
  4 12  1  0  0  0  0
  5  4  1  0  0  0  0
  6 15  1  6  0  0  0
  6  2  1  0  0  0  0
  6  5  1  0  0  0  0
  7 10  1  0  0  0  0
  8  7  2  0  0  0  0
  9 11  1  0  0  0  0
 11 14  1  0  0  0  0
 11 10  2  0  0  0  0
 12  9  2  0  0  0  0
 12  8  1  0  0  0  0
 13 14  1  0  0  0  0
 15 16  1  0  0  0  0
 17 16  1  0  0  0  0
 18 17  1  1  0  0  0
 19 20  1  0  0  0  0
 19 18  1  0  0  0  0
 20 18  1  0  0  0  0
 21 19  1  0  0  0  0
 22 21  1  0  0  0  0
 23 22  1  0  0  0  0
 23 24  1  0  0  0  0
 24 25  1  0  0  0  0
 25 26  1  0  0  0  0
 26 27  1  0  0  0  0
 29 27  1  0  0  0  0
 29 28  1  0  0  0  0
 30  1  1  0  0  0  0
 31 30  1  0  0  0  0
 32 31  1  0  0  0  0
 33 32  1  0  0  0  0
 34 33  1  0  0  0  0
 35 36  1  0  0  0  0
 35 34  1  0  0  0  0
 38 39  1  0  0  0  0
 38 37  1  0  0  0  0
 39 36  1  0  0  0  0
 40 38  2  0  0  0  0
M  END
>  <MODEL>
5

>  <REMARK>
 VINA RESULT:      -6.3      2.829      4.897
  Name = 
  22 active torsions:
  status: ('A' for Active; 'I' for Inactive)
    1  A    between atoms: O_1  and  C_8
    2  A    between atoms: O_1  and  C_22
    3  A    between atoms: C_2  and  O_4
    4  A    between atoms: C_2  and  C_8
    5  A    between atoms: N_3  and  C_26
    6  A    between atoms: N_3  and  N_27
    7  A    between atoms: O_4  and  C_19
    8  A    between atoms: C_5  and  C_20
    9  A    between atoms: C_7  and  C_40
   10  A    between atoms: C_16  and  N_17
   11  A    between atoms: C_16  and  C_26
   12  A    between atoms: N_17  and  C_31
   13  A    between atoms: C_18  and  C_35
   14  A    between atoms: C_19  and  C_24
   15  A    between atoms: C_20  and  C_28
   16  A    between atoms: C_22  and  N_32
   17  A    between atoms: C_25  and  C_37
   18  A    between atoms: C_25  and  C_38
   19  A    between atoms: C_28  and  C_31
   20  A    between atoms: N_29  and  C_39
   21  A    between atoms: N_32  and  N_33
   22  A    between atoms: C_37  and  C_40
                            x       y       z     vdW  Elec       q    Type
                         _______ _______ _______ _____ _____    ______ ____

>  <TORSDO>
F 22

$$$$
=
 OpenBabel11052411503D

 40 42  0  0  1  0  0  0  0  0999 V2000
  161.4410  207.6710  149.9280 C   0  0  0  0  0  3  0  0  0  0  0  0
  161.7990  207.2060  152.2410 O   0  0  0  0  0  0  0  0  0  0  0  0
  161.4360  206.8530  150.9780 C   0  0  0  0  0  0  0  0  0  0  0  0
  161.0410  205.4980  150.9820 N   0  0  0  0  0  0  0  0  0  0  0  0
  161.0040  205.0350  152.2650 O   0  0  0  0  0  0  0  0  0  0  0  0
  161.6830  206.0290  153.0330 C   0  0  2  0  0  3  0  0  0  0  0  0
  160.6440  202.3800  148.9530 C   0  0  0  0  0  3  0  0  0  0  0  0
  160.6210  203.2770  150.0250 C   0  0  0  0  0  3  0  0  0  0  0  0
  161.5610  204.9950  148.6070 C   0  0  0  0  0  3  0  0  0  0  0  0
  161.1250  202.7900  147.7080 C   0  0  0  0  0  3  0  0  0  0  0  0
  161.5810  204.1000  147.5330 C   0  0  0  0  0  0  0  0  0  0  0  0
  161.0790  204.5930  149.8640 C   0  0  0  0  0  0  0  0  0  0  0  0
  162.1720  205.9880  146.1640 N   0  0  0  0  0  1  0  0  0  0  0  0
  162.1100  204.5370  146.2130 C   0  0  0  0  0  2  0  0  0  0  0  0
  160.9010  206.3210  154.3060 C   0  0  0  0  0  2  0  0  0  0  0  0
  160.8930  207.8110  154.6070 C   0  0  0  0  0  2  0  0  0  0  0  0
  160.1860  208.0830  155.9210 C   0  0  0  0  0  2  0  0  0  0  0  0
  160.7420  209.3440  156.5470 C   0  0  2  0  0  3  0  0  0  0  0  0
  161.4970  210.0940  155.5320 N   0  0  0  0  0  0  0  0  0  0  0  0
  162.1980  209.2880  156.5440 C   0  0  0  0  0  2  0  0  0  0  0  0
  161.5440  211.4230  155.9740 N   0  0  0  0  0  2  0  0  0  0  0  0
  160.1710  211.8910  156.0740 C   0  0  0  0  0  2  0  0  0  0  0  0
  159.8550  212.6650  154.9570 O   0  0  0  0  0  0  0  0  0  0  0  0
  159.2900  213.8280  155.4800 C   0  0  0  0  0  2  0  0  0  0  0  0
  157.9480  214.0850  154.8240 C   0  0  0  0  0  2  0  0  0  0  0  0
  157.4990  212.9250  154.1920 O   0  0  0  0  0  0  0  0  0  0  0  0
  156.2140  212.7250  154.6940 C   0  0  0  0  0  2  0  0  0  0  0  0
  156.5450  211.5660  156.7550 O   0  0  0  0  0  1  0  0  0  0  0  0
  156.1460  211.3990  155.4280 C   0  0  0  0  0  2  0  0  0  0  0  0
  161.8660  209.0910  150.0560 C   0  0  0  0  0  2  0  0  0  0  0  0
  162.0500  209.6880  148.6770 C   0  0  0  0  0  2  0  0  0  0  0  0
  161.9240  211.1950  148.7640 C   0  0  0  0  0  2  0  0  0  0  0  0
  161.4060  211.7110  147.5080 N   0  0  0  0  0  2  0  0  0  0  0  0
  160.6100  212.8880  147.8200 C   0  0  0  0  0  2  0  0  0  0  0  0
  161.1430  213.5780  149.0680 C   0  0  0  0  0  2  0  0  0  0  0  0
  160.0400  213.9540  149.9370 N   0  0  0  0  0  2  0  0  0  0  0  0
  157.5870  213.3880  151.1390 O   0  0  0  0  0  1  0  0  0  0  0  0
  157.6330  213.4400  149.8810 C   0  0  0  0  0  0  0  0  0  0  0  0
  158.8620  213.7200  149.2140 N   0  0  0  0  0  2  0  0  0  0  0  0
  156.4790  213.2250  149.1390 O   0  0  0  0  0  0  0  0  0  0  0  0
  1 30  1  0  0  0  0
  1  3  2  0  0  0  0
  2  6  1  0  0  0  0
  3  4  1  0  0  0  0
  3  2  1  0  0  0  0
  4  5  1  0  0  0  0
  5  6  1  0  0  0  0
  6 15  1  1  0  0  0
  7  8  1  0  0  0  0
  9 12  1  0  0  0  0
 10  7  2  0  0  0  0
 11 10  1  0  0  0  0
 11  9  2  0  0  0  0
 12  8  2  0  0  0  0
 12  4  1  0  0  0  0
 13 14  1  0  0  0  0
 14 11  1  0  0  0  0
 15 16  1  0  0  0  0
 16 17  1  0  0  0  0
 18 17  1  6  0  0  0
 19 21  1  0  0  0  0
 19 20  1  0  0  0  0
 19 18  1  0  0  0  0
 20 18  1  0  0  0  0
 21 22  1  0  0  0  0
 23 24  1  0  0  0  0
 23 22  1  0  0  0  0
 25 24  1  0  0  0  0
 26 27  1  0  0  0  0
 26 25  1  0  0  0  0
 27 29  1  0  0  0  0
 29 28  1  0  0  0  0
 31 32  1  0  0  0  0
 31 30  1  0  0  0  0
 33 34  1  0  0  0  0
 33 32  1  0  0  0  0
 34 35  1  0  0  0  0
 35 36  1  0  0  0  0
 38 37  1  0  0  0  0
 39 38  1  0  0  0  0
 39 36  1  0  0  0  0
 40 38  2  0  0  0  0
M  END
>  <MODEL>
6

>  <REMARK>
 VINA RESULT:      -6.3      4.404     10.206
  Name = 
  22 active torsions:
  status: ('A' for Active; 'I' for Inactive)
    1  A    between atoms: O_1  and  C_8
    2  A    between atoms: O_1  and  C_22
    3  A    between atoms: C_2  and  O_4
    4  A    between atoms: C_2  and  C_8
    5  A    between atoms: N_3  and  C_26
    6  A    between atoms: N_3  and  N_27
    7  A    between atoms: O_4  and  C_19
    8  A    between atoms: C_5  and  C_20
    9  A    between atoms: C_7  and  C_40
   10  A    between atoms: C_16  and  N_17
   11  A    between atoms: C_16  and  C_26
   12  A    between atoms: N_17  and  C_31
   13  A    between atoms: C_18  and  C_35
   14  A    between atoms: C_19  and  C_24
   15  A    between atoms: C_20  and  C_28
   16  A    between atoms: C_22  and  N_32
   17  A    between atoms: C_25  and  C_37
   18  A    between atoms: C_25  and  C_38
   19  A    between atoms: C_28  and  C_31
   20  A    between atoms: N_29  and  C_39
   21  A    between atoms: N_32  and  N_33
   22  A    between atoms: C_37  and  C_40
                            x       y       z     vdW  Elec       q    Type
                         _______ _______ _______ _____ _____    ______ ____

>  <TORSDO>
F 22

$$$$
=
 OpenBabel11052411503D

 40 42  0  0  1  0  0  0  0  0999 V2000
  161.4910  206.4260  149.0900 C   0  0  0  0  0  3  0  0  0  0  0  0
  161.9070  206.4580  151.4390 O   0  0  0  0  0  0  0  0  0  0  0  0
  161.4920  205.8550  150.2920 C   0  0  0  0  0  0  0  0  0  0  0  0
  161.0530  204.5490  150.6000 N   0  0  0  0  0  0  0  0  0  0  0  0
  161.0410  204.3760  151.9530 O   0  0  0  0  0  0  0  0  0  0  0  0
  161.7770  205.4850  152.4710 C   0  0  2  0  0  3  0  0  0  0  0  0
  160.8660  201.0180  149.3770 C   0  0  0  0  0  3  0  0  0  0  0  0
  160.8990  202.1280  150.2270 C   0  0  0  0  0  3  0  0  0  0  0  0
  161.1170  203.5870  148.3120 C   0  0  0  0  0  3  0  0  0  0  0  0
  160.9580  201.1930  147.9950 C   0  0  0  0  0  3  0  0  0  0  0  0
  161.0800  202.4790  147.4610 C   0  0  0  0  0  0  0  0  0  0  0  0
  161.0260  203.4240  149.7040 C   0  0  0  0  0  0  0  0  0  0  0  0
  160.3300  201.7260  145.3030 N   0  0  0  0  0  1  0  0  0  0  0  0
  161.1960  202.6690  145.9890 C   0  0  0  0  0  2  0  0  0  0  0  0
  161.0470  206.0760  153.6680 C   0  0  0  0  0  2  0  0  0  0  0  0
  161.1580  207.5910  153.6770 C   0  0  0  0  0  2  0  0  0  0  0  0
  160.5260  208.1620  154.9320 C   0  0  0  0  0  2  0  0  0  0  0  0
  161.0740  209.5500  155.1910 C   0  0  2  0  0  3  0  0  0  0  0  0
  160.1830  210.5440  154.5730 N   0  0  0  0  0  0  0  0  0  0  0  0
  161.4510  210.1690  153.9270 C   0  0  0  0  0  2  0  0  0  0  0  0
  160.4150  211.7540  155.2400 N   0  0  0  0  0  2  0  0  0  0  0  0
  159.1590  212.4860  155.2500 C   0  0  0  0  0  2  0  0  0  0  0  0
  159.4120  213.8560  155.1660 O   0  0  0  0  0  0  0  0  0  0  0  0
  158.3200  214.3750  154.4700 C   0  0  0  0  0  2  0  0  0  0  0  0
  157.6590  213.2760  153.6610 C   0  0  0  0  0  2  0  0  0  0  0  0
  157.4630  213.7070  152.3480 O   0  0  0  0  0  0  0  0  0  0  0  0
  158.6700  214.3060  151.9900 C   0  0  0  0  0  2  0  0  0  0  0  0
  160.1370  212.4750  151.5480 O   0  0  0  0  0  1  0  0  0  0  0  0
  159.3700  213.4680  150.9360 C   0  0  0  0  0  2  0  0  0  0  0  0
  161.9660  207.8220  148.8960 C   0  0  0  0  0  2  0  0  0  0  0  0
  161.5020  208.6790  150.0540 C   0  0  0  0  0  2  0  0  0  0  0  0
  162.1990  210.0220  149.9940 C   0  0  0  0  0  2  0  0  0  0  0  0
  162.0020  210.6110  148.6800 N   0  0  0  0  0  2  0  0  0  0  0  0
  162.3320  212.0240  148.7860 C   0  0  0  0  0  2  0  0  0  0  0  0
  162.1590  212.7150  147.4400 C   0  0  0  0  0  2  0  0  0  0  0  0
  160.9490  213.5210  147.4490 N   0  0  0  0  0  2  0  0  0  0  0  0
  158.2560  212.8100  147.6120 O   0  0  0  0  0  1  0  0  0  0  0  0
  158.8130  212.7690  146.4820 C   0  0  0  0  0  0  0  0  0  0  0  0
  160.1890  213.1170  146.3420 N   0  0  0  0  0  2  0  0  0  0  0  0
  158.0830  212.3850  145.3650 O   0  0  0  0  0  0  0  0  0  0  0  0
  1  3  2  0  0  0  0
  2  6  1  0  0  0  0
  3  4  1  0  0  0  0
  3  2  1  0  0  0  0
  4  5  1  0  0  0  0
  5  6  1  0  0  0  0
  6 15  1  1  0  0  0
  7  8  1  0  0  0  0
  9 12  1  0  0  0  0
 10  7  2  0  0  0  0
 11 10  1  0  0  0  0
 11  9  2  0  0  0  0
 12  8  2  0  0  0  0
 12  4  1  0  0  0  0
 13 14  1  0  0  0  0
 14 11  1  0  0  0  0
 15 16  1  0  0  0  0
 16 17  1  0  0  0  0
 18 17  1  6  0  0  0
 19 18  1  0  0  0  0
 19 21  1  0  0  0  0
 20 19  1  0  0  0  0
 20 18  1  0  0  0  0
 21 22  1  0  0  0  0
 23 22  1  0  0  0  0
 24 23  1  0  0  0  0
 25 24  1  0  0  0  0
 26 25  1  0  0  0  0
 27 26  1  0  0  0  0
 29 28  1  0  0  0  0
 29 27  1  0  0  0  0
 30  1  1  0  0  0  0
 30 31  1  0  0  0  0
 32 31  1  0  0  0  0
 33 34  1  0  0  0  0
 33 32  1  0  0  0  0
 35 36  1  0  0  0  0
 35 34  1  0  0  0  0
 38 37  1  0  0  0  0
 39 38  1  0  0  0  0
 39 36  1  0  0  0  0
 40 38  2  0  0  0  0
M  END
>  <MODEL>
7

>  <REMARK>
 VINA RESULT:      -6.3      3.605      9.433
  Name = 
  22 active torsions:
  status: ('A' for Active; 'I' for Inactive)
    1  A    between atoms: O_1  and  C_8
    2  A    between atoms: O_1  and  C_22
    3  A    between atoms: C_2  and  O_4
    4  A    between atoms: C_2  and  C_8
    5  A    between atoms: N_3  and  C_26
    6  A    between atoms: N_3  and  N_27
    7  A    between atoms: O_4  and  C_19
    8  A    between atoms: C_5  and  C_20
    9  A    between atoms: C_7  and  C_40
   10  A    between atoms: C_16  and  N_17
   11  A    between atoms: C_16  and  C_26
   12  A    between atoms: N_17  and  C_31
   13  A    between atoms: C_18  and  C_35
   14  A    between atoms: C_19  and  C_24
   15  A    between atoms: C_20  and  C_28
   16  A    between atoms: C_22  and  N_32
   17  A    between atoms: C_25  and  C_37
   18  A    between atoms: C_25  and  C_38
   19  A    between atoms: C_28  and  C_31
   20  A    between atoms: N_29  and  C_39
   21  A    between atoms: N_32  and  N_33
   22  A    between atoms: C_37  and  C_40
                            x       y       z     vdW  Elec       q    Type
                         _______ _______ _______ _____ _____    ______ ____

>  <TORSDO>
F 22

$$$$
=
 OpenBabel11052411503D

 40 42  0  0  1  0  0  0  0  0999 V2000
  161.9160  206.9110  149.5060 C   0  0  0  0  0  3  0  0  0  0  0  0
  162.0650  206.7180  151.8790 O   0  0  0  0  0  0  0  0  0  0  0  0
  161.7160  206.2570  150.6470 C   0  0  0  0  0  0  0  0  0  0  0  0
  161.0990  204.9960  150.7940 N   0  0  0  0  0  0  0  0  0  0  0  0
  160.9140  204.7270  152.1180 O   0  0  0  0  0  0  0  0  0  0  0  0
  161.7090  205.6960  152.8040 C   0  0  2  0  0  3  0  0  0  0  0  0
  160.6560  201.6130  149.2590 C   0  0  0  0  0  3  0  0  0  0  0  0
  160.7190  202.6450  150.2000 C   0  0  0  0  0  3  0  0  0  0  0  0
  161.3040  204.2060  148.4490 C   0  0  0  0  0  3  0  0  0  0  0  0
  160.9160  201.8780  147.9130 C   0  0  0  0  0  3  0  0  0  0  0  0
  161.2370  203.1760  147.5060 C   0  0  0  0  0  0  0  0  0  0  0  0
  161.0440  203.9520  149.8050 C   0  0  0  0  0  0  0  0  0  0  0  0
  162.2270  204.7310  145.9590 N   0  0  0  0  0  1  0  0  0  0  0  0
  161.5310  203.4600  146.0750 C   0  0  0  0  0  2  0  0  0  0  0  0
  160.9210  206.2820  153.9660 C   0  0  0  0  0  2  0  0  0  0  0  0
  160.9640  207.8010  153.9380 C   0  0  0  0  0  2  0  0  0  0  0  0
  160.6670  208.3650  155.3150 C   0  0  0  0  0  2  0  0  0  0  0  0
  161.3600  209.7010  155.4770 C   0  0  2  0  0  3  0  0  0  0  0  0
  160.3460  210.7580  155.6100 N   0  0  0  0  0  0  0  0  0  0  0  0
  161.0500  210.5520  154.3350 C   0  0  0  0  0  2  0  0  0  0  0  0
  160.9760  211.8340  156.2480 N   0  0  0  0  0  2  0  0  0  0  0  0
  159.9300  212.6780  156.8030 C   0  0  0  0  0  2  0  0  0  0  0  0
  160.0570  213.9750  156.3050 O   0  0  0  0  0  0  0  0  0  0  0  0
  158.7750  214.3150  155.8720 C   0  0  0  0  0  2  0  0  0  0  0  0
  158.6010  213.9100  154.4220 C   0  0  0  0  0  2  0  0  0  0  0  0
  157.2950  213.4680  154.2070 O   0  0  0  0  0  0  0  0  0  0  0  0
  157.4060  212.0820  154.0940 C   0  0  0  0  0  2  0  0  0  0  0  0
  156.6130  211.4550  156.2570 O   0  0  0  0  0  1  0  0  0  0  0  0
  156.3090  211.4080  154.8950 C   0  0  0  0  0  2  0  0  0  0  0  0
  162.5670  208.2480  149.4830 C   0  0  0  0  0  2  0  0  0  0  0  0
  161.7710  209.1820  148.5960 C   0  0  0  0  0  2  0  0  0  0  0  0
  162.0890  210.6160  148.9670 C   0  0  0  0  0  2  0  0  0  0  0  0
  161.5460  211.5090  147.9570 N   0  0  0  0  0  2  0  0  0  0  0  0
  162.1200  212.8240  148.1900 C   0  0  0  0  0  2  0  0  0  0  0  0
  161.3500  213.8870  147.4180 C   0  0  0  0  0  2  0  0  0  0  0  0
  162.0910  214.2710  146.2280 N   0  0  0  0  0  2  0  0  0  0  0  0
  163.6020  213.2710  144.1060 O   0  0  0  0  0  1  0  0  0  0  0  0
  162.3600  213.0550  144.1040 C   0  0  0  0  0  0  0  0  0  0  0  0
  161.5400  213.5480  145.1610 N   0  0  0  0  0  2  0  0  0  0  0  0
  161.7870  212.3320  143.0670 O   0  0  0  0  0  0  0  0  0  0  0  0
  1  3  2  0  0  0  0
  2  6  1  0  0  0  0
  3  4  1  0  0  0  0
  3  2  1  0  0  0  0
  4  5  1  0  0  0  0
  5  6  1  0  0  0  0
  6 15  1  1  0  0  0
  7  8  1  0  0  0  0
  9 12  1  0  0  0  0
 10  7  2  0  0  0  0
 11 10  1  0  0  0  0
 11  9  2  0  0  0  0
 12  8  2  0  0  0  0
 12  4  1  0  0  0  0
 13 14  1  0  0  0  0
 14 11  1  0  0  0  0
 16 15  1  0  0  0  0
 16 17  1  0  0  0  0
 18 17  1  6  0  0  0
 18 19  1  0  0  0  0
 19 21  1  0  0  0  0
 20 18  1  0  0  0  0
 20 19  1  0  0  0  0
 21 22  1  0  0  0  0
 23 22  1  0  0  0  0
 24 23  1  0  0  0  0
 25 24  1  0  0  0  0
 26 25  1  0  0  0  0
 27 26  1  0  0  0  0
 27 29  1  0  0  0  0
 29 28  1  0  0  0  0
 30  1  1  0  0  0  0
 31 32  1  0  0  0  0
 31 30  1  0  0  0  0
 33 34  1  0  0  0  0
 33 32  1  0  0  0  0
 35 34  1  0  0  0  0
 36 35  1  0  0  0  0
 38 37  1  0  0  0  0
 38 39  1  0  0  0  0
 39 36  1  0  0  0  0
 40 38  2  0  0  0  0
M  END
>  <MODEL>
8

>  <REMARK>
 VINA RESULT:      -6.3      3.311     10.207
  Name = 
  22 active torsions:
  status: ('A' for Active; 'I' for Inactive)
    1  A    between atoms: O_1  and  C_8
    2  A    between atoms: O_1  and  C_22
    3  A    between atoms: C_2  and  O_4
    4  A    between atoms: C_2  and  C_8
    5  A    between atoms: N_3  and  C_26
    6  A    between atoms: N_3  and  N_27
    7  A    between atoms: O_4  and  C_19
    8  A    between atoms: C_5  and  C_20
    9  A    between atoms: C_7  and  C_40
   10  A    between atoms: C_16  and  N_17
   11  A    between atoms: C_16  and  C_26
   12  A    between atoms: N_17  and  C_31
   13  A    between atoms: C_18  and  C_35
   14  A    between atoms: C_19  and  C_24
   15  A    between atoms: C_20  and  C_28
   16  A    between atoms: C_22  and  N_32
   17  A    between atoms: C_25  and  C_37
   18  A    between atoms: C_25  and  C_38
   19  A    between atoms: C_28  and  C_31
   20  A    between atoms: N_29  and  C_39
   21  A    between atoms: N_32  and  N_33
   22  A    between atoms: C_37  and  C_40
                            x       y       z     vdW  Elec       q    Type
                         _______ _______ _______ _____ _____    ______ ____

>  <TORSDO>
F 22

$$$$
=
 OpenBabel11052411503D

 40 42  0  0  1  0  0  0  0  0999 V2000
  161.6050  210.3210  151.3190 C   0  0  0  0  0  3  0  0  0  0  0  0
  162.3910  208.2430  150.4500 O   0  0  0  0  0  0  0  0  0  0  0  0
  161.9490  209.5230  150.3120 C   0  0  0  0  0  0  0  0  0  0  0  0
  161.9050  209.8410  148.9370 N   0  0  0  0  0  0  0  0  0  0  0  0
  162.1640  208.7230  148.1990 O   0  0  0  0  0  0  0  0  0  0  0  0
  162.6800  207.7770  149.1360 C   0  0  2  0  0  3  0  0  0  0  0  0
  163.3590  213.1060  147.8340 C   0  0  0  0  0  3  0  0  0  0  0  0
  163.2340  211.8300  148.3900 C   0  0  0  0  0  3  0  0  0  0  0  0
  160.9010  211.7830  147.7610 C   0  0  0  0  0  3  0  0  0  0  0  0
  162.2540  213.7210  147.2410 C   0  0  0  0  0  3  0  0  0  0  0  0
  161.0240  213.0580  147.2010 C   0  0  0  0  0  0  0  0  0  0  0  0
  162.0050  211.1550  148.3610 C   0  0  0  0  0  0  0  0  0  0  0  0
  158.8940  212.7070  146.1390 N   0  0  0  0  0  1  0  0  0  0  0  0
  159.8400  213.7150  146.5850 C   0  0  0  0  0  2  0  0  0  0  0  0
  162.0400  206.4160  148.9020 C   0  0  0  0  0  2  0  0  0  0  0  0
  160.5640  206.4430  149.2640 C   0  0  0  0  0  2  0  0  0  0  0  0
  160.3270  205.7230  150.5780 C   0  0  0  0  0  2  0  0  0  0  0  0
  161.2960  204.5670  150.7060 C   0  0  2  0  0  3  0  0  0  0  0  0
  160.5410  203.3270  150.9410 N   0  0  0  0  0  0  0  0  0  0  0  0
  161.2180  204.0130  152.0520 C   0  0  0  0  0  2  0  0  0  0  0  0
  161.3770  202.2730  150.5500 N   0  0  0  0  0  2  0  0  0  0  0  0
  160.5360  201.2690  149.9170 C   0  0  0  0  0  2  0  0  0  0  0  0
  161.0290  200.9760  148.6450 O   0  0  0  0  0  0  0  0  0  0  0  0
  160.4650  201.9460  147.8160 C   0  0  0  0  0  2  0  0  0  0  0  0
  161.5590  202.6560  147.0430 C   0  0  0  0  0  2  0  0  0  0  0  0
  161.1830  202.7890  145.7050 O   0  0  0  0  0  0  0  0  0  0  0  0
  161.8270  203.9480  145.2720 C   0  0  0  0  0  2  0  0  0  0  0  0
  161.2140  205.8020  143.8990 O   0  0  0  0  0  1  0  0  0  0  0  0
  160.8040  205.0320  144.9890 C   0  0  0  0  0  2  0  0  0  0  0  0
  161.6820  209.8620  152.7320 C   0  0  0  0  0  2  0  0  0  0  0  0
  160.3350  210.0490  153.3970 C   0  0  0  0  0  2  0  0  0  0  0  0
  160.4350  211.1540  154.4270 C   0  0  0  0  0  2  0  0  0  0  0  0
  161.6890  211.0300  155.1510 N   0  0  0  0  0  2  0  0  0  0  0  0
  161.3600  210.7710  156.5440 C   0  0  0  0  0  2  0  0  0  0  0  0
  162.4000  209.8570  157.1780 C   0  0  0  0  0  2  0  0  0  0  0  0
  162.2730  208.5130  156.6410 N   0  0  0  0  0  2  0  0  0  0  0  0
  160.8510  206.9540  154.8150 O   0  0  0  0  0  0  0  0  0  0  0  0
  160.2600  207.3280  155.8630 C   0  0  0  0  0  0  0  0  0  0  0  0
  160.9370  208.1310  156.8280 N   0  0  0  0  0  2  0  0  0  0  0  0
  158.9410  206.9540  156.0820 O   0  0  0  0  0  1  0  0  0  0  0  0
  1 30  1  0  0  0  0
  3  2  1  0  0  0  0
  3  1  2  0  0  0  0
  4  3  1  0  0  0  0
  5  4  1  0  0  0  0
  5  6  1  0  0  0  0
  6 15  1  6  0  0  0
  6  2  1  0  0  0  0
  7  8  1  0  0  0  0
  9 12  1  0  0  0  0
 10  7  2  0  0  0  0
 11 10  1  0  0  0  0
 11  9  2  0  0  0  0
 12  8  2  0  0  0  0
 12  4  1  0  0  0  0
 13 14  1  0  0  0  0
 14 11  1  0  0  0  0
 15 16  1  0  0  0  0
 16 17  1  0  0  0  0
 18 17  1  1  0  0  0
 18 19  1  0  0  0  0
 18 20  1  0  0  0  0
 19 20  1  0  0  0  0
 21 19  1  0  0  0  0
 22 21  1  0  0  0  0
 23 22  1  0  0  0  0
 24 23  1  0  0  0  0
 25 24  1  0  0  0  0
 26 25  1  0  0  0  0
 27 26  1  0  0  0  0
 28 29  1  0  0  0  0
 29 27  1  0  0  0  0
 30 31  1  0  0  0  0
 31 32  1  0  0  0  0
 32 33  1  0  0  0  0
 33 34  1  0  0  0  0
 34 35  1  0  0  0  0
 36 39  1  0  0  0  0
 36 35  1  0  0  0  0
 37 38  2  0  0  0  0
 38 40  1  0  0  0  0
 38 39  1  0  0  0  0
M  END
>  <MODEL>
9

>  <REMARK>
 VINA RESULT:      -6.1      3.291      9.083
  Name = 
  22 active torsions:
  status: ('A' for Active; 'I' for Inactive)
    1  A    between atoms: O_1  and  C_8
    2  A    between atoms: O_1  and  C_22
    3  A    between atoms: C_2  and  O_4
    4  A    between atoms: C_2  and  C_8
    5  A    between atoms: N_3  and  C_26
    6  A    between atoms: N_3  and  N_27
    7  A    between atoms: O_4  and  C_19
    8  A    between atoms: C_5  and  C_20
    9  A    between atoms: C_7  and  C_40
   10  A    between atoms: C_16  and  N_17
   11  A    between atoms: C_16  and  C_26
   12  A    between atoms: N_17  and  C_31
   13  A    between atoms: C_18  and  C_35
   14  A    between atoms: C_19  and  C_24
   15  A    between atoms: C_20  and  C_28
   16  A    between atoms: C_22  and  N_32
   17  A    between atoms: C_25  and  C_37
   18  A    between atoms: C_25  and  C_38
   19  A    between atoms: C_28  and  C_31
   20  A    between atoms: N_29  and  C_39
   21  A    between atoms: N_32  and  N_33
   22  A    between atoms: C_37  and  C_40
                            x       y       z     vdW  Elec       q    Type
                         _______ _______ _______ _____ _____    ______ ____

>  <TORSDO>
F 22

$$$$
