=
 OpenBabel11052411533D

 32 34  0  0  1  0  0  0  0  0999 V2000
  160.6490  208.5090  152.5050 C   0  0  0  0  0  2  0  0  0  0  0  0
  161.3400  209.1230  153.7090 C   0  0  1  0  0  3  0  0  0  0  0  0
  160.9320  210.5980  153.8520 C   0  0  0  0  0  2  0  0  0  0  0  0
  161.0460  208.2840  154.9620 C   0  0  0  0  0  2  0  0  0  0  0  0
  159.9470  208.9050  155.8220 C   0  0  0  0  0  2  0  0  0  0  0  0
  160.3530  210.3060  156.3040 C   0  0  1  0  0  3  0  0  0  0  0  0
  161.1750  211.0960  155.2740 C   0  0  0  0  0  2  0  0  0  0  0  0
  159.1650  211.0620  156.6640 N   0  0  0  0  0  2  0  0  0  0  0  0
  159.5750  212.7770  156.5420 S   0  0  0  0  0  0  0  0  0  0  0  0
  157.8280  213.2650  156.3800 C   0  0  0  0  0  2  0  0  0  0  0  0
  156.3330  211.9710  154.7410 C   0  0  0  0  0  2  0  0  0  0  0  0
  155.8860  213.4200  154.6720 C   0  0  2  0  0  0  0  0  0  0  0  0
  157.3430  213.0910  154.9470 C   0  0  1  0  0  0  0  0  0  0  0  0
  155.1000  213.7900  155.7650 O   0  0  0  0  0  1  0  0  0  0  0  0
  155.4290  213.8560  153.2910 C   0  0  0  0  0  1  0  0  0  0  0  0
  158.3280  213.2630  153.8020 C   0  0  0  0  0  1  0  0  0  0  0  0
  161.3710  208.8170  151.3220 O   0  0  0  0  0  0  0  0  0  0  0  0
  161.8590  206.5560  147.5240 C   0  0  0  0  0  0  0  0  0  0  0  0
  162.3300  208.2300  149.2990 N   0  0  0  0  0  0  0  0  0  0  0  0
  160.4990  206.2190  147.9790 C   0  0  0  0  0  3  0  0  0  0  0  0
  162.6460  207.4700  148.1200 C   0  0  0  0  0  3  0  0  0  0  0  0
  160.9730  206.5130  150.4060 C   0  0  2  0  0  3  0  0  0  0  0  0
  160.0830  206.2200  149.2450 C   0  0  0  0  0  3  0  0  0  0  0  0
  161.5780  207.8850  150.3020 C   0  0  0  0  0  0  0  0  0  0  0  0
  161.9720  205.5400  150.5280 O   0  0  0  0  0  0  0  0  0  0  0  0
  161.8030  205.0030  151.8060 C   0  0  0  0  0  1  0  0  0  0  0  0
  162.3010  205.9410  146.3090 N   0  0  0  0  0  2  0  0  0  0  0  0
  162.6850  204.5920  146.2340 N   0  0  0  0  0  2  0  0  0  0  0  0
  161.5980  203.8680  145.5920 C   0  0  0  0  0  2  0  0  0  0  0  0
  161.1920  202.6670  146.4310 C   0  0  0  0  0  2  0  0  0  0  0  0
  161.5120  202.8890  147.9010 C   0  0  0  0  0  2  0  0  0  0  0  0
  160.4980  202.1850  148.7820 C   0  0  0  0  0  1  0  0  0  0  0  0
  2  1  1  6  0  0  0
  2  3  1  0  0  0  0
  2  4  1  0  0  0  0
  3  7  1  0  0  0  0
  4  5  1  0  0  0  0
  5  6  1  0  0  0  0
  6  8  1  6  0  0  0
  7  6  1  0  0  0  0
  9  8  1  0  0  0  0
 10  9  1  0  0  0  0
 11 13  1  0  0  0  0
 12 15  1  6  0  0  0
 12 11  1  0  0  0  0
 12 13  1  0  0  0  0
 12 14  1  0  0  0  0
 13 16  1  6  0  0  0
 13 10  1  0  0  0  0
 17  1  1  0  0  0  0
 18 20  1  0  0  0  0
 18 21  2  0  0  0  0
 19 24  2  0  0  0  0
 20 23  2  0  0  0  0
 21 19  1  0  0  0  0
 22 25  1  6  0  0  0
 23 22  1  0  0  0  0
 24 22  1  0  0  0  0
 24 17  1  0  0  0  0
 25 26  1  0  0  0  0
 27 18  1  0  0  0  0
 28 27  1  0  0  0  0
 29 28  1  0  0  0  0
 29 30  1  0  0  0  0
 30 31  1  0  0  0  0
 31 32  1  0  0  0  0
M  END
>  <MODEL>
1

>  <REMARK>
 VINA RESULT:      -6.3      0.000      0.000
  Name = 
  13 active torsions:
  status: ('A' for Active; 'I' for Inactive)
    1  A    between atoms: C_1  and  N_2
    2  A    between atoms: C_1  and  C_19
    3  A    between atoms: N_2  and  N_12
    4  A    between atoms: C_3  and  C_11
    5  A    between atoms: C_6  and  N_12
    6  A    between atoms: C_11  and  O_25
    7  A    between atoms: C_14  and  N_17
    8  A    between atoms: C_15  and  O_20
    9  A    between atoms: C_16  and  S_18
   10  A    between atoms: C_16  and  C_26
   11  A    between atoms: N_17  and  S_18
   12  A    between atoms: C_19  and  C_23
   13  A    between atoms: O_25  and  C_32
                            x       y       z     vdW  Elec       q    Type
                         _______ _______ _______ _____ _____    ______ ____

>  <TORSDO>
F 13

$$$$
=
 OpenBabel11052411533D

 32 34  0  0  1  0  0  0  0  0999 V2000
  162.3810  208.0640  150.3910 C   0  0  0  0  0  2  0  0  0  0  0  0
  161.2050  208.1250  151.3500 C   0  0  1  0  0  3  0  0  0  0  0  0
  161.4790  207.2370  152.5730 C   0  0  0  0  0  2  0  0  0  0  0  0
  160.9040  209.5880  151.7110 C   0  0  0  0  0  2  0  0  0  0  0  0
  161.4750  209.9690  153.0750 C   0  0  0  0  0  2  0  0  0  0  0  0
  160.8720  209.0980  154.1860 C   0  0  1  0  0  3  0  0  0  0  0  0
  160.6020  207.6490  153.7530 C   0  0  0  0  0  2  0  0  0  0  0  0
  161.7500  209.1070  155.3440 N   0  0  0  0  0  2  0  0  0  0  0  0
  161.4120  210.5860  156.2520 S   0  0  0  0  0  0  0  0  0  0  0  0
  159.6220  210.4630  155.9410 C   0  0  0  0  0  2  0  0  0  0  0  0
  158.3700  211.8610  154.1880 C   0  0  0  0  0  2  0  0  0  0  0  0
  157.5290  211.9090  155.4510 C   0  0  2  0  0  0  0  0  0  0  0  0
  159.0420  211.8170  155.5530 C   0  0  1  0  0  0  0  0  0  0  0  0
  156.8040  210.7330  155.6560 O   0  0  0  0  0  1  0  0  0  0  0  0
  156.8090  213.2300  155.6590 C   0  0  0  0  0  1  0  0  0  0  0  0
  159.7970  213.0840  155.9190 C   0  0  0  0  0  1  0  0  0  0  0  0
  161.9130  207.9540  149.0550 O   0  0  0  0  0  0  0  0  0  0  0  0
  161.3710  203.7030  147.8650 C   0  0  0  0  0  0  0  0  0  0  0  0
  161.2160  205.7560  149.2570 N   0  0  0  0  0  0  0  0  0  0  0  0
  162.3980  204.2150  146.9410 C   0  0  0  0  0  3  0  0  0  0  0  0
  160.8760  204.4060  148.9010 C   0  0  0  0  0  3  0  0  0  0  0  0
  161.6070  206.5760  146.9780 C   0  0  2  0  0  3  0  0  0  0  0  0
  162.5340  205.4840  146.5580 C   0  0  0  0  0  3  0  0  0  0  0  0
  161.5800  206.7290  148.4730 C   0  0  0  0  0  0  0  0  0  0  0  0
  160.3180  206.3560  146.4790 O   0  0  0  0  0  0  0  0  0  0  0  0
  160.4830  206.1940  145.1020 C   0  0  0  0  0  1  0  0  0  0  0  0
  160.9770  202.3370  147.6960 N   0  0  0  0  0  2  0  0  0  0  0  0
  161.3210  201.3280  148.6100 N   0  0  0  0  0  2  0  0  0  0  0  0
  160.3970  201.4230  149.7290 C   0  0  0  0  0  2  0  0  0  0  0  0
  161.1450  201.3090  151.0470 C   0  0  0  0  0  2  0  0  0  0  0  0
  161.6940  202.6580  151.4860 C   0  0  0  0  0  2  0  0  0  0  0  0
  160.6640  203.4160  152.3020 C   0  0  0  0  0  1  0  0  0  0  0  0
  2  1  1  6  0  0  0
  2  4  1  0  0  0  0
  2  3  1  0  0  0  0
  3  7  1  0  0  0  0
  4  5  1  0  0  0  0
  5  6  1  0  0  0  0
  6  8  1  1  0  0  0
  7  6  1  0  0  0  0
  8  9  1  0  0  0  0
 10  9  1  0  0  0  0
 11 12  1  0  0  0  0
 11 13  1  0  0  0  0
 12 13  1  0  0  0  0
 12 14  1  0  0  0  0
 12 15  1  1  0  0  0
 13 16  1  1  0  0  0
 13 10  1  0  0  0  0
 17  1  1  0  0  0  0
 18 21  2  0  0  0  0
 20 18  1  0  0  0  0
 21 19  1  0  0  0  0
 22 25  1  1  0  0  0
 22 24  1  0  0  0  0
 23 20  2  0  0  0  0
 23 22  1  0  0  0  0
 24 17  1  0  0  0  0
 24 19  2  0  0  0  0
 26 25  1  0  0  0  0
 27 18  1  0  0  0  0
 27 28  1  0  0  0  0
 28 29  1  0  0  0  0
 29 30  1  0  0  0  0
 30 31  1  0  0  0  0
 31 32  1  0  0  0  0
M  END
>  <MODEL>
2

>  <REMARK>
 VINA RESULT:      -6.2      2.187      3.521
  Name = 
  13 active torsions:
  status: ('A' for Active; 'I' for Inactive)
    1  A    between atoms: C_1  and  N_2
    2  A    between atoms: C_1  and  C_19
    3  A    between atoms: N_2  and  N_12
    4  A    between atoms: C_3  and  C_11
    5  A    between atoms: C_6  and  N_12
    6  A    between atoms: C_11  and  O_25
    7  A    between atoms: C_14  and  N_17
    8  A    between atoms: C_15  and  O_20
    9  A    between atoms: C_16  and  S_18
   10  A    between atoms: C_16  and  C_26
   11  A    between atoms: N_17  and  S_18
   12  A    between atoms: C_19  and  C_23
   13  A    between atoms: O_25  and  C_32
                            x       y       z     vdW  Elec       q    Type
                         _______ _______ _______ _____ _____    ______ ____

>  <TORSDO>
F 13

$$$$
=
 OpenBabel11052411533D

 32 34  0  0  1  0  0  0  0  0999 V2000
  160.6350  206.8660  154.5440 C   0  0  0  0  0  2  0  0  0  0  0  0
  161.6130  206.3310  153.5140 C   0  0  1  0  0  3  0  0  0  0  0  0
  161.1050  204.9940  152.9530 C   0  0  0  0  0  2  0  0  0  0  0  0
  161.8630  207.3930  152.4320 C   0  0  0  0  0  2  0  0  0  0  0  0
  161.0540  207.1210  151.1660 C   0  0  0  0  0  2  0  0  0  0  0  0
  161.4280  205.7620  150.5570 C   0  0  1  0  0  3  0  0  0  0  0  0
  161.7530  204.6870  151.6050 C   0  0  0  0  0  2  0  0  0  0  0  0
  160.3510  205.2970  149.6990 N   0  0  0  0  0  2  0  0  0  0  0  0
  160.9030  203.8120  148.9160 S   0  0  0  0  0  0  0  0  0  0  0  0
  162.1740  204.6950  147.9570 C   0  0  0  0  0  2  0  0  0  0  0  0
  162.5530  205.1420  145.4570 C   0  0  0  0  0  2  0  0  0  0  0  0
  161.3720  204.1920  145.5450 C   0  0  2  0  0  0  0  0  0  0  0  0
  161.6040  205.2160  146.6440 C   0  0  1  0  0  0  0  0  0  0  0  0
  161.7610  202.8770  145.8080 O   0  0  0  0  0  1  0  0  0  0  0  0
  160.3200  204.4190  144.4740 C   0  0  0  0  0  1  0  0  0  0  0  0
  160.7110  206.4450  146.6550 C   0  0  0  0  0  1  0  0  0  0  0  0
  161.2700  207.8440  155.3550 O   0  0  0  0  0  0  0  0  0  0  0  0
  159.1940  211.7680  155.0920 C   0  0  0  0  0  0  0  0  0  0  0  0
  159.6770  209.4500  155.8450 N   0  0  0  0  0  0  0  0  0  0  0  0
  160.0710  211.7370  153.9070 C   0  0  0  0  0  3  0  0  0  0  0  0
  159.0230  210.7270  155.9270 C   0  0  0  0  0  3  0  0  0  0  0  0
  161.8000  210.2610  154.9230 C   0  0  2  0  0  3  0  0  0  0  0  0
  161.2120  211.0560  153.8060 C   0  0  0  0  0  3  0  0  0  0  0  0
  160.8620  209.1800  155.3810 C   0  0  0  0  0  0  0  0  0  0  0  0
  162.1600  211.0900  155.9910 O   0  0  0  0  0  0  0  0  0  0  0  0
  163.1220  210.3690  156.7040 C   0  0  0  0  0  1  0  0  0  0  0  0
  158.4050  212.9480  155.2760 N   0  0  0  0  0  2  0  0  0  0  0  0
  157.8060  213.2790  156.5020 N   0  0  0  0  0  2  0  0  0  0  0  0
  156.4720  213.7810  156.2110 C   0  0  0  0  0  2  0  0  0  0  0  0
  155.6740  212.7480  155.4320 C   0  0  0  0  0  2  0  0  0  0  0  0
  155.4560  211.4870  156.2540 C   0  0  0  0  0  2  0  0  0  0  0  0
  155.3680  210.2690  155.3530 C   0  0  0  0  0  1  0  0  0  0  0  0
  1 17  1  0  0  0  0
  2  1  1  1  0  0  0
  3  2  1  0  0  0  0
  4  2  1  0  0  0  0
  5  4  1  0  0  0  0
  6  8  1  1  0  0  0
  6  5  1  0  0  0  0
  6  7  1  0  0  0  0
  7  3  1  0  0  0  0
  9  8  1  0  0  0  0
 10  9  1  0  0  0  0
 11 12  1  0  0  0  0
 11 13  1  0  0  0  0
 12 15  1  6  0  0  0
 12 14  1  0  0  0  0
 12 13  1  0  0  0  0
 13 16  1  1  0  0  0
 13 10  1  0  0  0  0
 17 24  1  0  0  0  0
 18 27  1  0  0  0  0
 18 21  2  0  0  0  0
 19 21  1  0  0  0  0
 20 18  1  0  0  0  0
 22 24  1  0  0  0  0
 22 25  1  1  0  0  0
 23 20  2  0  0  0  0
 23 22  1  0  0  0  0
 24 19  2  0  0  0  0
 25 26  1  0  0  0  0
 27 28  1  0  0  0  0
 29 28  1  0  0  0  0
 30 29  1  0  0  0  0
 30 31  1  0  0  0  0
 32 31  1  0  0  0  0
M  END
>  <MODEL>
3

>  <REMARK>
 VINA RESULT:      -6.0      3.341     10.159
  Name = 
  13 active torsions:
  status: ('A' for Active; 'I' for Inactive)
    1  A    between atoms: C_1  and  N_2
    2  A    between atoms: C_1  and  C_19
    3  A    between atoms: N_2  and  N_12
    4  A    between atoms: C_3  and  C_11
    5  A    between atoms: C_6  and  N_12
    6  A    between atoms: C_11  and  O_25
    7  A    between atoms: C_14  and  N_17
    8  A    between atoms: C_15  and  O_20
    9  A    between atoms: C_16  and  S_18
   10  A    between atoms: C_16  and  C_26
   11  A    between atoms: N_17  and  S_18
   12  A    between atoms: C_19  and  C_23
   13  A    between atoms: O_25  and  C_32
                            x       y       z     vdW  Elec       q    Type
                         _______ _______ _______ _____ _____    ______ ____

>  <TORSDO>
F 13

$$$$
=
 OpenBabel11052411533D

 32 34  0  0  1  0  0  0  0  0999 V2000
  160.8980  206.0860  153.6430 C   0  0  0  0  0  2  0  0  0  0  0  0
  161.5430  205.5320  152.3860 C   0  0  1  0  0  3  0  0  0  0  0  0
  160.5010  205.4340  151.2610 C   0  0  0  0  0  2  0  0  0  0  0  0
  162.7680  206.3800  152.0120 C   0  0  0  0  0  2  0  0  0  0  0  0
  162.4580  207.3710  150.8930 C   0  0  0  0  0  2  0  0  0  0  0  0
  162.0130  206.6380  149.6180 C   0  0  1  0  0  3  0  0  0  0  0  0
  161.1780  205.3780  149.8930 C   0  0  0  0  0  2  0  0  0  0  0  0
  161.2610  207.5460  148.7690 N   0  0  0  0  0  2  0  0  0  0  0  0
  160.4420  206.5680  147.5450 S   0  0  0  0  0  0  0  0  0  0  0  0
  162.0090  206.1510  146.7160 C   0  0  0  0  0  2  0  0  0  0  0  0
  162.9210  204.0940  145.4780 C   0  0  0  0  0  2  0  0  0  0  0  0
  161.6040  203.6670  146.1000 C   0  0  2  0  0  0  0  0  0  0  0  0
  161.7900  205.1010  145.6340 C   0  0  1  0  0  0  0  0  0  0  0  0
  161.7140  203.4230  147.4710 O   0  0  0  0  0  1  0  0  0  0  0  0
  160.8260  202.6670  145.2630 C   0  0  0  0  0  1  0  0  0  0  0  0
  161.1270  205.5040  144.3280 C   0  0  0  0  0  1  0  0  0  0  0  0
  161.7630  207.0290  154.2580 O   0  0  0  0  0  0  0  0  0  0  0  0
  160.5420  211.1620  155.3560 C   0  0  0  0  0  0  0  0  0  0  0  0
  160.5570  209.0000  154.1300 N   0  0  0  0  0  0  0  0  0  0  0  0
  161.8360  210.9690  156.0350 C   0  0  0  0  0  3  0  0  0  0  0  0
  160.0050  210.2760  154.4970 C   0  0  0  0  0  3  0  0  0  0  0  0
  161.6130  208.5010  156.2870 C   0  0  2  0  0  3  0  0  0  0  0  0
  162.3360  209.7980  156.4300 C   0  0  0  0  0  3  0  0  0  0  0  0
  161.2950  208.2050  154.8480 C   0  0  0  0  0  0  0  0  0  0  0  0
  160.4490  208.4890  157.0640 O   0  0  0  0  0  0  0  0  0  0  0  0
  160.1530  207.1370  157.2560 C   0  0  0  0  0  1  0  0  0  0  0  0
  159.8950  212.4230  155.5530 N   0  0  0  0  0  2  0  0  0  0  0  0
  158.6220  212.7140  155.0370 N   0  0  0  0  0  2  0  0  0  0  0  0
  158.7940  213.7160  153.9960 C   0  0  0  0  0  2  0  0  0  0  0  0
  158.4630  213.1280  152.6340 C   0  0  0  0  0  2  0  0  0  0  0  0
  159.7220  212.9020  151.8110 C   0  0  0  0  0  2  0  0  0  0  0  0
  159.8540  213.9600  150.7330 C   0  0  0  0  0  1  0  0  0  0  0  0
  1 17  1  0  0  0  0
  2  1  1  1  0  0  0
  3  2  1  0  0  0  0
  4  2  1  0  0  0  0
  5  4  1  0  0  0  0
  6  8  1  6  0  0  0
  6  7  1  0  0  0  0
  6  5  1  0  0  0  0
  7  3  1  0  0  0  0
  9  8  1  0  0  0  0
 10  9  1  0  0  0  0
 11 13  1  0  0  0  0
 11 12  1  0  0  0  0
 12 15  1  6  0  0  0
 12 14  1  0  0  0  0
 13 16  1  6  0  0  0
 13 12  1  0  0  0  0
 13 10  1  0  0  0  0
 17 24  1  0  0  0  0
 18 27  1  0  0  0  0
 18 20  1  0  0  0  0
 19 21  1  0  0  0  0
 19 24  2  0  0  0  0
 20 23  2  0  0  0  0
 21 18  2  0  0  0  0
 22 23  1  0  0  0  0
 22 25  1  1  0  0  0
 24 22  1  0  0  0  0
 25 26  1  0  0  0  0
 28 27  1  0  0  0  0
 29 28  1  0  0  0  0
 30 29  1  0  0  0  0
 31 30  1  0  0  0  0
 32 31  1  0  0  0  0
M  END
>  <MODEL>
4

>  <REMARK>
 VINA RESULT:      -5.9      3.169      9.875
  Name = 
  13 active torsions:
  status: ('A' for Active; 'I' for Inactive)
    1  A    between atoms: C_1  and  N_2
    2  A    between atoms: C_1  and  C_19
    3  A    between atoms: N_2  and  N_12
    4  A    between atoms: C_3  and  C_11
    5  A    between atoms: C_6  and  N_12
    6  A    between atoms: C_11  and  O_25
    7  A    between atoms: C_14  and  N_17
    8  A    between atoms: C_15  and  O_20
    9  A    between atoms: C_16  and  S_18
   10  A    between atoms: C_16  and  C_26
   11  A    between atoms: N_17  and  S_18
   12  A    between atoms: C_19  and  C_23
   13  A    between atoms: O_25  and  C_32
                            x       y       z     vdW  Elec       q    Type
                         _______ _______ _______ _____ _____    ______ ____

>  <TORSDO>
F 13

$$$$
=
 OpenBabel11052411533D

 32 34  0  0  1  0  0  0  0  0999 V2000
  162.0830  206.6010  152.4930 C   0  0  0  0  0  2  0  0  0  0  0  0
  160.9260  205.7170  152.0650 C   0  0  1  0  0  3  0  0  0  0  0  0
  160.8770  205.6220  150.5320 C   0  0  0  0  0  2  0  0  0  0  0  0
  161.0310  204.3500  152.7580 C   0  0  0  0  0  2  0  0  0  0  0  0
  161.6180  203.2840  151.8360 C   0  0  0  0  0  2  0  0  0  0  0  0
  160.7400  203.0900  150.5920 C   0  0  1  0  0  3  0  0  0  0  0  0
  160.0950  204.3890  150.0860 C   0  0  0  0  0  2  0  0  0  0  0  0
  161.5260  202.4890  149.5270 N   0  0  0  0  0  2  0  0  0  0  0  0
  160.7560  202.9190  147.9950 S   0  0  0  0  0  0  0  0  0  0  0  0
  162.3070  203.5840  147.3110 C   0  0  0  0  0  2  0  0  0  0  0  0
  162.7480  205.0720  145.2640 C   0  0  0  0  0  2  0  0  0  0  0  0
  161.2430  204.8930  145.3440 C   0  0  2  0  0  0  0  0  0  0  0  0
  162.0700  204.9200  146.6180 C   0  0  1  0  0  0  0  0  0  0  0  0
  160.8270  203.6420  144.8810 O   0  0  0  0  0  1  0  0  0  0  0  0
  160.4550  206.1110  144.8970 C   0  0  0  0  0  1  0  0  0  0  0  0
  162.0370  206.1930  147.4480 C   0  0  0  0  0  1  0  0  0  0  0  0
  161.8340  207.9450  152.1080 O   0  0  0  0  0  0  0  0  0  0  0  0
  159.9980  211.4430  154.1510 C   0  0  0  0  0  0  0  0  0  0  0  0
  160.4640  209.7940  152.3500 N   0  0  0  0  0  0  0  0  0  0  0  0
  161.1640  211.1010  154.9850 C   0  0  0  0  0  3  0  0  0  0  0  0
  159.7210  210.8570  152.9720 C   0  0  0  0  0  3  0  0  0  0  0  0
  161.1690  208.6760  154.4170 C   0  0  2  0  0  3  0  0  0  0  0  0
  161.7100  209.8910  155.0950 C   0  0  0  0  0  3  0  0  0  0  0  0
  161.1450  208.8460  152.9230 C   0  0  0  0  0  0  0  0  0  0  0  0
  159.8940  208.3610  154.9000 O   0  0  0  0  0  0  0  0  0  0  0  0
  160.0910  207.2880  155.7730 C   0  0  0  0  0  1  0  0  0  0  0  0
  159.1930  212.5420  154.5900 N   0  0  0  0  0  2  0  0  0  0  0  0
  158.2980  213.2160  153.7440 N   0  0  0  0  0  2  0  0  0  0  0  0
  156.9800  213.1340  154.3540 C   0  0  0  0  0  2  0  0  0  0  0  0
  157.1020  212.9310  155.8560 C   0  0  0  0  0  2  0  0  0  0  0  0
  156.1960  211.8070  156.3340 C   0  0  0  0  0  2  0  0  0  0  0  0
  155.8480  210.8750  155.1890 C   0  0  0  0  0  1  0  0  0  0  0  0
  2  1  1  6  0  0  0
  2  4  1  0  0  0  0
  3  2  1  0  0  0  0
  5  4  1  0  0  0  0
  6  8  1  6  0  0  0
  6  5  1  0  0  0  0
  7  3  1  0  0  0  0
  7  6  1  0  0  0  0
  9  8  1  0  0  0  0
 10  9  1  0  0  0  0
 11 12  1  0  0  0  0
 11 13  1  0  0  0  0
 12 15  1  6  0  0  0
 12 13  1  0  0  0  0
 13 10  1  0  0  0  0
 13 16  1  1  0  0  0
 14 12  1  0  0  0  0
 17  1  1  0  0  0  0
 17 24  1  0  0  0  0
 18 27  1  0  0  0  0
 18 20  1  0  0  0  0
 19 24  2  0  0  0  0
 19 21  1  0  0  0  0
 20 23  2  0  0  0  0
 21 18  2  0  0  0  0
 22 25  1  1  0  0  0
 22 23  1  0  0  0  0
 24 22  1  0  0  0  0
 25 26  1  0  0  0  0
 28 29  1  0  0  0  0
 28 27  1  0  0  0  0
 29 30  1  0  0  0  0
 30 31  1  0  0  0  0
 32 31  1  0  0  0  0
M  END
>  <MODEL>
5

>  <REMARK>
 VINA RESULT:      -5.8      3.265      9.914
  Name = 
  13 active torsions:
  status: ('A' for Active; 'I' for Inactive)
    1  A    between atoms: C_1  and  N_2
    2  A    between atoms: C_1  and  C_19
    3  A    between atoms: N_2  and  N_12
    4  A    between atoms: C_3  and  C_11
    5  A    between atoms: C_6  and  N_12
    6  A    between atoms: C_11  and  O_25
    7  A    between atoms: C_14  and  N_17
    8  A    between atoms: C_15  and  O_20
    9  A    between atoms: C_16  and  S_18
   10  A    between atoms: C_16  and  C_26
   11  A    between atoms: N_17  and  S_18
   12  A    between atoms: C_19  and  C_23
   13  A    between atoms: O_25  and  C_32
                            x       y       z     vdW  Elec       q    Type
                         _______ _______ _______ _____ _____    ______ ____

>  <TORSDO>
F 13

$$$$
=
 OpenBabel11052411533D

 32 34  0  0  1  0  0  0  0  0999 V2000
  161.9140  211.2320  148.5730 C   0  0  0  0  0  2  0  0  0  0  0  0
  161.5740  212.5770  147.9580 C   0  0  1  0  0  3  0  0  0  0  0  0
  162.7280  213.0510  147.0610 C   0  0  0  0  0  2  0  0  0  0  0  0
  160.2260  212.4890  147.2250 C   0  0  0  0  0  2  0  0  0  0  0  0
  160.4050  212.3350  145.7160 C   0  0  0  0  0  2  0  0  0  0  0  0
  161.1600  213.5350  145.1270 C   0  0  1  0  0  3  0  0  0  0  0  0
  162.2460  214.0960  146.0580 C   0  0  0  0  0  2  0  0  0  0  0  0
  161.7540  213.1620  143.8540 N   0  0  0  0  0  2  0  0  0  0  0  0
  160.5370  212.2530  142.9500 S   0  0  0  0  0  0  0  0  0  0  0  0
  160.9370  213.1110  141.3940 C   0  0  0  0  0  2  0  0  0  0  0  0
  161.3170  212.5420  138.9180 C   0  0  0  0  0  2  0  0  0  0  0  0
  162.6940  212.6460  139.5470 C   0  0  2  0  0  0  0  0  0  0  0  0
  161.5220  212.1430  140.3730 C   0  0  1  0  0  0  0  0  0  0  0  0
  163.0930  213.9690  139.7480 O   0  0  0  0  0  1  0  0  0  0  0  0
  163.7100  211.6810  138.9630 C   0  0  0  0  0  1  0  0  0  0  0  0
  161.4360  210.6480  140.6290 C   0  0  0  0  0  1  0  0  0  0  0  0
  161.6300  211.2480  149.9640 O   0  0  0  0  0  0  0  0  0  0  0  0
  161.8780  207.2390  151.8730 C   0  0  0  0  0  0  0  0  0  0  0  0
  162.3480  209.0680  150.2570 N   0  0  0  0  0  0  0  0  0  0  0  0
  160.6710  207.8500  152.4580 C   0  0  0  0  0  3  0  0  0  0  0  0
  162.5950  207.7960  150.8790 C   0  0  0  0  0  3  0  0  0  0  0  0
  161.4590  210.2030  152.2410 C   0  0  2  0  0  3  0  0  0  0  0  0
  160.4580  209.1570  152.6050 C   0  0  0  0  0  3  0  0  0  0  0  0
  161.8200  210.1330  150.7840 C   0  0  0  0  0  0  0  0  0  0  0  0
  162.6030  210.0990  153.0410 O   0  0  0  0  0  0  0  0  0  0  0  0
  162.1640  210.3600  154.3410 C   0  0  0  0  0  1  0  0  0  0  0  0
  162.2190  205.9260  152.3290 N   0  0  0  0  0  2  0  0  0  0  0  0
  161.2780  204.8890  152.4380 N   0  0  0  0  0  2  0  0  0  0  0  0
  161.5270  203.9610  151.3460 C   0  0  0  0  0  2  0  0  0  0  0  0
  160.5410  204.1970  150.2130 C   0  0  0  0  0  2  0  0  0  0  0  0
  161.2190  204.8570  149.0220 C   0  0  0  0  0  2  0  0  0  0  0  0
  160.4670  206.1050  148.6020 C   0  0  0  0  0  1  0  0  0  0  0  0
  1 17  1  0  0  0  0
  2  1  1  6  0  0  0
  3  2  1  0  0  0  0
  4  2  1  0  0  0  0
  5  4  1  0  0  0  0
  6  8  1  6  0  0  0
  6  5  1  0  0  0  0
  6  7  1  0  0  0  0
  7  3  1  0  0  0  0
  9  8  1  0  0  0  0
 10  9  1  0  0  0  0
 11 12  1  0  0  0  0
 11 13  1  0  0  0  0
 12 15  1  6  0  0  0
 12 14  1  0  0  0  0
 12 13  1  0  0  0  0
 13 16  1  1  0  0  0
 13 10  1  0  0  0  0
 17 24  1  0  0  0  0
 18 27  1  0  0  0  0
 18 20  1  0  0  0  0
 19 24  2  0  0  0  0
 19 21  1  0  0  0  0
 20 23  2  0  0  0  0
 21 18  2  0  0  0  0
 22 23  1  0  0  0  0
 22 25  1  1  0  0  0
 24 22  1  0  0  0  0
 25 26  1  0  0  0  0
 27 28  1  0  0  0  0
 29 28  1  0  0  0  0
 30 29  1  0  0  0  0
 31 30  1  0  0  0  0
 32 31  1  0  0  0  0
M  END
>  <MODEL>
6

>  <REMARK>
 VINA RESULT:      -5.8      6.269      9.726
  Name = 
  13 active torsions:
  status: ('A' for Active; 'I' for Inactive)
    1  A    between atoms: C_1  and  N_2
    2  A    between atoms: C_1  and  C_19
    3  A    between atoms: N_2  and  N_12
    4  A    between atoms: C_3  and  C_11
    5  A    between atoms: C_6  and  N_12
    6  A    between atoms: C_11  and  O_25
    7  A    between atoms: C_14  and  N_17
    8  A    between atoms: C_15  and  O_20
    9  A    between atoms: C_16  and  S_18
   10  A    between atoms: C_16  and  C_26
   11  A    between atoms: N_17  and  S_18
   12  A    between atoms: C_19  and  C_23
   13  A    between atoms: O_25  and  C_32
                            x       y       z     vdW  Elec       q    Type
                         _______ _______ _______ _____ _____    ______ ____

>  <TORSDO>
F 13

$$$$
=
 OpenBabel11052411533D

 32 34  0  0  1  0  0  0  0  0999 V2000
  162.2640  210.7860  148.7380 C   0  0  0  0  0  2  0  0  0  0  0  0
  161.9480  212.2490  148.4810 C   0  0  1  0  0  3  0  0  0  0  0  0
  163.0830  212.8970  147.6740 C   0  0  0  0  0  2  0  0  0  0  0  0
  160.5710  212.3740  147.8100 C   0  0  0  0  0  2  0  0  0  0  0  0
  160.6870  212.5850  146.3020 C   0  0  0  0  0  2  0  0  0  0  0  0
  161.4610  213.8740  145.9860 C   0  0  1  0  0  3  0  0  0  0  0  0
  162.6000  214.1650  146.9750 C   0  0  0  0  0  2  0  0  0  0  0  0
  161.9930  213.8050  144.6350 N   0  0  0  0  0  2  0  0  0  0  0  0
  160.9900  212.6650  143.7300 S   0  0  0  0  0  0  0  0  0  0  0  0
  161.1730  213.6080  142.1830 C   0  0  0  0  0  2  0  0  0  0  0  0
  161.1320  213.1100  139.6640 C   0  0  0  0  0  2  0  0  0  0  0  0
  161.2580  211.7670  140.3620 C   0  0  2  0  0  0  0  0  0  0  0  0
  160.4860  212.8950  141.0260 C   0  0  1  0  0  0  0  0  0  0  0  0
  162.5530  211.5240  140.8240 O   0  0  0  0  0  1  0  0  0  0  0  0
  160.5350  210.6370  139.6510 C   0  0  0  0  0  1  0  0  0  0  0  0
  158.9680  212.8190  140.9920 C   0  0  0  0  0  1  0  0  0  0  0  0
  162.0670  210.4810  150.1110 O   0  0  0  0  0  0  0  0  0  0  0  0
  161.4980  206.6740  152.3380 C   0  0  0  0  0  0  0  0  0  0  0  0
  161.1820  209.0560  151.7050 N   0  0  0  0  0  0  0  0  0  0  0  0
  162.7440  206.4710  151.5770 C   0  0  0  0  0  3  0  0  0  0  0  0
  160.8330  207.8420  152.3920 C   0  0  0  0  0  3  0  0  0  0  0  0
  162.1410  208.0030  149.7080 C   0  0  2  0  0  3  0  0  0  0  0  0
  163.0560  207.0690  150.4280 C   0  0  0  0  0  3  0  0  0  0  0  0
  161.7860  209.1890  150.5610 C   0  0  0  0  0  0  0  0  0  0  0  0
  160.9870  207.3390  149.2770 O   0  0  0  0  0  0  0  0  0  0  0  0
  161.1820  207.1200  147.9110 C   0  0  0  0  0  1  0  0  0  0  0  0
  161.0540  205.5790  153.1460 N   0  0  0  0  0  2  0  0  0  0  0  0
  161.1930  204.2380  152.7550 N   0  0  0  0  0  2  0  0  0  0  0  0
  160.4440  204.0670  151.5200 C   0  0  0  0  0  2  0  0  0  0  0  0
  161.2100  203.1760  150.5540 C   0  0  0  0  0  2  0  0  0  0  0  0
  161.1950  203.7520  149.1460 C   0  0  0  0  0  2  0  0  0  0  0  0
  161.1770  202.6400  148.1140 C   0  0  0  0  0  1  0  0  0  0  0  0
  1 17  1  0  0  0  0
  2  1  1  6  0  0  0
  3  2  1  0  0  0  0
  4  2  1  0  0  0  0
  5  4  1  0  0  0  0
  6  8  1  6  0  0  0
  6  5  1  0  0  0  0
  6  7  1  0  0  0  0
  7  3  1  0  0  0  0
  9  8  1  0  0  0  0
 10  9  1  0  0  0  0
 11 12  1  0  0  0  0
 11 13  1  0  0  0  0
 12 15  1  6  0  0  0
 12 14  1  0  0  0  0
 12 13  1  0  0  0  0
 13 16  1  1  0  0  0
 13 10  1  0  0  0  0
 17 24  1  0  0  0  0
 18 21  2  0  0  0  0
 18 27  1  0  0  0  0
 19 21  1  0  0  0  0
 20 18  1  0  0  0  0
 22 25  1  1  0  0  0
 22 23  1  0  0  0  0
 22 24  1  0  0  0  0
 23 20  2  0  0  0  0
 24 19  2  0  0  0  0
 26 25  1  0  0  0  0
 28 27  1  0  0  0  0
 29 28  1  0  0  0  0
 30 29  1  0  0  0  0
 31 30  1  0  0  0  0
 32 31  1  0  0  0  0
M  END
>  <MODEL>
7

>  <REMARK>
 VINA RESULT:      -5.6      6.030      9.103
  Name = 
  13 active torsions:
  status: ('A' for Active; 'I' for Inactive)
    1  A    between atoms: C_1  and  N_2
    2  A    between atoms: C_1  and  C_19
    3  A    between atoms: N_2  and  N_12
    4  A    between atoms: C_3  and  C_11
    5  A    between atoms: C_6  and  N_12
    6  A    between atoms: C_11  and  O_25
    7  A    between atoms: C_14  and  N_17
    8  A    between atoms: C_15  and  O_20
    9  A    between atoms: C_16  and  S_18
   10  A    between atoms: C_16  and  C_26
   11  A    between atoms: N_17  and  S_18
   12  A    between atoms: C_19  and  C_23
   13  A    between atoms: O_25  and  C_32
                            x       y       z     vdW  Elec       q    Type
                         _______ _______ _______ _____ _____    ______ ____

>  <TORSDO>
F 13

$$$$
=
 OpenBabel11052411533D

 32 34  0  0  1  0  0  0  0  0999 V2000
  162.3970  208.2540  150.8040 C   0  0  0  0  0  2  0  0  0  0  0  0
  161.2230  208.3180  151.7640 C   0  0  1  0  0  3  0  0  0  0  0  0
  161.5160  207.4640  153.0070 C   0  0  0  0  0  2  0  0  0  0  0  0
  160.8970  209.7830  152.0920 C   0  0  0  0  0  2  0  0  0  0  0  0
  161.4650  210.2070  153.4440 C   0  0  0  0  0  2  0  0  0  0  0  0
  160.8810  209.3510  154.5780 C   0  0  1  0  0  3  0  0  0  0  0  0
  160.6360  207.8880  154.1800 C   0  0  0  0  0  2  0  0  0  0  0  0
  161.7620  209.4020  155.7330 N   0  0  0  0  0  2  0  0  0  0  0  0
  161.4210  210.9100  156.5900 S   0  0  0  0  0  0  0  0  0  0  0  0
  159.6360  210.7950  156.2480 C   0  0  0  0  0  2  0  0  0  0  0  0
  158.4030  212.2090  154.4940 C   0  0  0  0  0  2  0  0  0  0  0  0
  157.5540  212.2550  155.7520 C   0  0  2  0  0  0  0  0  0  0  0  0
  159.0660  212.1540  155.8640 C   0  0  1  0  0  0  0  0  0  0  0  0
  156.8220  211.0810  155.9460 O   0  0  0  0  0  1  0  0  0  0  0  0
  156.8400  213.5780  155.9630 C   0  0  0  0  0  1  0  0  0  0  0  0
  159.8250  213.4150  156.2420 C   0  0  0  0  0  1  0  0  0  0  0  0
  161.9290  208.0730  149.4760 O   0  0  0  0  0  0  0  0  0  0  0  0
  161.0410  203.8000  148.6210 C   0  0  0  0  0  0  0  0  0  0  0  0
  161.0730  205.9570  149.8560 N   0  0  0  0  0  0  0  0  0  0  0  0
  162.0810  204.1620  147.6420 C   0  0  0  0  0  3  0  0  0  0  0  0
  160.6250  204.6140  149.6090 C   0  0  0  0  0  3  0  0  0  0  0  0
  161.4700  206.5730  147.5150 C   0  0  2  0  0  3  0  0  0  0  0  0
  162.3020  205.3850  147.1620 C   0  0  0  0  0  3  0  0  0  0  0  0
  161.4910  206.8380  148.9940 C   0  0  0  0  0  0  0  0  0  0  0  0
  160.1570  206.4160  147.0580 O   0  0  0  0  0  0  0  0  0  0  0  0
  160.2640  206.3150  145.6680 C   0  0  0  0  0  1  0  0  0  0  0  0
  160.5420  202.4600  148.5640 N   0  0  0  0  0  2  0  0  0  0  0  0
  161.3600  201.3340  148.7540 N   0  0  0  0  0  2  0  0  0  0  0  0
  161.2970  200.5420  147.5350 C   0  0  0  0  0  2  0  0  0  0  0  0
  160.1110  200.9690  146.6860 C   0  0  0  0  0  2  0  0  0  0  0  0
  160.5390  201.2730  145.2580 C   0  0  0  0  0  2  0  0  0  0  0  0
  160.3580  202.7460  144.9470 C   0  0  0  0  0  1  0  0  0  0  0  0
  2  1  1  6  0  0  0
  2  4  1  0  0  0  0
  2  3  1  0  0  0  0
  3  7  1  0  0  0  0
  4  5  1  0  0  0  0
  5  6  1  0  0  0  0
  6  8  1  1  0  0  0
  7  6  1  0  0  0  0
  8  9  1  0  0  0  0
 10  9  1  0  0  0  0
 11 12  1  0  0  0  0
 11 13  1  0  0  0  0
 12 13  1  0  0  0  0
 12 14  1  0  0  0  0
 12 15  1  1  0  0  0
 13 16  1  1  0  0  0
 13 10  1  0  0  0  0
 17  1  1  0  0  0  0
 18 21  2  0  0  0  0
 20 18  1  0  0  0  0
 21 19  1  0  0  0  0
 22 25  1  1  0  0  0
 22 24  1  0  0  0  0
 23 22  1  0  0  0  0
 23 20  2  0  0  0  0
 24 17  1  0  0  0  0
 24 19  2  0  0  0  0
 26 25  1  0  0  0  0
 27 18  1  0  0  0  0
 27 28  1  0  0  0  0
 29 28  1  0  0  0  0
 30 29  1  0  0  0  0
 31 30  1  0  0  0  0
 32 31  1  0  0  0  0
M  END
>  <MODEL>
8

>  <REMARK>
 VINA RESULT:      -5.6      2.097      3.217
  Name = 
  13 active torsions:
  status: ('A' for Active; 'I' for Inactive)
    1  A    between atoms: C_1  and  N_2
    2  A    between atoms: C_1  and  C_19
    3  A    between atoms: N_2  and  N_12
    4  A    between atoms: C_3  and  C_11
    5  A    between atoms: C_6  and  N_12
    6  A    between atoms: C_11  and  O_25
    7  A    between atoms: C_14  and  N_17
    8  A    between atoms: C_15  and  O_20
    9  A    between atoms: C_16  and  S_18
   10  A    between atoms: C_16  and  C_26
   11  A    between atoms: N_17  and  S_18
   12  A    between atoms: C_19  and  C_23
   13  A    between atoms: O_25  and  C_32
                            x       y       z     vdW  Elec       q    Type
                         _______ _______ _______ _____ _____    ______ ____

>  <TORSDO>
F 13

$$$$
=
 OpenBabel11052411533D

 32 34  0  0  1  0  0  0  0  0999 V2000
  160.7170  207.6080  152.8200 C   0  0  0  0  0  2  0  0  0  0  0  0
  161.3370  207.8310  154.1870 C   0  0  1  0  0  3  0  0  0  0  0  0
  161.6930  209.3150  154.3660 C   0  0  0  0  0  2  0  0  0  0  0  0
  160.3990  207.2920  155.2780 C   0  0  0  0  0  2  0  0  0  0  0  0
  159.5940  208.4060  155.9430 C   0  0  0  0  0  2  0  0  0  0  0  0
  160.5230  209.4290  156.6140 C   0  0  1  0  0  3  0  0  0  0  0  0
  161.8310  209.6680  155.8450 C   0  0  0  0  0  2  0  0  0  0  0  0
  159.8190  210.6890  156.7850 N   0  0  0  0  0  2  0  0  0  0  0  0
  158.5220  210.7360  155.5840 S   0  0  0  0  0  0  0  0  0  0  0  0
  159.2790  212.1400  154.7050 C   0  0  0  0  0  2  0  0  0  0  0  0
  158.6010  214.3810  153.6490 C   0  0  0  0  0  2  0  0  0  0  0  0
  158.5890  213.3600  152.5250 C   0  0  2  0  0  0  0  0  0  0  0  0
  158.2280  212.9340  153.9380 C   0  0  1  0  0  0  0  0  0  0  0  0
  159.8740  213.0470  152.0740 O   0  0  0  0  0  1  0  0  0  0  0  0
  157.5130  213.6060  151.4830 C   0  0  0  0  0  1  0  0  0  0  0  0
  156.7570  212.7170  154.2500 C   0  0  0  0  0  1  0  0  0  0  0  0
  161.7310  207.3210  151.8680 O   0  0  0  0  0  0  0  0  0  0  0  0
  160.9530  206.4700  147.5730 C   0  0  0  0  0  0  0  0  0  0  0  0
  160.5440  206.5880  150.0210 N   0  0  0  0  0  0  0  0  0  0  0  0
  162.4050  206.7090  147.6420 C   0  0  0  0  0  3  0  0  0  0  0  0
  160.1500  206.4020  148.6510 C   0  0  0  0  0  3  0  0  0  0  0  0
  162.3070  208.2410  149.6030 C   0  0  2  0  0  3  0  0  0  0  0  0
  163.0230  207.4670  148.5470 C   0  0  0  0  0  3  0  0  0  0  0  0
  161.4970  207.3380  150.4910 C   0  0  0  0  0  0  0  0  0  0  0  0
  161.4990  209.2320  149.0350 O   0  0  0  0  0  0  0  0  0  0  0  0
  162.0090  210.4400  149.5190 C   0  0  0  0  0  1  0  0  0  0  0  0
  160.4090  206.1850  146.2800 N   0  0  0  0  0  2  0  0  0  0  0  0
  161.2080  205.8430  145.1770 N   0  0  0  0  0  2  0  0  0  0  0  0
  160.8950  204.4660  144.8250 C   0  0  0  0  0  2  0  0  0  0  0  0
  161.8270  203.5080  145.5490 C   0  0  0  0  0  2  0  0  0  0  0  0
  161.0470  202.5220  146.4040 C   0  0  0  0  0  2  0  0  0  0  0  0
  161.2430  202.8190  147.8790 C   0  0  0  0  0  1  0  0  0  0  0  0
  2  1  1  6  0  0  0
  2  3  1  0  0  0  0
  2  4  1  0  0  0  0
  3  7  1  0  0  0  0
  4  5  1  0  0  0  0
  5  6  1  0  0  0  0
  6  8  1  6  0  0  0
  7  6  1  0  0  0  0
  9  8  1  0  0  0  0
 10  9  1  0  0  0  0
 11 13  1  0  0  0  0
 12 15  1  6  0  0  0
 12 11  1  0  0  0  0
 12 13  1  0  0  0  0
 13 16  1  1  0  0  0
 13 10  1  0  0  0  0
 14 12  1  0  0  0  0
 17  1  1  0  0  0  0
 18 20  1  0  0  0  0
 18 21  2  0  0  0  0
 19 24  2  0  0  0  0
 20 23  2  0  0  0  0
 21 19  1  0  0  0  0
 22 25  1  6  0  0  0
 22 24  1  0  0  0  0
 23 22  1  0  0  0  0
 24 17  1  0  0  0  0
 25 26  1  0  0  0  0
 27 18  1  0  0  0  0
 28 27  1  0  0  0  0
 29 28  1  0  0  0  0
 29 30  1  0  0  0  0
 30 31  1  0  0  0  0
 31 32  1  0  0  0  0
M  END
>  <MODEL>
9

>  <REMARK>
 VINA RESULT:      -5.5      1.766      2.515
  Name = 
  13 active torsions:
  status: ('A' for Active; 'I' for Inactive)
    1  A    between atoms: C_1  and  N_2
    2  A    between atoms: C_1  and  C_19
    3  A    between atoms: N_2  and  N_12
    4  A    between atoms: C_3  and  C_11
    5  A    between atoms: C_6  and  N_12
    6  A    between atoms: C_11  and  O_25
    7  A    between atoms: C_14  and  N_17
    8  A    between atoms: C_15  and  O_20
    9  A    between atoms: C_16  and  S_18
   10  A    between atoms: C_16  and  C_26
   11  A    between atoms: N_17  and  S_18
   12  A    between atoms: C_19  and  C_23
   13  A    between atoms: O_25  and  C_32
                            x       y       z     vdW  Elec       q    Type
                         _______ _______ _______ _____ _____    ______ ____

>  <TORSDO>
F 13

$$$$
