=
 OpenBabel11052410453D

 35 36  0  0  1  0  0  0  0  0999 V2000
  161.2110  205.4400  153.4770 O   0  0  0  0  0  0  0  0  0  0  0  0
  161.5220  206.7510  153.6370 C   0  0  1  0  0  3  0  0  0  0  0  0
  160.6500  206.3250  152.5670 N   0  0  0  0  0  0  0  0  0  0  0  0
  160.6910  207.3300  154.7620 C   0  0  0  0  0  2  0  0  0  0  0  0
  161.5580  207.6710  155.8780 N   0  0  0  0  0  2  0  0  0  0  0  0
  162.7060  209.1700  157.2110 O   0  0  0  0  0  0  0  0  0  0  0  0
  161.7540  208.9900  156.4050 C   0  0  0  0  0  0  0  0  0  0  0  0
  158.2690  211.4530  155.2020 C   0  0  0  0  0  3  0  0  0  0  0  0
  161.2950  211.0740  154.9720 C   0  0  0  0  0  3  0  0  0  0  0  0
  159.7810  210.3010  156.7180 N   0  0  0  0  0  0  0  0  0  0  0  0
  158.8640  211.4230  156.5690 C   0  0  0  0  0  2  0  0  0  0  0  0
  160.8920  210.1470  156.0570 C   0  0  0  0  0  0  0  0  0  0  0  0
  159.0040  211.5960  154.1000 C   0  0  0  0  0  0  0  0  0  0  0  0
  160.4770  211.7010  154.1180 C   0  0  0  0  0  3  0  0  0  0  0  0
  158.3050  211.7560  152.7960 C   0  0  0  0  0  2  0  0  0  0  0  0
  159.1690  212.4450  151.8520 N   0  0  0  0  0  2  0  0  0  0  0  0
  158.6570  213.3870  150.9080 C   0  0  0  0  0  0  0  0  0  0  0  0
  157.4210  213.6380  150.8660 O   0  0  0  0  0  0  0  0  0  0  0  0
  160.5990  213.3240  149.3990 C   0  0  0  0  0  1  0  0  0  0  0  0
  159.5410  214.0240  150.0360 O   0  0  0  0  0  0  0  0  0  0  0  0
  161.4220  206.2660  151.3890 N   0  0  0  0  0  0  0  0  0  0  0  0
  161.0770  204.9600  149.3860 C   0  0  0  0  0  3  0  0  0  0  0  0
  161.5250  205.0520  150.6340 C   0  0  0  0  0  3  0  0  0  0  0  0
  161.1930  203.6810  148.6250 C   0  0  0  0  0  2  0  0  0  0  0  0
  161.7160  203.9280  147.2160 C   0  0  2  0  0  3  0  0  0  0  0  0
  162.2100  205.5760  145.8230 C   0  0  0  0  0  1  0  0  0  0  0  0
  161.2630  205.1700  146.7650 O   0  0  0  0  0  0  0  0  0  0  0  0
  161.2370  202.8830  146.3240 N   0  0  0  0  0  2  0  0  0  0  0  0
  160.8670  201.7490  147.1530 C   0  0  0  0  0  1  0  0  0  0  0  0
  162.3840  207.3220  151.0970 C   0  0  0  0  0  2  0  0  0  0  0  0
  161.9400  209.6620  151.3430 O   0  0  0  0  0  1  0  0  0  0  0  0
  161.6770  208.5510  150.5420 C   0  0  1  0  0  3  0  0  0  0  0  0
  162.0630  210.1020  148.6330 O   0  0  0  0  0  1  0  0  0  0  0  0
  162.5310  207.8690  148.4140 O   0  0  0  0  0  0  0  0  0  0  0  0
  162.1230  208.8120  149.1430 C   0  0  0  0  0  0  0  0  0  0  0  0
  1  2  1  0  0  0  0
  2  4  1  1  0  0  0
  3  1  1  0  0  0  0
  3  2  1  0  0  0  0
  4  5  1  0  0  0  0
  5  7  1  0  0  0  0
  7  6  2  0  0  0  0
  8 11  1  0  0  0  0
  9 12  1  0  0  0  0
 11 10  1  0  0  0  0
 12  7  1  0  0  0  0
 12 10  2  0  0  0  0
 13 14  1  0  0  0  0
 13  8  2  0  0  0  0
 14  9  2  0  0  0  0
 15 13  1  0  0  0  0
 16 15  1  0  0  0  0
 17 16  1  0  0  0  0
 18 17  2  0  0  0  0
 19 20  1  0  0  0  0
 20 17  1  0  0  0  0
 21  3  1  0  0  0  0
 22 23  2  0  0  0  0
 23 21  1  0  0  0  0
 24 22  1  0  0  0  0
 25 24  1  1  0  0  0
 26 27  1  0  0  0  0
 27 25  1  0  0  0  0
 28 29  1  0  0  0  0
 28 25  1  0  0  0  0
 30 21  1  0  0  0  0
 32 30  1  0  0  0  0
 32 31  1  1  0  0  0
 33 35  1  0  0  0  0
 34 35  2  0  0  0  0
 35 32  1  0  0  0  0
M  END
>  <MODEL>
1

>  <REMARK>
 VINA RESULT:      -6.6      0.000      0.000
  Name = 
  15 active torsions:
  status: ('A' for Active; 'I' for Inactive)
    1  A    between atoms: N_1  and  C_34
    2  A    between atoms: N_2  and  C_3
    3  A    between atoms: C_3  and  C_17
    4  A    between atoms: N_6  and  C_19
    5  A    between atoms: C_8  and  C_24
    6  A    between atoms: C_8  and  N_25
    7  A    between atoms: C_13  and  O_31
    8  A    between atoms: O_16  and  C_19
    9  A    between atoms: C_19  and  C_21
   10  A    between atoms: C_20  and  C_35
   11  A    between atoms: C_21  and  C_22
   12  A    between atoms: C_24  and  C_30
   13  A    between atoms: N_25  and  N_26
   14  A    between atoms: N_25  and  C_27
   15  A    between atoms: C_32  and  C_34
                            x       y       z     vdW  Elec       q    Type
                         _______ _______ _______ _____ _____    ______ ____

>  <TORSDO>
F 15

$$$$
=
 OpenBabel11052410453D

 35 36  0  0  1  0  0  0  0  0999 V2000
  160.3830  210.5210  153.7730 O   0  0  0  0  0  0  0  0  0  0  0  0
  160.5180  210.3350  152.4360 C   0  0  1  0  0  3  0  0  0  0  0  0
  160.6960  211.6440  153.0210 N   0  0  0  0  0  0  0  0  0  0  0  0
  161.8720  209.7240  152.1480 C   0  0  0  0  0  2  0  0  0  0  0  0
  162.0810  209.6640  150.7110 N   0  0  0  0  0  2  0  0  0  0  0  0
  162.4320  208.5320  148.7270 O   0  0  0  0  0  0  0  0  0  0  0  0
  161.9960  208.4790  149.9080 C   0  0  0  0  0  0  0  0  0  0  0  0
  161.5790  204.3160  151.3790 C   0  0  0  0  0  3  0  0  0  0  0  0
  160.3940  206.4940  149.5870 C   0  0  0  0  0  3  0  0  0  0  0  0
  161.8500  206.7280  151.5280 N   0  0  0  0  0  0  0  0  0  0  0  0
  161.3320  205.5400  152.1940 C   0  0  0  0  0  2  0  0  0  0  0  0
  161.4180  207.2010  150.3940 C   0  0  0  0  0  0  0  0  0  0  0  0
  161.0690  204.1490  150.1590 C   0  0  0  0  0  0  0  0  0  0  0  0
  160.2450  205.1680  149.4800 C   0  0  0  0  0  3  0  0  0  0  0  0
  161.2580  202.8350  149.4860 C   0  0  0  0  0  2  0  0  0  0  0  0
  161.1500  202.9970  148.0440 N   0  0  0  0  0  2  0  0  0  0  0  0
  161.1250  201.8780  147.1580 C   0  0  0  0  0  0  0  0  0  0  0  0
  161.2070  200.7040  147.6140 O   0  0  0  0  0  0  0  0  0  0  0  0
  159.8820  201.6470  145.0480 C   0  0  0  0  0  1  0  0  0  0  0  0
  161.0070  202.1000  145.7860 O   0  0  0  0  0  0  0  0  0  0  0  0
  159.5020  212.3650  152.8190 N   0  0  0  0  0  0  0  0  0  0  0  0
  159.9390  213.4200  150.6890 C   0  0  0  0  0  3  0  0  0  0  0  0
  159.1060  212.7830  151.5060 C   0  0  0  0  0  3  0  0  0  0  0  0
  159.4980  213.8490  149.3300 C   0  0  0  0  0  2  0  0  0  0  0  0
  160.6160  213.6730  148.3100 C   0  0  2  0  0  3  0  0  0  0  0  0
  159.0930  212.7700  146.9810 C   0  0  0  0  0  1  0  0  0  0  0  0
  160.0830  213.7520  147.0200 O   0  0  0  0  0  0  0  0  0  0  0  0
  161.2510  212.3770  148.4940 N   0  0  0  0  0  2  0  0  0  0  0  0
  162.6600  212.5450  148.1870 C   0  0  0  0  0  1  0  0  0  0  0  0
  158.8220  212.9790  153.9530 C   0  0  0  0  0  2  0  0  0  0  0  0
  157.1180  211.3560  154.3920 O   0  0  0  0  0  1  0  0  0  0  0  0
  157.3360  212.6530  153.9260 C   0  0  1  0  0  3  0  0  0  0  0  0
  155.1940  213.6490  154.7140 O   0  0  0  0  0  0  0  0  0  0  0  0
  157.1930  214.4530  155.4950 O   0  0  0  0  0  1  0  0  0  0  0  0
  156.5810  213.6300  154.7630 C   0  0  0  0  0  0  0  0  0  0  0  0
  2  4  1  1  0  0  0
  2  3  1  0  0  0  0
  2  1  1  0  0  0  0
  3  1  1  0  0  0  0
  5  4  1  0  0  0  0
  6  7  2  0  0  0  0
  7 12  1  0  0  0  0
  7  5  1  0  0  0  0
  8 11  1  0  0  0  0
  9 12  1  0  0  0  0
 10 11  1  0  0  0  0
 12 10  2  0  0  0  0
 13  8  2  0  0  0  0
 14  9  2  0  0  0  0
 14 13  1  0  0  0  0
 15 13  1  0  0  0  0
 16 15  1  0  0  0  0
 17 18  2  0  0  0  0
 17 16  1  0  0  0  0
 19 20  1  0  0  0  0
 20 17  1  0  0  0  0
 21  3  1  0  0  0  0
 21 30  1  0  0  0  0
 22 23  2  0  0  0  0
 23 21  1  0  0  0  0
 24 22  1  0  0  0  0
 25 28  1  0  0  0  0
 25 24  1  1  0  0  0
 26 27  1  0  0  0  0
 27 25  1  0  0  0  0
 29 28  1  0  0  0  0
 32 30  1  0  0  0  0
 32 31  1  1  0  0  0
 32 35  1  0  0  0  0
 33 35  2  0  0  0  0
 35 34  1  0  0  0  0
M  END
>  <MODEL>
2

>  <REMARK>
 VINA RESULT:      -6.1      2.638      8.772
  Name = 
  15 active torsions:
  status: ('A' for Active; 'I' for Inactive)
    1  A    between atoms: N_1  and  C_34
    2  A    between atoms: N_2  and  C_3
    3  A    between atoms: C_3  and  C_17
    4  A    between atoms: N_6  and  C_19
    5  A    between atoms: C_8  and  C_24
    6  A    between atoms: C_8  and  N_25
    7  A    between atoms: C_13  and  O_31
    8  A    between atoms: O_16  and  C_19
    9  A    between atoms: C_19  and  C_21
   10  A    between atoms: C_20  and  C_35
   11  A    between atoms: C_21  and  C_22
   12  A    between atoms: C_24  and  C_30
   13  A    between atoms: N_25  and  N_26
   14  A    between atoms: N_25  and  C_27
   15  A    between atoms: C_32  and  C_34
                            x       y       z     vdW  Elec       q    Type
                         _______ _______ _______ _____ _____    ______ ____

>  <TORSDO>
F 15

$$$$
=
 OpenBabel11052410453D

 35 36  0  0  1  0  0  0  0  0999 V2000
  162.1720  209.2560  150.2350 O   0  0  0  0  0  0  0  0  0  0  0  0
  162.1680  209.0270  148.8970 C   0  0  1  0  0  3  0  0  0  0  0  0
  161.1570  208.4440  149.7480 N   0  0  0  0  0  0  0  0  0  0  0  0
  161.5930  210.2300  148.1830 C   0  0  0  0  0  2  0  0  0  0  0  0
  162.2690  211.4330  148.6390 N   0  0  0  0  0  2  0  0  0  0  0  0
  163.2580  213.4940  148.2980 O   0  0  0  0  0  0  0  0  0  0  0  0
  162.4520  212.6270  147.8660 C   0  0  0  0  0  0  0  0  0  0  0  0
  160.4850  212.0860  143.9300 C   0  0  0  0  0  3  0  0  0  0  0  0
  162.2790  213.8860  145.6310 C   0  0  0  0  0  3  0  0  0  0  0  0
  160.6490  212.2240  146.3520 N   0  0  0  0  0  0  0  0  0  0  0  0
  159.7790  212.4210  145.1990 C   0  0  0  0  0  2  0  0  0  0  0  0
  161.7380  212.8940  146.5920 C   0  0  0  0  0  0  0  0  0  0  0  0
  161.5750  212.7330  143.5200 C   0  0  0  0  0  0  0  0  0  0  0  0
  162.2130  213.8150  144.2960 C   0  0  0  0  0  3  0  0  0  0  0  0
  162.1220  212.4190  142.1720 C   0  0  0  0  0  2  0  0  0  0  0  0
  161.2990  211.4090  141.5270 N   0  0  0  0  0  2  0  0  0  0  0  0
  161.8090  210.5620  140.4970 C   0  0  0  0  0  0  0  0  0  0  0  0
  163.0060  210.6810  140.1110 O   0  0  0  0  0  0  0  0  0  0  0  0
  161.2590  209.0120  138.6680 C   0  0  0  0  0  1  0  0  0  0  0  0
  160.9720  209.6040  139.9260 O   0  0  0  0  0  0  0  0  0  0  0  0
  161.5290  207.1070  149.9950 N   0  0  0  0  0  0  0  0  0  0  0  0
  161.8030  205.3160  148.3970 C   0  0  0  0  0  3  0  0  0  0  0  0
  161.0170  206.0380  149.1880 C   0  0  0  0  0  3  0  0  0  0  0  0
  161.2420  204.2110  147.5640 C   0  0  0  0  0  2  0  0  0  0  0  0
  161.9010  204.1700  146.1920 C   0  0  2  0  0  3  0  0  0  0  0  0
  161.1400  205.5180  144.6090 C   0  0  0  0  0  1  0  0  0  0  0  0
  162.0170  205.4700  145.6940 O   0  0  0  0  0  0  0  0  0  0  0  0
  161.0940  203.3720  145.2820 N   0  0  0  0  0  2  0  0  0  0  0  0
  160.8830  202.0830  145.9180 C   0  0  0  0  0  1  0  0  0  0  0  0
  162.1660  206.7510  151.2560 C   0  0  0  0  0  2  0  0  0  0  0  0
  161.4130  205.1070  152.8260 O   0  0  0  0  0  1  0  0  0  0  0  0
  161.1210  206.3630  152.2920 C   0  0  1  0  0  3  0  0  0  0  0  0
  160.6970  208.6850  153.0860 O   0  0  0  0  0  0  0  0  0  0  0  0
  161.3980  207.0750  154.5590 O   0  0  0  0  0  1  0  0  0  0  0  0
  161.0740  207.3820  153.3810 C   0  0  0  0  0  0  0  0  0  0  0  0
  2  4  1  6  0  0  0
  2  3  1  0  0  0  0
  2  1  1  0  0  0  0
  3 21  1  0  0  0  0
  3  1  1  0  0  0  0
  4  5  1  0  0  0  0
  7  6  2  0  0  0  0
  7  5  1  0  0  0  0
  8 11  1  0  0  0  0
  9 12  1  0  0  0  0
 10 12  2  0  0  0  0
 11 10  1  0  0  0  0
 12  7  1  0  0  0  0
 13  8  2  0  0  0  0
 13 14  1  0  0  0  0
 14  9  2  0  0  0  0
 15 13  1  0  0  0  0
 16 15  1  0  0  0  0
 17 16  1  0  0  0  0
 18 17  2  0  0  0  0
 19 20  1  0  0  0  0
 20 17  1  0  0  0  0
 21 30  1  0  0  0  0
 22 23  2  0  0  0  0
 23 21  1  0  0  0  0
 24 22  1  0  0  0  0
 25 24  1  1  0  0  0
 26 27  1  0  0  0  0
 27 25  1  0  0  0  0
 28 29  1  0  0  0  0
 28 25  1  0  0  0  0
 30 32  1  0  0  0  0
 32 31  1  1  0  0  0
 32 35  1  0  0  0  0
 33 35  2  0  0  0  0
 35 34  1  0  0  0  0
M  END
>  <MODEL>
3

>  <REMARK>
 VINA RESULT:      -5.9      4.354      7.706
  Name = 
  15 active torsions:
  status: ('A' for Active; 'I' for Inactive)
    1  A    between atoms: N_1  and  C_34
    2  A    between atoms: N_2  and  C_3
    3  A    between atoms: C_3  and  C_17
    4  A    between atoms: N_6  and  C_19
    5  A    between atoms: C_8  and  C_24
    6  A    between atoms: C_8  and  N_25
    7  A    between atoms: C_13  and  O_31
    8  A    between atoms: O_16  and  C_19
    9  A    between atoms: C_19  and  C_21
   10  A    between atoms: C_20  and  C_35
   11  A    between atoms: C_21  and  C_22
   12  A    between atoms: C_24  and  C_30
   13  A    between atoms: N_25  and  N_26
   14  A    between atoms: N_25  and  C_27
   15  A    between atoms: C_32  and  C_34
                            x       y       z     vdW  Elec       q    Type
                         _______ _______ _______ _____ _____    ______ ____

>  <TORSDO>
F 15

$$$$
=
 OpenBabel11052410453D

 35 36  0  0  1  0  0  0  0  0999 V2000
  161.6000  205.7290  152.7910 O   0  0  0  0  0  0  0  0  0  0  0  0
  161.6600  206.8680  152.0560 C   0  0  1  0  0  3  0  0  0  0  0  0
  160.5510  205.9540  151.9090 N   0  0  0  0  0  0  0  0  0  0  0  0
  161.2350  208.0410  152.9120 C   0  0  0  0  0  2  0  0  0  0  0  0
  161.4300  207.7120  154.3140 N   0  0  0  0  0  2  0  0  0  0  0  0
  161.5820  208.2570  156.5560 O   0  0  0  0  0  0  0  0  0  0  0  0
  161.1440  208.5810  155.4190 C   0  0  0  0  0  0  0  0  0  0  0  0
  157.9610  211.4830  154.3680 C   0  0  0  0  0  3  0  0  0  0  0  0
  160.9700  211.0400  154.6900 C   0  0  0  0  0  3  0  0  0  0  0  0
  159.1220  209.8210  155.7100 N   0  0  0  0  0  0  0  0  0  0  0  0
  158.2370  210.9780  155.7430 C   0  0  0  0  0  2  0  0  0  0  0  0
  160.3560  209.8320  155.2930 C   0  0  0  0  0  0  0  0  0  0  0  0
  158.9200  211.9390  153.5630 C   0  0  0  0  0  0  0  0  0  0  0  0
  160.3490  211.9530  153.9340 C   0  0  0  0  0  3  0  0  0  0  0  0
  158.5250  212.5520  152.2650 C   0  0  0  0  0  2  0  0  0  0  0  0
  159.7050  212.7850  151.4480 N   0  0  0  0  0  2  0  0  0  0  0  0
  159.6670  213.6140  150.2860 C   0  0  0  0  0  0  0  0  0  0  0  0
  158.5870  214.1630  149.9310 O   0  0  0  0  0  0  0  0  0  0  0  0
  161.3670  212.7970  148.7070 C   0  0  0  0  0  1  0  0  0  0  0  0
  160.8370  213.8080  149.5520 O   0  0  0  0  0  0  0  0  0  0  0  0
  160.7920  205.1760  150.7590 N   0  0  0  0  0  0  0  0  0  0  0  0
  160.5980  206.0470  148.5130 C   0  0  0  0  0  3  0  0  0  0  0  0
  161.3460  205.7640  149.5740 C   0  0  0  0  0  3  0  0  0  0  0  0
  161.2040  206.6540  147.2910 C   0  0  0  0  0  2  0  0  0  0  0  0
  161.3700  205.6160  146.1890 C   0  0  2  0  0  3  0  0  0  0  0  0
  163.3770  204.6820  146.1590 C   0  0  0  0  0  1  0  0  0  0  0  0
  162.6420  205.7400  145.6230 O   0  0  0  0  0  0  0  0  0  0  0  0
  160.3600  205.8220  145.1620 N   0  0  0  0  0  2  0  0  0  0  0  0
  160.3450  204.6290  144.3330 C   0  0  0  0  0  1  0  0  0  0  0  0
  160.1860  203.8570  150.6330 C   0  0  0  0  0  2  0  0  0  0  0  0
  161.7160  202.2630  151.5560 O   0  0  0  0  0  1  0  0  0  0  0  0
  161.2500  202.8040  150.3570 C   0  0  1  0  0  3  0  0  0  0  0  0
  161.5490  200.8100  148.8960 O   0  0  0  0  0  0  0  0  0  0  0  0
  159.4520  201.6500  149.2810 O   0  0  0  0  0  1  0  0  0  0  0  0
  160.6920  201.7240  149.4930 C   0  0  0  0  0  0  0  0  0  0  0  0
  2  1  1  0  0  0  0
  2  4  1  1  0  0  0
  3  2  1  0  0  0  0
  3  1  1  0  0  0  0
  4  5  1  0  0  0  0
  5  7  1  0  0  0  0
  7  6  2  0  0  0  0
  8 11  1  0  0  0  0
  9 12  1  0  0  0  0
 10 11  1  0  0  0  0
 12  7  1  0  0  0  0
 12 10  2  0  0  0  0
 13 14  1  0  0  0  0
 13  8  2  0  0  0  0
 14  9  2  0  0  0  0
 15 13  1  0  0  0  0
 16 15  1  0  0  0  0
 17 16  1  0  0  0  0
 18 17  2  0  0  0  0
 19 20  1  0  0  0  0
 20 17  1  0  0  0  0
 21  3  1  0  0  0  0
 22 23  2  0  0  0  0
 23 21  1  0  0  0  0
 24 22  1  0  0  0  0
 25 24  1  1  0  0  0
 27 26  1  0  0  0  0
 27 25  1  0  0  0  0
 28 25  1  0  0  0  0
 29 28  1  0  0  0  0
 30 21  1  0  0  0  0
 32 30  1  0  0  0  0
 32 31  1  1  0  0  0
 33 35  2  0  0  0  0
 34 35  1  0  0  0  0
 35 32  1  0  0  0  0
M  END
>  <MODEL>
4

>  <REMARK>
 VINA RESULT:      -5.8      1.915      3.275
  Name = 
  15 active torsions:
  status: ('A' for Active; 'I' for Inactive)
    1  A    between atoms: N_1  and  C_34
    2  A    between atoms: N_2  and  C_3
    3  A    between atoms: C_3  and  C_17
    4  A    between atoms: N_6  and  C_19
    5  A    between atoms: C_8  and  C_24
    6  A    between atoms: C_8  and  N_25
    7  A    between atoms: C_13  and  O_31
    8  A    between atoms: O_16  and  C_19
    9  A    between atoms: C_19  and  C_21
   10  A    between atoms: C_20  and  C_35
   11  A    between atoms: C_21  and  C_22
   12  A    between atoms: C_24  and  C_30
   13  A    between atoms: N_25  and  N_26
   14  A    between atoms: N_25  and  C_27
   15  A    between atoms: C_32  and  C_34
                            x       y       z     vdW  Elec       q    Type
                         _______ _______ _______ _____ _____    ______ ____

>  <TORSDO>
F 15

$$$$
=
 OpenBabel11052410453D

 35 36  0  0  1  0  0  0  0  0999 V2000
  162.2020  208.4510  148.1630 O   0  0  0  0  0  0  0  0  0  0  0  0
  161.5440  209.4560  148.7940 C   0  0  1  0  0  3  0  0  0  0  0  0
  162.4090  208.5630  149.5310 N   0  0  0  0  0  0  0  0  0  0  0  0
  162.2660  210.7630  148.5440 C   0  0  0  0  0  2  0  0  0  0  0  0
  161.7110  211.7950  149.4040 N   0  0  0  0  0  2  0  0  0  0  0  0
  160.8310  213.8960  149.7940 O   0  0  0  0  0  0  0  0  0  0  0  0
  161.0470  212.9830  148.9520 C   0  0  0  0  0  0  0  0  0  0  0  0
  159.8760  212.2500  144.7390 C   0  0  0  0  0  3  0  0  0  0  0  0
  161.3280  214.1280  146.6680 C   0  0  0  0  0  3  0  0  0  0  0  0
  159.5670  212.5100  147.1370 N   0  0  0  0  0  0  0  0  0  0  0  0
  158.9410  212.6510  145.8290 C   0  0  0  0  0  2  0  0  0  0  0  0
  160.5980  213.1880  147.5530 C   0  0  0  0  0  0  0  0  0  0  0  0
  161.0340  212.8720  144.5190 C   0  0  0  0  0  0  0  0  0  0  0  0
  161.5230  213.9890  145.3510 C   0  0  0  0  0  3  0  0  0  0  0  0
  161.8280  212.4880  143.3200 C   0  0  0  0  0  2  0  0  0  0  0  0
  160.9880  211.7640  142.3800 N   0  0  0  0  0  2  0  0  0  0  0  0
  161.4540  211.3870  141.0840 C   0  0  0  0  0  0  0  0  0  0  0  0
  162.6240  211.6900  140.7170 O   0  0  0  0  0  0  0  0  0  0  0  0
  160.1960  211.2070  138.9790 C   0  0  0  0  0  1  0  0  0  0  0  0
  160.6030  210.6830  140.2340 O   0  0  0  0  0  0  0  0  0  0  0  0
  161.5900  207.6060  150.1620 N   0  0  0  0  0  0  0  0  0  0  0  0
  160.9110  207.6030  152.4810 C   0  0  0  0  0  3  0  0  0  0  0  0
  161.7850  207.2620  151.5400 C   0  0  0  0  0  3  0  0  0  0  0  0
  161.1430  207.2350  153.9090 C   0  0  0  0  0  2  0  0  0  0  0  0
  160.8260  208.4030  154.8340 C   0  0  2  0  0  3  0  0  0  0  0  0
  161.8010  210.2760  155.5000 C   0  0  0  0  0  1  0  0  0  0  0  0
  161.4530  209.5570  154.3550 O   0  0  0  0  0  0  0  0  0  0  0  0
  161.3050  208.1120  156.1760 N   0  0  0  0  0  2  0  0  0  0  0  0
  160.3160  207.2540  156.8050 C   0  0  0  0  0  1  0  0  0  0  0  0
  160.7580  206.7180  149.3600 C   0  0  0  0  0  2  0  0  0  0  0  0
  160.4030  204.5190  150.2380 O   0  0  0  0  0  1  0  0  0  0  0  0
  161.2630  205.2850  149.4510 C   0  0  1  0  0  3  0  0  0  0  0  0
  161.5440  203.3210  147.9460 O   0  0  0  0  0  1  0  0  0  0  0  0
  161.3340  205.4260  147.0640 O   0  0  0  0  0  0  0  0  0  0  0  0
  161.3720  204.6910  148.0870 C   0  0  0  0  0  0  0  0  0  0  0  0
  1  2  1  0  0  0  0
  1  3  1  0  0  0  0
  2  4  1  6  0  0  0
  2  3  1  0  0  0  0
  3 21  1  0  0  0  0
  4  5  1  0  0  0  0
  7  5  1  0  0  0  0
  7  6  2  0  0  0  0
  8 11  1  0  0  0  0
  9 12  1  0  0  0  0
 10 12  2  0  0  0  0
 11 10  1  0  0  0  0
 12  7  1  0  0  0  0
 13  8  2  0  0  0  0
 13 14  1  0  0  0  0
 14  9  2  0  0  0  0
 15 13  1  0  0  0  0
 16 15  1  0  0  0  0
 17 16  1  0  0  0  0
 18 17  2  0  0  0  0
 19 20  1  0  0  0  0
 20 17  1  0  0  0  0
 21 23  1  0  0  0  0
 22 24  1  0  0  0  0
 23 22  2  0  0  0  0
 25 24  1  6  0  0  0
 25 28  1  0  0  0  0
 27 25  1  0  0  0  0
 27 26  1  0  0  0  0
 28 29  1  0  0  0  0
 30 32  1  0  0  0  0
 30 21  1  0  0  0  0
 32 31  1  1  0  0  0
 33 35  1  0  0  0  0
 34 35  2  0  0  0  0
 35 32  1  0  0  0  0
M  END
>  <MODEL>
5

>  <REMARK>
 VINA RESULT:      -5.7      4.146      8.258
  Name = 
  15 active torsions:
  status: ('A' for Active; 'I' for Inactive)
    1  A    between atoms: N_1  and  C_34
    2  A    between atoms: N_2  and  C_3
    3  A    between atoms: C_3  and  C_17
    4  A    between atoms: N_6  and  C_19
    5  A    between atoms: C_8  and  C_24
    6  A    between atoms: C_8  and  N_25
    7  A    between atoms: C_13  and  O_31
    8  A    between atoms: O_16  and  C_19
    9  A    between atoms: C_19  and  C_21
   10  A    between atoms: C_20  and  C_35
   11  A    between atoms: C_21  and  C_22
   12  A    between atoms: C_24  and  C_30
   13  A    between atoms: N_25  and  N_26
   14  A    between atoms: N_25  and  C_27
   15  A    between atoms: C_32  and  C_34
                            x       y       z     vdW  Elec       q    Type
                         _______ _______ _______ _____ _____    ______ ____

>  <TORSDO>
F 15

$$$$
=
 OpenBabel11052410453D

 35 36  0  0  1  0  0  0  0  0999 V2000
  160.9710  207.5480  149.8810 O   0  0  0  0  0  0  0  0  0  0  0  0
  161.4140  208.0130  148.6860 C   0  0  1  0  0  3  0  0  0  0  0  0
  162.2420  208.1070  149.8660 N   0  0  0  0  0  0  0  0  0  0  0  0
  161.8810  206.8500  147.8370 C   0  0  0  0  0  2  0  0  0  0  0  0
  161.1940  206.8800  146.5560 N   0  0  0  0  0  2  0  0  0  0  0  0
  160.6230  205.9810  144.5050 O   0  0  0  0  0  0  0  0  0  0  0  0
  161.0250  205.7580  145.6780 C   0  0  0  0  0  0  0  0  0  0  0  0
  160.4720  201.5340  146.9060 C   0  0  0  0  0  3  0  0  0  0  0  0
  162.1410  204.0720  147.2650 C   0  0  0  0  0  3  0  0  0  0  0  0
  160.7520  203.4040  145.3770 N   0  0  0  0  0  0  0  0  0  0  0  0
  160.9790  201.9780  145.5760 C   0  0  0  0  0  2  0  0  0  0  0  0
  161.2940  204.3560  146.0810 C   0  0  0  0  0  0  0  0  0  0  0  0
  160.9460  202.0150  148.0550 C   0  0  0  0  0  0  0  0  0  0  0  0
  161.9880  203.0580  148.1260 C   0  0  0  0  0  3  0  0  0  0  0  0
  160.4730  201.4050  149.3270 C   0  0  0  0  0  2  0  0  0  0  0  0
  160.1670  202.4490  150.2930 N   0  0  0  0  0  2  0  0  0  0  0  0
  161.0120  202.7140  151.4130 C   0  0  0  0  0  0  0  0  0  0  0  0
  162.0560  202.0280  151.5980 O   0  0  0  0  0  0  0  0  0  0  0  0
  161.4300  204.9320  152.3890 C   0  0  0  0  0  1  0  0  0  0  0  0
  160.6690  203.7370  152.2960 O   0  0  0  0  0  0  0  0  0  0  0  0
  162.1300  209.4230  150.3580 N   0  0  0  0  0  0  0  0  0  0  0  0
  161.4640  211.5480  149.4200 C   0  0  0  0  0  3  0  0  0  0  0  0
  162.3400  210.5520  149.4990 C   0  0  0  0  0  3  0  0  0  0  0  0
  161.7060  212.7080  148.5130 C   0  0  0  0  0  2  0  0  0  0  0  0
  160.7200  213.8360  148.7900 C   0  0  2  0  0  3  0  0  0  0  0  0
  158.8970  214.4420  149.8910 C   0  0  0  0  0  1  0  0  0  0  0  0
  159.6010  213.3200  149.4500 O   0  0  0  0  0  0  0  0  0  0  0  0
  160.3060  214.4460  147.5370 N   0  0  0  0  0  2  0  0  0  0  0  0
  160.3220  213.4020  146.5270 C   0  0  0  0  0  1  0  0  0  0  0  0
  162.1280  209.6650  151.7960 C   0  0  0  0  0  2  0  0  0  0  0  0
  160.8500  208.3240  153.3120 O   0  0  0  0  0  1  0  0  0  0  0  0
  160.7580  209.3630  152.3860 C   0  0  1  0  0  3  0  0  0  0  0  0
  160.9190  211.2080  154.0510 O   0  0  0  0  0  1  0  0  0  0  0  0
  159.0760  211.0340  152.7010 O   0  0  0  0  0  0  0  0  0  0  0  0
  160.2020  210.5830  153.0410 C   0  0  0  0  0  0  0  0  0  0  0  0
  2  4  1  6  0  0  0
  2  3  1  0  0  0  0
  2  1  1  0  0  0  0
  3  1  1  0  0  0  0
  3 21  1  0  0  0  0
  5  4  1  0  0  0  0
  6  7  2  0  0  0  0
  7 12  1  0  0  0  0
  7  5  1  0  0  0  0
  8 13  2  0  0  0  0
  9 14  2  0  0  0  0
 10 11  1  0  0  0  0
 10 12  2  0  0  0  0
 11  8  1  0  0  0  0
 12  9  1  0  0  0  0
 13 14  1  0  0  0  0
 13 15  1  0  0  0  0
 15 16  1  0  0  0  0
 16 17  1  0  0  0  0
 17 18  2  0  0  0  0
 17 20  1  0  0  0  0
 20 19  1  0  0  0  0
 21 30  1  0  0  0  0
 22 23  2  0  0  0  0
 23 21  1  0  0  0  0
 24 22  1  0  0  0  0
 25 24  1  6  0  0  0
 25 27  1  0  0  0  0
 27 26  1  0  0  0  0
 28 25  1  0  0  0  0
 29 28  1  0  0  0  0
 30 32  1  0  0  0  0
 32 35  1  0  0  0  0
 32 31  1  1  0  0  0
 34 35  2  0  0  0  0
 35 33  1  0  0  0  0
M  END
>  <MODEL>
6

>  <REMARK>
 VINA RESULT:      -5.7      2.853      9.382
  Name = 
  15 active torsions:
  status: ('A' for Active; 'I' for Inactive)
    1  A    between atoms: N_1  and  C_34
    2  A    between atoms: N_2  and  C_3
    3  A    between atoms: C_3  and  C_17
    4  A    between atoms: N_6  and  C_19
    5  A    between atoms: C_8  and  C_24
    6  A    between atoms: C_8  and  N_25
    7  A    between atoms: C_13  and  O_31
    8  A    between atoms: O_16  and  C_19
    9  A    between atoms: C_19  and  C_21
   10  A    between atoms: C_20  and  C_35
   11  A    between atoms: C_21  and  C_22
   12  A    between atoms: C_24  and  C_30
   13  A    between atoms: N_25  and  N_26
   14  A    between atoms: N_25  and  C_27
   15  A    between atoms: C_32  and  C_34
                            x       y       z     vdW  Elec       q    Type
                         _______ _______ _______ _____ _____    ______ ____

>  <TORSDO>
F 15

$$$$
=
 OpenBabel11052410453D

 35 36  0  0  1  0  0  0  0  0999 V2000
  162.0900  207.7850  150.0720 O   0  0  0  0  0  0  0  0  0  0  0  0
  161.1160  207.5850  150.9950 C   0  0  1  0  0  3  0  0  0  0  0  0
  162.0220  206.5190  150.6370 N   0  0  0  0  0  0  0  0  0  0  0  0
  161.5450  208.1870  152.3160 C   0  0  0  0  0  2  0  0  0  0  0  0
  160.8850  207.4860  153.4040 N   0  0  0  0  0  2  0  0  0  0  0  0
  160.3440  207.1850  155.6310 O   0  0  0  0  0  0  0  0  0  0  0  0
  160.7190  207.9890  154.7370 C   0  0  0  0  0  0  0  0  0  0  0  0
  160.9610  211.7670  157.0450 C   0  0  0  0  0  3  0  0  0  0  0  0
  160.3230  210.4970  154.3370 C   0  0  0  0  0  3  0  0  0  0  0  0
  161.7220  209.6430  156.1400 N   0  0  0  0  0  0  0  0  0  0  0  0
  162.1330  210.9660  156.5920 C   0  0  0  0  0  2  0  0  0  0  0  0
  160.9590  209.4050  155.1120 C   0  0  0  0  0  0  0  0  0  0  0  0
  159.9550  212.0940  156.2340 C   0  0  0  0  0  0  0  0  0  0  0  0
  159.8820  211.6640  154.8240 C   0  0  0  0  0  3  0  0  0  0  0  0
  158.9030  213.0140  156.7440 C   0  0  0  0  0  2  0  0  0  0  0  0
  158.2900  213.7290  155.6350 N   0  0  0  0  0  2  0  0  0  0  0  0
  156.9070  213.5810  155.3120 C   0  0  0  0  0  0  0  0  0  0  0  0
  156.1760  212.8060  155.9890 O   0  0  0  0  0  0  0  0  0  0  0  0
  156.4630  213.8340  152.9070 C   0  0  0  0  0  1  0  0  0  0  0  0
  156.3780  214.3040  154.2440 O   0  0  0  0  0  0  0  0  0  0  0  0
  161.3520  205.6830  149.7210 N   0  0  0  0  0  0  0  0  0  0  0  0
  162.1060  205.3850  147.4450 C   0  0  0  0  0  3  0  0  0  0  0  0
  161.3180  205.9970  148.3230 C   0  0  0  0  0  3  0  0  0  0  0  0
  162.0520  205.7370  145.9950 C   0  0  0  0  0  2  0  0  0  0  0  0
  161.8530  204.4950  145.1370 C   0  0  2  0  0  3  0  0  0  0  0  0
  161.3170  205.5760  143.2810 C   0  0  0  0  0  1  0  0  0  0  0  0
  160.7980  204.7110  144.2460 O   0  0  0  0  0  0  0  0  0  0  0  0
  161.5440  203.3540  145.9860 N   0  0  0  0  0  2  0  0  0  0  0  0
  160.5620  202.5500  145.2800 C   0  0  0  0  0  1  0  0  0  0  0  0
  160.4150  204.6770  150.2060 C   0  0  0  0  0  2  0  0  0  0  0  0
  160.8290  203.2210  152.0610 O   0  0  0  0  0  1  0  0  0  0  0  0
  161.1610  203.4570  150.7260 C   0  0  1  0  0  3  0  0  0  0  0  0
  161.3070  201.0130  150.2730 O   0  0  0  0  0  1  0  0  0  0  0  0
  160.1410  202.3790  148.8500 O   0  0  0  0  0  0  0  0  0  0  0  0
  160.8290  202.2610  149.8980 C   0  0  0  0  0  0  0  0  0  0  0  0
  1  3  1  0  0  0  0
  1  2  1  0  0  0  0
  2  4  1  1  0  0  0
  3  2  1  0  0  0  0
  4  5  1  0  0  0  0
  5  7  1  0  0  0  0
  7 12  1  0  0  0  0
  7  6  2  0  0  0  0
  9 14  2  0  0  0  0
  9 12  1  0  0  0  0
 10 11  1  0  0  0  0
 11  8  1  0  0  0  0
 12 10  2  0  0  0  0
 13 15  1  0  0  0  0
 13  8  2  0  0  0  0
 14 13  1  0  0  0  0
 16 15  1  0  0  0  0
 17 16  1  0  0  0  0
 17 18  2  0  0  0  0
 19 20  1  0  0  0  0
 20 17  1  0  0  0  0
 21 30  1  0  0  0  0
 21  3  1  0  0  0  0
 22 23  2  0  0  0  0
 23 21  1  0  0  0  0
 24 22  1  0  0  0  0
 25 28  1  0  0  0  0
 25 24  1  1  0  0  0
 26 27  1  0  0  0  0
 27 25  1  0  0  0  0
 29 28  1  0  0  0  0
 30 32  1  0  0  0  0
 32 31  1  1  0  0  0
 34 35  2  0  0  0  0
 35 33  1  0  0  0  0
 35 32  1  0  0  0  0
M  END
>  <MODEL>
7

>  <REMARK>
 VINA RESULT:      -5.6      2.358      3.923
  Name = 
  15 active torsions:
  status: ('A' for Active; 'I' for Inactive)
    1  A    between atoms: N_1  and  C_34
    2  A    between atoms: N_2  and  C_3
    3  A    between atoms: C_3  and  C_17
    4  A    between atoms: N_6  and  C_19
    5  A    between atoms: C_8  and  C_24
    6  A    between atoms: C_8  and  N_25
    7  A    between atoms: C_13  and  O_31
    8  A    between atoms: O_16  and  C_19
    9  A    between atoms: C_19  and  C_21
   10  A    between atoms: C_20  and  C_35
   11  A    between atoms: C_21  and  C_22
   12  A    between atoms: C_24  and  C_30
   13  A    between atoms: N_25  and  N_26
   14  A    between atoms: N_25  and  C_27
   15  A    between atoms: C_32  and  C_34
                            x       y       z     vdW  Elec       q    Type
                         _______ _______ _______ _____ _____    ______ ____

>  <TORSDO>
F 15

$$$$
=
 OpenBabel11052410453D

 35 36  0  0  1  0  0  0  0  0999 V2000
  161.7060  207.6780  151.9380 O   0  0  0  0  0  0  0  0  0  0  0  0
  160.9280  206.6860  152.4400 C   0  0  1  0  0  3  0  0  0  0  0  0
  161.8610  206.4220  151.3690 N   0  0  0  0  0  0  0  0  0  0  0  0
  161.5150  206.2020  153.7480 C   0  0  0  0  0  2  0  0  0  0  0  0
  160.4820  206.1970  154.7700 N   0  0  0  0  0  2  0  0  0  0  0  0
  159.5160  206.9620  156.7250 O   0  0  0  0  0  0  0  0  0  0  0  0
  160.2930  207.2120  155.7650 C   0  0  0  0  0  0  0  0  0  0  0  0
  161.8660  211.1960  156.9120 C   0  0  0  0  0  3  0  0  0  0  0  0
  160.5410  209.5420  154.7070 C   0  0  0  0  0  3  0  0  0  0  0  0
  161.8900  208.7860  156.5900 N   0  0  0  0  0  0  0  0  0  0  0  0
  162.7030  209.9940  156.6310 C   0  0  0  0  0  2  0  0  0  0  0  0
  160.9570  208.5390  155.7170 C   0  0  0  0  0  0  0  0  0  0  0  0
  160.8850  211.5950  156.1040 C   0  0  0  0  0  0  0  0  0  0  0  0
  160.5040  210.8690  154.8760 C   0  0  0  0  0  3  0  0  0  0  0  0
  160.2020  212.8840  156.3990 C   0  0  0  0  0  2  0  0  0  0  0  0
  159.1470  213.1200  155.4260 N   0  0  0  0  0  2  0  0  0  0  0  0
  157.7880  212.7690  155.6860 C   0  0  0  0  0  0  0  0  0  0  0  0
  157.4690  212.2270  156.7810 O   0  0  0  0  0  0  0  0  0  0  0  0
  155.6160  212.2850  154.6380 C   0  0  0  0  0  1  0  0  0  0  0  0
  156.8210  213.0320  154.7160 O   0  0  0  0  0  0  0  0  0  0  0  0
  161.1300  206.4100  150.1640 N   0  0  0  0  0  0  0  0  0  0  0  0
  161.6280  204.8230  148.4120 C   0  0  0  0  0  3  0  0  0  0  0  0
  160.8920  205.1860  149.4570 C   0  0  0  0  0  3  0  0  0  0  0  0
  161.3540  203.5440  147.6920 C   0  0  0  0  0  2  0  0  0  0  0  0
  161.6040  203.6920  146.1970 C   0  0  2  0  0  3  0  0  0  0  0  0
  161.3670  205.1060  144.5090 C   0  0  0  0  0  1  0  0  0  0  0  0
  161.6700  205.0500  145.8710 O   0  0  0  0  0  0  0  0  0  0  0  0
  160.5220  203.0660  145.4520 N   0  0  0  0  0  2  0  0  0  0  0  0
  160.5830  201.6410  145.7290 C   0  0  0  0  0  1  0  0  0  0  0  0
  160.8890  207.6570  149.4470 C   0  0  0  0  0  2  0  0  0  0  0  0
  162.6870  208.0520  147.9150 O   0  0  0  0  0  1  0  0  0  0  0  0
  162.2010  208.3820  149.1810 C   0  0  1  0  0  3  0  0  0  0  0  0
  161.7430  210.5960  148.1360 O   0  0  0  0  0  0  0  0  0  0  0  0
  162.0900  210.4390  150.3960 O   0  0  0  0  0  1  0  0  0  0  0  0
  162.0010  209.8570  149.2830 C   0  0  0  0  0  0  0  0  0  0  0  0
  1  2  1  0  0  0  0
  2  4  1  1  0  0  0
  3  1  1  0  0  0  0
  3  2  1  0  0  0  0
  4  5  1  0  0  0  0
  5  7  1  0  0  0  0
  7  6  2  0  0  0  0
  9 14  2  0  0  0  0
  9 12  1  0  0  0  0
 10 11  1  0  0  0  0
 11  8  1  0  0  0  0
 12  7  1  0  0  0  0
 12 10  2  0  0  0  0
 13 15  1  0  0  0  0
 13  8  2  0  0  0  0
 14 13  1  0  0  0  0
 16 17  1  0  0  0  0
 16 15  1  0  0  0  0
 17 18  2  0  0  0  0
 19 20  1  0  0  0  0
 20 17  1  0  0  0  0
 21  3  1  0  0  0  0
 22 23  2  0  0  0  0
 23 21  1  0  0  0  0
 24 22  1  0  0  0  0
 25 24  1  1  0  0  0
 26 27  1  0  0  0  0
 27 25  1  0  0  0  0
 28 29  1  0  0  0  0
 28 25  1  0  0  0  0
 30 21  1  0  0  0  0
 32 31  1  6  0  0  0
 32 35  1  0  0  0  0
 32 30  1  0  0  0  0
 33 35  2  0  0  0  0
 35 34  1  0  0  0  0
M  END
>  <MODEL>
8

>  <REMARK>
 VINA RESULT:      -5.5      2.179      3.018
  Name = 
  15 active torsions:
  status: ('A' for Active; 'I' for Inactive)
    1  A    between atoms: N_1  and  C_34
    2  A    between atoms: N_2  and  C_3
    3  A    between atoms: C_3  and  C_17
    4  A    between atoms: N_6  and  C_19
    5  A    between atoms: C_8  and  C_24
    6  A    between atoms: C_8  and  N_25
    7  A    between atoms: C_13  and  O_31
    8  A    between atoms: O_16  and  C_19
    9  A    between atoms: C_19  and  C_21
   10  A    between atoms: C_20  and  C_35
   11  A    between atoms: C_21  and  C_22
   12  A    between atoms: C_24  and  C_30
   13  A    between atoms: N_25  and  N_26
   14  A    between atoms: N_25  and  C_27
   15  A    between atoms: C_32  and  C_34
                            x       y       z     vdW  Elec       q    Type
                         _______ _______ _______ _____ _____    ______ ____

>  <TORSDO>
F 15

$$$$
=
 OpenBabel11052410453D

 35 36  0  0  1  0  0  0  0  0999 V2000
  161.0740  207.5130  149.5120 O   0  0  0  0  0  0  0  0  0  0  0  0
  161.5580  207.7870  148.2740 C   0  0  1  0  0  3  0  0  0  0  0  0
  162.3410  208.0780  149.4530 N   0  0  0  0  0  0  0  0  0  0  0  0
  162.0630  206.5090  147.6390 C   0  0  0  0  0  2  0  0  0  0  0  0
  161.7420  206.5140  146.2210 N   0  0  0  0  0  2  0  0  0  0  0  0
  161.5840  205.5170  144.1420 O   0  0  0  0  0  0  0  0  0  0  0  0
  161.6310  205.3500  145.3900 C   0  0  0  0  0  0  0  0  0  0  0  0
  160.1050  201.5060  146.9880 C   0  0  0  0  0  3  0  0  0  0  0  0
  162.3250  203.6040  147.1440 C   0  0  0  0  0  3  0  0  0  0  0  0
  160.8110  203.1080  145.3000 N   0  0  0  0  0  0  0  0  0  0  0  0
  160.6970  201.6940  145.6330 C   0  0  0  0  0  2  0  0  0  0  0  0
  161.5640  203.9670  145.9250 C   0  0  0  0  0  0  0  0  0  0  0  0
  160.6830  201.9670  148.0970 C   0  0  0  0  0  0  0  0  0  0  0  0
  161.9420  202.7390  148.0910 C   0  0  0  0  0  3  0  0  0  0  0  0
  160.0860  201.6060  149.4110 C   0  0  0  0  0  2  0  0  0  0  0  0
  160.9050  202.1350  150.4890 N   0  0  0  0  0  2  0  0  0  0  0  0
  160.8480  203.5080  150.8790 C   0  0  0  0  0  0  0  0  0  0  0  0
  160.0770  204.3070  150.2770 O   0  0  0  0  0  0  0  0  0  0  0  0
  161.2220  204.9680  152.8220 C   0  0  0  0  0  1  0  0  0  0  0  0
  161.6510  203.9510  151.9290 O   0  0  0  0  0  0  0  0  0  0  0  0
  162.2040  209.4540  149.7250 N   0  0  0  0  0  0  0  0  0  0  0  0
  160.9310  209.6810  151.7660 C   0  0  0  0  0  3  0  0  0  0  0  0
  162.0340  209.9280  151.0670 C   0  0  0  0  0  3  0  0  0  0  0  0
  160.7810  210.1920  153.1610 C   0  0  0  0  0  2  0  0  0  0  0  0
  161.2960  209.1780  154.1740 C   0  0  2  0  0  3  0  0  0  0  0  0
  160.3430  207.6360  155.4450 C   0  0  0  0  0  1  0  0  0  0  0  0
  160.5100  208.0240  154.1150 O   0  0  0  0  0  0  0  0  0  0  0  0
  161.2290  209.7430  155.5130 N   0  0  0  0  0  2  0  0  0  0  0  0
  162.3140  210.7030  155.6260 C   0  0  0  0  0  1  0  0  0  0  0  0
  161.9010  210.3820  148.6420 C   0  0  0  0  0  2  0  0  0  0  0  0
  163.3520  212.2270  148.1710 O   0  0  0  0  0  1  0  0  0  0  0  0
  162.3280  211.7950  149.0140 C   0  0  1  0  0  3  0  0  0  0  0  0
  160.4650  213.0640  150.0710 O   0  0  0  0  0  1  0  0  0  0  0  0
  160.7970  213.1810  147.8070 O   0  0  0  0  0  0  0  0  0  0  0  0
  161.1640  212.7230  148.9220 C   0  0  0  0  0  0  0  0  0  0  0  0
  2  4  1  6  0  0  0
  2  3  1  0  0  0  0
  2  1  1  0  0  0  0
  3  1  1  0  0  0  0
  3 21  1  0  0  0  0
  5  4  1  0  0  0  0
  6  7  2  0  0  0  0
  7 12  1  0  0  0  0
  7  5  1  0  0  0  0
  8 13  2  0  0  0  0
  9 14  2  0  0  0  0
 10 11  1  0  0  0  0
 10 12  2  0  0  0  0
 11  8  1  0  0  0  0
 12  9  1  0  0  0  0
 13 15  1  0  0  0  0
 14 13  1  0  0  0  0
 15 16  1  0  0  0  0
 16 17  1  0  0  0  0
 17 20  1  0  0  0  0
 18 17  2  0  0  0  0
 20 19  1  0  0  0  0
 21 23  1  0  0  0  0
 22 24  1  0  0  0  0
 23 22  2  0  0  0  0
 25 24  1  6  0  0  0
 25 28  1  0  0  0  0
 27 25  1  0  0  0  0
 27 26  1  0  0  0  0
 28 29  1  0  0  0  0
 30 32  1  0  0  0  0
 30 21  1  0  0  0  0
 32 31  1  6  0  0  0
 34 35  2  0  0  0  0
 35 32  1  0  0  0  0
 35 33  1  0  0  0  0
M  END
>  <MODEL>
9

>  <REMARK>
 VINA RESULT:      -5.5      2.412      9.248
  Name = 
  15 active torsions:
  status: ('A' for Active; 'I' for Inactive)
    1  A    between atoms: N_1  and  C_34
    2  A    between atoms: N_2  and  C_3
    3  A    between atoms: C_3  and  C_17
    4  A    between atoms: N_6  and  C_19
    5  A    between atoms: C_8  and  C_24
    6  A    between atoms: C_8  and  N_25
    7  A    between atoms: C_13  and  O_31
    8  A    between atoms: O_16  and  C_19
    9  A    between atoms: C_19  and  C_21
   10  A    between atoms: C_20  and  C_35
   11  A    between atoms: C_21  and  C_22
   12  A    between atoms: C_24  and  C_30
   13  A    between atoms: N_25  and  N_26
   14  A    between atoms: N_25  and  C_27
   15  A    between atoms: C_32  and  C_34
                            x       y       z     vdW  Elec       q    Type
                         _______ _______ _______ _____ _____    ______ ____

>  <TORSDO>
F 15

$$$$
