=
 OpenBabel11042420243D

 36 38  0  0  1  0  0  0  0  0999 V2000
  160.4730  209.3850  152.4380 C   0  0  0  0  0  2  0  0  0  0  0  0
  160.8880  209.2640  153.8850 C   0  0  0  0  0  0  0  0  0  0  0  0
  161.7810  210.0070  152.9130 C   0  0  0  0  0  2  0  0  0  0  0  0
  160.0600  210.1240  154.8190 C   0  0  0  0  0  2  0  0  0  0  0  0
  160.6670  211.4390  154.9460 N   0  0  0  0  0  2  0  0  0  0  0  0
  155.6120  214.1610  153.0570 N   0  0  0  0  0  1  0  0  0  0  0  0
  157.3410  213.1040  155.3730 C   0  0  1  0  0  3  0  0  0  0  0  0
  159.0230  212.8640  153.7270 C   0  0  0  0  0  0  0  0  0  0  0  0
  158.5980  212.4630  155.8920 C   0  0  0  0  0  0  0  0  0  0  0  0
  157.1410  214.4530  156.0410 C   0  0  0  0  0  1  0  0  0  0  0  0
  159.5860  212.8530  152.4920 N   0  0  0  0  0  0  0  0  0  0  0  0
  158.7230  212.0000  157.0560 O   0  0  0  0  0  0  0  0  0  0  0  0
  156.9600  213.7420  152.8620 C   0  0  0  0  0  0  0  0  0  0  0  0
  157.7310  213.2940  153.9370 C   0  0  0  0  0  0  0  0  0  0  0  0
  159.6300  212.3840  154.9120 N   0  0  0  0  0  0  0  0  0  0  0  0
  156.8110  214.2010  150.4500 N   0  0  0  0  0  1  0  0  0  0  0  0
  158.8690  213.2970  151.4210 C   0  0  0  0  0  3  0  0  0  0  0  0
  157.5470  213.7540  151.5830 C   0  0  0  0  0  0  0  0  0  0  0  0
  161.2730  207.8460  154.3120 C   0  0  0  0  0  2  0  0  0  0  0  0
  160.6650  206.8770  153.5040 O   0  0  0  0  0  0  0  0  0  0  0  0
  161.6650  206.2410  152.9220 O   0  0  0  0  0  0  0  0  0  0  0  0
  161.1350  205.7540  151.7180 C   0  0  1  0  0  3  0  0  0  0  0  0
  162.7980  207.3020  150.9110 O   0  0  0  0  0  1  0  0  0  0  0  0
  161.8650  206.3440  150.5080 C   0  0  2  0  0  3  0  0  0  0  0  0
  160.8820  206.9770  149.5320 C   0  0  0  0  0  2  0  0  0  0  0  0
  161.5730  207.4700  148.2670 C   0  0  0  0  0  2  0  0  0  0  0  0
  162.2930  206.3370  147.5550 C   0  0  0  0  0  2  0  0  0  0  0  0
  161.2910  205.3230  147.0300 C   0  0  0  0  0  2  0  0  0  0  0  0
  161.1880  205.4240  145.5210 C   0  0  0  0  0  3  0  0  0  0  0  0
  160.1220  206.2580  145.1860 O   0  0  0  0  0  1  0  0  0  0  0  0
  160.9700  204.1580  144.9760 O   0  0  0  0  0  1  0  0  0  0  0  0
  161.1210  204.2270  151.6960 C   0  0  0  0  0  2  0  0  0  0  0  0
  160.6340  203.6720  150.3670 C   0  0  0  0  0  2  0  0  0  0  0  0
  160.9770  202.1980  150.2790 C   0  0  0  0  0  2  0  0  0  0  0  0
  160.2990  201.5700  149.0740 C   0  0  0  0  0  2  0  0  0  0  0  0
  161.2950  200.7470  148.2780 C   0  0  0  0  0  1  0  0  0  0  0  0
  1  3  1  0  0  0  0
  1  2  1  0  0  0  0
  2 19  1  0  0  0  0
  2  4  1  0  0  0  0
  3  2  1  0  0  0  0
  4  5  1  0  0  0  0
  7  9  1  0  0  0  0
  7 10  1  1  0  0  0
  8 14  1  0  0  0  0
  8 15  1  0  0  0  0
  9 12  2  0  0  0  0
 11  8  2  0  0  0  0
 13  6  1  0  0  0  0
 13 14  2  0  0  0  0
 14  7  1  0  0  0  0
 15  5  1  0  0  0  0
 15  9  1  0  0  0  0
 16 18  1  0  0  0  0
 17 18  2  0  0  0  0
 17 11  1  0  0  0  0
 18 13  1  0  0  0  0
 20 19  1  0  0  0  0
 21 20  1  0  0  0  0
 22 32  1  1  0  0  0
 22 21  1  0  0  0  0
 24 23  1  1  0  0  0
 24 22  1  0  0  0  0
 25 24  1  0  0  0  0
 26 25  1  0  0  0  0
 27 26  1  0  0  0  0
 28 27  1  0  0  0  0
 29 28  1  0  0  0  0
 30 29  1  0  0  0  0
 31 29  1  0  0  0  0
 33 32  1  0  0  0  0
 34 33  1  0  0  0  0
 35 34  1  0  0  0  0
 36 35  1  0  0  0  0
M  END
>  <MODEL>
1

>  <REMARK>
 VINA RESULT:      -6.8      0.000      0.000
  Name = 
  17 active torsions:
  status: ('A' for Active; 'I' for Inactive)
    1  A    between atoms: N_4  and  C_10
    2  A    between atoms: N_4  and  N_31
    3  A    between atoms: O_6  and  C_20
    4  A    between atoms: O_6  and  O_32
    5  A    between atoms: C_7  and  C_22
    6  A    between atoms: C_7  and  C_30
    7  A    between atoms: C_8  and  C_24
    8  A    between atoms: C_8  and  C_29
    9  A    between atoms: C_10  and  C_17
   10  A    between atoms: C_11  and  C_29
   11  A    between atoms: C_14  and  C_19
   12  A    between atoms: C_14  and  C_25
   13  A    between atoms: C_15  and  C_25
   14  A    between atoms: C_17  and  C_20
   15  A    between atoms: C_19  and  C_30
   16  A    between atoms: C_22  and  C_24
   17  A    between atoms: C_30  and  O_32
                            x       y       z     vdW  Elec       q    Type
                         _______ _______ _______ _____ _____    ______ ____

>  <TORSDO>
F 17

$$$$
=
 OpenBabel11042420243D

 36 38  0  0  1  0  0  0  0  0999 V2000
  160.7020  208.6580  151.6220 C   0  0  0  0  0  2  0  0  0  0  0  0
  161.3280  208.2180  152.9250 C   0  0  0  0  0  0  0  0  0  0  0  0
  162.1950  208.8550  151.8600 C   0  0  0  0  0  2  0  0  0  0  0  0
  160.9560  209.1030  154.0970 C   0  0  0  0  0  2  0  0  0  0  0  0
  161.8670  210.2320  154.1720 N   0  0  0  0  0  2  0  0  0  0  0  0
  157.1260  213.9370  154.7510 N   0  0  0  0  0  1  0  0  0  0  0  0
  159.4610  212.4060  156.0440 C   0  0  1  0  0  3  0  0  0  0  0  0
  160.1630  212.0180  153.8180 C   0  0  0  0  0  0  0  0  0  0  0  0
  160.6700  211.5160  155.9440 C   0  0  0  0  0  0  0  0  0  0  0  0
  159.8410  213.7070  156.7280 C   0  0  0  0  0  1  0  0  0  0  0  0
  160.1080  212.0140  152.4620 N   0  0  0  0  0  0  0  0  0  0  0  0
  161.2040  210.9410  156.9290 O   0  0  0  0  0  0  0  0  0  0  0  0
  158.1410  213.3090  153.9720 C   0  0  0  0  0  0  0  0  0  0  0  0
  159.2060  212.6460  154.5860 C   0  0  0  0  0  0  0  0  0  0  0  0
  161.1250  211.3420  154.6050 N   0  0  0  0  0  0  0  0  0  0  0  0
  157.0330  213.9890  151.8830 N   0  0  0  0  0  1  0  0  0  0  0  0
  159.0910  212.6640  151.8270 C   0  0  0  0  0  3  0  0  0  0  0  0
  158.0930  213.3270  152.5660 C   0  0  0  0  0  0  0  0  0  0  0  0
  161.3820  206.7000  153.1150 C   0  0  0  0  0  2  0  0  0  0  0  0
  161.8310  206.0480  151.9600 O   0  0  0  0  0  0  0  0  0  0  0  0
  160.7810  205.3830  151.5140 O   0  0  0  0  0  0  0  0  0  0  0  0
  161.3100  204.3740  150.6960 C   0  0  1  0  0  3  0  0  0  0  0  0
  161.7620  202.2540  151.7520 O   0  0  0  0  0  1  0  0  0  0  0  0
  160.7770  202.9950  151.0960 C   0  0  2  0  0  3  0  0  0  0  0  0
  160.2920  202.2220  149.8760 C   0  0  0  0  0  2  0  0  0  0  0  0
  161.1490  200.9930  149.6040 C   0  0  0  0  0  2  0  0  0  0  0  0
  161.4370  200.8390  148.1200 C   0  0  0  0  0  2  0  0  0  0  0  0
  160.3670  201.5410  147.3000 C   0  0  0  0  0  2  0  0  0  0  0  0
  160.8080  201.6530  145.8530 C   0  0  0  0  0  3  0  0  0  0  0  0
  161.4060  202.8960  145.6490 O   0  0  0  0  0  1  0  0  0  0  0  0
  159.7030  201.5290  145.0110 O   0  0  0  0  0  1  0  0  0  0  0  0
  161.0750  204.6780  149.2170 C   0  0  0  0  0  2  0  0  0  0  0  0
  160.6550  206.1190  148.9820 C   0  0  0  0  0  2  0  0  0  0  0  0
  161.7060  206.8220  148.1440 C   0  0  0  0  0  2  0  0  0  0  0  0
  161.8330  206.1510  146.7880 C   0  0  0  0  0  2  0  0  0  0  0  0
  160.5630  206.3480  145.9810 C   0  0  0  0  0  1  0  0  0  0  0  0
  1  3  1  0  0  0  0
  1  2  1  0  0  0  0
  2 19  1  0  0  0  0
  2  4  1  0  0  0  0
  3  2  1  0  0  0  0
  4  5  1  0  0  0  0
  5 15  1  0  0  0  0
  7 10  1  1  0  0  0
  8 14  1  0  0  0  0
  8 15  1  0  0  0  0
  9  7  1  0  0  0  0
  9 12  2  0  0  0  0
 11  8  2  0  0  0  0
 13 14  2  0  0  0  0
 13  6  1  0  0  0  0
 14  7  1  0  0  0  0
 15  9  1  0  0  0  0
 16 18  1  0  0  0  0
 17 11  1  0  0  0  0
 17 18  2  0  0  0  0
 18 13  1  0  0  0  0
 20 19  1  0  0  0  0
 21 20  1  0  0  0  0
 22 32  1  6  0  0  0
 22 24  1  0  0  0  0
 22 21  1  0  0  0  0
 24 23  1  6  0  0  0
 25 24  1  0  0  0  0
 26 25  1  0  0  0  0
 27 26  1  0  0  0  0
 28 27  1  0  0  0  0
 29 28  1  0  0  0  0
 30 29  1  0  0  0  0
 31 29  1  0  0  0  0
 33 32  1  0  0  0  0
 34 33  1  0  0  0  0
 35 34  1  0  0  0  0
 36 35  1  0  0  0  0
M  END
>  <MODEL>
2

>  <REMARK>
 VINA RESULT:      -6.7      1.614      3.204
  Name = 
  17 active torsions:
  status: ('A' for Active; 'I' for Inactive)
    1  A    between atoms: N_4  and  C_10
    2  A    between atoms: N_4  and  N_31
    3  A    between atoms: O_6  and  C_20
    4  A    between atoms: O_6  and  O_32
    5  A    between atoms: C_7  and  C_22
    6  A    between atoms: C_7  and  C_30
    7  A    between atoms: C_8  and  C_24
    8  A    between atoms: C_8  and  C_29
    9  A    between atoms: C_10  and  C_17
   10  A    between atoms: C_11  and  C_29
   11  A    between atoms: C_14  and  C_19
   12  A    between atoms: C_14  and  C_25
   13  A    between atoms: C_15  and  C_25
   14  A    between atoms: C_17  and  C_20
   15  A    between atoms: C_19  and  C_30
   16  A    between atoms: C_22  and  C_24
   17  A    between atoms: C_30  and  O_32
                            x       y       z     vdW  Elec       q    Type
                         _______ _______ _______ _____ _____    ______ ____

>  <TORSDO>
F 17

$$$$
=
 OpenBabel11042420243D

 36 38  0  0  1  0  0  0  0  0999 V2000
  160.8820  207.0860  151.6300 C   0  0  0  0  0  2  0  0  0  0  0  0
  161.2150  206.3480  152.9050 C   0  0  0  0  0  0  0  0  0  0  0  0
  162.2960  207.1370  152.1970 C   0  0  0  0  0  2  0  0  0  0  0  0
  160.6220  206.9920  154.1420 C   0  0  0  0  0  2  0  0  0  0  0  0
  161.6110  207.8490  154.7740 N   0  0  0  0  0  2  0  0  0  0  0  0
  157.6450  212.4070  154.6100 N   0  0  0  0  0  1  0  0  0  0  0  0
  159.0770  210.2020  156.2090 C   0  0  1  0  0  3  0  0  0  0  0  0
  160.4600  210.0100  154.3000 C   0  0  0  0  0  0  0  0  0  0  0  0
  160.0790  209.0850  156.3070 C   0  0  0  0  0  0  0  0  0  0  0  0
  159.3900  211.2620  157.2510 C   0  0  0  0  0  1  0  0  0  0  0  0
  160.8980  210.2260  153.0330 N   0  0  0  0  0  0  0  0  0  0  0  0
  160.1230  208.2590  157.2560 O   0  0  0  0  0  0  0  0  0  0  0  0
  158.7560  211.6910  154.0790 C   0  0  0  0  0  0  0  0  0  0  0  0
  159.4060  210.7150  154.8380 C   0  0  0  0  0  0  0  0  0  0  0  0
  160.9530  209.0190  155.1820 N   0  0  0  0  0  0  0  0  0  0  0  0
  158.6000  212.9180  151.9530 N   0  0  0  0  0  1  0  0  0  0  0  0
  160.2980  211.1810  152.2670 C   0  0  0  0  0  3  0  0  0  0  0  0
  159.2210  211.9340  152.7740 C   0  0  0  0  0  0  0  0  0  0  0  0
  161.2010  204.8230  152.7700 C   0  0  0  0  0  2  0  0  0  0  0  0
  161.8330  204.4000  151.5950 O   0  0  0  0  0  0  0  0  0  0  0  0
  161.0100  203.5160  151.0640 O   0  0  0  0  0  0  0  0  0  0  0  0
  161.4390  203.3690  149.7360 C   0  0  1  0  0  3  0  0  0  0  0  0
  159.7540  201.6450  149.7540 O   0  0  0  0  0  1  0  0  0  0  0  0
  160.4590  202.5190  148.9240 C   0  0  2  0  0  3  0  0  0  0  0  0
  161.1870  201.7180  147.8520 C   0  0  0  0  0  2  0  0  0  0  0  0
  160.7320  202.0990  146.4490 C   0  0  0  0  0  2  0  0  0  0  0  0
  161.5910  203.2120  145.8740 C   0  0  0  0  0  2  0  0  0  0  0  0
  160.8410  203.9400  144.7710 C   0  0  0  0  0  2  0  0  0  0  0  0
  161.3150  205.3770  144.6780 C   0  0  0  0  0  3  0  0  0  0  0  0
  161.3350  205.7710  143.3410 O   0  0  0  0  0  1  0  0  0  0  0  0
  162.6000  205.4870  145.2100 O   0  0  0  0  0  1  0  0  0  0  0  0
  161.7040  204.7260  149.0860 C   0  0  0  0  0  2  0  0  0  0  0  0
  160.4510  205.3270  148.4700 C   0  0  0  0  0  2  0  0  0  0  0  0
  160.7590  206.7190  147.9550 C   0  0  0  0  0  2  0  0  0  0  0  0
  162.2260  207.0480  148.1690 C   0  0  0  0  0  2  0  0  0  0  0  0
  162.3770  208.4590  148.7070 C   0  0  0  0  0  1  0  0  0  0  0  0
  1  3  1  0  0  0  0
  1  2  1  0  0  0  0
  2  4  1  0  0  0  0
  3  2  1  0  0  0  0
  4  5  1  0  0  0  0
  5 15  1  0  0  0  0
  7  9  1  0  0  0  0
  7 10  1  1  0  0  0
  8 14  1  0  0  0  0
  8 15  1  0  0  0  0
  9 12  2  0  0  0  0
 11  8  2  0  0  0  0
 13  6  1  0  0  0  0
 13 14  2  0  0  0  0
 14  7  1  0  0  0  0
 15  9  1  0  0  0  0
 16 18  1  0  0  0  0
 17 18  2  0  0  0  0
 17 11  1  0  0  0  0
 18 13  1  0  0  0  0
 19  2  1  0  0  0  0
 20 19  1  0  0  0  0
 21 20  1  0  0  0  0
 22 32  1  6  0  0  0
 22 21  1  0  0  0  0
 24 22  1  0  0  0  0
 24 23  1  1  0  0  0
 25 24  1  0  0  0  0
 26 25  1  0  0  0  0
 27 26  1  0  0  0  0
 28 27  1  0  0  0  0
 29 28  1  0  0  0  0
 29 31  1  0  0  0  0
 30 29  1  0  0  0  0
 33 32  1  0  0  0  0
 34 35  1  0  0  0  0
 34 33  1  0  0  0  0
 35 36  1  0  0  0  0
M  END
>  <MODEL>
3

>  <REMARK>
 VINA RESULT:      -6.7      2.100      3.821
  Name = 
  17 active torsions:
  status: ('A' for Active; 'I' for Inactive)
    1  A    between atoms: N_4  and  C_10
    2  A    between atoms: N_4  and  N_31
    3  A    between atoms: O_6  and  C_20
    4  A    between atoms: O_6  and  O_32
    5  A    between atoms: C_7  and  C_22
    6  A    between atoms: C_7  and  C_30
    7  A    between atoms: C_8  and  C_24
    8  A    between atoms: C_8  and  C_29
    9  A    between atoms: C_10  and  C_17
   10  A    between atoms: C_11  and  C_29
   11  A    between atoms: C_14  and  C_19
   12  A    between atoms: C_14  and  C_25
   13  A    between atoms: C_15  and  C_25
   14  A    between atoms: C_17  and  C_20
   15  A    between atoms: C_19  and  C_30
   16  A    between atoms: C_22  and  C_24
   17  A    between atoms: C_30  and  O_32
                            x       y       z     vdW  Elec       q    Type
                         _______ _______ _______ _____ _____    ______ ____

>  <TORSDO>
F 17

$$$$
=
 OpenBabel11042420243D

 36 38  0  0  1  0  0  0  0  0999 V2000
  160.6530  208.0410  152.1920 C   0  0  0  0  0  2  0  0  0  0  0  0
  161.9450  208.5270  151.5780 C   0  0  0  0  0  0  0  0  0  0  0  0
  161.9820  207.4320  152.6220 C   0  0  0  0  0  2  0  0  0  0  0  0
  162.1290  208.0840  150.1410 C   0  0  0  0  0  2  0  0  0  0  0  0
  160.9520  207.3570  149.6940 N   0  0  0  0  0  2  0  0  0  0  0  0
  160.9230  201.7240  147.5010 N   0  0  0  0  0  1  0  0  0  0  0  0
  161.3550  204.7380  147.0490 C   0  0  1  0  0  3  0  0  0  0  0  0
  161.2230  204.8950  149.4060 C   0  0  0  0  0  0  0  0  0  0  0  0
  161.4090  206.1520  147.5580 C   0  0  0  0  0  0  0  0  0  0  0  0
  162.6790  204.3770  146.4000 C   0  0  0  0  0  1  0  0  0  0  0  0
  161.0220  204.4940  150.6870 N   0  0  0  0  0  0  0  0  0  0  0  0
  161.4190  207.1680  146.8150 O   0  0  0  0  0  0  0  0  0  0  0  0
  160.9770  202.6500  148.5840 C   0  0  0  0  0  0  0  0  0  0  0  0
  161.2040  204.0090  148.3510 C   0  0  0  0  0  0  0  0  0  0  0  0
  161.3980  206.2340  148.9810 N   0  0  0  0  0  0  0  0  0  0  0  0
  160.5580  200.8540  150.2110 N   0  0  0  0  0  1  0  0  0  0  0  0
  160.8120  203.1730  150.9540 C   0  0  0  0  0  3  0  0  0  0  0  0
  160.7900  202.2260  149.9120 C   0  0  0  0  0  0  0  0  0  0  0  0
  162.3350  209.9510  151.9820 C   0  0  0  0  0  2  0  0  0  0  0  0
  161.2960  210.6030  152.6560 O   0  0  0  0  0  0  0  0  0  0  0  0
  160.7740  211.4260  151.7660 O   0  0  0  0  0  0  0  0  0  0  0  0
  159.9050  212.2500  152.4960 C   0  0  1  0  0  3  0  0  0  0  0  0
  158.0380  212.9610  151.1470 O   0  0  0  0  0  1  0  0  0  0  0  0
  159.2980  213.3430  151.6120 C   0  0  2  0  0  3  0  0  0  0  0  0
  160.2020  213.6510  150.4260 C   0  0  0  0  0  2  0  0  0  0  0  0
  159.4250  213.7060  149.1170 C   0  0  0  0  0  2  0  0  0  0  0  0
  160.2070  213.0630  147.9840 C   0  0  0  0  0  2  0  0  0  0  0  0
  161.5670  212.6000  148.4780 C   0  0  0  0  0  2  0  0  0  0  0  0
  162.6600  213.1220  147.5660 C   0  0  0  0  0  3  0  0  0  0  0  0
  162.9320  214.4520  147.8850 O   0  0  0  0  0  1  0  0  0  0  0  0
  162.2430  213.0440  146.2360 O   0  0  0  0  0  1  0  0  0  0  0  0
  158.8370  211.4310  153.2180 C   0  0  0  0  0  2  0  0  0  0  0  0
  158.8940  211.6070  154.7260 C   0  0  0  0  0  2  0  0  0  0  0  0
  158.7130  210.2600  155.3990 C   0  0  0  0  0  2  0  0  0  0  0  0
  160.0620  209.6140  155.6590 C   0  0  0  0  0  2  0  0  0  0  0  0
  159.8920  208.1320  155.9410 C   0  0  0  0  0  1  0  0  0  0  0  0
  1  3  1  0  0  0  0
  2 19  1  0  0  0  0
  2  1  1  0  0  0  0
  2  3  1  0  0  0  0
  4  2  1  0  0  0  0
  5  4  1  0  0  0  0
  6 13  1  0  0  0  0
  7 10  1  1  0  0  0
  7  9  1  0  0  0  0
  7 14  1  0  0  0  0
  8 11  1  0  0  0  0
  9 15  1  0  0  0  0
 11 17  2  0  0  0  0
 12  9  2  0  0  0  0
 13 18  2  0  0  0  0
 14 13  1  0  0  0  0
 14  8  2  0  0  0  0
 15  8  1  0  0  0  0
 15  5  1  0  0  0  0
 18 16  1  0  0  0  0
 18 17  1  0  0  0  0
 19 20  1  0  0  0  0
 21 22  1  0  0  0  0
 21 20  1  0  0  0  0
 22 32  1  6  0  0  0
 24 23  1  6  0  0  0
 24 22  1  0  0  0  0
 25 24  1  0  0  0  0
 26 25  1  0  0  0  0
 27 28  1  0  0  0  0
 27 26  1  0  0  0  0
 29 30  1  0  0  0  0
 29 28  1  0  0  0  0
 31 29  1  0  0  0  0
 32 33  1  0  0  0  0
 33 34  1  0  0  0  0
 34 35  1  0  0  0  0
 35 36  1  0  0  0  0
M  END
>  <MODEL>
4

>  <REMARK>
 VINA RESULT:      -6.6      4.565      9.140
  Name = 
  17 active torsions:
  status: ('A' for Active; 'I' for Inactive)
    1  A    between atoms: N_4  and  C_10
    2  A    between atoms: N_4  and  N_31
    3  A    between atoms: O_6  and  C_20
    4  A    between atoms: O_6  and  O_32
    5  A    between atoms: C_7  and  C_22
    6  A    between atoms: C_7  and  C_30
    7  A    between atoms: C_8  and  C_24
    8  A    between atoms: C_8  and  C_29
    9  A    between atoms: C_10  and  C_17
   10  A    between atoms: C_11  and  C_29
   11  A    between atoms: C_14  and  C_19
   12  A    between atoms: C_14  and  C_25
   13  A    between atoms: C_15  and  C_25
   14  A    between atoms: C_17  and  C_20
   15  A    between atoms: C_19  and  C_30
   16  A    between atoms: C_22  and  C_24
   17  A    between atoms: C_30  and  O_32
                            x       y       z     vdW  Elec       q    Type
                         _______ _______ _______ _____ _____    ______ ____

>  <TORSDO>
F 17

$$$$
=
 OpenBabel11042420243D

 36 38  0  0  1  0  0  0  0  0999 V2000
  162.6840  207.5030  150.8100 C   0  0  0  0  0  2  0  0  0  0  0  0
  161.4070  207.4190  151.6110 C   0  0  0  0  0  0  0  0  0  0  0  0
  161.3850  208.0660  150.2430 C   0  0  0  0  0  2  0  0  0  0  0  0
  160.8420  206.0140  151.6920 C   0  0  0  0  0  2  0  0  0  0  0  0
  161.8450  205.0540  151.2610 N   0  0  0  0  0  2  0  0  0  0  0  0
  161.0290  201.5930  146.3740 N   0  0  0  0  0  1  0  0  0  0  0  0
  160.9220  201.9210  149.4320 C   0  0  1  0  0  3  0  0  0  0  0  0
  161.2620  204.2190  148.9860 C   0  0  0  0  0  0  0  0  0  0  0  0
  161.0770  202.7550  150.6740 C   0  0  0  0  0  0  0  0  0  0  0  0
  159.5170  201.3500  149.3710 C   0  0  0  0  0  1  0  0  0  0  0  0
  161.5170  205.3380  148.2620 N   0  0  0  0  0  0  0  0  0  0  0  0
  161.1280  202.2800  151.8390 O   0  0  0  0  0  0  0  0  0  0  0  0
  161.1730  202.8640  147.0020 C   0  0  0  0  0  0  0  0  0  0  0  0
  161.0910  202.9880  148.3910 C   0  0  0  0  0  0  0  0  0  0  0  0
  161.2130  204.1470  150.3980 N   0  0  0  0  0  0  0  0  0  0  0  0
  161.5070  203.9620  144.8270 N   0  0  0  0  0  1  0  0  0  0  0  0
  161.5900  205.2590  146.9020 C   0  0  0  0  0  3  0  0  0  0  0  0
  161.4150  204.0250  146.2460 C   0  0  0  0  0  0  0  0  0  0  0  0
  161.3850  208.3110  152.8550 C   0  0  0  0  0  2  0  0  0  0  0  0
  160.4270  209.3270  152.7480 O   0  0  0  0  0  0  0  0  0  0  0  0
  161.1250  210.4440  152.6540 O   0  0  0  0  0  0  0  0  0  0  0  0
  160.4030  211.3880  153.4000 C   0  0  1  0  0  3  0  0  0  0  0  0
  160.0980  212.6140  151.3470 O   0  0  0  0  0  1  0  0  0  0  0  0
  159.4510  212.1930  152.5110 C   0  0  2  0  0  3  0  0  0  0  0  0
  158.9050  213.4060  153.2520 C   0  0  0  0  0  2  0  0  0  0  0  0
  157.3850  213.3750  153.3510 C   0  0  0  0  0  2  0  0  0  0  0  0
  156.9090  213.9160  154.6890 C   0  0  0  0  0  2  0  0  0  0  0  0
  157.1190  212.8810  155.7810 C   0  0  0  0  0  2  0  0  0  0  0  0
  155.8980  211.9880  155.8960 C   0  0  0  0  0  3  0  0  0  0  0  0
  155.5340  211.8760  157.2370 O   0  0  0  0  0  1  0  0  0  0  0  0
  156.1900  210.7210  155.3900 O   0  0  0  0  0  1  0  0  0  0  0  0
  159.6800  210.7320  154.5750 C   0  0  0  0  0  2  0  0  0  0  0  0
  160.4330  210.9000  155.8840 C   0  0  0  0  0  2  0  0  0  0  0  0
  160.0890  209.7540  156.8160 C   0  0  0  0  0  2  0  0  0  0  0  0
  160.9250  208.5320  156.4800 C   0  0  0  0  0  2  0  0  0  0  0  0
  160.0270  207.3410  156.1960 C   0  0  0  0  0  1  0  0  0  0  0  0
  1  2  1  0  0  0  0
  2  4  1  0  0  0  0
  2 19  1  0  0  0  0
  3  1  1  0  0  0  0
  3  2  1  0  0  0  0
  5  4  1  0  0  0  0
  6 13  1  0  0  0  0
  7 10  1  1  0  0  0
  7  9  1  0  0  0  0
  8 15  1  0  0  0  0
  9 12  2  0  0  0  0
 11  8  2  0  0  0  0
 13 14  2  0  0  0  0
 14  8  1  0  0  0  0
 14  7  1  0  0  0  0
 15  9  1  0  0  0  0
 15  5  1  0  0  0  0
 16 18  1  0  0  0  0
 17 11  1  0  0  0  0
 18 17  2  0  0  0  0
 18 13  1  0  0  0  0
 20 19  1  0  0  0  0
 21 20  1  0  0  0  0
 21 22  1  0  0  0  0
 22 32  1  1  0  0  0
 24 23  1  6  0  0  0
 24 25  1  0  0  0  0
 24 22  1  0  0  0  0
 25 26  1  0  0  0  0
 26 27  1  0  0  0  0
 27 28  1  0  0  0  0
 28 29  1  0  0  0  0
 29 30  1  0  0  0  0
 31 29  1  0  0  0  0
 32 33  1  0  0  0  0
 33 34  1  0  0  0  0
 35 34  1  0  0  0  0
 36 35  1  0  0  0  0
M  END
>  <MODEL>
5

>  <REMARK>
 VINA RESULT:      -6.2      4.293      9.918
  Name = 
  17 active torsions:
  status: ('A' for Active; 'I' for Inactive)
    1  A    between atoms: N_4  and  C_10
    2  A    between atoms: N_4  and  N_31
    3  A    between atoms: O_6  and  C_20
    4  A    between atoms: O_6  and  O_32
    5  A    between atoms: C_7  and  C_22
    6  A    between atoms: C_7  and  C_30
    7  A    between atoms: C_8  and  C_24
    8  A    between atoms: C_8  and  C_29
    9  A    between atoms: C_10  and  C_17
   10  A    between atoms: C_11  and  C_29
   11  A    between atoms: C_14  and  C_19
   12  A    between atoms: C_14  and  C_25
   13  A    between atoms: C_15  and  C_25
   14  A    between atoms: C_17  and  C_20
   15  A    between atoms: C_19  and  C_30
   16  A    between atoms: C_22  and  C_24
   17  A    between atoms: C_30  and  O_32
                            x       y       z     vdW  Elec       q    Type
                         _______ _______ _______ _____ _____    ______ ____

>  <TORSDO>
F 17

$$$$
=
 OpenBabel11042420243D

 36 38  0  0  1  0  0  0  0  0999 V2000
  160.7970  207.2580  151.8160 C   0  0  0  0  0  2  0  0  0  0  0  0
  161.7450  208.1920  151.1000 C   0  0  0  0  0  0  0  0  0  0  0  0
  162.2990  207.1610  152.0600 C   0  0  0  0  0  2  0  0  0  0  0  0
  161.8960  207.8770  149.6250 C   0  0  0  0  0  2  0  0  0  0  0  0
  160.7520  207.1070  149.1660 N   0  0  0  0  0  2  0  0  0  0  0  0
  161.0070  201.3720  147.2740 N   0  0  0  0  0  1  0  0  0  0  0  0
  161.2530  204.3760  146.6540 C   0  0  1  0  0  3  0  0  0  0  0  0
  161.1600  204.6530  149.0020 C   0  0  0  0  0  0  0  0  0  0  0  0
  161.2360  205.8170  147.0870 C   0  0  0  0  0  0  0  0  0  0  0  0
  162.5830  204.0570  145.9940 C   0  0  0  0  0  1  0  0  0  0  0  0
  161.0090  204.3110  150.3060 N   0  0  0  0  0  0  0  0  0  0  0  0
  161.1710  206.7900  146.2900 O   0  0  0  0  0  0  0  0  0  0  0  0
  161.0290  202.3560  148.3050 C   0  0  0  0  0  0  0  0  0  0  0  0
  161.1710  203.7110  147.9960 C   0  0  0  0  0  0  0  0  0  0  0  0
  161.2480  205.9740  148.5030 N   0  0  0  0  0  0  0  0  0  0  0  0
  160.7480  200.6300  150.0340 N   0  0  0  0  0  1  0  0  0  0  0  0
  160.8820  202.9960  150.6470 C   0  0  0  0  0  3  0  0  0  0  0  0
  160.8940  201.9950  149.6580 C   0  0  0  0  0  0  0  0  0  0  0  0
  161.6490  209.6510  151.5520 C   0  0  0  0  0  2  0  0  0  0  0  0
  160.4390  209.9140  152.2060 O   0  0  0  0  0  0  0  0  0  0  0  0
  160.4590  211.2110  152.4530 O   0  0  0  0  0  0  0  0  0  0  0  0
  159.1120  211.5770  152.5900 C   0  0  1  0  0  3  0  0  0  0  0  0
  157.5830  212.4690  154.2260 O   0  0  0  0  0  1  0  0  0  0  0  0
  158.7020  211.6500  154.0640 C   0  0  2  0  0  3  0  0  0  0  0  0
  159.8430  212.1770  154.9240 C   0  0  0  0  0  2  0  0  0  0  0  0
  159.6530  211.8330  156.3950 C   0  0  0  0  0  2  0  0  0  0  0  0
  160.6760  210.8090  156.8580 C   0  0  0  0  0  2  0  0  0  0  0  0
  161.5660  210.3920  155.6990 C   0  0  0  0  0  2  0  0  0  0  0  0
  161.4500  208.8980  155.4640 C   0  0  0  0  0  3  0  0  0  0  0  0
  160.1090  208.5610  155.2900 O   0  0  0  0  0  1  0  0  0  0  0  0
  161.9600  208.2060  156.5630 O   0  0  0  0  0  1  0  0  0  0  0  0
  158.8100  212.8730  151.8410 C   0  0  0  0  0  2  0  0  0  0  0  0
  159.9510  213.2950  150.9310 C   0  0  0  0  0  2  0  0  0  0  0  0
  159.4130  213.5730  149.5410 C   0  0  0  0  0  2  0  0  0  0  0  0
  160.5480  213.6030  148.5320 C   0  0  0  0  0  2  0  0  0  0  0  0
  161.5150  212.4630  148.7920 C   0  0  0  0  0  1  0  0  0  0  0  0
  1  3  1  0  0  0  0
  2 19  1  0  0  0  0
  2  1  1  0  0  0  0
  2  3  1  0  0  0  0
  4  2  1  0  0  0  0
  5  4  1  0  0  0  0
  6 13  1  0  0  0  0
  7 10  1  1  0  0  0
  7  9  1  0  0  0  0
  7 14  1  0  0  0  0
  8 11  1  0  0  0  0
  9 15  1  0  0  0  0
 11 17  2  0  0  0  0
 12  9  2  0  0  0  0
 13 18  2  0  0  0  0
 14 13  1  0  0  0  0
 14  8  2  0  0  0  0
 15  8  1  0  0  0  0
 15  5  1  0  0  0  0
 18 16  1  0  0  0  0
 18 17  1  0  0  0  0
 19 20  1  0  0  0  0
 20 21  1  0  0  0  0
 21 22  1  0  0  0  0
 22 32  1  1  0  0  0
 22 24  1  0  0  0  0
 24 23  1  6  0  0  0
 24 25  1  0  0  0  0
 25 26  1  0  0  0  0
 26 27  1  0  0  0  0
 28 27  1  0  0  0  0
 29 28  1  0  0  0  0
 29 31  1  0  0  0  0
 30 29  1  0  0  0  0
 33 32  1  0  0  0  0
 34 33  1  0  0  0  0
 35 36  1  0  0  0  0
 35 34  1  0  0  0  0
M  END
>  <MODEL>
6

>  <REMARK>
 VINA RESULT:      -6.2      4.172      9.955
  Name = 
  17 active torsions:
  status: ('A' for Active; 'I' for Inactive)
    1  A    between atoms: N_4  and  C_10
    2  A    between atoms: N_4  and  N_31
    3  A    between atoms: O_6  and  C_20
    4  A    between atoms: O_6  and  O_32
    5  A    between atoms: C_7  and  C_22
    6  A    between atoms: C_7  and  C_30
    7  A    between atoms: C_8  and  C_24
    8  A    between atoms: C_8  and  C_29
    9  A    between atoms: C_10  and  C_17
   10  A    between atoms: C_11  and  C_29
   11  A    between atoms: C_14  and  C_19
   12  A    between atoms: C_14  and  C_25
   13  A    between atoms: C_15  and  C_25
   14  A    between atoms: C_17  and  C_20
   15  A    between atoms: C_19  and  C_30
   16  A    between atoms: C_22  and  C_24
   17  A    between atoms: C_30  and  O_32
                            x       y       z     vdW  Elec       q    Type
                         _______ _______ _______ _____ _____    ______ ____

>  <TORSDO>
F 17

$$$$
=
 OpenBabel11042420243D

 36 38  0  0  1  0  0  0  0  0999 V2000
  161.7190  208.7680  148.6300 C   0  0  0  0  0  2  0  0  0  0  0  0
  161.6680  207.4770  149.4120 C   0  0  0  0  0  0  0  0  0  0  0  0
  162.8120  207.7210  148.4510 C   0  0  0  0  0  2  0  0  0  0  0  0
  161.9850  207.6550  150.8830 C   0  0  0  0  0  2  0  0  0  0  0  0
  160.7860  207.4340  151.6760 N   0  0  0  0  0  2  0  0  0  0  0  0
  159.6910  210.8850  156.5160 N   0  0  0  0  0  1  0  0  0  0  0  0
  160.6100  208.1950  155.3380 C   0  0  1  0  0  3  0  0  0  0  0  0
  160.6190  209.3450  153.2700 C   0  0  0  0  0  0  0  0  0  0  0  0
  160.9300  207.3110  154.1630 C   0  0  0  0  0  0  0  0  0  0  0  0
  161.8210  208.2920  156.2480 C   0  0  0  0  0  1  0  0  0  0  0  0
  160.4130  210.3570  152.3900 N   0  0  0  0  0  0  0  0  0  0  0  0
  161.0770  206.0630  154.2410 O   0  0  0  0  0  0  0  0  0  0  0  0
  159.9540  210.7210  155.1250 C   0  0  0  0  0  0  0  0  0  0  0  0
  160.3990  209.4960  154.6220 C   0  0  0  0  0  0  0  0  0  0  0  0
  160.9990  208.0240  152.9310 N   0  0  0  0  0  0  0  0  0  0  0  0
  159.3110  213.0520  154.6730 N   0  0  0  0  0  1  0  0  0  0  0  0
  159.9930  211.5720  152.8460 C   0  0  0  0  0  3  0  0  0  0  0  0
  159.7610  211.7790  154.2190 C   0  0  0  0  0  0  0  0  0  0  0  0
  160.5380  206.5330  148.9950 C   0  0  0  0  0  2  0  0  0  0  0  0
  160.9300  205.1910  149.0630 O   0  0  0  0  0  0  0  0  0  0  0  0
  160.8400  204.7460  147.8240 O   0  0  0  0  0  0  0  0  0  0  0  0
  161.8800  203.8130  147.6950 C   0  0  1  0  0  3  0  0  0  0  0  0
  160.1500  202.6540  146.4790 O   0  0  0  0  0  1  0  0  0  0  0  0
  161.3680  202.4810  147.1390 C   0  0  2  0  0  3  0  0  0  0  0  0
  161.1980  201.4540  148.2520 C   0  0  0  0  0  2  0  0  0  0  0  0
  159.9520  201.7200  149.0860 C   0  0  0  0  0  2  0  0  0  0  0  0
  160.2490  201.6060  150.5720 C   0  0  0  0  0  2  0  0  0  0  0  0
  161.6090  202.2060  150.8850 C   0  0  0  0  0  2  0  0  0  0  0  0
  161.4710  203.2890  151.9380 C   0  0  0  0  0  3  0  0  0  0  0  0
  160.1620  203.7680  151.9390 O   0  0  0  0  0  1  0  0  0  0  0  0
  162.3450  204.3390  151.6530 O   0  0  0  0  0  1  0  0  0  0  0  0
  163.0340  204.3790  146.8690 C   0  0  0  0  0  2  0  0  0  0  0  0
  162.5810  205.4730  145.9170 C   0  0  0  0  0  2  0  0  0  0  0  0
  162.0840  204.8480  144.6280 C   0  0  0  0  0  2  0  0  0  0  0  0
  160.8730  205.6020  144.1080 C   0  0  0  0  0  2  0  0  0  0  0  0
  160.0830  206.1910  145.2620 C   0  0  0  0  0  1  0  0  0  0  0  0
  1  2  1  0  0  0  0
  2  4  1  0  0  0  0
  3  1  1  0  0  0  0
  3  2  1  0  0  0  0
  4  5  1  0  0  0  0
  5 15  1  0  0  0  0
  7 10  1  1  0  0  0
  8 14  1  0  0  0  0
  9 12  2  0  0  0  0
  9  7  1  0  0  0  0
 11 17  1  0  0  0  0
 11  8  2  0  0  0  0
 13  6  1  0  0  0  0
 14 13  2  0  0  0  0
 14  7  1  0  0  0  0
 15  8  1  0  0  0  0
 15  9  1  0  0  0  0
 17 18  2  0  0  0  0
 18 16  1  0  0  0  0
 18 13  1  0  0  0  0
 19 20  1  0  0  0  0
 19  2  1  0  0  0  0
 21 20  1  0  0  0  0
 22 32  1  6  0  0  0
 22 21  1  0  0  0  0
 24 23  1  1  0  0  0
 24 22  1  0  0  0  0
 24 25  1  0  0  0  0
 25 26  1  0  0  0  0
 26 27  1  0  0  0  0
 27 28  1  0  0  0  0
 28 29  1  0  0  0  0
 29 30  1  0  0  0  0
 31 29  1  0  0  0  0
 33 32  1  0  0  0  0
 34 33  1  0  0  0  0
 35 34  1  0  0  0  0
 35 36  1  0  0  0  0
M  END
>  <MODEL>
7

>  <REMARK>
 VINA RESULT:      -6.2      2.510      5.532
  Name = 
  17 active torsions:
  status: ('A' for Active; 'I' for Inactive)
    1  A    between atoms: N_4  and  C_10
    2  A    between atoms: N_4  and  N_31
    3  A    between atoms: O_6  and  C_20
    4  A    between atoms: O_6  and  O_32
    5  A    between atoms: C_7  and  C_22
    6  A    between atoms: C_7  and  C_30
    7  A    between atoms: C_8  and  C_24
    8  A    between atoms: C_8  and  C_29
    9  A    between atoms: C_10  and  C_17
   10  A    between atoms: C_11  and  C_29
   11  A    between atoms: C_14  and  C_19
   12  A    between atoms: C_14  and  C_25
   13  A    between atoms: C_15  and  C_25
   14  A    between atoms: C_17  and  C_20
   15  A    between atoms: C_19  and  C_30
   16  A    between atoms: C_22  and  C_24
   17  A    between atoms: C_30  and  O_32
                            x       y       z     vdW  Elec       q    Type
                         _______ _______ _______ _____ _____    ______ ____

>  <TORSDO>
F 17

$$$$
=
 OpenBabel11042420243D

 36 38  0  0  1  0  0  0  0  0999 V2000
  162.7780  210.0010  151.7950 C   0  0  0  0  0  2  0  0  0  0  0  0
  161.6010  209.0960  151.5200 C   0  0  0  0  0  0  0  0  0  0  0  0
  161.9520  210.1830  150.5270 C   0  0  0  0  0  2  0  0  0  0  0  0
  162.0060  207.6870  151.1350 C   0  0  0  0  0  2  0  0  0  0  0  0
  160.8620  206.9770  150.5870 N   0  0  0  0  0  2  0  0  0  0  0  0
  161.0010  202.1850  146.9050 N   0  0  0  0  0  1  0  0  0  0  0  0
  161.3540  205.2140  147.3210 C   0  0  1  0  0  3  0  0  0  0  0  0
  161.2020  204.7010  149.6250 C   0  0  0  0  0  0  0  0  0  0  0  0
  161.3670  206.4300  148.2060 C   0  0  0  0  0  0  0  0  0  0  0  0
  162.6920  205.0810  146.6150 C   0  0  0  0  0  1  0  0  0  0  0  0
  161.0030  203.9530  150.7400 N   0  0  0  0  0  0  0  0  0  0  0  0
  161.3530  207.6130  147.7770 O   0  0  0  0  0  0  0  0  0  0  0  0
  161.0230  202.7710  148.2040 C   0  0  0  0  0  0  0  0  0  0  0  0
  161.2140  204.1450  148.3640 C   0  0  0  0  0  0  0  0  0  0  0  0
  161.3430  206.1090  149.5950 N   0  0  0  0  0  0  0  0  0  0  0  0
  160.6420  200.5820  149.2580 N   0  0  0  0  0  1  0  0  0  0  0  0
  160.8280  202.6050  150.6230 C   0  0  0  0  0  3  0  0  0  0  0  0
  160.8390  201.9880  149.3580 C   0  0  0  0  0  0  0  0  0  0  0  0
  160.4120  209.3060  152.4610 C   0  0  0  0  0  2  0  0  0  0  0  0
  160.4320  210.5780  153.0460 O   0  0  0  0  0  0  0  0  0  0  0  0
  160.0840  210.3810  154.3030 O   0  0  0  0  0  0  0  0  0  0  0  0
  160.8520  211.2940  155.0420 C   0  0  1  0  0  3  0  0  0  0  0  0
  158.9310  211.0600  156.4790 O   0  0  0  0  0  1  0  0  0  0  0  0
  160.0800  211.8210  156.2540 C   0  0  2  0  0  3  0  0  0  0  0  0
  159.6900  213.2800  156.0620 C   0  0  0  0  0  2  0  0  0  0  0  0
  158.4520  213.4280  155.1870 C   0  0  0  0  0  2  0  0  0  0  0  0
  158.8120  213.9480  153.8050 C   0  0  0  0  0  2  0  0  0  0  0  0
  157.9090  213.3230  152.7550 C   0  0  0  0  0  2  0  0  0  0  0  0
  158.3610  213.7340  151.3670 C   0  0  0  0  0  3  0  0  0  0  0  0
  157.4710  213.2250  150.4220 O   0  0  0  0  0  1  0  0  0  0  0  0
  159.6370  213.2290  151.1160 O   0  0  0  0  0  1  0  0  0  0  0  0
  162.2020  210.6950  155.4310 C   0  0  0  0  0  2  0  0  0  0  0  0
  162.1400  209.9350  156.7460 C   0  0  0  0  0  2  0  0  0  0  0  0
  161.8630  208.4700  156.4690 C   0  0  0  0  0  2  0  0  0  0  0  0
  160.5450  208.0540  157.1000 C   0  0  0  0  0  2  0  0  0  0  0  0
  159.7150  207.2580  156.1100 C   0  0  0  0  0  1  0  0  0  0  0  0
  2  1  1  0  0  0  0
  2 19  1  0  0  0  0
  3  2  1  0  0  0  0
  3  1  1  0  0  0  0
  4  2  1  0  0  0  0
  5  4  1  0  0  0  0
  6 13  1  0  0  0  0
  7 10  1  1  0  0  0
  7  9  1  0  0  0  0
  7 14  1  0  0  0  0
  8 11  1  0  0  0  0
  9 15  1  0  0  0  0
 12  9  2  0  0  0  0
 13 14  1  0  0  0  0
 13 18  2  0  0  0  0
 14  8  2  0  0  0  0
 15  8  1  0  0  0  0
 15  5  1  0  0  0  0
 16 18  1  0  0  0  0
 17 11  2  0  0  0  0
 18 17  1  0  0  0  0
 19 20  1  0  0  0  0
 20 21  1  0  0  0  0
 21 22  1  0  0  0  0
 22 32  1  1  0  0  0
 22 24  1  0  0  0  0
 24 23  1  6  0  0  0
 25 24  1  0  0  0  0
 26 25  1  0  0  0  0
 27 26  1  0  0  0  0
 28 27  1  0  0  0  0
 29 28  1  0  0  0  0
 30 29  1  0  0  0  0
 31 29  1  0  0  0  0
 32 33  1  0  0  0  0
 34 33  1  0  0  0  0
 34 35  1  0  0  0  0
 36 35  1  0  0  0  0
M  END
>  <MODEL>
8

>  <REMARK>
 VINA RESULT:      -6.1      4.274      9.443
  Name = 
  17 active torsions:
  status: ('A' for Active; 'I' for Inactive)
    1  A    between atoms: N_4  and  C_10
    2  A    between atoms: N_4  and  N_31
    3  A    between atoms: O_6  and  C_20
    4  A    between atoms: O_6  and  O_32
    5  A    between atoms: C_7  and  C_22
    6  A    between atoms: C_7  and  C_30
    7  A    between atoms: C_8  and  C_24
    8  A    between atoms: C_8  and  C_29
    9  A    between atoms: C_10  and  C_17
   10  A    between atoms: C_11  and  C_29
   11  A    between atoms: C_14  and  C_19
   12  A    between atoms: C_14  and  C_25
   13  A    between atoms: C_15  and  C_25
   14  A    between atoms: C_17  and  C_20
   15  A    between atoms: C_19  and  C_30
   16  A    between atoms: C_22  and  C_24
   17  A    between atoms: C_30  and  O_32
                            x       y       z     vdW  Elec       q    Type
                         _______ _______ _______ _____ _____    ______ ____

>  <TORSDO>
F 17

$$$$
=
 OpenBabel11042420243D

 36 38  0  0  1  0  0  0  0  0999 V2000
  160.7120  209.7680  152.0000 C   0  0  0  0  0  2  0  0  0  0  0  0
  162.0190  209.5880  151.2640 C   0  0  0  0  0  0  0  0  0  0  0  0
  162.0350  209.9220  152.7410 C   0  0  0  0  0  2  0  0  0  0  0  0
  162.3110  208.1450  150.9050 C   0  0  0  0  0  2  0  0  0  0  0  0
  161.1000  207.5030  150.4210 N   0  0  0  0  0  2  0  0  0  0  0  0
  160.8330  202.1930  147.5450 N   0  0  0  0  0  1  0  0  0  0  0  0
  161.3480  205.2260  147.4590 C   0  0  1  0  0  3  0  0  0  0  0  0
  161.2850  205.0900  149.8200 C   0  0  0  0  0  0  0  0  0  0  0  0
  161.4610  206.5630  148.1390 C   0  0  0  0  0  0  0  0  0  0  0  0
  162.6420  204.9120  146.7300 C   0  0  0  0  0  1  0  0  0  0  0  0
  161.1050  204.5370  151.0470 N   0  0  0  0  0  0  0  0  0  0  0  0
  161.4830  207.6630  147.5270 O   0  0  0  0  0  0  0  0  0  0  0  0
  160.9460  202.9740  148.7320 C   0  0  0  0  0  0  0  0  0  0  0  0
  161.2090  204.3430  148.6640 C   0  0  0  0  0  0  0  0  0  0  0  0
  161.4900  206.4660  149.5600 N   0  0  0  0  0  0  0  0  0  0  0  0
  160.5130  201.0000  150.1350 N   0  0  0  0  0  1  0  0  0  0  0  0
  160.8610  203.1990  151.1530 C   0  0  0  0  0  3  0  0  0  0  0  0
  160.7810  202.3920  150.0030 C   0  0  0  0  0  0  0  0  0  0  0  0
  162.3260  210.6930  150.2500 C   0  0  0  0  0  2  0  0  0  0  0  0
  161.5760  210.5430  149.0770 O   0  0  0  0  0  0  0  0  0  0  0  0
  162.0830  211.4230  148.2340 O   0  0  0  0  0  0  0  0  0  0  0  0
  161.0430  212.3300  147.9830 C   0  0  1  0  0  3  0  0  0  0  0  0
  162.8930  213.8560  148.2300 O   0  0  0  0  0  1  0  0  0  0  0  0
  161.4990  213.7750  148.2010 C   0  0  2  0  0  3  0  0  0  0  0  0
  160.9350  214.3370  149.5000 C   0  0  0  0  0  2  0  0  0  0  0  0
  159.6010  213.6980  149.8640 C   0  0  0  0  0  2  0  0  0  0  0  0
  159.3130  213.8310  151.3500 C   0  0  0  0  0  2  0  0  0  0  0  0
  158.6200  212.5820  151.8660 C   0  0  0  0  0  2  0  0  0  0  0  0
  158.3040  212.7320  153.3420 C   0  0  0  0  0  3  0  0  0  0  0  0
  159.4840  212.9770  154.0440 O   0  0  0  0  0  1  0  0  0  0  0  0
  157.7170  211.5610  153.8220 O   0  0  0  0  0  1  0  0  0  0  0  0
  160.4430  212.1170  146.5950 C   0  0  0  0  0  2  0  0  0  0  0  0
  160.8400  213.2110  145.6180 C   0  0  0  0  0  2  0  0  0  0  0  0
  160.9990  212.6170  144.2320 C   0  0  0  0  0  2  0  0  0  0  0  0
  162.3710  212.9470  143.6700 C   0  0  0  0  0  2  0  0  0  0  0  0
  163.0300  214.0370  144.4950 C   0  0  0  0  0  1  0  0  0  0  0  0
  1  3  1  0  0  0  0
  2  1  1  0  0  0  0
  2  3  1  0  0  0  0
  4  2  1  0  0  0  0
  5  4  1  0  0  0  0
  6 13  1  0  0  0  0
  7 10  1  1  0  0  0
  7  9  1  0  0  0  0
  7 14  1  0  0  0  0
  8 11  1  0  0  0  0
  9 15  1  0  0  0  0
 11 17  2  0  0  0  0
 12  9  2  0  0  0  0
 13 18  2  0  0  0  0
 14 13  1  0  0  0  0
 14  8  2  0  0  0  0
 15  8  1  0  0  0  0
 15  5  1  0  0  0  0
 18 16  1  0  0  0  0
 18 17  1  0  0  0  0
 19  2  1  0  0  0  0
 20 19  1  0  0  0  0
 21 20  1  0  0  0  0
 22 32  1  6  0  0  0
 22 24  1  0  0  0  0
 22 21  1  0  0  0  0
 24 23  1  1  0  0  0
 24 25  1  0  0  0  0
 25 26  1  0  0  0  0
 26 27  1  0  0  0  0
 27 28  1  0  0  0  0
 28 29  1  0  0  0  0
 29 31  1  0  0  0  0
 29 30  1  0  0  0  0
 33 32  1  0  0  0  0
 34 33  1  0  0  0  0
 35 34  1  0  0  0  0
 35 36  1  0  0  0  0
M  END
>  <MODEL>
9

>  <REMARK>
 VINA RESULT:      -6.0      4.828      9.717
  Name = 
  17 active torsions:
  status: ('A' for Active; 'I' for Inactive)
    1  A    between atoms: N_4  and  C_10
    2  A    between atoms: N_4  and  N_31
    3  A    between atoms: O_6  and  C_20
    4  A    between atoms: O_6  and  O_32
    5  A    between atoms: C_7  and  C_22
    6  A    between atoms: C_7  and  C_30
    7  A    between atoms: C_8  and  C_24
    8  A    between atoms: C_8  and  C_29
    9  A    between atoms: C_10  and  C_17
   10  A    between atoms: C_11  and  C_29
   11  A    between atoms: C_14  and  C_19
   12  A    between atoms: C_14  and  C_25
   13  A    between atoms: C_15  and  C_25
   14  A    between atoms: C_17  and  C_20
   15  A    between atoms: C_19  and  C_30
   16  A    between atoms: C_22  and  C_24
   17  A    between atoms: C_30  and  O_32
                            x       y       z     vdW  Elec       q    Type
                         _______ _______ _______ _____ _____    ______ ____

>  <TORSDO>
F 17

$$$$
