=
 OpenBabel11042421153D

 32 33  0  0  1  0  0  0  0  0999 V2000
  160.2920  209.4690  153.9930 C   0  0  0  0  0  2  0  0  0  0  0  0
  161.2500  208.9900  156.8520 C   0  0  0  0  0  3  0  0  0  0  0  0
  161.3860  206.1330  154.3980 C   0  0  0  0  0  3  0  0  0  0  0  0
  161.0340  207.6160  152.7310 N   0  0  0  0  0  0  0  0  0  0  0  0
  160.8220  208.2460  153.9040 C   0  0  0  0  0  0  0  0  0  0  0  0
  161.3280  206.3320  153.0280 C   0  0  0  0  0  0  0  0  0  0  0  0
  159.7040  210.0190  155.2520 C   0  0  0  0  0  2  0  0  0  0  0  0
  160.6320  210.0270  156.3720 N   0  0  0  0  0  0  0  0  0  0  0  0
  161.2600  207.6450  156.2440 C   0  0  0  0  0  2  0  0  0  0  0  0
  161.0820  207.3680  154.9480 C   0  0  0  0  0  0  0  0  0  0  0  0
  160.8260  208.1490  151.3860 C   0  0  0  0  0  2  0  0  0  0  0  0
  162.1500  208.3230  150.6420 C   0  0  2  0  0  3  0  0  0  0  0  0
  162.6210  210.2720  151.5840 C   0  0  0  0  0  1  0  0  0  0  0  0
  162.3160  209.6810  150.3560 O   0  0  0  0  0  0  0  0  0  0  0  0
  162.6710  208.2710  148.3000 O   0  0  0  0  0  1  0  0  0  0  0  0
  162.1590  207.5030  149.3490 C   0  0  2  0  0  3  0  0  0  0  0  0
  160.7580  207.0320  148.9810 C   0  0  0  0  0  2  0  0  0  0  0  0
  160.8220  205.8300  148.0540 C   0  0  0  0  0  2  0  0  0  0  0  0
  161.9800  205.0930  148.3050 O   0  0  0  0  0  0  0  0  0  0  0  0
  161.8880  203.9940  147.4500 C   0  0  0  0  0  2  0  0  0  0  0  0
  162.2690  204.3940  146.0600 C   0  0  0  0  0  0  0  0  0  0  0  0
  163.3280  204.9640  145.8610 O   0  0  0  0  0  0  0  0  0  0  0  0
  161.3750  204.0720  144.9020 C   0  0  2  0  0  3  0  0  0  0  0  0
  160.5120  205.1370  144.6520 O   0  0  0  0  0  1  0  0  0  0  0  0
  160.5710  202.8160  145.1860 C   0  0  0  0  0  1  0  0  0  0  0  0
  161.6250  205.2810  152.0090 C   0  0  0  0  0  2  0  0  0  0  0  0
  160.9470  203.9840  152.4010 C   0  0  0  0  0  2  0  0  0  0  0  0
  161.2260  202.9220  151.3590 C   0  0  0  0  0  2  0  0  0  0  0  0
  160.1530  202.9910  150.2860 C   0  0  0  0  0  2  0  0  0  0  0  0
  159.9530  201.6330  149.6390 C   0  0  0  0  0  2  0  0  0  0  0  0
  161.4540  200.5010  148.0300 C   0  0  0  0  0  1  0  0  0  0  0  0
  161.2880  200.9270  149.4710 C   0  0  0  0  0  2  0  0  0  0  0  0
  1  7  1  0  0  0  0
  3 10  1  0  0  0  0
  4  6  1  0  0  0  0
  4  5  1  0  0  0  0
  5  1  1  0  0  0  0
  5 10  2  0  0  0  0
  6  3  2  0  0  0  0
  7  8  1  0  0  0  0
  8  2  2  0  0  0  0
  9  2  1  0  0  0  0
 10  9  1  0  0  0  0
 11  4  1  0  0  0  0
 12 11  1  6  0  0  0
 14 12  1  0  0  0  0
 14 13  1  0  0  0  0
 16 15  1  6  0  0  0
 16 12  1  0  0  0  0
 17 16  1  0  0  0  0
 18 19  1  0  0  0  0
 18 17  1  0  0  0  0
 20 19  1  0  0  0  0
 21 20  1  0  0  0  0
 22 21  2  0  0  0  0
 23 25  1  1  0  0  0
 23 21  1  0  0  0  0
 24 23  1  0  0  0  0
 26 27  1  0  0  0  0
 26  6  1  0  0  0  0
 28 27  1  0  0  0  0
 29 28  1  0  0  0  0
 30 29  1  0  0  0  0
 31 32  1  0  0  0  0
 32 30  1  0  0  0  0
M  END
>  <MODEL>
1

>  <REMARK>
 VINA RESULT:      -6.9      0.000      0.000
  Name = 
  16 active torsions:
  status: ('A' for Active; 'I' for Inactive)
    1  A    between atoms: C_1  and  C_22
    2  A    between atoms: C_1  and  C_24
    3  A    between atoms: C_2  and  C_7
    4  A    between atoms: C_2  and  C_25
    5  A    between atoms: C_6  and  C_9
    6  A    between atoms: C_6  and  C_32
    7  A    between atoms: C_9  and  O_12
    8  A    between atoms: N_10  and  C_20
    9  A    between atoms: O_12  and  C_25
   10  A    between atoms: C_14  and  C_17
   11  A    between atoms: C_14  and  C_19
   12  A    between atoms: C_16  and  O_18
   13  A    between atoms: C_16  and  C_20
   14  A    between atoms: C_16  and  C_32
   15  A    between atoms: C_17  and  C_21
   16  A    between atoms: C_21  and  C_24
                            x       y       z     vdW  Elec       q    Type
                         _______ _______ _______ _____ _____    ______ ____

>  <TORSDO>
F 16

$$$$
=
 OpenBabel11042421153D

 32 33  0  0  1  0  0  0  0  0999 V2000
  161.7590  206.3850  152.0310 C   0  0  0  0  0  2  0  0  0  0  0  0
  160.8910  203.4600  152.1460 C   0  0  0  0  0  3  0  0  0  0  0  0
  160.6530  205.2870  148.8590 C   0  0  0  0  0  3  0  0  0  0  0  0
  161.9260  206.9310  149.7390 N   0  0  0  0  0  0  0  0  0  0  0  0
  161.5560  206.1070  150.7400 C   0  0  0  0  0  0  0  0  0  0  0  0
  161.3440  206.4630  148.6150 C   0  0  0  0  0  0  0  0  0  0  0  0
  161.0350  205.6950  153.1420 C   0  0  0  0  0  2  0  0  0  0  0  0
  161.1960  204.2490  153.1310 N   0  0  0  0  0  0  0  0  0  0  0  0
  160.4870  203.8970  150.7950 C   0  0  0  0  0  2  0  0  0  0  0  0
  160.8130  205.0570  150.2160 C   0  0  0  0  0  0  0  0  0  0  0  0
  162.6680  208.1860  149.8510 C   0  0  0  0  0  2  0  0  0  0  0  0
  161.7310  209.3930  149.8310 C   0  0  2  0  0  3  0  0  0  0  0  0
  161.7500  211.5240  149.2260 C   0  0  0  0  0  1  0  0  0  0  0  0
  162.1410  210.2500  148.8070 O   0  0  0  0  0  0  0  0  0  0  0  0
  162.9840  209.9110  151.8120 O   0  0  0  0  0  1  0  0  0  0  0  0
  161.7580  210.1240  151.1770 C   0  0  2  0  0  3  0  0  0  0  0  0
  160.6360  209.6460  152.0910 C   0  0  0  0  0  2  0  0  0  0  0  0
  159.8840  210.8280  152.6790 C   0  0  0  0  0  2  0  0  0  0  0  0
  160.2720  211.0340  154.0030 O   0  0  0  0  0  0  0  0  0  0  0  0
  160.5690  209.7580  154.4830 C   0  0  0  0  0  2  0  0  0  0  0  0
  160.0770  209.6130  155.8880 C   0  0  0  0  0  0  0  0  0  0  0  0
  159.2510  210.3970  156.3250 O   0  0  0  0  0  0  0  0  0  0  0  0
  160.5650  208.4940  156.7550 C   0  0  2  0  0  3  0  0  0  0  0  0
  161.9470  208.3550  156.6280 O   0  0  0  0  0  1  0  0  0  0  0  0
  159.8820  207.1930  156.3760 C   0  0  0  0  0  1  0  0  0  0  0  0
  161.4880  207.0940  147.2690 C   0  0  0  0  0  2  0  0  0  0  0  0
  161.1550  206.0810  146.1920 C   0  0  0  0  0  2  0  0  0  0  0  0
  162.4300  205.5080  145.6120 C   0  0  0  0  0  2  0  0  0  0  0  0
  162.3700  203.9930  145.6930 C   0  0  0  0  0  2  0  0  0  0  0  0
  160.9840  203.4900  145.3340 C   0  0  0  0  0  2  0  0  0  0  0  0
  160.9810  202.0050  147.3130 C   0  0  0  0  0  1  0  0  0  0  0  0
  160.8010  202.0600  145.8120 C   0  0  0  0  0  2  0  0  0  0  0  0
  1  7  1  0  0  0  0
  2  8  2  0  0  0  0
  3 10  1  0  0  0  0
  4 11  1  0  0  0  0
  4  5  1  0  0  0  0
  5  1  1  0  0  0  0
  6  3  2  0  0  0  0
  6  4  1  0  0  0  0
  8  7  1  0  0  0  0
  9  2  1  0  0  0  0
 10  5  2  0  0  0  0
 10  9  1  0  0  0  0
 12 11  1  1  0  0  0
 12 16  1  0  0  0  0
 14 13  1  0  0  0  0
 14 12  1  0  0  0  0
 16 15  1  1  0  0  0
 16 17  1  0  0  0  0
 17 18  1  0  0  0  0
 18 19  1  0  0  0  0
 19 20  1  0  0  0  0
 20 21  1  0  0  0  0
 21 22  2  0  0  0  0
 21 23  1  0  0  0  0
 23 25  1  6  0  0  0
 24 23  1  0  0  0  0
 26  6  1  0  0  0  0
 27 26  1  0  0  0  0
 28 29  1  0  0  0  0
 28 27  1  0  0  0  0
 30 29  1  0  0  0  0
 30 32  1  0  0  0  0
 32 31  1  0  0  0  0
M  END
>  <MODEL>
2

>  <REMARK>
 VINA RESULT:      -6.7      2.598      6.784
  Name = 
  16 active torsions:
  status: ('A' for Active; 'I' for Inactive)
    1  A    between atoms: C_1  and  C_22
    2  A    between atoms: C_1  and  C_24
    3  A    between atoms: C_2  and  C_7
    4  A    between atoms: C_2  and  C_25
    5  A    between atoms: C_6  and  C_9
    6  A    between atoms: C_6  and  C_32
    7  A    between atoms: C_9  and  O_12
    8  A    between atoms: N_10  and  C_20
    9  A    between atoms: O_12  and  C_25
   10  A    between atoms: C_14  and  C_17
   11  A    between atoms: C_14  and  C_19
   12  A    between atoms: C_16  and  O_18
   13  A    between atoms: C_16  and  C_20
   14  A    between atoms: C_16  and  C_32
   15  A    between atoms: C_17  and  C_21
   16  A    between atoms: C_21  and  C_24
                            x       y       z     vdW  Elec       q    Type
                         _______ _______ _______ _____ _____    ______ ____

>  <TORSDO>
F 16

$$$$
=
 OpenBabel11042421153D

 32 33  0  0  1  0  0  0  0  0999 V2000
  161.2610  209.2170  152.9440 C   0  0  0  0  0  2  0  0  0  0  0  0
  160.5960  208.9580  155.9130 C   0  0  0  0  0  3  0  0  0  0  0  0
  160.9260  205.8180  153.8550 C   0  0  0  0  0  3  0  0  0  0  0  0
  161.8670  207.0530  152.2150 N   0  0  0  0  0  0  0  0  0  0  0  0
  161.3540  207.8980  153.1330 C   0  0  0  0  0  0  0  0  0  0  0  0
  161.5670  205.8040  152.6270 C   0  0  0  0  0  0  0  0  0  0  0  0
  160.3710  210.1010  153.7560 C   0  0  0  0  0  2  0  0  0  0  0  0
  160.6310  210.0330  155.1860 N   0  0  0  0  0  0  0  0  0  0  0  0
  160.4550  207.5820  155.3960 C   0  0  0  0  0  2  0  0  0  0  0  0
  160.8130  207.1610  154.1790 C   0  0  0  0  0  0  0  0  0  0  0  0
  162.4790  207.4000  150.9340 C   0  0  0  0  0  2  0  0  0  0  0  0
  161.4450  207.4250  149.8090 C   0  0  2  0  0  3  0  0  0  0  0  0
  160.2750  206.1790  148.4010 C   0  0  0  0  0  1  0  0  0  0  0  0
  161.4020  206.1560  149.2250 O   0  0  0  0  0  0  0  0  0  0  0  0
  162.9450  208.0780  148.0520 O   0  0  0  0  0  1  0  0  0  0  0  0
  161.8090  208.4790  148.7590 C   0  0  2  0  0  3  0  0  0  0  0  0
  162.0790  209.8340  149.4030 C   0  0  0  0  0  2  0  0  0  0  0  0
  161.9530  210.9490  148.3790 C   0  0  0  0  0  2  0  0  0  0  0  0
  162.2790  212.1740  148.9620 O   0  0  0  0  0  0  0  0  0  0  0  0
  161.1780  212.9900  148.7010 C   0  0  0  0  0  2  0  0  0  0  0  0
  161.3550  213.6850  147.3890 C   0  0  0  0  0  0  0  0  0  0  0  0
  162.4460  214.1380  147.0850 O   0  0  0  0  0  0  0  0  0  0  0  0
  160.2120  213.8050  146.4290 C   0  0  2  0  0  3  0  0  0  0  0  0
  159.0420  214.1300  147.1130 O   0  0  0  0  0  1  0  0  0  0  0  0
  160.0190  212.5060  145.6700 C   0  0  0  0  0  1  0  0  0  0  0  0
  161.9470  204.5620  151.8880 C   0  0  0  0  0  2  0  0  0  0  0  0
  160.8810  203.5040  152.0850 C   0  0  0  0  0  2  0  0  0  0  0  0
  161.1480  202.3280  151.1700 C   0  0  0  0  0  2  0  0  0  0  0  0
  160.3110  202.4820  149.9130 C   0  0  0  0  0  2  0  0  0  0  0  0
  161.1980  202.5690  148.6850 C   0  0  0  0  0  2  0  0  0  0  0  0
  160.8170  201.8910  146.3360 C   0  0  0  0  0  1  0  0  0  0  0  0
  160.9350  201.3940  147.7590 C   0  0  0  0  0  2  0  0  0  0  0  0
  1  5  1  0  0  0  0
  1  7  1  0  0  0  0
  3 10  1  0  0  0  0
  4  6  1  0  0  0  0
  4  5  1  0  0  0  0
  5 10  2  0  0  0  0
  6  3  2  0  0  0  0
  7  8  1  0  0  0  0
  8  2  2  0  0  0  0
  9  2  1  0  0  0  0
 10  9  1  0  0  0  0
 11  4  1  0  0  0  0
 12 11  1  1  0  0  0
 13 14  1  0  0  0  0
 14 12  1  0  0  0  0
 16 15  1  1  0  0  0
 16 17  1  0  0  0  0
 16 12  1  0  0  0  0
 18 19  1  0  0  0  0
 18 17  1  0  0  0  0
 20 19  1  0  0  0  0
 21 20  1  0  0  0  0
 22 21  2  0  0  0  0
 23 25  1  1  0  0  0
 23 24  1  0  0  0  0
 23 21  1  0  0  0  0
 26 27  1  0  0  0  0
 26  6  1  0  0  0  0
 28 27  1  0  0  0  0
 29 28  1  0  0  0  0
 30 29  1  0  0  0  0
 31 32  1  0  0  0  0
 32 30  1  0  0  0  0
M  END
>  <MODEL>
3

>  <REMARK>
 VINA RESULT:      -6.5      2.820      4.707
  Name = 
  16 active torsions:
  status: ('A' for Active; 'I' for Inactive)
    1  A    between atoms: C_1  and  C_22
    2  A    between atoms: C_1  and  C_24
    3  A    between atoms: C_2  and  C_7
    4  A    between atoms: C_2  and  C_25
    5  A    between atoms: C_6  and  C_9
    6  A    between atoms: C_6  and  C_32
    7  A    between atoms: C_9  and  O_12
    8  A    between atoms: N_10  and  C_20
    9  A    between atoms: O_12  and  C_25
   10  A    between atoms: C_14  and  C_17
   11  A    between atoms: C_14  and  C_19
   12  A    between atoms: C_16  and  O_18
   13  A    between atoms: C_16  and  C_20
   14  A    between atoms: C_16  and  C_32
   15  A    between atoms: C_17  and  C_21
   16  A    between atoms: C_21  and  C_24
                            x       y       z     vdW  Elec       q    Type
                         _______ _______ _______ _____ _____    ______ ____

>  <TORSDO>
F 16

$$$$
=
 OpenBabel11042421153D

 32 33  0  0  1  0  0  0  0  0999 V2000
  162.0410  207.6240  149.5450 C   0  0  0  0  0  2  0  0  0  0  0  0
  162.2020  210.6540  149.8760 C   0  0  0  0  0  3  0  0  0  0  0  0
  160.8500  208.5960  152.7280 C   0  0  0  0  0  3  0  0  0  0  0  0
  161.6460  206.7470  151.7030 N   0  0  0  0  0  0  0  0  0  0  0  0
  161.7320  207.7770  150.8360 C   0  0  0  0  0  0  0  0  0  0  0  0
  161.0710  207.2320  152.8250 C   0  0  0  0  0  0  0  0  0  0  0  0
  161.7730  208.6660  148.5090 C   0  0  0  0  0  2  0  0  0  0  0  0
  162.3910  209.9500  148.8020 N   0  0  0  0  0  0  0  0  0  0  0  0
  161.4640  210.2060  151.0730 C   0  0  0  0  0  2  0  0  0  0  0  0
  161.2960  208.9380  151.4620 C   0  0  0  0  0  0  0  0  0  0  0  0
  161.9470  205.3410  151.4440 C   0  0  0  0  0  2  0  0  0  0  0  0
  160.7480  204.6150  150.8330 C   0  0  2  0  0  3  0  0  0  0  0  0
  161.6240  202.9920  152.0590 C   0  0  0  0  0  1  0  0  0  0  0  0
  160.4050  203.5520  151.6730 O   0  0  0  0  0  0  0  0  0  0  0  0
  160.6370  205.0040  148.4670 O   0  0  0  0  0  1  0  0  0  0  0  0
  161.0830  204.0970  149.4310 C   0  0  2  0  0  3  0  0  0  0  0  0
  160.4390  202.7400  149.1730 C   0  0  0  0  0  2  0  0  0  0  0  0
  161.1760  201.9970  148.0720 C   0  0  0  0  0  2  0  0  0  0  0  0
  160.4520  202.0620  146.8810 O   0  0  0  0  0  0  0  0  0  0  0  0
  161.3840  202.4680  145.9260 C   0  0  0  0  0  2  0  0  0  0  0  0
  160.8290  203.5970  145.1170 C   0  0  0  0  0  0  0  0  0  0  0  0
  159.8640  203.4090  144.3960 O   0  0  0  0  0  0  0  0  0  0  0  0
  161.4280  204.9660  145.2070 C   0  0  2  0  0  3  0  0  0  0  0  0
  161.4650  205.5580  143.9460 O   0  0  0  0  0  1  0  0  0  0  0  0
  162.8300  204.8950  145.7820 C   0  0  0  0  0  1  0  0  0  0  0  0
  160.7820  206.4130  154.0410 C   0  0  0  0  0  2  0  0  0  0  0  0
  161.1610  207.1920  155.2830 C   0  0  0  0  0  2  0  0  0  0  0  0
  159.9120  207.6330  156.0160 C   0  0  0  0  0  2  0  0  0  0  0  0
  160.0840  209.0740  156.4600 C   0  0  0  0  0  2  0  0  0  0  0  0
  161.5020  209.5500  156.2030 C   0  0  0  0  0  2  0  0  0  0  0  0
  160.2270  211.3210  155.0360 C   0  0  0  0  0  1  0  0  0  0  0  0
  161.5010  211.0120  155.7900 C   0  0  0  0  0  2  0  0  0  0  0  0
  1  5  1  0  0  0  0
  2  9  1  0  0  0  0
  3  6  2  0  0  0  0
  4  6  1  0  0  0  0
  5 10  2  0  0  0  0
  5  4  1  0  0  0  0
  6 26  1  0  0  0  0
  7  8  1  0  0  0  0
  7  1  1  0  0  0  0
  8  2  2  0  0  0  0
  9 10  1  0  0  0  0
 10  3  1  0  0  0  0
 11  4  1  0  0  0  0
 12 11  1  1  0  0  0
 12 14  1  0  0  0  0
 14 13  1  0  0  0  0
 16 15  1  6  0  0  0
 16 12  1  0  0  0  0
 17 16  1  0  0  0  0
 18 17  1  0  0  0  0
 19 18  1  0  0  0  0
 20 19  1  0  0  0  0
 21 23  1  0  0  0  0
 21 20  1  0  0  0  0
 22 21  2  0  0  0  0
 23 25  1  6  0  0  0
 24 23  1  0  0  0  0
 26 27  1  0  0  0  0
 27 28  1  0  0  0  0
 28 29  1  0  0  0  0
 30 29  1  0  0  0  0
 31 32  1  0  0  0  0
 32 30  1  0  0  0  0
M  END
>  <MODEL>
4

>  <REMARK>
 VINA RESULT:      -6.4      1.995      5.751
  Name = 
  16 active torsions:
  status: ('A' for Active; 'I' for Inactive)
    1  A    between atoms: C_1  and  C_22
    2  A    between atoms: C_1  and  C_24
    3  A    between atoms: C_2  and  C_7
    4  A    between atoms: C_2  and  C_25
    5  A    between atoms: C_6  and  C_9
    6  A    between atoms: C_6  and  C_32
    7  A    between atoms: C_9  and  O_12
    8  A    between atoms: N_10  and  C_20
    9  A    between atoms: O_12  and  C_25
   10  A    between atoms: C_14  and  C_17
   11  A    between atoms: C_14  and  C_19
   12  A    between atoms: C_16  and  O_18
   13  A    between atoms: C_16  and  C_20
   14  A    between atoms: C_16  and  C_32
   15  A    between atoms: C_17  and  C_21
   16  A    between atoms: C_21  and  C_24
                            x       y       z     vdW  Elec       q    Type
                         _______ _______ _______ _____ _____    ______ ____

>  <TORSDO>
F 16

$$$$
=
 OpenBabel11042421153D

 32 33  0  0  1  0  0  0  0  0999 V2000
  160.9200  204.5570  149.7890 C   0  0  0  0  0  2  0  0  0  0  0  0
  160.4560  203.0260  152.3890 C   0  0  0  0  0  3  0  0  0  0  0  0
  161.6930  206.5800  152.5820 C   0  0  0  0  0  3  0  0  0  0  0  0
  161.1730  206.8260  150.3980 N   0  0  0  0  0  0  0  0  0  0  0  0
  161.0830  205.5160  150.7060 C   0  0  0  0  0  0  0  0  0  0  0  0
  161.5860  207.4590  151.5160 C   0  0  0  0  0  0  0  0  0  0  0  0
  161.1980  203.1130  150.0550 C   0  0  0  0  0  2  0  0  0  0  0  0
  160.4400  202.5710  151.1730 N   0  0  0  0  0  0  0  0  0  0  0  0
  161.1070  204.2770  152.8250 C   0  0  0  0  0  2  0  0  0  0  0  0
  161.3480  205.3450  152.0580 C   0  0  0  0  0  0  0  0  0  0  0  0
  161.0270  207.4400  149.0800 C   0  0  0  0  0  2  0  0  0  0  0  0
  162.2700  207.2190  148.2190 C   0  0  2  0  0  3  0  0  0  0  0  0
  161.9380  209.4050  148.3430 C   0  0  0  0  0  1  0  0  0  0  0  0
  162.9140  208.4480  148.0540 O   0  0  0  0  0  0  0  0  0  0  0  0
  160.5010  206.5040  146.7620 O   0  0  0  0  0  1  0  0  0  0  0  0
  161.8890  206.6330  146.8560 C   0  0  2  0  0  3  0  0  0  0  0  0
  162.5290  205.2670  146.6410 C   0  0  0  0  0  2  0  0  0  0  0  0
  162.2010  204.7320  145.2570 C   0  0  0  0  0  2  0  0  0  0  0  0
  161.0250  203.9820  145.2990 O   0  0  0  0  0  0  0  0  0  0  0  0
  161.2410  203.0490  146.3140 C   0  0  0  0  0  2  0  0  0  0  0  0
  160.7960  201.6930  145.8670 C   0  0  0  0  0  0  0  0  0  0  0  0
  159.9130  201.5900  145.0330 O   0  0  0  0  0  0  0  0  0  0  0  0
  161.4470  200.4590  146.4110 C   0  0  2  0  0  3  0  0  0  0  0  0
  160.8880  199.3240  145.8270 O   0  0  0  0  0  1  0  0  0  0  0  0
  161.2840  200.3940  147.9180 C   0  0  0  0  0  1  0  0  0  0  0  0
  161.8240  208.9310  151.6090 C   0  0  0  0  0  2  0  0  0  0  0  0
  161.5310  209.4080  153.0160 C   0  0  0  0  0  2  0  0  0  0  0  0
  160.1920  210.1120  153.0520 C   0  0  0  0  0  2  0  0  0  0  0  0
  159.7620  210.2800  154.4980 C   0  0  0  0  0  2  0  0  0  0  0  0
  160.7520  209.6110  155.4340 C   0  0  0  0  0  2  0  0  0  0  0  0
  160.0100  207.2960  155.8960 C   0  0  0  0  0  1  0  0  0  0  0  0
  160.0240  208.7150  156.4200 C   0  0  0  0  0  2  0  0  0  0  0  0
  1  7  1  0  0  0  0
  1  5  1  0  0  0  0
  2  9  1  0  0  0  0
  4  5  1  0  0  0  0
  4  6  1  0  0  0  0
  5 10  2  0  0  0  0
  6 26  1  0  0  0  0
  6  3  2  0  0  0  0
  7  8  1  0  0  0  0
  8  2  2  0  0  0  0
 10  3  1  0  0  0  0
 10  9  1  0  0  0  0
 11  4  1  0  0  0  0
 12 11  1  1  0  0  0
 14 12  1  0  0  0  0
 14 13  1  0  0  0  0
 16 15  1  1  0  0  0
 16 12  1  0  0  0  0
 17 16  1  0  0  0  0
 18 19  1  0  0  0  0
 18 17  1  0  0  0  0
 19 20  1  0  0  0  0
 21 20  1  0  0  0  0
 21 23  1  0  0  0  0
 22 21  2  0  0  0  0
 23 25  1  1  0  0  0
 24 23  1  0  0  0  0
 26 27  1  0  0  0  0
 27 28  1  0  0  0  0
 28 29  1  0  0  0  0
 29 30  1  0  0  0  0
 30 32  1  0  0  0  0
 31 32  1  0  0  0  0
M  END
>  <MODEL>
5

>  <REMARK>
 VINA RESULT:      -6.2      2.009      5.581
  Name = 
  16 active torsions:
  status: ('A' for Active; 'I' for Inactive)
    1  A    between atoms: C_1  and  C_22
    2  A    between atoms: C_1  and  C_24
    3  A    between atoms: C_2  and  C_7
    4  A    between atoms: C_2  and  C_25
    5  A    between atoms: C_6  and  C_9
    6  A    between atoms: C_6  and  C_32
    7  A    between atoms: C_9  and  O_12
    8  A    between atoms: N_10  and  C_20
    9  A    between atoms: O_12  and  C_25
   10  A    between atoms: C_14  and  C_17
   11  A    between atoms: C_14  and  C_19
   12  A    between atoms: C_16  and  O_18
   13  A    between atoms: C_16  and  C_20
   14  A    between atoms: C_16  and  C_32
   15  A    between atoms: C_17  and  C_21
   16  A    between atoms: C_21  and  C_24
                            x       y       z     vdW  Elec       q    Type
                         _______ _______ _______ _____ _____    ______ ____

>  <TORSDO>
F 16

$$$$
=
 OpenBabel11042421153D

 32 33  0  0  1  0  0  0  0  0999 V2000
  161.3890  209.7110  151.7010 C   0  0  0  0  0  2  0  0  0  0  0  0
  162.0270  209.2880  148.7460 C   0  0  0  0  0  3  0  0  0  0  0  0
  162.1340  206.3160  151.0600 C   0  0  0  0  0  3  0  0  0  0  0  0
  161.0740  207.5580  152.6200 N   0  0  0  0  0  0  0  0  0  0  0  0
  161.4600  208.3790  151.6230 C   0  0  0  0  0  0  0  0  0  0  0  0
  161.5210  206.3250  152.3030 C   0  0  0  0  0  0  0  0  0  0  0  0
  162.1450  210.6270  150.7950 C   0  0  0  0  0  2  0  0  0  0  0  0
  161.8690  210.4080  149.3830 N   0  0  0  0  0  0  0  0  0  0  0  0
  162.3490  207.9880  149.3680 C   0  0  0  0  0  2  0  0  0  0  0  0
  162.0700  207.6300  150.6250 C   0  0  0  0  0  0  0  0  0  0  0  0
  160.4460  207.9330  153.8860 C   0  0  0  0  0  2  0  0  0  0  0  0
  161.4870  208.1410  154.9860 C   0  0  2  0  0  3  0  0  0  0  0  0
  159.7120  207.1750  155.8930 C   0  0  0  0  0  1  0  0  0  0  0  0
  161.0580  207.4610  156.1290 O   0  0  0  0  0  0  0  0  0  0  0  0
  162.1920  209.7970  156.5740 O   0  0  0  0  0  1  0  0  0  0  0  0
  161.6650  209.6320  155.2910 C   0  0  2  0  0  3  0  0  0  0  0  0
  160.3400  210.3780  155.1980 C   0  0  0  0  0  2  0  0  0  0  0  0
  160.5240  211.8430  155.5580 C   0  0  0  0  0  2  0  0  0  0  0  0
  159.3330  212.5410  155.3550 O   0  0  0  0  0  0  0  0  0  0  0  0
  158.5890  211.7230  154.5050 C   0  0  0  0  0  2  0  0  0  0  0  0
  157.3880  212.4610  154.0060 C   0  0  0  0  0  0  0  0  0  0  0  0
  157.4860  213.1930  153.0350 O   0  0  0  0  0  0  0  0  0  0  0  0
  156.0550  212.2850  154.6660 C   0  0  2  0  0  3  0  0  0  0  0  0
  155.9350  213.1610  155.7450 O   0  0  0  0  0  1  0  0  0  0  0  0
  155.8850  210.8550  155.1450 C   0  0  0  0  0  1  0  0  0  0  0  0
  161.3150  205.1120  153.1510 C   0  0  0  0  0  2  0  0  0  0  0  0
  160.5230  204.0780  152.3790 C   0  0  0  0  0  2  0  0  0  0  0  0
  161.4510  203.0000  151.8610 C   0  0  0  0  0  2  0  0  0  0  0  0
  160.9280  202.4970  150.5280 C   0  0  0  0  0  2  0  0  0  0  0  0
  160.7100  203.6520  149.5670 C   0  0  0  0  0  2  0  0  0  0  0  0
  161.5450  204.6740  147.4740 C   0  0  0  0  0  1  0  0  0  0  0  0
  161.4150  203.3820  148.2490 C   0  0  0  0  0  2  0  0  0  0  0  0
  2  9  1  0  0  0  0
  2  8  2  0  0  0  0
  3  6  2  0  0  0  0
  4 11  1  0  0  0  0
  5  1  1  0  0  0  0
  5  4  1  0  0  0  0
  6  4  1  0  0  0  0
  6 26  1  0  0  0  0
  7  1  1  0  0  0  0
  8  7  1  0  0  0  0
  9 10  1  0  0  0  0
 10  3  1  0  0  0  0
 10  5  2  0  0  0  0
 12 11  1  6  0  0  0
 12 16  1  0  0  0  0
 12 14  1  0  0  0  0
 13 14  1  0  0  0  0
 16 15  1  1  0  0  0
 17 16  1  0  0  0  0
 17 18  1  0  0  0  0
 19 18  1  0  0  0  0
 20 19  1  0  0  0  0
 21 20  1  0  0  0  0
 21 23  1  0  0  0  0
 22 21  2  0  0  0  0
 23 25  1  1  0  0  0
 23 24  1  0  0  0  0
 27 26  1  0  0  0  0
 28 27  1  0  0  0  0
 29 28  1  0  0  0  0
 30 29  1  0  0  0  0
 31 32  1  0  0  0  0
 32 30  1  0  0  0  0
M  END
>  <MODEL>
6

>  <REMARK>
 VINA RESULT:      -6.1      3.963      7.390
  Name = 
  16 active torsions:
  status: ('A' for Active; 'I' for Inactive)
    1  A    between atoms: C_1  and  C_22
    2  A    between atoms: C_1  and  C_24
    3  A    between atoms: C_2  and  C_7
    4  A    between atoms: C_2  and  C_25
    5  A    between atoms: C_6  and  C_9
    6  A    between atoms: C_6  and  C_32
    7  A    between atoms: C_9  and  O_12
    8  A    between atoms: N_10  and  C_20
    9  A    between atoms: O_12  and  C_25
   10  A    between atoms: C_14  and  C_17
   11  A    between atoms: C_14  and  C_19
   12  A    between atoms: C_16  and  O_18
   13  A    between atoms: C_16  and  C_20
   14  A    between atoms: C_16  and  C_32
   15  A    between atoms: C_17  and  C_21
   16  A    between atoms: C_21  and  C_24
                            x       y       z     vdW  Elec       q    Type
                         _______ _______ _______ _____ _____    ______ ____

>  <TORSDO>
F 16

$$$$
=
 OpenBabel11042421153D

 32 33  0  0  1  0  0  0  0  0999 V2000
  160.8520  204.8050  149.5440 C   0  0  0  0  0  2  0  0  0  0  0  0
  160.4540  201.9340  150.5020 C   0  0  0  0  0  3  0  0  0  0  0  0
  161.5530  204.5350  152.9970 C   0  0  0  0  0  3  0  0  0  0  0  0
  161.0190  206.1310  151.4910 N   0  0  0  0  0  0  0  0  0  0  0  0
  160.9800  204.9360  150.8670 C   0  0  0  0  0  0  0  0  0  0  0  0
  161.4100  205.8920  152.7610 C   0  0  0  0  0  0  0  0  0  0  0  0
  161.1850  203.5470  148.8090 C   0  0  0  0  0  2  0  0  0  0  0  0
  160.4520  202.3840  149.2840 N   0  0  0  0  0  0  0  0  0  0  0  0
  161.0570  202.6150  151.6640 C   0  0  0  0  0  2  0  0  0  0  0  0
  161.2550  203.9320  151.7860 C   0  0  0  0  0  0  0  0  0  0  0  0
  160.8460  207.4520  150.8910 C   0  0  0  0  0  2  0  0  0  0  0  0
  162.1870  208.0590  150.4790 C   0  0  2  0  0  3  0  0  0  0  0  0
  161.0960  209.5070  151.7510 C   0  0  0  0  0  1  0  0  0  0  0  0
  162.3180  209.3000  151.1080 O   0  0  0  0  0  0  0  0  0  0  0  0
  162.3240  209.5820  148.6280 O   0  0  0  0  0  1  0  0  0  0  0  0
  162.2640  208.2250  148.9580 C   0  0  2  0  0  3  0  0  0  0  0  0
  161.0560  207.6000  148.2710 C   0  0  0  0  0  2  0  0  0  0  0  0
  161.4850  206.8180  147.0400 C   0  0  0  0  0  2  0  0  0  0  0  0
  160.5360  206.9590  146.0270 O   0  0  0  0  0  0  0  0  0  0  0  0
  160.2650  205.6530  145.6190 C   0  0  0  0  0  2  0  0  0  0  0  0
  161.3170  205.1860  144.6640 C   0  0  0  0  0  0  0  0  0  0  0  0
  161.5290  205.8140  143.6410 O   0  0  0  0  0  0  0  0  0  0  0  0
  162.1360  203.9690  144.9670 C   0  0  2  0  0  3  0  0  0  0  0  0
  161.3470  203.0030  145.5890 O   0  0  0  0  0  1  0  0  0  0  0  0
  163.3080  204.3280  145.8610 C   0  0  0  0  0  1  0  0  0  0  0  0
  161.5920  206.9530  153.7980 C   0  0  0  0  0  2  0  0  0  0  0  0
  160.4510  206.8950  154.7930 C   0  0  0  0  0  2  0  0  0  0  0  0
  160.7990  207.7070  156.0220 C   0  0  0  0  0  2  0  0  0  0  0  0
  161.5350  208.9630  155.5910 C   0  0  0  0  0  2  0  0  0  0  0  0
  160.8330  210.2030  156.1160 C   0  0  0  0  0  2  0  0  0  0  0  0
  159.0080  211.1580  154.7450 C   0  0  0  0  0  1  0  0  0  0  0  0
  160.5030  211.1450  154.9720 C   0  0  0  0  0  2  0  0  0  0  0  0
  1  5  1  0  0  0  0
  2  9  1  0  0  0  0
  4  6  1  0  0  0  0
  5  4  1  0  0  0  0
  5 10  2  0  0  0  0
  6  3  2  0  0  0  0
  6 26  1  0  0  0  0
  7  8  1  0  0  0  0
  7  1  1  0  0  0  0
  8  2  2  0  0  0  0
  9 10  1  0  0  0  0
 10  3  1  0  0  0  0
 11  4  1  0  0  0  0
 12 11  1  6  0  0  0
 12 14  1  0  0  0  0
 14 13  1  0  0  0  0
 16 15  1  1  0  0  0
 16 12  1  0  0  0  0
 17 16  1  0  0  0  0
 18 17  1  0  0  0  0
 19 18  1  0  0  0  0
 20 19  1  0  0  0  0
 21 23  1  0  0  0  0
 21 20  1  0  0  0  0
 22 21  2  0  0  0  0
 23 24  1  0  0  0  0
 23 25  1  1  0  0  0
 26 27  1  0  0  0  0
 27 28  1  0  0  0  0
 29 28  1  0  0  0  0
 29 30  1  0  0  0  0
 31 32  1  0  0  0  0
 32 30  1  0  0  0  0
M  END
>  <MODEL>
7

>  <REMARK>
 VINA RESULT:      -6.1      1.858      5.674
  Name = 
  16 active torsions:
  status: ('A' for Active; 'I' for Inactive)
    1  A    between atoms: C_1  and  C_22
    2  A    between atoms: C_1  and  C_24
    3  A    between atoms: C_2  and  C_7
    4  A    between atoms: C_2  and  C_25
    5  A    between atoms: C_6  and  C_9
    6  A    between atoms: C_6  and  C_32
    7  A    between atoms: C_9  and  O_12
    8  A    between atoms: N_10  and  C_20
    9  A    between atoms: O_12  and  C_25
   10  A    between atoms: C_14  and  C_17
   11  A    between atoms: C_14  and  C_19
   12  A    between atoms: C_16  and  O_18
   13  A    between atoms: C_16  and  C_20
   14  A    between atoms: C_16  and  C_32
   15  A    between atoms: C_17  and  C_21
   16  A    between atoms: C_21  and  C_24
                            x       y       z     vdW  Elec       q    Type
                         _______ _______ _______ _____ _____    ______ ____

>  <TORSDO>
F 16

$$$$
=
 OpenBabel11042421153D

 32 33  0  0  1  0  0  0  0  0999 V2000
  161.4760  204.1560  151.9040 C   0  0  0  0  0  2  0  0  0  0  0  0
  161.1100  201.5510  150.3560 C   0  0  0  0  0  3  0  0  0  0  0  0
  160.7550  204.8150  148.5070 C   0  0  0  0  0  3  0  0  0  0  0  0
  161.6800  205.8620  150.2820 N   0  0  0  0  0  0  0  0  0  0  0  0
  161.3970  204.5940  150.6440 C   0  0  0  0  0  0  0  0  0  0  0  0
  161.2490  206.0070  149.0110 C   0  0  0  0  0  0  0  0  0  0  0  0
  160.8180  202.9020  152.3790 C   0  0  0  0  0  2  0  0  0  0  0  0
  161.2210  201.7160  151.6390 N   0  0  0  0  0  0  0  0  0  0  0  0
  160.7170  202.5950  149.3900 C   0  0  0  0  0  2  0  0  0  0  0  0
  160.8740  203.9130  149.5520 C   0  0  0  0  0  0  0  0  0  0  0  0
  162.1910  206.9350  151.1330 C   0  0  0  0  0  2  0  0  0  0  0  0
  161.0590  207.6580  151.8620 C   0  0  2  0  0  3  0  0  0  0  0  0
  162.3170  209.3310  151.1360 C   0  0  0  0  0  1  0  0  0  0  0  0
  160.9900  208.9670  151.3750 O   0  0  0  0  0  0  0  0  0  0  0  0
  160.8320  206.4820  153.9420 O   0  0  0  0  0  1  0  0  0  0  0  0
  161.3040  207.6680  153.3730 C   0  0  2  0  0  3  0  0  0  0  0  0
  160.6090  208.8490  154.0400 C   0  0  0  0  0  2  0  0  0  0  0  0
  161.5860  209.6260  154.9060 C   0  0  0  0  0  2  0  0  0  0  0  0
  161.4700  210.9930  154.6520 O   0  0  0  0  0  0  0  0  0  0  0  0
  160.8120  211.5030  155.7710 C   0  0  0  0  0  2  0  0  0  0  0  0
  159.6340  212.3190  155.3450 C   0  0  0  0  0  0  0  0  0  0  0  0
  158.9400  212.8670  156.1850 O   0  0  0  0  0  0  0  0  0  0  0  0
  159.3140  212.4970  153.8930 C   0  0  2  0  0  3  0  0  0  0  0  0
  158.9370  213.8160  153.6420 O   0  0  0  0  0  1  0  0  0  0  0  0
  158.1980  211.5570  153.4760 C   0  0  0  0  0  1  0  0  0  0  0  0
  161.3620  207.2740  148.2260 C   0  0  0  0  0  2  0  0  0  0  0  0
  161.3070  206.9630  146.7450 C   0  0  0  0  0  2  0  0  0  0  0  0
  162.2860  205.8560  146.4150 C   0  0  0  0  0  2  0  0  0  0  0  0
  162.0720  205.4220  144.9760 C   0  0  0  0  0  2  0  0  0  0  0  0
  160.9560  204.3980  144.8850 C   0  0  0  0  0  2  0  0  0  0  0  0
  160.4320  202.0090  145.2660 C   0  0  0  0  0  1  0  0  0  0  0  0
  161.3010  203.1670  145.7050 C   0  0  0  0  0  2  0  0  0  0  0  0
  1  7  1  0  0  0  0
  2  8  2  0  0  0  0
  3  6  2  0  0  0  0
  3 10  1  0  0  0  0
  4  5  1  0  0  0  0
  4 11  1  0  0  0  0
  5  1  1  0  0  0  0
  6  4  1  0  0  0  0
  8  7  1  0  0  0  0
  9 10  1  0  0  0  0
  9  2  1  0  0  0  0
 10  5  2  0  0  0  0
 12 11  1  6  0  0  0
 12 16  1  0  0  0  0
 13 14  1  0  0  0  0
 14 12  1  0  0  0  0
 16 15  1  1  0  0  0
 16 17  1  0  0  0  0
 17 18  1  0  0  0  0
 19 18  1  0  0  0  0
 19 20  1  0  0  0  0
 21 20  1  0  0  0  0
 21 22  2  0  0  0  0
 23 25  1  1  0  0  0
 23 21  1  0  0  0  0
 24 23  1  0  0  0  0
 26  6  1  0  0  0  0
 27 26  1  0  0  0  0
 28 27  1  0  0  0  0
 29 28  1  0  0  0  0
 30 29  1  0  0  0  0
 30 32  1  0  0  0  0
 31 32  1  0  0  0  0
M  END
>  <MODEL>
8

>  <REMARK>
 VINA RESULT:      -6.0      2.895      7.595
  Name = 
  16 active torsions:
  status: ('A' for Active; 'I' for Inactive)
    1  A    between atoms: C_1  and  C_22
    2  A    between atoms: C_1  and  C_24
    3  A    between atoms: C_2  and  C_7
    4  A    between atoms: C_2  and  C_25
    5  A    between atoms: C_6  and  C_9
    6  A    between atoms: C_6  and  C_32
    7  A    between atoms: C_9  and  O_12
    8  A    between atoms: N_10  and  C_20
    9  A    between atoms: O_12  and  C_25
   10  A    between atoms: C_14  and  C_17
   11  A    between atoms: C_14  and  C_19
   12  A    between atoms: C_16  and  O_18
   13  A    between atoms: C_16  and  C_20
   14  A    between atoms: C_16  and  C_32
   15  A    between atoms: C_17  and  C_21
   16  A    between atoms: C_21  and  C_24
                            x       y       z     vdW  Elec       q    Type
                         _______ _______ _______ _____ _____    ______ ____

>  <TORSDO>
F 16

$$$$
=
 OpenBabel11042421153D

 32 33  0  0  1  0  0  0  0  0999 V2000
  160.4800  210.6240  154.4990 C   0  0  0  0  0  2  0  0  0  0  0  0
  158.8240  212.8090  153.1540 C   0  0  0  0  0  3  0  0  0  0  0  0
  161.1570  210.7470  151.0320 C   0  0  0  0  0  3  0  0  0  0  0  0
  161.3600  209.2980  152.7530 N   0  0  0  0  0  0  0  0  0  0  0  0
  160.7270  210.4000  153.2050 C   0  0  0  0  0  0  0  0  0  0  0  0
  161.6610  209.5280  151.4580 C   0  0  0  0  0  0  0  0  0  0  0  0
  160.1380  211.9720  155.0460 C   0  0  0  0  0  2  0  0  0  0  0  0
  158.9690  212.5740  154.4230 N   0  0  0  0  0  0  0  0  0  0  0  0
  159.7410  212.3530  152.0910 C   0  0  0  0  0  2  0  0  0  0  0  0
  160.5440  211.2860  152.1510 C   0  0  0  0  0  0  0  0  0  0  0  0
  161.8000  208.1440  153.5350 C   0  0  0  0  0  2  0  0  0  0  0  0
  160.8300  206.9710  153.3930 C   0  0  2  0  0  3  0  0  0  0  0  0
  161.0620  207.3180  155.5680 C   0  0  0  0  0  1  0  0  0  0  0  0
  160.1870  206.7840  154.6200 O   0  0  0  0  0  0  0  0  0  0  0  0
  162.7960  206.0250  152.3910 O   0  0  0  0  0  1  0  0  0  0  0  0
  161.5740  205.6960  152.9840 C   0  0  2  0  0  3  0  0  0  0  0  0
  160.7540  204.8660  152.0040 C   0  0  0  0  0  2  0  0  0  0  0  0
  160.8880  203.3840  152.3150 C   0  0  0  0  0  2  0  0  0  0  0  0
  161.3700  202.7020  151.1970 O   0  0  0  0  0  0  0  0  0  0  0  0
  160.5570  203.1310  150.1480 C   0  0  0  0  0  2  0  0  0  0  0  0
  160.3320  202.0110  149.1830 C   0  0  0  0  0  0  0  0  0  0  0  0
  159.3260  201.3270  149.2720 O   0  0  0  0  0  0  0  0  0  0  0  0
  161.3150  201.7390  148.0870 C   0  0  2  0  0  3  0  0  0  0  0  0
  160.8290  202.2270  146.8750 O   0  0  0  0  0  1  0  0  0  0  0  0
  161.5810  200.2490  147.9710 C   0  0  0  0  0  1  0  0  0  0  0  0
  162.3790  208.5570  150.5770 C   0  0  0  0  0  2  0  0  0  0  0  0
  161.5790  208.3280  149.3120 C   0  0  0  0  0  2  0  0  0  0  0  0
  160.9720  206.9420  149.3300 C   0  0  0  0  0  2  0  0  0  0  0  0
  160.7150  206.4970  147.9010 C   0  0  0  0  0  2  0  0  0  0  0  0
  161.7980  205.5430  147.4330 C   0  0  0  0  0  2  0  0  0  0  0  0
  160.7870  205.8330  145.1930 C   0  0  0  0  0  1  0  0  0  0  0  0
  162.0890  205.7590  145.9580 C   0  0  0  0  0  2  0  0  0  0  0  0
  1  7  1  0  0  0  0
  2  8  2  0  0  0  0
  3  6  2  0  0  0  0
  3 10  1  0  0  0  0
  4  5  1  0  0  0  0
  4 11  1  0  0  0  0
  5  1  1  0  0  0  0
  6  4  1  0  0  0  0
  8  7  1  0  0  0  0
  9 10  1  0  0  0  0
  9  2  1  0  0  0  0
 10  5  2  0  0  0  0
 12 11  1  1  0  0  0
 12 14  1  0  0  0  0
 14 13  1  0  0  0  0
 16 15  1  6  0  0  0
 16 12  1  0  0  0  0
 17 18  1  0  0  0  0
 17 16  1  0  0  0  0
 19 18  1  0  0  0  0
 20 19  1  0  0  0  0
 21 22  2  0  0  0  0
 21 20  1  0  0  0  0
 23 25  1  6  0  0  0
 23 21  1  0  0  0  0
 24 23  1  0  0  0  0
 26  6  1  0  0  0  0
 27 28  1  0  0  0  0
 27 26  1  0  0  0  0
 29 28  1  0  0  0  0
 30 29  1  0  0  0  0
 31 32  1  0  0  0  0
 32 30  1  0  0  0  0
M  END
>  <MODEL>
9

>  <REMARK>
 VINA RESULT:      -6.0      2.307      4.435
  Name = 
  16 active torsions:
  status: ('A' for Active; 'I' for Inactive)
    1  A    between atoms: C_1  and  C_22
    2  A    between atoms: C_1  and  C_24
    3  A    between atoms: C_2  and  C_7
    4  A    between atoms: C_2  and  C_25
    5  A    between atoms: C_6  and  C_9
    6  A    between atoms: C_6  and  C_32
    7  A    between atoms: C_9  and  O_12
    8  A    between atoms: N_10  and  C_20
    9  A    between atoms: O_12  and  C_25
   10  A    between atoms: C_14  and  C_17
   11  A    between atoms: C_14  and  C_19
   12  A    between atoms: C_16  and  O_18
   13  A    between atoms: C_16  and  C_20
   14  A    between atoms: C_16  and  C_32
   15  A    between atoms: C_17  and  C_21
   16  A    between atoms: C_21  and  C_24
                            x       y       z     vdW  Elec       q    Type
                         _______ _______ _______ _____ _____    ______ ____

>  <TORSDO>
F 16

$$$$
