=
 OpenBabel11042422313D

 26 27  0  0  1  0  0  0  0  0999 V2000
  161.3070  207.7680  153.2410 N   0  0  0  0  0  2  0  0  0  0  0  0
  161.2270  206.5120  152.5600 C   0  0  0  0  0  0  0  0  0  0  0  0
  161.2720  209.0580  152.6130 C   0  0  0  0  0  0  0  0  0  0  0  0
  161.2680  205.1920  153.2890 C   0  0  0  0  0  2  0  0  0  0  0  0
  161.0900  202.8890  152.0870 C   0  0  0  0  0  3  0  0  0  0  0  0
  161.0580  205.0280  150.9890 C   0  0  0  0  0  0  0  0  0  0  0  0
  161.4740  210.1950  154.8500 C   0  0  0  0  0  1  0  0  0  0  0  0
  161.3550  210.2420  153.4040 N   0  0  0  0  0  2  0  0  0  0  0  0
  161.1100  206.4150  151.2700 N   0  0  0  0  0  0  0  0  0  0  0  0
  160.9450  202.2870  150.8250 C   0  0  0  0  0  3  0  0  0  0  0  0
  161.1430  204.2790  152.1260 C   0  0  0  0  0  0  0  0  0  0  0  0
  160.9210  204.4190  149.7430 C   0  0  0  0  0  0  0  0  0  0  0  0
  160.8590  203.0540  149.6950 N   0  0  0  0  0  0  0  0  0  0  0  0
  161.1700  209.1610  151.3620 O   0  0  0  0  0  0  0  0  0  0  0  0
  160.7810  205.2440  148.5030 C   0  0  1  0  0  3  0  0  0  0  0  0
  160.0110  206.3860  148.7400 O   0  0  0  0  0  1  0  0  0  0  0  0
  162.1490  205.5880  147.9010 C   0  0  2  0  0  3  0  0  0  0  0  0
  162.3540  207.0820  147.6450 C   0  0  0  0  0  2  0  0  0  0  0  0
  162.8230  207.7320  148.7870 O   0  0  0  0  0  1  0  0  0  0  0  0
  162.4420  204.7600  146.6550 C   0  0  0  0  0  2  0  0  0  0  0  0
  161.1550  204.4120  145.9110 C   0  0  1  0  0  3  0  0  0  0  0  0
  161.4900  205.5530  143.6200 C   0  0  0  0  0  1  0  0  0  0  0  0
  159.8980  206.2860  145.1830 O   0  0  0  0  0  0  0  0  0  0  0  0
  160.7820  205.4820  144.9280 C   0  0  0  0  0  0  0  0  0  0  0  0
  160.8140  201.9140  146.2510 C   0  0  0  0  0  1  0  0  0  0  0  0
  161.1900  203.0180  145.2730 C   0  0  0  0  0  2  0  0  0  0  0  0
  2  1  1  0  0  0  0
  2  4  1  0  0  0  0
  3  1  1  0  0  0  0
  3  8  1  0  0  0  0
  5 11  1  0  0  0  0
  6  9  1  0  0  0  0
  6 11  2  0  0  0  0
  8  7  1  0  0  0  0
  9  2  2  0  0  0  0
 10  5  2  0  0  0  0
 11  4  1  0  0  0  0
 12  6  1  0  0  0  0
 13 12  2  0  0  0  0
 13 10  1  0  0  0  0
 14  3  2  0  0  0  0
 15 16  1  1  0  0  0
 15 12  1  0  0  0  0
 17 20  1  6  0  0  0
 17 15  1  0  0  0  0
 18 17  1  0  0  0  0
 18 19  1  0  0  0  0
 21 26  1  6  0  0  0
 21 20  1  0  0  0  0
 22 24  1  0  0  0  0
 24 23  2  0  0  0  0
 24 21  1  0  0  0  0
 26 25  1  0  0  0  0
M  END
>  <MODEL>
1

>  <REMARK>
 VINA RESULT:      -8.2      0.000      0.000
  Name = 
  7 active torsions:
  status: ('A' for Active; 'I' for Inactive)
    1  A    between atoms: C_10  and  C_16
    2  A    between atoms: C_10  and  C_18
    3  A    between atoms: C_11  and  C_16
    4  A    between atoms: C_13  and  C_16
    5  A    between atoms: C_13  and  C_23
    6  A    between atoms: C_17  and  C_18
    7  A    between atoms: C_18  and  C_26
                            x       y       z     vdW  Elec       q    Type
                         _______ _______ _______ _____ _____    ______ ____

>  <TORSDO>
F 7

$$$$
=
 OpenBabel11042422313D

 26 27  0  0  1  0  0  0  0  0999 V2000
  161.4820  211.5160  150.4300 N   0  0  0  0  0  2  0  0  0  0  0  0
  161.3410  210.4810  151.4080 C   0  0  0  0  0  0  0  0  0  0  0  0
  161.9380  211.3290  149.0830 C   0  0  0  0  0  0  0  0  0  0  0  0
  160.8530  210.7530  152.8090 C   0  0  0  0  0  2  0  0  0  0  0  0
  160.5500  208.8910  154.6040 C   0  0  0  0  0  3  0  0  0  0  0  0
  161.3460  208.5360  152.3630 C   0  0  0  0  0  0  0  0  0  0  0  0
  161.6750  213.7890  148.6120 C   0  0  0  0  0  1  0  0  0  0  0  0
  162.0310  212.4430  148.1970 N   0  0  0  0  0  2  0  0  0  0  0  0
  161.6170  209.2360  151.1630 N   0  0  0  0  0  0  0  0  0  0  0  0
  160.6770  207.5090  154.8240 C   0  0  0  0  0  3  0  0  0  0  0  0
  160.8980  209.3710  153.3450 C   0  0  0  0  0  0  0  0  0  0  0  0
  161.4750  207.1680  152.5960 C   0  0  0  0  0  0  0  0  0  0  0  0
  161.1270  206.6860  153.8270 N   0  0  0  0  0  0  0  0  0  0  0  0
  162.2610  210.1850  148.6660 O   0  0  0  0  0  0  0  0  0  0  0  0
  161.9230  206.2480  151.5040 C   0  0  1  0  0  3  0  0  0  0  0  0
  163.2790  205.9340  151.6330 O   0  0  0  0  0  1  0  0  0  0  0  0
  161.0460  204.9920  151.4340 C   0  0  2  0  0  3  0  0  0  0  0  0
  161.7970  203.6950  151.7410 C   0  0  0  0  0  2  0  0  0  0  0  0
  160.9130  202.6510  152.0190 O   0  0  0  0  0  1  0  0  0  0  0  0
  160.2910  204.9030  150.1120 C   0  0  0  0  0  2  0  0  0  0  0  0
  161.2540  204.9360  148.9270 C   0  0  1  0  0  3  0  0  0  0  0  0
  161.5990  203.6560  146.7110 C   0  0  0  0  0  1  0  0  0  0  0  0
  160.8740  202.6080  148.6830 O   0  0  0  0  0  0  0  0  0  0  0  0
  161.2100  203.6540  148.1490 C   0  0  0  0  0  0  0  0  0  0  0  0
  162.3310  206.9980  147.8980 C   0  0  0  0  0  1  0  0  0  0  0  0
  161.0630  206.1680  148.0350 C   0  0  0  0  0  2  0  0  0  0  0  0
  1  2  1  0  0  0  0
  2  4  1  0  0  0  0
  3  1  1  0  0  0  0
  4 11  1  0  0  0  0
  5 10  1  0  0  0  0
  6 12  2  0  0  0  0
  6 11  1  0  0  0  0
  8  7  1  0  0  0  0
  8  3  1  0  0  0  0
  9  2  2  0  0  0  0
  9  6  1  0  0  0  0
 11  5  2  0  0  0  0
 12 13  1  0  0  0  0
 13 10  2  0  0  0  0
 14  3  2  0  0  0  0
 15 16  1  1  0  0  0
 15 12  1  0  0  0  0
 17 20  1  6  0  0  0
 17 15  1  0  0  0  0
 17 18  1  0  0  0  0
 18 19  1  0  0  0  0
 21 26  1  6  0  0  0
 21 20  1  0  0  0  0
 22 24  1  0  0  0  0
 24 23  2  0  0  0  0
 24 21  1  0  0  0  0
 25 26  1  0  0  0  0
M  END
>  <MODEL>
2

>  <REMARK>
 VINA RESULT:      -7.3      2.720      4.827
  Name = 
  7 active torsions:
  status: ('A' for Active; 'I' for Inactive)
    1  A    between atoms: C_10  and  C_16
    2  A    between atoms: C_10  and  C_18
    3  A    between atoms: C_11  and  C_16
    4  A    between atoms: C_13  and  C_16
    5  A    between atoms: C_13  and  C_23
    6  A    between atoms: C_17  and  C_18
    7  A    between atoms: C_18  and  C_26
                            x       y       z     vdW  Elec       q    Type
                         _______ _______ _______ _____ _____    ______ ____

>  <TORSDO>
F 7

$$$$
=
 OpenBabel11042422313D

 26 27  0  0  1  0  0  0  0  0999 V2000
  161.1810  208.3410  153.6740 N   0  0  0  0  0  2  0  0  0  0  0  0
  161.2910  207.9670  152.2970 C   0  0  0  0  0  0  0  0  0  0  0  0
  160.9760  207.4340  154.7670 C   0  0  0  0  0  0  0  0  0  0  0  0
  161.5080  208.9790  151.1990 C   0  0  0  0  0  2  0  0  0  0  0  0
  161.7460  208.3340  148.6880 C   0  0  0  0  0  3  0  0  0  0  0  0
  161.3730  206.7810  150.4850 C   0  0  0  0  0  0  0  0  0  0  0  0
  161.0030  209.3440  156.4070 C   0  0  0  0  0  1  0  0  0  0  0  0
  160.8900  207.9290  156.1020 N   0  0  0  0  0  2  0  0  0  0  0  0
  161.2150  206.7360  151.8910 N   0  0  0  0  0  0  0  0  0  0  0  0
  161.7580  207.2430  147.8030 C   0  0  0  0  0  3  0  0  0  0  0  0
  161.5490  208.0580  150.0370 C   0  0  0  0  0  0  0  0  0  0  0  0
  161.3800  205.7070  149.5970 C   0  0  0  0  0  0  0  0  0  0  0  0
  161.5820  205.9680  148.2700 N   0  0  0  0  0  0  0  0  0  0  0  0
  160.8700  206.1950  154.5630 O   0  0  0  0  0  0  0  0  0  0  0  0
  161.2330  204.3040  150.0950 C   0  0  1  0  0  3  0  0  0  0  0  0
  160.4460  204.2590  151.2500 O   0  0  0  0  0  1  0  0  0  0  0  0
  160.7000  203.3730  149.0000 C   0  0  2  0  0  3  0  0  0  0  0  0
  160.1800  202.0340  149.5260 C   0  0  0  0  0  2  0  0  0  0  0  0
  161.1770  201.0570  149.4980 O   0  0  0  0  0  1  0  0  0  0  0  0
  161.7160  203.1790  147.8800 C   0  0  0  0  0  2  0  0  0  0  0  0
  161.0240  203.0740  146.5230 C   0  0  1  0  0  3  0  0  0  0  0  0
  160.7670  205.0090  144.8330 C   0  0  0  0  0  1  0  0  0  0  0  0
  162.8280  203.9740  145.2750 O   0  0  0  0  0  0  0  0  0  0  0  0
  161.6320  204.0110  145.5210 C   0  0  0  0  0  0  0  0  0  0  0  0
  159.8620  201.4490  144.9480 C   0  0  0  0  0  1  0  0  0  0  0  0
  160.9430  201.6340  146.0020 C   0  0  0  0  0  2  0  0  0  0  0  0
  1  3  1  0  0  0  0
  2  1  1  0  0  0  0
  3  8  1  0  0  0  0
  4  2  1  0  0  0  0
  5 11  1  0  0  0  0
  6  9  1  0  0  0  0
  8  7  1  0  0  0  0
  9  2  2  0  0  0  0
 10 13  1  0  0  0  0
 10  5  2  0  0  0  0
 11  6  2  0  0  0  0
 11  4  1  0  0  0  0
 12 15  1  0  0  0  0
 12  6  1  0  0  0  0
 13 12  2  0  0  0  0
 14  3  2  0  0  0  0
 15 16  1  1  0  0  0
 17 20  1  6  0  0  0
 17 18  1  0  0  0  0
 17 15  1  0  0  0  0
 19 18  1  0  0  0  0
 21 26  1  6  0  0  0
 21 20  1  0  0  0  0
 22 24  1  0  0  0  0
 23 24  2  0  0  0  0
 24 21  1  0  0  0  0
 25 26  1  0  0  0  0
M  END
>  <MODEL>
3

>  <REMARK>
 VINA RESULT:      -7.2      2.285      3.462
  Name = 
  7 active torsions:
  status: ('A' for Active; 'I' for Inactive)
    1  A    between atoms: C_10  and  C_16
    2  A    between atoms: C_10  and  C_18
    3  A    between atoms: C_11  and  C_16
    4  A    between atoms: C_13  and  C_16
    5  A    between atoms: C_13  and  C_23
    6  A    between atoms: C_17  and  C_18
    7  A    between atoms: C_18  and  C_26
                            x       y       z     vdW  Elec       q    Type
                         _______ _______ _______ _____ _____    ______ ____

>  <TORSDO>
F 7

$$$$
=
 OpenBabel11042422313D

 26 27  0  0  1  0  0  0  0  0999 V2000
  161.0270  208.4680  154.2770 N   0  0  0  0  0  2  0  0  0  0  0  0
  161.2870  208.7510  152.8980 C   0  0  0  0  0  0  0  0  0  0  0  0
  160.7450  207.1710  154.8210 C   0  0  0  0  0  0  0  0  0  0  0  0
  161.5790  210.1440  152.3990 C   0  0  0  0  0  2  0  0  0  0  0  0
  162.0890  210.6900  149.9050 C   0  0  0  0  0  3  0  0  0  0  0  0
  161.5910  208.5010  150.7670 C   0  0  0  0  0  0  0  0  0  0  0  0
  160.5420  208.1430  157.1350 C   0  0  0  0  0  1  0  0  0  0  0  0
  160.5080  207.0160  156.2190 N   0  0  0  0  0  2  0  0  0  0  0  0
  161.2940  207.8330  151.9790 N   0  0  0  0  0  0  0  0  0  0  0  0
  162.2260  210.1110  148.6310 C   0  0  0  0  0  3  0  0  0  0  0  0
  161.7670  209.8410  150.9590 C   0  0  0  0  0  0  0  0  0  0  0  0
  161.7230  207.9400  149.4980 C   0  0  0  0  0  0  0  0  0  0  0  0
  162.0480  208.7650  148.4570 N   0  0  0  0  0  0  0  0  0  0  0  0
  160.7010  206.1570  154.0750 O   0  0  0  0  0  0  0  0  0  0  0  0
  161.5740  206.4650  149.2980 C   0  0  1  0  0  3  0  0  0  0  0  0
  160.4010  205.9910  149.8930 O   0  0  0  0  0  1  0  0  0  0  0  0
  161.6580  206.0890  147.8140 C   0  0  2  0  0  3  0  0  0  0  0  0
  160.3190  206.1700  147.0780 C   0  0  0  0  0  2  0  0  0  0  0  0
  160.4960  206.5530  145.7480 O   0  0  0  0  0  1  0  0  0  0  0  0
  162.3280  204.7340  147.6120 C   0  0  0  0  0  2  0  0  0  0  0  0
  161.2890  203.6310  147.4210 C   0  0  1  0  0  3  0  0  0  0  0  0
  160.6510  201.7830  145.7350 C   0  0  0  0  0  1  0  0  0  0  0  0
  161.8840  203.6870  145.1270 O   0  0  0  0  0  0  0  0  0  0  0  0
  161.3240  203.0790  146.0260 C   0  0  0  0  0  0  0  0  0  0  0  0
  160.3670  202.7150  149.6080 C   0  0  0  0  0  1  0  0  0  0  0  0
  161.3800  202.5330  148.4870 C   0  0  0  0  0  2  0  0  0  0  0  0
  1  3  1  0  0  0  0
  2  1  1  0  0  0  0
  3  8  1  0  0  0  0
  4  2  1  0  0  0  0
  5 11  1  0  0  0  0
  6 11  2  0  0  0  0
  6  9  1  0  0  0  0
  8  7  1  0  0  0  0
  9  2  2  0  0  0  0
 10  5  2  0  0  0  0
 11  4  1  0  0  0  0
 12  6  1  0  0  0  0
 13 10  1  0  0  0  0
 13 12  2  0  0  0  0
 14  3  2  0  0  0  0
 15 12  1  0  0  0  0
 15 16  1  6  0  0  0
 17 18  1  1  0  0  0
 17 15  1  0  0  0  0
 19 18  1  0  0  0  0
 20 17  1  0  0  0  0
 21 20  1  6  0  0  0
 21 26  1  0  0  0  0
 22 24  1  0  0  0  0
 23 24  2  0  0  0  0
 24 21  1  0  0  0  0
 26 25  1  0  0  0  0
M  END
>  <MODEL>
4

>  <REMARK>
 VINA RESULT:      -7.1      2.243      3.959
  Name = 
  7 active torsions:
  status: ('A' for Active; 'I' for Inactive)
    1  A    between atoms: C_10  and  C_16
    2  A    between atoms: C_10  and  C_18
    3  A    between atoms: C_11  and  C_16
    4  A    between atoms: C_13  and  C_16
    5  A    between atoms: C_13  and  C_23
    6  A    between atoms: C_17  and  C_18
    7  A    between atoms: C_18  and  C_26
                            x       y       z     vdW  Elec       q    Type
                         _______ _______ _______ _____ _____    ______ ____

>  <TORSDO>
F 7

$$$$
=
 OpenBabel11042422313D

 26 27  0  0  1  0  0  0  0  0999 V2000
  161.0890  200.4270  147.5270 N   0  0  0  0  0  2  0  0  0  0  0  0
  161.0610  201.4310  148.5470 C   0  0  0  0  0  0  0  0  0  0  0  0
  160.9470  200.6690  146.1200 C   0  0  0  0  0  0  0  0  0  0  0  0
  161.2200  201.1000  150.0100 C   0  0  0  0  0  2  0  0  0  0  0  0
  161.2090  202.9010  151.8910 C   0  0  0  0  0  3  0  0  0  0  0  0
  160.9370  203.3500  149.5450 C   0  0  0  0  0  0  0  0  0  0  0  0
  161.1930  198.2110  145.6330 C   0  0  0  0  0  1  0  0  0  0  0  0
  160.9980  199.5830  145.1970 N   0  0  0  0  0  2  0  0  0  0  0  0
  160.9020  202.6940  148.2910 N   0  0  0  0  0  0  0  0  0  0  0  0
  161.1000  204.2820  152.1260 C   0  0  0  0  0  3  0  0  0  0  0  0
  161.1210  202.4700  150.5710 C   0  0  0  0  0  0  0  0  0  0  0  0
  160.8230  204.7170  149.7900 C   0  0  0  0  0  0  0  0  0  0  0  0
  160.9160  205.1510  151.0840 N   0  0  0  0  0  0  0  0  0  0  0  0
  160.7750  201.8380  145.6830 O   0  0  0  0  0  0  0  0  0  0  0  0
  160.6660  205.6850  148.6600 C   0  0  1  0  0  3  0  0  0  0  0  0
  159.5790  206.5370  148.8720 O   0  0  0  0  0  1  0  0  0  0  0  0
  161.9630  206.4610  148.4020 C   0  0  2  0  0  3  0  0  0  0  0  0
  161.9650  207.8750  148.9870 C   0  0  0  0  0  2  0  0  0  0  0  0
  162.6990  207.9310  150.1730 O   0  0  0  0  0  1  0  0  0  0  0  0
  162.3340  206.4650  146.9230 C   0  0  0  0  0  2  0  0  0  0  0  0
  161.7320  205.2610  146.2020 C   0  0  1  0  0  3  0  0  0  0  0  0
  161.2020  205.4570  143.6830 C   0  0  0  0  0  1  0  0  0  0  0  0
  159.7310  206.2070  145.3520 O   0  0  0  0  0  0  0  0  0  0  0  0
  160.8070  205.6870  145.1000 C   0  0  0  0  0  0  0  0  0  0  0  0
  164.1420  204.4700  146.3910 C   0  0  0  0  0  1  0  0  0  0  0  0
  162.7900  204.2600  145.7250 C   0  0  0  0  0  2  0  0  0  0  0  0
  1  2  1  0  0  0  0
  2  4  1  0  0  0  0
  3  1  1  0  0  0  0
  4 11  1  0  0  0  0
  5 10  1  0  0  0  0
  6 12  2  0  0  0  0
  6 11  1  0  0  0  0
  8  7  1  0  0  0  0
  8  3  1  0  0  0  0
  9  2  2  0  0  0  0
  9  6  1  0  0  0  0
 11  5  2  0  0  0  0
 12 13  1  0  0  0  0
 13 10  2  0  0  0  0
 14  3  2  0  0  0  0
 15 16  1  1  0  0  0
 15 12  1  0  0  0  0
 17 20  1  6  0  0  0
 17 15  1  0  0  0  0
 17 18  1  0  0  0  0
 18 19  1  0  0  0  0
 21 26  1  6  0  0  0
 21 20  1  0  0  0  0
 22 24  1  0  0  0  0
 24 23  2  0  0  0  0
 24 21  1  0  0  0  0
 26 25  1  0  0  0  0
M  END
>  <MODEL>
5

>  <REMARK>
 VINA RESULT:      -6.8      2.228      5.692
  Name = 
  7 active torsions:
  status: ('A' for Active; 'I' for Inactive)
    1  A    between atoms: C_10  and  C_16
    2  A    between atoms: C_10  and  C_18
    3  A    between atoms: C_11  and  C_16
    4  A    between atoms: C_13  and  C_16
    5  A    between atoms: C_13  and  C_23
    6  A    between atoms: C_17  and  C_18
    7  A    between atoms: C_18  and  C_26
                            x       y       z     vdW  Elec       q    Type
                         _______ _______ _______ _____ _____    ______ ____

>  <TORSDO>
F 7

$$$$
=
 OpenBabel11042422313D

 26 27  0  0  1  0  0  0  0  0999 V2000
  159.7300  211.6140  154.0770 N   0  0  0  0  0  2  0  0  0  0  0  0
  160.1920  210.2760  153.8600 C   0  0  0  0  0  0  0  0  0  0  0  0
  159.5220  212.5970  153.0530 C   0  0  0  0  0  0  0  0  0  0  0  0
  160.3860  209.2950  154.9890 C   0  0  0  0  0  2  0  0  0  0  0  0
  161.1920  206.8450  154.6310 C   0  0  0  0  0  3  0  0  0  0  0  0
  160.8860  208.4700  152.8850 C   0  0  0  0  0  0  0  0  0  0  0  0
  158.7660  214.2780  154.7680 C   0  0  0  0  0  1  0  0  0  0  0  0
  159.0510  213.8990  153.3950 N   0  0  0  0  0  2  0  0  0  0  0  0
  160.4750  209.8090  152.6820 N   0  0  0  0  0  0  0  0  0  0  0  0
  161.5790  205.9210  153.6450 C   0  0  0  0  0  3  0  0  0  0  0  0
  160.8490  208.1250  154.2040 C   0  0  0  0  0  0  0  0  0  0  0  0
  161.2780  207.5470  151.9170 C   0  0  0  0  0  0  0  0  0  0  0  0
  161.6080  206.2840  152.3250 N   0  0  0  0  0  0  0  0  0  0  0  0
  159.7520  212.3250  151.8450 O   0  0  0  0  0  0  0  0  0  0  0  0
  161.2740  207.9140  150.4670 C   0  0  1  0  0  3  0  0  0  0  0  0
  161.9700  209.1060  150.2460 O   0  0  0  0  0  1  0  0  0  0  0  0
  161.8050  206.7690  149.5970 C   0  0  2  0  0  3  0  0  0  0  0  0
  162.6880  207.2310  148.4370 C   0  0  0  0  0  2  0  0  0  0  0  0
  161.9200  207.7350  147.3860 O   0  0  0  0  0  1  0  0  0  0  0  0
  160.6820  205.8560  149.1170 C   0  0  0  0  0  2  0  0  0  0  0  0
  161.2330  204.5240  148.6140 C   0  0  1  0  0  3  0  0  0  0  0  0
  160.8380  201.9970  148.9640 C   0  0  0  0  0  1  0  0  0  0  0  0
  160.4680  203.5860  150.6520 O   0  0  0  0  0  0  0  0  0  0  0  0
  160.8140  203.3860  149.4980 C   0  0  0  0  0  0  0  0  0  0  0  0
  162.1490  204.3330  146.2480 C   0  0  0  0  0  1  0  0  0  0  0  0
  160.9150  204.2650  147.1370 C   0  0  0  0  0  2  0  0  0  0  0  0
  2  1  1  0  0  0  0
  2  4  1  0  0  0  0
  3  8  1  0  0  0  0
  3  1  1  0  0  0  0
  6 11  2  0  0  0  0
  8  7  1  0  0  0  0
  9  6  1  0  0  0  0
  9  2  2  0  0  0  0
 10  5  2  0  0  0  0
 11  5  1  0  0  0  0
 11  4  1  0  0  0  0
 12 13  2  0  0  0  0
 12  6  1  0  0  0  0
 13 10  1  0  0  0  0
 14  3  2  0  0  0  0
 15 16  1  1  0  0  0
 15 12  1  0  0  0  0
 17 18  1  6  0  0  0
 17 15  1  0  0  0  0
 19 18  1  0  0  0  0
 20 17  1  0  0  0  0
 21 26  1  6  0  0  0
 21 20  1  0  0  0  0
 21 24  1  0  0  0  0
 22 24  1  0  0  0  0
 24 23  2  0  0  0  0
 25 26  1  0  0  0  0
M  END
>  <MODEL>
6

>  <REMARK>
 VINA RESULT:      -6.8      2.206      4.012
  Name = 
  7 active torsions:
  status: ('A' for Active; 'I' for Inactive)
    1  A    between atoms: C_10  and  C_16
    2  A    between atoms: C_10  and  C_18
    3  A    between atoms: C_11  and  C_16
    4  A    between atoms: C_13  and  C_16
    5  A    between atoms: C_13  and  C_23
    6  A    between atoms: C_17  and  C_18
    7  A    between atoms: C_18  and  C_26
                            x       y       z     vdW  Elec       q    Type
                         _______ _______ _______ _____ _____    ______ ____

>  <TORSDO>
F 7

$$$$
=
 OpenBabel11042422313D

 26 27  0  0  1  0  0  0  0  0999 V2000
  160.8750  203.2180  147.9130 N   0  0  0  0  0  2  0  0  0  0  0  0
  161.0340  203.9170  149.1520 C   0  0  0  0  0  0  0  0  0  0  0  0
  161.2370  203.7250  146.6210 C   0  0  0  0  0  0  0  0  0  0  0  0
  160.6310  203.3170  150.4760 C   0  0  0  0  0  2  0  0  0  0  0  0
  160.9370  204.5430  152.7530 C   0  0  0  0  0  3  0  0  0  0  0  0
  161.5300  205.4460  150.6050 C   0  0  0  0  0  0  0  0  0  0  0  0
  160.4650  201.5940  145.5250 C   0  0  0  0  0  1  0  0  0  0  0  0
  161.0340  202.9280  145.4560 N   0  0  0  0  0  2  0  0  0  0  0  0
  161.5370  205.1110  149.2290 N   0  0  0  0  0  0  0  0  0  0  0  0
  161.4060  205.7330  153.3360 C   0  0  0  0  0  3  0  0  0  0  0  0
  161.0180  204.4380  151.3670 C   0  0  0  0  0  0  0  0  0  0  0  0
  161.9860  206.6240  151.1940 C   0  0  0  0  0  0  0  0  0  0  0  0
  161.9190  206.7340  152.5550 N   0  0  0  0  0  0  0  0  0  0  0  0
  161.7340  204.8760  146.4980 O   0  0  0  0  0  0  0  0  0  0  0  0
  162.5900  207.7090  150.3600 C   0  0  1  0  0  3  0  0  0  0  0  0
  162.7400  207.3010  149.0310 O   0  0  0  0  0  1  0  0  0  0  0  0
  161.7910  209.0140  150.4730 C   0  0  2  0  0  3  0  0  0  0  0  0
  161.7710  209.8400  149.1860 C   0  0  0  0  0  2  0  0  0  0  0  0
  162.3310  211.1030  149.3860 O   0  0  0  0  0  1  0  0  0  0  0  0
  162.2380  209.8480  151.6680 C   0  0  0  0  0  2  0  0  0  0  0  0
  161.0560  210.1890  152.5730 C   0  0  1  0  0  3  0  0  0  0  0  0
  160.6500  209.0810  154.8690 C   0  0  0  0  0  1  0  0  0  0  0  0
  162.3270  210.6850  154.5120 O   0  0  0  0  0  0  0  0  0  0  0  0
  161.4130  210.0400  154.0220 C   0  0  0  0  0  0  0  0  0  0  0  0
  158.9230  211.5650  152.3970 C   0  0  0  0  0  1  0  0  0  0  0  0
  160.4390  211.5570  152.2590 C   0  0  0  0  0  2  0  0  0  0  0  0
  1  2  1  0  0  0  0
  2  9  2  0  0  0  0
  2  4  1  0  0  0  0
  3  1  1  0  0  0  0
  4 11  1  0  0  0  0
  5 10  1  0  0  0  0
  6 12  2  0  0  0  0
  6 11  1  0  0  0  0
  8  7  1  0  0  0  0
  8  3  1  0  0  0  0
  9  6  1  0  0  0  0
 11  5  2  0  0  0  0
 12 13  1  0  0  0  0
 13 10  2  0  0  0  0
 14  3  2  0  0  0  0
 15 16  1  6  0  0  0
 15 17  1  0  0  0  0
 15 12  1  0  0  0  0
 17 18  1  6  0  0  0
 17 20  1  0  0  0  0
 18 19  1  0  0  0  0
 21 20  1  6  0  0  0
 21 24  1  0  0  0  0
 24 23  2  0  0  0  0
 24 22  1  0  0  0  0
 26 25  1  0  0  0  0
 26 21  1  0  0  0  0
M  END
>  <MODEL>
7

>  <REMARK>
 VINA RESULT:      -6.8      2.096      7.147
  Name = 
  7 active torsions:
  status: ('A' for Active; 'I' for Inactive)
    1  A    between atoms: C_10  and  C_16
    2  A    between atoms: C_10  and  C_18
    3  A    between atoms: C_11  and  C_16
    4  A    between atoms: C_13  and  C_16
    5  A    between atoms: C_13  and  C_23
    6  A    between atoms: C_17  and  C_18
    7  A    between atoms: C_18  and  C_26
                            x       y       z     vdW  Elec       q    Type
                         _______ _______ _______ _____ _____    ______ ____

>  <TORSDO>
F 7

$$$$
=
 OpenBabel11042422313D

 26 27  0  0  1  0  0  0  0  0999 V2000
  160.6540  209.6660  154.5090 N   0  0  0  0  0  2  0  0  0  0  0  0
  161.0480  209.5290  153.1400 C   0  0  0  0  0  0  0  0  0  0  0  0
  160.5860  208.5980  155.4650 C   0  0  0  0  0  0  0  0  0  0  0  0
  161.0970  210.7000  152.1920 C   0  0  0  0  0  2  0  0  0  0  0  0
  161.8420  210.4960  149.7050 C   0  0  0  0  0  3  0  0  0  0  0  0
  161.7150  208.6710  151.2650 C   0  0  0  0  0  0  0  0  0  0  0  0
  159.8300  210.1980  157.2560 C   0  0  0  0  0  1  0  0  0  0  0  0
  160.1830  208.8620  156.8080 N   0  0  0  0  0  2  0  0  0  0  0  0
  161.3950  208.3930  152.6160 N   0  0  0  0  0  0  0  0  0  0  0  0
  162.2930  209.5830  148.7370 C   0  0  0  0  0  3  0  0  0  0  0  0
  161.5610  209.9950  150.9720 C   0  0  0  0  0  0  0  0  0  0  0  0
  162.1570  207.7730  150.2950 C   0  0  0  0  0  0  0  0  0  0  0  0
  162.4440  208.2580  149.0500 N   0  0  0  0  0  0  0  0  0  0  0  0
  160.8810  207.4190  155.1340 O   0  0  0  0  0  0  0  0  0  0  0  0
  162.3690  206.3310  150.6310 C   0  0  1  0  0  3  0  0  0  0  0  0
  163.1850  206.1900  151.7580 O   0  0  0  0  0  1  0  0  0  0  0  0
  161.0370  205.5900  150.7910 C   0  0  2  0  0  3  0  0  0  0  0  0
  161.0930  204.4210  151.7760 C   0  0  0  0  0  2  0  0  0  0  0  0
  160.9870  204.8650  153.0950 O   0  0  0  0  0  1  0  0  0  0  0  0
  160.4650  205.1610  149.4440 C   0  0  0  0  0  2  0  0  0  0  0  0
  161.5010  204.3930  148.6260 C   0  0  1  0  0  3  0  0  0  0  0  0
  160.5540  202.1460  149.4750 C   0  0  0  0  0  1  0  0  0  0  0  0
  161.0800  202.5320  147.2190 O   0  0  0  0  0  0  0  0  0  0  0  0
  161.0530  202.9880  148.3520 C   0  0  0  0  0  0  0  0  0  0  0  0
  160.8680  206.1130  146.8620 C   0  0  0  0  0  1  0  0  0  0  0  0
  161.9240  205.1320  147.3510 C   0  0  0  0  0  2  0  0  0  0  0  0
  1  3  1  0  0  0  0
  2  1  1  0  0  0  0
  3  8  1  0  0  0  0
  4  2  1  0  0  0  0
  5 11  1  0  0  0  0
  6  9  1  0  0  0  0
  8  7  1  0  0  0  0
  9  2  2  0  0  0  0
 10 13  1  0  0  0  0
 10  5  2  0  0  0  0
 11  6  2  0  0  0  0
 11  4  1  0  0  0  0
 12 15  1  0  0  0  0
 12  6  1  0  0  0  0
 13 12  2  0  0  0  0
 14  3  2  0  0  0  0
 15 17  1  0  0  0  0
 15 16  1  1  0  0  0
 17 20  1  6  0  0  0
 17 18  1  0  0  0  0
 18 19  1  0  0  0  0
 21 26  1  6  0  0  0
 21 20  1  0  0  0  0
 23 24  2  0  0  0  0
 24 21  1  0  0  0  0
 24 22  1  0  0  0  0
 25 26  1  0  0  0  0
M  END
>  <MODEL>
8

>  <REMARK>
 VINA RESULT:      -6.6      2.475      4.560
  Name = 
  7 active torsions:
  status: ('A' for Active; 'I' for Inactive)
    1  A    between atoms: C_10  and  C_16
    2  A    between atoms: C_10  and  C_18
    3  A    between atoms: C_11  and  C_16
    4  A    between atoms: C_13  and  C_16
    5  A    between atoms: C_13  and  C_23
    6  A    between atoms: C_17  and  C_18
    7  A    between atoms: C_18  and  C_26
                            x       y       z     vdW  Elec       q    Type
                         _______ _______ _______ _____ _____    ______ ____

>  <TORSDO>
F 7

$$$$
=
 OpenBabel11042422313D

 26 27  0  0  1  0  0  0  0  0999 V2000
  160.7590  209.3660  153.7660 N   0  0  0  0  0  2  0  0  0  0  0  0
  160.9160  208.0630  153.1960 C   0  0  0  0  0  0  0  0  0  0  0  0
  160.6370  210.5880  153.0240 C   0  0  0  0  0  0  0  0  0  0  0  0
  161.0370  206.8190  154.0410 C   0  0  0  0  0  2  0  0  0  0  0  0
  161.2900  204.4290  153.0400 C   0  0  0  0  0  3  0  0  0  0  0  0
  161.1190  206.4550  151.7560 C   0  0  0  0  0  0  0  0  0  0  0  0
  160.4320  211.9080  155.1580 C   0  0  0  0  0  1  0  0  0  0  0  0
  160.4780  211.8290  153.7090 N   0  0  0  0  0  2  0  0  0  0  0  0
  160.9640  207.8530  151.9150 N   0  0  0  0  0  0  0  0  0  0  0  0
  161.3690  203.7190  151.8290 C   0  0  0  0  0  3  0  0  0  0  0  0
  161.1640  205.8130  152.9590 C   0  0  0  0  0  0  0  0  0  0  0  0
  161.2060  205.7410  150.5630 C   0  0  0  0  0  0  0  0  0  0  0  0
  161.3210  204.3800  150.6310 N   0  0  0  0  0  0  0  0  0  0  0  0
  160.6690  210.5820  151.7650 O   0  0  0  0  0  0  0  0  0  0  0  0
  161.1100  206.4430  149.2450 C   0  0  1  0  0  3  0  0  0  0  0  0
  161.7130  207.7030  149.3000 O   0  0  0  0  0  1  0  0  0  0  0  0
  161.6780  205.5840  148.1090 C   0  0  2  0  0  3  0  0  0  0  0  0
  162.0300  206.3770  146.8500 C   0  0  0  0  0  2  0  0  0  0  0  0
  160.8810  206.8210  146.1930 O   0  0  0  0  0  1  0  0  0  0  0  0
  160.7730  204.3990  147.7910 C   0  0  0  0  0  2  0  0  0  0  0  0
  161.5700  203.2440  147.1890 C   0  0  1  0  0  3  0  0  0  0  0  0
  160.1950  201.7850  148.8150 C   0  0  0  0  0  1  0  0  0  0  0  0
  161.1110  200.9470  146.8210 O   0  0  0  0  0  0  0  0  0  0  0  0
  160.9750  201.9160  147.5530 C   0  0  0  0  0  0  0  0  0  0  0  0
  160.5030  203.6820  144.9220 C   0  0  0  0  0  1  0  0  0  0  0  0
  161.7910  203.3930  145.6790 C   0  0  0  0  0  2  0  0  0  0  0  0
  2  1  1  0  0  0  0
  2  4  1  0  0  0  0
  3  8  1  0  0  0  0
  3  1  1  0  0  0  0
  6  9  1  0  0  0  0
  6 11  2  0  0  0  0
  8  7  1  0  0  0  0
  9  2  2  0  0  0  0
 10  5  2  0  0  0  0
 11  5  1  0  0  0  0
 11  4  1  0  0  0  0
 12 13  2  0  0  0  0
 12  6  1  0  0  0  0
 13 10  1  0  0  0  0
 14  3  2  0  0  0  0
 15 16  1  1  0  0  0
 15 12  1  0  0  0  0
 17 18  1  6  0  0  0
 17 15  1  0  0  0  0
 19 18  1  0  0  0  0
 20 17  1  0  0  0  0
 21 26  1  6  0  0  0
 21 24  1  0  0  0  0
 21 20  1  0  0  0  0
 23 24  2  0  0  0  0
 24 22  1  0  0  0  0
 25 26  1  0  0  0  0
M  END
>  <MODEL>
9

>  <REMARK>
 VINA RESULT:      -6.6      1.735      2.559
  Name = 
  7 active torsions:
  status: ('A' for Active; 'I' for Inactive)
    1  A    between atoms: C_10  and  C_16
    2  A    between atoms: C_10  and  C_18
    3  A    between atoms: C_11  and  C_16
    4  A    between atoms: C_13  and  C_16
    5  A    between atoms: C_13  and  C_23
    6  A    between atoms: C_17  and  C_18
    7  A    between atoms: C_18  and  C_26
                            x       y       z     vdW  Elec       q    Type
                         _______ _______ _______ _____ _____    ______ ____

>  <TORSDO>
F 7

$$$$
