=
 OpenBabel11042421373D

 45 50  0  0  1  0  0  0  0  0999 V2000
  161.4330  210.7050  151.7390 C   0  0  0  0  0  3  0  0  0  0  0  0
  161.8850  209.1120  149.9770 C   0  0  0  0  0  3  0  0  0  0  0  0
  161.3330  208.0830  150.7510 C   0  0  0  0  0  0  0  0  0  0  0  0
  160.8800  209.6870  152.5290 C   0  0  0  0  0  0  0  0  0  0  0  0
  160.8330  208.3800  152.0260 C   0  0  0  0  0  3  0  0  0  0  0  0
  161.9350  210.4250  150.4660 C   0  0  0  0  0  0  0  0  0  0  0  0
  161.0640  200.1310  147.3420 C   0  0  0  0  0  3  0  0  0  0  0  0
  161.1800  202.1520  151.0740 O   0  0  0  0  0  1  0  0  0  0  0  0
  161.1480  204.3350  147.4510 C   0  0  0  0  0  3  0  0  0  0  0  0
  161.1910  204.9800  148.6850 C   0  0  0  0  0  0  0  0  0  0  0  0
  161.1670  202.8540  149.8720 C   0  0  0  0  0  0  0  0  0  0  0  0
  161.0530  200.8690  146.1550 C   0  0  0  0  0  3  0  0  0  0  0  0
  161.2720  206.7090  150.2250 C   0  0  0  0  0  0  0  0  0  0  0  0
  161.1150  202.9310  147.4210 C   0  0  0  0  0  0  0  0  0  0  0  0
  161.2000  204.2480  149.8630 C   0  0  0  0  0  0  0  0  0  0  0  0
  161.1010  200.7840  148.5780 C   0  0  0  0  0  3  0  0  0  0  0  0
  161.1250  202.1830  148.6340 C   0  0  0  0  0  0  0  0  0  0  0  0
  161.0780  202.2660  146.1940 C   0  0  0  0  0  3  0  0  0  0  0  0
  161.2310  206.3660  148.8690 C   0  0  0  0  0  3  0  0  0  0  0  0
  161.2580  205.3000  151.1700 S   0  0  0  0  0  0  0  0  0  0  0  0
  160.5710  209.0920  154.9520 N   0  0  0  0  0  1  0  0  0  0  0  0
  160.3500  209.9900  153.8690 C   0  0  0  0  0  0  0  0  0  0  0  0
  159.6930  211.0470  154.0680 O   0  0  0  0  0  0  0  0  0  0  0  0
  162.4890  211.4870  149.6840 N   0  0  0  0  0  2  0  0  0  0  0  0
  160.9270  213.1750  148.8790 C   0  0  0  0  0  1  0  0  0  0  0  0
  161.8480  212.0330  148.4920 C   0  0  1  0  0  3  0  0  0  0  0  0
  162.9050  212.5540  147.5390 C   0  0  0  0  0  2  0  0  0  0  0  0
  162.3300  213.5650  146.6630 N   0  0  0  0  0  2  0  0  0  0  0  0
  163.0430  213.0710  144.3730 C   0  0  0  0  0  3  0  0  0  0  0  0
  161.4410  212.8250  142.5670 C   0  0  0  0  0  0  0  0  0  0  0  0
  162.0110  213.3220  145.2890 C   0  0  0  0  0  0  0  0  0  0  0  0
  160.4080  213.0750  143.4810 C   0  0  0  0  0  3  0  0  0  0  0  0
  160.6670  213.3270  144.8340 C   0  0  0  0  0  0  0  0  0  0  0  0
  162.7640  212.8260  143.0290 C   0  0  0  0  0  3  0  0  0  0  0  0
  163.4130  212.2580  139.4460 C   0  0  0  0  0  2  0  0  0  0  0  0
  162.7540  213.6310  139.5990 C   0  0  2  0  0  3  0  0  0  0  0  0
  159.4440  211.3080  139.9010 C   0  0  0  0  0  1  0  0  0  0  0  0
  160.7020  211.2350  140.7520 C   0  0  2  0  0  3  0  0  0  0  0  0
  163.5640  214.4520  140.3820 O   0  0  0  0  0  1  0  0  0  0  0  0
  161.3290  213.6060  140.1630 C   0  0  0  0  0  2  0  0  0  0  0  0
  161.1520  212.5640  141.1800 N   0  0  0  0  0  0  0  0  0  0  0  0
  161.8130  210.4460  140.0550 C   0  0  0  0  0  2  0  0  0  0  0  0
  162.4610  211.2030  138.8990 C   0  0  0  0  0  2  0  0  0  0  0  0
  159.5560  213.5720  145.6560 O   0  0  0  0  0  0  0  0  0  0  0  0
  158.5970  212.6020  146.0490 C   0  0  0  0  0  1  0  0  0  0  0  0
  1  4  1  0  0  0  0
  2  6  1  0  0  0  0
  2  3  2  0  0  0  0
  3  5  1  0  0  0  0
  4 22  1  0  0  0  0
  5  4  2  0  0  0  0
  6  1  2  0  0  0  0
  7 16  1  0  0  0  0
  9 10  2  0  0  0  0
 10 19  1  0  0  0  0
 10 15  1  0  0  0  0
 11  8  1  0  0  0  0
 12 18  1  0  0  0  0
 12  7  2  0  0  0  0
 13  3  1  0  0  0  0
 13 20  1  0  0  0  0
 14  9  1  0  0  0  0
 14 17  1  0  0  0  0
 15 11  2  0  0  0  0
 15 20  1  0  0  0  0
 16 17  2  0  0  0  0
 17 11  1  0  0  0  0
 18 14  2  0  0  0  0
 19 13  2  0  0  0  0
 22 23  2  0  0  0  0
 22 21  1  0  0  0  0
 24  6  1  0  0  0  0
 26 25  1  1  0  0  0
 26 24  1  0  0  0  0
 27 26  1  0  0  0  0
 28 27  1  0  0  0  0
 29 31  1  0  0  0  0
 30 34  1  0  0  0  0
 30 32  2  0  0  0  0
 31 28  1  0  0  0  0
 32 33  1  0  0  0  0
 33 31  2  0  0  0  0
 33 44  1  0  0  0  0
 34 29  2  0  0  0  0
 35 36  1  0  0  0  0
 36 40  1  0  0  0  0
 36 39  1  1  0  0  0
 38 37  1  6  0  0  0
 38 41  1  0  0  0  0
 40 41  1  0  0  0  0
 41 30  1  0  0  0  0
 42 38  1  0  0  0  0
 43 35  1  0  0  0  0
 43 42  1  0  0  0  0
 44 45  1  0  0  0  0
M  END
>  <MODEL>
1

>  <REMARK>
 VINA RESULT:      -9.7      0.000      0.000
  Name = 
  9 active torsions:
  status: ('A' for Active; 'I' for Inactive)
    1  A    between atoms: N_7  and  C_31
    2  A    between atoms: N_7  and  C_43
    3  A    between atoms: N_9  and  C_23
    4  A    between atoms: N_9  and  C_26
    5  A    between atoms: C_11  and  C_16
    6  A    between atoms: C_18  and  C_34
    7  A    between atoms: C_20  and  N_38
    8  A    between atoms: O_22  and  C_39
    9  A    between atoms: C_26  and  C_43
                            x       y       z     vdW  Elec       q    Type
                         _______ _______ _______ _____ _____    ______ ____

>  <TORSDO>
F 9

$$$$
=
 OpenBabel11042421373D

 45 50  0  0  1  0  0  0  0  0999 V2000
  160.8800  210.8780  154.2060 C   0  0  0  0  0  3  0  0  0  0  0  0
  160.7310  209.9000  152.0000 C   0  0  0  0  0  3  0  0  0  0  0  0
  160.9970  208.6320  152.5320 C   0  0  0  0  0  0  0  0  0  0  0  0
  161.1500  209.6170  154.7560 C   0  0  0  0  0  0  0  0  0  0  0  0
  161.2040  208.5000  153.9120 C   0  0  0  0  0  3  0  0  0  0  0  0
  160.6700  211.0260  152.8330 C   0  0  0  0  0  0  0  0  0  0  0  0
  161.1400  201.5100  147.6140 C   0  0  0  0  0  3  0  0  0  0  0  0
  161.5220  205.7320  147.3740 O   0  0  0  0  0  1  0  0  0  0  0  0
  160.8460  203.8470  151.1000 C   0  0  0  0  0  3  0  0  0  0  0  0
  160.9700  205.2320  151.0000 C   0  0  0  0  0  0  0  0  0  0  0  0
  161.3010  205.0940  148.5910 C   0  0  0  0  0  0  0  0  0  0  0  0
  160.9180  200.9050  148.8550 C   0  0  0  0  0  3  0  0  0  0  0  0
  161.0460  207.4530  151.6520 C   0  0  0  0  0  0  0  0  0  0  0  0
  160.9500  203.0720  149.9330 C   0  0  0  0  0  0  0  0  0  0  0  0
  161.1920  205.8330  149.7700 C   0  0  0  0  0  0  0  0  0  0  0  0
  161.2690  202.8990  147.5210 C   0  0  0  0  0  3  0  0  0  0  0  0
  161.1780  203.6940  148.6710 C   0  0  0  0  0  0  0  0  0  0  0  0
  160.8240  201.6830  150.0110 C   0  0  0  0  0  3  0  0  0  0  0  0
  160.8850  206.1280  152.0700 C   0  0  0  0  0  3  0  0  0  0  0  0
  161.2900  207.4950  149.9740 S   0  0  0  0  0  0  0  0  0  0  0  0
  160.5220  210.1400  157.1340 N   0  0  0  0  0  1  0  0  0  0  0  0
  161.3670  209.4690  156.2040 C   0  0  0  0  0  0  0  0  0  0  0  0
  162.3070  208.7480  156.6350 O   0  0  0  0  0  0  0  0  0  0  0  0
  160.3940  212.3260  152.3050 N   0  0  0  0  0  2  0  0  0  0  0  0
  158.8050  213.6810  151.0490 C   0  0  0  0  0  1  0  0  0  0  0  0
  159.8210  212.5560  150.9820 C   0  0  1  0  0  3  0  0  0  0  0  0
  160.9190  212.9430  150.0110 C   0  0  0  0  0  2  0  0  0  0  0  0
  160.4680  214.0310  149.1570 N   0  0  0  0  0  2  0  0  0  0  0  0
  161.6570  213.8370  147.0250 C   0  0  0  0  0  3  0  0  0  0  0  0
  160.4720  213.7730  144.9080 C   0  0  0  0  0  0  0  0  0  0  0  0
  160.4480  213.9490  147.7270 C   0  0  0  0  0  0  0  0  0  0  0  0
  159.2630  213.8850  145.6090 C   0  0  0  0  0  3  0  0  0  0  0  0
  159.2270  213.9760  147.0050 C   0  0  0  0  0  0  0  0  0  0  0  0
  161.6710  213.7500  145.6330 C   0  0  0  0  0  3  0  0  0  0  0  0
  162.6560  212.2030  142.3170 C   0  0  0  0  0  2  0  0  0  0  0  0
  162.7700  213.7200  142.4790 C   0  0  2  0  0  3  0  0  0  0  0  0
  158.8060  213.4730  141.6630 C   0  0  0  0  0  1  0  0  0  0  0  0
  159.5630  212.7690  142.7790 C   0  0  2  0  0  3  0  0  0  0  0  0
  163.6320  214.0120  143.5350 O   0  0  0  0  0  1  0  0  0  0  0  0
  161.4380  214.4530  142.6700 C   0  0  0  0  0  2  0  0  0  0  0  0
  160.4860  213.6760  143.4700 N   0  0  0  0  0  0  0  0  0  0  0  0
  160.2630  211.5040  142.2790 C   0  0  0  0  0  2  0  0  0  0  0  0
  161.4940  211.7900  141.4220 C   0  0  0  0  0  2  0  0  0  0  0  0
  157.9610  214.0930  147.6000 O   0  0  0  0  0  0  0  0  0  0  0  0
  156.9610  213.0840  147.6050 C   0  0  0  0  0  1  0  0  0  0  0  0
  1  4  1  0  0  0  0
  2  3  2  0  0  0  0
  2  6  1  0  0  0  0
  3  5  1  0  0  0  0
  4 22  1  0  0  0  0
  5  4  2  0  0  0  0
  6  1  2  0  0  0  0
  7 12  1  0  0  0  0
  8 11  1  0  0  0  0
 10  9  1  0  0  0  0
 10 19  1  0  0  0  0
 11 17  2  0  0  0  0
 11 15  1  0  0  0  0
 12 18  2  0  0  0  0
 13 19  2  0  0  0  0
 13  3  1  0  0  0  0
 14 18  1  0  0  0  0
 14  9  2  0  0  0  0
 15 20  1  0  0  0  0
 15 10  2  0  0  0  0
 16  7  2  0  0  0  0
 16 17  1  0  0  0  0
 17 14  1  0  0  0  0
 20 13  1  0  0  0  0
 22 23  2  0  0  0  0
 22 21  1  0  0  0  0
 24  6  1  0  0  0  0
 26 25  1  1  0  0  0
 26 24  1  0  0  0  0
 27 26  1  0  0  0  0
 28 27  1  0  0  0  0
 29 31  1  0  0  0  0
 30 32  2  0  0  0  0
 30 34  1  0  0  0  0
 31 28  1  0  0  0  0
 32 33  1  0  0  0  0
 33 44  1  0  0  0  0
 33 31  2  0  0  0  0
 34 29  2  0  0  0  0
 35 36  1  0  0  0  0
 36 40  1  0  0  0  0
 36 39  1  1  0  0  0
 38 37  1  6  0  0  0
 38 41  1  0  0  0  0
 40 41  1  0  0  0  0
 41 30  1  0  0  0  0
 42 38  1  0  0  0  0
 43 42  1  0  0  0  0
 43 35  1  0  0  0  0
 44 45  1  0  0  0  0
M  END
>  <MODEL>
2

>  <REMARK>
 VINA RESULT:      -9.3      2.056      2.836
  Name = 
  9 active torsions:
  status: ('A' for Active; 'I' for Inactive)
    1  A    between atoms: N_7  and  C_31
    2  A    between atoms: N_7  and  C_43
    3  A    between atoms: N_9  and  C_23
    4  A    between atoms: N_9  and  C_26
    5  A    between atoms: C_11  and  C_16
    6  A    between atoms: C_18  and  C_34
    7  A    between atoms: C_20  and  N_38
    8  A    between atoms: O_22  and  C_39
    9  A    between atoms: C_26  and  C_43
                            x       y       z     vdW  Elec       q    Type
                         _______ _______ _______ _____ _____    ______ ____

>  <TORSDO>
F 9

$$$$
=
 OpenBabel11042421373D

 45 50  0  0  1  0  0  0  0  0999 V2000
  161.6220  210.9500  151.0350 C   0  0  0  0  0  3  0  0  0  0  0  0
  161.9390  209.5460  149.0920 C   0  0  0  0  0  3  0  0  0  0  0  0
  161.5270  208.4240  149.8220 C   0  0  0  0  0  0  0  0  0  0  0  0
  161.2100  209.8380  151.7820 C   0  0  0  0  0  0  0  0  0  0  0  0
  161.1640  208.5790  151.1670 C   0  0  0  0  0  3  0  0  0  0  0  0
  161.9870  210.8110  149.6940 C   0  0  0  0  0  0  0  0  0  0  0  0
  161.0650  200.5100  146.3460 C   0  0  0  0  0  3  0  0  0  0  0  0
  161.3900  204.6040  145.2740 O   0  0  0  0  0  1  0  0  0  0  0  0
  161.2160  203.4600  149.3420 C   0  0  0  0  0  3  0  0  0  0  0  0
  161.3180  204.7990  148.9690 C   0  0  0  0  0  0  0  0  0  0  0  0
  161.3330  204.2090  146.6070 C   0  0  0  0  0  0  0  0  0  0  0  0
  161.0090  200.1500  147.6960 C   0  0  0  0  0  3  0  0  0  0  0  0
  161.4670  207.1010  149.1790 C   0  0  0  0  0  0  0  0  0  0  0  0
  161.1710  202.4790  148.3380 C   0  0  0  0  0  0  0  0  0  0  0  0
  161.3750  205.1560  147.6300 C   0  0  0  0  0  0  0  0  0  0  0  0
  161.1730  201.8540  145.9790 C   0  0  0  0  0  3  0  0  0  0  0  0
  161.2290  202.8510  146.9620 C   0  0  0  0  0  0  0  0  0  0  0  0
  161.0630  201.1310  148.6900 C   0  0  0  0  0  3  0  0  0  0  0  0
  161.3690  205.8800  149.8550 C   0  0  0  0  0  3  0  0  0  0  0  0
  161.4900  206.8250  147.5060 S   0  0  0  0  0  0  0  0  0  0  0  0
  161.7080  209.5780  154.2330 N   0  0  0  0  0  1  0  0  0  0  0  0
  160.8250  209.9920  153.1940 C   0  0  0  0  0  0  0  0  0  0  0  0
  159.7070  210.4880  153.4970 O   0  0  0  0  0  0  0  0  0  0  0  0
  162.3990  211.9670  148.9590 N   0  0  0  0  0  2  0  0  0  0  0  0
  160.8740  213.8670  148.9800 C   0  0  0  0  0  1  0  0  0  0  0  0
  161.4970  212.7690  148.1390 C   0  0  1  0  0  3  0  0  0  0  0  0
  162.2710  213.4010  146.9990 C   0  0  0  0  0  2  0  0  0  0  0  0
  161.3530  213.8390  145.9570 N   0  0  0  0  0  2  0  0  0  0  0  0
  162.4390  212.9840  143.9370 C   0  0  0  0  0  3  0  0  0  0  0  0
  161.1630  211.9730  142.1370 C   0  0  0  0  0  0  0  0  0  0  0  0
  161.2680  213.2140  144.6730 C   0  0  0  0  0  0  0  0  0  0  0  0
  159.9910  212.2010  142.8710 C   0  0  0  0  0  3  0  0  0  0  0  0
  160.0190  212.8170  144.1280 C   0  0  0  0  0  0  0  0  0  0  0  0
  162.3890  212.3720  142.6850 C   0  0  0  0  0  3  0  0  0  0  0  0
  161.3660  213.0520  138.5670 C   0  0  0  0  0  2  0  0  0  0  0  0
  159.9760  212.6900  139.0940 C   0  0  2  0  0  3  0  0  0  0  0  0
  161.8700  209.1900  139.8670 C   0  0  0  0  0  1  0  0  0  0  0  0
  162.2670  210.5780  140.3470 C   0  0  2  0  0  3  0  0  0  0  0  0
  159.4310  213.7860  139.7620 O   0  0  0  0  0  1  0  0  0  0  0  0
  159.9260  211.4500  139.9930 C   0  0  0  0  0  2  0  0  0  0  0  0
  161.1130  211.3340  140.8460 N   0  0  0  0  0  0  0  0  0  0  0  0
  163.0420  211.3480  139.2750 C   0  0  0  0  0  2  0  0  0  0  0  0
  162.1660  211.8340  138.1240 C   0  0  0  0  0  2  0  0  0  0  0  0
  158.7840  213.0030  144.7700 O   0  0  0  0  0  0  0  0  0  0  0  0
  158.4030  212.4080  146.0020 C   0  0  0  0  0  1  0  0  0  0  0  0
  1  4  1  0  0  0  0
  2  6  1  0  0  0  0
  2  3  2  0  0  0  0
  3  5  1  0  0  0  0
  4 22  1  0  0  0  0
  5  4  2  0  0  0  0
  6  1  2  0  0  0  0
  7 12  1  0  0  0  0
  8 11  1  0  0  0  0
 10  9  1  0  0  0  0
 10 19  1  0  0  0  0
 11 17  2  0  0  0  0
 11 15  1  0  0  0  0
 12 18  2  0  0  0  0
 13  3  1  0  0  0  0
 13 19  2  0  0  0  0
 14 18  1  0  0  0  0
 14  9  2  0  0  0  0
 15 10  2  0  0  0  0
 16  7  2  0  0  0  0
 16 17  1  0  0  0  0
 17 14  1  0  0  0  0
 20 15  1  0  0  0  0
 20 13  1  0  0  0  0
 22 23  2  0  0  0  0
 22 21  1  0  0  0  0
 24  6  1  0  0  0  0
 26 24  1  0  0  0  0
 26 25  1  1  0  0  0
 27 26  1  0  0  0  0
 28 27  1  0  0  0  0
 29 31  1  0  0  0  0
 30 34  1  0  0  0  0
 30 32  2  0  0  0  0
 31 28  1  0  0  0  0
 32 33  1  0  0  0  0
 33 31  2  0  0  0  0
 33 44  1  0  0  0  0
 34 29  2  0  0  0  0
 35 36  1  0  0  0  0
 36 39  1  1  0  0  0
 36 40  1  0  0  0  0
 38 37  1  6  0  0  0
 38 41  1  0  0  0  0
 40 41  1  0  0  0  0
 41 30  1  0  0  0  0
 42 38  1  0  0  0  0
 43 35  1  0  0  0  0
 43 42  1  0  0  0  0
 44 45  1  0  0  0  0
M  END
>  <MODEL>
3

>  <REMARK>
 VINA RESULT:      -9.2      1.548      2.018
  Name = 
  9 active torsions:
  status: ('A' for Active; 'I' for Inactive)
    1  A    between atoms: N_7  and  C_31
    2  A    between atoms: N_7  and  C_43
    3  A    between atoms: N_9  and  C_23
    4  A    between atoms: N_9  and  C_26
    5  A    between atoms: C_11  and  C_16
    6  A    between atoms: C_18  and  C_34
    7  A    between atoms: C_20  and  N_38
    8  A    between atoms: O_22  and  C_39
    9  A    between atoms: C_26  and  C_43
                            x       y       z     vdW  Elec       q    Type
                         _______ _______ _______ _____ _____    ______ ____

>  <TORSDO>
F 9

$$$$
=
 OpenBabel11042421373D

 45 50  0  0  1  0  0  0  0  0999 V2000
  161.1090  211.2980  152.7230 C   0  0  0  0  0  3  0  0  0  0  0  0
  161.0670  209.9880  150.6910 C   0  0  0  0  0  3  0  0  0  0  0  0
  161.1630  208.8070  151.4380 C   0  0  0  0  0  0  0  0  0  0  0  0
  161.2080  210.1260  153.4860 C   0  0  0  0  0  0  0  0  0  0  0  0
  161.2320  208.8860  152.8360 C   0  0  0  0  0  3  0  0  0  0  0  0
  161.0380  211.2360  151.3290 C   0  0  0  0  0  0  0  0  0  0  0  0
  161.1130  200.9780  147.7440 C   0  0  0  0  0  3  0  0  0  0  0  0
  161.5580  205.0970  146.8140 O   0  0  0  0  0  1  0  0  0  0  0  0
  160.9130  203.8560  150.8060 C   0  0  0  0  0  3  0  0  0  0  0  0
  161.0570  205.2030  150.4800 C   0  0  0  0  0  0  0  0  0  0  0  0
  161.3470  204.6700  148.1220 C   0  0  0  0  0  0  0  0  0  0  0  0
  160.9010  200.5870  149.0690 C   0  0  0  0  0  3  0  0  0  0  0  0
  161.1790  207.4990  150.7610 C   0  0  0  0  0  0  0  0  0  0  0  0
  160.9850  202.8990  149.7800 C   0  0  0  0  0  0  0  0  0  0  0  0
  161.2690  205.5920  149.1660 C   0  0  0  0  0  0  0  0  0  0  0  0
  161.2620  202.3310  147.4240 C   0  0  0  0  0  3  0  0  0  0  0  0
  161.2020  203.3040  148.4310 C   0  0  0  0  0  0  0  0  0  0  0  0
  160.8380  201.5440  150.0850 C   0  0  0  0  0  3  0  0  0  0  0  0
  161.0040  206.2630  151.3920 C   0  0  0  0  0  3  0  0  0  0  0  0
  161.3960  207.2630  149.0950 S   0  0  0  0  0  0  0  0  0  0  0  0
  161.3140  209.0090  155.7360 N   0  0  0  0  0  1  0  0  0  0  0  0
  161.2800  210.2000  154.9550 C   0  0  0  0  0  0  0  0  0  0  0  0
  161.3070  211.3180  155.5350 O   0  0  0  0  0  0  0  0  0  0  0  0
  160.9350  212.4500  150.5800 N   0  0  0  0  0  2  0  0  0  0  0  0
  162.1230  211.3590  148.7530 C   0  0  0  0  0  1  0  0  0  0  0  0
  161.6180  212.6770  149.3110 C   0  0  1  0  0  3  0  0  0  0  0  0
  160.6560  213.2950  148.3170 C   0  0  0  0  0  2  0  0  0  0  0  0
  160.3140  212.3260  147.2860 N   0  0  0  0  0  2  0  0  0  0  0  0
  161.3790  213.0490  145.2030 C   0  0  0  0  0  3  0  0  0  0  0  0
  160.1110  213.3110  143.1510 C   0  0  0  0  0  0  0  0  0  0  0  0
  160.2240  212.6570  145.8960 C   0  0  0  0  0  0  0  0  0  0  0  0
  158.9560  212.9190  143.8420 C   0  0  0  0  0  3  0  0  0  0  0  0
  158.9880  212.5930  145.2030 C   0  0  0  0  0  0  0  0  0  0  0  0
  161.3250  213.3730  143.8480 C   0  0  0  0  0  3  0  0  0  0  0  0
  161.8880  212.2410  140.0450 C   0  0  0  0  0  2  0  0  0  0  0  0
  162.2760  213.6050  140.6190 C   0  0  2  0  0  3  0  0  0  0  0  0
  158.3050  214.2450  140.1070 C   0  0  0  0  0  1  0  0  0  0  0  0
  158.9630  213.1340  140.9100 C   0  0  2  0  0  3  0  0  0  0  0  0
  163.2130  213.4340  141.6360 O   0  0  0  0  0  1  0  0  0  0  0  0
  161.1030  214.4530  141.1220 C   0  0  0  0  0  2  0  0  0  0  0  0
  160.0570  213.6390  141.7480 N   0  0  0  0  0  0  0  0  0  0  0  0
  159.4100  211.9750  140.0150 C   0  0  0  0  0  2  0  0  0  0  0  0
  160.6410  212.2990  139.1730 C   0  0  0  0  0  2  0  0  0  0  0  0
  157.7700  212.2220  145.7940 O   0  0  0  0  0  0  0  0  0  0  0  0
  156.9790  213.0520  146.6310 C   0  0  0  0  0  1  0  0  0  0  0  0
  1  4  1  0  0  0  0
  2  6  1  0  0  0  0
  2  3  2  0  0  0  0
  3  5  1  0  0  0  0
  4 22  1  0  0  0  0
  5  4  2  0  0  0  0
  6  1  2  0  0  0  0
  7 12  1  0  0  0  0
  8 11  1  0  0  0  0
 10  9  1  0  0  0  0
 10 19  1  0  0  0  0
 11 17  2  0  0  0  0
 11 15  1  0  0  0  0
 12 18  2  0  0  0  0
 13 19  2  0  0  0  0
 13  3  1  0  0  0  0
 14 18  1  0  0  0  0
 14  9  2  0  0  0  0
 15 10  2  0  0  0  0
 16  7  2  0  0  0  0
 16 17  1  0  0  0  0
 17 14  1  0  0  0  0
 20 15  1  0  0  0  0
 20 13  1  0  0  0  0
 22 23  2  0  0  0  0
 22 21  1  0  0  0  0
 24  6  1  0  0  0  0
 26 25  1  6  0  0  0
 26 24  1  0  0  0  0
 27 26  1  0  0  0  0
 28 27  1  0  0  0  0
 29 31  1  0  0  0  0
 30 32  2  0  0  0  0
 30 34  1  0  0  0  0
 31 28  1  0  0  0  0
 32 33  1  0  0  0  0
 33 44  1  0  0  0  0
 33 31  2  0  0  0  0
 34 29  2  0  0  0  0
 35 36  1  0  0  0  0
 36 40  1  0  0  0  0
 36 39  1  1  0  0  0
 38 37  1  6  0  0  0
 38 41  1  0  0  0  0
 40 41  1  0  0  0  0
 41 30  1  0  0  0  0
 42 38  1  0  0  0  0
 43 42  1  0  0  0  0
 43 35  1  0  0  0  0
 44 45  1  0  0  0  0
M  END
>  <MODEL>
4

>  <REMARK>
 VINA RESULT:      -7.4      1.588      2.151
  Name = 
  9 active torsions:
  status: ('A' for Active; 'I' for Inactive)
    1  A    between atoms: N_7  and  C_31
    2  A    between atoms: N_7  and  C_43
    3  A    between atoms: N_9  and  C_23
    4  A    between atoms: N_9  and  C_26
    5  A    between atoms: C_11  and  C_16
    6  A    between atoms: C_18  and  C_34
    7  A    between atoms: C_20  and  N_38
    8  A    between atoms: O_22  and  C_39
    9  A    between atoms: C_26  and  C_43
                            x       y       z     vdW  Elec       q    Type
                         _______ _______ _______ _____ _____    ______ ____

>  <TORSDO>
F 9

$$$$
