=
 OpenBabel11042422513D

 29 33  0  0  1  0  0  0  0  0999 V2000
  162.4390  208.4610  156.6390 O   0  0  0  0  0  0  0  0  0  0  0  0
  159.6290  213.2950  151.1110 C   0  0  0  0  0  2  0  0  0  0  0  0
  160.6140  208.1800  155.1350 C   0  0  1  0  0  3  0  0  0  0  0  0
  161.4290  210.4450  153.0190 C   0  0  2  0  0  3  0  0  0  0  0  0
  161.4960  213.0560  149.4270 C   0  0  0  0  0  2  0  0  0  0  0  0
  160.8520  207.9430  153.6740 C   0  0  0  0  0  0  0  0  0  0  0  0
  161.0770  210.9970  154.3970 C   0  0  0  0  0  2  0  0  0  0  0  0
  161.4760  207.3690  149.6300 C   0  0  0  0  0  0  0  0  0  0  0  0
  159.6490  211.8700  151.6750 C   0  0  1  0  0  3  0  0  0  0  0  0
  161.8880  210.3590  155.4190 N   0  0  0  0  0  2  0  0  0  0  0  0
  161.7360  211.5780  149.4190 C   0  0  0  0  0  3  0  0  0  0  0  0
  160.0110  213.3420  149.6310 C   0  0  0  0  0  2  0  0  0  0  0  0
  161.3260  208.5830  151.4190 C   0  0  0  0  0  0  0  0  0  0  0  0
  161.1150  211.4110  151.8310 C   0  0  2  0  0  3  0  0  0  0  0  0
  160.9430  206.2590  151.8660 C   0  0  0  0  0  3  0  0  0  0  0  0
  160.7460  206.6000  153.2200 C   0  0  0  0  0  3  0  0  0  0  0  0
  161.6970  208.9900  155.7710 C   0  0  0  0  0  0  0  0  0  0  0  0
  159.3730  208.7530  155.3450 F   0  0  0  0  0  0  0  0  0  0  0  0
  161.1260  208.9820  152.7320 C   0  0  0  0  0  0  0  0  0  0  0  0
  161.2460  207.2970  150.9940 C   0  0  0  0  0  0  0  0  0  0  0  0
  161.6780  208.6650  149.2790 N   0  0  0  0  0  0  0  0  0  0  0  0
  161.5730  210.8160  150.5070 C   0  0  0  0  0  0  0  0  0  0  0  0
  161.5930  209.3880  150.3920 N   0  0  0  0  0  0  0  0  0  0  0  0
  160.2990  206.1830  147.5530 O   0  0  0  0  0  0  0  0  0  0  0  0
  161.4570  206.0270  148.4970 S   0  0  0  0  0  0  0  0  0  0  0  0
  161.2930  204.4980  149.3850 C   0  0  0  0  0  1  0  0  0  0  0  0
  162.7450  206.0030  147.7230 O   0  0  0  0  0  0  0  0  0  0  0  0
  158.2460  213.0550  152.9160 C   0  0  0  0  0  1  0  0  0  0  0  0
  158.9410  211.8450  152.8790 O   0  0  0  0  0  0  0  0  0  0  0  0
  2  9  1  0  0  0  0
  3 18  1  6  0  0  0
  3 17  1  0  0  0  0
  4  7  1  1  0  0  0
  5 12  1  0  0  0  0
  6  3  1  0  0  0  0
  7 10  1  0  0  0  0
  8 20  1  0  0  0  0
  9 14  1  0  0  0  0
  9 29  1  1  0  0  0
 10 17  1  0  0  0  0
 11  5  1  0  0  0  0
 11 22  2  0  0  0  0
 12  2  1  0  0  0  0
 13 19  1  0  0  0  0
 14 22  1  6  0  0  0
 14  4  1  0  0  0  0
 15 16  2  0  0  0  0
 16  6  1  0  0  0  0
 17  1  2  0  0  0  0
 19  4  1  0  0  0  0
 19  6  2  0  0  0  0
 20 13  2  0  0  0  0
 20 15  1  0  0  0  0
 21  8  2  0  0  0  0
 21 23  1  0  0  0  0
 23 22  1  0  0  0  0
 23 13  1  0  0  0  0
 24 25  2  0  0  0  0
 25 26  1  0  0  0  0
 25  8  1  0  0  0  0
 27 25  2  0  0  0  0
 29 28  1  0  0  0  0
M  END
>  <MODEL>
1

>  <REMARK>
 VINA RESULT:      -6.7      0.000      0.000
  Name = 
  2 active torsions:
  status: ('A' for Active; 'I' for Inactive)
    1  A    between atoms: S_4  and  C_10
    2  A    between atoms: C_11  and  O_28
                            x       y       z     vdW  Elec       q    Type
                         _______ _______ _______ _____ _____    ______ ____

>  <TORSDO>
F 2

$$$$
=
 OpenBabel11042422513D

 29 33  0  0  1  0  0  0  0  0999 V2000
  163.2910  213.7380  148.0730 O   0  0  0  0  0  0  0  0  0  0  0  0
  161.6030  206.2500  149.7790 C   0  0  0  0  0  2  0  0  0  0  0  0
  161.1920  212.6910  148.4890 C   0  0  1  0  0  3  0  0  0  0  0  0
  162.2900  210.0580  149.9500 C   0  0  2  0  0  3  0  0  0  0  0  0
  162.4810  206.2030  152.1480 C   0  0  0  0  0  2  0  0  0  0  0  0
  160.8110  212.2550  149.8720 C   0  0  0  0  0  0  0  0  0  0  0  0
  162.7050  210.1600  148.4850 C   0  0  0  0  0  2  0  0  0  0  0  0
  159.7680  210.9730  153.6590 C   0  0  0  0  0  0  0  0  0  0  0  0
  161.1060  207.6990  149.7510 C   0  0  1  0  0  3  0  0  0  0  0  0
  163.3780  211.4220  148.2370 N   0  0  0  0  0  2  0  0  0  0  0  0
  161.9560  207.4880  152.7110 C   0  0  0  0  0  3  0  0  0  0  0  0
  161.4720  205.6150  151.1650 C   0  0  0  0  0  2  0  0  0  0  0  0
  160.7980  210.7890  151.7600 C   0  0  0  0  0  0  0  0  0  0  0  0
  162.1280  208.5960  150.4810 C   0  0  2  0  0  3  0  0  0  0  0  0
  159.4990  212.7990  151.8950 C   0  0  0  0  0  3  0  0  0  0  0  0
  159.9300  213.1100  150.5890 C   0  0  0  0  0  3  0  0  0  0  0  0
  162.6690  212.6600  148.2610 C   0  0  0  0  0  0  0  0  0  0  0  0
  160.5240  211.9440  147.5360 F   0  0  0  0  0  0  0  0  0  0  0  0
  161.2420  211.0310  150.4690 C   0  0  0  0  0  0  0  0  0  0  0  0
  159.9750  211.6180  152.4500 C   0  0  0  0  0  0  0  0  0  0  0  0
  160.4520  209.7990  153.6610 N   0  0  0  0  0  0  0  0  0  0  0  0
  161.7960  208.5890  151.9660 C   0  0  0  0  0  0  0  0  0  0  0  0
  161.0840  209.7140  152.4940 N   0  0  0  0  0  0  0  0  0  0  0  0
  157.3320  211.6690  154.4860 O   0  0  0  0  0  0  0  0  0  0  0  0
  158.7450  211.5260  154.9740 S   0  0  0  0  0  0  0  0  0  0  0  0
  159.3270  213.0970  155.5640 C   0  0  0  0  0  1  0  0  0  0  0  0
  158.7960  210.5340  156.1030 O   0  0  0  0  0  0  0  0  0  0  0  0
  161.2060  206.9530  147.6650 C   0  0  0  0  0  1  0  0  0  0  0  0
  160.8960  208.0840  148.4240 O   0  0  0  0  0  0  0  0  0  0  0  0
  1 17  2  0  0  0  0
  2 12  1  0  0  0  0
  3 18  1  6  0  0  0
  3  6  1  0  0  0  0
  4  7  1  6  0  0  0
  4 19  1  0  0  0  0
  4 14  1  0  0  0  0
  5 11  1  0  0  0  0
  6 19  2  0  0  0  0
  6 16  1  0  0  0  0
  8 21  2  0  0  0  0
  8 25  1  0  0  0  0
  9 29  1  6  0  0  0
  9  2  1  0  0  0  0
  9 14  1  0  0  0  0
 10 17  1  0  0  0  0
 10  7  1  0  0  0  0
 12  5  1  0  0  0  0
 13 20  2  0  0  0  0
 13 23  1  0  0  0  0
 14 22  1  1  0  0  0
 15 20  1  0  0  0  0
 16 15  2  0  0  0  0
 17  3  1  0  0  0  0
 19 13  1  0  0  0  0
 20  8  1  0  0  0  0
 22 23  1  0  0  0  0
 22 11  2  0  0  0  0
 23 21  1  0  0  0  0
 24 25  2  0  0  0  0
 25 26  1  0  0  0  0
 25 27  2  0  0  0  0
 28 29  1  0  0  0  0
M  END
>  <MODEL>
2

>  <REMARK>
 VINA RESULT:      -5.3      3.101      6.902
  Name = 
  2 active torsions:
  status: ('A' for Active; 'I' for Inactive)
    1  A    between atoms: S_4  and  C_10
    2  A    between atoms: C_11  and  O_28
                            x       y       z     vdW  Elec       q    Type
                         _______ _______ _______ _____ _____    ______ ____

>  <TORSDO>
F 2

$$$$
=
 OpenBabel11042422513D

 29 33  0  0  1  0  0  0  0  0999 V2000
  160.2720  212.2050  149.6630 O   0  0  0  0  0  0  0  0  0  0  0  0
  161.7410  209.0710  156.7230 C   0  0  0  0  0  2  0  0  0  0  0  0
  162.0250  210.7540  150.3660 C   0  0  1  0  0  3  0  0  0  0  0  0
  160.6550  209.6720  153.0540 C   0  0  2  0  0  3  0  0  0  0  0  0
  159.8620  207.3840  156.7770 C   0  0  0  0  0  2  0  0  0  0  0  0
  161.7540  209.3120  150.6700 C   0  0  0  0  0  0  0  0  0  0  0  0
  160.9710  211.1640  153.0890 C   0  0  0  0  0  2  0  0  0  0  0  0
  161.0190  205.3500  151.5890 C   0  0  0  0  0  0  0  0  0  0  0  0
  162.0360  209.0330  155.2200 C   0  0  1  0  0  3  0  0  0  0  0  0
  160.3650  211.8360  151.9550 N   0  0  0  0  0  2  0  0  0  0  0  0
  159.9200  206.7930  155.4020 C   0  0  0  0  0  3  0  0  0  0  0  0
  161.2700  207.7180  157.2600 C   0  0  0  0  0  2  0  0  0  0  0  0
  161.0310  207.4750  152.0200 C   0  0  0  0  0  0  0  0  0  0  0  0
  160.7010  208.9630  154.4470 C   0  0  2  0  0  3  0  0  0  0  0  0
  161.8920  206.9880  149.8360 C   0  0  0  0  0  3  0  0  0  0  0  0
  162.0960  208.3720  149.6590 C   0  0  0  0  0  3  0  0  0  0  0  0
  160.8430  211.6310  150.6260 C   0  0  0  0  0  0  0  0  0  0  0  0
  163.1390  211.2010  151.0550 F   0  0  0  0  0  0  0  0  0  0  0  0
  161.2250  208.8440  151.9120 C   0  0  0  0  0  0  0  0  0  0  0  0
  161.3390  206.5840  151.0440 C   0  0  0  0  0  0  0  0  0  0  0  0
  160.5440  205.5290  152.8490 N   0  0  0  0  0  0  0  0  0  0  0  0
  160.2940  207.5010  154.3290 C   0  0  0  0  0  0  0  0  0  0  0  0
  160.5500  206.8370  153.0860 N   0  0  0  0  0  0  0  0  0  0  0  0
  162.5450  203.1900  151.2610 O   0  0  0  0  0  0  0  0  0  0  0  0
  161.2370  203.7850  150.8250 S   0  0  0  0  0  0  0  0  0  0  0  0
  161.2370  203.9770  149.0590 C   0  0  0  0  0  1  0  0  0  0  0  0
  160.1070  202.8730  151.2140 O   0  0  0  0  0  0  0  0  0  0  0  0
  163.1310  210.7510  156.0930 C   0  0  0  0  0  1  0  0  0  0  0  0
  162.8050  210.1490  154.8770 O   0  0  0  0  0  0  0  0  0  0  0  0
  1 17  2  0  0  0  0
  2 12  1  0  0  0  0
  3 17  1  0  0  0  0
  3  6  1  0  0  0  0
  3 18  1  1  0  0  0
  4  7  1  1  0  0  0
  4 14  1  0  0  0  0
  5 12  1  0  0  0  0
  6 19  1  0  0  0  0
  8 21  2  0  0  0  0
  9 29  1  6  0  0  0
  9  2  1  0  0  0  0
 10  7  1  0  0  0  0
 11  5  1  0  0  0  0
 13 23  1  0  0  0  0
 14 22  1  6  0  0  0
 14  9  1  0  0  0  0
 15 20  2  0  0  0  0
 16 15  1  0  0  0  0
 16  6  2  0  0  0  0
 17 10  1  0  0  0  0
 19 13  2  0  0  0  0
 19  4  1  0  0  0  0
 20  8  1  0  0  0  0
 20 13  1  0  0  0  0
 21 23  1  0  0  0  0
 22 11  2  0  0  0  0
 23 22  1  0  0  0  0
 25 27  2  0  0  0  0
 25 24  2  0  0  0  0
 25  8  1  0  0  0  0
 26 25  1  0  0  0  0
 29 28  1  0  0  0  0
M  END
>  <MODEL>
3

>  <REMARK>
 VINA RESULT:      -3.9      2.614      5.142
  Name = 
  2 active torsions:
  status: ('A' for Active; 'I' for Inactive)
    1  A    between atoms: S_4  and  C_10
    2  A    between atoms: C_11  and  O_28
                            x       y       z     vdW  Elec       q    Type
                         _______ _______ _______ _____ _____    ______ ____

>  <TORSDO>
F 2

$$$$
