=
 OpenBabel11042421323D

 27 28  0  0  1  0  0  0  0  0999 V2000
  160.3830  206.3190  149.0620 O   0  0  0  0  0  0  0  0  0  0  0  0
  161.3340  207.1330  149.6290 N   0  0  0  0  0  2  0  0  0  0  0  0
  161.0960  202.9210  151.5940 N   0  0  0  0  0  1  0  0  0  0  0  0
  161.3100  205.1920  150.8370 C   0  0  0  0  0  0  0  0  0  0  0  0
  161.7280  206.5810  150.9200 C   0  0  2  0  0  3  0  0  0  0  0  0
  161.5600  204.2580  151.7560 C   0  0  0  0  0  3  0  0  0  0  0  0
  160.5650  205.0220  149.5860 C   0  0  2  0  0  3  0  0  0  0  0  0
  160.9860  207.2950  152.0400 C   0  0  0  0  0  2  0  0  0  0  0  0
  161.6190  208.6490  152.3090 C   0  0  0  0  0  2  0  0  0  0  0  0
  160.5480  209.7170  152.4270 C   0  0  0  0  0  2  0  0  0  0  0  0
  160.1690  209.8910  153.8220 N   0  0  0  0  0  2  0  0  0  0  0  0
  162.8390  210.6340  156.2910 C   0  0  0  0  0  3  0  0  0  0  0  0
  161.9700  210.7410  155.2030 C   0  0  0  0  0  3  0  0  0  0  0  0
  160.9970  208.6110  155.8170 C   0  0  0  0  0  0  0  0  0  0  0  0
  160.0760  207.5410  155.6280 N   0  0  0  0  0  1  0  0  0  0  0  0
  161.8870  208.5490  156.8920 C   0  0  0  0  0  3  0  0  0  0  0  0
  161.0370  209.7290  154.9530 C   0  0  0  0  0  0  0  0  0  0  0  0
  162.7800  209.5500  157.1060 N   0  0  0  0  0  0  0  0  0  0  0  0
  161.3550  204.1700  148.6010 C   0  0  0  0  0  2  0  0  0  0  0  0
  161.2020  204.6730  147.3070 O   0  0  0  0  0  0  0  0  0  0  0  0
  161.9760  203.8330  146.5010 C   0  0  1  0  0  3  0  0  0  0  0  0
  160.6500  201.8300  145.7040 C   0  0  0  0  0  0  0  0  0  0  0  0
  159.8950  201.3180  144.8380 O   0  0  0  0  0  0  0  0  0  0  0  0
  161.1220  203.1670  145.5270 N   0  0  0  0  0  2  0  0  0  0  0  0
  161.0300  201.0700  146.8470 N   0  0  0  0  0  1  0  0  0  0  0  0
  162.2930  205.7820  145.5060 C   0  0  0  0  0  1  0  0  0  0  0  0
  162.9390  204.5890  145.8310 O   0  0  0  0  0  0  0  0  0  0  0  0
  1  7  1  0  0  0  0
  1  2  1  0  0  0  0
  2  5  1  0  0  0  0
  3  6  1  0  0  0  0
  4  5  1  0  0  0  0
  4  6  2  0  0  0  0
  5  8  1  1  0  0  0
  7 19  1  6  0  0  0
  7  4  1  0  0  0  0
  8  9  1  0  0  0  0
  9 10  1  0  0  0  0
 10 11  1  0  0  0  0
 11 17  1  0  0  0  0
 12 18  1  0  0  0  0
 13 12  2  0  0  0  0
 14 16  1  0  0  0  0
 15 14  1  0  0  0  0
 16 18  2  0  0  0  0
 17 13  1  0  0  0  0
 17 14  2  0  0  0  0
 20 19  1  0  0  0  0
 21 24  1  6  0  0  0
 21 20  1  0  0  0  0
 22 25  1  0  0  0  0
 23 22  2  0  0  0  0
 24 22  1  0  0  0  0
 26 27  1  0  0  0  0
 27 21  1  0  0  0  0
M  END
>  <MODEL>
1

>  <REMARK>
 VINA RESULT:      -7.2      0.000      0.000
  Name = 
  10 active torsions:
  status: ('A' for Active; 'I' for Inactive)
    1  A    between atoms: O_2  and  C_5
    2  A    between atoms: O_2  and  C_27
    3  A    between atoms: C_5  and  O_11
    4  A    between atoms: C_5  and  N_14
    5  A    between atoms: C_9  and  N_13
    6  A    between atoms: C_9  and  C_25
    7  A    between atoms: N_13  and  C_23
    8  A    between atoms: C_17  and  C_18
    9  A    between atoms: C_18  and  C_25
   10  A    between atoms: C_22  and  C_27
                            x       y       z     vdW  Elec       q    Type
                         _______ _______ _______ _____ _____    ______ ____

>  <TORSDO>
F 10

$$$$
=
 OpenBabel11042421323D

 27 28  0  0  1  0  0  0  0  0999 V2000
  160.5730  207.4870  152.5600 O   0  0  0  0  0  0  0  0  0  0  0  0
  161.2510  206.2980  152.4430 N   0  0  0  0  0  2  0  0  0  0  0  0
  161.8610  209.1400  148.8080 N   0  0  0  0  0  1  0  0  0  0  0  0
  161.5900  207.4540  150.5000 C   0  0  0  0  0  0  0  0  0  0  0  0
  161.6570  206.1130  151.0540 C   0  0  2  0  0  3  0  0  0  0  0  0
  161.9780  207.7970  149.2710 C   0  0  0  0  0  3  0  0  0  0  0  0
  161.0140  208.3340  151.5210 C   0  0  2  0  0  3  0  0  0  0  0  0
  160.6750  205.1920  150.3440 C   0  0  0  0  0  2  0  0  0  0  0  0
  161.1590  203.7550  150.4170 C   0  0  0  0  0  2  0  0  0  0  0  0
  160.6560  202.9690  149.2200 C   0  0  0  0  0  2  0  0  0  0  0  0
  161.6600  202.9710  148.1650 N   0  0  0  0  0  2  0  0  0  0  0  0
  162.1220  205.9130  145.9520 C   0  0  0  0  0  3  0  0  0  0  0  0
  162.1260  205.0830  147.0740 C   0  0  0  0  0  3  0  0  0  0  0  0
  161.1290  203.3290  145.7380 C   0  0  0  0  0  0  0  0  0  0  0  0
  160.6080  202.0150  145.5620 N   0  0  0  0  0  1  0  0  0  0  0  0
  161.1450  204.1960  144.6420 C   0  0  0  0  0  3  0  0  0  0  0  0
  161.6300  203.7790  146.9800 C   0  0  0  0  0  0  0  0  0  0  0  0
  161.6350  205.4570  144.7690 N   0  0  0  0  0  0  0  0  0  0  0  0
  162.0630  209.3030  152.0510 C   0  0  0  0  0  2  0  0  0  0  0  0
  161.5540  210.6030  152.0490 O   0  0  0  0  0  0  0  0  0  0  0  0
  160.9180  210.7420  153.2870 C   0  0  1  0  0  3  0  0  0  0  0  0
  161.5380  209.8690  155.5790 C   0  0  0  0  0  0  0  0  0  0  0  0
  162.4200  209.6910  156.4580 O   0  0  0  0  0  0  0  0  0  0  0  0
  161.8810  210.5250  154.3580 N   0  0  0  0  0  2  0  0  0  0  0  0
  160.2060  209.4220  155.8160 N   0  0  0  0  0  1  0  0  0  0  0  0
  159.0740  211.9120  152.9390 C   0  0  0  0  0  1  0  0  0  0  0  0
  160.3870  212.0290  153.3950 O   0  0  0  0  0  0  0  0  0  0  0  0
  2  1  1  0  0  0  0
  3  6  1  0  0  0  0
  4  5  1  0  0  0  0
  4  7  1  0  0  0  0
  5  8  1  6  0  0  0
  5  2  1  0  0  0  0
  6  4  2  0  0  0  0
  7 19  1  1  0  0  0
  7  1  1  0  0  0  0
  8  9  1  0  0  0  0
 10  9  1  0  0  0  0
 11 10  1  0  0  0  0
 12 13  1  0  0  0  0
 14 17  1  0  0  0  0
 15 14  1  0  0  0  0
 16 18  1  0  0  0  0
 16 14  2  0  0  0  0
 17 13  2  0  0  0  0
 17 11  1  0  0  0  0
 18 12  2  0  0  0  0
 20 19  1  0  0  0  0
 21 20  1  6  0  0  0
 21 27  1  0  0  0  0
 21 24  1  0  0  0  0
 22 25  1  0  0  0  0
 22 23  2  0  0  0  0
 24 22  1  0  0  0  0
 26 27  1  0  0  0  0
M  END
>  <MODEL>
2

>  <REMARK>
 VINA RESULT:      -7.1      3.144      9.193
  Name = 
  10 active torsions:
  status: ('A' for Active; 'I' for Inactive)
    1  A    between atoms: O_2  and  C_5
    2  A    between atoms: O_2  and  C_27
    3  A    between atoms: C_5  and  O_11
    4  A    between atoms: C_5  and  N_14
    5  A    between atoms: C_9  and  N_13
    6  A    between atoms: C_9  and  C_25
    7  A    between atoms: N_13  and  C_23
    8  A    between atoms: C_17  and  C_18
    9  A    between atoms: C_18  and  C_25
   10  A    between atoms: C_22  and  C_27
                            x       y       z     vdW  Elec       q    Type
                         _______ _______ _______ _____ _____    ______ ____

>  <TORSDO>
F 10

$$$$
=
 OpenBabel11042421323D

 27 28  0  0  1  0  0  0  0  0999 V2000
  160.4750  206.4680  149.2280 O   0  0  0  0  0  0  0  0  0  0  0  0
  161.4670  207.2360  149.7880 N   0  0  0  0  0  2  0  0  0  0  0  0
  160.9710  203.0820  151.8280 N   0  0  0  0  0  1  0  0  0  0  0  0
  161.3220  205.3220  151.0310 C   0  0  0  0  0  0  0  0  0  0  0  0
  161.8190  206.6860  151.0920 C   0  0  2  0  0  3  0  0  0  0  0  0
  161.5110  204.3930  151.9680 C   0  0  0  0  0  3  0  0  0  0  0  0
  160.5770  205.1720  149.7780 C   0  0  2  0  0  3  0  0  0  0  0  0
  161.1120  207.4630  152.1930 C   0  0  0  0  0  2  0  0  0  0  0  0
  160.9050  208.9060  151.7660 C   0  0  0  0  0  2  0  0  0  0  0  0
  162.1260  209.7370  152.1140 C   0  0  0  0  0  2  0  0  0  0  0  0
  161.9510  210.3580  153.4190 N   0  0  0  0  0  2  0  0  0  0  0  0
  158.8920  212.3610  154.0560 C   0  0  0  0  0  3  0  0  0  0  0  0
  160.1100  211.9290  153.5260 C   0  0  0  0  0  3  0  0  0  0  0  0
  160.0410  210.0210  155.0130 C   0  0  0  0  0  0  0  0  0  0  0  0
  160.5770  208.8140  155.5460 N   0  0  0  0  0  1  0  0  0  0  0  0
  158.8240  210.4920  155.5120 C   0  0  0  0  0  3  0  0  0  0  0  0
  160.7000  210.7530  153.9990 C   0  0  0  0  0  0  0  0  0  0  0  0
  158.2800  211.6390  155.0300 N   0  0  0  0  0  0  0  0  0  0  0  0
  161.3230  204.2580  148.8140 C   0  0  0  0  0  2  0  0  0  0  0  0
  161.2030  204.7420  147.5100 O   0  0  0  0  0  0  0  0  0  0  0  0
  162.0190  203.9060  146.7400 C   0  0  1  0  0  3  0  0  0  0  0  0
  160.7130  201.9240  145.8630 C   0  0  0  0  0  0  0  0  0  0  0  0
  160.0080  201.4230  144.9500 O   0  0  0  0  0  0  0  0  0  0  0  0
  161.2190  203.2520  145.7140 N   0  0  0  0  0  2  0  0  0  0  0  0
  161.0030  201.1610  147.0310 N   0  0  0  0  0  1  0  0  0  0  0  0
  162.3540  205.7590  145.5810 C   0  0  0  0  0  1  0  0  0  0  0  0
  163.0210  204.6650  146.1330 O   0  0  0  0  0  0  0  0  0  0  0  0
  1  7  1  0  0  0  0
  1  2  1  0  0  0  0
  2  5  1  0  0  0  0
  3  6  1  0  0  0  0
  4  5  1  0  0  0  0
  4  6  2  0  0  0  0
  5  8  1  1  0  0  0
  7 19  1  6  0  0  0
  7  4  1  0  0  0  0
  9 10  1  0  0  0  0
  9  8  1  0  0  0  0
 10 11  1  0  0  0  0
 11 17  1  0  0  0  0
 12 18  1  0  0  0  0
 13 17  1  0  0  0  0
 13 12  2  0  0  0  0
 14 16  1  0  0  0  0
 14 15  1  0  0  0  0
 17 14  2  0  0  0  0
 18 16  2  0  0  0  0
 20 19  1  0  0  0  0
 21 24  1  6  0  0  0
 21 20  1  0  0  0  0
 22 25  1  0  0  0  0
 23 22  2  0  0  0  0
 24 22  1  0  0  0  0
 26 27  1  0  0  0  0
 27 21  1  0  0  0  0
M  END
>  <MODEL>
3

>  <REMARK>
 VINA RESULT:      -7.0      1.282      1.833
  Name = 
  10 active torsions:
  status: ('A' for Active; 'I' for Inactive)
    1  A    between atoms: O_2  and  C_5
    2  A    between atoms: O_2  and  C_27
    3  A    between atoms: C_5  and  O_11
    4  A    between atoms: C_5  and  N_14
    5  A    between atoms: C_9  and  N_13
    6  A    between atoms: C_9  and  C_25
    7  A    between atoms: N_13  and  C_23
    8  A    between atoms: C_17  and  C_18
    9  A    between atoms: C_18  and  C_25
   10  A    between atoms: C_22  and  C_27
                            x       y       z     vdW  Elec       q    Type
                         _______ _______ _______ _____ _____    ______ ____

>  <TORSDO>
F 10

$$$$
=
 OpenBabel11042421323D

 27 28  0  0  1  0  0  0  0  0999 V2000
  160.7460  207.6900  153.7130 O   0  0  0  0  0  0  0  0  0  0  0  0
  161.5890  206.6220  153.9070 N   0  0  0  0  0  2  0  0  0  0  0  0
  161.2420  207.9160  149.4500 N   0  0  0  0  0  1  0  0  0  0  0  0
  161.4760  206.9820  151.6520 C   0  0  0  0  0  0  0  0  0  0  0  0
  161.8330  205.9670  152.6280 C   0  0  2  0  0  3  0  0  0  0  0  0
  161.6370  206.8700  150.3330 C   0  0  0  0  0  3  0  0  0  0  0  0
  160.9020  208.1190  152.3780 C   0  0  2  0  0  3  0  0  0  0  0  0
  160.9310  204.7490  152.4860 C   0  0  0  0  0  2  0  0  0  0  0  0
  161.6360  203.6630  151.6920 C   0  0  0  0  0  2  0  0  0  0  0  0
  160.8260  203.3020  150.4610 C   0  0  0  0  0  2  0  0  0  0  0  0
  161.4510  203.8640  149.2710 N   0  0  0  0  0  2  0  0  0  0  0  0
  160.7000  201.5270  146.4880 C   0  0  0  0  0  3  0  0  0  0  0  0
  160.8700  202.0530  147.7700 C   0  0  0  0  0  3  0  0  0  0  0  0
  161.5420  204.1570  146.7790 C   0  0  0  0  0  0  0  0  0  0  0  0
  161.9750  205.5110  146.8620 N   0  0  0  0  0  1  0  0  0  0  0  0
  161.3590  203.5870  145.5170 C   0  0  0  0  0  3  0  0  0  0  0  0
  161.2930  203.3760  147.9310 C   0  0  0  0  0  0  0  0  0  0  0  0
  160.9470  202.2980  145.3970 N   0  0  0  0  0  0  0  0  0  0  0  0
  161.8390  209.3190  152.3250 C   0  0  0  0  0  2  0  0  0  0  0  0
  161.1380  210.4510  151.9010 O   0  0  0  0  0  0  0  0  0  0  0  0
  160.1790  210.6720  152.8950 C   0  0  1  0  0  3  0  0  0  0  0  0
  160.3950  211.1850  155.3630 C   0  0  0  0  0  0  0  0  0  0  0  0
  160.9700  211.8250  156.2800 O   0  0  0  0  0  0  0  0  0  0  0  0
  160.7830  211.3960  154.0050 N   0  0  0  0  0  2  0  0  0  0  0  0
  159.3580  210.2640  155.6890 N   0  0  0  0  0  1  0  0  0  0  0  0
  159.6960  212.6610  152.0580 C   0  0  0  0  0  1  0  0  0  0  0  0
  159.1280  211.4250  152.3680 O   0  0  0  0  0  0  0  0  0  0  0  0
  1  2  1  0  0  0  0
  3  6  1  0  0  0  0
  4  7  1  0  0  0  0
  4  5  1  0  0  0  0
  5  8  1  6  0  0  0
  5  2  1  0  0  0  0
  6  4  2  0  0  0  0
  7 19  1  1  0  0  0
  7  1  1  0  0  0  0
  9  8  1  0  0  0  0
 10  9  1  0  0  0  0
 11 10  1  0  0  0  0
 12 13  1  0  0  0  0
 13 17  2  0  0  0  0
 14 15  1  0  0  0  0
 14 17  1  0  0  0  0
 16 14  2  0  0  0  0
 17 11  1  0  0  0  0
 18 16  1  0  0  0  0
 18 12  2  0  0  0  0
 20 19  1  0  0  0  0
 21 20  1  6  0  0  0
 21 24  1  0  0  0  0
 22 25  1  0  0  0  0
 22 23  2  0  0  0  0
 24 22  1  0  0  0  0
 26 27  1  0  0  0  0
 27 21  1  0  0  0  0
M  END
>  <MODEL>
4

>  <REMARK>
 VINA RESULT:      -6.8      3.606      9.221
  Name = 
  10 active torsions:
  status: ('A' for Active; 'I' for Inactive)
    1  A    between atoms: O_2  and  C_5
    2  A    between atoms: O_2  and  C_27
    3  A    between atoms: C_5  and  O_11
    4  A    between atoms: C_5  and  N_14
    5  A    between atoms: C_9  and  N_13
    6  A    between atoms: C_9  and  C_25
    7  A    between atoms: N_13  and  C_23
    8  A    between atoms: C_17  and  C_18
    9  A    between atoms: C_18  and  C_25
   10  A    between atoms: C_22  and  C_27
                            x       y       z     vdW  Elec       q    Type
                         _______ _______ _______ _____ _____    ______ ____

>  <TORSDO>
F 10

$$$$
=
 OpenBabel11042421323D

 27 28  0  0  1  0  0  0  0  0999 V2000
  162.3650  209.8810  149.9620 O   0  0  0  0  0  0  0  0  0  0  0  0
  161.5930  209.3710  148.9460 N   0  0  0  0  0  2  0  0  0  0  0  0
  162.1830  206.4080  152.4870 N   0  0  0  0  0  1  0  0  0  0  0  0
  161.8520  207.7040  150.4900 C   0  0  0  0  0  0  0  0  0  0  0  0
  161.4980  207.9240  149.0980 C   0  0  2  0  0  3  0  0  0  0  0  0
  161.8010  206.5300  151.1190 C   0  0  0  0  0  3  0  0  0  0  0  0
  162.2800  208.9880  151.0510 C   0  0  2  0  0  3  0  0  0  0  0  0
  162.4980  207.2380  148.1780 C   0  0  0  0  0  2  0  0  0  0  0  0
  161.7680  206.4930  147.0740 C   0  0  0  0  0  2  0  0  0  0  0  0
  162.3790  205.1180  146.8740 C   0  0  0  0  0  2  0  0  0  0  0  0
  161.3420  204.0980  146.9430 N   0  0  0  0  0  2  0  0  0  0  0  0
  160.8760  202.8710  150.4140 C   0  0  0  0  0  3  0  0  0  0  0  0
  161.0750  203.7160  149.3200 C   0  0  0  0  0  3  0  0  0  0  0  0
  160.9940  201.7870  147.8600 C   0  0  0  0  0  0  0  0  0  0  0  0
  161.0450  201.1700  146.5780 N   0  0  0  0  0  1  0  0  0  0  0  0
  160.7970  200.9820  148.9850 C   0  0  0  0  0  3  0  0  0  0  0  0
  161.1360  203.1840  148.0290 C   0  0  0  0  0  0  0  0  0  0  0  0
  160.7430  201.5330  150.2260 N   0  0  0  0  0  0  0  0  0  0  0  0
  161.2620  209.4990  152.0630 C   0  0  0  0  0  2  0  0  0  0  0  0
  161.9200  210.1170  153.1290 O   0  0  0  0  0  0  0  0  0  0  0  0
  160.9400  210.2740  154.1140 C   0  0  1  0  0  3  0  0  0  0  0  0
  161.2450  208.5070  155.9000 C   0  0  0  0  0  0  0  0  0  0  0  0
  161.7410  208.1740  157.0060 O   0  0  0  0  0  0  0  0  0  0  0  0
  161.4620  209.8270  155.3980 N   0  0  0  0  0  2  0  0  0  0  0  0
  160.4670  207.5680  155.1640 N   0  0  0  0  0  1  0  0  0  0  0  0
  159.4380  211.6310  155.0040 C   0  0  0  0  0  1  0  0  0  0  0  0
  160.5800  211.6200  154.2030 O   0  0  0  0  0  0  0  0  0  0  0  0
  1  7  1  0  0  0  0
  2  5  1  0  0  0  0
  2  1  1  0  0  0  0
  4  7  1  0  0  0  0
  4  6  2  0  0  0  0
  5  8  1  6  0  0  0
  5  4  1  0  0  0  0
  6  3  1  0  0  0  0
  7 19  1  1  0  0  0
  9  8  1  0  0  0  0
 10 11  1  0  0  0  0
 10  9  1  0  0  0  0
 11 17  1  0  0  0  0
 13 12  2  0  0  0  0
 14 17  2  0  0  0  0
 14 16  1  0  0  0  0
 15 14  1  0  0  0  0
 16 18  2  0  0  0  0
 17 13  1  0  0  0  0
 18 12  1  0  0  0  0
 19 20  1  0  0  0  0
 21 20  1  6  0  0  0
 21 27  1  0  0  0  0
 21 24  1  0  0  0  0
 22 23  2  0  0  0  0
 24 22  1  0  0  0  0
 25 22  1  0  0  0  0
 27 26  1  0  0  0  0
M  END
>  <MODEL>
5

>  <REMARK>
 VINA RESULT:      -6.7      3.102      8.756
  Name = 
  10 active torsions:
  status: ('A' for Active; 'I' for Inactive)
    1  A    between atoms: O_2  and  C_5
    2  A    between atoms: O_2  and  C_27
    3  A    between atoms: C_5  and  O_11
    4  A    between atoms: C_5  and  N_14
    5  A    between atoms: C_9  and  N_13
    6  A    between atoms: C_9  and  C_25
    7  A    between atoms: N_13  and  C_23
    8  A    between atoms: C_17  and  C_18
    9  A    between atoms: C_18  and  C_25
   10  A    between atoms: C_22  and  C_27
                            x       y       z     vdW  Elec       q    Type
                         _______ _______ _______ _____ _____    ______ ____

>  <TORSDO>
F 10

$$$$
=
 OpenBabel11042421323D

 27 28  0  0  1  0  0  0  0  0999 V2000
  161.8820  208.8450  151.2900 O   0  0  0  0  0  0  0  0  0  0  0  0
  161.3060  207.7110  150.7710 N   0  0  0  0  0  2  0  0  0  0  0  0
  160.8370  208.0750  155.3870 N   0  0  0  0  0  1  0  0  0  0  0  0
  161.0680  207.6000  153.0420 C   0  0  0  0  0  0  0  0  0  0  0  0
  161.0470  206.7680  151.8520 C   0  0  2  0  0  3  0  0  0  0  0  0
  160.7740  207.1870  154.2750 C   0  0  0  0  0  3  0  0  0  0  0  0
  161.4810  208.9480  152.6390 C   0  0  2  0  0  3  0  0  0  0  0  0
  162.1550  205.7260  151.9100 C   0  0  0  0  0  2  0  0  0  0  0  0
  161.5890  204.3430  151.6400 C   0  0  0  0  0  2  0  0  0  0  0  0
  160.7530  204.3540  150.3730 C   0  0  0  0  0  2  0  0  0  0  0  0
  161.6200  204.4400  149.2060 N   0  0  0  0  0  2  0  0  0  0  0  0
  160.8300  201.7190  146.8100 C   0  0  0  0  0  3  0  0  0  0  0  0
  161.0470  202.4200  147.9970 C   0  0  0  0  0  3  0  0  0  0  0  0
  161.5530  204.3980  146.6970 C   0  0  0  0  0  0  0  0  0  0  0  0
  161.9210  205.7680  146.5720 N   0  0  0  0  0  1  0  0  0  0  0  0
  161.3260  203.6550  145.5350 C   0  0  0  0  0  3  0  0  0  0  0  0
  161.4100  203.7700  147.9550 C   0  0  0  0  0  0  0  0  0  0  0  0
  160.9740  202.3450  145.6130 N   0  0  0  0  0  0  0  0  0  0  0  0
  160.3190  209.9260  152.7610 C   0  0  0  0  0  2  0  0  0  0  0  0
  160.7720  211.1390  153.2840 O   0  0  0  0  0  0  0  0  0  0  0  0
  159.6180  211.7890  153.7330 C   0  0  1  0  0  3  0  0  0  0  0  0
  158.7010  212.9310  151.6700 C   0  0  0  0  0  0  0  0  0  0  0  0
  157.8550  212.9480  150.7390 O   0  0  0  0  0  0  0  0  0  0  0  0
  158.6560  211.8880  152.6440 N   0  0  0  0  0  2  0  0  0  0  0  0
  159.6870  213.9560  151.7460 N   0  0  0  0  0  1  0  0  0  0  0  0
  157.7160  211.4560  154.8110 C   0  0  0  0  0  1  0  0  0  0  0  0
  159.0550  211.0640  154.7850 O   0  0  0  0  0  0  0  0  0  0  0  0
  1  7  1  0  0  0  0
  2  1  1  0  0  0  0
  2  5  1  0  0  0  0
  4  6  2  0  0  0  0
  5  8  1  1  0  0  0
  5  4  1  0  0  0  0
  6  3  1  0  0  0  0
  7 19  1  6  0  0  0
  7  4  1  0  0  0  0
  9  8  1  0  0  0  0
 10  9  1  0  0  0  0
 11 10  1  0  0  0  0
 12 13  1  0  0  0  0
 14 17  1  0  0  0  0
 15 14  1  0  0  0  0
 16 18  1  0  0  0  0
 16 14  2  0  0  0  0
 17 13  2  0  0  0  0
 17 11  1  0  0  0  0
 18 12  2  0  0  0  0
 19 20  1  0  0  0  0
 20 21  1  0  0  0  0
 21 24  1  6  0  0  0
 21 27  1  0  0  0  0
 22 25  1  0  0  0  0
 22 24  1  0  0  0  0
 23 22  2  0  0  0  0
 27 26  1  0  0  0  0
M  END
>  <MODEL>
6

>  <REMARK>
 VINA RESULT:      -6.5      3.253      9.265
  Name = 
  10 active torsions:
  status: ('A' for Active; 'I' for Inactive)
    1  A    between atoms: O_2  and  C_5
    2  A    between atoms: O_2  and  C_27
    3  A    between atoms: C_5  and  O_11
    4  A    between atoms: C_5  and  N_14
    5  A    between atoms: C_9  and  N_13
    6  A    between atoms: C_9  and  C_25
    7  A    between atoms: N_13  and  C_23
    8  A    between atoms: C_17  and  C_18
    9  A    between atoms: C_18  and  C_25
   10  A    between atoms: C_22  and  C_27
                            x       y       z     vdW  Elec       q    Type
                         _______ _______ _______ _____ _____    ______ ____

>  <TORSDO>
F 10

$$$$
=
 OpenBabel11042421323D

 27 28  0  0  1  0  0  0  0  0999 V2000
  160.4330  207.1500  153.9670 O   0  0  0  0  0  0  0  0  0  0  0  0
  161.3100  206.1470  153.6300 N   0  0  0  0  0  2  0  0  0  0  0  0
  161.8130  209.9880  151.0500 N   0  0  0  0  0  1  0  0  0  0  0  0
  161.6530  207.8590  152.1530 C   0  0  0  0  0  0  0  0  0  0  0  0
  161.8850  206.4350  152.3210 C   0  0  2  0  0  3  0  0  0  0  0  0
  162.1050  208.5960  151.1390 C   0  0  0  0  0  3  0  0  0  0  0  0
  160.8320  208.3150  153.2780 C   0  0  2  0  0  3  0  0  0  0  0  0
  161.1540  205.6440  151.2460 C   0  0  0  0  0  2  0  0  0  0  0  0
  161.5390  204.1770  151.3210 C   0  0  0  0  0  2  0  0  0  0  0  0
  161.2840  203.4980  149.9880 C   0  0  0  0  0  2  0  0  0  0  0  0
  160.8300  204.4750  149.0090 N   0  0  0  0  0  2  0  0  0  0  0  0
  161.6880  203.5620  145.5160 C   0  0  0  0  0  3  0  0  0  0  0  0
  161.2270  203.4890  146.8320 C   0  0  0  0  0  3  0  0  0  0  0  0
  161.8830  205.7970  147.1530 C   0  0  0  0  0  0  0  0  0  0  0  0
  162.0110  206.9770  147.9410 N   0  0  0  0  0  1  0  0  0  0  0  0
  162.3310  205.8220  145.8290 C   0  0  0  0  0  3  0  0  0  0  0  0
  161.3190  204.6070  147.6670 C   0  0  0  0  0  0  0  0  0  0  0  0
  162.2260  204.7170  145.0460 N   0  0  0  0  0  0  0  0  0  0  0  0
  161.6410  209.2130  154.2060 C   0  0  0  0  0  2  0  0  0  0  0  0
  160.8880  209.5270  155.3390 O   0  0  0  0  0  0  0  0  0  0  0  0
  160.6140  210.8930  155.2210 C   0  0  1  0  0  3  0  0  0  0  0  0
  158.3760  211.3550  154.1360 C   0  0  0  0  0  0  0  0  0  0  0  0
  157.1340  211.5130  154.2610 O   0  0  0  0  0  0  0  0  0  0  0  0
  159.1760  211.1120  155.2930 N   0  0  0  0  0  2  0  0  0  0  0  0
  158.9690  211.4270  152.8420 N   0  0  0  0  0  1  0  0  0  0  0  0
  160.2020  211.9740  157.1060 C   0  0  0  0  0  1  0  0  0  0  0  0
  161.2410  211.5850  156.2600 O   0  0  0  0  0  0  0  0  0  0  0  0
  2  1  1  0  0  0  0
  3  6  1  0  0  0  0
  4  5  1  0  0  0  0
  4  7  1  0  0  0  0
  5  8  1  6  0  0  0
  5  2  1  0  0  0  0
  6  4  2  0  0  0  0
  7  1  1  0  0  0  0
  7 19  1  1  0  0  0
  8  9  1  0  0  0  0
 10  9  1  0  0  0  0
 11 10  1  0  0  0  0
 12 13  1  0  0  0  0
 13 17  2  0  0  0  0
 14 17  1  0  0  0  0
 14 15  1  0  0  0  0
 16 14  2  0  0  0  0
 17 11  1  0  0  0  0
 18 12  2  0  0  0  0
 18 16  1  0  0  0  0
 19 20  1  0  0  0  0
 21 24  1  1  0  0  0
 21 20  1  0  0  0  0
 21 27  1  0  0  0  0
 22 23  2  0  0  0  0
 22 24  1  0  0  0  0
 25 22  1  0  0  0  0
 27 26  1  0  0  0  0
M  END
>  <MODEL>
7

>  <REMARK>
 VINA RESULT:      -6.4      3.709      9.377
  Name = 
  10 active torsions:
  status: ('A' for Active; 'I' for Inactive)
    1  A    between atoms: O_2  and  C_5
    2  A    between atoms: O_2  and  C_27
    3  A    between atoms: C_5  and  O_11
    4  A    between atoms: C_5  and  N_14
    5  A    between atoms: C_9  and  N_13
    6  A    between atoms: C_9  and  C_25
    7  A    between atoms: N_13  and  C_23
    8  A    between atoms: C_17  and  C_18
    9  A    between atoms: C_18  and  C_25
   10  A    between atoms: C_22  and  C_27
                            x       y       z     vdW  Elec       q    Type
                         _______ _______ _______ _____ _____    ______ ____

>  <TORSDO>
F 10

$$$$
=
 OpenBabel11042421323D

 27 28  0  0  1  0  0  0  0  0999 V2000
  162.3230  209.5470  151.3860 O   0  0  0  0  0  0  0  0  0  0  0  0
  161.5530  208.5280  150.8770 N   0  0  0  0  0  2  0  0  0  0  0  0
  161.1260  209.0460  155.4830 N   0  0  0  0  0  1  0  0  0  0  0  0
  161.2840  208.4990  153.1480 C   0  0  0  0  0  0  0  0  0  0  0  0
  161.1200  207.6650  151.9700 C   0  0  2  0  0  3  0  0  0  0  0  0
  160.9100  208.1660  154.3830 C   0  0  0  0  0  3  0  0  0  0  0  0
  161.9380  209.7420  152.7290 C   0  0  2  0  0  3  0  0  0  0  0  0
  162.0190  206.4400  152.0530 C   0  0  0  0  0  2  0  0  0  0  0  0
  161.2110  205.2230  152.4680 C   0  0  0  0  0  2  0  0  0  0  0  0
  161.3510  204.1220  151.4330 C   0  0  0  0  0  2  0  0  0  0  0  0
  160.4640  204.3800  150.3080 N   0  0  0  0  0  2  0  0  0  0  0  0
  161.3430  206.2270  147.2120 C   0  0  0  0  0  3  0  0  0  0  0  0
  160.9490  205.9410  148.5200 C   0  0  0  0  0  3  0  0  0  0  0  0
  161.2020  203.5820  148.0440 C   0  0  0  0  0  0  0  0  0  0  0  0
  161.1500  202.2060  148.4100 N   0  0  0  0  0  1  0  0  0  0  0  0
  161.5910  203.9170  146.7450 C   0  0  0  0  0  3  0  0  0  0  0  0
  160.8740  204.6140  148.9530 C   0  0  0  0  0  0  0  0  0  0  0  0
  161.6520  205.2180  146.3580 N   0  0  0  0  0  0  0  0  0  0  0  0
  160.9730  210.9170  152.8250 C   0  0  0  0  0  2  0  0  0  0  0  0
  159.6950  210.5180  152.4250 O   0  0  0  0  0  0  0  0  0  0  0  0
  158.8330  211.4740  152.9700 C   0  0  1  0  0  3  0  0  0  0  0  0
  157.8960  211.3140  155.3150 C   0  0  0  0  0  0  0  0  0  0  0  0
  158.1010  211.3300  156.5560 O   0  0  0  0  0  0  0  0  0  0  0  0
  158.9900  211.5070  154.4170 N   0  0  0  0  0  2  0  0  0  0  0  0
  156.5760  211.1100  154.8200 N   0  0  0  0  0  1  0  0  0  0  0  0
  158.2950  212.8680  151.3400 C   0  0  0  0  0  1  0  0  0  0  0  0
  159.1380  212.7300  152.4420 O   0  0  0  0  0  0  0  0  0  0  0  0
  1  7  1  0  0  0  0
  2  1  1  0  0  0  0
  2  5  1  0  0  0  0
  4  6  2  0  0  0  0
  5  8  1  1  0  0  0
  5  4  1  0  0  0  0
  6  3  1  0  0  0  0
  7 19  1  6  0  0  0
  7  4  1  0  0  0  0
  8  9  1  0  0  0  0
 10  9  1  0  0  0  0
 11 10  1  0  0  0  0
 12 13  1  0  0  0  0
 13 17  2  0  0  0  0
 14 15  1  0  0  0  0
 14 17  1  0  0  0  0
 16 14  2  0  0  0  0
 17 11  1  0  0  0  0
 18 16  1  0  0  0  0
 18 12  2  0  0  0  0
 20 19  1  0  0  0  0
 21 20  1  6  0  0  0
 21 24  1  0  0  0  0
 22 23  2  0  0  0  0
 24 22  1  0  0  0  0
 25 22  1  0  0  0  0
 26 27  1  0  0  0  0
 27 21  1  0  0  0  0
M  END
>  <MODEL>
8

>  <REMARK>
 VINA RESULT:      -6.3      3.409      8.887
  Name = 
  10 active torsions:
  status: ('A' for Active; 'I' for Inactive)
    1  A    between atoms: O_2  and  C_5
    2  A    between atoms: O_2  and  C_27
    3  A    between atoms: C_5  and  O_11
    4  A    between atoms: C_5  and  N_14
    5  A    between atoms: C_9  and  N_13
    6  A    between atoms: C_9  and  C_25
    7  A    between atoms: N_13  and  C_23
    8  A    between atoms: C_17  and  C_18
    9  A    between atoms: C_18  and  C_25
   10  A    between atoms: C_22  and  C_27
                            x       y       z     vdW  Elec       q    Type
                         _______ _______ _______ _____ _____    ______ ____

>  <TORSDO>
F 10

$$$$
=
 OpenBabel11042421323D

 27 28  0  0  1  0  0  0  0  0999 V2000
  160.5940  206.8520  148.9180 O   0  0  0  0  0  0  0  0  0  0  0  0
  161.6820  207.5990  149.3000 N   0  0  0  0  0  2  0  0  0  0  0  0
  160.9050  203.9250  152.0500 N   0  0  0  0  0  1  0  0  0  0  0  0
  161.4240  205.9500  150.8630 C   0  0  0  0  0  0  0  0  0  0  0  0
  162.0490  207.2460  150.6670 C   0  0  2  0  0  3  0  0  0  0  0  0
  161.5730  205.1790  151.9400 C   0  0  0  0  0  3  0  0  0  0  0  0
  160.6030  205.6660  149.6820 C   0  0  2  0  0  3  0  0  0  0  0  0
  161.4770  208.2680  151.6400 C   0  0  0  0  0  2  0  0  0  0  0  0
  162.2750  209.5580  151.5740 C   0  0  0  0  0  2  0  0  0  0  0  0
  161.4270  210.6710  150.9870 C   0  0  0  0  0  2  0  0  0  0  0  0
  162.0930  211.2450  149.8260 N   0  0  0  0  0  2  0  0  0  0  0  0
  161.4570  213.1600  146.7120 C   0  0  0  0  0  3  0  0  0  0  0  0
  161.9640  212.2220  147.6130 C   0  0  0  0  0  3  0  0  0  0  0  0
  160.5970  213.2050  149.3520 C   0  0  0  0  0  0  0  0  0  0  0  0
  160.1170  213.2810  150.6900 N   0  0  0  0  0  1  0  0  0  0  0  0
  160.1190  214.1240  148.4140 C   0  0  0  0  0  3  0  0  0  0  0  0
  161.5390  212.2330  148.9450 C   0  0  0  0  0  0  0  0  0  0  0  0
  160.5540  214.0850  147.1280 N   0  0  0  0  0  0  0  0  0  0  0  0
  161.2080  204.5290  148.8670 C   0  0  0  0  0  2  0  0  0  0  0  0
  161.0400  204.7800  147.5030 O   0  0  0  0  0  0  0  0  0  0  0  0
  161.9670  203.9470  146.8690 C   0  0  1  0  0  3  0  0  0  0  0  0
  160.7800  201.8720  146.0380 C   0  0  0  0  0  0  0  0  0  0  0  0
  160.1960  201.2740  145.0990 O   0  0  0  0  0  0  0  0  0  0  0  0
  161.3020  203.1840  145.8210 N   0  0  0  0  0  2  0  0  0  0  0  0
  160.9220  201.2320  147.3030 N   0  0  0  0  0  1  0  0  0  0  0  0
  162.3130  205.7710  145.6670 C   0  0  0  0  0  1  0  0  0  0  0  0
  162.9800  204.7240  146.3040 O   0  0  0  0  0  0  0  0  0  0  0  0
  1  2  1  0  0  0  0
  1  7  1  0  0  0  0
  2  5  1  0  0  0  0
  4  6  2  0  0  0  0
  5  4  1  0  0  0  0
  5  8  1  1  0  0  0
  6  3  1  0  0  0  0
  7 19  1  6  0  0  0
  7  4  1  0  0  0  0
  9  8  1  0  0  0  0
 10  9  1  0  0  0  0
 11 10  1  0  0  0  0
 12 18  2  0  0  0  0
 12 13  1  0  0  0  0
 13 17  2  0  0  0  0
 14 15  1  0  0  0  0
 16 14  2  0  0  0  0
 17 14  1  0  0  0  0
 17 11  1  0  0  0  0
 18 16  1  0  0  0  0
 20 19  1  0  0  0  0
 21 24  1  6  0  0  0
 21 20  1  0  0  0  0
 22 25  1  0  0  0  0
 23 22  2  0  0  0  0
 24 22  1  0  0  0  0
 26 27  1  0  0  0  0
 27 21  1  0  0  0  0
M  END
>  <MODEL>
9

>  <REMARK>
 VINA RESULT:      -6.3      3.101      4.668
  Name = 
  10 active torsions:
  status: ('A' for Active; 'I' for Inactive)
    1  A    between atoms: O_2  and  C_5
    2  A    between atoms: O_2  and  C_27
    3  A    between atoms: C_5  and  O_11
    4  A    between atoms: C_5  and  N_14
    5  A    between atoms: C_9  and  N_13
    6  A    between atoms: C_9  and  C_25
    7  A    between atoms: N_13  and  C_23
    8  A    between atoms: C_17  and  C_18
    9  A    between atoms: C_18  and  C_25
   10  A    between atoms: C_22  and  C_27
                            x       y       z     vdW  Elec       q    Type
                         _______ _______ _______ _____ _____    ______ ____

>  <TORSDO>
F 10

$$$$
