=
 OpenBabel11042423003D

 32 33  0  0  1  0  0  0  0  0999 V2000
  160.9420  208.5770  151.3350 C   0  0  1  0  0  3  0  0  0  0  0  0
  160.8240  209.0680  152.7500 C   0  0  1  0  0  3  0  0  0  0  0  0
  162.2710  209.1420  150.8650 C   0  0  2  0  0  3  0  0  0  0  0  0
  162.1540  209.7410  153.0040 C   0  0  0  0  0  2  0  0  0  0  0  0
  162.6940  210.1270  151.7700 O   0  0  0  0  0  0  0  0  0  0  0  0
  160.9910  207.1220  151.3260 N   0  0  0  0  0  2  0  0  0  0  0  0
  160.7800  206.3470  150.1420 C   0  0  0  0  0  0  0  0  0  0  0  0
  160.4980  206.9200  149.0540 O   0  0  0  0  0  0  0  0  0  0  0  0
  161.1260  202.8240  151.4700 C   0  0  0  0  0  3  0  0  0  0  0  0
  161.0110  204.2170  151.4240 C   0  0  0  0  0  3  0  0  0  0  0  0
  161.0060  202.7340  149.0530 C   0  0  0  0  0  3  0  0  0  0  0  0
  160.8920  204.8780  150.1920 C   0  0  0  0  0  0  0  0  0  0  0  0
  161.1240  202.0830  150.2850 C   0  0  0  0  0  0  0  0  0  0  0  0
  160.8910  204.1260  149.0070 C   0  0  0  0  0  3  0  0  0  0  0  0
  161.2430  200.7330  150.3290 F   0  0  0  0  0  0  0  0  0  0  0  0
  159.8040  210.0200  152.8230 O   0  0  0  0  0  0  0  0  0  0  0  0
  160.1360  210.8120  153.9240 C   0  0  0  0  0  2  0  0  0  0  0  0
  159.1400  210.5690  155.0440 C   0  0  0  0  0  2  0  0  0  0  0  0
  160.2890  210.3850  157.1960 O   0  0  0  0  0  0  0  0  0  0  0  0
  159.7610  209.7690  156.0870 N   0  0  0  0  0  0  0  0  0  0  0  0
  159.6640  208.5270  156.0560 O   0  0  0  0  0  0  0  0  0  0  0  0
  162.1570  209.7200  149.4600 C   0  0  0  0  0  2  0  0  0  0  0  0
  162.0410  211.1120  149.5040 O   0  0  0  0  0  0  0  0  0  0  0  0
  161.9500  211.5030  148.1650 C   0  0  0  0  0  2  0  0  0  0  0  0
  162.9990  212.5590  147.8570 C   0  0  0  0  0  2  0  0  0  0  0  0
  162.4280  213.6220  146.9380 C   0  0  0  0  0  2  0  0  0  0  0  0
  162.2550  212.7160  143.3500 N   0  0  0  0  0  2  0  0  0  0  0  0
  161.8130  212.9930  144.5310 C   0  0  0  0  0  0  0  0  0  0  0  0
  162.7630  213.2970  145.5610 N   0  0  0  0  0  2  0  0  0  0  0  0
  159.6380  214.1890  144.6090 O   0  0  0  0  0  0  0  0  0  0  0  0
  159.7330  211.9580  145.0910 O   0  0  0  0  0  1  0  0  0  0  0  0
  160.3510  213.0040  144.7620 C   0  0  0  0  0  0  0  0  0  0  0  0
  1  6  1  1  0  0  0
  1  2  1  0  0  0  0
  2 16  1  6  0  0  0
  2  4  1  0  0  0  0
  3 22  1  6  0  0  0
  3  1  1  0  0  0  0
  3  5  1  0  0  0  0
  5  4  1  0  0  0  0
  7 12  1  0  0  0  0
  7  6  1  0  0  0  0
  8  7  2  0  0  0  0
 10  9  1  0  0  0  0
 11 13  1  0  0  0  0
 12 10  2  0  0  0  0
 13 15  1  0  0  0  0
 13  9  2  0  0  0  0
 14 11  2  0  0  0  0
 14 12  1  0  0  0  0
 16 17  1  0  0  0  0
 17 18  1  0  0  0  0
 18 20  1  0  0  0  0
 20 19  2  0  0  0  0
 21 20  2  0  0  0  0
 22 23  1  0  0  0  0
 24 23  1  0  0  0  0
 25 24  1  0  0  0  0
 26 25  1  0  0  0  0
 27 28  2  0  0  0  0
 28 32  1  0  0  0  0
 28 29  1  0  0  0  0
 29 26  1  0  0  0  0
 30 32  2  0  0  0  0
 32 31  1  0  0  0  0
M  END
>  <MODEL>
1

>  <REMARK>
 VINA RESULT:      -6.8      0.000      0.000
  Name = 
  13 active torsions:
  status: ('A' for Active; 'I' for Inactive)
    1  A    between atoms: N_2  and  C_11
    2  A    between atoms: C_4  and  C_15
    3  A    between atoms: C_4  and  O_16
    4  A    between atoms: O_7  and  C_14
    5  A    between atoms: O_7  and  C_18
    6  A    between atoms: C_9  and  C_29
    7  A    between atoms: C_10  and  C_21
    8  A    between atoms: C_15  and  C_20
    9  A    between atoms: O_16  and  C_23
   10  A    between atoms: C_17  and  C_23
   11  A    between atoms: C_18  and  C_24
   12  A    between atoms: C_20  and  N_30
   13  A    between atoms: C_24  and  N_25
                            x       y       z     vdW  Elec       q    Type
                         _______ _______ _______ _____ _____    ______ ____

>  <TORSDO>
F 13

$$$$
=
 OpenBabel11042423003D

 32 33  0  0  1  0  0  0  0  0999 V2000
  160.9430  208.5750  151.3270 C   0  0  1  0  0  3  0  0  0  0  0  0
  160.8000  209.0730  152.7380 C   0  0  1  0  0  3  0  0  0  0  0  0
  162.2830  209.1310  150.8800 C   0  0  2  0  0  3  0  0  0  0  0  0
  162.1280  209.7410  153.0140 C   0  0  0  0  0  2  0  0  0  0  0  0
  162.6930  210.1190  151.7880 O   0  0  0  0  0  0  0  0  0  0  0  0
  160.9850  207.1190  151.3270 N   0  0  0  0  0  2  0  0  0  0  0  0
  160.8000  206.3390  150.1410 C   0  0  0  0  0  0  0  0  0  0  0  0
  160.5480  206.9090  149.0440 O   0  0  0  0  0  0  0  0  0  0  0  0
  160.9920  202.7150  149.0800 C   0  0  0  0  0  3  0  0  0  0  0  0
  160.9020  204.1100  149.0210 C   0  0  0  0  0  3  0  0  0  0  0  0
  161.0890  202.8230  151.4960 C   0  0  0  0  0  3  0  0  0  0  0  0
  160.9040  204.8700  150.2010 C   0  0  0  0  0  0  0  0  0  0  0  0
  161.0860  202.0720  150.3160 C   0  0  0  0  0  0  0  0  0  0  0  0
  160.9990  204.2160  151.4390 C   0  0  0  0  0  3  0  0  0  0  0  0
  161.1660  200.7200  150.3740 F   0  0  0  0  0  0  0  0  0  0  0  0
  159.7830  210.0300  152.7860 O   0  0  0  0  0  0  0  0  0  0  0  0
  160.1000  210.8290  153.8860 C   0  0  0  0  0  2  0  0  0  0  0  0
  158.9550  210.8010  154.8820 C   0  0  0  0  0  2  0  0  0  0  0  0
  159.6930  208.7770  156.0400 O   0  0  0  0  0  0  0  0  0  0  0  0
  159.3730  210.1120  156.0920 N   0  0  0  0  0  0  0  0  0  0  0  0
  159.6020  210.7640  157.1300 O   0  0  0  0  0  0  0  0  0  0  0  0
  162.1990  209.7030  149.4710 C   0  0  0  0  0  2  0  0  0  0  0  0
  162.0560  211.0930  149.5060 O   0  0  0  0  0  0  0  0  0  0  0  0
  161.9110  211.4690  148.1680 C   0  0  0  0  0  2  0  0  0  0  0  0
  162.9230  212.5470  147.8160 C   0  0  0  0  0  2  0  0  0  0  0  0
  162.5050  213.2760  146.5530 C   0  0  0  0  0  2  0  0  0  0  0  0
  159.5720  212.2880  144.5170 N   0  0  0  0  0  2  0  0  0  0  0  0
  160.7530  212.7530  144.7590 C   0  0  0  0  0  0  0  0  0  0  0  0
  161.2100  212.7790  146.1170 N   0  0  0  0  0  2  0  0  0  0  0  0
  161.2930  214.4310  143.0110 O   0  0  0  0  0  0  0  0  0  0  0  0
  162.5520  212.5340  143.2010 O   0  0  0  0  0  1  0  0  0  0  0  0
  161.5820  213.2160  143.6240 C   0  0  0  0  0  0  0  0  0  0  0  0
  1  6  1  1  0  0  0
  1  2  1  0  0  0  0
  2 16  1  6  0  0  0
  2  4  1  0  0  0  0
  3 22  1  6  0  0  0
  3  1  1  0  0  0  0
  3  5  1  0  0  0  0
  5  4  1  0  0  0  0
  7 12  1  0  0  0  0
  7  6  1  0  0  0  0
  8  7  2  0  0  0  0
  9 13  1  0  0  0  0
 10  9  2  0  0  0  0
 10 12  1  0  0  0  0
 12 14  2  0  0  0  0
 13 15  1  0  0  0  0
 13 11  2  0  0  0  0
 14 11  1  0  0  0  0
 16 17  1  0  0  0  0
 17 18  1  0  0  0  0
 18 20  1  0  0  0  0
 19 20  2  0  0  0  0
 20 21  2  0  0  0  0
 22 23  1  0  0  0  0
 24 23  1  0  0  0  0
 25 24  1  0  0  0  0
 26 25  1  0  0  0  0
 27 28  2  0  0  0  0
 28 29  1  0  0  0  0
 29 26  1  0  0  0  0
 30 32  2  0  0  0  0
 31 32  1  0  0  0  0
 32 28  1  0  0  0  0
M  END
>  <MODEL>
2

>  <REMARK>
 VINA RESULT:      -6.8      0.992      1.454
  Name = 
  13 active torsions:
  status: ('A' for Active; 'I' for Inactive)
    1  A    between atoms: N_2  and  C_11
    2  A    between atoms: C_4  and  C_15
    3  A    between atoms: C_4  and  O_16
    4  A    between atoms: O_7  and  C_14
    5  A    between atoms: O_7  and  C_18
    6  A    between atoms: C_9  and  C_29
    7  A    between atoms: C_10  and  C_21
    8  A    between atoms: C_15  and  C_20
    9  A    between atoms: O_16  and  C_23
   10  A    between atoms: C_17  and  C_23
   11  A    between atoms: C_18  and  C_24
   12  A    between atoms: C_20  and  N_30
   13  A    between atoms: C_24  and  N_25
                            x       y       z     vdW  Elec       q    Type
                         _______ _______ _______ _____ _____    ______ ____

>  <TORSDO>
F 13

$$$$
=
 OpenBabel11042423003D

 32 33  0  0  1  0  0  0  0  0999 V2000
  161.9060  207.5350  150.9470 C   0  0  1  0  0  3  0  0  0  0  0  0
  161.4820  208.9770  150.9390 C   0  0  1  0  0  3  0  0  0  0  0  0
  161.1450  206.9400  152.1180 C   0  0  2  0  0  3  0  0  0  0  0  0
  160.4140  209.0390  152.0070 C   0  0  0  0  0  2  0  0  0  0  0  0
  160.6270  207.9820  152.9030 O   0  0  0  0  0  0  0  0  0  0  0  0
  161.4860  206.8980  149.7070 N   0  0  0  0  0  2  0  0  0  0  0  0
  162.2020  207.0500  148.4770 C   0  0  0  0  0  0  0  0  0  0  0  0
  163.2190  207.7950  148.4270 O   0  0  0  0  0  0  0  0  0  0  0  0
  160.0920  205.9710  145.5310 C   0  0  0  0  0  3  0  0  0  0  0  0
  160.5220  206.6550  146.6730 C   0  0  0  0  0  3  0  0  0  0  0  0
  162.1160  204.6420  145.5650 C   0  0  0  0  0  3  0  0  0  0  0  0
  161.7520  206.3370  147.2680 C   0  0  0  0  0  0  0  0  0  0  0  0
  160.8880  204.9660  144.9770 C   0  0  0  0  0  0  0  0  0  0  0  0
  162.5460  205.3250  146.7050 C   0  0  0  0  0  3  0  0  0  0  0  0
  160.4680  204.2970  143.8750 F   0  0  0  0  0  0  0  0  0  0  0  0
  162.5630  209.7760  151.3200 O   0  0  0  0  0  0  0  0  0  0  0  0
  162.3000  211.0240  150.7500 C   0  0  0  0  0  2  0  0  0  0  0  0
  162.0850  210.8650  149.2560 C   0  0  0  0  0  2  0  0  0  0  0  0
  163.3520  212.5630  148.0330 O   0  0  0  0  0  0  0  0  0  0  0  0
  162.1700  212.1640  148.6080 N   0  0  0  0  0  0  0  0  0  0  0  0
  161.1350  212.8360  148.4290 O   0  0  0  0  0  0  0  0  0  0  0  0
  162.0400  206.0350  152.9530 C   0  0  0  0  0  2  0  0  0  0  0  0
  161.3150  204.9580  153.4700 O   0  0  0  0  0  0  0  0  0  0  0  0
  160.7720  204.3240  152.3500 C   0  0  0  0  0  2  0  0  0  0  0  0
  161.8770  203.6800  151.5280 C   0  0  0  0  0  2  0  0  0  0  0  0
  161.4300  203.4940  150.0910 C   0  0  0  0  0  2  0  0  0  0  0  0
  158.7690  201.0640  149.2320 N   0  0  0  0  0  2  0  0  0  0  0  0
  159.9100  201.6630  149.1420 C   0  0  0  0  0  0  0  0  0  0  0  0
  160.1990  202.7210  150.0650 N   0  0  0  0  0  2  0  0  0  0  0  0
  160.8540  201.8160  146.8510 O   0  0  0  0  0  0  0  0  0  0  0  0
  161.7060  200.3060  148.3390 O   0  0  0  0  0  1  0  0  0  0  0  0
  160.8690  201.2170  148.1070 C   0  0  0  0  0  0  0  0  0  0  0  0
  1  6  1  6  0  0  0
  1  3  1  0  0  0  0
  2  1  1  0  0  0  0
  2 16  1  1  0  0  0
  2  4  1  0  0  0  0
  3  5  1  0  0  0  0
  3 22  1  1  0  0  0
  4  5  1  0  0  0  0
  7  6  1  0  0  0  0
  8  7  2  0  0  0  0
  9 10  1  0  0  0  0
 10 12  2  0  0  0  0
 11 14  2  0  0  0  0
 12  7  1  0  0  0  0
 13  9  2  0  0  0  0
 13 11  1  0  0  0  0
 14 12  1  0  0  0  0
 15 13  1  0  0  0  0
 17 16  1  0  0  0  0
 18 17  1  0  0  0  0
 19 20  2  0  0  0  0
 20 18  1  0  0  0  0
 21 20  2  0  0  0  0
 22 23  1  0  0  0  0
 24 23  1  0  0  0  0
 25 24  1  0  0  0  0
 26 25  1  0  0  0  0
 28 27  2  0  0  0  0
 28 29  1  0  0  0  0
 29 26  1  0  0  0  0
 30 32  2  0  0  0  0
 32 31  1  0  0  0  0
 32 28  1  0  0  0  0
M  END
>  <MODEL>
3

>  <REMARK>
 VINA RESULT:      -6.5      3.399      7.610
  Name = 
  13 active torsions:
  status: ('A' for Active; 'I' for Inactive)
    1  A    between atoms: N_2  and  C_11
    2  A    between atoms: C_4  and  C_15
    3  A    between atoms: C_4  and  O_16
    4  A    between atoms: O_7  and  C_14
    5  A    between atoms: O_7  and  C_18
    6  A    between atoms: C_9  and  C_29
    7  A    between atoms: C_10  and  C_21
    8  A    between atoms: C_15  and  C_20
    9  A    between atoms: O_16  and  C_23
   10  A    between atoms: C_17  and  C_23
   11  A    between atoms: C_18  and  C_24
   12  A    between atoms: C_20  and  N_30
   13  A    between atoms: C_24  and  N_25
                            x       y       z     vdW  Elec       q    Type
                         _______ _______ _______ _____ _____    ______ ____

>  <TORSDO>
F 13

$$$$
=
 OpenBabel11042423003D

 32 33  0  0  1  0  0  0  0  0999 V2000
  160.9290  208.6120  151.2440 C   0  0  1  0  0  3  0  0  0  0  0  0
  160.7920  209.1160  152.6530 C   0  0  1  0  0  3  0  0  0  0  0  0
  162.2580  209.1820  150.7810 C   0  0  2  0  0  3  0  0  0  0  0  0
  162.1140  209.8030  152.9130 C   0  0  0  0  0  2  0  0  0  0  0  0
  162.6640  210.1800  151.6800 O   0  0  0  0  0  0  0  0  0  0  0  0
  160.9890  207.1570  151.2520 N   0  0  0  0  0  2  0  0  0  0  0  0
  160.7790  206.3670  150.0770 C   0  0  0  0  0  0  0  0  0  0  0  0
  160.4890  206.9260  148.9840 O   0  0  0  0  0  0  0  0  0  0  0  0
  161.0040  202.7400  149.0320 C   0  0  0  0  0  3  0  0  0  0  0  0
  160.8950  204.1330  148.9680 C   0  0  0  0  0  3  0  0  0  0  0  0
  161.1300  202.8610  151.4470 C   0  0  0  0  0  3  0  0  0  0  0  0
  160.9030  204.9000  150.1430 C   0  0  0  0  0  0  0  0  0  0  0  0
  161.1220  202.1050  150.2710 C   0  0  0  0  0  0  0  0  0  0  0  0
  161.0210  204.2530  151.3830 C   0  0  0  0  0  3  0  0  0  0  0  0
  161.2200  200.7540  150.3340 F   0  0  0  0  0  0  0  0  0  0  0  0
  159.7640  210.0610  152.7050 O   0  0  0  0  0  0  0  0  0  0  0  0
  160.1270  210.9230  153.7420 C   0  0  0  0  0  2  0  0  0  0  0  0
  159.2500  212.1610  153.7060 C   0  0  0  0  0  2  0  0  0  0  0  0
  160.3080  212.7820  151.5900 O   0  0  0  0  0  0  0  0  0  0  0  0
  159.1660  212.6620  152.3440 N   0  0  0  0  0  0  0  0  0  0  0  0
  158.0510  212.8210  151.8090 O   0  0  0  0  0  0  0  0  0  0  0  0
  162.1540  209.7440  149.3700 C   0  0  0  0  0  2  0  0  0  0  0  0
  162.1650  211.1410  149.3890 O   0  0  0  0  0  0  0  0  0  0  0  0
  161.8780  211.5180  148.0740 C   0  0  0  0  0  2  0  0  0  0  0  0
  160.7830  212.5720  148.0600 C   0  0  0  0  0  2  0  0  0  0  0  0
  160.9860  213.5320  146.9030 C   0  0  0  0  0  2  0  0  0  0  0  0
  160.0140  211.8750  143.7350 N   0  0  0  0  0  2  0  0  0  0  0  0
  159.8570  212.5650  144.8160 C   0  0  0  0  0  0  0  0  0  0  0  0
  160.9980  212.7850  145.6550 N   0  0  0  0  0  2  0  0  0  0  0  0
  157.6320  212.3640  145.8990 O   0  0  0  0  0  1  0  0  0  0  0  0
  158.1570  214.2400  144.7060 O   0  0  0  0  0  0  0  0  0  0  0  0
  158.5170  213.1090  145.1250 C   0  0  0  0  0  0  0  0  0  0  0  0
  1  6  1  1  0  0  0
  1  2  1  0  0  0  0
  2 16  1  6  0  0  0
  2  4  1  0  0  0  0
  3 22  1  6  0  0  0
  3  1  1  0  0  0  0
  3  5  1  0  0  0  0
  5  4  1  0  0  0  0
  7 12  1  0  0  0  0
  7  6  1  0  0  0  0
  8  7  2  0  0  0  0
  9 13  1  0  0  0  0
 10  9  2  0  0  0  0
 10 12  1  0  0  0  0
 12 14  2  0  0  0  0
 13 15  1  0  0  0  0
 13 11  2  0  0  0  0
 14 11  1  0  0  0  0
 16 17  1  0  0  0  0
 18 17  1  0  0  0  0
 19 20  2  0  0  0  0
 20 18  1  0  0  0  0
 21 20  2  0  0  0  0
 22 23  1  0  0  0  0
 24 23  1  0  0  0  0
 25 24  1  0  0  0  0
 26 25  1  0  0  0  0
 27 28  2  0  0  0  0
 28 32  1  0  0  0  0
 28 29  1  0  0  0  0
 29 26  1  0  0  0  0
 31 32  2  0  0  0  0
 32 30  1  0  0  0  0
M  END
>  <MODEL>
4

>  <REMARK>
 VINA RESULT:      -6.5      1.635      2.289
  Name = 
  13 active torsions:
  status: ('A' for Active; 'I' for Inactive)
    1  A    between atoms: N_2  and  C_11
    2  A    between atoms: C_4  and  C_15
    3  A    between atoms: C_4  and  O_16
    4  A    between atoms: O_7  and  C_14
    5  A    between atoms: O_7  and  C_18
    6  A    between atoms: C_9  and  C_29
    7  A    between atoms: C_10  and  C_21
    8  A    between atoms: C_15  and  C_20
    9  A    between atoms: O_16  and  C_23
   10  A    between atoms: C_17  and  C_23
   11  A    between atoms: C_18  and  C_24
   12  A    between atoms: C_20  and  N_30
   13  A    between atoms: C_24  and  N_25
                            x       y       z     vdW  Elec       q    Type
                         _______ _______ _______ _____ _____    ______ ____

>  <TORSDO>
F 13

$$$$
=
 OpenBabel11042423003D

 32 33  0  0  1  0  0  0  0  0999 V2000
  160.9210  208.6010  151.2720 C   0  0  1  0  0  3  0  0  0  0  0  0
  160.7390  209.0810  152.6850 C   0  0  1  0  0  3  0  0  0  0  0  0
  162.2640  209.1790  150.8620 C   0  0  2  0  0  3  0  0  0  0  0  0
  162.0530  209.7620  152.9990 C   0  0  0  0  0  2  0  0  0  0  0  0
  162.6410  210.1610  151.7910 O   0  0  0  0  0  0  0  0  0  0  0  0
  160.9810  207.1460  151.2560 N   0  0  0  0  0  2  0  0  0  0  0  0
  160.7580  206.3750  150.0710 C   0  0  0  0  0  0  0  0  0  0  0  0
  160.4550  206.9510  148.9910 O   0  0  0  0  0  0  0  0  0  0  0  0
  161.0880  202.8430  151.3810 C   0  0  0  0  0  3  0  0  0  0  0  0
  160.9610  204.2360  151.3430 C   0  0  0  0  0  3  0  0  0  0  0  0
  161.0600  202.7740  148.9610 C   0  0  0  0  0  3  0  0  0  0  0  0
  160.8820  204.9070  150.1130 C   0  0  0  0  0  0  0  0  0  0  0  0
  161.1380  202.1130  150.1910 C   0  0  0  0  0  0  0  0  0  0  0  0
  160.9330  204.1650  148.9220 C   0  0  0  0  0  3  0  0  0  0  0  0
  161.2680  200.7640  150.2270 F   0  0  0  0  0  0  0  0  0  0  0  0
  159.7100  210.0250  152.7210 O   0  0  0  0  0  0  0  0  0  0  0  0
  159.8820  210.6900  153.9370 C   0  0  0  0  0  2  0  0  0  0  0  0
  158.6600  211.5430  154.2270 C   0  0  0  0  0  2  0  0  0  0  0  0
  159.4980  213.5450  155.3550 O   0  0  0  0  0  0  0  0  0  0  0  0
  159.0290  212.9490  154.2100 N   0  0  0  0  0  0  0  0  0  0  0  0
  159.0790  213.5640  153.1260 O   0  0  0  0  0  0  0  0  0  0  0  0
  162.2050  209.7650  149.4580 C   0  0  0  0  0  2  0  0  0  0  0  0
  161.9520  211.1390  149.5040 O   0  0  0  0  0  0  0  0  0  0  0  0
  162.3120  211.6090  148.2380 C   0  0  0  0  0  2  0  0  0  0  0  0
  161.0670  211.9370  147.4290 C   0  0  0  0  0  2  0  0  0  0  0  0
  160.6140  213.3580  147.7040 C   0  0  0  0  0  2  0  0  0  0  0  0
  157.1730  213.3050  149.0760 N   0  0  0  0  0  2  0  0  0  0  0  0
  158.0950  213.3210  148.1720 C   0  0  0  0  0  0  0  0  0  0  0  0
  159.4650  213.3330  148.5940 N   0  0  0  0  0  2  0  0  0  0  0  0
  157.8570  214.4520  145.9740 O   0  0  0  0  0  0  0  0  0  0  0  0
  157.2150  212.2720  146.2130 O   0  0  0  0  0  1  0  0  0  0  0  0
  157.6960  213.3050  146.7470 C   0  0  0  0  0  0  0  0  0  0  0  0
  1  6  1  1  0  0  0
  1  2  1  0  0  0  0
  2 16  1  6  0  0  0
  2  4  1  0  0  0  0
  3 22  1  6  0  0  0
  3  1  1  0  0  0  0
  3  5  1  0  0  0  0
  5  4  1  0  0  0  0
  7 12  1  0  0  0  0
  7  6  1  0  0  0  0
  8  7  2  0  0  0  0
 10  9  1  0  0  0  0
 11 13  1  0  0  0  0
 12 10  2  0  0  0  0
 13 15  1  0  0  0  0
 13  9  2  0  0  0  0
 14 11  2  0  0  0  0
 14 12  1  0  0  0  0
 16 17  1  0  0  0  0
 17 18  1  0  0  0  0
 20 18  1  0  0  0  0
 20 19  2  0  0  0  0
 21 20  2  0  0  0  0
 22 23  1  0  0  0  0
 24 23  1  0  0  0  0
 25 26  1  0  0  0  0
 25 24  1  0  0  0  0
 26 29  1  0  0  0  0
 28 29  1  0  0  0  0
 28 27  2  0  0  0  0
 30 32  2  0  0  0  0
 31 32  1  0  0  0  0
 32 28  1  0  0  0  0
M  END
>  <MODEL>
5

>  <REMARK>
 VINA RESULT:      -6.4      2.190      2.519
  Name = 
  13 active torsions:
  status: ('A' for Active; 'I' for Inactive)
    1  A    between atoms: N_2  and  C_11
    2  A    between atoms: C_4  and  C_15
    3  A    between atoms: C_4  and  O_16
    4  A    between atoms: O_7  and  C_14
    5  A    between atoms: O_7  and  C_18
    6  A    between atoms: C_9  and  C_29
    7  A    between atoms: C_10  and  C_21
    8  A    between atoms: C_15  and  C_20
    9  A    between atoms: O_16  and  C_23
   10  A    between atoms: C_17  and  C_23
   11  A    between atoms: C_18  and  C_24
   12  A    between atoms: C_20  and  N_30
   13  A    between atoms: C_24  and  N_25
                            x       y       z     vdW  Elec       q    Type
                         _______ _______ _______ _____ _____    ______ ____

>  <TORSDO>
F 13

$$$$
=
 OpenBabel11042423003D

 32 33  0  0  1  0  0  0  0  0999 V2000
  160.9230  208.1340  151.1760 C   0  0  1  0  0  3  0  0  0  0  0  0
  160.9760  208.7040  152.5660 C   0  0  1  0  0  3  0  0  0  0  0  0
  162.1410  208.7300  150.4930 C   0  0  2  0  0  3  0  0  0  0  0  0
  162.2900  209.4510  152.5920 C   0  0  0  0  0  2  0  0  0  0  0  0
  162.6320  209.7860  151.2750 O   0  0  0  0  0  0  0  0  0  0  0  0
  161.0470  206.6850  151.2390 N   0  0  0  0  0  2  0  0  0  0  0  0
  160.5090  205.8170  150.2360 C   0  0  0  0  0  0  0  0  0  0  0  0
  159.8600  206.2990  149.2670 O   0  0  0  0  0  0  0  0  0  0  0  0
  160.8460  202.1750  149.2790 C   0  0  0  0  0  3  0  0  0  0  0  0
  160.6600  203.5580  149.1840 C   0  0  0  0  0  3  0  0  0  0  0  0
  161.1410  202.3790  151.6730 C   0  0  0  0  0  3  0  0  0  0  0  0
  160.7140  204.3610  150.3340 C   0  0  0  0  0  0  0  0  0  0  0  0
  161.0860  201.5860  150.5230 C   0  0  0  0  0  0  0  0  0  0  0  0
  160.9560  203.7610  151.5790 C   0  0  0  0  0  3  0  0  0  0  0  0
  161.2590  200.2440  150.6170 F   0  0  0  0  0  0  0  0  0  0  0  0
  159.9260  209.6110  152.7320 O   0  0  0  0  0  0  0  0  0  0  0  0
  160.3710  210.4900  153.7210 C   0  0  0  0  0  2  0  0  0  0  0  0
  159.5710  210.2720  154.9920 C   0  0  0  0  0  2  0  0  0  0  0  0
  160.2160  208.4100  156.4420 O   0  0  0  0  0  0  0  0  0  0  0  0
  160.4280  209.7000  156.0180 N   0  0  0  0  0  0  0  0  0  0  0  0
  161.4480  210.3140  156.3880 O   0  0  0  0  0  0  0  0  0  0  0  0
  161.8020  209.2160  149.0900 C   0  0  0  0  0  2  0  0  0  0  0  0
  162.7500  208.7670  148.1660 O   0  0  0  0  0  0  0  0  0  0  0  0
  162.8450  207.3910  148.3940 C   0  0  0  0  0  2  0  0  0  0  0  0
  162.1890  206.6270  147.2550 C   0  0  0  0  0  2  0  0  0  0  0  0
  163.1670  205.6410  146.6450 C   0  0  0  0  0  2  0  0  0  0  0  0
  160.9110  202.9830  145.3900 N   0  0  0  0  0  2  0  0  0  0  0  0
  161.4230  204.1650  145.4850 C   0  0  0  0  0  0  0  0  0  0  0  0
  162.4920  204.3730  146.4160 N   0  0  0  0  0  2  0  0  0  0  0  0
  159.7860  205.9740  145.0230 O   0  0  0  0  0  1  0  0  0  0  0  0
  161.4360  205.5140  143.5110 O   0  0  0  0  0  0  0  0  0  0  0  0
  160.8970  205.2410  144.6160 C   0  0  0  0  0  0  0  0  0  0  0  0
  1  6  1  1  0  0  0
  1  2  1  0  0  0  0
  2  4  1  0  0  0  0
  2 16  1  6  0  0  0
  3 22  1  6  0  0  0
  3  1  1  0  0  0  0
  3  5  1  0  0  0  0
  5  4  1  0  0  0  0
  7 12  1  0  0  0  0
  7  6  1  0  0  0  0
  8  7  2  0  0  0  0
  9 13  1  0  0  0  0
 10  9  2  0  0  0  0
 10 12  1  0  0  0  0
 12 14  2  0  0  0  0
 13 15  1  0  0  0  0
 13 11  2  0  0  0  0
 14 11  1  0  0  0  0
 16 17  1  0  0  0  0
 17 18  1  0  0  0  0
 18 20  1  0  0  0  0
 20 21  2  0  0  0  0
 20 19  2  0  0  0  0
 23 24  1  0  0  0  0
 23 22  1  0  0  0  0
 25 24  1  0  0  0  0
 26 25  1  0  0  0  0
 27 28  2  0  0  0  0
 28 29  1  0  0  0  0
 29 26  1  0  0  0  0
 31 32  2  0  0  0  0
 32 30  1  0  0  0  0
 32 28  1  0  0  0  0
M  END
>  <MODEL>
6

>  <REMARK>
 VINA RESULT:      -6.2      3.390      4.339
  Name = 
  13 active torsions:
  status: ('A' for Active; 'I' for Inactive)
    1  A    between atoms: N_2  and  C_11
    2  A    between atoms: C_4  and  C_15
    3  A    between atoms: C_4  and  O_16
    4  A    between atoms: O_7  and  C_14
    5  A    between atoms: O_7  and  C_18
    6  A    between atoms: C_9  and  C_29
    7  A    between atoms: C_10  and  C_21
    8  A    between atoms: C_15  and  C_20
    9  A    between atoms: O_16  and  C_23
   10  A    between atoms: C_17  and  C_23
   11  A    between atoms: C_18  and  C_24
   12  A    between atoms: C_20  and  N_30
   13  A    between atoms: C_24  and  N_25
                            x       y       z     vdW  Elec       q    Type
                         _______ _______ _______ _____ _____    ______ ____

>  <TORSDO>
F 13

$$$$
=
 OpenBabel11042423003D

 32 33  0  0  1  0  0  0  0  0999 V2000
  160.9500  208.6790  151.3200 C   0  0  1  0  0  3  0  0  0  0  0  0
  160.8090  209.2010  152.7220 C   0  0  1  0  0  3  0  0  0  0  0  0
  162.2940  209.2190  150.8640 C   0  0  2  0  0  3  0  0  0  0  0  0
  162.1420  209.8650  152.9880 C   0  0  0  0  0  2  0  0  0  0  0  0
  162.7100  210.2190  151.7570 O   0  0  0  0  0  0  0  0  0  0  0  0
  160.9820  207.2230  151.3440 N   0  0  0  0  0  2  0  0  0  0  0  0
  160.8560  206.4260  150.1610 C   0  0  0  0  0  0  0  0  0  0  0  0
  160.6670  206.9800  149.0440 O   0  0  0  0  0  0  0  0  0  0  0  0
  160.9200  202.7760  149.1780 C   0  0  0  0  0  3  0  0  0  0  0  0
  160.8420  204.1700  149.0920 C   0  0  0  0  0  3  0  0  0  0  0  0
  161.2090  202.9390  151.5760 C   0  0  0  0  0  3  0  0  0  0  0  0
  160.9470  204.9580  150.2490 C   0  0  0  0  0  0  0  0  0  0  0  0
  161.1030  202.1610  150.4190 C   0  0  0  0  0  0  0  0  0  0  0  0
  161.1310  204.3310  151.4910 C   0  0  0  0  0  3  0  0  0  0  0  0
  161.1710  200.8090  150.5030 F   0  0  0  0  0  0  0  0  0  0  0  0
  159.7990  210.1660  152.7540 O   0  0  0  0  0  0  0  0  0  0  0  0
  160.3160  211.1940  153.5440 C   0  0  0  0  0  2  0  0  0  0  0  0
  159.1770  211.9410  154.2150 C   0  0  0  0  0  2  0  0  0  0  0  0
  159.1130  210.3720  156.0900 O   0  0  0  0  0  0  0  0  0  0  0  0
  158.4480  211.0390  155.0910 N   0  0  0  0  0  0  0  0  0  0  0  0
  157.2020  211.0000  155.0420 O   0  0  0  0  0  0  0  0  0  0  0  0
  162.2150  209.7670  149.4460 C   0  0  0  0  0  2  0  0  0  0  0  0
  161.9050  211.1300  149.4570 O   0  0  0  0  0  0  0  0  0  0  0  0
  162.4410  211.6260  148.2650 C   0  0  0  0  0  2  0  0  0  0  0  0
  161.3830  212.4050  147.5010 C   0  0  0  0  0  2  0  0  0  0  0  0
  160.8120  213.5130  148.3650 C   0  0  0  0  0  2  0  0  0  0  0  0
  157.1460  213.7300  148.8480 N   0  0  0  0  0  2  0  0  0  0  0  0
  158.3900  213.6610  149.1870 C   0  0  0  0  0  0  0  0  0  0  0  0
  159.3770  213.6010  148.1490 N   0  0  0  0  0  2  0  0  0  0  0  0
  157.8120  214.1240  151.5570 O   0  0  0  0  0  1  0  0  0  0  0  0
  159.8590  213.2580  151.0290 O   0  0  0  0  0  0  0  0  0  0  0  0
  158.7390  213.6650  150.6250 C   0  0  0  0  0  0  0  0  0  0  0  0
  1  6  1  1  0  0  0
  1  2  1  0  0  0  0
  2 16  1  6  0  0  0
  2  4  1  0  0  0  0
  3 22  1  6  0  0  0
  3  1  1  0  0  0  0
  3  5  1  0  0  0  0
  5  4  1  0  0  0  0
  7 12  1  0  0  0  0
  7  6  1  0  0  0  0
  8  7  2  0  0  0  0
  9 13  1  0  0  0  0
 10  9  2  0  0  0  0
 10 12  1  0  0  0  0
 12 14  2  0  0  0  0
 13 15  1  0  0  0  0
 13 11  2  0  0  0  0
 14 11  1  0  0  0  0
 16 17  1  0  0  0  0
 17 18  1  0  0  0  0
 18 20  1  0  0  0  0
 20 19  2  0  0  0  0
 21 20  2  0  0  0  0
 22 23  1  0  0  0  0
 24 23  1  0  0  0  0
 25 24  1  0  0  0  0
 25 26  1  0  0  0  0
 27 28  2  0  0  0  0
 28 32  1  0  0  0  0
 29 26  1  0  0  0  0
 29 28  1  0  0  0  0
 32 31  2  0  0  0  0
 32 30  1  0  0  0  0
M  END
>  <MODEL>
7

>  <REMARK>
 VINA RESULT:      -6.2      2.259      3.010
  Name = 
  13 active torsions:
  status: ('A' for Active; 'I' for Inactive)
    1  A    between atoms: N_2  and  C_11
    2  A    between atoms: C_4  and  C_15
    3  A    between atoms: C_4  and  O_16
    4  A    between atoms: O_7  and  C_14
    5  A    between atoms: O_7  and  C_18
    6  A    between atoms: C_9  and  C_29
    7  A    between atoms: C_10  and  C_21
    8  A    between atoms: C_15  and  C_20
    9  A    between atoms: O_16  and  C_23
   10  A    between atoms: C_17  and  C_23
   11  A    between atoms: C_18  and  C_24
   12  A    between atoms: C_20  and  N_30
   13  A    between atoms: C_24  and  N_25
                            x       y       z     vdW  Elec       q    Type
                         _______ _______ _______ _____ _____    ______ ____

>  <TORSDO>
F 13

$$$$
=
 OpenBabel11042423003D

 32 33  0  0  1  0  0  0  0  0999 V2000
  160.7490  209.0070  151.6240 C   0  0  1  0  0  3  0  0  0  0  0  0
  160.7690  209.3190  153.0940 C   0  0  1  0  0  3  0  0  0  0  0  0
  162.1430  209.3820  151.1550 C   0  0  2  0  0  3  0  0  0  0  0  0
  162.2070  209.7040  153.3560 C   0  0  0  0  0  2  0  0  0  0  0  0
  162.7700  210.1480  152.1510 O   0  0  0  0  0  0  0  0  0  0  0  0
  160.5280  207.5810  151.4320 N   0  0  0  0  0  2  0  0  0  0  0  0
  161.6000  206.6410  151.3040 C   0  0  0  0  0  0  0  0  0  0  0  0
  162.7960  207.0430  151.3130 O   0  0  0  0  0  0  0  0  0  0  0  0
  160.8490  203.2740  149.7560 C   0  0  0  0  0  3  0  0  0  0  0  0
  161.1350  204.6370  149.8900 C   0  0  0  0  0  3  0  0  0  0  0  0
  160.9030  203.0270  152.1640 C   0  0  0  0  0  3  0  0  0  0  0  0
  161.3080  205.2040  151.1620 C   0  0  0  0  0  0  0  0  0  0  0  0
  160.7330  202.4700  150.8930 C   0  0  0  0  0  0  0  0  0  0  0  0
  161.1890  204.3880  152.2980 C   0  0  0  0  0  3  0  0  0  0  0  0
  160.4480  201.1510  150.7640 F   0  0  0  0  0  0  0  0  0  0  0  0
  159.9450  210.4200  153.3420 O   0  0  0  0  0  0  0  0  0  0  0  0
  160.4180  210.9550  154.5410 C   0  0  0  0  0  2  0  0  0  0  0  0
  159.3700  211.8790  155.1350 C   0  0  0  0  0  2  0  0  0  0  0  0
  157.4620  211.5560  156.6300 O   0  0  0  0  0  0  0  0  0  0  0  0
  158.7550  211.2450  156.2890 N   0  0  0  0  0  0  0  0  0  0  0  0
  159.3370  210.3030  156.8630 O   0  0  0  0  0  0  0  0  0  0  0  0
  162.0940  210.1520  149.8420 C   0  0  0  0  0  2  0  0  0  0  0  0
  162.6520  209.4010  148.8040 O   0  0  0  0  0  0  0  0  0  0  0  0
  161.5710  208.7240  148.2340 C   0  0  0  0  0  2  0  0  0  0  0  0
  162.0150  207.3590  147.7330 C   0  0  0  0  0  2  0  0  0  0  0  0
  160.8130  206.5220  147.3370 C   0  0  0  0  0  2  0  0  0  0  0  0
  161.2070  205.5120  143.7940 N   0  0  0  0  0  2  0  0  0  0  0  0
  161.3570  205.4470  145.0750 C   0  0  0  0  0  0  0  0  0  0  0  0
  160.7340  206.4510  145.8870 N   0  0  0  0  0  2  0  0  0  0  0  0
  163.4720  204.5460  146.0140 O   0  0  0  0  0  1  0  0  0  0  0  0
  161.6440  203.1900  145.8080 O   0  0  0  0  0  0  0  0  0  0  0  0
  162.1470  204.3330  145.6450 C   0  0  0  0  0  0  0  0  0  0  0  0
  1  6  1  1  0  0  0
  1  2  1  0  0  0  0
  2 16  1  6  0  0  0
  2  4  1  0  0  0  0
  3 22  1  6  0  0  0
  3  1  1  0  0  0  0
  3  5  1  0  0  0  0
  5  4  1  0  0  0  0
  7  8  2  0  0  0  0
  7  6  1  0  0  0  0
  9 10  2  0  0  0  0
  9 13  1  0  0  0  0
 10 12  1  0  0  0  0
 11 14  1  0  0  0  0
 12  7  1  0  0  0  0
 12 14  2  0  0  0  0
 13 11  2  0  0  0  0
 15 13  1  0  0  0  0
 16 17  1  0  0  0  0
 17 18  1  0  0  0  0
 18 20  1  0  0  0  0
 20 19  2  0  0  0  0
 20 21  2  0  0  0  0
 23 22  1  0  0  0  0
 24 23  1  0  0  0  0
 25 24  1  0  0  0  0
 26 25  1  0  0  0  0
 27 28  2  0  0  0  0
 28 32  1  0  0  0  0
 28 29  1  0  0  0  0
 29 26  1  0  0  0  0
 32 31  2  0  0  0  0
 32 30  1  0  0  0  0
M  END
>  <MODEL>
8

>  <REMARK>
 VINA RESULT:      -6.0      3.119      4.285
  Name = 
  13 active torsions:
  status: ('A' for Active; 'I' for Inactive)
    1  A    between atoms: N_2  and  C_11
    2  A    between atoms: C_4  and  C_15
    3  A    between atoms: C_4  and  O_16
    4  A    between atoms: O_7  and  C_14
    5  A    between atoms: O_7  and  C_18
    6  A    between atoms: C_9  and  C_29
    7  A    between atoms: C_10  and  C_21
    8  A    between atoms: C_15  and  C_20
    9  A    between atoms: O_16  and  C_23
   10  A    between atoms: C_17  and  C_23
   11  A    between atoms: C_18  and  C_24
   12  A    between atoms: C_20  and  N_30
   13  A    between atoms: C_24  and  N_25
                            x       y       z     vdW  Elec       q    Type
                         _______ _______ _______ _____ _____    ______ ____

>  <TORSDO>
F 13

$$$$
=
 OpenBabel11042423003D

 32 33  0  0  1  0  0  0  0  0999 V2000
  160.7740  206.4800  152.4280 C   0  0  1  0  0  3  0  0  0  0  0  0
  161.0490  206.3610  153.9010 C   0  0  1  0  0  3  0  0  0  0  0  0
  161.8160  207.4710  151.9430 C   0  0  2  0  0  3  0  0  0  0  0  0
  162.3070  207.1790  154.0930 C   0  0  0  0  0  2  0  0  0  0  0  0
  162.3860  208.1140  153.0520 O   0  0  0  0  0  0  0  0  0  0  0  0
  160.9820  205.1880  151.7890 N   0  0  0  0  0  2  0  0  0  0  0  0
  160.4960  204.8860  150.4760 C   0  0  0  0  0  0  0  0  0  0  0  0
  159.8220  205.7420  149.8410 O   0  0  0  0  0  0  0  0  0  0  0  0
  161.2180  202.2140  147.9000 C   0  0  0  0  0  3  0  0  0  0  0  0
  160.9530  203.4610  148.4790 C   0  0  0  0  0  3  0  0  0  0  0  0
  161.1490  201.1830  150.0900 C   0  0  0  0  0  3  0  0  0  0  0  0
  160.7850  203.5760  149.8670 C   0  0  0  0  0  0  0  0  0  0  0  0
  161.3160  201.0770  148.7050 C   0  0  0  0  0  0  0  0  0  0  0  0
  160.8840  202.4270  150.6680 C   0  0  0  0  0  3  0  0  0  0  0  0
  161.5650  199.8680  148.1440 F   0  0  0  0  0  0  0  0  0  0  0  0
  160.0020  206.9520  154.6130 O   0  0  0  0  0  0  0  0  0  0  0  0
  160.6130  207.5280  155.7290 C   0  0  0  0  0  2  0  0  0  0  0  0
  159.8240  208.7480  156.1670 C   0  0  0  0  0  2  0  0  0  0  0  0
  159.6260  210.9560  155.1340 O   0  0  0  0  0  0  0  0  0  0  0  0
  160.4280  209.9480  155.6100 N   0  0  0  0  0  0  0  0  0  0  0  0
  161.6560  210.1320  155.7190 O   0  0  0  0  0  0  0  0  0  0  0  0
  161.2040  208.4900  150.9900 C   0  0  0  0  0  2  0  0  0  0  0  0
  162.2010  209.1890  150.3030 O   0  0  0  0  0  0  0  0  0  0  0  0
  161.9560  208.9230  148.9530 C   0  0  0  0  0  2  0  0  0  0  0  0
  162.6040  207.6070  148.5540 C   0  0  0  0  0  2  0  0  0  0  0  0
  161.8010  206.9310  147.4590 C   0  0  0  0  0  2  0  0  0  0  0  0
  163.0880  204.3350  145.1510 N   0  0  0  0  0  2  0  0  0  0  0  0
  162.2260  205.1380  145.6780 C   0  0  0  0  0  0  0  0  0  0  0  0
  162.6490  205.9810  146.7580 N   0  0  0  0  0  2  0  0  0  0  0  0
  160.3240  204.0260  144.5330 O   0  0  0  0  0  0  0  0  0  0  0  0
  160.1390  206.2030  145.2010 O   0  0  0  0  0  1  0  0  0  0  0  0
  160.8500  205.1660  145.1320 C   0  0  0  0  0  0  0  0  0  0  0  0
  1  6  1  6  0  0  0
  1  2  1  0  0  0  0
  2  4  1  0  0  0  0
  2 16  1  1  0  0  0
  3 22  1  6  0  0  0
  3  1  1  0  0  0  0
  3  5  1  0  0  0  0
  5  4  1  0  0  0  0
  7  6  1  0  0  0  0
  8  7  2  0  0  0  0
  9 10  2  0  0  0  0
  9 13  1  0  0  0  0
 10 12  1  0  0  0  0
 11 14  1  0  0  0  0
 12  7  1  0  0  0  0
 12 14  2  0  0  0  0
 13 11  2  0  0  0  0
 15 13  1  0  0  0  0
 16 17  1  0  0  0  0
 17 18  1  0  0  0  0
 19 20  2  0  0  0  0
 20 21  2  0  0  0  0
 20 18  1  0  0  0  0
 23 22  1  0  0  0  0
 24 23  1  0  0  0  0
 25 24  1  0  0  0  0
 26 25  1  0  0  0  0
 27 28  2  0  0  0  0
 28 29  1  0  0  0  0
 29 26  1  0  0  0  0
 30 32  2  0  0  0  0
 32 31  1  0  0  0  0
 32 28  1  0  0  0  0
M  END
>  <MODEL>
9

>  <REMARK>
 VINA RESULT:      -6.0      3.540      4.351
  Name = 
  13 active torsions:
  status: ('A' for Active; 'I' for Inactive)
    1  A    between atoms: N_2  and  C_11
    2  A    between atoms: C_4  and  C_15
    3  A    between atoms: C_4  and  O_16
    4  A    between atoms: O_7  and  C_14
    5  A    between atoms: O_7  and  C_18
    6  A    between atoms: C_9  and  C_29
    7  A    between atoms: C_10  and  C_21
    8  A    between atoms: C_15  and  C_20
    9  A    between atoms: O_16  and  C_23
   10  A    between atoms: C_17  and  C_23
   11  A    between atoms: C_18  and  C_24
   12  A    between atoms: C_20  and  N_30
   13  A    between atoms: C_24  and  N_25
                            x       y       z     vdW  Elec       q    Type
                         _______ _______ _______ _____ _____    ______ ____

>  <TORSDO>
F 13

$$$$
