=
 OpenBabel11052411163D

 27 31  0  0  1  0  0  0  0  0999 V2000
  161.8730  206.7530  151.1080 N   0  0  0  0  0  0  0  0  0  0  0  0
  162.0520  209.8730  149.4260 C   0  0  0  0  0  0  0  0  0  0  0  0
  160.7560  209.9230  154.8760 C   0  0  0  0  0  0  0  0  0  0  0  0
  162.2210  208.3860  149.2690 C   0  0  0  0  0  2  0  0  0  0  0  0
  160.7570  210.0980  153.5510 C   0  0  0  0  0  3  0  0  0  0  0  0
  160.9940  208.9400  152.6730 C   0  0  0  0  0  0  0  0  0  0  0  0
  162.3310  210.6930  148.5140 O   0  0  0  0  0  0  0  0  0  0  0  0
  160.5570  210.9870  155.6910 F   0  0  0  0  0  0  0  0  0  0  0  0
  161.0750  208.6030  155.4660 C   0  0  0  0  0  3  0  0  0  0  0  0
  160.8030  207.5450  153.2390 C   0  0  1  0  0  3  0  0  0  0  0  0
  161.3620  209.0740  151.4030 C   0  0  0  0  0  0  0  0  0  0  0  0
  161.7610  207.9430  150.6090 C   0  0  0  0  0  0  0  0  0  0  0  0
  161.5090  206.5110  152.4510 N   0  0  0  0  0  0  0  0  0  0  0  0
  161.1490  207.5010  154.7070 C   0  0  0  0  0  3  0  0  0  0  0  0
  161.5540  210.2900  150.7000 N   0  0  0  0  0  2  0  0  0  0  0  0
  161.5390  205.1350  152.9280 C   0  0  0  0  0  2  0  0  0  0  0  0
  161.2650  204.1940  151.8050 C   0  0  0  0  0  0  0  0  0  0  0  0
  161.1290  203.3660  149.7720 N   0  0  0  0  0  0  0  0  0  0  0  0
  160.8150  202.3870  150.6460 C   0  0  0  0  0  3  0  0  0  0  0  0
  161.4160  204.4830  150.4680 C   0  0  0  0  0  3  0  0  0  0  0  0
  160.8960  202.8700  151.9400 C   0  0  0  0  0  3  0  0  0  0  0  0
  161.5570  204.3200  147.5380 C   0  0  0  0  0  3  0  0  0  0  0  0
  161.2280  202.9870  145.5440 C   0  0  0  0  0  3  0  0  0  0  0  0
  160.8030  202.0270  147.7260 C   0  0  0  0  0  3  0  0  0  0  0  0
  160.8350  201.9030  146.3340 C   0  0  0  0  0  3  0  0  0  0  0  0
  161.5890  204.1940  146.1470 C   0  0  0  0  0  3  0  0  0  0  0  0
  161.1630  203.2370  148.3420 C   0  0  0  0  0  0  0  0  0  0  0  0
  1 13  1  0  0  0  0
  2 15  1  0  0  0  0
  3  9  1  0  0  0  0
  3  8  1  0  0  0  0
  4  2  1  0  0  0  0
  4 12  1  0  0  0  0
  5  3  2  0  0  0  0
  6 10  1  0  0  0  0
  6  5  1  0  0  0  0
  7  2  2  0  0  0  0
 10 14  1  1  0  0  0
 11  6  2  0  0  0  0
 12  1  2  0  0  0  0
 12 11  1  0  0  0  0
 13 16  1  0  0  0  0
 13 10  1  0  0  0  0
 14  9  2  0  0  0  0
 15 11  1  0  0  0  0
 17 21  1  0  0  0  0
 17 16  1  0  0  0  0
 18 20  1  0  0  0  0
 18 19  1  0  0  0  0
 19 21  2  0  0  0  0
 20 17  2  0  0  0  0
 22 27  1  0  0  0  0
 23 26  1  0  0  0  0
 23 25  2  0  0  0  0
 24 27  2  0  0  0  0
 25 24  1  0  0  0  0
 26 22  2  0  0  0  0
 27 18  1  0  0  0  0
M  END
>  <MODEL>
1

>  <REMARK>
 VINA RESULT:     -10.0      0.000      0.000
  Name = 
  3 active torsions:
  status: ('A' for Active; 'I' for Inactive)
    1  A    between atoms: C_13  and  C_17
    2  A    between atoms: C_17  and  N_20
    3  A    between atoms: N_21  and  C_24
                            x       y       z     vdW  Elec       q    Type
                         _______ _______ _______ _____ _____    ______ ____

>  <TORSDO>
F 3

$$$$
=
 OpenBabel11052411163D

 27 31  0  0  0  0  0  0  0  0999 V2000
  160.8880  206.0390  149.1980 N   0  0  0  0  0  0  0  0  0  0  0  0
  160.8650  205.8160  145.6560 C   0  0  0  0  0  0  0  0  0  0  0  0
  161.2060  201.0400  148.5640 C   0  0  0  0  0  0  0  0  0  0  0  0
  160.7900  206.7610  146.8230 C   0  0  0  0  0  2  0  0  0  0  0  0
  161.4250  202.0490  147.7160 C   0  0  0  0  0  2  0  0  0  0  0  0
  161.3910  203.4320  148.2200 C   0  0  0  0  0  0  0  0  0  0  0  0
  160.7110  206.1870  144.4640 O   0  0  0  0  0  0  0  0  0  0  0  0
  161.2170  199.7650  148.1040 F   0  0  0  0  0  0  0  0  0  0  0  0
  160.8490  201.3020  149.9770 C   0  0  0  0  0  3  0  0  0  0  0  0
  161.5430  203.6680  149.7110 C   0  0  0  0  0  0  0  0  0  0  0  0
  161.2400  204.4790  147.4140 C   0  0  0  0  0  0  0  0  0  0  0  0
  161.0320  205.8050  147.9320 C   0  0  0  0  0  0  0  0  0  0  0  0
  161.0270  204.9900  150.1320 N   0  0  0  0  0  0  0  0  0  0  0  0
  160.9530  202.5280  150.5050 C   0  0  0  0  0  3  0  0  0  0  0  0
  161.1190  204.4520  146.0020 N   0  0  0  0  0  2  0  0  0  0  0  0
  160.9760  205.3260  151.5490 C   0  0  0  0  0  2  0  0  0  0  0  0
  161.2730  206.7730  151.7450 C   0  0  0  0  0  0  0  0  0  0  0  0
  161.2290  208.8120  152.5670 N   0  0  0  0  0  0  0  0  0  0  0  0
  162.2100  208.7540  151.6430 C   0  0  0  0  0  3  0  0  0  0  0  0
  160.6460  207.6010  152.6480 C   0  0  0  0  0  3  0  0  0  0  0  0
  162.2730  207.4800  151.1070 C   0  0  0  0  0  3  0  0  0  0  0  0
  161.3210  210.1060  154.6660 C   0  0  0  0  0  3  0  0  0  0  0  0
  160.1730  212.2280  154.8580 C   0  0  0  0  0  3  0  0  0  0  0  0
  160.0690  210.9780  152.7870 C   0  0  0  0  0  3  0  0  0  0  0  0
  159.7210  212.1030  153.5420 C   0  0  0  0  0  3  0  0  0  0  0  0
  160.9730  211.2300  155.4190 C   0  0  0  0  0  3  0  0  0  0  0  0
  160.8720  209.9680  153.3420 C   0  0  0  0  0  0  0  0  0  0  0  0
  1 13  1  0  0  0  0
  2 15  1  0  0  0  0
  2  4  1  0  0  0  0
  3  9  2  0  0  0  0
  4 12  1  0  0  0  0
  5  6  1  0  0  0  0
  5  3  1  0  0  0  0
  6 10  1  0  0  0  0
  7  2  2  0  0  0  0
  8  3  1  0  0  0  0
  9 14  1  0  0  0  0
 10 13  1  0  0  0  0
 10 14  2  0  0  0  0
 11 12  1  0  0  0  0
 11  6  2  0  0  0  0
 12  1  2  0  0  0  0
 13 16  1  0  0  0  0
 15 11  1  0  0  0  0
 16 17  1  0  0  0  0
 17 20  2  0  0  0  0
 18 20  1  0  0  0  0
 18 27  1  0  0  0  0
 19 18  1  0  0  0  0
 21 19  2  0  0  0  0
 21 17  1  0  0  0  0
 22 26  1  0  0  0  0
 23 26  2  0  0  0  0
 24 27  1  0  0  0  0
 24 25  2  0  0  0  0
 25 23  1  0  0  0  0
 27 22  2  0  0  0  0
M  END
>  <MODEL>
2

>  <REMARK>
 VINA RESULT:      -9.8      3.288      7.849
  Name = 
  3 active torsions:
  status: ('A' for Active; 'I' for Inactive)
    1  A    between atoms: C_13  and  C_17
    2  A    between atoms: C_17  and  N_20
    3  A    between atoms: N_21  and  C_24
                            x       y       z     vdW  Elec       q    Type
                         _______ _______ _______ _____ _____    ______ ____

>  <TORSDO>
F 3

$$$$
=
 OpenBabel11052411163D

 27 31  0  0  1  0  0  0  0  0999 V2000
  161.5650  208.2240  152.8390 N   0  0  0  0  0  0  0  0  0  0  0  0
  160.0530  207.5070  155.9680 C   0  0  0  0  0  0  0  0  0  0  0  0
  159.1320  212.5600  153.7280 C   0  0  0  0  0  0  0  0  0  0  0  0
  160.9110  206.9480  154.8670 C   0  0  0  0  0  2  0  0  0  0  0  0
  159.4620  211.5530  154.5430 C   0  0  0  0  0  3  0  0  0  0  0  0
  160.3060  210.4610  154.0320 C   0  0  0  0  0  0  0  0  0  0  0  0
  159.6460  206.8160  156.9380 O   0  0  0  0  0  0  0  0  0  0  0  0
  158.3400  213.5590  154.1860 F   0  0  0  0  0  0  0  0  0  0  0  0
  159.5330  212.5410  152.3030 C   0  0  0  0  0  3  0  0  0  0  0  0
  161.1230  210.6980  152.7760 C   0  0  1  0  0  3  0  0  0  0  0  0
  160.3830  209.2780  154.6360 C   0  0  0  0  0  0  0  0  0  0  0  0
  161.0680  208.1660  154.0340 C   0  0  0  0  0  0  0  0  0  0  0  0
  161.5280  209.4360  152.1150 N   0  0  0  0  0  0  0  0  0  0  0  0
  160.4180  211.6490  151.8400 C   0  0  0  0  0  3  0  0  0  0  0  0
  159.7230  208.8920  155.8300 N   0  0  0  0  0  2  0  0  0  0  0  0
  162.2060  209.4830  150.8260 C   0  0  0  0  0  2  0  0  0  0  0  0
  161.8740  208.2700  150.0270 C   0  0  0  0  0  0  0  0  0  0  0  0
  161.4040  206.1850  149.5090 N   0  0  0  0  0  0  0  0  0  0  0  0
  161.2590  206.9360  148.3970 C   0  0  0  0  0  3  0  0  0  0  0  0
  161.7750  206.9900  150.5220 C   0  0  0  0  0  3  0  0  0  0  0  0
  161.5410  208.2600  148.6860 C   0  0  0  0  0  3  0  0  0  0  0  0
  160.9560  204.1590  150.8440 C   0  0  0  0  0  3  0  0  0  0  0  0
  160.7680  201.9950  149.7770 C   0  0  0  0  0  3  0  0  0  0  0  0
  161.2060  203.9680  148.4440 C   0  0  0  0  0  3  0  0  0  0  0  0
  160.9970  202.5880  148.5330 C   0  0  0  0  0  3  0  0  0  0  0  0
  160.7470  202.7810  150.9320 C   0  0  0  0  0  3  0  0  0  0  0  0
  161.1880  204.7670  149.5990 C   0  0  0  0  0  0  0  0  0  0  0  0
  1 12  2  0  0  0  0
  2  7  2  0  0  0  0
  3  8  1  0  0  0  0
  3  5  2  0  0  0  0
  4  2  1  0  0  0  0
  6  5  1  0  0  0  0
  6 11  2  0  0  0  0
  9  3  1  0  0  0  0
 10 14  1  6  0  0  0
 10  6  1  0  0  0  0
 11 15  1  0  0  0  0
 12 11  1  0  0  0  0
 12  4  1  0  0  0  0
 13 10  1  0  0  0  0
 13  1  1  0  0  0  0
 14  9  2  0  0  0  0
 15  2  1  0  0  0  0
 16 13  1  0  0  0  0
 17 20  2  0  0  0  0
 17 16  1  0  0  0  0
 18 27  1  0  0  0  0
 18 20  1  0  0  0  0
 19 21  2  0  0  0  0
 19 18  1  0  0  0  0
 21 17  1  0  0  0  0
 22 26  1  0  0  0  0
 23 26  2  0  0  0  0
 24 25  2  0  0  0  0
 24 27  1  0  0  0  0
 25 23  1  0  0  0  0
 27 22  2  0  0  0  0
M  END
>  <MODEL>
3

>  <REMARK>
 VINA RESULT:      -9.6      2.587      4.482
  Name = 
  3 active torsions:
  status: ('A' for Active; 'I' for Inactive)
    1  A    between atoms: C_13  and  C_17
    2  A    between atoms: C_17  and  N_20
    3  A    between atoms: N_21  and  C_24
                            x       y       z     vdW  Elec       q    Type
                         _______ _______ _______ _____ _____    ______ ____

>  <TORSDO>
F 3

$$$$
=
 OpenBabel11052411163D

 27 31  0  0  0  0  0  0  0  0999 V2000
  161.3920  206.2130  150.6690 N   0  0  0  0  0  0  0  0  0  0  0  0
  161.1960  202.7310  151.3260 C   0  0  0  0  0  0  0  0  0  0  0  0
  161.7890  204.3450  145.9940 C   0  0  0  0  0  0  0  0  0  0  0  0
  161.2100  204.0970  151.9560 C   0  0  0  0  0  2  0  0  0  0  0  0
  161.3610  203.7870  147.1300 C   0  0  0  0  0  2  0  0  0  0  0  0
  161.2200  204.6230  148.3340 C   0  0  0  0  0  0  0  0  0  0  0  0
  161.2060  201.6670  151.9970 O   0  0  0  0  0  0  0  0  0  0  0  0
  161.9380  203.5780  144.8870 F   0  0  0  0  0  0  0  0  0  0  0  0
  162.2030  205.7660  145.9580 C   0  0  0  0  0  3  0  0  0  0  0  0
  161.1420  206.1290  148.1700 C   0  0  0  0  0  0  0  0  0  0  0  0
  161.1530  204.1050  149.5560 C   0  0  0  0  0  0  0  0  0  0  0  0
  161.1950  204.9340  150.7310 C   0  0  0  0  0  0  0  0  0  0  0  0
  161.4800  206.8550  149.4140 N   0  0  0  0  0  0  0  0  0  0  0  0
  161.9520  206.5910  146.9830 C   0  0  0  0  0  3  0  0  0  0  0  0
  161.1760  202.7290  149.8960 N   0  0  0  0  0  2  0  0  0  0  0  0
  161.5810  208.3090  149.3970 C   0  0  0  0  0  2  0  0  0  0  0  0
  161.6230  208.8380  150.7900 C   0  0  0  0  0  0  0  0  0  0  0  0
  161.3370  208.9940  152.9650 N   0  0  0  0  0  0  0  0  0  0  0  0
  162.1230  210.0180  152.5700 C   0  0  0  0  0  3  0  0  0  0  0  0
  161.0260  208.2540  151.8840 C   0  0  0  0  0  3  0  0  0  0  0  0
  162.3310  209.9490  151.2040 C   0  0  0  0  0  3  0  0  0  0  0  0
  160.6900  207.4130  154.7440 C   0  0  0  0  0  3  0  0  0  0  0  0
  160.0810  208.2160  156.9460 C   0  0  0  0  0  3  0  0  0  0  0  0
  160.7150  209.7880  155.2160 C   0  0  0  0  0  3  0  0  0  0  0  0
  160.3010  209.5310  156.5270 C   0  0  0  0  0  3  0  0  0  0  0  0
  160.2760  207.1580  156.0540 C   0  0  0  0  0  3  0  0  0  0  0  0
  160.9130  208.7310  154.3120 C   0  0  0  0  0  0  0  0  0  0  0  0
  1 12  2  0  0  0  0
  2  4  1  0  0  0  0
  2  7  2  0  0  0  0
  3  5  1  0  0  0  0
  5  6  1  0  0  0  0
  6 11  2  0  0  0  0
  8  3  1  0  0  0  0
  9  3  2  0  0  0  0
  9 14  1  0  0  0  0
 10  6  1  0  0  0  0
 10 13  1  0  0  0  0
 11 15  1  0  0  0  0
 11 12  1  0  0  0  0
 12  4  1  0  0  0  0
 13  1  1  0  0  0  0
 14 10  2  0  0  0  0
 15  2  1  0  0  0  0
 16 13  1  0  0  0  0
 16 17  1  0  0  0  0
 17 21  1  0  0  0  0
 17 20  2  0  0  0  0
 18 27  1  0  0  0  0
 19 18  1  0  0  0  0
 20 18  1  0  0  0  0
 21 19  2  0  0  0  0
 22 26  1  0  0  0  0
 24 25  2  0  0  0  0
 25 23  1  0  0  0  0
 26 23  2  0  0  0  0
 27 22  2  0  0  0  0
 27 24  1  0  0  0  0
M  END
>  <MODEL>
4

>  <REMARK>
 VINA RESULT:      -9.3      3.395      8.094
  Name = 
  3 active torsions:
  status: ('A' for Active; 'I' for Inactive)
    1  A    between atoms: C_13  and  C_17
    2  A    between atoms: C_17  and  N_20
    3  A    between atoms: N_21  and  C_24
                            x       y       z     vdW  Elec       q    Type
                         _______ _______ _______ _____ _____    ______ ____

>  <TORSDO>
F 3

$$$$
=
 OpenBabel11052411163D

 27 31  0  0  0  0  0  0  0  0999 V2000
  161.3170  207.1710  149.7990 N   0  0  0  0  0  0  0  0  0  0  0  0
  160.7700  206.0880  146.4640 C   0  0  0  0  0  0  0  0  0  0  0  0
  160.8350  202.1920  150.4900 C   0  0  0  0  0  0  0  0  0  0  0  0
  160.9920  207.2900  147.3400 C   0  0  0  0  0  2  0  0  0  0  0  0
  161.0740  202.9080  149.3870 C   0  0  0  0  0  2  0  0  0  0  0  0
  161.3060  204.3560  149.5060 C   0  0  0  0  0  0  0  0  0  0  0  0
  160.5060  206.1730  145.2370 O   0  0  0  0  0  0  0  0  0  0  0  0
  160.6020  200.8610  150.3870 F   0  0  0  0  0  0  0  0  0  0  0  0
  160.7180  202.8530  151.8100 C   0  0  0  0  0  3  0  0  0  0  0  0
  161.6950  204.9230  150.8580 C   0  0  0  0  0  0  0  0  0  0  0  0
  161.1940  205.1820  148.4690 C   0  0  0  0  0  0  0  0  0  0  0  0
  161.2490  206.6100  148.6330 C   0  0  0  0  0  0  0  0  0  0  0  0
  161.4340  206.3770  150.9610 N   0  0  0  0  0  0  0  0  0  0  0  0
  161.0670  204.1340  151.9800 C   0  0  0  0  0  3  0  0  0  0  0  0
  160.8750  204.8290  147.1340 N   0  0  0  0  0  2  0  0  0  0  0  0
  161.6290  207.0560  152.2350 C   0  0  0  0  0  2  0  0  0  0  0  0
  161.4030  208.5210  152.0770 C   0  0  0  0  0  0  0  0  0  0  0  0
  160.5010  210.5180  152.2630 N   0  0  0  0  0  0  0  0  0  0  0  0
  161.6870  210.6490  151.6310 C   0  0  0  0  0  3  0  0  0  0  0  0
  160.3140  209.2160  152.5510 C   0  0  0  0  0  3  0  0  0  0  0  0
  162.2890  209.4100  151.5010 C   0  0  0  0  0  3  0  0  0  0  0  0
  159.7210  212.8380  151.9590 C   0  0  0  0  0  3  0  0  0  0  0  0
  157.8270  213.6770  153.2110 C   0  0  0  0  0  3  0  0  0  0  0  0
  158.5730  211.3950  153.5270 C   0  0  0  0  0  3  0  0  0  0  0  0
  157.6930  212.4360  153.8390 C   0  0  0  0  0  3  0  0  0  0  0  0
  158.8410  213.8780  152.2710 C   0  0  0  0  0  3  0  0  0  0  0  0
  159.5960  211.5870  152.5840 C   0  0  0  0  0  0  0  0  0  0  0  0
  1 13  1  0  0  0  0
  2 15  1  0  0  0  0
  2  4  1  0  0  0  0
  3  9  2  0  0  0  0
  4 12  1  0  0  0  0
  5  6  1  0  0  0  0
  5  3  1  0  0  0  0
  6 10  1  0  0  0  0
  7  2  2  0  0  0  0
  8  3  1  0  0  0  0
  9 14  1  0  0  0  0
 10 13  1  0  0  0  0
 10 14  2  0  0  0  0
 11 12  1  0  0  0  0
 11  6  2  0  0  0  0
 12  1  2  0  0  0  0
 13 16  1  0  0  0  0
 15 11  1  0  0  0  0
 17 16  1  0  0  0  0
 17 20  2  0  0  0  0
 18 20  1  0  0  0  0
 18 27  1  0  0  0  0
 19 18  1  0  0  0  0
 21 19  2  0  0  0  0
 21 17  1  0  0  0  0
 22 26  2  0  0  0  0
 22 27  1  0  0  0  0
 23 25  2  0  0  0  0
 24 25  1  0  0  0  0
 26 23  1  0  0  0  0
 27 24  2  0  0  0  0
M  END
>  <MODEL>
5

>  <REMARK>
 VINA RESULT:      -9.3      3.250      7.620
  Name = 
  3 active torsions:
  status: ('A' for Active; 'I' for Inactive)
    1  A    between atoms: C_13  and  C_17
    2  A    between atoms: C_17  and  N_20
    3  A    between atoms: N_21  and  C_24
                            x       y       z     vdW  Elec       q    Type
                         _______ _______ _______ _____ _____    ______ ____

>  <TORSDO>
F 3

$$$$
=
 OpenBabel11052411163D

 27 31  0  0  1  0  0  0  0  0999 V2000
  161.3230  210.2890  151.7000 N   0  0  0  0  0  0  0  0  0  0  0  0
  159.1780  212.4980  153.4660 C   0  0  0  0  0  0  0  0  0  0  0  0
  160.1310  207.4490  155.7010 C   0  0  0  0  0  0  0  0  0  0  0  0
  160.0480  212.3490  152.2480 C   0  0  0  0  0  2  0  0  0  0  0  0
  159.5590  208.5490  155.2020 C   0  0  0  0  0  3  0  0  0  0  0  0
  160.0440  209.0950  153.9240 C   0  0  0  0  0  0  0  0  0  0  0  0
  158.6210  213.5800  153.7820 O   0  0  0  0  0  0  0  0  0  0  0  0
  159.7020  206.9510  156.8870 F   0  0  0  0  0  0  0  0  0  0  0  0
  161.2950  206.8300  155.0280 C   0  0  0  0  0  3  0  0  0  0  0  0
  160.8510  208.1950  153.0070 C   0  0  1  0  0  3  0  0  0  0  0  0
  159.7940  210.3450  153.5430 C   0  0  0  0  0  0  0  0  0  0  0  0
  160.4190  210.9190  152.3820 C   0  0  0  0  0  0  0  0  0  0  0  0
  161.6600  208.9580  152.0300 N   0  0  0  0  0  0  0  0  0  0  0  0
  161.6690  207.2040  153.7980 C   0  0  0  0  0  3  0  0  0  0  0  0
  159.0340  211.3100  154.2500 N   0  0  0  0  0  2  0  0  0  0  0  0
  162.5930  208.2550  151.1600 C   0  0  0  0  0  2  0  0  0  0  0  0
  161.8750  207.2180  150.3660 C   0  0  0  0  0  0  0  0  0  0  0  0
  161.2020  205.2580  149.6300 N   0  0  0  0  0  0  0  0  0  0  0  0
  160.4560  206.2100  149.0310 C   0  0  0  0  0  3  0  0  0  0  0  0
  162.0750  205.8600  150.4600 C   0  0  0  0  0  3  0  0  0  0  0  0
  160.8470  207.4610  149.4760 C   0  0  0  0  0  3  0  0  0  0  0  0
  160.8310  202.9840  150.5100 C   0  0  0  0  0  3  0  0  0  0  0  0
  160.8410  201.0710  149.0260 C   0  0  0  0  0  3  0  0  0  0  0  0
  161.2060  203.2930  148.1380 C   0  0  0  0  0  3  0  0  0  0  0  0
  161.0870  201.9140  147.9400 C   0  0  0  0  0  3  0  0  0  0  0  0
  160.7120  201.6060  150.3100 C   0  0  0  0  0  3  0  0  0  0  0  0
  161.0800  203.8410  149.4250 C   0  0  0  0  0  0  0  0  0  0  0  0
  1 13  1  0  0  0  0
  1 12  2  0  0  0  0
  2  7  2  0  0  0  0
  2 15  1  0  0  0  0
  3  8  1  0  0  0  0
  4 12  1  0  0  0  0
  4  2  1  0  0  0  0
  5  3  2  0  0  0  0
  6  5  1  0  0  0  0
  9  3  1  0  0  0  0
 10 14  1  1  0  0  0
 10  6  1  0  0  0  0
 11  6  2  0  0  0  0
 11 15  1  0  0  0  0
 12 11  1  0  0  0  0
 13 10  1  0  0  0  0
 14  9  2  0  0  0  0
 16 13  1  0  0  0  0
 17 20  2  0  0  0  0
 17 16  1  0  0  0  0
 18 20  1  0  0  0  0
 19 21  2  0  0  0  0
 19 18  1  0  0  0  0
 21 17  1  0  0  0  0
 23 26  2  0  0  0  0
 24 27  1  0  0  0  0
 25 24  2  0  0  0  0
 25 23  1  0  0  0  0
 26 22  1  0  0  0  0
 27 18  1  0  0  0  0
 27 22  2  0  0  0  0
M  END
>  <MODEL>
6

>  <REMARK>
 VINA RESULT:      -9.0      2.287      3.581
  Name = 
  3 active torsions:
  status: ('A' for Active; 'I' for Inactive)
    1  A    between atoms: C_13  and  C_17
    2  A    between atoms: C_17  and  N_20
    3  A    between atoms: N_21  and  C_24
                            x       y       z     vdW  Elec       q    Type
                         _______ _______ _______ _____ _____    ______ ____

>  <TORSDO>
F 3

$$$$
=
 OpenBabel11052411163D

 27 31  0  0  1  0  0  0  0  0999 V2000
  161.4010  207.9640  152.9290 N   0  0  0  0  0  0  0  0  0  0  0  0
  160.1090  207.5530  156.2080 C   0  0  0  0  0  0  0  0  0  0  0  0
  159.4130  212.5350  153.7410 C   0  0  0  0  0  0  0  0  0  0  0  0
  160.8220  206.8620  155.0780 C   0  0  0  0  0  2  0  0  0  0  0  0
  159.7290  211.5500  154.5870 C   0  0  0  0  0  3  0  0  0  0  0  0
  160.4350  210.3630  154.0790 C   0  0  0  0  0  0  0  0  0  0  0  0
  159.7330  206.9530  157.2480 O   0  0  0  0  0  0  0  0  0  0  0  0
  158.7470  213.6220  154.1990 F   0  0  0  0  0  0  0  0  0  0  0  0
  159.6880  212.4040  152.2920 C   0  0  0  0  0  3  0  0  0  0  0  0
  161.1570  210.4590  152.7480 C   0  0  1  0  0  3  0  0  0  0  0  0
  160.4670  209.2130  154.7470 C   0  0  0  0  0  0  0  0  0  0  0  0
  161.0050  208.0150  154.1610 C   0  0  0  0  0  0  0  0  0  0  0  0
  161.4010  209.1330  152.1360 N   0  0  0  0  0  0  0  0  0  0  0  0
  160.4550  211.4150  151.8150 C   0  0  0  0  0  3  0  0  0  0  0  0
  159.8820  208.9510  156.0110 N   0  0  0  0  0  2  0  0  0  0  0  0
  161.9680  209.0500  150.7970 C   0  0  0  0  0  2  0  0  0  0  0  0
  161.5450  207.7830  150.1370 C   0  0  0  0  0  0  0  0  0  0  0  0
  161.2490  206.2350  148.6030 N   0  0  0  0  0  0  0  0  0  0  0  0
  160.8320  205.7380  149.7860 C   0  0  0  0  0  3  0  0  0  0  0  0
  161.6970  207.4890  148.8010 C   0  0  0  0  0  3  0  0  0  0  0  0
  161.0090  206.6850  150.7800 C   0  0  0  0  0  3  0  0  0  0  0  0
  161.6010  204.1890  147.2710 C   0  0  0  0  0  3  0  0  0  0  0  0
  161.1890  204.1820  144.8860 C   0  0  0  0  0  3  0  0  0  0  0  0
  160.8340  206.2030  146.1710 C   0  0  0  0  0  3  0  0  0  0  0  0
  160.8150  205.5270  144.9470 C   0  0  0  0  0  3  0  0  0  0  0  0
  161.5820  203.5130  146.0480 C   0  0  0  0  0  3  0  0  0  0  0  0
  161.2280  205.5410  147.3450 C   0  0  0  0  0  0  0  0  0  0  0  0
  1 12  2  0  0  0  0
  2  7  2  0  0  0  0
  3  8  1  0  0  0  0
  3  5  2  0  0  0  0
  4  2  1  0  0  0  0
  6  5  1  0  0  0  0
  6 11  2  0  0  0  0
  9  3  1  0  0  0  0
 10 14  1  6  0  0  0
 10  6  1  0  0  0  0
 11 15  1  0  0  0  0
 12 11  1  0  0  0  0
 12  4  1  0  0  0  0
 13 10  1  0  0  0  0
 13  1  1  0  0  0  0
 14  9  2  0  0  0  0
 15  2  1  0  0  0  0
 16 13  1  0  0  0  0
 17 21  1  0  0  0  0
 17 16  1  0  0  0  0
 18 20  1  0  0  0  0
 18 19  1  0  0  0  0
 19 21  2  0  0  0  0
 20 17  2  0  0  0  0
 22 27  1  0  0  0  0
 23 25  2  0  0  0  0
 23 26  1  0  0  0  0
 24 27  2  0  0  0  0
 25 24  1  0  0  0  0
 26 22  2  0  0  0  0
 27 18  1  0  0  0  0
M  END
>  <MODEL>
7

>  <REMARK>
 VINA RESULT:      -9.0      2.684      4.214
  Name = 
  3 active torsions:
  status: ('A' for Active; 'I' for Inactive)
    1  A    between atoms: C_13  and  C_17
    2  A    between atoms: C_17  and  N_20
    3  A    between atoms: N_21  and  C_24
                            x       y       z     vdW  Elec       q    Type
                         _______ _______ _______ _____ _____    ______ ____

>  <TORSDO>
F 3

$$$$
=
 OpenBabel11052411163D

 27 31  0  0  0  0  0  0  0  0999 V2000
  161.7230  207.3560  152.2830 N   0  0  0  0  0  0  0  0  0  0  0  0
  160.8310  203.9210  152.2550 C   0  0  0  0  0  0  0  0  0  0  0  0
  161.2460  206.5440  147.3220 C   0  0  0  0  0  0  0  0  0  0  0  0
  161.2060  205.0810  153.1360 C   0  0  0  0  0  2  0  0  0  0  0  0
  160.8170  205.8390  148.3730 C   0  0  0  0  0  2  0  0  0  0  0  0
  160.9810  206.3940  149.7270 C   0  0  0  0  0  0  0  0  0  0  0  0
  160.6730  202.7520  152.6930 O   0  0  0  0  0  0  0  0  0  0  0  0
  161.1150  206.0300  146.0740 F   0  0  0  0  0  0  0  0  0  0  0  0
  161.9560  207.8290  147.5110 C   0  0  0  0  0  3  0  0  0  0  0  0
  161.2200  207.8850  149.8780 C   0  0  0  0  0  0  0  0  0  0  0  0
  160.9210  205.6380  150.8180 C   0  0  0  0  0  0  0  0  0  0  0  0
  161.2570  206.1580  152.1170 C   0  0  0  0  0  0  0  0  0  0  0  0
  161.8290  208.2340  151.1820 N   0  0  0  0  0  0  0  0  0  0  0  0
  161.9930  208.4350  148.7050 C   0  0  0  0  0  3  0  0  0  0  0  0
  160.6730  204.2430  150.8710 N   0  0  0  0  0  2  0  0  0  0  0  0
  162.2440  209.6060  151.4400 C   0  0  0  0  0  2  0  0  0  0  0  0
  161.4890  210.1620  152.5980 C   0  0  0  0  0  0  0  0  0  0  0  0
  159.8400  210.9560  153.8180 N   0  0  0  0  0  0  0  0  0  0  0  0
  160.9110  210.7820  154.6210 C   0  0  0  0  0  3  0  0  0  0  0  0
  160.1760  210.5730  152.5720 C   0  0  0  0  0  3  0  0  0  0  0  0
  161.9700  210.2770  153.8880 C   0  0  0  0  0  3  0  0  0  0  0  0
  157.9190  212.4680  153.4890 C   0  0  0  0  0  3  0  0  0  0  0  0
  156.0450  212.4320  155.0220 C   0  0  0  0  0  3  0  0  0  0  0  0
  157.9180  210.9370  155.3650 C   0  0  0  0  0  3  0  0  0  0  0  0
  156.6680  211.4240  155.7610 C   0  0  0  0  0  3  0  0  0  0  0  0
  156.6700  212.9530  153.8860 C   0  0  0  0  0  3  0  0  0  0  0  0
  158.5560  211.4550  154.2250 C   0  0  0  0  0  0  0  0  0  0  0  0
  2  7  2  0  0  0  0
  2  4  1  0  0  0  0
  3  9  2  0  0  0  0
  3  5  1  0  0  0  0
  5  6  1  0  0  0  0
  6 10  1  0  0  0  0
  6 11  2  0  0  0  0
  8  3  1  0  0  0  0
  9 14  1  0  0  0  0
 10 13  1  0  0  0  0
 11 15  1  0  0  0  0
 11 12  1  0  0  0  0
 12  1  2  0  0  0  0
 12  4  1  0  0  0  0
 13 16  1  0  0  0  0
 13  1  1  0  0  0  0
 14 10  2  0  0  0  0
 15  2  1  0  0  0  0
 16 17  1  0  0  0  0
 17 21  1  0  0  0  0
 18 27  1  0  0  0  0
 18 19  1  0  0  0  0
 20 17  2  0  0  0  0
 20 18  1  0  0  0  0
 21 19  2  0  0  0  0
 22 26  2  0  0  0  0
 22 27  1  0  0  0  0
 23 25  2  0  0  0  0
 24 25  1  0  0  0  0
 26 23  1  0  0  0  0
 27 24  2  0  0  0  0
M  END
>  <MODEL>
8

>  <REMARK>
 VINA RESULT:      -8.9      3.600      8.243
  Name = 
  3 active torsions:
  status: ('A' for Active; 'I' for Inactive)
    1  A    between atoms: C_13  and  C_17
    2  A    between atoms: C_17  and  N_20
    3  A    between atoms: N_21  and  C_24
                            x       y       z     vdW  Elec       q    Type
                         _______ _______ _______ _____ _____    ______ ____

>  <TORSDO>
F 3

$$$$
=
 OpenBabel11052411163D

 27 31  0  0  0  0  0  0  0  0999 V2000
  161.7840  208.1370  152.1910 N   0  0  0  0  0  0  0  0  0  0  0  0
  161.9830  209.8160  149.0700 C   0  0  0  0  0  0  0  0  0  0  0  0
  161.0240  204.2960  149.0020 C   0  0  0  0  0  0  0  0  0  0  0  0
  162.0320  209.9970  150.5630 C   0  0  0  0  0  2  0  0  0  0  0  0
  161.5270  205.5180  148.8020 C   0  0  0  0  0  2  0  0  0  0  0  0
  161.7650  206.3960  149.9600 C   0  0  0  0  0  0  0  0  0  0  0  0
  162.0070  210.7800  148.2630 O   0  0  0  0  0  0  0  0  0  0  0  0
  160.7850  203.4900  147.9390 F   0  0  0  0  0  0  0  0  0  0  0  0
  160.6280  203.8530  150.3570 C   0  0  0  0  0  3  0  0  0  0  0  0
  161.8510  205.7730  151.3410 C   0  0  0  0  0  0  0  0  0  0  0  0
  161.9140  207.7120  149.8370 C   0  0  0  0  0  0  0  0  0  0  0  0
  161.9680  208.5760  150.9860 C   0  0  0  0  0  0  0  0  0  0  0  0
  161.6130  206.7550  152.4230 N   0  0  0  0  0  0  0  0  0  0  0  0
  160.9630  204.5580  151.4460 C   0  0  0  0  0  3  0  0  0  0  0  0
  161.8980  208.4570  148.6320 N   0  0  0  0  0  2  0  0  0  0  0  0
  161.5300  206.3000  153.8040 C   0  0  0  0  0  2  0  0  0  0  0  0
  160.8890  207.3440  154.6530 C   0  0  0  0  0  0  0  0  0  0  0  0
  160.1570  209.2970  155.3480 N   0  0  0  0  0  0  0  0  0  0  0  0
  159.7050  208.3530  156.1990 C   0  0  0  0  0  3  0  0  0  0  0  0
  160.8820  208.6940  154.3870 C   0  0  0  0  0  3  0  0  0  0  0  0
  160.1410  207.1050  155.7890 C   0  0  0  0  0  3  0  0  0  0  0  0
  160.4570  211.4630  156.4910 C   0  0  0  0  0  3  0  0  0  0  0  0
  159.4010  213.4660  155.6350 C   0  0  0  0  0  3  0  0  0  0  0  0
  159.0930  211.3530  154.4940 C   0  0  0  0  0  3  0  0  0  0  0  0
  158.8440  212.7250  154.5890 C   0  0  0  0  0  3  0  0  0  0  0  0
  160.2070  212.8350  156.5850 C   0  0  0  0  0  3  0  0  0  0  0  0
  159.9010  210.7080  155.4450 C   0  0  0  0  0  0  0  0  0  0  0  0
  1 13  1  0  0  0  0
  2  4  1  0  0  0  0
  3  9  2  0  0  0  0
  4 12  1  0  0  0  0
  5  3  1  0  0  0  0
  5  6  1  0  0  0  0
  6 10  1  0  0  0  0
  7  2  2  0  0  0  0
  8  3  1  0  0  0  0
  9 14  1  0  0  0  0
 10 14  2  0  0  0  0
 10 13  1  0  0  0  0
 11  6  2  0  0  0  0
 11 12  1  0  0  0  0
 12  1  2  0  0  0  0
 13 16  1  0  0  0  0
 15  2  1  0  0  0  0
 15 11  1  0  0  0  0
 16 17  1  0  0  0  0
 17 21  1  0  0  0  0
 18 27  1  0  0  0  0
 18 19  1  0  0  0  0
 20 17  2  0  0  0  0
 20 18  1  0  0  0  0
 21 19  2  0  0  0  0
 22 26  1  0  0  0  0
 23 26  2  0  0  0  0
 24 25  2  0  0  0  0
 24 27  1  0  0  0  0
 25 23  1  0  0  0  0
 27 22  2  0  0  0  0
M  END
>  <MODEL>
9

>  <REMARK>
 VINA RESULT:      -8.8      2.838      7.517
  Name = 
  3 active torsions:
  status: ('A' for Active; 'I' for Inactive)
    1  A    between atoms: C_13  and  C_17
    2  A    between atoms: C_17  and  N_20
    3  A    between atoms: N_21  and  C_24
                            x       y       z     vdW  Elec       q    Type
                         _______ _______ _______ _____ _____    ______ ____

>  <TORSDO>
F 3

$$$$
