=
 OpenBabel11042421273D

 53 60  0  0  1  0  0  0  0  0999 V2000
  161.8670  205.0870  146.6160 C   0  0  0  0  0  0  0  0  0  0  0  0
  161.1890  205.2950  149.5350 C   0  0  0  0  0  0  0  0  0  0  0  0
  161.5260  203.9910  147.3610 C   0  0  0  0  0  0  0  0  0  0  0  0
  161.6370  206.4020  148.7210 C   0  0  0  0  0  0  0  0  0  0  0  0
  161.2170  202.8880  148.2090 C   0  0  0  0  0  2  0  0  0  0  0  0
  161.9660  206.2400  147.3760 N   0  0  0  0  0  0  0  0  0  0  0  0
  161.2100  204.1510  148.7650 C   0  0  0  0  0  0  0  0  0  0  0  0
  160.7380  204.4200  144.5810 N   0  0  0  0  0  0  0  0  0  0  0  0
  161.6230  205.7110  143.0820 N   0  0  0  0  0  0  0  0  0  0  0  0
  162.2720  206.0170  144.2740 C   0  0  0  0  0  3  0  0  0  0  0  0
  161.6790  205.1900  145.1950 C   0  0  0  0  0  0  0  0  0  0  0  0
  160.7560  204.8010  143.3180 N   0  0  0  0  0  0  0  0  0  0  0  0
  161.4390  206.6920  142.1200 N   0  0  0  0  0  2  0  0  0  0  0  0
  162.3740  206.8190  140.6770 S   0  0  0  0  0  0  0  0  0  0  0  0
  163.4820  207.8410  140.8110 O   0  0  0  0  0  0  0  0  0  0  0  0
  162.9090  205.4540  140.3250 O   0  0  0  0  0  0  0  0  0  0  0  0
  161.6400  209.2020  138.7490 N   0  0  0  0  0  0  0  0  0  0  0  0
  161.1770  207.3860  139.4340 C   0  0  2  0  0  3  0  0  0  0  0  0
  162.3610  207.3260  137.2210 O   0  0  0  0  0  0  0  0  0  0  0  0
  161.9060  207.8440  138.2270 C   0  0  0  0  0  0  0  0  0  0  0  0
  160.7530  208.6710  139.6310 O   0  0  0  0  0  0  0  0  0  0  0  0
  162.3240  211.2870  137.2870 S   0  0  0  0  0  0  0  0  0  0  0  0
  162.4200  210.4020  138.6530 C   0  0  0  0  0  0  0  0  0  0  0  0
  163.1270  210.9330  139.8540 C   0  0  0  0  0  2  0  0  0  0  0  0
  162.3450  212.0600  140.5330 C   0  0  0  0  0  2  0  0  0  0  0  0
  162.2670  212.9020  142.7200 C   0  0  0  0  0  1  0  0  0  0  0  0
  160.5430  211.5520  141.9710 C   0  0  0  0  0  1  0  0  0  0  0  0
  161.9900  211.7260  141.9140 N   0  0  0  0  0  0  0  0  0  0  0  0
  161.3390  207.7810  149.1100 C   0  0  2  0  0  3  0  0  0  0  0  0
  161.5530  208.5840  147.9120 C   0  0  0  0  0  2  0  0  0  0  0  0
  162.4830  208.6670  149.0510 N   0  0  0  0  0  2  0  0  0  0  0  0
  160.6250  205.2470  150.9530 C   0  0  0  0  0  2  0  0  0  0  0  0
  161.6700  205.4860  152.0490 C   0  0  0  0  0  2  0  0  0  0  0  0
  161.4670  206.6860  152.9790 C   0  0  2  0  0  3  0  0  0  0  0  0
  161.2290  209.1660  152.7990 C   0  0  0  0  0  2  0  0  0  0  0  0
  160.8770  206.3770  154.3470 C   0  0  0  0  0  2  0  0  0  0  0  0
  160.4970  208.7130  155.2810 C   0  0  0  0  0  2  0  0  0  0  0  0
  161.4350  207.4970  155.2430 C   0  0  0  0  0  2  0  0  0  0  0  0
  160.6140  209.6830  154.0810 C   0  0  2  0  0  3  0  0  0  0  0  0
  160.7520  207.8320  152.2350 C   0  0  0  0  0  2  0  0  0  0  0  0
  157.2570  212.9100  156.2860 N   0  0  0  0  0  1  0  0  0  0  0  0
  157.7510  212.0490  152.6070 C   0  0  0  0  0  2  0  0  0  0  0  0
  157.0700  212.2800  153.9860 C   0  0  0  0  0  2  0  0  0  0  0  0
  159.4190  210.6800  153.9560 C   0  0  2  0  0  3  0  0  0  0  0  0
  159.1820  211.4910  152.6520 C   0  0  2  0  0  3  0  0  0  0  0  0
  158.0390  212.5870  155.0830 C   0  0  2  0  0  3  0  0  0  0  0  0
  159.0760  211.4050  155.2840 C   0  0  0  0  0  2  0  0  0  0  0  0
  160.3860  214.4460  150.4170 S   0  0  0  0  0  0  0  0  0  0  0  0
  160.5490  212.8040  151.0700 C   0  0  0  0  0  0  0  0  0  0  0  0
  160.4810  213.7070  148.7690 C   0  0  0  0  0  2  0  0  0  0  0  0
  160.1630  212.5500  152.4150 N   0  0  0  0  0  2  0  0  0  0  0  0
  161.1350  212.3360  148.8930 C   0  0  0  0  0  2  0  0  0  0  0  0
  160.8710  211.8570  150.2460 N   0  0  0  0  0  0  0  0  0  0  0  0
  1  3  2  0  0  0  0
  1  6  1  0  0  0  0
  2 32  1  0  0  0  0
  3  5  1  0  0  0  0
  3  7  1  0  0  0  0
  4  2  1  0  0  0  0
  5  7  1  0  0  0  0
  6  4  2  0  0  0  0
  7  2  2  0  0  0  0
  8 11  1  0  0  0  0
  9 12  1  0  0  0  0
  9 10  1  0  0  0  0
 10 11  2  0  0  0  0
 11  1  1  0  0  0  0
 12  8  2  0  0  0  0
 13  9  1  0  0  0  0
 14 15  2  0  0  0  0
 14 13  1  0  0  0  0
 16 14  2  0  0  0  0
 17 21  1  0  0  0  0
 18 21  1  0  0  0  0
 18 14  1  1  0  0  0
 19 20  2  0  0  0  0
 20 17  1  0  0  0  0
 20 18  1  0  0  0  0
 22 23  2  0  0  0  0
 23 17  1  0  0  0  0
 23 24  1  0  0  0  0
 24 25  1  0  0  0  0
 25 28  1  0  0  0  0
 28 27  1  0  0  0  0
 28 26  1  0  0  0  0
 29  4  1  6  0  0  0
 30 31  1  0  0  0  0
 30 29  1  0  0  0  0
 31 29  1  0  0  0  0
 32 33  1  0  0  0  0
 34 33  1  6  0  0  0
 34 36  1  0  0  0  0
 36 38  1  0  0  0  0
 38 37  1  0  0  0  0
 39 35  1  6  0  0  0
 39 37  1  0  0  0  0
 40 35  1  0  0  0  0
 40 34  1  0  0  0  0
 42 45  1  0  0  0  0
 42 43  1  0  0  0  0
 43 46  1  0  0  0  0
 44 39  1  0  0  0  0
 44 47  1  1  0  0  0
 45 51  1  1  0  0  0
 45 44  1  0  0  0  0
 46 47  1  0  0  0  0
 46 41  1  1  0  0  0
 48 49  1  0  0  0  0
 49 51  1  0  0  0  0
 50 52  1  0  0  0  0
 50 48  1  0  0  0  0
 52 53  1  0  0  0  0
 53 49  2  0  0  0  0
M  END
>  <MODEL>
1

>  <REMARK>
 VINA RESULT:      -5.7      0.000      0.000
  Name = 
  14 active torsions:
  status: ('A' for Active; 'I' for Inactive)
    1  A    between atoms: C_3  and  C_35
    2  A    between atoms: C_4  and  C_24
    3  A    between atoms: C_5  and  C_24
    4  A    between atoms: C_5  and  C_26
    5  A    between atoms: N_6  and  N_10
    6  A    between atoms: S_9  and  N_10
    7  A    between atoms: S_9  and  C_31
    8  A    between atoms: C_13  and  C_28
    9  A    between atoms: C_17  and  C_51
   10  A    between atoms: N_19  and  C_30
   11  A    between atoms: N_27  and  C_33
   12  A    between atoms: C_33  and  C_40
   13  A    between atoms: C_40  and  C_47
   14  A    between atoms: N_46  and  C_47
                            x       y       z     vdW  Elec       q    Type
                         _______ _______ _______ _____ _____    ______ ____

>  <TORSDO>
F 14

$$$$
=
 OpenBabel11042421273D

 53 60  0  0  1  0  0  0  0  0999 V2000
  161.0570  205.6030  146.7260 C   0  0  0  0  0  0  0  0  0  0  0  0
  161.5240  205.3380  149.6820 C   0  0  0  0  0  0  0  0  0  0  0  0
  161.3250  206.6860  147.5180 C   0  0  0  0  0  0  0  0  0  0  0  0
  161.1550  204.2440  148.8130 C   0  0  0  0  0  0  0  0  0  0  0  0
  161.5530  207.7740  148.4100 C   0  0  0  0  0  2  0  0  0  0  0  0
  160.9220  204.4310  147.4520 N   0  0  0  0  0  0  0  0  0  0  0  0
  161.5400  206.4990  148.9380 C   0  0  0  0  0  0  0  0  0  0  0  0
  161.4660  204.3230  144.7120 N   0  0  0  0  0  0  0  0  0  0  0  0
  161.6830  205.8530  143.1930 N   0  0  0  0  0  0  0  0  0  0  0  0
  161.4930  206.5350  144.3910 C   0  0  0  0  0  3  0  0  0  0  0  0
  161.3500  205.5360  145.3210 C   0  0  0  0  0  0  0  0  0  0  0  0
  161.6510  204.5970  143.4350 N   0  0  0  0  0  0  0  0  0  0  0  0
  161.2290  206.3990  142.0030 N   0  0  0  0  0  2  0  0  0  0  0  0
  162.2520  206.8260  140.6820 S   0  0  0  0  0  0  0  0  0  0  0  0
  163.2980  207.8420  141.0840 O   0  0  0  0  0  0  0  0  0  0  0  0
  162.8740  205.5700  140.1260 O   0  0  0  0  0  0  0  0  0  0  0  0
  161.5780  209.4810  139.1230 N   0  0  0  0  0  0  0  0  0  0  0  0
  161.1140  207.5730  139.4780 C   0  0  2  0  0  3  0  0  0  0  0  0
  162.4220  207.8860  137.3580 O   0  0  0  0  0  0  0  0  0  0  0  0
  161.9000  208.2290  138.4060 C   0  0  0  0  0  0  0  0  0  0  0  0
  160.6540  208.8040  139.8550 O   0  0  0  0  0  0  0  0  0  0  0  0
  162.9240  211.4060  137.9260 S   0  0  0  0  0  0  0  0  0  0  0  0
  162.3370  210.6900  139.2680 C   0  0  0  0  0  0  0  0  0  0  0  0
  162.3990  211.3810  140.5880 C   0  0  0  0  0  2  0  0  0  0  0  0
  161.0970  212.1140  140.9170 C   0  0  0  0  0  2  0  0  0  0  0  0
  161.2890  212.3970  143.2370 C   0  0  0  0  0  1  0  0  0  0  0  0
  162.6230  213.6630  141.8330 C   0  0  0  0  0  1  0  0  0  0  0  0
  161.2810  213.1120  141.9720 N   0  0  0  0  0  0  0  0  0  0  0  0
  161.4460  202.8610  149.1930 C   0  0  2  0  0  3  0  0  0  0  0  0
  160.4660  202.0430  148.4890 C   0  0  0  0  0  2  0  0  0  0  0  0
  160.3870  202.2250  149.9480 N   0  0  0  0  0  2  0  0  0  0  0  0
  161.9820  205.3620  151.1390 C   0  0  0  0  0  2  0  0  0  0  0  0
  160.8810  205.7480  152.1330 C   0  0  0  0  0  2  0  0  0  0  0  0
  161.0960  207.0040  152.9830 C   0  0  2  0  0  3  0  0  0  0  0  0
  161.5660  209.4330  152.6350 C   0  0  0  0  0  2  0  0  0  0  0  0
  160.5410  206.9550  154.3990 C   0  0  0  0  0  2  0  0  0  0  0  0
  160.9130  209.3480  155.1790 C   0  0  0  0  0  2  0  0  0  0  0  0
  161.4590  207.9120  155.1790 C   0  0  0  0  0  2  0  0  0  0  0  0
  161.2180  210.1760  153.9060 C   0  0  2  0  0  3  0  0  0  0  0  0
  160.6880  208.2660  152.1950 C   0  0  0  0  0  2  0  0  0  0  0  0
  158.0840  213.1670  151.1170 N   0  0  0  0  0  1  0  0  0  0  0  0
  159.2920  213.5840  154.7070 C   0  0  0  0  0  2  0  0  0  0  0  0
  158.9750  213.8920  153.2170 C   0  0  0  0  0  2  0  0  0  0  0  0
  160.3520  211.4680  153.7720 C   0  0  2  0  0  3  0  0  0  0  0  0
  159.7130  212.1390  155.0190 C   0  0  2  0  0  3  0  0  0  0  0  0
  158.4650  212.7050  152.4620 C   0  0  2  0  0  3  0  0  0  0  0  0
  159.5200  211.5220  152.4630 C   0  0  0  0  0  2  0  0  0  0  0  0
  155.8660  211.7640  155.5090 S   0  0  0  0  0  0  0  0  0  0  0  0
  157.4960  212.1280  156.1070 C   0  0  0  0  0  0  0  0  0  0  0  0
  155.3680  213.3860  156.1340 C   0  0  0  0  0  2  0  0  0  0  0  0
  158.6020  211.3880  155.6040 N   0  0  0  0  0  2  0  0  0  0  0  0
  156.3800  213.8280  157.1850 C   0  0  0  0  0  2  0  0  0  0  0  0
  157.6410  213.1650  156.8710 N   0  0  0  0  0  0  0  0  0  0  0  0
  1  6  2  0  0  0  0
  1  3  1  0  0  0  0
  2 32  1  0  0  0  0
  3  5  1  0  0  0  0
  3  7  2  0  0  0  0
  4  2  2  0  0  0  0
  5  7  1  0  0  0  0
  6  4  1  0  0  0  0
  7  2  1  0  0  0  0
  8 11  1  0  0  0  0
  9 12  1  0  0  0  0
  9 10  1  0  0  0  0
 10 11  2  0  0  0  0
 11  1  1  0  0  0  0
 12  8  2  0  0  0  0
 13  9  1  0  0  0  0
 14 15  2  0  0  0  0
 14 13  1  0  0  0  0
 16 14  2  0  0  0  0
 17 23  1  0  0  0  0
 17 21  1  0  0  0  0
 18 21  1  0  0  0  0
 18 14  1  1  0  0  0
 19 20  2  0  0  0  0
 20 17  1  0  0  0  0
 20 18  1  0  0  0  0
 22 23  2  0  0  0  0
 23 24  1  0  0  0  0
 24 25  1  0  0  0  0
 25 28  1  0  0  0  0
 27 28  1  0  0  0  0
 28 26  1  0  0  0  0
 29  4  1  6  0  0  0
 29 31  1  0  0  0  0
 30 29  1  0  0  0  0
 30 31  1  0  0  0  0
 32 33  1  0  0  0  0
 34 33  1  6  0  0  0
 34 36  1  0  0  0  0
 36 38  1  0  0  0  0
 38 37  1  0  0  0  0
 39 35  1  6  0  0  0
 39 37  1  0  0  0  0
 40 35  1  0  0  0  0
 40 34  1  0  0  0  0
 42 45  1  0  0  0  0
 43 42  1  0  0  0  0
 44 47  1  6  0  0  0
 44 39  1  0  0  0  0
 44 45  1  0  0  0  0
 45 51  1  6  0  0  0
 46 41  1  6  0  0  0
 46 47  1  0  0  0  0
 46 43  1  0  0  0  0
 48 49  1  0  0  0  0
 48 50  1  0  0  0  0
 49 53  2  0  0  0  0
 50 52  1  0  0  0  0
 51 49  1  0  0  0  0
 53 52  1  0  0  0  0
M  END
>  <MODEL>
2

>  <REMARK>
 VINA RESULT:      -4.5      1.791      3.330
  Name = 
  14 active torsions:
  status: ('A' for Active; 'I' for Inactive)
    1  A    between atoms: C_3  and  C_35
    2  A    between atoms: C_4  and  C_24
    3  A    between atoms: C_5  and  C_24
    4  A    between atoms: C_5  and  C_26
    5  A    between atoms: N_6  and  N_10
    6  A    between atoms: S_9  and  N_10
    7  A    between atoms: S_9  and  C_31
    8  A    between atoms: C_13  and  C_28
    9  A    between atoms: C_17  and  C_51
   10  A    between atoms: N_19  and  C_30
   11  A    between atoms: N_27  and  C_33
   12  A    between atoms: C_33  and  C_40
   13  A    between atoms: C_40  and  C_47
   14  A    between atoms: N_46  and  C_47
                            x       y       z     vdW  Elec       q    Type
                         _______ _______ _______ _____ _____    ______ ____

>  <TORSDO>
F 14

$$$$
=
 OpenBabel11042421273D

 53 60  0  0  1  0  0  0  0  0999 V2000
  161.4160  211.3680  148.4820 C   0  0  0  0  0  0  0  0  0  0  0  0
  162.0570  208.9060  150.0790 C   0  0  0  0  0  0  0  0  0  0  0  0
  161.5160  211.3950  149.8460 C   0  0  0  0  0  0  0  0  0  0  0  0
  161.8550  208.9210  148.6480 C   0  0  0  0  0  0  0  0  0  0  0  0
  161.5810  211.3370  151.2690 C   0  0  0  0  0  2  0  0  0  0  0  0
  161.5310  210.0900  147.9630 N   0  0  0  0  0  0  0  0  0  0  0  0
  161.8260  210.1760  150.5640 C   0  0  0  0  0  0  0  0  0  0  0  0
  162.7910  213.2340  147.7810 N   0  0  0  0  0  0  0  0  0  0  0  0
  161.6930  214.0490  146.1000 N   0  0  0  0  0  0  0  0  0  0  0  0
  160.9210  212.9950  146.5790 C   0  0  0  0  0  3  0  0  0  0  0  0
  161.6520  212.5020  147.6310 C   0  0  0  0  0  0  0  0  0  0  0  0
  162.7480  214.1340  146.8180 N   0  0  0  0  0  0  0  0  0  0  0  0
  161.6770  214.3650  144.7510 N   0  0  0  0  0  2  0  0  0  0  0  0
  161.3920  213.2200  143.4930 S   0  0  0  0  0  0  0  0  0  0  0  0
  162.6290  212.4080  143.1790 O   0  0  0  0  0  0  0  0  0  0  0  0
  160.2310  212.3440  143.8900 O   0  0  0  0  0  0  0  0  0  0  0  0
  160.9200  213.1770  140.3770 N   0  0  0  0  0  0  0  0  0  0  0  0
  160.9650  214.2500  142.0590 C   0  0  2  0  0  3  0  0  0  0  0  0
  158.6390  213.5960  141.3760 O   0  0  0  0  0  0  0  0  0  0  0  0
  159.8570  213.6100  141.3100 C   0  0  0  0  0  0  0  0  0  0  0  0
  161.7770  214.0440  140.9780 O   0  0  0  0  0  0  0  0  0  0  0  0
  161.2710  210.5640  140.3420 S   0  0  0  0  0  0  0  0  0  0  0  0
  161.0300  211.9870  139.5830 C   0  0  0  0  0  0  0  0  0  0  0  0
  160.7170  212.0280  138.1260 C   0  0  0  0  0  2  0  0  0  0  0  0
  159.2370  211.7560  137.8460 C   0  0  0  0  0  2  0  0  0  0  0  0
  157.2700  211.1850  138.9870 C   0  0  0  0  0  1  0  0  0  0  0  0
  158.6280  209.4990  138.1690 C   0  0  0  0  0  1  0  0  0  0  0  0
  158.6620  210.8110  138.8040 N   0  0  0  0  0  0  0  0  0  0  0  0
  162.4120  207.8600  147.8070 C   0  0  2  0  0  3  0  0  0  0  0  0
  161.2710  207.0660  147.3660 C   0  0  0  0  0  2  0  0  0  0  0  0
  162.2300  206.5280  148.3470 N   0  0  0  0  0  2  0  0  0  0  0  0
  162.5690  207.8150  151.0170 C   0  0  0  0  0  2  0  0  0  0  0  0
  161.4650  207.1010  151.8060 C   0  0  0  0  0  2  0  0  0  0  0  0
  161.2160  207.5510  153.2490 C   0  0  2  0  0  3  0  0  0  0  0  0
  161.6130  209.5680  154.6680 C   0  0  0  0  0  2  0  0  0  0  0  0
  160.1260  206.8030  154.0010 C   0  0  0  0  0  2  0  0  0  0  0  0
  159.9660  208.1560  156.1510 C   0  0  0  0  0  2  0  0  0  0  0  0
  160.5620  206.9130  155.4730 C   0  0  0  0  0  2  0  0  0  0  0  0
  160.7140  209.4840  155.8820 C   0  0  2  0  0  3  0  0  0  0  0  0
  161.0850  209.0860  153.3220 C   0  0  0  0  0  2  0  0  0  0  0  0
  160.5740  214.4530  157.2390 N   0  0  0  0  0  1  0  0  0  0  0  0
  157.7100  212.0330  156.5550 C   0  0  0  0  0  2  0  0  0  0  0  0
  158.6090  213.0880  157.2610 C   0  0  0  0  0  2  0  0  0  0  0  0
  159.8930  210.7570  156.2600 C   0  0  2  0  0  3  0  0  0  0  0  0
  158.4500  210.9700  155.7260 C   0  0  2  0  0  3  0  0  0  0  0  0
  159.8930  213.3520  156.5400 C   0  0  2  0  0  3  0  0  0  0  0  0
  160.7630  212.0340  156.4080 C   0  0  0  0  0  2  0  0  0  0  0  0
  157.8960  213.6370  152.9400 S   0  0  0  0  0  0  0  0  0  0  0  0
  157.3920  212.2150  153.8740 C   0  0  0  0  0  0  0  0  0  0  0  0
  156.3140  214.3870  153.3940 C   0  0  0  0  0  2  0  0  0  0  0  0
  158.3750  211.2780  154.2980 N   0  0  0  0  0  2  0  0  0  0  0  0
  155.3500  213.2750  153.7930 C   0  0  0  0  0  2  0  0  0  0  0  0
  156.1600  212.1590  154.2710 N   0  0  0  0  0  0  0  0  0  0  0  0
  1  3  1  0  0  0  0
  2  7  1  0  0  0  0
  2 32  1  0  0  0  0
  3  7  2  0  0  0  0
  3  5  1  0  0  0  0
  4  2  2  0  0  0  0
  6  1  2  0  0  0  0
  6  4  1  0  0  0  0
  7  5  1  0  0  0  0
  9 10  1  0  0  0  0
  9 12  1  0  0  0  0
 10 11  2  0  0  0  0
 11  8  1  0  0  0  0
 11  1  1  0  0  0  0
 12  8  2  0  0  0  0
 13  9  1  0  0  0  0
 14 16  2  0  0  0  0
 14 13  1  0  0  0  0
 15 14  2  0  0  0  0
 17 21  1  0  0  0  0
 17 20  1  0  0  0  0
 18 14  1  1  0  0  0
 20 19  2  0  0  0  0
 20 18  1  0  0  0  0
 21 18  1  0  0  0  0
 23 22  2  0  0  0  0
 23 17  1  0  0  0  0
 24 23  1  0  0  0  0
 25 24  1  0  0  0  0
 25 28  1  0  0  0  0
 27 28  1  0  0  0  0
 28 26  1  0  0  0  0
 29 31  1  0  0  0  0
 29  4  1  1  0  0  0
 30 29  1  0  0  0  0
 30 31  1  0  0  0  0
 32 33  1  0  0  0  0
 34 33  1  6  0  0  0
 34 40  1  0  0  0  0
 34 36  1  0  0  0  0
 36 38  1  0  0  0  0
 38 37  1  0  0  0  0
 39 35  1  6  0  0  0
 39 37  1  0  0  0  0
 39 44  1  0  0  0  0
 40 35  1  0  0  0  0
 42 43  1  0  0  0  0
 44 47  1  6  0  0  0
 45 51  1  6  0  0  0
 45 44  1  0  0  0  0
 45 42  1  0  0  0  0
 46 41  1  1  0  0  0
 46 43  1  0  0  0  0
 47 46  1  0  0  0  0
 48 50  1  0  0  0  0
 48 49  1  0  0  0  0
 49 53  2  0  0  0  0
 49 51  1  0  0  0  0
 50 52  1  0  0  0  0
 52 53  1  0  0  0  0
M  END
>  <MODEL>
3

>  <REMARK>
 VINA RESULT:      -4.3      3.178      5.312
  Name = 
  14 active torsions:
  status: ('A' for Active; 'I' for Inactive)
    1  A    between atoms: C_3  and  C_35
    2  A    between atoms: C_4  and  C_24
    3  A    between atoms: C_5  and  C_24
    4  A    between atoms: C_5  and  C_26
    5  A    between atoms: N_6  and  N_10
    6  A    between atoms: S_9  and  N_10
    7  A    between atoms: S_9  and  C_31
    8  A    between atoms: C_13  and  C_28
    9  A    between atoms: C_17  and  C_51
   10  A    between atoms: N_19  and  C_30
   11  A    between atoms: N_27  and  C_33
   12  A    between atoms: C_33  and  C_40
   13  A    between atoms: C_40  and  C_47
   14  A    between atoms: N_46  and  C_47
                            x       y       z     vdW  Elec       q    Type
                         _______ _______ _______ _____ _____    ______ ____

>  <TORSDO>
F 14

$$$$
=
 OpenBabel11042421273D

 53 60  0  0  1  0  0  0  0  0999 V2000
  161.0600  205.7390  146.7380 C   0  0  0  0  0  0  0  0  0  0  0  0
  161.6600  205.5310  149.6740 C   0  0  0  0  0  0  0  0  0  0  0  0
  161.4820  206.8160  147.4700 C   0  0  0  0  0  0  0  0  0  0  0  0
  161.1310  204.4520  148.8710 C   0  0  0  0  0  0  0  0  0  0  0  0
  161.8710  207.9040  148.3040 C   0  0  0  0  0  2  0  0  0  0  0  0
  160.8440  204.6150  147.5180 N   0  0  0  0  0  0  0  0  0  0  0  0
  161.7550  206.6570  148.8840 C   0  0  0  0  0  0  0  0  0  0  0  0
  161.0460  204.3850  144.7310 N   0  0  0  0  0  0  0  0  0  0  0  0
  161.5780  205.8020  143.1790 N   0  0  0  0  0  0  0  0  0  0  0  0
  161.6160  206.5170  144.3720 C   0  0  0  0  0  3  0  0  0  0  0  0
  161.2660  205.5910  145.3240 C   0  0  0  0  0  0  0  0  0  0  0  0
  161.2400  204.5960  143.4430 N   0  0  0  0  0  0  0  0  0  0  0  0
  161.2250  206.4370  141.9990 N   0  0  0  0  0  2  0  0  0  0  0  0
  162.3220  206.7580  140.7090 S   0  0  0  0  0  0  0  0  0  0  0  0
  163.2690  207.8900  141.0410 O   0  0  0  0  0  0  0  0  0  0  0  0
  163.0620  205.4880  140.3740 O   0  0  0  0  0  0  0  0  0  0  0  0
  161.3640  209.2200  138.9880 N   0  0  0  0  0  0  0  0  0  0  0  0
  161.2410  207.2590  139.3360 C   0  0  2  0  0  3  0  0  0  0  0  0
  162.7480  207.8190  137.4080 O   0  0  0  0  0  0  0  0  0  0  0  0
  162.0260  208.0550  138.3620 C   0  0  0  0  0  0  0  0  0  0  0  0
  160.4980  208.3740  139.6060 O   0  0  0  0  0  0  0  0  0  0  0  0
  161.1740  211.4420  140.3940 S   0  0  0  0  0  0  0  0  0  0  0  0
  161.8410  210.5560  139.1980 C   0  0  0  0  0  0  0  0  0  0  0  0
  163.0580  211.0370  138.4840 C   0  0  0  0  0  2  0  0  0  0  0  0
  162.7730  212.2710  137.6240 C   0  0  0  0  0  2  0  0  0  0  0  0
  164.5780  213.0150  138.9230 C   0  0  0  0  0  1  0  0  0  0  0  0
  164.0060  214.1880  137.0120 C   0  0  0  0  0  1  0  0  0  0  0  0
  163.4370  213.4670  138.1440 N   0  0  0  0  0  0  0  0  0  0  0  0
  161.2970  203.0600  149.2920 C   0  0  2  0  0  3  0  0  0  0  0  0
  161.0500  202.2560  148.1020 C   0  0  0  0  0  2  0  0  0  0  0  0
  160.0830  202.2750  149.2130 N   0  0  0  0  0  2  0  0  0  0  0  0
  162.1970  205.5580  151.1040 C   0  0  0  0  0  2  0  0  0  0  0  0
  161.1390  205.8860  152.1630 C   0  0  0  0  0  2  0  0  0  0  0  0
  161.1720  207.2800  152.7960 C   0  0  2  0  0  3  0  0  0  0  0  0
  161.1370  209.6660  152.0550 C   0  0  0  0  0  2  0  0  0  0  0  0
  160.7460  207.3610  154.2540 C   0  0  0  0  0  2  0  0  0  0  0  0
  160.7080  209.8760  154.6390 C   0  0  0  0  0  2  0  0  0  0  0  0
  161.5190  208.5800  154.7890 C   0  0  0  0  0  2  0  0  0  0  0  0
  160.7500  210.5290  153.2360 C   0  0  2  0  0  3  0  0  0  0  0  0
  160.4700  208.3060  151.8830 C   0  0  0  0  0  2  0  0  0  0  0  0
  157.8130  214.3500  155.0590 N   0  0  0  0  0  1  0  0  0  0  0  0
  158.0370  212.9190  151.5340 C   0  0  0  0  0  2  0  0  0  0  0  0
  157.4520  213.4120  152.8880 C   0  0  0  0  0  2  0  0  0  0  0  0
  159.6440  211.6070  153.0090 C   0  0  2  0  0  3  0  0  0  0  0  0
  159.4130  212.2380  151.6080 C   0  0  2  0  0  3  0  0  0  0  0  0
  158.5000  213.7810  153.8890 C   0  0  2  0  0  3  0  0  0  0  0  0
  159.4360  212.5470  154.2250 C   0  0  0  0  0  2  0  0  0  0  0  0
  160.9250  214.4530  148.7820 S   0  0  0  0  0  0  0  0  0  0  0  0
  160.9460  213.0310  149.8430 C   0  0  0  0  0  0  0  0  0  0  0  0
  161.0650  213.3090  147.3890 C   0  0  0  0  0  2  0  0  0  0  0  0
  160.4700  213.1520  151.1780 N   0  0  0  0  0  2  0  0  0  0  0  0
  161.6220  211.9880  147.9050 C   0  0  0  0  0  2  0  0  0  0  0  0
  161.2530  211.8880  149.3130 N   0  0  0  0  0  0  0  0  0  0  0  0
  1  3  2  0  0  0  0
  1  6  1  0  0  0  0
  2 32  1  0  0  0  0
  3  5  1  0  0  0  0
  3  7  1  0  0  0  0
  4  2  1  0  0  0  0
  5  7  1  0  0  0  0
  6  4  2  0  0  0  0
  7  2  2  0  0  0  0
  8 11  1  0  0  0  0
  9 12  1  0  0  0  0
  9 10  1  0  0  0  0
 10 11  2  0  0  0  0
 11  1  1  0  0  0  0
 12  8  2  0  0  0  0
 13  9  1  0  0  0  0
 14 15  2  0  0  0  0
 14 13  1  0  0  0  0
 16 14  2  0  0  0  0
 17 23  1  0  0  0  0
 17 21  1  0  0  0  0
 18 21  1  0  0  0  0
 18 14  1  1  0  0  0
 19 20  2  0  0  0  0
 20 17  1  0  0  0  0
 20 18  1  0  0  0  0
 23 22  2  0  0  0  0
 24 23  1  0  0  0  0
 25 28  1  0  0  0  0
 25 24  1  0  0  0  0
 27 28  1  0  0  0  0
 28 26  1  0  0  0  0
 29  4  1  6  0  0  0
 30 31  1  0  0  0  0
 30 29  1  0  0  0  0
 31 29  1  0  0  0  0
 32 33  1  0  0  0  0
 34 33  1  6  0  0  0
 34 36  1  0  0  0  0
 36 38  1  0  0  0  0
 37 38  1  0  0  0  0
 39 35  1  6  0  0  0
 39 37  1  0  0  0  0
 40 35  1  0  0  0  0
 40 34  1  0  0  0  0
 42 45  1  0  0  0  0
 42 43  1  0  0  0  0
 43 46  1  0  0  0  0
 44 39  1  0  0  0  0
 44 47  1  1  0  0  0
 45 51  1  1  0  0  0
 45 44  1  0  0  0  0
 46 47  1  0  0  0  0
 46 41  1  1  0  0  0
 48 49  1  0  0  0  0
 49 51  1  0  0  0  0
 50 52  1  0  0  0  0
 50 48  1  0  0  0  0
 52 53  1  0  0  0  0
 53 49  2  0  0  0  0
M  END
>  <MODEL>
4

>  <REMARK>
 VINA RESULT:      -4.2      1.580      2.402
  Name = 
  14 active torsions:
  status: ('A' for Active; 'I' for Inactive)
    1  A    between atoms: C_3  and  C_35
    2  A    between atoms: C_4  and  C_24
    3  A    between atoms: C_5  and  C_24
    4  A    between atoms: C_5  and  C_26
    5  A    between atoms: N_6  and  N_10
    6  A    between atoms: S_9  and  N_10
    7  A    between atoms: S_9  and  C_31
    8  A    between atoms: C_13  and  C_28
    9  A    between atoms: C_17  and  C_51
   10  A    between atoms: N_19  and  C_30
   11  A    between atoms: N_27  and  C_33
   12  A    between atoms: C_33  and  C_40
   13  A    between atoms: C_40  and  C_47
   14  A    between atoms: N_46  and  C_47
                            x       y       z     vdW  Elec       q    Type
                         _______ _______ _______ _____ _____    ______ ____

>  <TORSDO>
F 14

$$$$
=
 OpenBabel11042421273D

 53 60  0  0  1  0  0  0  0  0999 V2000
  162.1280  204.8680  146.5750 C   0  0  0  0  0  0  0  0  0  0  0  0
  161.8950  205.1660  149.5540 C   0  0  0  0  0  0  0  0  0  0  0  0
  161.5810  203.8900  147.3610 C   0  0  0  0  0  0  0  0  0  0  0  0
  162.5400  206.1260  148.6860 C   0  0  0  0  0  0  0  0  0  0  0  0
  161.0740  202.8940  148.2450 C   0  0  0  0  0  2  0  0  0  0  0  0
  162.6440  205.9200  147.3120 N   0  0  0  0  0  0  0  0  0  0  0  0
  161.4960  204.0890  148.7930 C   0  0  0  0  0  0  0  0  0  0  0  0
  160.6880  204.4920  144.6660 N   0  0  0  0  0  0  0  0  0  0  0  0
  161.6130  205.6840  143.1090 N   0  0  0  0  0  0  0  0  0  0  0  0
  162.4300  205.8220  144.2270 C   0  0  0  0  0  3  0  0  0  0  0  0
  161.8070  205.0650  145.1880 C   0  0  0  0  0  0  0  0  0  0  0  0
  160.6330  204.9220  143.4190 N   0  0  0  0  0  0  0  0  0  0  0  0
  161.4950  206.7240  142.2010 N   0  0  0  0  0  2  0  0  0  0  0  0
  162.4000  206.8350  140.7370 S   0  0  0  0  0  0  0  0  0  0  0  0
  163.5470  207.8140  140.8560 O   0  0  0  0  0  0  0  0  0  0  0  0
  162.8750  205.4570  140.3550 O   0  0  0  0  0  0  0  0  0  0  0  0
  161.7000  209.2750  138.8680 N   0  0  0  0  0  0  0  0  0  0  0  0
  161.1940  207.4630  139.5310 C   0  0  2  0  0  3  0  0  0  0  0  0
  162.3270  207.4050  137.2910 O   0  0  0  0  0  0  0  0  0  0  0  0
  161.9100  207.9190  138.3160 C   0  0  0  0  0  0  0  0  0  0  0  0
  160.8160  208.7570  139.7600 O   0  0  0  0  0  0  0  0  0  0  0  0
  162.6100  211.2240  137.3430 S   0  0  0  0  0  0  0  0  0  0  0  0
  162.5160  210.4520  138.7760 C   0  0  0  0  0  0  0  0  0  0  0  0
  163.0830  211.0670  140.0100 C   0  0  0  0  0  2  0  0  0  0  0  0
  162.2620  212.2680  140.4860 C   0  0  0  0  0  2  0  0  0  0  0  0
  160.4820  211.7420  141.9190 C   0  0  0  0  0  1  0  0  0  0  0  0
  160.1130  213.1820  140.1460 C   0  0  0  0  0  1  0  0  0  0  0  0
  160.8290  211.9710  140.5270 N   0  0  0  0  0  0  0  0  0  0  0  0
  162.6980  207.5190  149.1040 C   0  0  2  0  0  3  0  0  0  0  0  0
  161.3760  208.1210  148.9790 C   0  0  0  0  0  2  0  0  0  0  0  0
  162.4580  208.4790  148.0460 N   0  0  0  0  0  2  0  0  0  0  0  0
  161.5170  205.2360  151.0320 C   0  0  0  0  0  2  0  0  0  0  0  0
  160.5290  206.3580  151.3720 C   0  0  0  0  0  2  0  0  0  0  0  0
  160.9090  207.3260  152.4970 C   0  0  2  0  0  3  0  0  0  0  0  0
  161.4910  209.7410  152.7610 C   0  0  0  0  0  2  0  0  0  0  0  0
  160.5020  206.9090  153.9020 C   0  0  0  0  0  2  0  0  0  0  0  0
  161.1020  208.9840  155.2470 C   0  0  0  0  0  2  0  0  0  0  0  0
  161.5540  207.5860  154.7990 C   0  0  0  0  0  2  0  0  0  0  0  0
  161.3240  210.1180  154.2170 C   0  0  2  0  0  3  0  0  0  0  0  0
  160.5020  208.7680  152.1300 C   0  0  0  0  0  2  0  0  0  0  0  0
  158.7380  214.2680  152.5940 N   0  0  0  0  0  1  0  0  0  0  0  0
  159.4180  213.0550  156.1420 C   0  0  0  0  0  2  0  0  0  0  0  0
  159.3350  213.9780  154.8930 C   0  0  0  0  0  2  0  0  0  0  0  0
  160.5320  211.4240  154.5370 C   0  0  2  0  0  3  0  0  0  0  0  0
  159.7390  211.5780  155.8640 C   0  0  2  0  0  3  0  0  0  0  0  0
  158.9010  213.2610  153.6540 C   0  0  2  0  0  3  0  0  0  0  0  0
  159.9040  212.0900  153.2840 C   0  0  0  0  0  2  0  0  0  0  0  0
  155.9280  211.2260  155.1330 S   0  0  0  0  0  0  0  0  0  0  0  0
  157.3030  211.4170  156.2380 C   0  0  0  0  0  0  0  0  0  0  0  0
  155.2220  212.7060  155.8960 C   0  0  0  0  0  2  0  0  0  0  0  0
  158.5290  210.7590  155.9410 N   0  0  0  0  0  2  0  0  0  0  0  0
  155.8720  212.9010  157.2610 C   0  0  0  0  0  2  0  0  0  0  0  0
  157.1890  212.2770  157.2010 N   0  0  0  0  0  0  0  0  0  0  0  0
  1  6  2  0  0  0  0
  1  3  1  0  0  0  0
  2 32  1  0  0  0  0
  3  5  1  0  0  0  0
  3  7  2  0  0  0  0
  4  2  2  0  0  0  0
  5  7  1  0  0  0  0
  6  4  1  0  0  0  0
  7  2  1  0  0  0  0
  8 11  1  0  0  0  0
  9 12  1  0  0  0  0
  9 10  1  0  0  0  0
 10 11  2  0  0  0  0
 11  1  1  0  0  0  0
 12  8  2  0  0  0  0
 13  9  1  0  0  0  0
 14 15  2  0  0  0  0
 14 13  1  0  0  0  0
 16 14  2  0  0  0  0
 17 21  1  0  0  0  0
 18 21  1  0  0  0  0
 18 14  1  1  0  0  0
 19 20  2  0  0  0  0
 20 17  1  0  0  0  0
 20 18  1  0  0  0  0
 22 23  2  0  0  0  0
 23 17  1  0  0  0  0
 23 24  1  0  0  0  0
 24 25  1  0  0  0  0
 25 28  1  0  0  0  0
 27 28  1  0  0  0  0
 28 26  1  0  0  0  0
 29  4  1  6  0  0  0
 30 29  1  0  0  0  0
 31 30  1  0  0  0  0
 31 29  1  0  0  0  0
 32 33  1  0  0  0  0
 34 33  1  6  0  0  0
 34 36  1  0  0  0  0
 36 38  1  0  0  0  0
 38 37  1  0  0  0  0
 39 35  1  6  0  0  0
 39 44  1  0  0  0  0
 39 37  1  0  0  0  0
 40 34  1  0  0  0  0
 40 35  1  0  0  0  0
 43 42  1  0  0  0  0
 44 47  1  6  0  0  0
 44 45  1  0  0  0  0
 45 51  1  6  0  0  0
 45 42  1  0  0  0  0
 46 41  1  6  0  0  0
 46 43  1  0  0  0  0
 47 46  1  0  0  0  0
 48 50  1  0  0  0  0
 48 49  1  0  0  0  0
 49 53  2  0  0  0  0
 50 52  1  0  0  0  0
 51 49  1  0  0  0  0
 53 52  1  0  0  0  0
M  END
>  <MODEL>
5

>  <REMARK>
 VINA RESULT:      -3.4      1.720      2.891
  Name = 
  14 active torsions:
  status: ('A' for Active; 'I' for Inactive)
    1  A    between atoms: C_3  and  C_35
    2  A    between atoms: C_4  and  C_24
    3  A    between atoms: C_5  and  C_24
    4  A    between atoms: C_5  and  C_26
    5  A    between atoms: N_6  and  N_10
    6  A    between atoms: S_9  and  N_10
    7  A    between atoms: S_9  and  C_31
    8  A    between atoms: C_13  and  C_28
    9  A    between atoms: C_17  and  C_51
   10  A    between atoms: N_19  and  C_30
   11  A    between atoms: N_27  and  C_33
   12  A    between atoms: C_33  and  C_40
   13  A    between atoms: C_40  and  C_47
   14  A    between atoms: N_46  and  C_47
                            x       y       z     vdW  Elec       q    Type
                         _______ _______ _______ _____ _____    ______ ____

>  <TORSDO>
F 14

$$$$
=
 OpenBabel11042421273D

 53 60  0  0  1  0  0  0  0  0999 V2000
  161.1670  205.6150  144.1460 C   0  0  0  0  0  0  0  0  0  0  0  0
  161.3170  204.1100  146.7410 C   0  0  0  0  0  0  0  0  0  0  0  0
  161.4720  206.2350  145.3270 C   0  0  0  0  0  0  0  0  0  0  0  0
  160.9170  203.5260  145.4810 C   0  0  0  0  0  0  0  0  0  0  0  0
  161.7300  206.8230  146.5990 C   0  0  0  0  0  2  0  0  0  0  0  0
  160.8380  204.2810  144.3130 N   0  0  0  0  0  0  0  0  0  0  0  0
  161.5290  205.4590  146.5480 C   0  0  0  0  0  0  0  0  0  0  0  0
  162.1390  205.2160  141.9650 N   0  0  0  0  0  0  0  0  0  0  0  0
  161.9760  207.1470  140.9930 N   0  0  0  0  0  0  0  0  0  0  0  0
  161.4740  207.3270  142.2780 C   0  0  0  0  0  3  0  0  0  0  0  0
  161.5850  206.0860  142.8540 C   0  0  0  0  0  0  0  0  0  0  0  0
  162.3330  205.9240  140.8690 N   0  0  0  0  0  0  0  0  0  0  0  0
  161.4720  207.8910  139.9390 N   0  0  0  0  0  2  0  0  0  0  0  0
  161.9310  209.5180  139.5980 S   0  0  0  0  0  0  0  0  0  0  0  0
  163.2550  209.8760  140.2350 O   0  0  0  0  0  0  0  0  0  0  0  0
  161.9570  209.7110  138.1030 O   0  0  0  0  0  0  0  0  0  0  0  0
  161.3060  212.2400  141.0610 N   0  0  0  0  0  0  0  0  0  0  0  0
  160.6090  210.5080  140.3560 C   0  0  2  0  0  3  0  0  0  0  0  0
  160.1840  212.4380  138.8080 O   0  0  0  0  0  0  0  0  0  0  0  0
  160.6390  211.8780  139.7910 C   0  0  0  0  0  0  0  0  0  0  0  0
  160.9490  211.0320  141.5720 O   0  0  0  0  0  0  0  0  0  0  0  0
  163.2810  213.7110  140.1180 S   0  0  0  0  0  0  0  0  0  0  0  0
  162.3070  213.2310  141.3350 C   0  0  0  0  0  0  0  0  0  0  0  0
  162.3080  213.9520  142.6390 C   0  0  0  0  0  2  0  0  0  0  0  0
  162.7220  213.0450  143.8000 C   0  0  0  0  0  2  0  0  0  0  0  0
  162.2820  214.0920  145.8520 C   0  0  0  0  0  1  0  0  0  0  0  0
  160.5280  213.6740  144.4020 C   0  0  0  0  0  1  0  0  0  0  0  0
  161.7710  213.1090  144.9120 N   0  0  0  0  0  0  0  0  0  0  0  0
  161.0210  202.0820  145.2640 C   0  0  2  0  0  3  0  0  0  0  0  0
  159.6490  201.5890  145.2310 C   0  0  0  0  0  2  0  0  0  0  0  0
  160.5320  201.2870  146.3710 N   0  0  0  0  0  2  0  0  0  0  0  0
  161.6340  203.4760  148.0940 C   0  0  0  0  0  2  0  0  0  0  0  0
  160.5560  203.7080  149.1590 C   0  0  0  0  0  2  0  0  0  0  0  0
  160.9790  204.3880  150.4650 C   0  0  2  0  0  3  0  0  0  0  0  0
  161.8010  206.6210  151.2230 C   0  0  0  0  0  2  0  0  0  0  0  0
  160.4570  203.7540  151.7460 C   0  0  0  0  0  2  0  0  0  0  0  0
  161.2050  205.4440  153.4950 C   0  0  0  0  0  2  0  0  0  0  0  0
  161.5270  204.1180  152.7900 C   0  0  0  0  0  2  0  0  0  0  0  0
  161.6000  206.7240  152.7190 C   0  0  2  0  0  3  0  0  0  0  0  0
  160.7470  205.9100  150.3820 C   0  0  0  0  0  2  0  0  0  0  0  0
  160.7380  209.9780  156.6200 N   0  0  0  0  0  1  0  0  0  0  0  0
  159.6190  210.1840  152.9830 C   0  0  0  0  0  2  0  0  0  0  0  0
  159.5760  210.1750  154.5370 C   0  0  0  0  0  2  0  0  0  0  0  0
  160.9360  208.0250  153.2690 C   0  0  2  0  0  3  0  0  0  0  0  0
  160.6340  209.2300  152.3350 C   0  0  2  0  0  3  0  0  0  0  0  0
  160.8860  209.8180  155.1640 C   0  0  2  0  0  3  0  0  0  0  0  0
  161.3660  208.3750  154.7190 C   0  0  0  0  0  2  0  0  0  0  0  0
  162.2050  211.8030  149.8670 S   0  0  0  0  0  0  0  0  0  0  0  0
  161.9890  210.1560  150.4900 C   0  0  0  0  0  0  0  0  0  0  0  0
  161.7390  211.1580  148.2440 C   0  0  0  0  0  2  0  0  0  0  0  0
  161.8220  209.9580  151.8880 N   0  0  0  0  0  2  0  0  0  0  0  0
  161.9560  209.6490  148.2440 C   0  0  0  0  0  2  0  0  0  0  0  0
  161.8360  209.2000  149.6270 N   0  0  0  0  0  0  0  0  0  0  0  0
  1  6  2  0  0  0  0
  1  3  1  0  0  0  0
  2 32  1  0  0  0  0
  3  7  2  0  0  0  0
  3  5  1  0  0  0  0
  4  2  2  0  0  0  0
  6  4  1  0  0  0  0
  7  5  1  0  0  0  0
  7  2  1  0  0  0  0
  8 11  1  0  0  0  0
  9 10  1  0  0  0  0
 10 11  2  0  0  0  0
 11  1  1  0  0  0  0
 12  9  1  0  0  0  0
 12  8  2  0  0  0  0
 13  9  1  0  0  0  0
 14 13  1  0  0  0  0
 14 15  2  0  0  0  0
 16 14  2  0  0  0  0
 17 23  1  0  0  0  0
 17 21  1  0  0  0  0
 18 14  1  6  0  0  0
 18 21  1  0  0  0  0
 19 20  2  0  0  0  0
 20 18  1  0  0  0  0
 20 17  1  0  0  0  0
 22 23  2  0  0  0  0
 23 24  1  0  0  0  0
 24 25  1  0  0  0  0
 25 28  1  0  0  0  0
 27 28  1  0  0  0  0
 28 26  1  0  0  0  0
 29  4  1  1  0  0  0
 29 31  1  0  0  0  0
 30 29  1  0  0  0  0
 30 31  1  0  0  0  0
 32 33  1  0  0  0  0
 34 33  1  6  0  0  0
 34 36  1  0  0  0  0
 36 38  1  0  0  0  0
 38 37  1  0  0  0  0
 39 35  1  6  0  0  0
 39 44  1  0  0  0  0
 39 37  1  0  0  0  0
 40 34  1  0  0  0  0
 40 35  1  0  0  0  0
 42 43  1  0  0  0  0
 43 46  1  0  0  0  0
 44 47  1  1  0  0  0
 45 51  1  1  0  0  0
 45 42  1  0  0  0  0
 45 44  1  0  0  0  0
 46 41  1  1  0  0  0
 47 46  1  0  0  0  0
 48 49  1  0  0  0  0
 49 51  1  0  0  0  0
 50 48  1  0  0  0  0
 52 50  1  0  0  0  0
 52 53  1  0  0  0  0
 53 49  2  0  0  0  0
M  END
>  <MODEL>
6

>  <REMARK>
 VINA RESULT:      -3.4      2.146      3.814
  Name = 
  14 active torsions:
  status: ('A' for Active; 'I' for Inactive)
    1  A    between atoms: C_3  and  C_35
    2  A    between atoms: C_4  and  C_24
    3  A    between atoms: C_5  and  C_24
    4  A    between atoms: C_5  and  C_26
    5  A    between atoms: N_6  and  N_10
    6  A    between atoms: S_9  and  N_10
    7  A    between atoms: S_9  and  C_31
    8  A    between atoms: C_13  and  C_28
    9  A    between atoms: C_17  and  C_51
   10  A    between atoms: N_19  and  C_30
   11  A    between atoms: N_27  and  C_33
   12  A    between atoms: C_33  and  C_40
   13  A    between atoms: C_40  and  C_47
   14  A    between atoms: N_46  and  C_47
                            x       y       z     vdW  Elec       q    Type
                         _______ _______ _______ _____ _____    ______ ____

>  <TORSDO>
F 14

$$$$
=
 OpenBabel11042421273D

 53 60  0  0  1  0  0  0  0  0999 V2000
  162.0210  210.5950  149.6130 C   0  0  0  0  0  0  0  0  0  0  0  0
  161.1580  208.6910  151.7700 C   0  0  0  0  0  0  0  0  0  0  0  0
  161.9630  209.2440  149.4060 C   0  0  0  0  0  0  0  0  0  0  0  0
  161.3200  210.1150  151.9560 C   0  0  0  0  0  0  0  0  0  0  0  0
  161.9330  207.8250  149.2790 C   0  0  0  0  0  2  0  0  0  0  0  0
  161.7520  210.9470  150.9250 N   0  0  0  0  0  0  0  0  0  0  0  0
  161.5410  208.3730  150.4840 C   0  0  0  0  0  0  0  0  0  0  0  0
  162.9550  211.8760  147.7830 N   0  0  0  0  0  0  0  0  0  0  0  0
  161.2580  213.0180  147.0650 N   0  0  0  0  0  0  0  0  0  0  0  0
  160.7910  212.2920  148.1560 C   0  0  0  0  0  3  0  0  0  0  0  0
  161.8870  211.5790  148.5740 C   0  0  0  0  0  0  0  0  0  0  0  0
  162.4950  212.7360  146.8950 N   0  0  0  0  0  0  0  0  0  0  0  0
  160.4070  213.3190  146.0150 N   0  0  0  0  0  2  0  0  0  0  0  0
  160.9370  213.6890  144.4160 S   0  0  0  0  0  0  0  0  0  0  0  0
  159.8860  214.4470  143.6340 O   0  0  0  0  0  0  0  0  0  0  0  0
  162.2340  214.4530  144.5000 O   0  0  0  0  0  0  0  0  0  0  0  0
  160.2780  211.9220  141.8900 N   0  0  0  0  0  0  0  0  0  0  0  0
  161.1940  212.0580  143.6580 C   0  0  2  0  0  3  0  0  0  0  0  0
  162.7490  212.4100  141.7170 O   0  0  0  0  0  0  0  0  0  0  0  0
  161.6730  212.2370  142.2660 C   0  0  0  0  0  0  0  0  0  0  0  0
  160.0490  211.5000  143.1620 O   0  0  0  0  0  0  0  0  0  0  0  0
  158.3760  213.5540  141.0700 S   0  0  0  0  0  0  0  0  0  0  0  0
  159.4840  212.3910  140.7910 C   0  0  0  0  0  0  0  0  0  0  0  0
  159.8170  211.9770  139.3980 C   0  0  0  0  0  2  0  0  0  0  0  0
  159.3800  210.5400  139.1020 C   0  0  0  0  0  2  0  0  0  0  0  0
  160.4140  209.5000  137.2730 C   0  0  0  0  0  1  0  0  0  0  0  0
  161.7310  210.4590  138.9160 C   0  0  0  0  0  1  0  0  0  0  0  0
  160.5080  209.6930  138.7100 N   0  0  0  0  0  0  0  0  0  0  0  0
  160.6260  210.8070  153.0420 C   0  0  2  0  0  3  0  0  0  0  0  0
  159.2060  210.5630  152.8220 C   0  0  0  0  0  2  0  0  0  0  0  0
  159.7840  211.8990  152.5990 N   0  0  0  0  0  2  0  0  0  0  0  0
  160.5560  207.6160  152.6720 C   0  0  0  0  0  2  0  0  0  0  0  0
  161.5120  206.4590  152.9890 C   0  0  0  0  0  2  0  0  0  0  0  0
  161.2540  205.1140  152.3040 C   0  0  2  0  0  3  0  0  0  0  0  0
  159.9430  204.2250  150.3720 C   0  0  0  0  0  2  0  0  0  0  0  0
  162.2950  204.0310  152.5480 C   0  0  0  0  0  2  0  0  0  0  0  0
  161.5140  202.2020  150.9600 C   0  0  0  0  0  2  0  0  0  0  0  0
  161.4960  202.7230  152.4050 C   0  0  0  0  0  2  0  0  0  0  0  0
  160.4980  202.8680  150.0000 C   0  0  2  0  0  3  0  0  0  0  0  0
  160.9050  205.3210  150.8160 C   0  0  0  0  0  2  0  0  0  0  0  0
  158.9470  201.1060  145.4130 N   0  0  0  0  0  1  0  0  0  0  0  0
  162.2300  202.7710  146.4000 C   0  0  0  0  0  2  0  0  0  0  0  0
  161.2170  201.7480  145.8120 C   0  0  0  0  0  2  0  0  0  0  0  0
  160.7870  202.5970  148.4900 C   0  0  2  0  0  3  0  0  0  0  0  0
  161.7950  203.4740  147.6960 C   0  0  2  0  0  3  0  0  0  0  0  0
  159.7930  202.0690  146.1360 C   0  0  2  0  0  3  0  0  0  0  0  0
  159.5490  202.0940  147.7020 C   0  0  0  0  0  2  0  0  0  0  0  0
  160.2030  205.9750  145.1680 S   0  0  0  0  0  0  0  0  0  0  0  0
  161.5680  205.3640  146.1240 C   0  0  0  0  0  0  0  0  0  0  0  0
  161.2680  205.8280  143.7140 C   0  0  0  0  0  2  0  0  0  0  0  0
  161.3250  204.8310  147.4200 N   0  0  0  0  0  2  0  0  0  0  0  0
  162.7190  205.8060  144.1800 C   0  0  0  0  0  2  0  0  0  0  0  0
  162.7230  205.2830  145.5420 N   0  0  0  0  0  0  0  0  0  0  0  0
  1  6  1  0  0  0  0
  2  4  1  0  0  0  0
  2 32  1  0  0  0  0
  3  1  2  0  0  0  0
  3  7  1  0  0  0  0
  5  3  1  0  0  0  0
  5  7  1  0  0  0  0
  6  4  2  0  0  0  0
  7  2  2  0  0  0  0
  8 11  1  0  0  0  0
  9 10  1  0  0  0  0
 10 11  2  0  0  0  0
 11  1  1  0  0  0  0
 12  9  1  0  0  0  0
 12  8  2  0  0  0  0
 13  9  1  0  0  0  0
 14 16  2  0  0  0  0
 14 13  1  0  0  0  0
 15 14  2  0  0  0  0
 17 20  1  0  0  0  0
 17 21  1  0  0  0  0
 18 14  1  6  0  0  0
 19 20  2  0  0  0  0
 20 18  1  0  0  0  0
 21 18  1  0  0  0  0
 23 22  2  0  0  0  0
 23 17  1  0  0  0  0
 24 23  1  0  0  0  0
 25 24  1  0  0  0  0
 26 28  1  0  0  0  0
 28 27  1  0  0  0  0
 28 25  1  0  0  0  0
 29  4  1  6  0  0  0
 30 29  1  0  0  0  0
 31 30  1  0  0  0  0
 31 29  1  0  0  0  0
 32 33  1  0  0  0  0
 34 36  1  0  0  0  0
 34 33  1  6  0  0  0
 35 40  1  0  0  0  0
 37 38  1  0  0  0  0
 38 36  1  0  0  0  0
 39 35  1  6  0  0  0
 39 37  1  0  0  0  0
 40 34  1  0  0  0  0
 42 45  1  0  0  0  0
 43 46  1  0  0  0  0
 43 42  1  0  0  0  0
 44 47  1  6  0  0  0
 44 39  1  0  0  0  0
 45 51  1  6  0  0  0
 45 44  1  0  0  0  0
 46 41  1  6  0  0  0
 46 47  1  0  0  0  0
 48 49  1  0  0  0  0
 49 51  1  0  0  0  0
 50 52  1  0  0  0  0
 50 48  1  0  0  0  0
 52 53  1  0  0  0  0
 53 49  2  0  0  0  0
M  END
>  <MODEL>
7

>  <REMARK>
 VINA RESULT:      -3.3      2.855      7.588
  Name = 
  14 active torsions:
  status: ('A' for Active; 'I' for Inactive)
    1  A    between atoms: C_3  and  C_35
    2  A    between atoms: C_4  and  C_24
    3  A    between atoms: C_5  and  C_24
    4  A    between atoms: C_5  and  C_26
    5  A    between atoms: N_6  and  N_10
    6  A    between atoms: S_9  and  N_10
    7  A    between atoms: S_9  and  C_31
    8  A    between atoms: C_13  and  C_28
    9  A    between atoms: C_17  and  C_51
   10  A    between atoms: N_19  and  C_30
   11  A    between atoms: N_27  and  C_33
   12  A    between atoms: C_33  and  C_40
   13  A    between atoms: C_40  and  C_47
   14  A    between atoms: N_46  and  C_47
                            x       y       z     vdW  Elec       q    Type
                         _______ _______ _______ _____ _____    ______ ____

>  <TORSDO>
F 14

$$$$
=
 OpenBabel11042421273D

 53 60  0  0  1  0  0  0  0  0999 V2000
  161.1530  205.6960  144.1330 C   0  0  0  0  0  0  0  0  0  0  0  0
  161.2870  204.1880  146.7270 C   0  0  0  0  0  0  0  0  0  0  0  0
  161.4290  206.3180  145.3200 C   0  0  0  0  0  0  0  0  0  0  0  0
  160.9170  203.6000  145.4600 C   0  0  0  0  0  0  0  0  0  0  0  0
  161.6570  206.9070  146.5980 C   0  0  0  0  0  2  0  0  0  0  0  0
  160.8430  204.3560  144.2920 N   0  0  0  0  0  0  0  0  0  0  0  0
  161.4800  205.5400  146.5410 C   0  0  0  0  0  0  0  0  0  0  0  0
  162.4410  205.4290  142.1010 N   0  0  0  0  0  0  0  0  0  0  0  0
  161.9040  207.1820  140.9450 N   0  0  0  0  0  0  0  0  0  0  0  0
  161.2270  207.3050  142.1540 C   0  0  0  0  0  3  0  0  0  0  0  0
  161.5840  206.1770  142.8490 C   0  0  0  0  0  0  0  0  0  0  0  0
  162.5730  206.0920  140.9670 N   0  0  0  0  0  0  0  0  0  0  0  0
  161.3520  207.6980  139.7830 N   0  0  0  0  0  2  0  0  0  0  0  0
  161.2710  209.3810  139.4160 S   0  0  0  0  0  0  0  0  0  0  0  0
  161.4380  209.6450  137.9360 O   0  0  0  0  0  0  0  0  0  0  0  0
  159.9690  209.9300  139.9410 O   0  0  0  0  0  0  0  0  0  0  0  0
  163.0740  211.9500  139.7160 N   0  0  0  0  0  0  0  0  0  0  0  0
  162.6810  210.0880  140.3180 C   0  0  2  0  0  3  0  0  0  0  0  0
  161.7420  211.8350  141.8580 O   0  0  0  0  0  0  0  0  0  0  0  0
  162.3000  211.4160  140.8580 C   0  0  0  0  0  0  0  0  0  0  0  0
  163.5900  210.7100  139.5080 O   0  0  0  0  0  0  0  0  0  0  0  0
  164.1710  214.0840  138.6230 S   0  0  0  0  0  0  0  0  0  0  0  0
  162.8790  213.1400  138.9380 C   0  0  0  0  0  0  0  0  0  0  0  0
  161.5750  213.3850  138.2600 C   0  0  0  0  0  2  0  0  0  0  0  0
  160.4730  213.7710  139.2500 C   0  0  0  0  0  2  0  0  0  0  0  0
  159.2500  212.4960  137.7080 C   0  0  0  0  0  1  0  0  0  0  0  0
  158.2950  213.0130  139.7500 C   0  0  0  0  0  1  0  0  0  0  0  0
  159.1360  213.5590  138.6920 N   0  0  0  0  0  0  0  0  0  0  0  0
  161.0470  202.1590  145.2410 C   0  0  2  0  0  3  0  0  0  0  0  0
  159.7120  201.6910  144.8860 C   0  0  0  0  0  2  0  0  0  0  0  0
  160.3080  201.3530  146.1900 N   0  0  0  0  0  2  0  0  0  0  0  0
  161.5920  203.5550  148.0840 C   0  0  0  0  0  2  0  0  0  0  0  0
  160.5590  203.8780  149.1700 C   0  0  0  0  0  2  0  0  0  0  0  0
  161.0380  204.6540  150.4000 C   0  0  2  0  0  3  0  0  0  0  0  0
  161.6340  207.0030  151.0090 C   0  0  0  0  0  2  0  0  0  0  0  0
  160.7630  204.0030  151.7480 C   0  0  0  0  0  2  0  0  0  0  0  0
  161.4770  205.8390  153.3590 C   0  0  0  0  0  2  0  0  0  0  0  0
  161.8910  204.5430  152.6460 C   0  0  0  0  0  2  0  0  0  0  0  0
  161.6000  207.1310  152.5160 C   0  0  2  0  0  3  0  0  0  0  0  0
  160.5940  206.1290  150.3170 C   0  0  0  0  0  2  0  0  0  0  0  0
  160.4550  210.1170  156.5560 N   0  0  0  0  0  1  0  0  0  0  0  0
  159.3670  210.4210  152.9170 C   0  0  0  0  0  2  0  0  0  0  0  0
  159.3070  210.3320  154.4680 C   0  0  0  0  0  2  0  0  0  0  0  0
  160.8360  208.3520  153.1180 C   0  0  2  0  0  3  0  0  0  0  0  0
  160.4570  209.5760  152.2390 C   0  0  2  0  0  3  0  0  0  0  0  0
  160.6320  210.0400  155.0970 C   0  0  2  0  0  3  0  0  0  0  0  0
  161.2210  208.6600  154.5890 C   0  0  0  0  0  2  0  0  0  0  0  0
  161.9570  212.1630  149.7410 S   0  0  0  0  0  0  0  0  0  0  0  0
  161.8680  210.5420  150.4570 C   0  0  0  0  0  0  0  0  0  0  0  0
  161.7200  211.3710  148.1330 C   0  0  0  0  0  2  0  0  0  0  0  0
  161.5930  210.4100  151.8470 N   0  0  0  0  0  2  0  0  0  0  0  0
  162.1030  209.9010  148.2580 C   0  0  0  0  0  2  0  0  0  0  0  0
  161.9040  209.5250  149.6540 N   0  0  0  0  0  0  0  0  0  0  0  0
  1  6  2  0  0  0  0
  1  3  1  0  0  0  0
  2 32  1  0  0  0  0
  3  7  2  0  0  0  0
  3  5  1  0  0  0  0
  4  2  2  0  0  0  0
  6  4  1  0  0  0  0
  7  5  1  0  0  0  0
  7  2  1  0  0  0  0
  8 11  1  0  0  0  0
  9 12  1  0  0  0  0
  9 10  1  0  0  0  0
 10 11  2  0  0  0  0
 11  1  1  0  0  0  0
 12  8  2  0  0  0  0
 13  9  1  0  0  0  0
 14 13  1  0  0  0  0
 14 16  2  0  0  0  0
 15 14  2  0  0  0  0
 17 20  1  0  0  0  0
 18 14  1  6  0  0  0
 18 20  1  0  0  0  0
 20 19  2  0  0  0  0
 21 17  1  0  0  0  0
 21 18  1  0  0  0  0
 22 23  2  0  0  0  0
 23 17  1  0  0  0  0
 24 23  1  0  0  0  0
 24 25  1  0  0  0  0
 26 28  1  0  0  0  0
 28 25  1  0  0  0  0
 28 27  1  0  0  0  0
 29  4  1  1  0  0  0
 29 31  1  0  0  0  0
 30 29  1  0  0  0  0
 30 31  1  0  0  0  0
 32 33  1  0  0  0  0
 34 33  1  6  0  0  0
 34 36  1  0  0  0  0
 36 38  1  0  0  0  0
 38 37  1  0  0  0  0
 39 35  1  6  0  0  0
 39 44  1  0  0  0  0
 39 37  1  0  0  0  0
 40 34  1  0  0  0  0
 40 35  1  0  0  0  0
 42 43  1  0  0  0  0
 43 46  1  0  0  0  0
 44 47  1  1  0  0  0
 45 51  1  1  0  0  0
 45 42  1  0  0  0  0
 45 44  1  0  0  0  0
 46 41  1  1  0  0  0
 47 46  1  0  0  0  0
 48 49  1  0  0  0  0
 49 51  1  0  0  0  0
 50 52  1  0  0  0  0
 50 48  1  0  0  0  0
 52 53  1  0  0  0  0
 53 49  2  0  0  0  0
M  END
>  <MODEL>
8

>  <REMARK>
 VINA RESULT:      -2.8      2.198      3.835
  Name = 
  14 active torsions:
  status: ('A' for Active; 'I' for Inactive)
    1  A    between atoms: C_3  and  C_35
    2  A    between atoms: C_4  and  C_24
    3  A    between atoms: C_5  and  C_24
    4  A    between atoms: C_5  and  C_26
    5  A    between atoms: N_6  and  N_10
    6  A    between atoms: S_9  and  N_10
    7  A    between atoms: S_9  and  C_31
    8  A    between atoms: C_13  and  C_28
    9  A    between atoms: C_17  and  C_51
   10  A    between atoms: N_19  and  C_30
   11  A    between atoms: N_27  and  C_33
   12  A    between atoms: C_33  and  C_40
   13  A    between atoms: C_40  and  C_47
   14  A    between atoms: N_46  and  C_47
                            x       y       z     vdW  Elec       q    Type
                         _______ _______ _______ _____ _____    ______ ____

>  <TORSDO>
F 14

$$$$
=
 OpenBabel11042421273D

 53 60  0  0  1  0  0  0  0  0999 V2000
  161.2060  205.6050  144.1570 C   0  0  0  0  0  0  0  0  0  0  0  0
  161.3430  204.0780  146.7410 C   0  0  0  0  0  0  0  0  0  0  0  0
  161.5650  206.2030  145.3350 C   0  0  0  0  0  0  0  0  0  0  0  0
  160.8890  203.5210  145.4860 C   0  0  0  0  0  0  0  0  0  0  0  0
  161.8760  206.7700  146.6040 C   0  0  0  0  0  2  0  0  0  0  0  0
  160.8190  204.2860  144.3240 N   0  0  0  0  0  0  0  0  0  0  0  0
  161.6120  205.4170  146.5500 C   0  0  0  0  0  0  0  0  0  0  0  0
  162.1360  205.1800  141.9630 N   0  0  0  0  0  0  0  0  0  0  0  0
  162.0080  207.1130  140.9920 N   0  0  0  0  0  0  0  0  0  0  0  0
  161.5280  207.3070  142.2840 C   0  0  0  0  0  3  0  0  0  0  0  0
  161.6170  206.0640  142.8590 C   0  0  0  0  0  0  0  0  0  0  0  0
  162.3330  205.8820  140.8640 N   0  0  0  0  0  0  0  0  0  0  0  0
  161.5080  207.8690  139.9440 N   0  0  0  0  0  2  0  0  0  0  0  0
  161.6940  209.5780  139.8100 S   0  0  0  0  0  0  0  0  0  0  0  0
  160.7850  210.3210  140.7640 O   0  0  0  0  0  0  0  0  0  0  0  0
  163.1440  209.9270  140.0300 O   0  0  0  0  0  0  0  0  0  0  0  0
  159.6740  211.2260  138.0370 N   0  0  0  0  0  0  0  0  0  0  0  0
  161.1940  209.9350  138.1000 C   0  0  2  0  0  3  0  0  0  0  0  0
  161.9260  212.2880  137.6180 O   0  0  0  0  0  0  0  0  0  0  0  0
  161.1360  211.4030  137.9040 C   0  0  0  0  0  0  0  0  0  0  0  0
  159.8420  209.8840  137.9040 O   0  0  0  0  0  0  0  0  0  0  0  0
  158.9540  212.7680  140.0510 S   0  0  0  0  0  0  0  0  0  0  0  0
  158.6790  212.1000  138.5890 C   0  0  0  0  0  0  0  0  0  0  0  0
  157.5320  212.5510  137.7510 C   0  0  0  0  0  2  0  0  0  0  0  0
  156.5590  211.4100  137.4420 C   0  0  0  0  0  2  0  0  0  0  0  0
  155.1360  211.0100  139.2620 C   0  0  0  0  0  1  0  0  0  0  0  0
  156.0230  209.2110  138.1100 C   0  0  0  0  0  1  0  0  0  0  0  0
  156.3440  210.5440  138.6030 N   0  0  0  0  0  0  0  0  0  0  0  0
  160.9210  202.0750  145.2590 C   0  0  2  0  0  3  0  0  0  0  0  0
  159.5290  201.6690  145.1070 C   0  0  0  0  0  2  0  0  0  0  0  0
  160.2930  201.3030  146.3110 N   0  0  0  0  0  2  0  0  0  0  0  0
  161.6580  203.4210  148.0830 C   0  0  0  0  0  2  0  0  0  0  0  0
  160.5830  203.6400  149.1540 C   0  0  0  0  0  2  0  0  0  0  0  0
  161.0010  204.3410  150.4500 C   0  0  2  0  0  3  0  0  0  0  0  0
  161.8480  206.5770  151.1720 C   0  0  0  0  0  2  0  0  0  0  0  0
  160.4540  203.7420  151.7370 C   0  0  0  0  0  2  0  0  0  0  0  0
  161.2060  205.4570  153.4610 C   0  0  0  0  0  2  0  0  0  0  0  0
  161.5170  204.1110  152.7870 C   0  0  0  0  0  2  0  0  0  0  0  0
  161.6310  206.7140  152.6630 C   0  0  2  0  0  3  0  0  0  0  0  0
  160.7940  205.8650  150.3330 C   0  0  0  0  0  2  0  0  0  0  0  0
  160.7710  210.0600  156.4850 N   0  0  0  0  0  1  0  0  0  0  0  0
  159.7010  210.2090  152.8310 C   0  0  0  0  0  2  0  0  0  0  0  0
  159.6390  210.2330  154.3840 C   0  0  0  0  0  2  0  0  0  0  0  0
  160.9810  208.0360  153.1780 C   0  0  2  0  0  3  0  0  0  0  0  0
  160.7100  209.2260  152.2160 C   0  0  2  0  0  3  0  0  0  0  0  0
  160.9360  209.8690  155.0360 C   0  0  2  0  0  3  0  0  0  0  0  0
  161.3980  208.4090  154.6260 C   0  0  0  0  0  2  0  0  0  0  0  0
  162.3240  211.8290  149.8080 S   0  0  0  0  0  0  0  0  0  0  0  0
  162.0590  210.1690  150.3760 C   0  0  0  0  0  0  0  0  0  0  0  0
  161.8010  211.2610  148.1730 C   0  0  0  0  0  2  0  0  0  0  0  0
  161.9140  209.9260  151.7700 N   0  0  0  0  0  2  0  0  0  0  0  0
  161.9620  209.7460  148.1150 C   0  0  0  0  0  2  0  0  0  0  0  0
  161.8540  209.2520  149.4830 N   0  0  0  0  0  0  0  0  0  0  0  0
  1  6  2  0  0  0  0
  1  3  1  0  0  0  0
  2 32  1  0  0  0  0
  3  7  2  0  0  0  0
  3  5  1  0  0  0  0
  4  2  2  0  0  0  0
  6  4  1  0  0  0  0
  7  5  1  0  0  0  0
  7  2  1  0  0  0  0
  8 11  1  0  0  0  0
  9 10  1  0  0  0  0
 10 11  2  0  0  0  0
 11  1  1  0  0  0  0
 12  9  1  0  0  0  0
 12  8  2  0  0  0  0
 13  9  1  0  0  0  0
 14 13  1  0  0  0  0
 14 16  2  0  0  0  0
 14 15  2  0  0  0  0
 17 23  1  0  0  0  0
 18 14  1  1  0  0  0
 19 20  2  0  0  0  0
 20 17  1  0  0  0  0
 20 18  1  0  0  0  0
 21 17  1  0  0  0  0
 21 18  1  0  0  0  0
 23 22  2  0  0  0  0
 24 23  1  0  0  0  0
 25 24  1  0  0  0  0
 25 28  1  0  0  0  0
 27 28  1  0  0  0  0
 28 26  1  0  0  0  0
 29  4  1  1  0  0  0
 29 31  1  0  0  0  0
 30 29  1  0  0  0  0
 30 31  1  0  0  0  0
 32 33  1  0  0  0  0
 34 33  1  6  0  0  0
 34 36  1  0  0  0  0
 36 38  1  0  0  0  0
 38 37  1  0  0  0  0
 39 35  1  6  0  0  0
 39 44  1  0  0  0  0
 39 37  1  0  0  0  0
 40 34  1  0  0  0  0
 40 35  1  0  0  0  0
 42 43  1  0  0  0  0
 43 46  1  0  0  0  0
 44 47  1  1  0  0  0
 45 51  1  1  0  0  0
 45 42  1  0  0  0  0
 45 44  1  0  0  0  0
 46 41  1  1  0  0  0
 47 46  1  0  0  0  0
 48 49  1  0  0  0  0
 49 51  1  0  0  0  0
 50 48  1  0  0  0  0
 52 50  1  0  0  0  0
 52 53  1  0  0  0  0
 53 49  2  0  0  0  0
M  END
>  <MODEL>
9

>  <REMARK>
 VINA RESULT:      -2.8      2.702      4.190
  Name = 
  14 active torsions:
  status: ('A' for Active; 'I' for Inactive)
    1  A    between atoms: C_3  and  C_35
    2  A    between atoms: C_4  and  C_24
    3  A    between atoms: C_5  and  C_24
    4  A    between atoms: C_5  and  C_26
    5  A    between atoms: N_6  and  N_10
    6  A    between atoms: S_9  and  N_10
    7  A    between atoms: S_9  and  C_31
    8  A    between atoms: C_13  and  C_28
    9  A    between atoms: C_17  and  C_51
   10  A    between atoms: N_19  and  C_30
   11  A    between atoms: N_27  and  C_33
   12  A    between atoms: C_33  and  C_40
   13  A    between atoms: C_40  and  C_47
   14  A    between atoms: N_46  and  C_47
                            x       y       z     vdW  Elec       q    Type
                         _______ _______ _______ _____ _____    ______ ____

>  <TORSDO>
F 14

$$$$
