=
 OpenBabel11052410103D

 48 50  0  0  1  0  0  0  0  0999 V2000
  161.5840  204.3030  148.4170 N   0  0  0  0  0  2  0  0  0  0  0  0
  162.1970  205.5890  148.5950 C   0  0  0  0  0  2  0  0  0  0  0  0
  161.2550  205.8360  150.8970 C   0  0  2  0  0  3  0  0  0  0  0  0
  161.7270  204.5460  151.4160 C   0  0  0  0  0  3  0  0  0  0  0  0
  162.0920  207.8300  149.5710 C   0  0  0  0  0  3  0  0  0  0  0  0
  162.0090  206.3500  149.6960 C   0  0  0  0  0  0  0  0  0  0  0  0
  161.5920  203.4480  150.7020 C   0  0  0  0  0  3  0  0  0  0  0  0
  161.0560  206.8290  151.9860 C   0  0  0  0  0  2  0  0  0  0  0  0
  160.9970  208.1250  151.7810 C   0  0  0  0  0  0  0  0  0  0  0  0
  161.6570  208.6980  150.5330 C   0  0  0  0  0  0  0  0  0  0  0  0
  161.1170  203.4420  149.3150 C   0  0  2  0  0  3  0  0  0  0  0  0
  160.1690  202.3900  148.9300 C   0  0  0  0  0  0  0  0  0  0  0  0
  159.5920  201.6950  149.8140 O   0  0  0  0  0  0  0  0  0  0  0  0
  159.8560  202.1410  147.5750 O   0  0  0  0  0  0  0  0  0  0  0  0
  160.2610  201.5310  145.2760 C   0  0  0  0  0  1  0  0  0  0  0  0
  160.8130  201.5720  146.6840 C   0  0  0  0  0  2  0  0  0  0  0  0
  160.5550  208.8730  152.9720 N   0  0  0  0  0  2  0  0  0  0  0  0
  161.1590  209.2510  154.2720 C   0  0  1  0  0  3  0  0  0  0  0  0
  161.7220  210.6890  154.3030 C   0  0  0  0  0  1  0  0  0  0  0  0
  160.3260  207.8380  156.0610 O   0  0  0  0  0  1  0  0  0  0  0  0
  160.1280  209.0640  155.4130 C   0  0  1  0  0  3  0  0  0  0  0  0
  161.1320  210.2390  157.2600 O   0  0  0  0  0  0  0  0  0  0  0  0
  160.2550  210.2010  156.3920 C   0  0  0  0  0  0  0  0  0  0  0  0
  159.2450  211.3130  156.3520 C   0  0  0  0  0  2  0  0  0  0  0  0
  158.1350  210.9220  155.5850 O   0  0  0  0  0  0  0  0  0  0  0  0
  158.4490  211.4030  152.8030 O   0  0  0  0  0  0  0  0  0  0  0  0
  158.0420  212.0760  154.3250 P   0  0  0  0  0  0  0  0  0  0  0  0
  159.0410  213.1810  154.6370 O   0  0  0  0  0  1  0  0  0  0  0  0
  156.4800  212.7580  154.2420 O   0  0  0  0  0  1  0  0  0  0  0  0
  161.6310  210.1770  150.2620 C   0  0  0  0  0  2  0  0  0  0  0  0
  161.9880  210.5080  148.5060 S   0  0  0  0  0  0  0  0  0  0  0  0
  161.0240  212.0500  148.2090 C   0  0  2  0  0  3  0  0  0  0  0  0
  160.7860  212.1940  146.7820 N   0  0  0  0  0  2  0  0  0  0  0  0
  158.5360  212.7040  147.1050 O   0  0  0  0  0  0  0  0  0  0  0  0
  159.5670  212.8300  146.3670 C   0  0  0  0  0  0  0  0  0  0  0  0
  159.4180  213.2990  144.9570 C   0  0  0  0  0  2  0  0  0  0  0  0
  159.7570  212.1450  144.0000 C   0  0  0  0  0  2  0  0  0  0  0  0
  159.9750  211.1650  139.9640 C   0  0  0  0  0  2  0  0  0  0  0  0
  162.3280  210.1530  139.3990 C   0  0  0  0  0  1  0  0  0  0  0  0
  162.1460  213.3000  139.7300 C   0  0  0  0  0  1  0  0  0  0  0  0
  162.0670  212.5680  143.5940 O   0  0  0  0  0  0  0  0  0  0  0  0
  161.4190  210.9170  140.3820 C   0  0  1  0  0  3  0  0  0  0  0  0
  160.7230  212.6800  141.6860 N   0  0  0  0  0  0  0  0  0  0  0  0
  160.8960  212.5140  143.1010 C   0  0  0  0  0  0  0  0  0  0  0  0
  159.4970  212.1710  141.0160 C   0  0  0  0  0  2  0  0  0  0  0  0
  161.8600  212.2850  140.8630 C   0  0  2  0  0  3  0  0  0  0  0  0
  162.9140  213.5680  147.8740 N   0  0  0  0  0  1  0  0  0  0  0  0
  161.7600  213.2910  148.7370 C   0  0  0  0  0  2  0  0  0  0  0  0
  1  2  1  0  0  0  0
  1 11  1  0  0  0  0
  2  6  1  0  0  0  0
  3  4  1  1  0  0  0
  3  8  1  0  0  0  0
  5  6  2  0  0  0  0
  5 10  1  0  0  0  0
  6  3  1  0  0  0  0
  7  4  2  0  0  0  0
  9  8  1  0  0  0  0
  9 17  1  0  0  0  0
 10  9  2  0  0  0  0
 11 12  1  6  0  0  0
 11  7  1  0  0  0  0
 12 13  2  0  0  0  0
 14 12  1  0  0  0  0
 15 16  1  0  0  0  0
 16 14  1  0  0  0  0
 17 18  1  0  0  0  0
 18 19  1  6  0  0  0
 18 21  1  0  0  0  0
 21 20  1  1  0  0  0
 21 23  1  0  0  0  0
 23 22  2  0  0  0  0
 24 23  1  0  0  0  0
 25 24  1  0  0  0  0
 26 27  2  0  0  0  0
 27 28  1  0  0  0  0
 27 25  1  0  0  0  0
 29 27  1  0  0  0  0
 30 10  1  0  0  0  0
 31 30  1  0  0  0  0
 32 31  1  0  0  0  0
 32 48  1  6  0  0  0
 33 32  1  0  0  0  0
 35 33  1  0  0  0  0
 35 34  2  0  0  0  0
 36 35  1  0  0  0  0
 37 36  1  0  0  0  0
 38 42  1  0  0  0  0
 38 45  1  0  0  0  0
 42 39  1  6  0  0  0
 42 46  1  0  0  0  0
 43 44  1  0  0  0  0
 44 41  2  0  0  0  0
 44 37  1  0  0  0  0
 45 43  1  0  0  0  0
 46 40  1  6  0  0  0
 46 43  1  0  0  0  0
 47 48  1  0  0  0  0
M  END
>  <MODEL>
1

>  <REMARK>
 VINA RESULT:      -6.4      0.000      0.000
  Name = 
  18 active torsions:
  status: ('A' for Active; 'I' for Inactive)
    1  A    between atoms: C_4  and  C_27
    2  A    between atoms: C_4  and  C_45
    3  A    between atoms: S_9  and  C_44
    4  A    between atoms: S_9  and  C_47
    5  A    between atoms: N_10  and  C_47
    6  A    between atoms: C_11  and  O_23
    7  A    between atoms: C_11  and  C_46
    8  A    between atoms: C_12  and  N_22
    9  A    between atoms: C_12  and  C_27
   10  A    between atoms: C_17  and  O_23
   11  A    between atoms: N_22  and  C_39
   12  A    between atoms: C_28  and  C_29
   13  A    between atoms: C_28  and  C_41
   14  A    between atoms: O_30  and  P_34
   15  A    between atoms: O_30  and  C_45
   16  A    between atoms: C_33  and  C_41
   17  A    between atoms: C_43  and  C_44
   18  A    between atoms: C_47  and  C_48
                            x       y       z     vdW  Elec       q    Type
                         _______ _______ _______ _____ _____    ______ ____

>  <TORSDO>
F 18

$$$$
=
 OpenBabel11052410103D

 48 50  0  0  1  0  0  0  0  0999 V2000
  161.6040  205.6580  149.0470 N   0  0  0  0  0  2  0  0  0  0  0  0
  162.0590  207.0110  148.8970 C   0  0  0  0  0  2  0  0  0  0  0  0
  161.7190  207.5050  151.3240 C   0  0  2  0  0  3  0  0  0  0  0  0
  162.4820  206.3620  151.8410 C   0  0  0  0  0  3  0  0  0  0  0  0
  161.9030  209.3510  149.5930 C   0  0  0  0  0  3  0  0  0  0  0  0
  162.0590  207.9060  149.9090 C   0  0  0  0  0  0  0  0  0  0  0  0
  162.3200  205.1610  151.3260 C   0  0  0  0  0  3  0  0  0  0  0  0
  161.6740  208.6250  152.3000 C   0  0  0  0  0  2  0  0  0  0  0  0
  161.3860  209.8630  151.9680 C   0  0  0  0  0  0  0  0  0  0  0  0
  161.6160  210.3050  150.5280 C   0  0  0  0  0  0  0  0  0  0  0  0
  161.5080  204.8990  150.1340 C   0  0  2  0  0  3  0  0  0  0  0  0
  160.6470  203.7100  150.1500 C   0  0  0  0  0  0  0  0  0  0  0  0
  160.1120  203.3250  151.2280 O   0  0  0  0  0  0  0  0  0  0  0  0
  160.3720  202.9840  148.9710 O   0  0  0  0  0  0  0  0  0  0  0  0
  161.1590  200.7210  148.6830 C   0  0  0  0  0  1  0  0  0  0  0  0
  159.9830  201.6130  149.0150 C   0  0  0  0  0  2  0  0  0  0  0  0
  161.1680  210.7330  153.1390 N   0  0  0  0  0  2  0  0  0  0  0  0
  160.0470  211.5510  153.6590 C   0  0  1  0  0  3  0  0  0  0  0  0
  158.7850  211.5190  152.7680 C   0  0  0  0  0  1  0  0  0  0  0  0
  160.5650  210.1070  155.5400 O   0  0  0  0  0  1  0  0  0  0  0  0
  159.6870  211.1050  155.0980 C   0  0  1  0  0  3  0  0  0  0  0  0
  160.7950  212.7180  156.5010 O   0  0  0  0  0  0  0  0  0  0  0  0
  159.7400  212.2950  156.0190 C   0  0  0  0  0  0  0  0  0  0  0  0
  158.4560  212.9690  156.4130 C   0  0  0  0  0  2  0  0  0  0  0  0
  157.6760  213.2140  155.2710 O   0  0  0  0  0  0  0  0  0  0  0  0
  155.1210  213.8250  156.3520 O   0  0  0  0  0  1  0  0  0  0  0  0
  156.1210  212.6150  155.6650 P   0  0  0  0  0  0  0  0  0  0  0  0
  156.3000  211.5080  156.6930 O   0  0  0  0  0  1  0  0  0  0  0  0
  155.3560  211.9650  154.2860 O   0  0  0  0  0  0  0  0  0  0  0  0
  161.3170  211.7170  150.1030 C   0  0  0  0  0  2  0  0  0  0  0  0
  162.0640  212.0610  148.4770 S   0  0  0  0  0  0  0  0  0  0  0  0
  160.6750  212.8870  147.5920 C   0  0  2  0  0  3  0  0  0  0  0  0
  161.1450  213.3480  146.2960 N   0  0  0  0  0  2  0  0  0  0  0  0
  159.7150  211.9110  145.1500 O   0  0  0  0  0  0  0  0  0  0  0  0
  160.3660  213.0060  145.1390 C   0  0  0  0  0  0  0  0  0  0  0  0
  160.6060  213.7150  143.8470 C   0  0  0  0  0  2  0  0  0  0  0  0
  160.2120  212.7930  142.6820 C   0  0  0  0  0  2  0  0  0  0  0  0
  160.1140  210.2610  139.3840 C   0  0  0  0  0  2  0  0  0  0  0  0
  161.9410  208.3940  139.6140 C   0  0  0  0  0  1  0  0  0  0  0  0
  162.9190  211.2740  138.7260 C   0  0  0  0  0  1  0  0  0  0  0  0
  162.5220  212.2300  142.5210 O   0  0  0  0  0  0  0  0  0  0  0  0
  161.3610  209.7410  140.0880 C   0  0  1  0  0  3  0  0  0  0  0  0
  161.3400  212.0010  140.5190 N   0  0  0  0  0  0  0  0  0  0  0  0
  161.4200  212.3710  141.9040 C   0  0  0  0  0  0  0  0  0  0  0  0
  160.0220  211.7010  139.8990 C   0  0  0  0  0  2  0  0  0  0  0  0
  162.2650  210.9580  140.0930 C   0  0  2  0  0  3  0  0  0  0  0  0
  158.8110  214.4530  147.8400 N   0  0  0  0  0  1  0  0  0  0  0  0
  160.1170  214.0750  148.3910 C   0  0  0  0  0  2  0  0  0  0  0  0
  1 11  1  0  0  0  0
  2  1  1  0  0  0  0
  2  6  1  0  0  0  0
  3  4  1  1  0  0  0
  3  8  1  0  0  0  0
  5  6  2  0  0  0  0
  5 10  1  0  0  0  0
  6  3  1  0  0  0  0
  7  4  2  0  0  0  0
  9  8  1  0  0  0  0
  9 17  1  0  0  0  0
 10  9  2  0  0  0  0
 11 12  1  6  0  0  0
 11  7  1  0  0  0  0
 12 13  2  0  0  0  0
 14 16  1  0  0  0  0
 14 12  1  0  0  0  0
 15 16  1  0  0  0  0
 17 18  1  0  0  0  0
 18 19  1  6  0  0  0
 18 21  1  0  0  0  0
 21 20  1  1  0  0  0
 21 23  1  0  0  0  0
 23 24  1  0  0  0  0
 23 22  2  0  0  0  0
 25 27  1  0  0  0  0
 25 24  1  0  0  0  0
 27 26  1  0  0  0  0
 27 28  1  0  0  0  0
 29 27  2  0  0  0  0
 30 10  1  0  0  0  0
 31 30  1  0  0  0  0
 32 48  1  1  0  0  0
 32 31  1  0  0  0  0
 33 32  1  0  0  0  0
 35 34  2  0  0  0  0
 35 33  1  0  0  0  0
 36 35  1  0  0  0  0
 37 36  1  0  0  0  0
 38 45  1  0  0  0  0
 38 42  1  0  0  0  0
 42 39  1  6  0  0  0
 42 46  1  0  0  0  0
 43 44  1  0  0  0  0
 44 41  2  0  0  0  0
 44 37  1  0  0  0  0
 45 43  1  0  0  0  0
 46 40  1  6  0  0  0
 46 43  1  0  0  0  0
 47 48  1  0  0  0  0
M  END
>  <MODEL>
2

>  <REMARK>
 VINA RESULT:      -6.3      1.665      2.195
  Name = 
  18 active torsions:
  status: ('A' for Active; 'I' for Inactive)
    1  A    between atoms: C_4  and  C_27
    2  A    between atoms: C_4  and  C_45
    3  A    between atoms: S_9  and  C_44
    4  A    between atoms: S_9  and  C_47
    5  A    between atoms: N_10  and  C_47
    6  A    between atoms: C_11  and  O_23
    7  A    between atoms: C_11  and  C_46
    8  A    between atoms: C_12  and  N_22
    9  A    between atoms: C_12  and  C_27
   10  A    between atoms: C_17  and  O_23
   11  A    between atoms: N_22  and  C_39
   12  A    between atoms: C_28  and  C_29
   13  A    between atoms: C_28  and  C_41
   14  A    between atoms: O_30  and  P_34
   15  A    between atoms: O_30  and  C_45
   16  A    between atoms: C_33  and  C_41
   17  A    between atoms: C_43  and  C_44
   18  A    between atoms: C_47  and  C_48
                            x       y       z     vdW  Elec       q    Type
                         _______ _______ _______ _____ _____    ______ ____

>  <TORSDO>
F 18

$$$$
=
 OpenBabel11052410103D

 48 50  0  0  1  0  0  0  0  0999 V2000
  161.8780  205.1300  145.7350 N   0  0  0  0  0  2  0  0  0  0  0  0
  162.5040  206.2110  146.4440 C   0  0  0  0  0  2  0  0  0  0  0  0
  161.3390  205.6240  148.5770 C   0  0  2  0  0  3  0  0  0  0  0  0
  161.7210  204.2070  148.5980 C   0  0  0  0  0  3  0  0  0  0  0  0
  162.3600  207.9150  148.1930 C   0  0  0  0  0  3  0  0  0  0  0  0
  162.2250  206.5070  147.7320 C   0  0  0  0  0  0  0  0  0  0  0  0
  161.6310  203.4730  147.5090 C   0  0  0  0  0  3  0  0  0  0  0  0
  161.0560  206.1400  149.9420 C   0  0  0  0  0  2  0  0  0  0  0  0
  161.0520  207.4180  150.2460 C   0  0  0  0  0  0  0  0  0  0  0  0
  161.8520  208.3790  149.3740 C   0  0  0  0  0  0  0  0  0  0  0  0
  161.3000  204.0240  146.1910 C   0  0  2  0  0  3  0  0  0  0  0  0
  160.3680  203.2600  145.3520 C   0  0  0  0  0  0  0  0  0  0  0  0
  159.9680  203.7320  144.2510 O   0  0  0  0  0  0  0  0  0  0  0  0
  159.9180  201.9770  145.7340 O   0  0  0  0  0  0  0  0  0  0  0  0
  160.9360  199.7900  145.7090 C   0  0  0  0  0  1  0  0  0  0  0  0
  160.1680  200.8300  144.9250 C   0  0  0  0  0  2  0  0  0  0  0  0
  160.5110  207.6840  151.5920 N   0  0  0  0  0  2  0  0  0  0  0  0
  160.8150  207.2230  152.9670 C   0  0  1  0  0  3  0  0  0  0  0  0
  162.1870  206.5260  153.1040 C   0  0  0  0  0  1  0  0  0  0  0  0
  161.5450  208.1840  155.0730 O   0  0  0  0  0  1  0  0  0  0  0  0
  160.7280  208.4110  153.9580 C   0  0  1  0  0  3  0  0  0  0  0  0
  162.3130  209.9360  152.9790 O   0  0  0  0  0  0  0  0  0  0  0  0
  161.1380  209.6780  153.2560 C   0  0  0  0  0  0  0  0  0  0  0  0
  160.0880  210.7000  152.9240 C   0  0  0  0  0  2  0  0  0  0  0  0
  160.4010  211.9230  153.5410 O   0  0  0  0  0  0  0  0  0  0  0  0
  159.3970  213.3490  155.7820 O   0  0  0  0  0  1  0  0  0  0  0  0
  159.0190  212.3110  154.4730 P   0  0  0  0  0  0  0  0  0  0  0  0
  158.4660  211.0130  155.0410 O   0  0  0  0  0  1  0  0  0  0  0  0
  157.8190  213.0400  153.5020 O   0  0  0  0  0  0  0  0  0  0  0  0
  161.8920  209.8480  149.6910 C   0  0  0  0  0  2  0  0  0  0  0  0
  162.5440  210.7860  148.2710 S   0  0  0  0  0  0  0  0  0  0  0  0
  161.1400  211.9180  147.8920 C   0  0  2  0  0  3  0  0  0  0  0  0
  161.4160  212.6180  146.6480 N   0  0  0  0  0  2  0  0  0  0  0  0
  159.2900  212.1750  145.8060 O   0  0  0  0  0  0  0  0  0  0  0  0
  160.3040  212.9470  145.8020 C   0  0  0  0  0  0  0  0  0  0  0  0
  160.4790  213.9370  144.6980 C   0  0  0  0  0  2  0  0  0  0  0  0
  161.1320  213.2420  143.4930 C   0  0  0  0  0  2  0  0  0  0  0  0
  161.9990  211.8880  139.6570 C   0  0  0  0  0  2  0  0  0  0  0  0
  160.5090  213.1330  137.8940 C   0  0  0  0  0  1  0  0  0  0  0  0
  159.1420  210.8140  139.5650 C   0  0  0  0  0  1  0  0  0  0  0  0
  158.9830  213.4470  142.4840 O   0  0  0  0  0  0  0  0  0  0  0  0
  160.7970  212.7780  139.3660 C   0  0  1  0  0  3  0  0  0  0  0  0
  160.3820  211.8890  141.4470 N   0  0  0  0  0  0  0  0  0  0  0  0
  160.1000  212.8400  142.4850 C   0  0  0  0  0  0  0  0  0  0  0  0
  161.7870  211.5220  141.1300 C   0  0  0  0  0  2  0  0  0  0  0  0
  159.6990  212.1210  140.1800 C   0  0  2  0  0  3  0  0  0  0  0  0
  161.6800  214.1540  148.7270 N   0  0  0  0  0  1  0  0  0  0  0  0
  160.9110  212.9390  149.0180 C   0  0  0  0  0  2  0  0  0  0  0  0
  1 11  1  0  0  0  0
  1  2  1  0  0  0  0
  2  6  1  0  0  0  0
  3  4  1  1  0  0  0
  3  8  1  0  0  0  0
  5 10  1  0  0  0  0
  6  5  2  0  0  0  0
  6  3  1  0  0  0  0
  7  4  2  0  0  0  0
  8  9  1  0  0  0  0
  9 17  1  0  0  0  0
 10 30  1  0  0  0  0
 10  9  2  0  0  0  0
 11 12  1  6  0  0  0
 11  7  1  0  0  0  0
 12 14  1  0  0  0  0
 13 12  2  0  0  0  0
 16 15  1  0  0  0  0
 16 14  1  0  0  0  0
 17 18  1  0  0  0  0
 18 19  1  6  0  0  0
 18 21  1  0  0  0  0
 21 20  1  1  0  0  0
 22 23  2  0  0  0  0
 23 21  1  0  0  0  0
 24 23  1  0  0  0  0
 24 25  1  0  0  0  0
 25 27  1  0  0  0  0
 27 28  1  0  0  0  0
 27 26  1  0  0  0  0
 29 27  2  0  0  0  0
 31 30  1  0  0  0  0
 32 31  1  0  0  0  0
 32 48  1  1  0  0  0
 33 32  1  0  0  0  0
 35 34  2  0  0  0  0
 35 33  1  0  0  0  0
 36 35  1  0  0  0  0
 37 36  1  0  0  0  0
 38 45  1  0  0  0  0
 41 44  2  0  0  0  0
 42 39  1  6  0  0  0
 42 38  1  0  0  0  0
 42 46  1  0  0  0  0
 43 44  1  0  0  0  0
 44 37  1  0  0  0  0
 45 43  1  0  0  0  0
 46 40  1  6  0  0  0
 46 43  1  0  0  0  0
 47 48  1  0  0  0  0
M  END
>  <MODEL>
3

>  <REMARK>
 VINA RESULT:      -6.1      1.740      2.536
  Name = 
  18 active torsions:
  status: ('A' for Active; 'I' for Inactive)
    1  A    between atoms: C_4  and  C_27
    2  A    between atoms: C_4  and  C_45
    3  A    between atoms: S_9  and  C_44
    4  A    between atoms: S_9  and  C_47
    5  A    between atoms: N_10  and  C_47
    6  A    between atoms: C_11  and  O_23
    7  A    between atoms: C_11  and  C_46
    8  A    between atoms: C_12  and  N_22
    9  A    between atoms: C_12  and  C_27
   10  A    between atoms: C_17  and  O_23
   11  A    between atoms: N_22  and  C_39
   12  A    between atoms: C_28  and  C_29
   13  A    between atoms: C_28  and  C_41
   14  A    between atoms: O_30  and  P_34
   15  A    between atoms: O_30  and  C_45
   16  A    between atoms: C_33  and  C_41
   17  A    between atoms: C_43  and  C_44
   18  A    between atoms: C_47  and  C_48
                            x       y       z     vdW  Elec       q    Type
                         _______ _______ _______ _____ _____    ______ ____

>  <TORSDO>
F 18

$$$$
=
 OpenBabel11052410103D

 48 50  0  0  1  0  0  0  0  0999 V2000
  161.8070  206.0090  148.9820 N   0  0  0  0  0  2  0  0  0  0  0  0
  162.3220  207.3140  148.6760 C   0  0  0  0  0  2  0  0  0  0  0  0
  161.5830  208.2360  150.8790 C   0  0  2  0  0  3  0  0  0  0  0  0
  162.2110  207.2060  151.7160 C   0  0  0  0  0  3  0  0  0  0  0  0
  162.1180  209.7410  148.9070 C   0  0  0  0  0  3  0  0  0  0  0  0
  162.1740  208.3760  149.4980 C   0  0  0  0  0  0  0  0  0  0  0  0
  162.1040  205.9320  151.4020 C   0  0  0  0  0  3  0  0  0  0  0  0
  161.4040  209.5130  151.6180 C   0  0  0  0  0  2  0  0  0  0  0  0
  161.2150  210.6710  151.0260 C   0  0  0  0  0  0  0  0  0  0  0  0
  161.7030  210.8470  149.5940 C   0  0  0  0  0  0  0  0  0  0  0  0
  161.5020  205.4580  150.1520 C   0  0  2  0  0  3  0  0  0  0  0  0
  160.6160  204.2900  150.2280 C   0  0  0  0  0  0  0  0  0  0  0  0
  160.0130  204.0160  151.3040 O   0  0  0  0  0  0  0  0  0  0  0  0
  160.3920  203.4620  149.1060 O   0  0  0  0  0  0  0  0  0  0  0  0
  161.5330  201.3730  148.7080 C   0  0  0  0  0  1  0  0  0  0  0  0
  160.2860  202.0460  149.2370 C   0  0  0  0  0  2  0  0  0  0  0  0
  160.8250  211.7370  151.9680 N   0  0  0  0  0  2  0  0  0  0  0  0
  159.6530  212.0120  152.8320 C   0  0  1  0  0  3  0  0  0  0  0  0
  158.5560  210.9260  152.7620 C   0  0  0  0  0  1  0  0  0  0  0  0
  159.7380  213.4730  154.7690 O   0  0  0  0  0  1  0  0  0  0  0  0
  160.1090  212.2060  154.3000 C   0  0  1  0  0  3  0  0  0  0  0  0
  158.2850  211.0600  155.3780 O   0  0  0  0  0  0  0  0  0  0  0  0
  159.4980  211.1300  155.1590 C   0  0  0  0  0  0  0  0  0  0  0  0
  160.4010  210.1290  155.8240 C   0  0  0  0  0  2  0  0  0  0  0  0
  159.6590  208.9990  156.2060 O   0  0  0  0  0  0  0  0  0  0  0  0
  161.1710  207.0480  154.8000 O   0  0  0  0  0  0  0  0  0  0  0  0
  160.8090  207.7370  156.3260 P   0  0  0  0  0  0  0  0  0  0  0  0
  160.2120  206.6500  157.2080 O   0  0  0  0  0  1  0  0  0  0  0  0
  162.2500  208.2990  157.0480 O   0  0  0  0  0  1  0  0  0  0  0  0
  161.5250  212.1590  148.8800 C   0  0  0  0  0  2  0  0  0  0  0  0
  162.7490  212.3220  147.5390 S   0  0  0  0  0  0  0  0  0  0  0  0
  161.9340  213.5500  146.4330 C   0  0  2  0  0  3  0  0  0  0  0  0
  161.1440  212.8430  145.4390 N   0  0  0  0  0  2  0  0  0  0  0  0
  159.1520  213.2660  146.5690 O   0  0  0  0  0  0  0  0  0  0  0  0
  159.7210  213.0330  145.4530 C   0  0  0  0  0  0  0  0  0  0  0  0
  158.9040  212.6090  144.2770 C   0  0  0  0  0  2  0  0  0  0  0  0
  159.0380  213.6580  143.1620 C   0  0  0  0  0  2  0  0  0  0  0  0
  162.2870  211.9320  141.2220 C   0  0  0  0  0  2  0  0  0  0  0  0
  162.4070  212.7580  138.7350 C   0  0  0  0  0  1  0  0  0  0  0  0
  160.2600  210.5300  139.4190 C   0  0  0  0  0  1  0  0  0  0  0  0
  158.1580  213.4790  140.9540 O   0  0  0  0  0  0  0  0  0  0  0  0
  161.6110  212.6310  140.0490 C   0  0  1  0  0  3  0  0  0  0  0  0
  159.8830  211.9750  141.4200 N   0  0  0  0  0  0  0  0  0  0  0  0
  158.9720  213.0120  141.8110 C   0  0  0  0  0  0  0  0  0  0  0  0
  161.1260  211.7360  142.2020 C   0  0  0  0  0  2  0  0  0  0  0  0
  160.2510  211.9610  140.0100 C   0  0  2  0  0  3  0  0  0  0  0  0
  163.1940  213.9470  144.3730 N   0  0  0  0  0  1  0  0  0  0  0  0
  162.9600  214.4530  145.7300 C   0  0  0  0  0  2  0  0  0  0  0  0
  1 11  1  0  0  0  0
  2  1  1  0  0  0  0
  2  6  1  0  0  0  0
  3  8  1  1  0  0  0
  3  4  1  0  0  0  0
  5  6  2  0  0  0  0
  5 10  1  0  0  0  0
  6  3  1  0  0  0  0
  7  4  2  0  0  0  0
  9  8  1  0  0  0  0
  9 17  1  0  0  0  0
 10  9  2  0  0  0  0
 11 12  1  6  0  0  0
 11  7  1  0  0  0  0
 12 13  2  0  0  0  0
 14 16  1  0  0  0  0
 14 12  1  0  0  0  0
 15 16  1  0  0  0  0
 17 18  1  0  0  0  0
 18 19  1  1  0  0  0
 18 21  1  0  0  0  0
 21 20  1  1  0  0  0
 21 23  1  0  0  0  0
 23 22  2  0  0  0  0
 23 24  1  0  0  0  0
 24 25  1  0  0  0  0
 25 27  1  0  0  0  0
 26 27  2  0  0  0  0
 27 29  1  0  0  0  0
 27 28  1  0  0  0  0
 30 10  1  0  0  0  0
 31 30  1  0  0  0  0
 32 48  1  6  0  0  0
 32 31  1  0  0  0  0
 33 35  1  0  0  0  0
 33 32  1  0  0  0  0
 35 34  2  0  0  0  0
 36 35  1  0  0  0  0
 37 36  1  0  0  0  0
 38 45  1  0  0  0  0
 41 44  2  0  0  0  0
 42 39  1  6  0  0  0
 42 38  1  0  0  0  0
 43 44  1  0  0  0  0
 43 45  1  0  0  0  0
 44 37  1  0  0  0  0
 46 40  1  1  0  0  0
 46 42  1  0  0  0  0
 46 43  1  0  0  0  0
 47 48  1  0  0  0  0
M  END
>  <MODEL>
4

>  <REMARK>
 VINA RESULT:      -5.3      1.969      3.197
  Name = 
  18 active torsions:
  status: ('A' for Active; 'I' for Inactive)
    1  A    between atoms: C_4  and  C_27
    2  A    between atoms: C_4  and  C_45
    3  A    between atoms: S_9  and  C_44
    4  A    between atoms: S_9  and  C_47
    5  A    between atoms: N_10  and  C_47
    6  A    between atoms: C_11  and  O_23
    7  A    between atoms: C_11  and  C_46
    8  A    between atoms: C_12  and  N_22
    9  A    between atoms: C_12  and  C_27
   10  A    between atoms: C_17  and  O_23
   11  A    between atoms: N_22  and  C_39
   12  A    between atoms: C_28  and  C_29
   13  A    between atoms: C_28  and  C_41
   14  A    between atoms: O_30  and  P_34
   15  A    between atoms: O_30  and  C_45
   16  A    between atoms: C_33  and  C_41
   17  A    between atoms: C_43  and  C_44
   18  A    between atoms: C_47  and  C_48
                            x       y       z     vdW  Elec       q    Type
                         _______ _______ _______ _____ _____    ______ ____

>  <TORSDO>
F 18

$$$$
=
 OpenBabel11052410103D

 48 50  0  0  1  0  0  0  0  0999 V2000
  162.0330  205.0840  148.3430 N   0  0  0  0  0  2  0  0  0  0  0  0
  161.5940  205.8260  149.4910 C   0  0  0  0  0  2  0  0  0  0  0  0
  161.7120  207.9990  148.2600 C   0  0  2  0  0  3  0  0  0  0  0  0
  160.9040  207.5870  147.1060 C   0  0  0  0  0  3  0  0  0  0  0  0
  161.6890  207.8930  150.7950 C   0  0  0  0  0  3  0  0  0  0  0  0
  161.5030  207.1740  149.5060 C   0  0  0  0  0  0  0  0  0  0  0  0
  161.1120  206.4240  146.5250 C   0  0  0  0  0  3  0  0  0  0  0  0
  161.6690  209.4700  148.4670 C   0  0  0  0  0  2  0  0  0  0  0  0
  161.9880  210.0510  149.6010 C   0  0  0  0  0  0  0  0  0  0  0  0
  161.8900  209.2420  150.8890 C   0  0  0  0  0  0  0  0  0  0  0  0
  162.0290  205.4100  147.0550 C   0  0  2  0  0  3  0  0  0  0  0  0
  162.8840  204.7030  146.0940 C   0  0  0  0  0  0  0  0  0  0  0  0
  164.1030  204.4990  146.3560 O   0  0  0  0  0  0  0  0  0  0  0  0
  162.3700  204.2110  144.8740 O   0  0  0  0  0  0  0  0  0  0  0  0
  160.0330  203.9460  144.3350 C   0  0  0  0  0  1  0  0  0  0  0  0
  161.2570  204.8300  144.2340 C   0  0  0  0  0  2  0  0  0  0  0  0
  162.0980  211.5160  149.4820 N   0  0  0  0  0  2  0  0  0  0  0  0
  161.4920  212.5590  148.6200 C   0  0  1  0  0  3  0  0  0  0  0  0
  160.6170  213.5740  149.3900 C   0  0  0  0  0  1  0  0  0  0  0  0
  163.8410  212.6920  148.0250 O   0  0  0  0  0  1  0  0  0  0  0  0
  162.5970  213.3080  147.8340 C   0  0  1  0  0  3  0  0  0  0  0  0
  163.0750  213.1350  145.4800 O   0  0  0  0  0  0  0  0  0  0  0  0
  162.2420  213.3300  146.3710 C   0  0  0  0  0  0  0  0  0  0  0  0
  160.8310  213.6540  145.9680 C   0  0  0  0  0  2  0  0  0  0  0  0
  160.2390  212.5330  145.3620 O   0  0  0  0  0  0  0  0  0  0  0  0
  160.8680  214.3780  143.2960 O   0  0  0  0  0  1  0  0  0  0  0  0
  159.9320  213.0170  143.7500 P   0  0  0  0  0  0  0  0  0  0  0  0
  158.4620  213.3990  143.6550 O   0  0  0  0  0  1  0  0  0  0  0  0
  160.2360  211.7350  142.6650 O   0  0  0  0  0  0  0  0  0  0  0  0
  162.2270  209.8670  152.2140 C   0  0  0  0  0  2  0  0  0  0  0  0
  160.8780  209.5900  153.4080 S   0  0  0  0  0  0  0  0  0  0  0  0
  161.5020  208.1340  154.3500 C   0  0  2  0  0  3  0  0  0  0  0  0
  160.7870  206.9450  153.9140 N   0  0  0  0  0  2  0  0  0  0  0  0
  162.6660  206.0840  152.8390 O   0  0  0  0  0  0  0  0  0  0  0  0
  161.5610  205.8390  153.4250 C   0  0  0  0  0  0  0  0  0  0  0  0
  160.9250  204.4960  153.2790 C   0  0  0  0  0  2  0  0  0  0  0  0
  161.4710  203.8110  152.0170 C   0  0  0  0  0  2  0  0  0  0  0  0
  161.6770  200.8020  149.1520 C   0  0  0  0  0  2  0  0  0  0  0  0
  160.8240  201.6900  146.8360 C   0  0  0  0  0  1  0  0  0  0  0  0
  158.6310  200.9570  149.0040 C   0  0  0  0  0  1  0  0  0  0  0  0
  159.5920  204.3890  150.6700 O   0  0  0  0  0  0  0  0  0  0  0  0
  160.9480  201.8810  148.3610 C   0  0  1  0  0  3  0  0  0  0  0  0
  160.2160  202.1420  150.5270 N   0  0  0  0  0  0  0  0  0  0  0  0
  160.3590  203.4600  151.0760 C   0  0  0  0  0  0  0  0  0  0  0  0
  161.3430  201.1740  150.6000 C   0  0  0  0  0  2  0  0  0  0  0  0
  159.6830  202.0820  149.1710 C   0  0  2  0  0  3  0  0  0  0  0  0
  160.1470  207.5570  156.3040 N   0  0  0  0  0  1  0  0  0  0  0  0
  161.3230  208.3170  155.8650 C   0  0  0  0  0  2  0  0  0  0  0  0
  1  2  1  0  0  0  0
  2  6  1  0  0  0  0
  3  4  1  6  0  0  0
  3  8  1  0  0  0  0
  3  6  1  0  0  0  0
  5 10  1  0  0  0  0
  6  5  2  0  0  0  0
  7 11  1  0  0  0  0
  7  4  2  0  0  0  0
  8  9  1  0  0  0  0
  9 10  2  0  0  0  0
 10 30  1  0  0  0  0
 11 12  1  6  0  0  0
 11  1  1  0  0  0  0
 12 13  2  0  0  0  0
 14 12  1  0  0  0  0
 16 15  1  0  0  0  0
 16 14  1  0  0  0  0
 17  9  1  0  0  0  0
 18 19  1  1  0  0  0
 18 17  1  0  0  0  0
 21 20  1  6  0  0  0
 21 18  1  0  0  0  0
 22 23  2  0  0  0  0
 23 21  1  0  0  0  0
 24 23  1  0  0  0  0
 25 24  1  0  0  0  0
 26 27  1  0  0  0  0
 27 25  1  0  0  0  0
 28 27  1  0  0  0  0
 29 27  2  0  0  0  0
 30 31  1  0  0  0  0
 31 32  1  0  0  0  0
 32 48  1  1  0  0  0
 33 32  1  0  0  0  0
 34 35  2  0  0  0  0
 35 33  1  0  0  0  0
 36 35  1  0  0  0  0
 37 36  1  0  0  0  0
 38 45  1  0  0  0  0
 41 44  2  0  0  0  0
 42 39  1  6  0  0  0
 42 38  1  0  0  0  0
 42 46  1  0  0  0  0
 43 45  1  0  0  0  0
 43 44  1  0  0  0  0
 44 37  1  0  0  0  0
 46 40  1  1  0  0  0
 46 43  1  0  0  0  0
 48 47  1  0  0  0  0
M  END
>  <MODEL>
5

>  <REMARK>
 VINA RESULT:      -5.0      4.264      8.997
  Name = 
  18 active torsions:
  status: ('A' for Active; 'I' for Inactive)
    1  A    between atoms: C_4  and  C_27
    2  A    between atoms: C_4  and  C_45
    3  A    between atoms: S_9  and  C_44
    4  A    between atoms: S_9  and  C_47
    5  A    between atoms: N_10  and  C_47
    6  A    between atoms: C_11  and  O_23
    7  A    between atoms: C_11  and  C_46
    8  A    between atoms: C_12  and  N_22
    9  A    between atoms: C_12  and  C_27
   10  A    between atoms: C_17  and  O_23
   11  A    between atoms: N_22  and  C_39
   12  A    between atoms: C_28  and  C_29
   13  A    between atoms: C_28  and  C_41
   14  A    between atoms: O_30  and  P_34
   15  A    between atoms: O_30  and  C_45
   16  A    between atoms: C_33  and  C_41
   17  A    between atoms: C_43  and  C_44
   18  A    between atoms: C_47  and  C_48
                            x       y       z     vdW  Elec       q    Type
                         _______ _______ _______ _____ _____    ______ ____

>  <TORSDO>
F 18

$$$$
=
 OpenBabel11052410103D

 48 50  0  0  1  0  0  0  0  0999 V2000
  158.8720  213.9140  154.1240 N   0  0  0  0  0  2  0  0  0  0  0  0
  158.9750  213.7960  152.6970 C   0  0  0  0  0  2  0  0  0  0  0  0
  159.9810  211.5120  152.8550 C   0  0  2  0  0  3  0  0  0  0  0  0
  158.9510  210.9300  153.7240 C   0  0  0  0  0  3  0  0  0  0  0  0
  160.1940  212.9300  150.7610 C   0  0  0  0  0  3  0  0  0  0  0  0
  159.5430  212.7340  152.0850 C   0  0  0  0  0  0  0  0  0  0  0  0
  158.5090  211.5900  154.7740 C   0  0  0  0  0  3  0  0  0  0  0  0
  160.6720  210.4740  152.0460 C   0  0  0  0  0  2  0  0  0  0  0  0
  161.3550  210.7420  150.9560 C   0  0  0  0  0  0  0  0  0  0  0  0
  161.0260  212.0130  150.1820 C   0  0  0  0  0  0  0  0  0  0  0  0
  158.8810  212.9780  155.0680 C   0  0  2  0  0  3  0  0  0  0  0  0
  159.1790  213.3170  156.4650 C   0  0  0  0  0  0  0  0  0  0  0  0
  158.6740  214.3490  156.9910 O   0  0  0  0  0  0  0  0  0  0  0  0
  160.0070  212.4960  157.2610 O   0  0  0  0  0  0  0  0  0  0  0  0
  161.7870  211.1040  156.4160 C   0  0  0  0  0  1  0  0  0  0  0  0
  160.3430  211.1690  156.8620 C   0  0  0  0  0  2  0  0  0  0  0  0
  162.1400  209.5900  150.4760 N   0  0  0  0  0  2  0  0  0  0  0  0
  161.8750  208.4050  149.6260 C   0  0  1  0  0  3  0  0  0  0  0  0
  162.6190  208.4290  148.2720 C   0  0  0  0  0  1  0  0  0  0  0  0
  162.2140  207.3370  151.7780 O   0  0  0  0  0  1  0  0  0  0  0  0
  162.2260  207.1080  150.3960 C   0  0  1  0  0  3  0  0  0  0  0  0
  160.8280  205.2010  150.8530 O   0  0  0  0  0  0  0  0  0  0  0  0
  161.2400  206.0290  150.0350 C   0  0  0  0  0  0  0  0  0  0  0  0
  160.7730  205.9160  148.6110 C   0  0  0  0  0  2  0  0  0  0  0  0
  160.8140  204.5730  148.2010 O   0  0  0  0  0  0  0  0  0  0  0  0
  160.7010  205.6870  145.5910 O   0  0  0  0  0  0  0  0  0  0  0  0
  161.5200  204.6100  146.6420 P   0  0  0  0  0  0  0  0  0  0  0  0
  161.4200  203.2090  146.0570 O   0  0  0  0  0  1  0  0  0  0  0  0
  163.1660  205.0510  146.7330 O   0  0  0  0  0  1  0  0  0  0  0  0
  161.7680  212.3540  148.9200 C   0  0  0  0  0  2  0  0  0  0  0  0
  160.8680  211.7250  147.4650 S   0  0  0  0  0  0  0  0  0  0  0  0
  160.7820  213.2250  146.3980 C   0  0  2  0  0  3  0  0  0  0  0  0
  160.7280  212.8140  145.0050 N   0  0  0  0  0  2  0  0  0  0  0  0
  158.4130  212.5600  145.0630 O   0  0  0  0  0  0  0  0  0  0  0  0
  159.4460  212.8050  144.3580 C   0  0  0  0  0  0  0  0  0  0  0  0
  159.3670  212.7170  142.8690 C   0  0  0  0  0  2  0  0  0  0  0  0
  160.4780  213.5800  142.2510 C   0  0  0  0  0  2  0  0  0  0  0  0
  159.7140  211.5210  138.7190 C   0  0  0  0  0  2  0  0  0  0  0  0
  160.5490  209.0420  138.9110 C   0  0  0  0  0  1  0  0  0  0  0  0
  162.7400  211.2730  138.3980 C   0  0  0  0  0  1  0  0  0  0  0  0
  162.3410  212.0930  142.2240 O   0  0  0  0  0  0  0  0  0  0  0  0
  160.5360  210.4790  139.4680 C   0  0  1  0  0  3  0  0  0  0  0  0
  161.4150  212.5040  140.1190 N   0  0  0  0  0  0  0  0  0  0  0  0
  161.4800  212.7260  141.5350 C   0  0  0  0  0  0  0  0  0  0  0  0
  160.1740  212.8300  139.3660 C   0  0  0  0  0  2  0  0  0  0  0  0
  161.8600  211.1900  139.6690 C   0  0  2  0  0  3  0  0  0  0  0  0
  162.8080  214.1670  145.3980 N   0  0  0  0  0  1  0  0  0  0  0  0
  161.9910  214.1490  146.6170 C   0  0  0  0  0  2  0  0  0  0  0  0
  1 11  1  0  0  0  0
  2  1  1  0  0  0  0
  3  8  1  6  0  0  0
  3  4  1  0  0  0  0
  4  7  2  0  0  0  0
  5  6  2  0  0  0  0
  6  2  1  0  0  0  0
  6  3  1  0  0  0  0
  7 11  1  0  0  0  0
  9  8  1  0  0  0  0
 10  5  1  0  0  0  0
 10  9  2  0  0  0  0
 11 12  1  1  0  0  0
 12 13  2  0  0  0  0
 12 14  1  0  0  0  0
 15 16  1  0  0  0  0
 16 14  1  0  0  0  0
 17  9  1  0  0  0  0
 18 19  1  6  0  0  0
 18 21  1  0  0  0  0
 18 17  1  0  0  0  0
 21 20  1  1  0  0  0
 23 21  1  0  0  0  0
 23 22  2  0  0  0  0
 24 23  1  0  0  0  0
 25 24  1  0  0  0  0
 26 27  2  0  0  0  0
 27 29  1  0  0  0  0
 27 25  1  0  0  0  0
 28 27  1  0  0  0  0
 30 10  1  0  0  0  0
 31 30  1  0  0  0  0
 32 48  1  6  0  0  0
 32 31  1  0  0  0  0
 33 32  1  0  0  0  0
 35 33  1  0  0  0  0
 35 34  2  0  0  0  0
 36 35  1  0  0  0  0
 37 36  1  0  0  0  0
 38 45  1  0  0  0  0
 38 42  1  0  0  0  0
 42 39  1  6  0  0  0
 42 46  1  0  0  0  0
 43 44  1  0  0  0  0
 44 41  2  0  0  0  0
 44 37  1  0  0  0  0
 45 43  1  0  0  0  0
 46 40  1  6  0  0  0
 46 43  1  0  0  0  0
 47 48  1  0  0  0  0
M  END
>  <MODEL>
6

>  <REMARK>
 VINA RESULT:      -4.9      2.996      7.559
  Name = 
  18 active torsions:
  status: ('A' for Active; 'I' for Inactive)
    1  A    between atoms: C_4  and  C_27
    2  A    between atoms: C_4  and  C_45
    3  A    between atoms: S_9  and  C_44
    4  A    between atoms: S_9  and  C_47
    5  A    between atoms: N_10  and  C_47
    6  A    between atoms: C_11  and  O_23
    7  A    between atoms: C_11  and  C_46
    8  A    between atoms: C_12  and  N_22
    9  A    between atoms: C_12  and  C_27
   10  A    between atoms: C_17  and  O_23
   11  A    between atoms: N_22  and  C_39
   12  A    between atoms: C_28  and  C_29
   13  A    between atoms: C_28  and  C_41
   14  A    between atoms: O_30  and  P_34
   15  A    between atoms: O_30  and  C_45
   16  A    between atoms: C_33  and  C_41
   17  A    between atoms: C_43  and  C_44
   18  A    between atoms: C_47  and  C_48
                            x       y       z     vdW  Elec       q    Type
                         _______ _______ _______ _____ _____    ______ ____

>  <TORSDO>
F 18

$$$$
=
 OpenBabel11052410103D

 48 50  0  0  1  0  0  0  0  0999 V2000
  162.3540  206.2820  149.6160 N   0  0  0  0  0  2  0  0  0  0  0  0
  162.6840  207.6790  149.6440 C   0  0  0  0  0  2  0  0  0  0  0  0
  161.1300  208.1120  151.5540 C   0  0  2  0  0  3  0  0  0  0  0  0
  161.6450  207.0590  152.4380 C   0  0  0  0  0  3  0  0  0  0  0  0
  161.9630  209.9810  150.0530 C   0  0  0  0  0  3  0  0  0  0  0  0
  162.0870  208.5600  150.4770 C   0  0  0  0  0  0  0  0  0  0  0  0
  161.8840  205.8520  151.9710 C   0  0  0  0  0  3  0  0  0  0  0  0
  160.4900  209.2120  152.3220 C   0  0  0  0  0  2  0  0  0  0  0  0
  160.2810  210.4120  151.8300 C   0  0  0  0  0  0  0  0  0  0  0  0
  161.1530  210.8890  150.6740 C   0  0  0  0  0  0  0  0  0  0  0  0
  161.8070  205.5080  150.5480 C   0  0  2  0  0  3  0  0  0  0  0  0
  161.1790  204.2300  150.1930 C   0  0  0  0  0  0  0  0  0  0  0  0
  161.0310  203.3280  151.0660 O   0  0  0  0  0  0  0  0  0  0  0  0
  160.7030  203.9810  148.8870 O   0  0  0  0  0  0  0  0  0  0  0  0
  160.4040  201.5920  149.0500 C   0  0  0  0  0  1  0  0  0  0  0  0
  160.9490  202.7400  148.2300 C   0  0  0  0  0  2  0  0  0  0  0  0
  159.4220  211.2430  152.6930 N   0  0  0  0  0  2  0  0  0  0  0  0
  159.5720  212.5250  153.4200 C   0  0  1  0  0  3  0  0  0  0  0  0
  159.1820  213.7660  152.5860 C   0  0  0  0  0  1  0  0  0  0  0  0
  158.3730  211.1810  155.0470 O   0  0  0  0  0  1  0  0  0  0  0  0
  158.7470  212.4930  154.7310 C   0  0  1  0  0  3  0  0  0  0  0  0
  159.5340  214.2920  156.1250 O   0  0  0  0  0  0  0  0  0  0  0  0
  159.5610  213.0890  155.8490 C   0  0  0  0  0  0  0  0  0  0  0  0
  160.4880  212.2000  156.6300 C   0  0  0  0  0  2  0  0  0  0  0  0
  160.4520  210.8980  156.1060 O   0  0  0  0  0  0  0  0  0  0  0  0
  163.0730  211.4030  157.0790 O   0  0  0  0  0  1  0  0  0  0  0  0
  162.0770  210.3610  156.1530 P   0  0  0  0  0  0  0  0  0  0  0  0
  162.6000  210.3500  154.7240 O   0  0  0  0  0  0  0  0  0  0  0  0
  162.1730  208.7780  156.7840 O   0  0  0  0  0  1  0  0  0  0  0  0
  160.9640  212.2610  150.0870 C   0  0  0  0  0  2  0  0  0  0  0  0
  162.2890  212.6270  148.8900 S   0  0  0  0  0  0  0  0  0  0  0  0
  161.3810  213.5860  147.6050 C   0  0  2  0  0  3  0  0  0  0  0  0
  160.6630  212.6630  146.7420 N   0  0  0  0  0  2  0  0  0  0  0  0
  158.8450  214.1050  146.5380 O   0  0  0  0  0  0  0  0  0  0  0  0
  159.5310  213.1660  146.0160 C   0  0  0  0  0  0  0  0  0  0  0  0
  158.9660  212.3760  144.8820 C   0  0  0  0  0  2  0  0  0  0  0  0
  158.9990  213.2290  143.6040 C   0  0  0  0  0  2  0  0  0  0  0  0
  158.2680  212.6200  139.5550 C   0  0  0  0  0  2  0  0  0  0  0  0
  159.1020  210.2430  138.8260 C   0  0  0  0  0  1  0  0  0  0  0  0
  161.2980  212.4980  139.1920 C   0  0  0  0  0  1  0  0  0  0  0  0
  160.8620  211.8500  143.0470 O   0  0  0  0  0  0  0  0  0  0  0  0
  159.0830  211.3730  139.8740 C   0  0  1  0  0  3  0  0  0  0  0  0
  159.9560  213.0110  141.2340 N   0  0  0  0  0  0  0  0  0  0  0  0
  160.0080  212.6960  142.6330 C   0  0  0  0  0  0  0  0  0  0  0  0
  158.7230  213.5970  140.6440 C   0  0  0  0  0  2  0  0  0  0  0  0
  160.4050  211.9560  140.3350 C   0  0  2  0  0  3  0  0  0  0  0  0
  162.6920  213.7150  145.5430 N   0  0  0  0  0  1  0  0  0  0  0  0
  162.3310  214.4500  146.7620 C   0  0  0  0  0  2  0  0  0  0  0  0
  1  2  1  0  0  0  0
  1 11  1  0  0  0  0
  2  6  1  0  0  0  0
  3  8  1  1  0  0  0
  3  4  1  0  0  0  0
  5  6  2  0  0  0  0
  5 10  1  0  0  0  0
  6  3  1  0  0  0  0
  7  4  2  0  0  0  0
  9  8  1  0  0  0  0
  9 17  1  0  0  0  0
 10  9  2  0  0  0  0
 11 12  1  1  0  0  0
 11  7  1  0  0  0  0
 12 13  2  0  0  0  0
 14 12  1  0  0  0  0
 16 14  1  0  0  0  0
 16 15  1  0  0  0  0
 17 18  1  0  0  0  0
 18 19  1  6  0  0  0
 18 21  1  0  0  0  0
 21 20  1  1  0  0  0
 21 23  1  0  0  0  0
 23 22  2  0  0  0  0
 23 24  1  0  0  0  0
 25 27  1  0  0  0  0
 25 24  1  0  0  0  0
 27 29  1  0  0  0  0
 27 26  1  0  0  0  0
 28 27  2  0  0  0  0
 30 10  1  0  0  0  0
 31 30  1  0  0  0  0
 32 48  1  6  0  0  0
 32 31  1  0  0  0  0
 33 32  1  0  0  0  0
 35 34  2  0  0  0  0
 35 33  1  0  0  0  0
 36 35  1  0  0  0  0
 37 36  1  0  0  0  0
 38 42  1  0  0  0  0
 38 45  1  0  0  0  0
 42 39  1  6  0  0  0
 42 46  1  0  0  0  0
 43 44  1  0  0  0  0
 44 41  2  0  0  0  0
 44 37  1  0  0  0  0
 45 43  1  0  0  0  0
 46 40  1  6  0  0  0
 46 43  1  0  0  0  0
 47 48  1  0  0  0  0
M  END
>  <MODEL>
7

>  <REMARK>
 VINA RESULT:      -4.5      1.861      2.920
  Name = 
  18 active torsions:
  status: ('A' for Active; 'I' for Inactive)
    1  A    between atoms: C_4  and  C_27
    2  A    between atoms: C_4  and  C_45
    3  A    between atoms: S_9  and  C_44
    4  A    between atoms: S_9  and  C_47
    5  A    between atoms: N_10  and  C_47
    6  A    between atoms: C_11  and  O_23
    7  A    between atoms: C_11  and  C_46
    8  A    between atoms: C_12  and  N_22
    9  A    between atoms: C_12  and  C_27
   10  A    between atoms: C_17  and  O_23
   11  A    between atoms: N_22  and  C_39
   12  A    between atoms: C_28  and  C_29
   13  A    between atoms: C_28  and  C_41
   14  A    between atoms: O_30  and  P_34
   15  A    between atoms: O_30  and  C_45
   16  A    between atoms: C_33  and  C_41
   17  A    between atoms: C_43  and  C_44
   18  A    between atoms: C_47  and  C_48
                            x       y       z     vdW  Elec       q    Type
                         _______ _______ _______ _____ _____    ______ ____

>  <TORSDO>
F 18

$$$$
=
 OpenBabel11052410103D

 48 50  0  0  1  0  0  0  0  0999 V2000
  159.3610  209.9200  156.6550 N   0  0  0  0  0  2  0  0  0  0  0  0
  160.3220  208.9400  156.2330 C   0  0  0  0  0  2  0  0  0  0  0  0
  160.4570  209.9120  153.9340 C   0  0  2  0  0  3  0  0  0  0  0  0
  160.7210  211.2960  154.3460 C   0  0  0  0  0  3  0  0  0  0  0  0
  161.2230  207.5450  154.4360 C   0  0  0  0  0  3  0  0  0  0  0  0
  160.7930  208.8660  154.9690 C   0  0  0  0  0  0  0  0  0  0  0  0
  160.0240  211.8490  155.3170 C   0  0  0  0  0  3  0  0  0  0  0  0
  160.9780  209.6350  152.5690 C   0  0  0  0  0  2  0  0  0  0  0  0
  161.2000  208.4230  152.1120 C   0  0  0  0  0  0  0  0  0  0  0  0
  161.4520  207.3000  153.1110 C   0  0  0  0  0  0  0  0  0  0  0  0
  159.0640  211.1090  156.1420 C   0  0  2  0  0  3  0  0  0  0  0  0
  157.7920  211.7710  156.4580 C   0  0  0  0  0  0  0  0  0  0  0  0
  157.7820  212.8650  157.0890 O   0  0  0  0  0  0  0  0  0  0  0  0
  156.5570  211.2230  156.0490 O   0  0  0  0  0  0  0  0  0  0  0  0
  156.4380  212.5770  154.0550 C   0  0  0  0  0  1  0  0  0  0  0  0
  156.1580  211.2280  154.6800 C   0  0  0  0  0  2  0  0  0  0  0  0
  161.4800  208.4010  150.6650 N   0  0  0  0  0  2  0  0  0  0  0  0
  162.1810  209.2870  149.7060 C   0  0  1  0  0  3  0  0  0  0  0  0
  162.3990  208.6540  148.3140 C   0  0  0  0  0  1  0  0  0  0  0  0
  161.4080  211.3250  150.7740 O   0  0  0  0  0  1  0  0  0  0  0  0
  161.4130  210.6250  149.5600 C   0  0  1  0  0  3  0  0  0  0  0  0
  163.2600  211.3930  148.2190 O   0  0  0  0  0  0  0  0  0  0  0  0
  162.0540  211.4540  148.4790 C   0  0  0  0  0  0  0  0  0  0  0  0
  161.2110  212.4370  147.7170 C   0  0  0  0  0  2  0  0  0  0  0  0
  160.5200  211.7750  146.6890 O   0  0  0  0  0  0  0  0  0  0  0  0
  161.9570  213.7770  145.2740 O   0  0  0  0  0  1  0  0  0  0  0  0
  160.4960  212.8890  145.3890 P   0  0  0  0  0  0  0  0  0  0  0  0
  159.3620  213.8710  145.6440 O   0  0  0  0  0  1  0  0  0  0  0  0
  160.2040  212.0870  143.9110 O   0  0  0  0  0  0  0  0  0  0  0  0
  161.7290  205.9000  152.6370 C   0  0  0  0  0  2  0  0  0  0  0  0
  160.7910  205.5490  151.1140 S   0  0  0  0  0  0  0  0  0  0  0  0
  161.5030  203.9300  150.5990 C   0  0  2  0  0  3  0  0  0  0  0  0
  160.8280  203.4760  149.3940 N   0  0  0  0  0  2  0  0  0  0  0  0
  162.2190  201.6190  149.1890 O   0  0  0  0  0  0  0  0  0  0  0  0
  161.0780  202.1340  148.9500 C   0  0  0  0  0  0  0  0  0  0  0  0
  160.1810  201.5090  147.9330 C   0  0  0  0  0  2  0  0  0  0  0  0
  160.9890  201.2050  146.6620 C   0  0  0  0  0  2  0  0  0  0  0  0
  162.1820  205.1890  146.7180 C   0  0  0  0  0  2  0  0  0  0  0  0
  160.1610  206.7530  146.1280 C   0  0  0  0  0  1  0  0  0  0  0  0
  161.5730  205.2450  143.7260 C   0  0  0  0  0  1  0  0  0  0  0  0
  159.5770  202.0860  144.9550 O   0  0  0  0  0  0  0  0  0  0  0  0
  160.7680  205.3370  146.1710 C   0  0  1  0  0  3  0  0  0  0  0  0
  161.5180  203.3310  145.3290 N   0  0  0  0  0  0  0  0  0  0  0  0
  160.6770  202.1960  145.5820 C   0  0  0  0  0  0  0  0  0  0  0  0
  162.5350  203.7490  146.3300 C   0  0  0  0  0  2  0  0  0  0  0  0
  160.8290  204.5370  144.8840 C   0  0  2  0  0  3  0  0  0  0  0  0
  160.0920  203.0790  152.4090 N   0  0  0  0  0  1  0  0  0  0  0  0
  161.3600  202.8680  151.7010 C   0  0  0  0  0  2  0  0  0  0  0  0
  2  1  1  0  0  0  0
  3  8  1  6  0  0  0
  3  4  1  0  0  0  0
  3  6  1  0  0  0  0
  4  7  2  0  0  0  0
  5  6  2  0  0  0  0
  6  2  1  0  0  0  0
  7 11  1  0  0  0  0
  9  8  1  0  0  0  0
  9 10  2  0  0  0  0
 10  5  1  0  0  0  0
 11 12  1  1  0  0  0
 11  1  1  0  0  0  0
 12 13  2  0  0  0  0
 14 12  1  0  0  0  0
 15 16  1  0  0  0  0
 16 14  1  0  0  0  0
 17  9  1  0  0  0  0
 18 19  1  6  0  0  0
 18 17  1  0  0  0  0
 21 18  1  0  0  0  0
 21 20  1  1  0  0  0
 22 23  2  0  0  0  0
 23 21  1  0  0  0  0
 24 23  1  0  0  0  0
 25 24  1  0  0  0  0
 26 27  1  0  0  0  0
 27 28  1  0  0  0  0
 27 25  1  0  0  0  0
 29 27  2  0  0  0  0
 30 10  1  0  0  0  0
 31 30  1  0  0  0  0
 32 31  1  0  0  0  0
 32 48  1  1  0  0  0
 33 32  1  0  0  0  0
 35 34  2  0  0  0  0
 35 33  1  0  0  0  0
 36 35  1  0  0  0  0
 37 36  1  0  0  0  0
 41 44  2  0  0  0  0
 42 39  1  6  0  0  0
 42 38  1  0  0  0  0
 43 44  1  0  0  0  0
 43 45  1  0  0  0  0
 44 37  1  0  0  0  0
 45 38  1  0  0  0  0
 46 40  1  6  0  0  0
 46 43  1  0  0  0  0
 46 42  1  0  0  0  0
 48 47  1  0  0  0  0
M  END
>  <MODEL>
8

>  <REMARK>
 VINA RESULT:      -4.5      4.015      9.221
  Name = 
  18 active torsions:
  status: ('A' for Active; 'I' for Inactive)
    1  A    between atoms: C_4  and  C_27
    2  A    between atoms: C_4  and  C_45
    3  A    between atoms: S_9  and  C_44
    4  A    between atoms: S_9  and  C_47
    5  A    between atoms: N_10  and  C_47
    6  A    between atoms: C_11  and  O_23
    7  A    between atoms: C_11  and  C_46
    8  A    between atoms: C_12  and  N_22
    9  A    between atoms: C_12  and  C_27
   10  A    between atoms: C_17  and  O_23
   11  A    between atoms: N_22  and  C_39
   12  A    between atoms: C_28  and  C_29
   13  A    between atoms: C_28  and  C_41
   14  A    between atoms: O_30  and  P_34
   15  A    between atoms: O_30  and  C_45
   16  A    between atoms: C_33  and  C_41
   17  A    between atoms: C_43  and  C_44
   18  A    between atoms: C_47  and  C_48
                            x       y       z     vdW  Elec       q    Type
                         _______ _______ _______ _____ _____    ______ ____

>  <TORSDO>
F 18

$$$$
=
 OpenBabel11052410103D

 48 50  0  0  1  0  0  0  0  0999 V2000
  161.4090  204.6110  148.1810 N   0  0  0  0  0  2  0  0  0  0  0  0
  161.0020  205.4010  149.3080 C   0  0  0  0  0  2  0  0  0  0  0  0
  161.5460  207.5410  148.1370 C   0  0  2  0  0  3  0  0  0  0  0  0
  160.7760  207.2710  146.9170 C   0  0  0  0  0  3  0  0  0  0  0  0
  161.3120  207.4160  150.6600 C   0  0  0  0  0  3  0  0  0  0  0  0
  161.1180  206.7460  149.3460 C   0  0  0  0  0  0  0  0  0  0  0  0
  160.8470  206.0950  146.3280 C   0  0  0  0  0  3  0  0  0  0  0  0
  161.7130  209.0000  148.3710 C   0  0  0  0  0  2  0  0  0  0  0  0
  162.0280  209.5130  149.5390 C   0  0  0  0  0  0  0  0  0  0  0  0
  161.7090  208.7160  150.7980 C   0  0  2  0  0  3  0  0  0  0  0  0
  161.5550  204.9470  146.9030 C   0  0  2  0  0  3  0  0  0  0  0  0
  162.3630  204.1260  145.9940 C   0  0  0  0  0  0  0  0  0  0  0  0
  163.4420  204.5770  145.5160 O   0  0  0  0  0  0  0  0  0  0  0  0
  161.9760  202.8120  145.6500 O   0  0  0  0  0  0  0  0  0  0  0  0
  160.3890  200.9950  145.6960 C   0  0  0  0  0  1  0  0  0  0  0  0
  161.1320  202.0380  146.5010 C   0  0  0  0  0  2  0  0  0  0  0  0
  162.3710  210.9460  149.4590 N   0  0  0  0  0  0  0  0  0  0  0  0
  162.6210  211.9180  148.3690 C   0  0  1  0  0  3  0  0  0  0  0  0
  163.8080  211.5400  147.4560 C   0  0  0  0  0  1  0  0  0  0  0  0
  160.2370  212.3710  148.3370 O   0  0  0  0  0  1  0  0  0  0  0  0
  161.3400  212.1020  147.5170 C   0  0  1  0  0  3  0  0  0  0  0  0
  162.1150  214.2800  146.8410 O   0  0  0  0  0  0  0  0  0  0  0  0
  161.5500  213.2250  146.5360 C   0  0  0  0  0  0  0  0  0  0  0  0
  161.0060  213.0860  145.1420 C   0  0  0  0  0  2  0  0  0  0  0  0
  161.9800  213.4810  144.2090 O   0  0  0  0  0  0  0  0  0  0  0  0
  160.6530  211.2750  143.0090 O   0  0  0  0  0  1  0  0  0  0  0  0
  161.5120  212.7330  142.7430 P   0  0  0  0  0  0  0  0  0  0  0  0
  162.7800  212.4010  141.9690 O   0  0  0  0  0  1  0  0  0  0  0  0
  160.5560  213.7890  141.8030 O   0  0  0  0  0  0  0  0  0  0  0  0
  162.0350  209.2690  152.1580 C   0  0  0  0  0  2  0  0  0  0  0  0
  161.9960  207.9430  153.4080 S   0  0  0  0  0  0  0  0  0  0  0  0
  160.6450  208.5160  154.5220 C   0  0  2  0  0  3  0  0  0  0  0  0
  160.7640  209.9520  154.7120 N   0  0  0  0  0  2  0  0  0  0  0  0
  158.5060  210.1730  155.2420 O   0  0  0  0  0  0  0  0  0  0  0  0
  159.6870  210.6320  155.3760 C   0  0  0  0  0  0  0  0  0  0  0  0
  159.8900  212.0200  155.8900 C   0  0  0  0  0  2  0  0  0  0  0  0
  159.2100  212.1580  157.2610 C   0  0  0  0  0  2  0  0  0  0  0  0
  155.5450  211.8720  155.3160 C   0  0  0  0  0  2  0  0  0  0  0  0
  155.1090  214.0200  153.8740 C   0  0  0  0  0  1  0  0  0  0  0  0
  154.6480  214.2560  157.0010 C   0  0  0  0  0  1  0  0  0  0  0  0
  158.5690  214.4530  157.2420 O   0  0  0  0  0  0  0  0  0  0  0  0
  155.9230  213.3080  154.9730 C   0  0  1  0  0  3  0  0  0  0  0  0
  156.7800  212.9600  157.0800 N   0  0  0  0  0  0  0  0  0  0  0  0
  158.1780  213.2440  157.2370 C   0  0  0  0  0  0  0  0  0  0  0  0
  156.3370  211.6230  156.6030 C   0  0  0  0  0  2  0  0  0  0  0  0
  156.0160  213.9570  156.3410 C   0  0  2  0  0  3  0  0  0  0  0  0
  159.4820  206.9950  156.0470 N   0  0  0  0  0  1  0  0  0  0  0  0
  160.6930  207.8090  155.8860 C   0  0  0  0  0  2  0  0  0  0  0  0
  1  2  1  0  0  0  0
  2  6  1  0  0  0  0
  3  4  1  6  0  0  0
  3  8  1  0  0  0  0
  3  6  1  0  0  0  0
  5 10  1  0  0  0  0
  6  5  2  0  0  0  0
  7 11  1  0  0  0  0
  7  4  2  0  0  0  0
  8  9  1  0  0  0  0
  9 10  1  0  0  0  0
 10 30  1  1  0  0  0
 11 12  1  6  0  0  0
 11  1  1  0  0  0  0
 13 12  2  0  0  0  0
 14 12  1  0  0  0  0
 14 16  1  0  0  0  0
 15 16  1  0  0  0  0
 17  9  2  0  0  0  0
 18 19  1  6  0  0  0
 18 17  1  0  0  0  0
 21 20  1  1  0  0  0
 21 18  1  0  0  0  0
 23 22  2  0  0  0  0
 23 21  1  0  0  0  0
 24 23  1  0  0  0  0
 25 24  1  0  0  0  0
 27 26  1  0  0  0  0
 27 25  1  0  0  0  0
 28 27  1  0  0  0  0
 29 27  2  0  0  0  0
 30 31  1  0  0  0  0
 31 32  1  0  0  0  0
 32 33  1  0  0  0  0
 32 48  1  1  0  0  0
 33 35  1  0  0  0  0
 34 35  2  0  0  0  0
 35 36  1  0  0  0  0
 36 37  1  0  0  0  0
 38 45  1  0  0  0  0
 42 39  1  6  0  0  0
 42 38  1  0  0  0  0
 42 46  1  0  0  0  0
 43 44  1  0  0  0  0
 44 41  2  0  0  0  0
 44 37  1  0  0  0  0
 45 43  1  0  0  0  0
 46 40  1  1  0  0  0
 46 43  1  0  0  0  0
 48 47  1  0  0  0  0
M  END
>  <MODEL>
9

>  <REMARK>
 VINA RESULT:      -4.4      3.517      9.894
  Name = 
  18 active torsions:
  status: ('A' for Active; 'I' for Inactive)
    1  A    between atoms: C_4  and  C_27
    2  A    between atoms: C_4  and  C_45
    3  A    between atoms: S_9  and  C_44
    4  A    between atoms: S_9  and  C_47
    5  A    between atoms: N_10  and  C_47
    6  A    between atoms: C_11  and  O_23
    7  A    between atoms: C_11  and  C_46
    8  A    between atoms: C_12  and  N_22
    9  A    between atoms: C_12  and  C_27
   10  A    between atoms: C_17  and  O_23
   11  A    between atoms: N_22  and  C_39
   12  A    between atoms: C_28  and  C_29
   13  A    between atoms: C_28  and  C_41
   14  A    between atoms: O_30  and  P_34
   15  A    between atoms: O_30  and  C_45
   16  A    between atoms: C_33  and  C_41
   17  A    between atoms: C_43  and  C_44
   18  A    between atoms: C_47  and  C_48
                            x       y       z     vdW  Elec       q    Type
                         _______ _______ _______ _____ _____    ______ ____

>  <TORSDO>
F 18

$$$$
