=
 OpenBabel11042421183D

 39 41  0  0  1  0  0  0  0  0999 V2000
  161.5280  204.1910  145.9730 C   0  0  0  0  0  0  0  0  0  0  0  0
  161.5530  206.2610  147.9100 C   0  0  1  0  0  3  0  0  0  0  0  0
  161.5750  202.9350  146.0320 O   0  0  0  0  0  0  0  0  0  0  0  0
  161.6130  204.9690  147.1610 N   0  0  0  0  0  0  0  0  0  0  0  0
  161.8650  205.1250  148.6260 C   0  0  2  0  0  3  0  0  0  0  0  0
  160.6600  204.6270  149.4260 C   0  0  2  0  0  3  0  0  0  0  0  0
  160.4990  206.4300  151.2000 C   0  0  0  0  0  3  0  0  0  0  0  0
  159.8500  205.7940  149.9940 C   0  0  0  0  0  2  0  0  0  0  0  0
  161.0630  203.6970  150.5730 C   0  0  0  0  0  2  0  0  0  0  0  0
  161.9370  204.4310  151.5870 C   0  0  0  0  0  2  0  0  0  0  0  0
  161.3920  205.7840  151.9670 C   0  0  0  0  0  0  0  0  0  0  0  0
  161.9770  206.4510  153.1680 C   0  0  0  0  0  2  0  0  0  0  0  0
  160.9550  206.5370  154.2890 C   0  0  0  0  0  2  0  0  0  0  0  0
  161.2380  207.7530  155.1530 C   0  0  0  0  0  2  0  0  0  0  0  0
  160.7820  211.3580  154.3900 C   0  0  0  0  0  2  0  0  0  0  0  0
  159.6770  211.1010  155.3920 C   0  0  0  0  0  2  0  0  0  0  0  0
  159.6340  209.6020  155.6300 C   0  0  0  0  0  2  0  0  0  0  0  0
  161.5450  210.0600  154.2560 C   0  0  0  0  0  2  0  0  0  0  0  0
  160.5430  208.9830  154.5930 C   0  0  0  0  0  3  0  0  0  0  0  0
  161.3780  204.9920  144.3850 S   0  0  0  0  0  0  0  0  0  0  0  0
  160.1840  206.1890  145.0360 C   0  0  0  0  0  1  0  0  0  0  0  0
  162.7180  206.9900  147.6840 O   0  0  0  0  0  0  0  0  0  0  0  0
  162.8150  207.8660  148.7680 C   0  0  0  0  0  2  0  0  0  0  0  0
  162.0520  209.1510  148.4750 C   0  0  0  0  0  2  0  0  0  0  0  0
  162.3770  209.5770  150.8200 N   0  0  0  0  0  2  0  0  0  0  0  0
  162.0370  210.0410  149.6740 C   0  0  0  0  0  0  0  0  0  0  0  0
  161.8410  211.5170  149.4740 C   0  0  0  0  0  2  0  0  0  0  0  0
  162.3060  212.0330  148.1100 C   0  0  2  0  0  3  0  0  0  0  0  0
  163.6250  212.4960  148.1500 O   0  0  0  0  0  1  0  0  0  0  0  0
  161.3500  213.0060  147.4080 C   0  0  2  0  0  3  0  0  0  0  0  0
  160.0250  212.7180  147.7400 O   0  0  0  0  0  1  0  0  0  0  0  0
  162.6790  213.1890  145.4500 O   0  0  0  0  0  0  0  0  0  0  0  0
  161.5120  213.1210  145.9160 C   0  0  0  0  0  0  0  0  0  0  0  0
  160.4320  213.2300  145.0330 O   0  0  0  0  0  0  0  0  0  0  0  0
  159.9360  212.1410  144.2690 C   0  0  0  0  0  2  0  0  0  0  0  0
  160.0080  212.4670  142.7860 C   0  0  0  0  0  2  0  0  0  0  0  0
  160.9820  210.9240  141.0870 O   0  0  0  0  0  0  0  0  0  0  0  0
  162.3630  212.1650  142.4250 O   0  0  0  0  0  1  0  0  0  0  0  0
  161.1900  211.8320  142.1180 C   0  0  0  0  0  0  0  0  0  0  0  0
  1  3  2  0  0  0  0
  1  4  1  0  0  0  0
  2 22  1  6  0  0  0
  2  5  1  0  0  0  0
  4  2  1  0  0  0  0
  5  4  1  6  0  0  0
  5  6  1  0  0  0  0
  6  8  1  1  0  0  0
  6  9  1  0  0  0  0
  7 11  2  0  0  0  0
  8  7  1  0  0  0  0
  9 10  1  0  0  0  0
 10 11  1  0  0  0  0
 11 12  1  0  0  0  0
 12 13  1  0  0  0  0
 13 14  1  0  0  0  0
 15 16  1  0  0  0  0
 16 17  1  0  0  0  0
 18 15  1  0  0  0  0
 18 19  1  0  0  0  0
 19 14  1  0  0  0  0
 19 17  1  0  0  0  0
 20 21  1  0  0  0  0
 20  1  1  0  0  0  0
 22 23  1  0  0  0  0
 24 23  1  0  0  0  0
 24 26  1  0  0  0  0
 26 25  2  0  0  0  0
 27 26  1  0  0  0  0
 28 29  1  1  0  0  0
 28 27  1  0  0  0  0
 30 31  1  6  0  0  0
 30 28  1  0  0  0  0
 32 33  2  0  0  0  0
 33 30  1  0  0  0  0
 34 33  1  0  0  0  0
 35 34  1  0  0  0  0
 36 35  1  0  0  0  0
 37 39  2  0  0  0  0
 39 38  1  0  0  0  0
 39 36  1  0  0  0  0
M  END
>  <MODEL>
1

>  <REMARK>
 VINA RESULT:      -6.4      0.000      0.000
  Name = 
  18 active torsions:
  status: ('A' for Active; 'I' for Inactive)
    1  A    between atoms: C_2  and  C_6
    2  A    between atoms: C_2  and  C_27
    3  A    between atoms: C_4  and  C_30
    4  A    between atoms: C_5  and  C_6
    5  A    between atoms: C_5  and  C_38
    6  A    between atoms: C_8  and  C_34
    7  A    between atoms: C_8  and  C_36
    8  A    between atoms: O_10  and  C_33
    9  A    between atoms: O_10  and  C_36
   10  A    between atoms: C_12  and  S_24
   11  A    between atoms: C_13  and  C_32
   12  A    between atoms: C_13  and  C_33
   13  A    between atoms: C_15  and  O_17
   14  A    between atoms: O_17  and  C_37
   15  A    between atoms: C_19  and  C_23
   16  A    between atoms: C_19  and  C_34
   17  A    between atoms: C_23  and  C_26
   18  A    between atoms: C_26  and  C_37
                            x       y       z     vdW  Elec       q    Type
                         _______ _______ _______ _____ _____    ______ ____

>  <TORSDO>
F 18

$$$$
=
 OpenBabel11042421183D

 39 41  0  0  1  0  0  0  0  0999 V2000
  161.0350  204.0630  151.8640 C   0  0  0  0  0  0  0  0  0  0  0  0
  161.5620  206.8480  151.8600 C   0  0  1  0  0  3  0  0  0  0  0  0
  160.8010  203.2170  152.7660 O   0  0  0  0  0  0  0  0  0  0  0  0
  161.3150  205.4150  152.2050 N   0  0  0  0  0  0  0  0  0  0  0  0
  161.6270  206.4950  153.1910 C   0  0  2  0  0  3  0  0  0  0  0  0
  160.3580  206.9120  153.9370 C   0  0  2  0  0  3  0  0  0  0  0  0
  160.8420  209.3650  154.3490 C   0  0  0  0  0  3  0  0  0  0  0  0
  159.9790  208.3610  153.6230 C   0  0  0  0  0  2  0  0  0  0  0  0
  160.4890  206.7500  155.4530 C   0  0  0  0  0  2  0  0  0  0  0  0
  161.5880  207.6560  156.0030 C   0  0  0  0  0  2  0  0  0  0  0  0
  161.5140  209.0650  155.4730 C   0  0  0  0  0  0  0  0  0  0  0  0
  162.3250  210.1080  156.1680 C   0  0  0  0  0  2  0  0  0  0  0  0
  161.5200  211.3830  156.3520 C   0  0  0  0  0  2  0  0  0  0  0  0
  160.1830  211.0610  156.9940 C   0  0  0  0  0  2  0  0  0  0  0  0
  157.4540  211.6690  154.5500 C   0  0  0  0  0  2  0  0  0  0  0  0
  158.5050  212.6660  154.1110 C   0  0  0  0  0  2  0  0  0  0  0  0
  159.5980  212.6520  155.1650 C   0  0  0  0  0  2  0  0  0  0  0  0
  158.0580  210.8940  155.7000 C   0  0  0  0  0  2  0  0  0  0  0  0
  159.0630  211.8340  156.3180 C   0  0  0  0  0  3  0  0  0  0  0  0
  161.0350  203.5500  150.1550 S   0  0  0  0  0  0  0  0  0  0  0  0
  160.5650  201.8580  150.6020 C   0  0  0  0  0  1  0  0  0  0  0  0
  162.8560  206.9980  151.3670 O   0  0  0  0  0  0  0  0  0  0  0  0
  162.9290  208.3240  150.9340 C   0  0  0  0  0  2  0  0  0  0  0  0
  161.6290  208.7250  150.2480 C   0  0  0  0  0  2  0  0  0  0  0  0
  161.8710  210.1190  148.3040 N   0  0  0  0  0  2  0  0  0  0  0  0
  161.8450  208.9320  148.7860 C   0  0  0  0  0  0  0  0  0  0  0  0
  162.2520  207.7560  147.9450 C   0  0  0  0  0  2  0  0  0  0  0  0
  161.0800  206.9840  147.3340 C   0  0  2  0  0  3  0  0  0  0  0  0
  160.3930  206.2330  148.2920 O   0  0  0  0  0  1  0  0  0  0  0  0
  161.4030  206.1860  146.0640 C   0  0  2  0  0  3  0  0  0  0  0  0
  160.2570  206.0170  145.2850 O   0  0  0  0  0  1  0  0  0  0  0  0
  163.2310  204.8790  146.8270 O   0  0  0  0  0  0  0  0  0  0  0  0
  162.0980  204.8680  146.2790 C   0  0  0  0  0  0  0  0  0  0  0  0
  161.5820  203.6460  145.8340 O   0  0  0  0  0  0  0  0  0  0  0  0
  161.1540  202.6140  146.7090 C   0  0  0  0  0  2  0  0  0  0  0  0
  160.6630  201.4190  145.9090 C   0  0  0  0  0  2  0  0  0  0  0  0
  161.3190  199.0340  145.5980 O   0  0  0  0  0  0  0  0  0  0  0  0
  161.5380  200.0180  147.6520 O   0  0  0  0  0  1  0  0  0  0  0  0
  161.1720  200.1190  146.4530 C   0  0  0  0  0  0  0  0  0  0  0  0
  1  4  1  0  0  0  0
  1  3  2  0  0  0  0
  2 22  1  6  0  0  0
  2  4  1  0  0  0  0
  2  5  1  0  0  0  0
  5  4  1  6  0  0  0
  5  6  1  0  0  0  0
  6  8  1  1  0  0  0
  6  9  1  0  0  0  0
  7 11  2  0  0  0  0
  8  7  1  0  0  0  0
  9 10  1  0  0  0  0
 11 10  1  0  0  0  0
 11 12  1  0  0  0  0
 12 13  1  0  0  0  0
 13 14  1  0  0  0  0
 15 18  1  0  0  0  0
 16 15  1  0  0  0  0
 16 17  1  0  0  0  0
 17 19  1  0  0  0  0
 18 19  1  0  0  0  0
 19 14  1  0  0  0  0
 20 21  1  0  0  0  0
 20  1  1  0  0  0  0
 23 22  1  0  0  0  0
 24 23  1  0  0  0  0
 25 26  2  0  0  0  0
 26 24  1  0  0  0  0
 27 26  1  0  0  0  0
 28 27  1  0  0  0  0
 28 29  1  1  0  0  0
 30 31  1  1  0  0  0
 30 33  1  0  0  0  0
 30 28  1  0  0  0  0
 33 32  2  0  0  0  0
 34 33  1  0  0  0  0
 34 35  1  0  0  0  0
 36 39  1  0  0  0  0
 36 35  1  0  0  0  0
 37 39  2  0  0  0  0
 39 38  1  0  0  0  0
M  END
>  <MODEL>
2

>  <REMARK>
 VINA RESULT:      -5.9      3.923      6.570
  Name = 
  18 active torsions:
  status: ('A' for Active; 'I' for Inactive)
    1  A    between atoms: C_2  and  C_6
    2  A    between atoms: C_2  and  C_27
    3  A    between atoms: C_4  and  C_30
    4  A    between atoms: C_5  and  C_6
    5  A    between atoms: C_5  and  C_38
    6  A    between atoms: C_8  and  C_34
    7  A    between atoms: C_8  and  C_36
    8  A    between atoms: O_10  and  C_33
    9  A    between atoms: O_10  and  C_36
   10  A    between atoms: C_12  and  S_24
   11  A    between atoms: C_13  and  C_32
   12  A    between atoms: C_13  and  C_33
   13  A    between atoms: C_15  and  O_17
   14  A    between atoms: O_17  and  C_37
   15  A    between atoms: C_19  and  C_23
   16  A    between atoms: C_19  and  C_34
   17  A    between atoms: C_23  and  C_26
   18  A    between atoms: C_26  and  C_37
                            x       y       z     vdW  Elec       q    Type
                         _______ _______ _______ _____ _____    ______ ____

>  <TORSDO>
F 18

$$$$
=
 OpenBabel11042421183D

 39 41  0  0  1  0  0  0  0  0999 V2000
  160.9530  202.0230  146.8150 C   0  0  0  0  0  0  0  0  0  0  0  0
  161.0860  204.4360  148.2970 C   0  0  1  0  0  3  0  0  0  0  0  0
  161.1410  200.8100  147.0960 O   0  0  0  0  0  0  0  0  0  0  0  0
  161.1540  203.0280  147.8020 N   0  0  0  0  0  0  0  0  0  0  0  0
  161.6320  203.4920  149.1400 C   0  0  2  0  0  3  0  0  0  0  0  0
  160.6390  203.0810  150.2280 C   0  0  2  0  0  3  0  0  0  0  0  0
  160.3380  205.2850  151.4440 C   0  0  0  0  0  3  0  0  0  0  0  0
  159.6910  204.2300  150.5780 C   0  0  0  0  0  2  0  0  0  0  0  0
  161.3340  202.6050  151.5060 C   0  0  0  0  0  2  0  0  0  0  0  0
  162.1610  203.7280  152.1270 C   0  0  0  0  0  2  0  0  0  0  0  0
  161.4170  205.0360  152.2040 C   0  0  0  0  0  0  0  0  0  0  0  0
  161.9950  206.1090  153.0670 C   0  0  0  0  0  2  0  0  0  0  0  0
  160.9010  206.8340  153.8320 C   0  0  0  0  0  2  0  0  0  0  0  0
  161.0440  208.3330  153.6390 C   0  0  0  0  0  2  0  0  0  0  0  0
  161.1940  210.2700  156.8030 C   0  0  0  0  0  2  0  0  0  0  0  0
  160.5960  208.9570  157.2610 C   0  0  0  0  0  2  0  0  0  0  0  0
  160.2970  208.1470  156.0110 C   0  0  0  0  0  2  0  0  0  0  0  0
  161.4860  210.1130  155.3290 C   0  0  0  0  0  2  0  0  0  0  0  0
  160.4970  209.0840  154.8420 C   0  0  0  0  0  3  0  0  0  0  0  0
  160.4530  202.4750  145.1630 S   0  0  0  0  0  0  0  0  0  0  0  0
  159.9600  200.7740  144.7830 C   0  0  0  0  0  1  0  0  0  0  0  0
  162.1130  205.1850  147.7270 O   0  0  0  0  0  0  0  0  0  0  0  0
  161.4970  206.3490  147.2600 C   0  0  0  0  0  2  0  0  0  0  0  0
  160.8690  207.1130  148.4190 C   0  0  0  0  0  2  0  0  0  0  0  0
  162.7490  207.6140  149.8320 N   0  0  0  0  0  2  0  0  0  0  0  0
  161.8550  208.0550  149.0260 C   0  0  0  0  0  0  0  0  0  0  0  0
  161.9220  209.4630  148.5060 C   0  0  0  0  0  2  0  0  0  0  0  0
  162.2580  210.5100  149.5710 C   0  0  2  0  0  3  0  0  0  0  0  0
  161.7370  210.1690  150.8220 O   0  0  0  0  0  1  0  0  0  0  0  0
  161.9750  211.9660  149.1800 C   0  0  2  0  0  3  0  0  0  0  0  0
  160.8320  212.4360  149.8280 O   0  0  0  0  0  1  0  0  0  0  0  0
  162.9610  212.5710  147.1070 O   0  0  0  0  0  0  0  0  0  0  0  0
  161.9010  212.2450  147.7020 C   0  0  0  0  0  0  0  0  0  0  0  0
  160.7050  212.2310  146.9780 O   0  0  0  0  0  0  0  0  0  0  0  0
  160.5070  212.9730  145.7840 C   0  0  0  0  0  2  0  0  0  0  0  0
  159.6680  212.1700  144.8020 C   0  0  0  0  0  2  0  0  0  0  0  0
  160.3320  211.3630  142.5390 O   0  0  0  0  0  0  0  0  0  0  0  0
  160.0400  213.6020  142.9100 O   0  0  0  0  0  1  0  0  0  0  0  0
  160.0480  212.4340  143.3770 C   0  0  0  0  0  0  0  0  0  0  0  0
  1  3  2  0  0  0  0
  1  4  1  0  0  0  0
  2 22  1  6  0  0  0
  2  5  1  0  0  0  0
  4  2  1  0  0  0  0
  5  4  1  6  0  0  0
  5  6  1  0  0  0  0
  6  8  1  1  0  0  0
  6  9  1  0  0  0  0
  7 11  2  0  0  0  0
  8  7  1  0  0  0  0
  9 10  1  0  0  0  0
 10 11  1  0  0  0  0
 11 12  1  0  0  0  0
 12 13  1  0  0  0  0
 14 13  1  0  0  0  0
 14 19  1  0  0  0  0
 15 16  1  0  0  0  0
 17 16  1  0  0  0  0
 18 15  1  0  0  0  0
 19 18  1  0  0  0  0
 19 17  1  0  0  0  0
 20  1  1  0  0  0  0
 21 20  1  0  0  0  0
 23 22  1  0  0  0  0
 23 24  1  0  0  0  0
 24 26  1  0  0  0  0
 26 25  2  0  0  0  0
 27 26  1  0  0  0  0
 27 28  1  0  0  0  0
 28 29  1  1  0  0  0
 30 28  1  0  0  0  0
 30 31  1  1  0  0  0
 32 33  2  0  0  0  0
 33 30  1  0  0  0  0
 34 33  1  0  0  0  0
 35 34  1  0  0  0  0
 36 35  1  0  0  0  0
 37 39  2  0  0  0  0
 38 39  1  0  0  0  0
 39 36  1  0  0  0  0
M  END
>  <MODEL>
3

>  <REMARK>
 VINA RESULT:      -5.8      1.678      2.193
  Name = 
  18 active torsions:
  status: ('A' for Active; 'I' for Inactive)
    1  A    between atoms: C_2  and  C_6
    2  A    between atoms: C_2  and  C_27
    3  A    between atoms: C_4  and  C_30
    4  A    between atoms: C_5  and  C_6
    5  A    between atoms: C_5  and  C_38
    6  A    between atoms: C_8  and  C_34
    7  A    between atoms: C_8  and  C_36
    8  A    between atoms: O_10  and  C_33
    9  A    between atoms: O_10  and  C_36
   10  A    between atoms: C_12  and  S_24
   11  A    between atoms: C_13  and  C_32
   12  A    between atoms: C_13  and  C_33
   13  A    between atoms: C_15  and  O_17
   14  A    between atoms: O_17  and  C_37
   15  A    between atoms: C_19  and  C_23
   16  A    between atoms: C_19  and  C_34
   17  A    between atoms: C_23  and  C_26
   18  A    between atoms: C_26  and  C_37
                            x       y       z     vdW  Elec       q    Type
                         _______ _______ _______ _____ _____    ______ ____

>  <TORSDO>
F 18

$$$$
=
 OpenBabel11042421183D

 39 41  0  0  1  0  0  0  0  0999 V2000
  161.5770  210.8340  150.3470 C   0  0  0  0  0  0  0  0  0  0  0  0
  161.9550  208.2280  151.3970 C   0  0  1  0  0  3  0  0  0  0  0  0
  161.0350  211.8840  150.7810 O   0  0  0  0  0  0  0  0  0  0  0  0
  161.5560  209.6420  151.1230 N   0  0  0  0  0  0  0  0  0  0  0  0
  161.0830  208.8260  152.2830 C   0  0  2  0  0  3  0  0  0  0  0  0
  161.8040  209.2570  153.5610 C   0  0  2  0  0  3  0  0  0  0  0  0
  159.9460  208.9790  155.2630 C   0  0  0  0  0  3  0  0  0  0  0  0
  161.2880  208.4860  154.7780 C   0  0  0  0  0  2  0  0  0  0  0  0
  161.6690  210.7580  153.8310 C   0  0  0  0  0  2  0  0  0  0  0  0
  160.2080  211.1420  154.0510 C   0  0  0  0  0  2  0  0  0  0  0  0
  159.4880  210.2130  154.9940 C   0  0  0  0  0  0  0  0  0  0  0  0
  158.1670  210.6590  155.5290 C   0  0  0  0  0  2  0  0  0  0  0  0
  158.3050  211.9730  156.2800 C   0  0  0  0  0  2  0  0  0  0  0  0
  156.9790  212.7110  156.2750 C   0  0  0  0  0  2  0  0  0  0  0  0
  156.8960  214.0190  152.8010 C   0  0  0  0  0  2  0  0  0  0  0  0
  158.2810  214.4200  153.2600 C   0  0  0  0  0  2  0  0  0  0  0  0
  158.3620  214.1140  154.7460 C   0  0  0  0  0  2  0  0  0  0  0  0
  156.2770  213.2440  153.9420 C   0  0  0  0  0  2  0  0  0  0  0  0
  156.9570  213.7680  155.1830 C   0  0  0  0  0  3  0  0  0  0  0  0
  162.3550  210.8450  148.7410 S   0  0  0  0  0  0  0  0  0  0  0  0
  161.5400  212.4000  148.2920 C   0  0  0  0  0  1  0  0  0  0  0  0
  161.2390  207.3680  150.5670 O   0  0  0  0  0  0  0  0  0  0  0  0
  160.9560  206.2520  151.3580 C   0  0  0  0  0  2  0  0  0  0  0  0
  160.4000  205.1240  150.4980 C   0  0  0  0  0  2  0  0  0  0  0  0
  160.9250  203.4330  152.1250 N   0  0  0  0  0  2  0  0  0  0  0  0
  160.9870  203.8130  150.9020 C   0  0  0  0  0  0  0  0  0  0  0  0
  161.4380  202.8640  149.8290 C   0  0  0  0  0  2  0  0  0  0  0  0
  160.2970  202.2310  149.0290 C   0  0  2  0  0  3  0  0  0  0  0  0
  159.4630  201.4520  149.8360 O   0  0  0  0  0  1  0  0  0  0  0  0
  160.7090  201.5230  147.7320 C   0  0  2  0  0  3  0  0  0  0  0  0
  161.7480  200.6220  147.9740 O   0  0  0  0  0  1  0  0  0  0  0  0
  160.6340  202.0920  145.4290 O   0  0  0  0  0  0  0  0  0  0  0  0
  161.0440  202.4220  146.5730 C   0  0  0  0  0  0  0  0  0  0  0  0
  161.8460  203.5620  146.6920 O   0  0  0  0  0  0  0  0  0  0  0  0
  162.3970  204.2490  145.5790 C   0  0  0  0  0  2  0  0  0  0  0  0
  162.3430  205.7500  145.8110 C   0  0  0  0  0  2  0  0  0  0  0  0
  159.9610  206.1210  145.1770 O   0  0  0  0  0  0  0  0  0  0  0  0
  160.6760  206.6540  147.2840 O   0  0  0  0  0  1  0  0  0  0  0  0
  160.9610  206.2290  146.1350 C   0  0  0  0  0  0  0  0  0  0  0  0
  1  3  2  0  0  0  0
  1  4  1  0  0  0  0
  2 22  1  6  0  0  0
  2  5  1  0  0  0  0
  4  2  1  0  0  0  0
  5  4  1  6  0  0  0
  5  6  1  0  0  0  0
  6  9  1  1  0  0  0
  6  8  1  0  0  0  0
  8  7  1  0  0  0  0
  9 10  1  0  0  0  0
 10 11  1  0  0  0  0
 11  7  2  0  0  0  0
 11 12  1  0  0  0  0
 12 13  1  0  0  0  0
 14 13  1  0  0  0  0
 15 16  1  0  0  0  0
 15 18  1  0  0  0  0
 16 17  1  0  0  0  0
 17 19  1  0  0  0  0
 18 19  1  0  0  0  0
 19 14  1  0  0  0  0
 20  1  1  0  0  0  0
 21 20  1  0  0  0  0
 22 23  1  0  0  0  0
 24 26  1  0  0  0  0
 24 23  1  0  0  0  0
 26 25  2  0  0  0  0
 27 26  1  0  0  0  0
 28 27  1  0  0  0  0
 28 29  1  1  0  0  0
 30 31  1  1  0  0  0
 30 28  1  0  0  0  0
 32 33  2  0  0  0  0
 33 34  1  0  0  0  0
 33 30  1  0  0  0  0
 35 36  1  0  0  0  0
 35 34  1  0  0  0  0
 36 39  1  0  0  0  0
 37 39  2  0  0  0  0
 39 38  1  0  0  0  0
M  END
>  <MODEL>
4

>  <REMARK>
 VINA RESULT:      -5.7      3.268      7.514
  Name = 
  18 active torsions:
  status: ('A' for Active; 'I' for Inactive)
    1  A    between atoms: C_2  and  C_6
    2  A    between atoms: C_2  and  C_27
    3  A    between atoms: C_4  and  C_30
    4  A    between atoms: C_5  and  C_6
    5  A    between atoms: C_5  and  C_38
    6  A    between atoms: C_8  and  C_34
    7  A    between atoms: C_8  and  C_36
    8  A    between atoms: O_10  and  C_33
    9  A    between atoms: O_10  and  C_36
   10  A    between atoms: C_12  and  S_24
   11  A    between atoms: C_13  and  C_32
   12  A    between atoms: C_13  and  C_33
   13  A    between atoms: C_15  and  O_17
   14  A    between atoms: O_17  and  C_37
   15  A    between atoms: C_19  and  C_23
   16  A    between atoms: C_19  and  C_34
   17  A    between atoms: C_23  and  C_26
   18  A    between atoms: C_26  and  C_37
                            x       y       z     vdW  Elec       q    Type
                         _______ _______ _______ _____ _____    ______ ____

>  <TORSDO>
F 18

$$$$
=
 OpenBabel11042421183D

 39 41  0  0  1  0  0  0  0  0999 V2000
  161.3540  210.1630  156.4770 C   0  0  0  0  0  0  0  0  0  0  0  0
  160.4530  209.6970  153.8300 C   0  0  1  0  0  3  0  0  0  0  0  0
  161.3510  211.1640  157.2410 O   0  0  0  0  0  0  0  0  0  0  0  0
  160.8560  210.2720  155.1490 N   0  0  0  0  0  0  0  0  0  0  0  0
  160.3620  211.0650  153.9810 C   0  0  2  0  0  3  0  0  0  0  0  0
  158.9140  211.5000  154.2130 C   0  0  2  0  0  3  0  0  0  0  0  0
  158.2730  212.2550  151.8800 C   0  0  0  0  0  3  0  0  0  0  0  0
  158.0510  211.2410  152.9760 C   0  0  0  0  0  2  0  0  0  0  0  0
  158.8010  212.9770  154.5970 C   0  0  0  0  0  2  0  0  0  0  0  0
  159.3080  213.8720  153.4690 C   0  0  0  0  0  2  0  0  0  0  0  0
  158.7760  213.4780  152.1160 C   0  0  0  0  0  0  0  0  0  0  0  0
  158.9430  214.4530  150.9970 C   0  0  0  0  0  2  0  0  0  0  0  0
  160.0690  214.0250  150.0720 C   0  0  0  0  0  2  0  0  0  0  0  0
  159.5190  213.7500  148.6840 C   0  0  0  0  0  2  0  0  0  0  0  0
  162.8550  212.3740  147.8110 C   0  0  0  0  0  2  0  0  0  0  0  0
  162.7070  213.5070  146.8190 C   0  0  0  0  0  2  0  0  0  0  0  0
  161.2850  214.0240  146.9440 C   0  0  0  0  0  2  0  0  0  0  0  0
  161.6230  212.4120  148.6870 C   0  0  0  0  0  2  0  0  0  0  0  0
  160.5530  213.0390  147.8280 C   0  0  0  0  0  3  0  0  0  0  0  0
  162.0090  208.6100  157.0640 S   0  0  0  0  0  0  0  0  0  0  0  0
  160.3540  207.8790  157.1550 C   0  0  0  0  0  1  0  0  0  0  0  0
  161.5890  209.3980  153.0800 O   0  0  0  0  0  0  0  0  0  0  0  0
  161.1100  209.0830  151.8060 C   0  0  0  0  0  2  0  0  0  0  0  0
  161.6480  207.7280  151.3640 C   0  0  0  0  0  2  0  0  0  0  0  0
  162.0360  208.8130  149.2530 N   0  0  0  0  0  2  0  0  0  0  0  0
  161.8870  207.7100  149.8910 C   0  0  0  0  0  0  0  0  0  0  0  0
  162.1730  206.3960  149.2220 C   0  0  0  0  0  2  0  0  0  0  0  0
  161.7200  206.3220  147.7620 C   0  0  2  0  0  3  0  0  0  0  0  0
  160.3260  206.3180  147.6470 O   0  0  0  0  0  1  0  0  0  0  0  0
  162.3950  205.2380  146.9120 C   0  0  2  0  0  3  0  0  0  0  0  0
  162.7130  205.7330  145.6460 O   0  0  0  0  0  1  0  0  0  0  0  0
  160.8920  203.7670  145.8120 O   0  0  0  0  0  0  0  0  0  0  0  0
  161.6510  203.9340  146.8020 C   0  0  0  0  0  0  0  0  0  0  0  0
  161.7040  202.9350  147.7800 O   0  0  0  0  0  0  0  0  0  0  0  0
  160.5740  202.5140  148.5280 C   0  0  0  0  0  2  0  0  0  0  0  0
  161.0030  202.0670  149.9160 C   0  0  0  0  0  2  0  0  0  0  0  0
  160.0110  204.1840  150.7820 O   0  0  0  0  0  0  0  0  0  0  0  0
  161.7410  203.1940  151.9050 O   0  0  0  0  0  1  0  0  0  0  0  0
  160.9680  203.1860  150.9130 C   0  0  0  0  0  0  0  0  0  0  0  0
  1 20  1  0  0  0  0
  1  3  2  0  0  0  0
  2 22  1  6  0  0  0
  2  5  1  0  0  0  0
  2  4  1  0  0  0  0
  4  1  1  0  0  0  0
  5  6  1  0  0  0  0
  5  4  1  1  0  0  0
  6  8  1  6  0  0  0
  6  9  1  0  0  0  0
  7 11  2  0  0  0  0
  7  8  1  0  0  0  0
 10  9  1  0  0  0  0
 11 10  1  0  0  0  0
 12 11  1  0  0  0  0
 13 12  1  0  0  0  0
 14 13  1  0  0  0  0
 15 18  1  0  0  0  0
 16 17  1  0  0  0  0
 16 15  1  0  0  0  0
 17 19  1  0  0  0  0
 19 14  1  0  0  0  0
 19 18  1  0  0  0  0
 20 21  1  0  0  0  0
 23 22  1  0  0  0  0
 24 23  1  0  0  0  0
 25 26  2  0  0  0  0
 26 24  1  0  0  0  0
 27 26  1  0  0  0  0
 28 29  1  1  0  0  0
 28 27  1  0  0  0  0
 30 31  1  6  0  0  0
 30 28  1  0  0  0  0
 32 33  2  0  0  0  0
 33 30  1  0  0  0  0
 33 34  1  0  0  0  0
 34 35  1  0  0  0  0
 35 36  1  0  0  0  0
 36 39  1  0  0  0  0
 37 39  2  0  0  0  0
 39 38  1  0  0  0  0
M  END
>  <MODEL>
5

>  <REMARK>
 VINA RESULT:      -5.7      4.038      9.046
  Name = 
  18 active torsions:
  status: ('A' for Active; 'I' for Inactive)
    1  A    between atoms: C_2  and  C_6
    2  A    between atoms: C_2  and  C_27
    3  A    between atoms: C_4  and  C_30
    4  A    between atoms: C_5  and  C_6
    5  A    between atoms: C_5  and  C_38
    6  A    between atoms: C_8  and  C_34
    7  A    between atoms: C_8  and  C_36
    8  A    between atoms: O_10  and  C_33
    9  A    between atoms: O_10  and  C_36
   10  A    between atoms: C_12  and  S_24
   11  A    between atoms: C_13  and  C_32
   12  A    between atoms: C_13  and  C_33
   13  A    between atoms: C_15  and  O_17
   14  A    between atoms: O_17  and  C_37
   15  A    between atoms: C_19  and  C_23
   16  A    between atoms: C_19  and  C_34
   17  A    between atoms: C_23  and  C_26
   18  A    between atoms: C_26  and  C_37
                            x       y       z     vdW  Elec       q    Type
                         _______ _______ _______ _____ _____    ______ ____

>  <TORSDO>
F 18

$$$$
=
 OpenBabel11042421183D

 39 41  0  0  1  0  0  0  0  0999 V2000
  162.0670  211.7250  149.0690 C   0  0  0  0  0  0  0  0  0  0  0  0
  161.1640  209.8470  150.9910 C   0  0  1  0  0  3  0  0  0  0  0  0
  163.0290  211.7540  148.2570 O   0  0  0  0  0  0  0  0  0  0  0  0
  161.9140  210.6260  149.9590 N   0  0  0  0  0  0  0  0  0  0  0  0
  162.4000  209.3710  150.6100 C   0  0  2  0  0  3  0  0  0  0  0  0
  162.2650  208.1900  149.6470 C   0  0  2  0  0  3  0  0  0  0  0  0
  160.4870  206.8240  150.8290 C   0  0  0  0  0  3  0  0  0  0  0  0
  160.8300  207.6580  149.6180 C   0  0  0  0  0  2  0  0  0  0  0  0
  163.2140  207.0400  149.9930 C   0  0  0  0  0  2  0  0  0  0  0  0
  162.8940  206.4670  151.3720 C   0  0  0  0  0  2  0  0  0  0  0  0
  161.4220  206.2220  151.5830 C   0  0  0  0  0  0  0  0  0  0  0  0
  161.0220  205.3810  152.7500 C   0  0  0  0  0  2  0  0  0  0  0  0
  161.2070  203.9050  152.4400 C   0  0  0  0  0  2  0  0  0  0  0  0
  160.3300  203.5110  151.2650 C   0  0  0  0  0  2  0  0  0  0  0  0
  161.3190  202.8470  147.7490 C   0  0  0  0  0  2  0  0  0  0  0  0
  160.8830  201.4780  148.2220 C   0  0  0  0  0  2  0  0  0  0  0  0
  160.6430  201.5800  149.7180 C   0  0  0  0  0  2  0  0  0  0  0  0
  161.0750  203.7930  148.9020 C   0  0  0  0  0  2  0  0  0  0  0  0
  161.1700  202.9340  150.1380 C   0  0  0  0  0  3  0  0  0  0  0  0
  160.9100  213.0830  149.1110 S   0  0  0  0  0  0  0  0  0  0  0  0
  162.0970  214.1960  148.3150 C   0  0  0  0  0  1  0  0  0  0  0  0
  161.2810  210.4730  152.2300 O   0  0  0  0  0  0  0  0  0  0  0  0
  159.9840  210.8740  152.5590 C   0  0  0  0  0  2  0  0  0  0  0  0
  160.0050  212.2630  153.1850 C   0  0  0  0  0  2  0  0  0  0  0  0
  158.2520  212.9990  151.7130 N   0  0  0  0  0  2  0  0  0  0  0  0
  158.7330  212.9890  152.9020 C   0  0  0  0  0  0  0  0  0  0  0  0
  157.9230  213.5030  154.0580 C   0  0  0  0  0  2  0  0  0  0  0  0
  156.6600  212.6890  154.3510 C   0  0  2  0  0  3  0  0  0  0  0  0
  155.5270  213.2510  153.7560 O   0  0  0  0  0  1  0  0  0  0  0  0
  156.4410  212.3140  155.8220 C   0  0  2  0  0  3  0  0  0  0  0  0
  155.3640  213.0240  156.3560 O   0  0  0  0  0  1  0  0  0  0  0  0
  157.9230  213.5580  157.1970 O   0  0  0  0  0  0  0  0  0  0  0  0
  157.6480  212.4280  156.7140 C   0  0  0  0  0  0  0  0  0  0  0  0
  158.5160  211.3620  156.9710 O   0  0  0  0  0  0  0  0  0  0  0  0
  158.8710  210.3920  155.9980 C   0  0  0  0  0  2  0  0  0  0  0  0
  160.0300  209.5460  156.4990 C   0  0  0  0  0  2  0  0  0  0  0  0
  159.4370  207.1670  156.0490 O   0  0  0  0  0  1  0  0  0  0  0  0
  160.9540  208.2360  154.7110 O   0  0  0  0  0  0  0  0  0  0  0  0
  160.1960  208.2810  155.7140 C   0  0  0  0  0  0  0  0  0  0  0  0
  1 20  1  0  0  0  0
  1  4  1  0  0  0  0
  2 22  1  1  0  0  0
  3  1  2  0  0  0  0
  4  2  1  0  0  0  0
  5  4  1  6  0  0  0
  5  2  1  0  0  0  0
  6  8  1  1  0  0  0
  6  9  1  0  0  0  0
  6  5  1  0  0  0  0
  7 11  2  0  0  0  0
  8  7  1  0  0  0  0
  9 10  1  0  0  0  0
 10 11  1  0  0  0  0
 11 12  1  0  0  0  0
 13 12  1  0  0  0  0
 14 13  1  0  0  0  0
 15 16  1  0  0  0  0
 15 18  1  0  0  0  0
 16 17  1  0  0  0  0
 17 19  1  0  0  0  0
 18 19  1  0  0  0  0
 19 14  1  0  0  0  0
 21 20  1  0  0  0  0
 22 23  1  0  0  0  0
 23 24  1  0  0  0  0
 25 26  2  0  0  0  0
 26 24  1  0  0  0  0
 26 27  1  0  0  0  0
 27 28  1  0  0  0  0
 28 29  1  1  0  0  0
 28 30  1  0  0  0  0
 30 31  1  1  0  0  0
 30 33  1  0  0  0  0
 33 34  1  0  0  0  0
 33 32  2  0  0  0  0
 35 36  1  0  0  0  0
 35 34  1  0  0  0  0
 38 39  2  0  0  0  0
 39 37  1  0  0  0  0
 39 36  1  0  0  0  0
M  END
>  <MODEL>
6

>  <REMARK>
 VINA RESULT:      -5.5      4.315      8.666
  Name = 
  18 active torsions:
  status: ('A' for Active; 'I' for Inactive)
    1  A    between atoms: C_2  and  C_6
    2  A    between atoms: C_2  and  C_27
    3  A    between atoms: C_4  and  C_30
    4  A    between atoms: C_5  and  C_6
    5  A    between atoms: C_5  and  C_38
    6  A    between atoms: C_8  and  C_34
    7  A    between atoms: C_8  and  C_36
    8  A    between atoms: O_10  and  C_33
    9  A    between atoms: O_10  and  C_36
   10  A    between atoms: C_12  and  S_24
   11  A    between atoms: C_13  and  C_32
   12  A    between atoms: C_13  and  C_33
   13  A    between atoms: C_15  and  O_17
   14  A    between atoms: O_17  and  C_37
   15  A    between atoms: C_19  and  C_23
   16  A    between atoms: C_19  and  C_34
   17  A    between atoms: C_23  and  C_26
   18  A    between atoms: C_26  and  C_37
                            x       y       z     vdW  Elec       q    Type
                         _______ _______ _______ _____ _____    ______ ____

>  <TORSDO>
F 18

$$$$
=
 OpenBabel11042421183D

 39 41  0  0  1  0  0  0  0  0999 V2000
  162.3780  208.6680  148.4930 C   0  0  0  0  0  0  0  0  0  0  0  0
  160.4380  206.7070  147.8380 C   0  0  1  0  0  3  0  0  0  0  0  0
  163.5980  208.8170  148.2230 O   0  0  0  0  0  0  0  0  0  0  0  0
  161.6790  207.5140  148.0390 N   0  0  0  0  0  0  0  0  0  0  0  0
  161.6300  206.1530  147.4230 C   0  0  2  0  0  3  0  0  0  0  0  0
  161.7890  206.2540  145.9050 C   0  0  2  0  0  3  0  0  0  0  0  0
  160.0870  204.5370  145.1410 C   0  0  0  0  0  3  0  0  0  0  0  0
  160.4600  206.0000  145.1890 C   0  0  0  0  0  2  0  0  0  0  0  0
  162.8400  205.2840  145.3600 C   0  0  0  0  0  2  0  0  0  0  0  0
  162.4310  203.8370  145.6200 C   0  0  0  0  0  2  0  0  0  0  0  0
  160.9950  203.5540  145.2630 C   0  0  0  0  0  0  0  0  0  0  0  0
  160.5740  202.1240  145.1740 C   0  0  0  0  0  2  0  0  0  0  0  0
  160.0730  201.6250  146.5190 C   0  0  0  0  0  2  0  0  0  0  0  0
  161.1530  200.8020  147.1980 C   0  0  0  0  0  2  0  0  0  0  0  0
  160.8810  201.6010  150.8140 C   0  0  0  0  0  2  0  0  0  0  0  0
  160.6240  202.9460  150.1690 C   0  0  0  0  0  2  0  0  0  0  0  0
  160.9090  202.7890  148.6860 C   0  0  0  0  0  2  0  0  0  0  0  0
  161.0490  200.6120  149.6830 C   0  0  0  0  0  2  0  0  0  0  0  0
  161.5550  201.4320  148.5210 C   0  0  0  0  0  3  0  0  0  0  0  0
  161.5350  209.9020  149.4670 S   0  0  0  0  0  0  0  0  0  0  0  0
  162.1290  211.2370  148.3970 C   0  0  0  0  0  1  0  0  0  0  0  0
  160.0590  206.1190  149.0420 O   0  0  0  0  0  0  0  0  0  0  0  0
  161.1690  206.2580  149.8790 C   0  0  0  0  0  2  0  0  0  0  0  0
  160.7190  206.5700  151.3010 C   0  0  0  0  0  2  0  0  0  0  0  0
  162.9970  206.0940  151.9090 N   0  0  0  0  0  2  0  0  0  0  0  0
  161.7740  206.1860  152.2840 C   0  0  0  0  0  0  0  0  0  0  0  0
  161.4160  206.1350  153.7420 C   0  0  0  0  0  2  0  0  0  0  0  0
  160.7500  207.4080  154.2710 C   0  0  2  0  0  3  0  0  0  0  0  0
  161.3350  208.5620  153.7410 O   0  0  0  0  0  1  0  0  0  0  0  0
  160.5610  207.4750  155.7910 C   0  0  2  0  0  3  0  0  0  0  0  0
  159.2990  207.0000  156.1510 O   0  0  0  0  0  1  0  0  0  0  0  0
  161.9450  208.9980  156.9750 O   0  0  0  0  0  0  0  0  0  0  0  0
  160.8270  208.8140  156.4260 C   0  0  0  0  0  0  0  0  0  0  0  0
  159.8700  209.8310  156.5000 O   0  0  0  0  0  0  0  0  0  0  0  0
  159.9670  211.0480  155.7750 C   0  0  0  0  0  2  0  0  0  0  0  0
  158.8200  211.1600  154.7850 C   0  0  0  0  0  2  0  0  0  0  0  0
  160.5050  211.8030  153.0640 O   0  0  0  0  0  1  0  0  0  0  0  0
  158.3550  212.5680  152.8950 O   0  0  0  0  0  0  0  0  0  0  0  0
  159.2060  211.9090  153.5450 C   0  0  0  0  0  0  0  0  0  0  0  0
  1 20  1  0  0  0  0
  2  4  1  0  0  0  0
  2 22  1  1  0  0  0
  3  1  2  0  0  0  0
  4  1  1  0  0  0  0
  5  2  1  0  0  0  0
  5  4  1  1  0  0  0
  6  8  1  6  0  0  0
  6  5  1  0  0  0  0
  7  8  1  0  0  0  0
  7 11  2  0  0  0  0
  9 10  1  0  0  0  0
  9  6  1  0  0  0  0
 11 10  1  0  0  0  0
 12 11  1  0  0  0  0
 12 13  1  0  0  0  0
 13 14  1  0  0  0  0
 14 19  1  0  0  0  0
 16 15  1  0  0  0  0
 17 16  1  0  0  0  0
 18 15  1  0  0  0  0
 19 17  1  0  0  0  0
 19 18  1  0  0  0  0
 21 20  1  0  0  0  0
 22 23  1  0  0  0  0
 23 24  1  0  0  0  0
 24 26  1  0  0  0  0
 25 26  2  0  0  0  0
 26 27  1  0  0  0  0
 27 28  1  0  0  0  0
 28 29  1  1  0  0  0
 28 30  1  0  0  0  0
 30 31  1  6  0  0  0
 30 33  1  0  0  0  0
 33 34  1  0  0  0  0
 33 32  2  0  0  0  0
 35 34  1  0  0  0  0
 36 35  1  0  0  0  0
 37 39  1  0  0  0  0
 38 39  2  0  0  0  0
 39 36  1  0  0  0  0
M  END
>  <MODEL>
7

>  <REMARK>
 VINA RESULT:      -5.3      3.681      8.323
  Name = 
  18 active torsions:
  status: ('A' for Active; 'I' for Inactive)
    1  A    between atoms: C_2  and  C_6
    2  A    between atoms: C_2  and  C_27
    3  A    between atoms: C_4  and  C_30
    4  A    between atoms: C_5  and  C_6
    5  A    between atoms: C_5  and  C_38
    6  A    between atoms: C_8  and  C_34
    7  A    between atoms: C_8  and  C_36
    8  A    between atoms: O_10  and  C_33
    9  A    between atoms: O_10  and  C_36
   10  A    between atoms: C_12  and  S_24
   11  A    between atoms: C_13  and  C_32
   12  A    between atoms: C_13  and  C_33
   13  A    between atoms: C_15  and  O_17
   14  A    between atoms: O_17  and  C_37
   15  A    between atoms: C_19  and  C_23
   16  A    between atoms: C_19  and  C_34
   17  A    between atoms: C_23  and  C_26
   18  A    between atoms: C_26  and  C_37
                            x       y       z     vdW  Elec       q    Type
                         _______ _______ _______ _____ _____    ______ ____

>  <TORSDO>
F 18

$$$$
=
 OpenBabel11042421183D

 39 41  0  0  1  0  0  0  0  0999 V2000
  161.8900  208.5400  150.0960 C   0  0  0  0  0  0  0  0  0  0  0  0
  161.4570  207.1610  152.5350 C   0  0  1  0  0  3  0  0  0  0  0  0
  161.6560  209.7110  149.6980 O   0  0  0  0  0  0  0  0  0  0  0  0
  161.4940  208.1330  151.4010 N   0  0  0  0  0  0  0  0  0  0  0  0
  160.7600  208.3410  152.6870 C   0  0  2  0  0  3  0  0  0  0  0  0
  161.5220  209.3230  153.5780 C   0  0  2  0  0  3  0  0  0  0  0  0
  159.9540  209.4670  155.5640 C   0  0  0  0  0  3  0  0  0  0  0  0
  161.3030  209.0140  155.0610 C   0  0  0  0  0  2  0  0  0  0  0  0
  161.1330  210.7790  153.3120 C   0  0  0  0  0  2  0  0  0  0  0  0
  159.6590  211.0150  153.6320 C   0  0  0  0  0  2  0  0  0  0  0  0
  159.2400  210.4290  154.9560 C   0  0  0  0  0  0  0  0  0  0  0  0
  157.9260  210.8620  155.5170 C   0  0  0  0  0  2  0  0  0  0  0  0
  157.1600  211.7040  154.5110 C   0  0  0  0  0  2  0  0  0  0  0  0
  156.9190  213.0920  155.0780 C   0  0  0  0  0  2  0  0  0  0  0  0
  155.2360  214.4300  152.0510 C   0  0  0  0  0  2  0  0  0  0  0  0
  156.6320  214.1430  151.5400 C   0  0  0  0  0  2  0  0  0  0  0  0
  157.4790  213.7760  152.7460 C   0  0  0  0  0  2  0  0  0  0  0  0
  155.2090  213.9740  153.4920 C   0  0  0  0  0  2  0  0  0  0  0  0
  156.6370  214.0850  153.9640 C   0  0  0  0  0  3  0  0  0  0  0  0
  162.7020  207.3860  149.0050 S   0  0  0  0  0  0  0  0  0  0  0  0
  161.1170  206.7150  148.4400 C   0  0  0  0  0  1  0  0  0  0  0  0
  160.5590  206.1360  152.2470 O   0  0  0  0  0  0  0  0  0  0  0  0
  161.3540  205.0190  151.9810 C   0  0  0  0  0  2  0  0  0  0  0  0
  160.5550  203.7410  152.1970 C   0  0  0  0  0  2  0  0  0  0  0  0
  162.5010  202.3460  151.9790 N   0  0  0  0  0  2  0  0  0  0  0  0
  161.2830  202.5620  151.6430 C   0  0  0  0  0  0  0  0  0  0  0  0
  160.5060  201.5280  150.8790 C   0  0  0  0  0  2  0  0  0  0  0  0
  160.0940  201.9650  149.4700 C   0  0  2  0  0  3  0  0  0  0  0  0
  158.9740  201.2650  149.0130 O   0  0  0  0  0  1  0  0  0  0  0  0
  161.2270  202.0250  148.4380 C   0  0  2  0  0  3  0  0  0  0  0  0
  161.8290  203.2840  148.4420 O   0  0  0  0  0  1  0  0  0  0  0  0
  161.1990  200.4690  146.6450 O   0  0  0  0  0  0  0  0  0  0  0  0
  160.8580  201.6160  147.0370 C   0  0  0  0  0  0  0  0  0  0  0  0
  160.2230  202.4710  146.1300 O   0  0  0  0  0  0  0  0  0  0  0  0
  160.8630  203.0060  144.9820 C   0  0  0  0  0  2  0  0  0  0  0  0
  161.5320  204.3280  145.3230 C   0  0  0  0  0  2  0  0  0  0  0  0
  160.3730  206.5250  145.1060 O   0  0  0  0  0  1  0  0  0  0  0  0
  161.2290  205.4990  143.2480 O   0  0  0  0  0  0  0  0  0  0  0  0
  161.0180  205.4610  144.4870 C   0  0  0  0  0  0  0  0  0  0  0  0
  1  4  1  0  0  0  0
  2 22  1  6  0  0  0
  2  5  1  0  0  0  0
  3  1  2  0  0  0  0
  4  2  1  0  0  0  0
  5  4  1  6  0  0  0
  5  6  1  0  0  0  0
  6  9  1  1  0  0  0
  6  8  1  0  0  0  0
  8  7  1  0  0  0  0
  9 10  1  0  0  0  0
 10 11  1  0  0  0  0
 11 12  1  0  0  0  0
 11  7  2  0  0  0  0
 13 14  1  0  0  0  0
 13 12  1  0  0  0  0
 15 18  1  0  0  0  0
 16 15  1  0  0  0  0
 16 17  1  0  0  0  0
 17 19  1  0  0  0  0
 18 19  1  0  0  0  0
 19 14  1  0  0  0  0
 20  1  1  0  0  0  0
 21 20  1  0  0  0  0
 23 24  1  0  0  0  0
 23 22  1  0  0  0  0
 26 25  2  0  0  0  0
 26 24  1  0  0  0  0
 27 26  1  0  0  0  0
 28 29  1  6  0  0  0
 28 27  1  0  0  0  0
 30 31  1  6  0  0  0
 30 28  1  0  0  0  0
 32 33  2  0  0  0  0
 33 30  1  0  0  0  0
 34 33  1  0  0  0  0
 35 36  1  0  0  0  0
 35 34  1  0  0  0  0
 38 39  2  0  0  0  0
 39 37  1  0  0  0  0
 39 36  1  0  0  0  0
M  END
>  <MODEL>
8

>  <REMARK>
 VINA RESULT:      -5.3      3.678      7.662
  Name = 
  18 active torsions:
  status: ('A' for Active; 'I' for Inactive)
    1  A    between atoms: C_2  and  C_6
    2  A    between atoms: C_2  and  C_27
    3  A    between atoms: C_4  and  C_30
    4  A    between atoms: C_5  and  C_6
    5  A    between atoms: C_5  and  C_38
    6  A    between atoms: C_8  and  C_34
    7  A    between atoms: C_8  and  C_36
    8  A    between atoms: O_10  and  C_33
    9  A    between atoms: O_10  and  C_36
   10  A    between atoms: C_12  and  S_24
   11  A    between atoms: C_13  and  C_32
   12  A    between atoms: C_13  and  C_33
   13  A    between atoms: C_15  and  O_17
   14  A    between atoms: O_17  and  C_37
   15  A    between atoms: C_19  and  C_23
   16  A    between atoms: C_19  and  C_34
   17  A    between atoms: C_23  and  C_26
   18  A    between atoms: C_26  and  C_37
                            x       y       z     vdW  Elec       q    Type
                         _______ _______ _______ _____ _____    ______ ____

>  <TORSDO>
F 18

$$$$
=
 OpenBabel11042421183D

 39 41  0  0  1  0  0  0  0  0999 V2000
  160.9820  202.1770  146.7580 C   0  0  0  0  0  0  0  0  0  0  0  0
  161.0390  204.6230  148.1890 C   0  0  1  0  0  3  0  0  0  0  0  0
  161.2150  200.9780  147.0630 O   0  0  0  0  0  0  0  0  0  0  0  0
  161.1540  203.2080  147.7230 N   0  0  0  0  0  0  0  0  0  0  0  0
  161.6240  203.7170  149.0480 C   0  0  2  0  0  3  0  0  0  0  0  0
  160.6530  203.2940  150.1520 C   0  0  2  0  0  3  0  0  0  0  0  0
  160.4690  205.4530  151.4660 C   0  0  0  0  0  3  0  0  0  0  0  0
  159.7580  204.4580  150.5800 C   0  0  0  0  0  2  0  0  0  0  0  0
  161.3730  202.7410  151.3840 C   0  0  0  0  0  2  0  0  0  0  0  0
  162.2580  203.8080  152.0220 C   0  0  0  0  0  2  0  0  0  0  0  0
  161.5630  205.1360  152.1790 C   0  0  0  0  0  0  0  0  0  0  0  0
  162.2060  206.1520  153.0640 C   0  0  0  0  0  2  0  0  0  0  0  0
  161.1680  206.8480  153.9300 C   0  0  0  0  0  2  0  0  0  0  0  0
  161.1430  208.3320  153.6120 C   0  0  0  0  0  2  0  0  0  0  0  0
  162.3320  210.6560  156.2510 C   0  0  0  0  0  2  0  0  0  0  0  0
  162.2290  209.3460  157.0020 C   0  0  0  0  0  2  0  0  0  0  0  0
  161.5550  208.3530  156.0710 C   0  0  0  0  0  2  0  0  0  0  0  0
  161.9700  210.3530  154.8150 C   0  0  0  0  0  2  0  0  0  0  0  0
  161.0590  209.1520  154.8880 C   0  0  0  0  0  3  0  0  0  0  0  0
  160.4560  202.5770  145.1010 S   0  0  0  0  0  0  0  0  0  0  0  0
  159.7250  200.9350  144.8730 C   0  0  0  0  0  1  0  0  0  0  0  0
  162.0350  205.3960  147.5970 O   0  0  0  0  0  0  0  0  0  0  0  0
  161.4680  206.6630  147.4420 C   0  0  0  0  0  2  0  0  0  0  0  0
  161.0110  207.2030  148.7920 C   0  0  0  0  0  2  0  0  0  0  0  0
  162.6900  208.2130  150.1860 N   0  0  0  0  0  2  0  0  0  0  0  0
  161.8630  208.3530  149.2160 C   0  0  0  0  0  0  0  0  0  0  0  0
  161.8980  209.5820  148.3530 C   0  0  0  0  0  2  0  0  0  0  0  0
  162.3210  210.8550  149.0910 C   0  0  2  0  0  3  0  0  0  0  0  0
  161.6290  211.0160  150.2940 O   0  0  0  0  0  1  0  0  0  0  0  0
  162.3530  212.1320  148.2420 C   0  0  2  0  0  3  0  0  0  0  0  0
  163.6600  212.6070  148.1190 O   0  0  0  0  0  1  0  0  0  0  0  0
  161.6350  214.3950  148.2410 O   0  0  0  0  0  0  0  0  0  0  0  0
  161.4260  213.2340  148.6810 C   0  0  0  0  0  0  0  0  0  0  0  0
  160.3940  213.0450  149.6060 O   0  0  0  0  0  0  0  0  0  0  0  0
  159.8590  214.0910  150.4020 C   0  0  0  0  0  2  0  0  0  0  0  0
  159.6550  213.6110  151.8300 C   0  0  0  0  0  2  0  0  0  0  0  0
  157.8720  212.5010  153.1730 O   0  0  0  0  0  1  0  0  0  0  0  0
  157.3050  214.0400  151.5770 O   0  0  0  0  0  0  0  0  0  0  0  0
  158.2100  213.3850  152.1560 C   0  0  0  0  0  0  0  0  0  0  0  0
  1  3  2  0  0  0  0
  1  4  1  0  0  0  0
  2 22  1  6  0  0  0
  2  5  1  0  0  0  0
  4  2  1  0  0  0  0
  5  4  1  6  0  0  0
  5  6  1  0  0  0  0
  6  8  1  1  0  0  0
  6  9  1  0  0  0  0
  7 11  2  0  0  0  0
  8  7  1  0  0  0  0
  9 10  1  0  0  0  0
 10 11  1  0  0  0  0
 11 12  1  0  0  0  0
 12 13  1  0  0  0  0
 14 13  1  0  0  0  0
 14 19  1  0  0  0  0
 15 16  1  0  0  0  0
 17 16  1  0  0  0  0
 18 19  1  0  0  0  0
 18 15  1  0  0  0  0
 19 17  1  0  0  0  0
 20  1  1  0  0  0  0
 21 20  1  0  0  0  0
 23 22  1  0  0  0  0
 23 24  1  0  0  0  0
 24 26  1  0  0  0  0
 26 25  2  0  0  0  0
 27 28  1  0  0  0  0
 27 26  1  0  0  0  0
 28 29  1  1  0  0  0
 30 31  1  1  0  0  0
 30 33  1  0  0  0  0
 30 28  1  0  0  0  0
 32 33  2  0  0  0  0
 33 34  1  0  0  0  0
 34 35  1  0  0  0  0
 35 36  1  0  0  0  0
 36 39  1  0  0  0  0
 38 39  2  0  0  0  0
 39 37  1  0  0  0  0
M  END
>  <MODEL>
9

>  <REMARK>
 VINA RESULT:      -5.3      2.694      4.204
  Name = 
  18 active torsions:
  status: ('A' for Active; 'I' for Inactive)
    1  A    between atoms: C_2  and  C_6
    2  A    between atoms: C_2  and  C_27
    3  A    between atoms: C_4  and  C_30
    4  A    between atoms: C_5  and  C_6
    5  A    between atoms: C_5  and  C_38
    6  A    between atoms: C_8  and  C_34
    7  A    between atoms: C_8  and  C_36
    8  A    between atoms: O_10  and  C_33
    9  A    between atoms: O_10  and  C_36
   10  A    between atoms: C_12  and  S_24
   11  A    between atoms: C_13  and  C_32
   12  A    between atoms: C_13  and  C_33
   13  A    between atoms: C_15  and  O_17
   14  A    between atoms: O_17  and  C_37
   15  A    between atoms: C_19  and  C_23
   16  A    between atoms: C_19  and  C_34
   17  A    between atoms: C_23  and  C_26
   18  A    between atoms: C_26  and  C_37
                            x       y       z     vdW  Elec       q    Type
                         _______ _______ _______ _____ _____    ______ ____

>  <TORSDO>
F 18

$$$$
