=
 OpenBabel11052411313D

 59 66  0  0  1  0  0  0  0  0999 V2000
  161.7360  205.9470  146.9660 C   0  0  0  0  0  0  0  0  0  0  0  0
  161.1320  206.4160  145.7530 N   0  0  0  0  0  2  0  0  0  0  0  0
  162.0910  204.7390  147.0640 O   0  0  0  0  0  0  0  0  0  0  0  0
  161.9720  206.3260  149.4070 C   0  0  0  0  0  3  0  0  0  0  0  0
  161.8830  206.8480  148.1140 C   0  0  0  0  0  0  0  0  0  0  0  0
  162.0090  207.1800  150.5120 C   0  0  0  0  0  0  0  0  0  0  0  0
  161.8400  208.2330  147.9370 C   0  0  0  0  0  3  0  0  0  0  0  0
  162.0060  208.5640  150.3330 C   0  0  0  0  0  3  0  0  0  0  0  0
  161.8980  209.0990  149.0420 C   0  0  0  0  0  3  0  0  0  0  0  0
  162.1380  206.5980  151.8130 N   0  0  0  0  0  2  0  0  0  0  0  0
  160.9990  206.1670  152.6150 C   0  0  1  0  0  3  0  0  0  0  0  0
  161.1070  204.6760  152.8500 C   0  0  0  0  0  1  0  0  0  0  0  0
  160.3180  206.4500  155.0070 N   0  0  0  0  0  0  0  0  0  0  0  0
  160.4370  207.3930  155.9230 N   0  0  0  0  0  0  0  0  0  0  0  0
  161.5430  208.0810  154.0950 N   0  0  0  0  0  2  0  0  0  0  0  0
  161.0040  206.8630  153.9260 C   0  0  0  0  0  0  0  0  0  0  0  0
  161.1830  208.3650  155.3650 C   0  0  0  0  0  0  0  0  0  0  0  0
  161.3510  209.7020  155.9850 C   0  0  0  0  0  2  0  0  0  0  0  0
  159.9940  210.1860  156.4470 C   0  0  0  0  0  2  0  0  0  0  0  0
  160.6470  212.3620  155.7010 O   0  0  0  0  0  1  0  0  0  0  0  0
  159.5950  211.4350  155.6950 C   0  0  1  0  0  3  0  0  0  0  0  0
  159.1800  211.0360  154.2600 C   0  0  2  0  0  3  0  0  0  0  0  0
  159.0990  213.1720  152.7300 C   0  0  0  0  0  0  0  0  0  0  0  0
  159.7990  211.9290  153.2350 C   0  0  1  0  0  0  0  0  0  0  0  0
  160.0830  211.1120  152.1280 O   0  0  0  0  0  1  0  0  0  0  0  0
  158.3410  212.0250  153.4490 C   0  0  2  0  0  0  0  0  0  0  0  0
  159.0730  214.3020  152.0290 C   0  0  0  0  0  2  0  0  0  0  0  0
  157.5220  212.8040  154.4960 C   0  0  0  0  0  2  0  0  0  0  0  0
  155.2920  213.8760  154.6030 C   0  0  0  0  0  1  0  0  0  0  0  0
  155.5760  211.6100  155.2760 O   0  0  0  0  0  1  0  0  0  0  0  0
  156.0180  212.5720  154.3640 C   0  0  2  0  0  3  0  0  0  0  0  0
  160.8760  205.5710  144.7310 O   0  0  0  0  0  0  0  0  0  0  0  0
  161.9620  205.6740  143.8480 C   0  0  0  0  0  2  0  0  0  0  0  0
  161.4940  205.7450  142.3950 C   0  0  0  0  0  2  0  0  0  0  0  0
  162.8640  206.5270  140.4510 C   0  0  0  0  0  2  0  0  0  0  0  0
  161.4890  207.1550  140.3720 C   0  0  1  0  0  3  0  0  0  0  0  0
  162.1380  206.9450  141.7200 C   0  0  1  0  0  3  0  0  0  0  0  0
  162.7490  209.2040  139.7580 F   0  0  0  0  0  0  0  0  0  0  0  0
  161.4960  208.6320  139.9410 C   0  0  1  0  0  3  0  0  0  0  0  0
  160.3480  208.6040  137.6470 C   0  0  0  0  0  1  0  0  0  0  0  0
  160.4820  209.1380  138.9930 N   0  0  0  0  0  0  0  0  0  0  0  0
  158.3590  210.4250  138.9310 C   0  0  0  0  0  3  0  0  0  0  0  0
  159.5110  212.4490  140.4890 C   0  0  0  0  0  0  0  0  0  0  0  0
  157.6110  211.5510  139.2760 C   0  0  0  0  0  3  0  0  0  0  0  0
  160.2660  211.3170  140.1260 C   0  0  0  0  0  3  0  0  0  0  0  0
  158.1820  212.5570  140.0610 C   0  0  0  0  0  3  0  0  0  0  0  0
  159.6980  210.3010  139.3520 C   0  0  0  0  0  0  0  0  0  0  0  0
  160.0900  213.4950  141.3540 C   0  0  0  0  0  0  0  0  0  0  0  0
  160.8260  214.3900  140.8470 O   0  0  0  0  0  0  0  0  0  0  0  0
  158.9020  214.4340  143.3110 O   0  0  0  0  0  1  0  0  0  0  0  0
  159.0170  212.1140  144.6300 O   0  0  0  0  0  1  0  0  0  0  0  0
  162.3830  212.8370  143.2470 C   0  0  0  0  0  2  0  0  0  0  0  0
  159.8330  213.5130  142.8350 C   0  0  1  0  0  0  0  0  0  0  0  0
  162.5600  213.8070  145.4630 N   0  0  0  0  0  0  0  0  0  0  0  0
  160.2850  214.2860  145.8370 O   0  0  0  0  0  0  0  0  0  0  0  0
  159.9320  212.1620  143.5730 C   0  0  1  0  0  3  0  0  0  0  0  0
  161.0060  213.2370  143.7580 C   0  0  1  0  0  0  0  0  0  0  0  0
  161.1960  213.8080  145.1060 C   0  0  0  0  0  0  0  0  0  0  0  0
  163.3480  213.2060  144.3900 C   0  0  0  0  0  3  0  0  0  0  0  0
  1  3  2  0  0  0  0
  1  5  1  0  0  0  0
  2  1  1  0  0  0  0
  4  6  1  0  0  0  0
  5  4  2  0  0  0  0
  6 10  1  0  0  0  0
  7  5  1  0  0  0  0
  7  9  2  0  0  0  0
  8  6  2  0  0  0  0
  9  8  1  0  0  0  0
 10 11  1  0  0  0  0
 11 12  1  1  0  0  0
 11 16  1  0  0  0  0
 13 14  1  0  0  0  0
 15 17  1  0  0  0  0
 16 15  1  0  0  0  0
 16 13  2  0  0  0  0
 17 14  2  0  0  0  0
 17 18  1  0  0  0  0
 18 19  1  0  0  0  0
 21 20  1  6  0  0  0
 21 19  1  0  0  0  0
 22 21  1  1  0  0  0
 23 24  1  0  0  0  0
 23 26  1  0  0  0  0
 24 25  1  6  0  0  0
 24 26  1  0  0  0  0
 24 22  1  0  0  0  0
 26 22  1  0  0  0  0
 26 28  1  1  0  0  0
 27 23  2  0  0  0  0
 31 28  1  0  0  0  0
 31 29  1  1  0  0  0
 31 30  1  0  0  0  0
 32  2  1  0  0  0  0
 33 32  1  0  0  0  0
 34 33  1  0  0  0  0
 35 37  1  0  0  0  0
 36 39  1  6  0  0  0
 36 35  1  0  0  0  0
 36 37  1  0  0  0  0
 37 34  1  1  0  0  0
 39 38  1  6  0  0  0
 40 41  1  0  0  0  0
 41 47  1  0  0  0  0
 41 39  1  0  0  0  0
 42 44  2  0  0  0  0
 42 47  1  0  0  0  0
 43 48  1  0  0  0  0
 44 46  1  0  0  0  0
 45 43  1  0  0  0  0
 46 43  2  0  0  0  0
 47 45  2  0  0  0  0
 48 53  1  0  0  0  0
 49 48  2  0  0  0  0
 52 59  1  0  0  0  0
 53 50  1  1  0  0  0
 53 56  1  0  0  0  0
 53 57  1  0  0  0  0
 56 57  1  0  0  0  0
 56 51  1  1  0  0  0
 57 52  1  6  0  0  0
 57 58  1  0  0  0  0
 58 54  1  0  0  0  0
 58 55  2  0  0  0  0
 59 54  2  0  0  0  0
M  END
>  <MODEL>
1

>  <REMARK>
 VINA RESULT:      -5.9      0.000      0.000
  Name = 
  19 active torsions:
  status: ('A' for Active; 'I' for Inactive)
    1  A    between atoms: C_1  and  C_39
    2  A    between atoms: C_1  and  C_43
    3  A    between atoms: C_3  and  C_57
    4  A    between atoms: N_5  and  C_14
    5  A    between atoms: N_5  and  C_32
    6  A    between atoms: C_12  and  C_13
    7  A    between atoms: C_19  and  C_26
    8  A    between atoms: C_22  and  C_26
    9  A    between atoms: N_23  and  O_51
   10  A    between atoms: C_27  and  C_32
   11  A    between atoms: C_28  and  N_36
   12  A    between atoms: C_28  and  C_44
   13  A    between atoms: N_36  and  C_58
   14  A    between atoms: C_43  and  C_57
   15  A    between atoms: C_46  and  C_49
   16  A    between atoms: C_49  and  C_55
   17  A    between atoms: C_50  and  C_53
   18  A    between atoms: C_50  and  C_56
   19  A    between atoms: O_51  and  C_53
                            x       y       z     vdW  Elec       q    Type
                         _______ _______ _______ _____ _____    ______ ____

>  <TORSDO>
F 19

$$$$
=
 OpenBabel11052411313D

 59 66  0  0  1  0  0  0  0  0999 V2000
  161.0970  206.2330  146.2550 C   0  0  0  0  0  0  0  0  0  0  0  0
  162.0310  205.4150  145.5370 N   0  0  0  0  0  2  0  0  0  0  0  0
  159.9510  206.4480  145.7730 O   0  0  0  0  0  0  0  0  0  0  0  0
  161.5770  206.1220  148.6870 C   0  0  0  0  0  3  0  0  0  0  0  0
  161.4940  206.8750  147.5130 C   0  0  0  0  0  0  0  0  0  0  0  0
  161.8540  206.7440  149.9070 C   0  0  0  0  0  0  0  0  0  0  0  0
  161.6980  208.2560  147.5700 C   0  0  0  0  0  3  0  0  0  0  0  0
  162.0970  208.1180  149.9570 C   0  0  0  0  0  3  0  0  0  0  0  0
  161.9970  208.8860  148.7890 C   0  0  0  0  0  3  0  0  0  0  0  0
  161.9670  205.9260  151.0740 N   0  0  0  0  0  2  0  0  0  0  0  0
  160.8670  205.7020  152.0060 C   0  0  1  0  0  3  0  0  0  0  0  0
  160.9660  204.2920  152.5450 C   0  0  0  0  0  1  0  0  0  0  0  0
  160.7230  206.3350  154.4230 N   0  0  0  0  0  0  0  0  0  0  0  0
  160.7370  207.4610  155.1120 N   0  0  0  0  0  0  0  0  0  0  0  0
  161.0810  207.9830  152.9570 N   0  0  0  0  0  2  0  0  0  0  0  0
  160.9540  206.6580  153.1380 C   0  0  0  0  0  0  0  0  0  0  0  0
  160.9620  208.4440  154.2210 C   0  0  0  0  0  0  0  0  0  0  0  0
  160.8200  209.8810  154.5580 C   0  0  0  0  0  2  0  0  0  0  0  0
  160.8080  210.6730  153.2690 C   0  0  0  0  0  2  0  0  0  0  0  0
  158.4490  210.6750  153.6580 O   0  0  0  0  0  1  0  0  0  0  0  0
  159.5060  211.4270  153.1260 C   0  0  1  0  0  3  0  0  0  0  0  0
  159.6500  212.8000  153.8210 C   0  0  2  0  0  3  0  0  0  0  0  0
  157.2940  213.6460  154.6210 C   0  0  0  0  0  0  0  0  0  0  0  0
  158.6290  212.9900  154.8940 C   0  0  1  0  0  0  0  0  0  0  0  0
  159.2680  213.7140  155.9140 O   0  0  0  0  0  1  0  0  0  0  0  0
  158.5100  213.8100  153.6710 C   0  0  2  0  0  0  0  0  0  0  0  0
  156.0650  214.0040  154.9830 C   0  0  0  0  0  2  0  0  0  0  0  0
  157.8770  213.4960  152.3020 C   0  0  0  0  0  2  0  0  0  0  0  0
  157.6730  214.1450  149.9210 C   0  0  0  0  0  1  0  0  0  0  0  0
  159.8150  213.7670  150.8890 O   0  0  0  0  0  1  0  0  0  0  0  0
  158.5350  214.2630  151.1560 C   0  0  2  0  0  3  0  0  0  0  0  0
  161.7270  204.9170  144.3190 O   0  0  0  0  0  0  0  0  0  0  0  0
  162.4050  205.7130  143.3820 C   0  0  0  0  0  2  0  0  0  0  0  0
  161.5670  205.9280  142.1230 C   0  0  0  0  0  2  0  0  0  0  0  0
  161.8110  206.6360  139.7340 C   0  0  0  0  0  2  0  0  0  0  0  0
  161.4050  207.8340  140.5660 C   0  0  1  0  0  3  0  0  0  0  0  0
  162.3420  206.8010  141.1490 C   0  0  1  0  0  3  0  0  0  0  0  0
  163.2540  208.9930  139.3840 F   0  0  0  0  0  0  0  0  0  0  0  0
  162.1300  209.1370  140.1880 C   0  0  1  0  0  3  0  0  0  0  0  0
  160.1390  210.3390  139.1080 C   0  0  0  0  0  1  0  0  0  0  0  0
  161.3600  210.3630  139.8970 N   0  0  0  0  0  0  0  0  0  0  0  0
  162.4830  212.4980  139.3080 C   0  0  0  0  0  3  0  0  0  0  0  0
  162.3950  213.3140  141.9870 C   0  0  0  0  0  0  0  0  0  0  0  0
  163.0150  213.7330  139.6790 C   0  0  0  0  0  3  0  0  0  0  0  0
  161.8720  212.0620  141.6090 C   0  0  0  0  0  3  0  0  0  0  0  0
  162.9630  214.1450  141.0140 C   0  0  0  0  0  3  0  0  0  0  0  0
  161.9090  211.6480  140.2740 C   0  0  0  0  0  0  0  0  0  0  0  0
  162.3050  213.7760  143.3860 C   0  0  0  0  0  0  0  0  0  0  0  0
  163.3280  214.2600  143.9510 O   0  0  0  0  0  0  0  0  0  0  0  0
  159.9500  214.4510  143.7290 O   0  0  0  0  0  1  0  0  0  0  0  0
  159.3100  212.0820  144.7820 O   0  0  0  0  0  1  0  0  0  0  0  0
  162.4410  213.2640  146.3850 C   0  0  0  0  0  2  0  0  0  0  0  0
  161.0210  213.6720  144.1610 C   0  0  1  0  0  0  0  0  0  0  0  0
  160.7680  214.1070  147.9260 N   0  0  0  0  0  0  0  0  0  0  0  0
  158.9580  214.3030  146.4320 O   0  0  0  0  0  0  0  0  0  0  0  0
  160.6920  212.2980  144.7790 C   0  0  1  0  0  3  0  0  0  0  0  0
  161.1170  213.4740  145.6620 C   0  0  1  0  0  0  0  0  0  0  0  0
  160.1560  213.9780  146.6620 C   0  0  0  0  0  0  0  0  0  0  0  0
  162.1580  213.6670  147.8450 C   0  0  0  0  0  3  0  0  0  0  0  0
  1  5  1  0  0  0  0
  2  1  1  0  0  0  0
  3  1  2  0  0  0  0
  4  6  1  0  0  0  0
  5  7  1  0  0  0  0
  5  4  2  0  0  0  0
  6  8  2  0  0  0  0
  6 10  1  0  0  0  0
  7  9  2  0  0  0  0
  9  8  1  0  0  0  0
 10 11  1  0  0  0  0
 11 12  1  1  0  0  0
 11 16  1  0  0  0  0
 13 14  1  0  0  0  0
 15 16  1  0  0  0  0
 15 17  1  0  0  0  0
 16 13  2  0  0  0  0
 17 18  1  0  0  0  0
 17 14  2  0  0  0  0
 19 18  1  0  0  0  0
 21 19  1  0  0  0  0
 21 20  1  1  0  0  0
 22 21  1  6  0  0  0
 22 24  1  0  0  0  0
 23 24  1  0  0  0  0
 23 27  2  0  0  0  0
 24 25  1  1  0  0  0
 26 28  1  6  0  0  0
 26 22  1  0  0  0  0
 26 23  1  0  0  0  0
 26 24  1  0  0  0  0
 30 31  1  0  0  0  0
 31 29  1  6  0  0  0
 31 28  1  0  0  0  0
 32  2  1  0  0  0  0
 33 32  1  0  0  0  0
 34 33  1  0  0  0  0
 35 36  1  0  0  0  0
 35 37  1  0  0  0  0
 36 39  1  6  0  0  0
 36 37  1  0  0  0  0
 37 34  1  1  0  0  0
 39 38  1  6  0  0  0
 40 41  1  0  0  0  0
 41 39  1  0  0  0  0
 41 47  1  0  0  0  0
 42 44  2  0  0  0  0
 42 47  1  0  0  0  0
 43 48  1  0  0  0  0
 44 46  1  0  0  0  0
 45 43  1  0  0  0  0
 46 43  2  0  0  0  0
 47 45  2  0  0  0  0
 48 49  2  0  0  0  0
 48 53  1  0  0  0  0
 52 59  1  0  0  0  0
 53 50  1  6  0  0  0
 53 56  1  0  0  0  0
 53 57  1  0  0  0  0
 55 58  2  0  0  0  0
 56 51  1  1  0  0  0
 56 57  1  0  0  0  0
 57 52  1  1  0  0  0
 57 58  1  0  0  0  0
 58 54  1  0  0  0  0
 59 54  2  0  0  0  0
M  END
>  <MODEL>
2

>  <REMARK>
 VINA RESULT:      -4.3      1.541      2.604
  Name = 
  19 active torsions:
  status: ('A' for Active; 'I' for Inactive)
    1  A    between atoms: C_1  and  C_39
    2  A    between atoms: C_1  and  C_43
    3  A    between atoms: C_3  and  C_57
    4  A    between atoms: N_5  and  C_14
    5  A    between atoms: N_5  and  C_32
    6  A    between atoms: C_12  and  C_13
    7  A    between atoms: C_19  and  C_26
    8  A    between atoms: C_22  and  C_26
    9  A    between atoms: N_23  and  O_51
   10  A    between atoms: C_27  and  C_32
   11  A    between atoms: C_28  and  N_36
   12  A    between atoms: C_28  and  C_44
   13  A    between atoms: N_36  and  C_58
   14  A    between atoms: C_43  and  C_57
   15  A    between atoms: C_46  and  C_49
   16  A    between atoms: C_49  and  C_55
   17  A    between atoms: C_50  and  C_53
   18  A    between atoms: C_50  and  C_56
   19  A    between atoms: O_51  and  C_53
                            x       y       z     vdW  Elec       q    Type
                         _______ _______ _______ _____ _____    ______ ____

>  <TORSDO>
F 19

$$$$
=
 OpenBabel11052411313D

 59 66  0  0  1  0  0  0  0  0999 V2000
  161.2290  205.2400  145.9930 C   0  0  0  0  0  0  0  0  0  0  0  0
  161.9340  205.7640  144.8600 N   0  0  0  0  0  2  0  0  0  0  0  0
  160.4480  204.2590  145.8470 O   0  0  0  0  0  0  0  0  0  0  0  0
  160.8180  205.2720  148.4400 C   0  0  0  0  0  3  0  0  0  0  0  0
  161.3610  205.8810  147.3060 C   0  0  0  0  0  0  0  0  0  0  0  0
  160.8500  205.9240  149.6760 C   0  0  0  0  0  0  0  0  0  0  0  0
  161.9450  207.1450  147.4210 C   0  0  0  0  0  3  0  0  0  0  0  0
  161.4690  207.1690  149.7980 C   0  0  0  0  0  3  0  0  0  0  0  0
  162.0000  207.7980  148.6640 C   0  0  0  0  0  3  0  0  0  0  0  0
  160.3150  205.2440  150.8140 N   0  0  0  0  0  2  0  0  0  0  0  0
  161.0720  205.0100  152.0390 C   0  0  1  0  0  3  0  0  0  0  0  0
  162.4600  204.5360  151.6690 C   0  0  0  0  0  1  0  0  0  0  0  0
  161.7480  207.3990  152.3560 N   0  0  0  0  0  0  0  0  0  0  0  0
  161.8070  208.2430  153.3690 N   0  0  0  0  0  0  0  0  0  0  0  0
  160.9030  206.3350  154.1290 N   0  0  0  0  0  2  0  0  0  0  0  0
  161.1830  206.2690  152.8180 C   0  0  0  0  0  0  0  0  0  0  0  0
  161.2870  207.5940  154.4280 C   0  0  0  0  0  0  0  0  0  0  0  0
  161.3850  208.1130  155.8140 C   0  0  0  0  0  2  0  0  0  0  0  0
  161.4070  209.6250  155.7550 C   0  0  0  0  0  2  0  0  0  0  0  0
  159.5480  209.7000  157.2580 O   0  0  0  0  0  1  0  0  0  0  0  0
  160.0290  210.1830  156.0330 C   0  0  1  0  0  3  0  0  0  0  0  0
  160.1060  211.7270  156.0070 C   0  0  2  0  0  3  0  0  0  0  0  0
  157.8410  212.7170  155.1140 C   0  0  0  0  0  0  0  0  0  0  0  0
  158.7730  212.3530  156.2490 C   0  0  1  0  0  0  0  0  0  0  0  0
  159.0210  213.5170  156.9960 O   0  0  0  0  0  1  0  0  0  0  0  0
  159.3580  212.4690  154.8980 C   0  0  2  0  0  0  0  0  0  0  0  0
  156.6690  213.1340  154.6440 C   0  0  0  0  0  2  0  0  0  0  0  0
  159.3450  211.4950  153.7050 C   0  0  0  0  0  2  0  0  0  0  0  0
  159.2500  212.8540  151.6360 C   0  0  0  0  0  1  0  0  0  0  0  0
  160.6770  210.9530  151.7660 O   0  0  0  0  0  1  0  0  0  0  0  0
  160.1480  212.0100  152.5110 C   0  0  2  0  0  3  0  0  0  0  0  0
  161.7310  205.2650  143.6220 O   0  0  0  0  0  0  0  0  0  0  0  0
  162.3360  206.1620  142.7260 C   0  0  0  0  0  2  0  0  0  0  0  0
  161.4920  206.3450  141.4660 C   0  0  0  0  0  2  0  0  0  0  0  0
  163.1340  206.5030  139.5820 C   0  0  0  0  0  2  0  0  0  0  0  0
  161.7780  206.9740  139.0990 C   0  0  1  0  0  3  0  0  0  0  0  0
  162.2160  207.2820  140.5120 C   0  0  1  0  0  3  0  0  0  0  0  0
  162.5590  208.0670  137.0110 F   0  0  0  0  0  0  0  0  0  0  0  0
  161.8310  208.2110  138.1860 C   0  0  1  0  0  3  0  0  0  0  0  0
  159.3360  208.5400  137.6860 C   0  0  0  0  0  1  0  0  0  0  0  0
  160.6430  209.0760  138.0310 N   0  0  0  0  0  0  0  0  0  0  0  0
  160.1630  211.3400  137.1290 C   0  0  0  0  0  3  0  0  0  0  0  0
  161.7710  212.4990  139.1090 C   0  0  0  0  0  0  0  0  0  0  0  0
  160.3300  212.7240  137.1700 C   0  0  0  0  0  3  0  0  0  0  0  0
  161.6100  211.1010  139.0540 C   0  0  0  0  0  3  0  0  0  0  0  0
  161.1240  213.3040  138.1630 C   0  0  0  0  0  3  0  0  0  0  0  0
  160.8070  210.5140  138.0710 C   0  0  0  0  0  0  0  0  0  0  0  0
  162.5710  213.1240  140.1800 C   0  0  0  0  0  0  0  0  0  0  0  0
  163.6530  213.7110  139.8910 O   0  0  0  0  0  0  0  0  0  0  0  0
  162.4730  211.9250  142.3420 O   0  0  0  0  0  1  0  0  0  0  0  0
  162.4120  214.2070  143.7290 O   0  0  0  0  0  1  0  0  0  0  0  0
  159.9460  214.4530  140.9660 C   0  0  0  0  0  2  0  0  0  0  0  0
  162.1320  213.0650  141.6170 C   0  0  1  0  0  0  0  0  0  0  0  0
  158.5570  213.6230  142.7730 N   0  0  0  0  0  0  0  0  0  0  0  0
  160.2130  212.5180  144.0310 O   0  0  0  0  0  0  0  0  0  0  0  0
  162.0820  214.4020  142.3830 C   0  0  1  0  0  3  0  0  0  0  0  0
  160.7930  213.6860  141.9720 C   0  0  1  0  0  0  0  0  0  0  0  0
  159.8830  213.2220  143.0360 C   0  0  0  0  0  0  0  0  0  0  0  0
  158.5160  214.4020  141.5380 C   0  0  0  0  0  3  0  0  0  0  0  0
  1  5  1  0  0  0  0
  2  1  1  0  0  0  0
  3  1  2  0  0  0  0
  4  6  1  0  0  0  0
  5  7  1  0  0  0  0
  5  4  2  0  0  0  0
  6  8  2  0  0  0  0
  6 10  1  0  0  0  0
  7  9  2  0  0  0  0
  9  8  1  0  0  0  0
 10 11  1  0  0  0  0
 11 12  1  6  0  0  0
 11 16  1  0  0  0  0
 13 16  2  0  0  0  0
 13 14  1  0  0  0  0
 14 17  2  0  0  0  0
 15 17  1  0  0  0  0
 16 15  1  0  0  0  0
 17 18  1  0  0  0  0
 19 18  1  0  0  0  0
 19 21  1  0  0  0  0
 21 20  1  1  0  0  0
 22 21  1  6  0  0  0
 22 24  1  0  0  0  0
 23 24  1  0  0  0  0
 24 25  1  1  0  0  0
 26 28  1  1  0  0  0
 26 23  1  0  0  0  0
 26 22  1  0  0  0  0
 26 24  1  0  0  0  0
 27 23  2  0  0  0  0
 30 31  1  0  0  0  0
 31 29  1  6  0  0  0
 31 28  1  0  0  0  0
 32  2  1  0  0  0  0
 33 32  1  0  0  0  0
 34 33  1  0  0  0  0
 35 37  1  0  0  0  0
 36 39  1  6  0  0  0
 36 35  1  0  0  0  0
 36 37  1  0  0  0  0
 37 34  1  1  0  0  0
 39 38  1  6  0  0  0
 40 41  1  0  0  0  0
 41 47  1  0  0  0  0
 41 39  1  0  0  0  0
 42 44  2  0  0  0  0
 42 47  1  0  0  0  0
 43 48  1  0  0  0  0
 44 46  1  0  0  0  0
 45 43  1  0  0  0  0
 46 43  2  0  0  0  0
 47 45  2  0  0  0  0
 48 53  1  0  0  0  0
 49 48  2  0  0  0  0
 52 59  1  0  0  0  0
 53 57  1  0  0  0  0
 53 50  1  1  0  0  0
 53 56  1  0  0  0  0
 54 58  1  0  0  0  0
 56 51  1  1  0  0  0
 57 52  1  6  0  0  0
 57 56  1  0  0  0  0
 57 58  1  0  0  0  0
 58 55  2  0  0  0  0
 59 54  2  0  0  0  0
M  END
>  <MODEL>
3

>  <REMARK>
 VINA RESULT:      -3.9      1.764      2.809
  Name = 
  19 active torsions:
  status: ('A' for Active; 'I' for Inactive)
    1  A    between atoms: C_1  and  C_39
    2  A    between atoms: C_1  and  C_43
    3  A    between atoms: C_3  and  C_57
    4  A    between atoms: N_5  and  C_14
    5  A    between atoms: N_5  and  C_32
    6  A    between atoms: C_12  and  C_13
    7  A    between atoms: C_19  and  C_26
    8  A    between atoms: C_22  and  C_26
    9  A    between atoms: N_23  and  O_51
   10  A    between atoms: C_27  and  C_32
   11  A    between atoms: C_28  and  N_36
   12  A    between atoms: C_28  and  C_44
   13  A    between atoms: N_36  and  C_58
   14  A    between atoms: C_43  and  C_57
   15  A    between atoms: C_46  and  C_49
   16  A    between atoms: C_49  and  C_55
   17  A    between atoms: C_50  and  C_53
   18  A    between atoms: C_50  and  C_56
   19  A    between atoms: O_51  and  C_53
                            x       y       z     vdW  Elec       q    Type
                         _______ _______ _______ _____ _____    ______ ____

>  <TORSDO>
F 19

$$$$
=
 OpenBabel11052411313D

 59 66  0  0  1  0  0  0  0  0999 V2000
  161.3990  211.2910  149.5560 C   0  0  0  0  0  0  0  0  0  0  0  0
  160.9460  211.6170  150.8770 N   0  0  0  0  0  2  0  0  0  0  0  0
  161.6080  210.0860  149.2430 O   0  0  0  0  0  0  0  0  0  0  0  0
  160.7840  212.6190  147.5520 C   0  0  0  0  0  3  0  0  0  0  0  0
  161.6830  212.3570  148.5890 C   0  0  0  0  0  0  0  0  0  0  0  0
  161.0950  213.5620  146.5690 C   0  0  0  0  0  0  0  0  0  0  0  0
  162.8930  213.0540  148.6380 C   0  0  0  0  0  3  0  0  0  0  0  0
  162.2870  214.2870  146.6410 C   0  0  0  0  0  3  0  0  0  0  0  0
  163.2040  214.0180  147.6660 C   0  0  0  0  0  3  0  0  0  0  0  0
  160.1270  213.8220  145.5490 N   0  0  0  0  0  2  0  0  0  0  0  0
  159.5030  212.7730  144.7500 C   0  0  1  0  0  3  0  0  0  0  0  0
  158.0080  213.0040  144.7260 C   0  0  0  0  0  1  0  0  0  0  0  0
  161.3250  212.8290  143.0340 N   0  0  0  0  0  0  0  0  0  0  0  0
  161.3970  213.0290  141.7310 N   0  0  0  0  0  0  0  0  0  0  0  0
  159.2260  213.0440  142.2990 N   0  0  0  0  0  2  0  0  0  0  0  0
  160.0190  212.8170  143.3580 C   0  0  0  0  0  0  0  0  0  0  0  0
  160.1270  213.1480  141.3000 C   0  0  0  0  0  0  0  0  0  0  0  0
  159.7840  213.6130  139.9330 C   0  0  0  0  0  2  0  0  0  0  0  0
  158.3730  214.1580  139.9560 C   0  0  0  0  0  2  0  0  0  0  0  0
  158.1950  213.1950  137.7750 O   0  0  0  0  0  1  0  0  0  0  0  0
  157.5030  213.4070  138.9750 C   0  0  1  0  0  3  0  0  0  0  0  0
  157.0520  212.0800  139.6290 C   0  0  2  0  0  3  0  0  0  0  0  0
  155.2520  210.9060  138.1150 C   0  0  0  0  0  0  0  0  0  0  0  0
  156.6750  211.0580  138.6070 C   0  0  1  0  0  0  0  0  0  0  0  0
  157.0880  209.8190  139.1260 O   0  0  0  0  0  1  0  0  0  0  0  0
  155.6010  211.6360  139.4400 C   0  0  2  0  0  0  0  0  0  0  0  0
  154.3410  210.3860  137.2980 C   0  0  0  0  0  2  0  0  0  0  0  0
  154.8010  212.9450  139.2910 C   0  0  0  0  0  2  0  0  0  0  0  0
  152.4030  213.4160  139.6940 C   0  0  0  0  0  1  0  0  0  0  0  0
  154.0520  214.1240  141.2580 O   0  0  0  0  0  1  0  0  0  0  0  0
  153.7220  213.1050  140.3610 C   0  0  2  0  0  3  0  0  0  0  0  0
  160.7980  210.6590  151.8170 O   0  0  0  0  0  0  0  0  0  0  0  0
  161.9870  209.9120  151.8180 C   0  0  0  0  0  2  0  0  0  0  0  0
  161.7610  208.5050  152.3660 C   0  0  0  0  0  2  0  0  0  0  0  0
  162.4430  206.9080  150.5620 C   0  0  0  0  0  2  0  0  0  0  0  0
  161.6090  206.1700  151.5880 C   0  0  1  0  0  3  0  0  0  0  0  0
  161.2740  207.6030  151.2440 C   0  0  1  0  0  3  0  0  0  0  0  0
  160.2330  205.4100  149.6670 F   0  0  0  0  0  0  0  0  0  0  0  0
  160.6070  205.1710  150.9840 C   0  0  1  0  0  3  0  0  0  0  0  0
  160.7860  203.2560  152.6810 C   0  0  0  0  0  1  0  0  0  0  0  0
  160.6960  203.7340  151.3100 N   0  0  0  0  0  0  0  0  0  0  0  0
  161.1980  201.4360  150.5110 C   0  0  0  0  0  3  0  0  0  0  0  0
  160.8010  202.2440  147.8580 C   0  0  0  0  0  0  0  0  0  0  0  0
  161.3520  200.5180  149.4720 C   0  0  0  0  0  3  0  0  0  0  0  0
  160.6600  203.1690  148.9100 C   0  0  0  0  0  3  0  0  0  0  0  0
  161.1450  200.9180  148.1490 C   0  0  0  0  0  3  0  0  0  0  0  0
  160.8530  202.7740  150.2370 C   0  0  0  0  0  0  0  0  0  0  0  0
  160.5410  202.6440  146.4620 C   0  0  0  0  0  0  0  0  0  0  0  0
  159.5740  202.1280  145.8320 O   0  0  0  0  0  0  0  0  0  0  0  0
  162.7240  203.2670  145.4760 O   0  0  0  0  0  1  0  0  0  0  0  0
  161.5800  204.9080  143.7070 O   0  0  0  0  0  1  0  0  0  0  0  0
  160.1300  205.6040  147.0500 C   0  0  0  0  0  2  0  0  0  0  0  0
  161.4150  203.6500  145.7640 C   0  0  1  0  0  0  0  0  0  0  0  0
  161.9450  207.2110  146.9740 N   0  0  0  0  0  0  0  0  0  0  0  0
  163.3790  206.0750  145.4900 O   0  0  0  0  0  0  0  0  0  0  0  0
  160.7210  204.6000  144.7680 C   0  0  1  0  0  3  0  0  0  0  0  0
  161.2280  205.1140  146.1170 C   0  0  1  0  0  0  0  0  0  0  0  0
  162.2860  206.1430  146.1200 C   0  0  0  0  0  0  0  0  0  0  0  0
  160.6300  206.9690  147.5610 C   0  0  0  0  0  3  0  0  0  0  0  0
  1  2  1  0  0  0  0
  2 32  1  0  0  0  0
  3  1  2  0  0  0  0
  4  5  1  0  0  0  0
  5  7  2  0  0  0  0
  5  1  1  0  0  0  0
  6  8  1  0  0  0  0
  6  4  2  0  0  0  0
  8  9  2  0  0  0  0
  9  7  1  0  0  0  0
 10  6  1  0  0  0  0
 11 12  1  6  0  0  0
 11 10  1  0  0  0  0
 13 16  2  0  0  0  0
 14 13  1  0  0  0  0
 15 16  1  0  0  0  0
 16 11  1  0  0  0  0
 17 14  2  0  0  0  0
 17 15  1  0  0  0  0
 18 19  1  0  0  0  0
 18 17  1  0  0  0  0
 21 20  1  6  0  0  0
 21 19  1  0  0  0  0
 22 21  1  6  0  0  0
 23 24  1  0  0  0  0
 23 26  1  0  0  0  0
 24 25  1  1  0  0  0
 24 26  1  0  0  0  0
 24 22  1  0  0  0  0
 26 28  1  6  0  0  0
 26 22  1  0  0  0  0
 27 23  2  0  0  0  0
 28 31  1  0  0  0  0
 31 29  1  6  0  0  0
 31 30  1  0  0  0  0
 32 33  1  0  0  0  0
 33 34  1  0  0  0  0
 35 37  1  0  0  0  0
 35 36  1  0  0  0  0
 36 39  1  6  0  0  0
 37 36  1  0  0  0  0
 37 34  1  1  0  0  0
 39 38  1  6  0  0  0
 39 41  1  0  0  0  0
 41 40  1  0  0  0  0
 43 46  2  0  0  0  0
 43 45  1  0  0  0  0
 44 42  2  0  0  0  0
 45 47  2  0  0  0  0
 46 44  1  0  0  0  0
 47 42  1  0  0  0  0
 47 41  1  0  0  0  0
 48 43  1  0  0  0  0
 49 48  2  0  0  0  0
 52 59  1  0  0  0  0
 53 50  1  6  0  0  0
 53 57  1  0  0  0  0
 53 48  1  0  0  0  0
 54 59  2  0  0  0  0
 55 58  2  0  0  0  0
 56 51  1  6  0  0  0
 56 53  1  0  0  0  0
 56 57  1  0  0  0  0
 57 58  1  0  0  0  0
 57 52  1  1  0  0  0
 58 54  1  0  0  0  0
M  END
>  <MODEL>
4

>  <REMARK>
 VINA RESULT:      -3.3      3.939     12.029
  Name = 
  19 active torsions:
  status: ('A' for Active; 'I' for Inactive)
    1  A    between atoms: C_1  and  C_39
    2  A    between atoms: C_1  and  C_43
    3  A    between atoms: C_3  and  C_57
    4  A    between atoms: N_5  and  C_14
    5  A    between atoms: N_5  and  C_32
    6  A    between atoms: C_12  and  C_13
    7  A    between atoms: C_19  and  C_26
    8  A    between atoms: C_22  and  C_26
    9  A    between atoms: N_23  and  O_51
   10  A    between atoms: C_27  and  C_32
   11  A    between atoms: C_28  and  N_36
   12  A    between atoms: C_28  and  C_44
   13  A    between atoms: N_36  and  C_58
   14  A    between atoms: C_43  and  C_57
   15  A    between atoms: C_46  and  C_49
   16  A    between atoms: C_49  and  C_55
   17  A    between atoms: C_50  and  C_53
   18  A    between atoms: C_50  and  C_56
   19  A    between atoms: O_51  and  C_53
                            x       y       z     vdW  Elec       q    Type
                         _______ _______ _______ _____ _____    ______ ____

>  <TORSDO>
F 19

$$$$
=
 OpenBabel11052411313D

 59 66  0  0  1  0  0  0  0  0999 V2000
  161.9070  206.5280  147.2760 C   0  0  0  0  0  0  0  0  0  0  0  0
  160.6550  206.3690  146.5950 N   0  0  0  0  0  2  0  0  0  0  0  0
  162.9220  205.8900  146.8800 O   0  0  0  0  0  0  0  0  0  0  0  0
  162.0890  206.7960  149.7360 C   0  0  0  0  0  3  0  0  0  0  0  0
  161.9950  207.3770  148.4690 C   0  0  0  0  0  0  0  0  0  0  0  0
  162.0710  207.5940  150.8820 C   0  0  0  0  0  0  0  0  0  0  0  0
  161.8910  208.7660  148.3590 C   0  0  0  0  0  3  0  0  0  0  0  0
  162.0070  208.9850  150.7710 C   0  0  0  0  0  3  0  0  0  0  0  0
  161.8930  209.5770  149.5050 C   0  0  0  0  0  3  0  0  0  0  0  0
  162.2070  206.9560  152.1550 N   0  0  0  0  0  2  0  0  0  0  0  0
  161.0730  206.4780  152.9370 C   0  0  1  0  0  3  0  0  0  0  0  0
  161.2000  204.9800  153.1140 C   0  0  0  0  0  1  0  0  0  0  0  0
  160.4370  206.6240  155.3540 N   0  0  0  0  0  0  0  0  0  0  0  0
  160.5190  207.5370  156.3040 N   0  0  0  0  0  0  0  0  0  0  0  0
  161.5320  208.3650  154.4810 N   0  0  0  0  0  2  0  0  0  0  0  0
  161.0680  207.1220  154.2750 C   0  0  0  0  0  0  0  0  0  0  0  0
  161.1880  208.5760  155.7690 C   0  0  0  0  0  0  0  0  0  0  0  0
  161.2860  209.8960  156.4370 C   0  0  0  0  0  2  0  0  0  0  0  0
  159.9100  210.2810  156.9350 C   0  0  0  0  0  2  0  0  0  0  0  0
  160.3700  212.4010  155.9270 O   0  0  0  0  0  1  0  0  0  0  0  0
  159.3670  211.4430  156.1350 C   0  0  1  0  0  3  0  0  0  0  0  0
  158.7950  210.9030  154.8040 C   0  0  2  0  0  3  0  0  0  0  0  0
  158.5070  212.8760  153.0910 C   0  0  0  0  0  0  0  0  0  0  0  0
  159.2780  211.6910  153.6310 C   0  0  1  0  0  0  0  0  0  0  0  0
  159.4430  210.7680  152.5850 O   0  0  0  0  0  1  0  0  0  0  0  0
  157.8530  211.8040  154.0030 C   0  0  2  0  0  0  0  0  0  0  0  0
  158.3840  213.9300  152.2900 C   0  0  0  0  0  2  0  0  0  0  0  0
  157.1500  212.6820  155.0560 C   0  0  0  0  0  2  0  0  0  0  0  0
  156.0040  211.7140  157.0270 C   0  0  0  0  0  1  0  0  0  0  0  0
  155.5110  210.9240  154.8360 O   0  0  0  0  0  1  0  0  0  0  0  0
  155.8480  212.0670  155.5660 C   0  0  2  0  0  3  0  0  0  0  0  0
  160.5260  205.4970  145.5710 O   0  0  0  0  0  0  0  0  0  0  0  0
  160.5000  206.2640  144.3950 C   0  0  0  0  0  2  0  0  0  0  0  0
  161.1540  205.5220  143.2310 C   0  0  0  0  0  2  0  0  0  0  0  0
  162.8470  205.7550  141.4020 C   0  0  0  0  0  2  0  0  0  0  0  0
  161.5750  206.4680  140.9930 C   0  0  1  0  0  3  0  0  0  0  0  0
  162.0150  206.4930  142.4390 C   0  0  1  0  0  3  0  0  0  0  0  0
  163.0610  208.3850  140.4680 F   0  0  0  0  0  0  0  0  0  0  0  0
  161.8080  207.8140  140.2860 C   0  0  1  0  0  3  0  0  0  0  0  0
  161.7970  207.4280  137.7500 C   0  0  0  0  0  1  0  0  0  0  0  0
  161.2480  208.0570  138.9410 N   0  0  0  0  0  0  0  0  0  0  0  0
  159.1390  208.8550  137.9010 C   0  0  0  0  0  3  0  0  0  0  0  0
  159.3070  211.2540  139.3380 C   0  0  0  0  0  0  0  0  0  0  0  0
  158.1590  209.8340  137.7410 C   0  0  0  0  0  3  0  0  0  0  0  0
  160.3010  210.2680  139.4850 C   0  0  0  0  0  3  0  0  0  0  0  0
  158.2360  211.0280  138.4640 C   0  0  0  0  0  3  0  0  0  0  0  0
  160.2240  209.0670  138.7740 C   0  0  0  0  0  0  0  0  0  0  0  0
  159.3560  212.4980  140.1300 C   0  0  0  0  0  0  0  0  0  0  0  0
  158.3680  213.2860  140.1200 O   0  0  0  0  0  0  0  0  0  0  0  0
  160.3800  213.7070  142.0310 O   0  0  0  0  0  1  0  0  0  0  0  0
  162.2860  211.8590  142.3220 O   0  0  0  0  0  1  0  0  0  0  0  0
  162.0470  212.7330  138.7240 C   0  0  0  0  0  2  0  0  0  0  0  0
  160.5690  212.8570  140.9440 C   0  0  1  0  0  0  0  0  0  0  0  0
  163.7780  214.2590  139.4720 N   0  0  0  0  0  0  0  0  0  0  0  0
  163.1510  214.4440  141.7340 O   0  0  0  0  0  0  0  0  0  0  0  0
  161.6640  211.7790  141.0710 C   0  0  1  0  0  3  0  0  0  0  0  0
  161.8870  213.0240  140.2090 C   0  0  1  0  0  0  0  0  0  0  0  0
  162.9740  213.9480  140.5870 C   0  0  0  0  0  0  0  0  0  0  0  0
  163.2920  213.5360  138.2990 C   0  0  0  0  0  3  0  0  0  0  0  0
  1  5  1  0  0  0  0
  2  1  1  0  0  0  0
  3  1  2  0  0  0  0
  4  6  1  0  0  0  0
  5  4  2  0  0  0  0
  6 10  1  0  0  0  0
  7  5  1  0  0  0  0
  7  9  2  0  0  0  0
  8  6  2  0  0  0  0
  9  8  1  0  0  0  0
 10 11  1  0  0  0  0
 11 12  1  1  0  0  0
 11 16  1  0  0  0  0
 13 14  1  0  0  0  0
 15 17  1  0  0  0  0
 16 15  1  0  0  0  0
 16 13  2  0  0  0  0
 17 14  2  0  0  0  0
 17 18  1  0  0  0  0
 18 19  1  0  0  0  0
 21 20  1  6  0  0  0
 21 19  1  0  0  0  0
 22 21  1  1  0  0  0
 23 24  1  0  0  0  0
 23 26  1  0  0  0  0
 24 25  1  6  0  0  0
 24 26  1  0  0  0  0
 24 22  1  0  0  0  0
 26 22  1  0  0  0  0
 26 28  1  1  0  0  0
 27 23  2  0  0  0  0
 28 31  1  0  0  0  0
 30 31  1  0  0  0  0
 31 29  1  1  0  0  0
 32  2  1  0  0  0  0
 33 32  1  0  0  0  0
 34 33  1  0  0  0  0
 35 37  1  0  0  0  0
 36 39  1  6  0  0  0
 36 35  1  0  0  0  0
 36 37  1  0  0  0  0
 37 34  1  1  0  0  0
 39 38  1  6  0  0  0
 40 41  1  0  0  0  0
 41 39  1  0  0  0  0
 42 47  1  0  0  0  0
 43 45  1  0  0  0  0
 43 48  1  0  0  0  0
 44 42  2  0  0  0  0
 44 46  1  0  0  0  0
 46 43  2  0  0  0  0
 47 41  1  0  0  0  0
 47 45  2  0  0  0  0
 48 53  1  0  0  0  0
 49 48  2  0  0  0  0
 53 56  1  0  0  0  0
 53 50  1  1  0  0  0
 54 58  1  0  0  0  0
 56 51  1  1  0  0  0
 57 52  1  6  0  0  0
 57 58  1  0  0  0  0
 57 53  1  0  0  0  0
 57 56  1  0  0  0  0
 58 55  2  0  0  0  0
 59 52  1  0  0  0  0
 59 54  2  0  0  0  0
M  END
>  <MODEL>
5

>  <REMARK>
 VINA RESULT:      -3.3      1.682      2.117
  Name = 
  19 active torsions:
  status: ('A' for Active; 'I' for Inactive)
    1  A    between atoms: C_1  and  C_39
    2  A    between atoms: C_1  and  C_43
    3  A    between atoms: C_3  and  C_57
    4  A    between atoms: N_5  and  C_14
    5  A    between atoms: N_5  and  C_32
    6  A    between atoms: C_12  and  C_13
    7  A    between atoms: C_19  and  C_26
    8  A    between atoms: C_22  and  C_26
    9  A    between atoms: N_23  and  O_51
   10  A    between atoms: C_27  and  C_32
   11  A    between atoms: C_28  and  N_36
   12  A    between atoms: C_28  and  C_44
   13  A    between atoms: N_36  and  C_58
   14  A    between atoms: C_43  and  C_57
   15  A    between atoms: C_46  and  C_49
   16  A    between atoms: C_49  and  C_55
   17  A    between atoms: C_50  and  C_53
   18  A    between atoms: C_50  and  C_56
   19  A    between atoms: O_51  and  C_53
                            x       y       z     vdW  Elec       q    Type
                         _______ _______ _______ _____ _____    ______ ____

>  <TORSDO>
F 19

$$$$
=
 OpenBabel11052411313D

 59 66  0  0  1  0  0  0  0  0999 V2000
  160.8940  209.0570  153.6720 C   0  0  0  0  0  0  0  0  0  0  0  0
  161.2520  208.6150  154.9890 N   0  0  0  0  0  2  0  0  0  0  0  0
  160.2080  210.1060  153.5270 O   0  0  0  0  0  0  0  0  0  0  0  0
  161.2760  206.8620  152.5780 C   0  0  0  0  0  3  0  0  0  0  0  0
  161.2650  208.2570  152.5000 C   0  0  0  0  0  0  0  0  0  0  0  0
  161.7260  206.0970  151.4990 C   0  0  0  0  0  0  0  0  0  0  0  0
  161.7000  208.8800  151.3270 C   0  0  0  0  0  3  0  0  0  0  0  0
  162.1230  206.7180  150.3130 C   0  0  0  0  0  3  0  0  0  0  0  0
  162.1340  208.1170  150.2300 C   0  0  0  0  0  3  0  0  0  0  0  0
  161.6830  204.6720  151.6140 N   0  0  0  0  0  2  0  0  0  0  0  0
  160.4930  203.8800  151.3280 C   0  0  1  0  0  3  0  0  0  0  0  0
  159.5870  204.6750  150.4130 C   0  0  0  0  0  1  0  0  0  0  0  0
  161.5950  201.6350  151.2240 N   0  0  0  0  0  0  0  0  0  0  0  0
  161.8660  200.7530  150.2800 N   0  0  0  0  0  0  0  0  0  0  0  0
  160.6920  202.4160  149.3350 N   0  0  0  0  0  2  0  0  0  0  0  0
  160.8720  202.6150  150.6510 C   0  0  0  0  0  0  0  0  0  0  0  0
  161.3100  201.2300  149.1500 C   0  0  0  0  0  0  0  0  0  0  0  0
  161.5850  200.6500  147.8140 C   0  0  0  0  0  2  0  0  0  0  0  0
  160.3260  200.7540  146.9810 C   0  0  0  0  0  2  0  0  0  0  0  0
  160.4550  200.5650  144.6010 O   0  0  0  0  0  1  0  0  0  0  0  0
  160.6160  201.4540  145.6730 C   0  0  1  0  0  3  0  0  0  0  0  0
  159.6860  202.6830  145.5530 C   0  0  2  0  0  3  0  0  0  0  0  0
  160.8460  204.5420  144.1020 C   0  0  0  0  0  0  0  0  0  0  0  0
  159.8710  203.3950  144.2540 C   0  0  1  0  0  0  0  0  0  0  0  0
  158.5980  203.8570  143.8790 O   0  0  0  0  0  1  0  0  0  0  0  0
  160.3260  204.0710  145.4860 C   0  0  2  0  0  0  0  0  0  0  0  0
  161.5080  205.4310  143.3670 C   0  0  0  0  0  2  0  0  0  0  0  0
  161.6390  203.9430  146.2820 C   0  0  0  0  0  2  0  0  0  0  0  0
  160.7480  206.1070  147.0930 C   0  0  0  0  0  1  0  0  0  0  0  0
  163.0750  205.8440  146.6650 O   0  0  0  0  0  1  0  0  0  0  0  0
  161.9390  205.1780  147.1310 C   0  0  2  0  0  3  0  0  0  0  0  0
  160.8150  209.2710  156.0850 O   0  0  0  0  0  0  0  0  0  0  0  0
  161.4840  210.5050  156.1060 C   0  0  0  0  0  2  0  0  0  0  0  0
  160.5830  211.6200  156.6330 C   0  0  0  0  0  2  0  0  0  0  0  0
  158.5030  212.9300  156.1570 C   0  0  0  0  0  2  0  0  0  0  0  0
  159.4820  213.1230  155.0170 C   0  0  1  0  0  3  0  0  0  0  0  0
  159.3900  211.7800  155.7050 C   0  0  1  0  0  3  0  0  0  0  0  0
  158.9810  211.9410  152.8930 F   0  0  0  0  0  0  0  0  0  0  0  0
  158.8320  213.1130  153.6230 C   0  0  1  0  0  3  0  0  0  0  0  0
  156.6400  214.1170  154.4990 C   0  0  0  0  0  1  0  0  0  0  0  0
  157.5300  213.7740  153.4010 N   0  0  0  0  0  0  0  0  0  0  0  0
  155.6870  214.2040  151.7930 C   0  0  0  0  0  3  0  0  0  0  0  0
  157.4850  214.0500  149.6500 C   0  0  0  0  0  0  0  0  0  0  0  0
  155.2290  214.3680  150.4860 C   0  0  0  0  0  3  0  0  0  0  0  0
  157.9390  213.8720  150.9710 C   0  0  0  0  0  3  0  0  0  0  0  0
  156.1270  214.3000  149.4160 C   0  0  0  0  0  3  0  0  0  0  0  0
  157.0490  213.9500  152.0470 C   0  0  0  0  0  0  0  0  0  0  0  0
  158.4320  214.0250  148.5190 C   0  0  0  0  0  0  0  0  0  0  0  0
  158.0290  214.3300  147.3590 O   0  0  0  0  0  0  0  0  0  0  0  0
  160.4690  213.9750  149.9230 O   0  0  0  0  0  1  0  0  0  0  0  0
  161.2960  211.6810  148.8330 O   0  0  0  0  0  1  0  0  0  0  0  0
  160.2780  213.9730  146.0970 C   0  0  0  0  0  2  0  0  0  0  0  0
  159.8690  213.6290  148.7130 C   0  0  1  0  0  0  0  0  0  0  0  0
  162.6510  214.4480  146.2590 N   0  0  0  0  0  0  0  0  0  0  0  0
  162.9860  213.8770  148.5200 O   0  0  0  0  0  0  0  0  0  0  0  0
  160.3230  212.3130  148.0500 C   0  0  1  0  0  3  0  0  0  0  0  0
  160.7820  213.6660  147.5010 C   0  0  1  0  0  0  0  0  0  0  0  0
  162.2250  213.9720  147.5170 C   0  0  0  0  0  0  0  0  0  0  0  0
  161.5250  214.4530  145.3300 C   0  0  0  0  0  3  0  0  0  0  0  0
  1  2  1  0  0  0  0
  2 32  1  0  0  0  0
  3  1  2  0  0  0  0
  5  4  1  0  0  0  0
  5  1  1  0  0  0  0
  6 10  1  0  0  0  0
  6  4  2  0  0  0  0
  7  5  2  0  0  0  0
  8  6  1  0  0  0  0
  9  8  2  0  0  0  0
  9  7  1  0  0  0  0
 11 12  1  6  0  0  0
 11 10  1  0  0  0  0
 14 13  1  0  0  0  0
 15 16  1  0  0  0  0
 16 13  2  0  0  0  0
 16 11  1  0  0  0  0
 17 15  1  0  0  0  0
 17 14  2  0  0  0  0
 18 17  1  0  0  0  0
 19 18  1  0  0  0  0
 21 20  1  6  0  0  0
 21 19  1  0  0  0  0
 22 21  1  6  0  0  0
 23 24  1  0  0  0  0
 23 26  1  0  0  0  0
 24 25  1  6  0  0  0
 24 26  1  0  0  0  0
 24 22  1  0  0  0  0
 26 22  1  0  0  0  0
 26 28  1  6  0  0  0
 27 23  2  0  0  0  0
 28 31  1  0  0  0  0
 30 31  1  0  0  0  0
 31 29  1  6  0  0  0
 32 33  1  0  0  0  0
 33 34  1  0  0  0  0
 36 39  1  6  0  0  0
 36 37  1  0  0  0  0
 36 35  1  0  0  0  0
 37 35  1  0  0  0  0
 37 34  1  1  0  0  0
 39 38  1  1  0  0  0
 41 39  1  0  0  0  0
 41 40  1  0  0  0  0
 42 47  1  0  0  0  0
 43 45  1  0  0  0  0
 44 42  2  0  0  0  0
 45 47  2  0  0  0  0
 46 43  2  0  0  0  0
 46 44  1  0  0  0  0
 47 41  1  0  0  0  0
 48 53  1  0  0  0  0
 48 43  1  0  0  0  0
 49 48  2  0  0  0  0
 53 50  1  1  0  0  0
 54 58  1  0  0  0  0
 56 53  1  0  0  0  0
 56 51  1  1  0  0  0
 57 52  1  6  0  0  0
 57 58  1  0  0  0  0
 57 56  1  0  0  0  0
 57 53  1  0  0  0  0
 58 55  2  0  0  0  0
 59 52  1  0  0  0  0
 59 54  2  0  0  0  0
M  END
>  <MODEL>
6

>  <REMARK>
 VINA RESULT:      -2.9      3.966     10.315
  Name = 
  19 active torsions:
  status: ('A' for Active; 'I' for Inactive)
    1  A    between atoms: C_1  and  C_39
    2  A    between atoms: C_1  and  C_43
    3  A    between atoms: C_3  and  C_57
    4  A    between atoms: N_5  and  C_14
    5  A    between atoms: N_5  and  C_32
    6  A    between atoms: C_12  and  C_13
    7  A    between atoms: C_19  and  C_26
    8  A    between atoms: C_22  and  C_26
    9  A    between atoms: N_23  and  O_51
   10  A    between atoms: C_27  and  C_32
   11  A    between atoms: C_28  and  N_36
   12  A    between atoms: C_28  and  C_44
   13  A    between atoms: N_36  and  C_58
   14  A    between atoms: C_43  and  C_57
   15  A    between atoms: C_46  and  C_49
   16  A    between atoms: C_49  and  C_55
   17  A    between atoms: C_50  and  C_53
   18  A    between atoms: C_50  and  C_56
   19  A    between atoms: O_51  and  C_53
                            x       y       z     vdW  Elec       q    Type
                         _______ _______ _______ _____ _____    ______ ____

>  <TORSDO>
F 19

$$$$
