=
 OpenBabel11052411533D

 32 36  0  0  1  0  0  0  0  0999 V2000
  161.5060  207.2770  150.1980 N   0  0  0  0  0  0  0  0  0  0  0  0
  161.1640  205.1330  151.1090 C   0  0  2  0  0  3  0  0  0  0  0  0
  161.2660  208.3550  152.3500 N   0  0  0  0  0  0  0  0  0  0  0  0
  161.9410  207.2990  151.5880 C   0  0  1  0  0  3  0  0  0  0  0  0
  161.3040  205.5830  148.6400 C   0  0  0  0  0  0  0  0  0  0  0  0
  160.8790  208.1900  153.5870 C   0  0  0  0  0  0  0  0  0  0  0  0
  161.5320  205.9440  152.0980 C   0  0  1  0  0  3  0  0  0  0  0  0
  161.2380  205.7600  153.5210 C   0  0  0  0  0  3  0  0  0  0  0  0
  161.3450  204.1670  148.1780 C   0  0  0  0  0  1  0  0  0  0  0  0
  160.9490  206.8510  154.2360 C   0  0  0  0  0  3  0  0  0  0  0  0
  162.1340  207.9710  149.0860 C   0  0  1  0  0  3  0  0  0  0  0  0
  161.1830  205.9430  149.9030 C   0  0  0  0  0  0  0  0  0  0  0  0
  161.8170  206.9450  147.5930 S   0  0  0  0  0  0  0  0  0  0  0  0
  161.2640  211.4430  154.4600 O   0  0  0  0  0  0  0  0  0  0  0  0
  162.9140  210.6840  156.0240 C   0  0  0  0  0  1  0  0  0  0  0  0
  160.5590  210.6250  153.6300 C   0  0  0  0  0  0  0  0  0  0  0  0
  161.4360  210.7810  155.6960 C   0  0  2  0  0  3  0  0  0  0  0  0
  160.4740  212.1700  151.8860 F   0  0  0  0  0  0  0  0  0  0  0  0
  160.2870  209.3560  154.3190 C   0  0  2  0  0  3  0  0  0  0  0  0
  160.1680  210.9550  152.4050 C   0  0  0  0  0  3  0  0  0  0  0  0
  160.8780  209.4750  155.6020 O   0  0  0  0  0  0  0  0  0  0  0  0
  161.5020  209.3380  148.8950 C   0  0  0  0  0  2  0  0  0  0  0  0
  162.3510  210.4070  149.5580 C   0  0  0  0  0  2  0  0  0  0  0  0
  161.1600  214.4500  147.3730 C   0  0  0  0  0  3  0  0  0  0  0  0
  161.9720  212.5370  148.2460 C   0  0  0  0  0  0  0  0  0  0  0  0
  162.3690  213.5800  147.2660 C   0  0  0  0  0  2  0  0  0  0  0  0
  160.3190  213.9610  148.2250 N   0  0  0  0  0  0  0  0  0  0  0  0
  160.8180  212.7750  148.7680 N   0  0  0  0  0  0  0  0  0  0  0  0
  162.7660  211.3960  148.5750 N   0  0  0  0  0  2  0  0  0  0  0  0
  160.5120  203.7930  151.2600 C   0  0  0  0  0  2  0  0  0  0  0  0
  161.5130  202.7700  151.5220 N   0  0  0  0  0  2  0  0  0  0  0  0
  161.1970  201.7000  150.7530 O   0  0  0  0  0  1  0  0  0  0  0  0
  1  4  1  0  0  0  0
  2 30  1  1  0  0  0
  2  7  1  0  0  0  0
  3  6  2  0  0  0  0
  4  7  1  0  0  0  0
  4  3  1  1  0  0  0
  5 12  2  0  0  0  0
  6 10  1  0  0  0  0
  7  8  1  1  0  0  0
  8 10  2  0  0  0  0
  9  5  1  0  0  0  0
 11 22  1  6  0  0  0
 11  1  1  0  0  0  0
 12  1  1  0  0  0  0
 12  2  1  0  0  0  0
 13  5  1  0  0  0  0
 13 11  1  0  0  0  0
 14 17  1  0  0  0  0
 16 19  1  0  0  0  0
 16 14  1  0  0  0  0
 17 15  1  6  0  0  0
 18 20  1  0  0  0  0
 19  6  1  6  0  0  0
 19 21  1  0  0  0  0
 20 16  2  0  0  0  0
 21 17  1  0  0  0  0
 22 23  1  0  0  0  0
 24 27  2  0  0  0  0
 25 29  1  0  0  0  0
 25 28  2  0  0  0  0
 26 24  1  0  0  0  0
 26 25  1  0  0  0  0
 27 28  1  0  0  0  0
 29 23  1  0  0  0  0
 30 31  1  0  0  0  0
 32 31  1  0  0  0  0
M  END
>  <MODEL>
1

>  <REMARK>
 VINA RESULT:      -8.2      0.000      0.000
  Name = 
  6 active torsions:
  status: ('A' for Active; 'I' for Inactive)
    1  A    between atoms: C_2  and  C_17
    2  A    between atoms: N_7  and  C_17
    3  A    between atoms: C_9  and  C_27
    4  A    between atoms: C_9  and  C_30
    5  A    between atoms: C_15  and  C_19
    6  A    between atoms: N_28  and  C_30
                            x       y       z     vdW  Elec       q    Type
                         _______ _______ _______ _____ _____    ______ ____

>  <TORSDO>
F 6

$$$$
=
 OpenBabel11052411533D

 32 36  0  0  1  0  0  0  0  0999 V2000
  161.5490  207.0300  149.9300 N   0  0  0  0  0  0  0  0  0  0  0  0
  161.1760  204.8980  150.8590 C   0  0  2  0  0  3  0  0  0  0  0  0
  161.4170  208.1180  152.0860 N   0  0  0  0  0  0  0  0  0  0  0  0
  162.0330  207.0410  151.3040 C   0  0  1  0  0  3  0  0  0  0  0  0
  161.2410  205.3400  148.3840 C   0  0  0  0  0  0  0  0  0  0  0  0
  161.0700  207.9670  153.3360 C   0  0  0  0  0  0  0  0  0  0  0  0
  161.6030  205.7000  151.8320 C   0  0  1  0  0  3  0  0  0  0  0  0
  161.3540  205.5270  153.2650 C   0  0  0  0  0  3  0  0  0  0  0  0
  161.2240  203.9220  147.9250 C   0  0  0  0  0  1  0  0  0  0  0  0
  161.1230  206.6280  153.9860 C   0  0  0  0  0  3  0  0  0  0  0  0
  162.1570  207.7030  148.7950 C   0  0  1  0  0  3  0  0  0  0  0  0
  161.1760  205.7060  149.6500 C   0  0  0  0  0  0  0  0  0  0  0  0
  161.7580  206.6840  147.3160 S   0  0  0  0  0  0  0  0  0  0  0  0
  161.2670  209.8070  156.1760 O   0  0  0  0  0  0  0  0  0  0  0  0
  160.1220  208.0010  157.2610 C   0  0  0  0  0  1  0  0  0  0  0  0
  161.5940  209.8250  154.8550 C   0  0  0  0  0  0  0  0  0  0  0  0
  160.0080  209.1810  156.3140 C   0  0  2  0  0  3  0  0  0  0  0  0
  163.5840  210.9960  155.1800 F   0  0  0  0  0  0  0  0  0  0  0  0
  160.5390  209.1510  154.0860 C   0  0  2  0  0  3  0  0  0  0  0  0
  162.6890  210.3920  154.3600 C   0  0  0  0  0  3  0  0  0  0  0  0
  159.5730  208.7310  155.0350 O   0  0  0  0  0  0  0  0  0  0  0  0
  161.5590  209.0880  148.6220 C   0  0  0  0  0  2  0  0  0  0  0  0
  162.4940  210.1390  149.1930 C   0  0  0  0  0  2  0  0  0  0  0  0
  160.5390  214.4360  148.6920 C   0  0  0  0  0  3  0  0  0  0  0  0
  161.6170  212.4570  148.6810 C   0  0  0  0  0  0  0  0  0  0  0  0
  161.5630  213.7080  147.8840 C   0  0  0  0  0  2  0  0  0  0  0  0
  160.1480  213.7140  149.6910 N   0  0  0  0  0  0  0  0  0  0  0  0
  160.8130  212.4870  149.6880 N   0  0  0  0  0  0  0  0  0  0  0  0
  162.4540  211.3410  148.3740 N   0  0  0  0  0  2  0  0  0  0  0  0
  160.4910  203.5780  151.0360 C   0  0  0  0  0  2  0  0  0  0  0  0
  161.4580  202.5480  151.3810 N   0  0  0  0  0  2  0  0  0  0  0  0
  161.2310  201.4980  150.5570 O   0  0  0  0  0  1  0  0  0  0  0  0
  1  4  1  0  0  0  0
  2 30  1  1  0  0  0
  2  7  1  0  0  0  0
  3  6  2  0  0  0  0
  4  7  1  0  0  0  0
  4  3  1  1  0  0  0
  5 12  2  0  0  0  0
  6 10  1  0  0  0  0
  7  8  1  1  0  0  0
  8 10  2  0  0  0  0
  9  5  1  0  0  0  0
 11 22  1  6  0  0  0
 11  1  1  0  0  0  0
 12  1  1  0  0  0  0
 12  2  1  0  0  0  0
 13  5  1  0  0  0  0
 13 11  1  0  0  0  0
 14 17  1  0  0  0  0
 16 14  1  0  0  0  0
 17 15  1  1  0  0  0
 19  6  1  1  0  0  0
 19 16  1  0  0  0  0
 19 21  1  0  0  0  0
 20 16  2  0  0  0  0
 20 18  1  0  0  0  0
 21 17  1  0  0  0  0
 22 23  1  0  0  0  0
 24 27  2  0  0  0  0
 25 28  2  0  0  0  0
 26 25  1  0  0  0  0
 26 24  1  0  0  0  0
 28 27  1  0  0  0  0
 29 25  1  0  0  0  0
 29 23  1  0  0  0  0
 30 31  1  0  0  0  0
 32 31  1  0  0  0  0
M  END
>  <MODEL>
2

>  <REMARK>
 VINA RESULT:      -8.1      1.293      1.528
  Name = 
  6 active torsions:
  status: ('A' for Active; 'I' for Inactive)
    1  A    between atoms: C_2  and  C_17
    2  A    between atoms: N_7  and  C_17
    3  A    between atoms: C_9  and  C_27
    4  A    between atoms: C_9  and  C_30
    5  A    between atoms: C_15  and  C_19
    6  A    between atoms: N_28  and  C_30
                            x       y       z     vdW  Elec       q    Type
                         _______ _______ _______ _____ _____    ______ ____

>  <TORSDO>
F 6

$$$$
=
 OpenBabel11052411533D

 32 36  0  0  1  0  0  0  0  0999 V2000
  161.1500  205.0700  150.5890 N   0  0  0  0  0  0  0  0  0  0  0  0
  161.0530  204.4320  148.3250 C   0  0  2  0  0  3  0  0  0  0  0  0
  161.4700  207.4030  150.0360 N   0  0  0  0  0  0  0  0  0  0  0  0
  160.6560  206.2030  149.8180 C   0  0  1  0  0  3  0  0  0  0  0  0
  161.1230  202.7880  150.2270 C   0  0  0  0  0  0  0  0  0  0  0  0
  161.7570  208.2400  149.0750 C   0  0  0  0  0  0  0  0  0  0  0  0
  160.7870  205.7340  148.3950 C   0  0  1  0  0  3  0  0  0  0  0  0
  160.9690  206.7120  147.3200 C   0  0  0  0  0  3  0  0  0  0  0  0
  160.8510  201.5530  149.4380 C   0  0  0  0  0  1  0  0  0  0  0  0
  161.4130  207.9250  147.6610 C   0  0  0  0  0  3  0  0  0  0  0  0
  160.7160  204.6760  151.9190 C   0  0  1  0  0  3  0  0  0  0  0  0
  161.2420  203.9900  149.6970 C   0  0  0  0  0  0  0  0  0  0  0  0
  160.9180  202.8500  152.0070 S   0  0  0  0  0  0  0  0  0  0  0  0
  161.5250  211.5160  149.9130 O   0  0  0  0  0  0  0  0  0  0  0  0
  160.9250  211.9160  147.6270 C   0  0  0  0  0  1  0  0  0  0  0  0
  161.8150  210.2900  150.4280 C   0  0  0  0  0  0  0  0  0  0  0  0
  162.0400  211.5810  148.5990 C   0  0  2  0  0  3  0  0  0  0  0  0
  160.8900  210.7480  152.5180 F   0  0  0  0  0  0  0  0  0  0  0  0
  162.5110  209.4910  149.4090 C   0  0  2  0  0  3  0  0  0  0  0  0
  161.5280  209.9080  151.6670 C   0  0  0  0  0  3  0  0  0  0  0  0
  162.6080  210.3200  148.2630 O   0  0  0  0  0  0  0  0  0  0  0  0
  161.5940  205.3260  152.9740 C   0  0  0  0  0  2  0  0  0  0  0  0
  161.0540  206.6980  153.3340 C   0  0  0  0  0  2  0  0  0  0  0  0
  160.4830  209.3050  157.2610 C   0  0  0  0  0  3  0  0  0  0  0  0
  160.6300  207.8450  155.5490 C   0  0  0  0  0  0  0  0  0  0  0  0
  160.1190  207.8910  156.9430 C   0  0  0  0  0  2  0  0  0  0  0  0
  161.0600  209.8660  156.2480 N   0  0  0  0  0  0  0  0  0  0  0  0
  161.1530  208.9650  155.1860 N   0  0  0  0  0  0  0  0  0  0  0  0
  160.5610  206.6960  154.7040 N   0  0  0  0  0  2  0  0  0  0  0  0
  161.4430  203.6730  147.0940 C   0  0  0  0  0  2  0  0  0  0  0  0
  162.7140  204.1590  146.5810 N   0  0  0  0  0  2  0  0  0  0  0  0
  162.5590  204.3490  145.2490 O   0  0  0  0  0  1  0  0  0  0  0  0
  1 11  1  0  0  0  0
  2 30  1  6  0  0  0
  2  7  1  0  0  0  0
  2 12  1  0  0  0  0
  4  3  1  6  0  0  0
  4  1  1  0  0  0  0
  5 13  1  0  0  0  0
  6  3  2  0  0  0  0
  7  8  1  1  0  0  0
  7  4  1  0  0  0  0
  8 10  2  0  0  0  0
  9  5  1  0  0  0  0
 10  6  1  0  0  0  0
 11 13  1  0  0  0  0
 11 22  1  1  0  0  0
 12  5  2  0  0  0  0
 12  1  1  0  0  0  0
 14 16  1  0  0  0  0
 16 20  2  0  0  0  0
 17 15  1  6  0  0  0
 17 14  1  0  0  0  0
 19  6  1  6  0  0  0
 19 16  1  0  0  0  0
 20 18  1  0  0  0  0
 21 17  1  0  0  0  0
 21 19  1  0  0  0  0
 22 23  1  0  0  0  0
 23 29  1  0  0  0  0
 25 26  1  0  0  0  0
 26 24  1  0  0  0  0
 27 24  2  0  0  0  0
 28 25  2  0  0  0  0
 28 27  1  0  0  0  0
 29 25  1  0  0  0  0
 31 30  1  0  0  0  0
 32 31  1  0  0  0  0
M  END
>  <MODEL>
3

>  <REMARK>
 VINA RESULT:      -7.6      3.074      6.024
  Name = 
  6 active torsions:
  status: ('A' for Active; 'I' for Inactive)
    1  A    between atoms: C_2  and  C_17
    2  A    between atoms: N_7  and  C_17
    3  A    between atoms: C_9  and  C_27
    4  A    between atoms: C_9  and  C_30
    5  A    between atoms: C_15  and  C_19
    6  A    between atoms: N_28  and  C_30
                            x       y       z     vdW  Elec       q    Type
                         _______ _______ _______ _____ _____    ______ ____

>  <TORSDO>
F 6

$$$$
=
 OpenBabel11052411533D

 32 36  0  0  1  0  0  0  0  0999 V2000
  161.2480  209.5910  151.3700 N   0  0  0  0  0  0  0  0  0  0  0  0
  160.2560  209.9040  153.4830 C   0  0  2  0  0  3  0  0  0  0  0  0
  160.8070  211.8720  150.6990 N   0  0  0  0  0  0  0  0  0  0  0  0
  161.3760  210.9980  151.7290 C   0  0  1  0  0  3  0  0  0  0  0  0
  161.0070  207.6640  152.6230 C   0  0  0  0  0  0  0  0  0  0  0  0
  160.1430  212.9590  150.9890 C   0  0  0  0  0  0  0  0  0  0  0  0
  160.5790  211.1020  153.0010 C   0  0  1  0  0  3  0  0  0  0  0  0
  159.9600  212.3770  153.3690 C   0  0  0  0  0  3  0  0  0  0  0  0
  160.8300  206.8920  153.8850 C   0  0  0  0  0  1  0  0  0  0  0  0
  159.7770  213.2760  152.3980 C   0  0  0  0  0  3  0  0  0  0  0  0
  162.2330  208.7880  150.6660 C   0  0  1  0  0  3  0  0  0  0  0  0
  160.7070  208.9420  152.4910 C   0  0  0  0  0  0  0  0  0  0  0  0
  162.0170  207.0630  151.2690 S   0  0  0  0  0  0  0  0  0  0  0  0
  158.5180  213.1110  148.0180 O   0  0  0  0  0  0  0  0  0  0  0  0
  160.4690  212.1030  147.0570 C   0  0  0  0  0  1  0  0  0  0  0  0
  158.3830  213.4160  149.3380 C   0  0  0  0  0  0  0  0  0  0  0  0
  159.8560  213.3620  147.6390 C   0  0  2  0  0  3  0  0  0  0  0  0
  156.0990  212.9510  149.3950 F   0  0  0  0  0  0  0  0  0  0  0  0
  159.6830  213.8450  149.8710 C   0  0  2  0  0  3  0  0  0  0  0  0
  157.2390  213.3530  150.0100 C   0  0  0  0  0  3  0  0  0  0  0  0
  160.5930  213.7700  148.7860 O   0  0  0  0  0  0  0  0  0  0  0  0
  161.9740  208.8290  149.1710 C   0  0  0  0  0  2  0  0  0  0  0  0
  161.2860  207.5520  148.7210 C   0  0  0  0  0  2  0  0  0  0  0  0
  161.5950  205.1280  144.6520 C   0  0  0  0  0  3  0  0  0  0  0  0
  161.7340  206.2110  146.6230 C   0  0  0  0  0  0  0  0  0  0  0  0
  162.6100  205.4430  145.7020 C   0  0  0  0  0  2  0  0  0  0  0  0
  160.4440  205.6250  144.9650 N   0  0  0  0  0  0  0  0  0  0  0  0
  160.5250  206.2970  146.1860 N   0  0  0  0  0  0  0  0  0  0  0  0
  162.1700  206.7870  147.8560 N   0  0  0  0  0  2  0  0  0  0  0  0
  159.3080  209.6300  154.6090 C   0  0  0  0  0  2  0  0  0  0  0  0
  159.9660  209.8420  155.8890 N   0  0  0  0  0  2  0  0  0  0  0  0
  159.2590  210.7910  156.5470 O   0  0  0  0  0  1  0  0  0  0  0  0
  1  4  1  0  0  0  0
  1 12  1  0  0  0  0
  2 30  1  6  0  0  0
  3  6  2  0  0  0  0
  4  3  1  6  0  0  0
  4  7  1  0  0  0  0
  5  9  1  0  0  0  0
  6 10  1  0  0  0  0
  7  8  1  6  0  0  0
  7  2  1  0  0  0  0
 10  8  2  0  0  0  0
 11 22  1  6  0  0  0
 11 13  1  0  0  0  0
 11  1  1  0  0  0  0
 12  5  2  0  0  0  0
 12  2  1  0  0  0  0
 13  5  1  0  0  0  0
 14 16  1  0  0  0  0
 16 19  1  0  0  0  0
 16 20  2  0  0  0  0
 17 15  1  1  0  0  0
 17 14  1  0  0  0  0
 17 21  1  0  0  0  0
 18 20  1  0  0  0  0
 19  6  1  1  0  0  0
 21 19  1  0  0  0  0
 23 22  1  0  0  0  0
 24 27  2  0  0  0  0
 24 26  1  0  0  0  0
 25 29  1  0  0  0  0
 26 25  1  0  0  0  0
 27 28  1  0  0  0  0
 28 25  2  0  0  0  0
 29 23  1  0  0  0  0
 30 31  1  0  0  0  0
 31 32  1  0  0  0  0
M  END
>  <MODEL>
4

>  <REMARK>
 VINA RESULT:      -7.0      3.185      6.400
  Name = 
  6 active torsions:
  status: ('A' for Active; 'I' for Inactive)
    1  A    between atoms: C_2  and  C_17
    2  A    between atoms: N_7  and  C_17
    3  A    between atoms: C_9  and  C_27
    4  A    between atoms: C_9  and  C_30
    5  A    between atoms: C_15  and  C_19
    6  A    between atoms: N_28  and  C_30
                            x       y       z     vdW  Elec       q    Type
                         _______ _______ _______ _____ _____    ______ ____

>  <TORSDO>
F 6

$$$$
=
 OpenBabel11052411533D

 32 36  0  0  1  0  0  0  0  0999 V2000
  161.6140  208.3650  150.2470 N   0  0  0  0  0  0  0  0  0  0  0  0
  161.3100  206.9240  152.0850 C   0  0  2  0  0  3  0  0  0  0  0  0
  161.4930  206.5480  148.6560 N   0  0  0  0  0  0  0  0  0  0  0  0
  160.8510  207.2080  149.7970 C   0  0  1  0  0  3  0  0  0  0  0  0
  161.8890  209.3600  152.3150 C   0  0  0  0  0  0  0  0  0  0  0  0
  161.5150  205.2490  148.5180 C   0  0  0  0  0  0  0  0  0  0  0  0
  160.8580  206.3020  150.9980 C   0  0  1  0  0  3  0  0  0  0  0  0
  160.7410  204.8530  150.8170 C   0  0  0  0  0  3  0  0  0  0  0  0
  161.7060  209.4730  153.7900 C   0  0  0  0  0  1  0  0  0  0  0  0
  161.0350  204.3580  149.6120 C   0  0  0  0  0  3  0  0  0  0  0  0
  161.4290  209.7410  149.8180 C   0  0  1  0  0  3  0  0  0  0  0  0
  161.7490  208.2360  151.6390 C   0  0  0  0  0  0  0  0  0  0  0  0
  161.9200  210.7960  151.2430 S   0  0  0  0  0  0  0  0  0  0  0  0
  160.8790  203.6880  145.5780 O   0  0  0  0  0  0  0  0  0  0  0  0
  160.4560  201.7160  146.8750 C   0  0  0  0  0  1  0  0  0  0  0  0
  161.2420  204.8900  146.1040 C   0  0  0  0  0  0  0  0  0  0  0  0
  161.5040  202.6670  146.3280 C   0  0  2  0  0  3  0  0  0  0  0  0
  160.0860  206.1390  144.5110 F   0  0  0  0  0  0  0  0  0  0  0  0
  162.1060  204.6650  147.2720 C   0  0  2  0  0  3  0  0  0  0  0  0
  160.8810  206.0670  145.6070 C   0  0  0  0  0  3  0  0  0  0  0  0
  162.2250  203.2590  147.4030 O   0  0  0  0  0  0  0  0  0  0  0  0
  162.3310  210.0490  148.6360 C   0  0  0  0  0  2  0  0  0  0  0  0
  162.3310  211.5400  148.3490 C   0  0  0  0  0  2  0  0  0  0  0  0
  160.8330  214.0290  144.5940 C   0  0  0  0  0  3  0  0  0  0  0  0
  161.2620  212.7630  146.4090 C   0  0  0  0  0  0  0  0  0  0  0  0
  160.1120  213.1290  145.5430 C   0  0  0  0  0  2  0  0  0  0  0  0
  162.0860  214.1110  144.9050 N   0  0  0  0  0  0  0  0  0  0  0  0
  162.3560  213.3280  146.0290 N   0  0  0  0  0  0  0  0  0  0  0  0
  161.1750  211.8910  147.5380 N   0  0  0  0  0  2  0  0  0  0  0  0
  161.6420  206.2830  153.3970 C   0  0  0  0  0  2  0  0  0  0  0  0
  160.4560  206.2030  154.2360 N   0  0  0  0  0  2  0  0  0  0  0  0
  160.7020  206.9460  155.3420 O   0  0  0  0  0  1  0  0  0  0  0  0
  1 12  1  0  0  0  0
  2 30  1  6  0  0  0
  4  3  1  6  0  0  0
  4  1  1  0  0  0  0
  4  7  1  0  0  0  0
  5  9  1  0  0  0  0
  6  3  2  0  0  0  0
  6 10  1  0  0  0  0
  7  8  1  6  0  0  0
  7  2  1  0  0  0  0
 10  8  2  0  0  0  0
 11 22  1  6  0  0  0
 11  1  1  0  0  0  0
 11 13  1  0  0  0  0
 12  2  1  0  0  0  0
 12  5  2  0  0  0  0
 13  5  1  0  0  0  0
 14 16  1  0  0  0  0
 14 17  1  0  0  0  0
 16 19  1  0  0  0  0
 17 15  1  1  0  0  0
 17 21  1  0  0  0  0
 18 20  1  0  0  0  0
 19 21  1  0  0  0  0
 19  6  1  1  0  0  0
 20 16  2  0  0  0  0
 23 22  1  0  0  0  0
 24 27  2  0  0  0  0
 24 26  1  0  0  0  0
 25 29  1  0  0  0  0
 26 25  1  0  0  0  0
 27 28  1  0  0  0  0
 28 25  2  0  0  0  0
 29 23  1  0  0  0  0
 30 31  1  0  0  0  0
 31 32  1  0  0  0  0
M  END
>  <MODEL>
5

>  <REMARK>
 VINA RESULT:      -7.0      2.929      6.272
  Name = 
  6 active torsions:
  status: ('A' for Active; 'I' for Inactive)
    1  A    between atoms: C_2  and  C_17
    2  A    between atoms: N_7  and  C_17
    3  A    between atoms: C_9  and  C_27
    4  A    between atoms: C_9  and  C_30
    5  A    between atoms: C_15  and  C_19
    6  A    between atoms: N_28  and  C_30
                            x       y       z     vdW  Elec       q    Type
                         _______ _______ _______ _____ _____    ______ ____

>  <TORSDO>
F 6

$$$$
=
 OpenBabel11052411533D

 32 36  0  0  1  0  0  0  0  0999 V2000
  161.6790  208.8400  150.3280 N   0  0  0  0  0  0  0  0  0  0  0  0
  161.0620  210.3990  151.9810 C   0  0  2  0  0  3  0  0  0  0  0  0
  161.5750  210.4940  148.5660 N   0  0  0  0  0  0  0  0  0  0  0  0
  162.1100  210.1610  149.8900 C   0  0  1  0  0  3  0  0  0  0  0  0
  161.2640  207.9300  152.4110 C   0  0  0  0  0  0  0  0  0  0  0  0
  161.1670  211.6960  148.2560 C   0  0  0  0  0  0  0  0  0  0  0  0
  161.5300  211.0760  150.9340 C   0  0  1  0  0  3  0  0  0  0  0  0
  161.2110  212.4630  150.5900 C   0  0  0  0  0  3  0  0  0  0  0  0
  161.1240  207.9710  153.8940 C   0  0  0  0  0  1  0  0  0  0  0  0
  161.0630  212.7580  149.2960 C   0  0  0  0  0  3  0  0  0  0  0  0
  162.3930  207.5900  150.1300 C   0  0  1  0  0  3  0  0  0  0  0  0
  161.1880  208.9930  151.6340 C   0  0  0  0  0  0  0  0  0  0  0  0
  161.9510  206.5130  151.5550 S   0  0  0  0  0  0  0  0  0  0  0  0
  160.4570  214.0780  145.9520 O   0  0  0  0  0  0  0  0  0  0  0  0
  158.4250  214.4520  147.1680 C   0  0  0  0  0  1  0  0  0  0  0  0
  161.3960  213.1530  146.2920 C   0  0  0  0  0  0  0  0  0  0  0  0
  159.1800  213.5370  146.2240 C   0  0  2  0  0  3  0  0  0  0  0  0
  163.1940  214.4510  145.5740 F   0  0  0  0  0  0  0  0  0  0  0  0
  160.7280  211.9680  146.8500 C   0  0  2  0  0  3  0  0  0  0  0  0
  162.7030  213.3090  146.1140 C   0  0  0  0  0  3  0  0  0  0  0  0
  159.3400  212.2550  146.8210 O   0  0  0  0  0  0  0  0  0  0  0  0
  161.9420  206.9230  148.8430 C   0  0  0  0  0  2  0  0  0  0  0  0
  160.8560  205.9020  149.1320 C   0  0  0  0  0  2  0  0  0  0  0  0
  161.0430  201.1590  149.1880 C   0  0  0  0  0  3  0  0  0  0  0  0
  161.0150  203.3910  148.8720 C   0  0  0  0  0  0  0  0  0  0  0  0
  161.2010  202.1480  148.0790 C   0  0  0  0  0  2  0  0  0  0  0  0
  160.8240  201.7620  150.3100 N   0  0  0  0  0  0  0  0  0  0  0  0
  160.8060  203.1450  150.1190 N   0  0  0  0  0  0  0  0  0  0  0  0
  161.0660  204.7090  148.3250 N   0  0  0  0  0  2  0  0  0  0  0  0
  160.2440  210.9600  153.1030 C   0  0  0  0  0  2  0  0  0  0  0  0
  158.8770  211.1940  152.6650 N   0  0  0  0  0  2  0  0  0  0  0  0
  158.2010  211.6990  153.7240 O   0  0  0  0  0  1  0  0  0  0  0  0
  1 12  1  0  0  0  0
  2 30  1  6  0  0  0
  4  3  1  6  0  0  0
  4  1  1  0  0  0  0
  4  7  1  0  0  0  0
  5  9  1  0  0  0  0
  6  3  2  0  0  0  0
  6 10  1  0  0  0  0
  7  8  1  6  0  0  0
  7  2  1  0  0  0  0
 10  8  2  0  0  0  0
 11 22  1  6  0  0  0
 11  1  1  0  0  0  0
 11 13  1  0  0  0  0
 12  2  1  0  0  0  0
 12  5  2  0  0  0  0
 13  5  1  0  0  0  0
 14 17  1  0  0  0  0
 14 16  1  0  0  0  0
 16 19  1  0  0  0  0
 17 21  1  0  0  0  0
 17 15  1  1  0  0  0
 18 20  1  0  0  0  0
 19  6  1  1  0  0  0
 20 16  2  0  0  0  0
 21 19  1  0  0  0  0
 22 23  1  0  0  0  0
 24 27  2  0  0  0  0
 25 28  2  0  0  0  0
 26 25  1  0  0  0  0
 26 24  1  0  0  0  0
 28 27  1  0  0  0  0
 29 25  1  0  0  0  0
 29 23  1  0  0  0  0
 31 30  1  0  0  0  0
 31 32  1  0  0  0  0
M  END
>  <MODEL>
6

>  <REMARK>
 VINA RESULT:      -6.9      3.135      7.751
  Name = 
  6 active torsions:
  status: ('A' for Active; 'I' for Inactive)
    1  A    between atoms: C_2  and  C_17
    2  A    between atoms: N_7  and  C_17
    3  A    between atoms: C_9  and  C_27
    4  A    between atoms: C_9  and  C_30
    5  A    between atoms: C_15  and  C_19
    6  A    between atoms: N_28  and  C_30
                            x       y       z     vdW  Elec       q    Type
                         _______ _______ _______ _____ _____    ______ ____

>  <TORSDO>
F 6

$$$$
=
 OpenBabel11052411533D

 32 36  0  0  1  0  0  0  0  0999 V2000
  161.3360  206.8930  150.1960 N   0  0  0  0  0  0  0  0  0  0  0  0
  160.9320  205.0930  151.6590 C   0  0  2  0  0  3  0  0  0  0  0  0
  161.1930  205.4810  148.2370 N   0  0  0  0  0  0  0  0  0  0  0  0
  160.5450  205.8970  149.4850 C   0  0  1  0  0  3  0  0  0  0  0  0
  161.5920  207.3920  152.4370 C   0  0  0  0  0  0  0  0  0  0  0  0
  161.1720  204.2460  147.8140 C   0  0  0  0  0  0  0  0  0  0  0  0
  160.4880  204.7480  150.4530 C   0  0  1  0  0  3  0  0  0  0  0  0
  160.3240  203.3810  149.9520 C   0  0  0  0  0  3  0  0  0  0  0  0
  161.3740  207.1820  153.8970 C   0  0  0  0  0  1  0  0  0  0  0  0
  160.6320  203.1550  148.6720 C   0  0  0  0  0  3  0  0  0  0  0  0
  161.2130  208.3370  150.0800 C   0  0  1  0  0  3  0  0  0  0  0  0
  161.4300  206.4530  151.5250 C   0  0  0  0  0  0  0  0  0  0  0  0
  161.7030  209.0280  151.7130 S   0  0  0  0  0  0  0  0  0  0  0  0
  160.5860  203.8080  144.5040 O   0  0  0  0  0  0  0  0  0  0  0  0
  159.6080  201.7010  145.0980 C   0  0  0  0  0  1  0  0  0  0  0  0
  161.1250  204.6820  145.3970 C   0  0  0  0  0  0  0  0  0  0  0  0
  160.8890  202.4950  144.9290 C   0  0  2  0  0  3  0  0  0  0  0  0
  160.4560  206.5780  144.2160 F   0  0  0  0  0  0  0  0  0  0  0  0
  161.7750  203.9290  146.4790 C   0  0  2  0  0  3  0  0  0  0  0  0
  161.0800  206.0040  145.2750 C   0  0  0  0  0  3  0  0  0  0  0  0
  161.5820  202.5600  146.1710 O   0  0  0  0  0  0  0  0  0  0  0  0
  162.1560  208.8620  149.0130 C   0  0  0  0  0  2  0  0  0  0  0  0
  162.3120  210.3670  149.1440 C   0  0  0  0  0  2  0  0  0  0  0  0
  161.8070  214.4120  146.7110 C   0  0  0  0  0  3  0  0  0  0  0  0
  161.8220  212.3880  147.7020 C   0  0  0  0  0  0  0  0  0  0  0  0
  161.0960  213.1010  146.6210 C   0  0  0  0  0  2  0  0  0  0  0  0
  162.7060  214.3810  147.6400 N   0  0  0  0  0  0  0  0  0  0  0  0
  162.7190  213.1280  148.2570 N   0  0  0  0  0  0  0  0  0  0  0  0
  161.5620  211.0390  148.0930 N   0  0  0  0  0  2  0  0  0  0  0  0
  161.2060  204.1640  152.8010 C   0  0  0  0  0  2  0  0  0  0  0  0
  161.0120  202.7830  152.3880 N   0  0  0  0  0  2  0  0  0  0  0  0
  162.2230  202.3070  152.0110 O   0  0  0  0  0  1  0  0  0  0  0  0
  1 12  1  0  0  0  0
  2 30  1  6  0  0  0
  4  3  1  6  0  0  0
  4  1  1  0  0  0  0
  4  7  1  0  0  0  0
  5  9  1  0  0  0  0
  6  3  2  0  0  0  0
  6 10  1  0  0  0  0
  7  8  1  6  0  0  0
  7  2  1  0  0  0  0
 10  8  2  0  0  0  0
 11 22  1  6  0  0  0
 11  1  1  0  0  0  0
 11 13  1  0  0  0  0
 12  2  1  0  0  0  0
 12  5  2  0  0  0  0
 13  5  1  0  0  0  0
 14 17  1  0  0  0  0
 14 16  1  0  0  0  0
 16 19  1  0  0  0  0
 17 15  1  1  0  0  0
 17 21  1  0  0  0  0
 18 20  1  0  0  0  0
 19  6  1  1  0  0  0
 20 16  2  0  0  0  0
 21 19  1  0  0  0  0
 22 23  1  0  0  0  0
 24 27  2  0  0  0  0
 25 29  1  0  0  0  0
 25 28  2  0  0  0  0
 26 24  1  0  0  0  0
 26 25  1  0  0  0  0
 27 28  1  0  0  0  0
 29 23  1  0  0  0  0
 31 30  1  0  0  0  0
 32 31  1  0  0  0  0
M  END
>  <MODEL>
7

>  <REMARK>
 VINA RESULT:      -6.6      3.409      6.411
  Name = 
  6 active torsions:
  status: ('A' for Active; 'I' for Inactive)
    1  A    between atoms: C_2  and  C_17
    2  A    between atoms: N_7  and  C_17
    3  A    between atoms: C_9  and  C_27
    4  A    between atoms: C_9  and  C_30
    5  A    between atoms: C_15  and  C_19
    6  A    between atoms: N_28  and  C_30
                            x       y       z     vdW  Elec       q    Type
                         _______ _______ _______ _____ _____    ______ ____

>  <TORSDO>
F 6

$$$$
=
 OpenBabel11052411533D

 32 36  0  0  1  0  0  0  0  0999 V2000
  161.5820  207.9630  150.1490 N   0  0  0  0  0  0  0  0  0  0  0  0
  161.1430  206.0240  151.4110 C   0  0  2  0  0  3  0  0  0  0  0  0
  161.5920  209.3760  152.1120 N   0  0  0  0  0  0  0  0  0  0  0  0
  162.1220  208.1590  151.4880 C   0  0  1  0  0  3  0  0  0  0  0  0
  161.1290  206.0750  148.8970 C   0  0  0  0  0  0  0  0  0  0  0  0
  161.2890  209.4380  153.3820 C   0  0  0  0  0  0  0  0  0  0  0  0
  161.6480  206.9410  152.2320 C   0  0  1  0  0  3  0  0  0  0  0  0
  161.4500  207.0050  153.6820 C   0  0  0  0  0  3  0  0  0  0  0  0
  161.0230  204.6070  148.6650 C   0  0  0  0  0  1  0  0  0  0  0  0
  161.3030  208.2140  154.2300 C   0  0  0  0  0  3  0  0  0  0  0  0
  162.1760  208.4200  148.9040 C   0  0  1  0  0  3  0  0  0  0  0  0
  161.1340  206.6340  150.0910 C   0  0  0  0  0  0  0  0  0  0  0  0
  161.6660  207.2090  147.6160 S   0  0  0  0  0  0  0  0  0  0  0  0
  158.6800  211.5410  153.8900 O   0  0  0  0  0  0  0  0  0  0  0  0
  158.8270  212.0650  151.5550 C   0  0  0  0  0  1  0  0  0  0  0  0
  159.4990  210.6650  154.5330 C   0  0  0  0  0  0  0  0  0  0  0  0
  159.4440  212.2420  152.9290 C   0  0  2  0  0  3  0  0  0  0  0  0
  157.8440  209.9090  155.9890 F   0  0  0  0  0  0  0  0  0  0  0  0
  160.8480  210.7500  153.9550 C   0  0  2  0  0  3  0  0  0  0  0  0
  159.1220  209.8840  155.5390 C   0  0  0  0  0  3  0  0  0  0  0  0
  160.7710  211.7270  152.9300 O   0  0  0  0  0  0  0  0  0  0  0  0
  161.6400  209.7920  148.5370 C   0  0  0  0  0  2  0  0  0  0  0  0
  162.5670  210.8750  149.0590 C   0  0  0  0  0  2  0  0  0  0  0  0
  160.9180  214.4430  146.3970 C   0  0  0  0  0  3  0  0  0  0  0  0
  161.9530  212.7770  147.5080 C   0  0  0  0  0  0  0  0  0  0  0  0
  162.2480  213.7650  146.4390 C   0  0  0  0  0  2  0  0  0  0  0  0
  160.1100  213.9160  147.2580 N   0  0  0  0  0  0  0  0  0  0  0  0
  160.7470  212.8830  147.9480 N   0  0  0  0  0  0  0  0  0  0  0  0
  162.8880  211.8130  147.9930 N   0  0  0  0  0  2  0  0  0  0  0  0
  160.4020  204.7860  151.8140 C   0  0  0  0  0  2  0  0  0  0  0  0
  161.3360  203.7160  152.1260 N   0  0  0  0  0  2  0  0  0  0  0  0
  160.9590  202.6360  151.4000 O   0  0  0  0  0  1  0  0  0  0  0  0
  1  4  1  0  0  0  0
  2 30  1  1  0  0  0
  2  7  1  0  0  0  0
  3  6  2  0  0  0  0
  4  3  1  1  0  0  0
  4  7  1  0  0  0  0
  5 12  2  0  0  0  0
  6 10  1  0  0  0  0
  7  8  1  1  0  0  0
  8 10  2  0  0  0  0
  9  5  1  0  0  0  0
 11 22  1  6  0  0  0
 11  1  1  0  0  0  0
 12  1  1  0  0  0  0
 12  2  1  0  0  0  0
 13  5  1  0  0  0  0
 13 11  1  0  0  0  0
 14 16  1  0  0  0  0
 16 20  2  0  0  0  0
 17 15  1  6  0  0  0
 17 21  1  0  0  0  0
 17 14  1  0  0  0  0
 19  6  1  6  0  0  0
 19 16  1  0  0  0  0
 20 18  1  0  0  0  0
 21 19  1  0  0  0  0
 22 23  1  0  0  0  0
 24 26  1  0  0  0  0
 24 27  2  0  0  0  0
 25 28  2  0  0  0  0
 25 29  1  0  0  0  0
 26 25  1  0  0  0  0
 27 28  1  0  0  0  0
 29 23  1  0  0  0  0
 30 31  1  0  0  0  0
 32 31  1  0  0  0  0
M  END
>  <MODEL>
8

>  <REMARK>
 VINA RESULT:      -6.6      1.559      2.074
  Name = 
  6 active torsions:
  status: ('A' for Active; 'I' for Inactive)
    1  A    between atoms: C_2  and  C_17
    2  A    between atoms: N_7  and  C_17
    3  A    between atoms: C_9  and  C_27
    4  A    between atoms: C_9  and  C_30
    5  A    between atoms: C_15  and  C_19
    6  A    between atoms: N_28  and  C_30
                            x       y       z     vdW  Elec       q    Type
                         _______ _______ _______ _____ _____    ______ ____

>  <TORSDO>
F 6

$$$$
=
 OpenBabel11052411533D

 32 36  0  0  1  0  0  0  0  0999 V2000
  161.6170  208.7680  150.5410 N   0  0  0  0  0  0  0  0  0  0  0  0
  160.7670  210.2330  152.1770 C   0  0  2  0  0  3  0  0  0  0  0  0
  161.5470  210.4670  148.8210 N   0  0  0  0  0  0  0  0  0  0  0  0
  161.9940  210.1270  150.1760 C   0  0  1  0  0  3  0  0  0  0  0  0
  161.0960  207.7690  152.5590 C   0  0  0  0  0  0  0  0  0  0  0  0
  161.0880  211.6490  148.5090 C   0  0  0  0  0  0  0  0  0  0  0  0
  161.2720  210.9700  151.1910 C   0  0  1  0  0  3  0  0  0  0  0  0
  160.8910  212.3450  150.8580 C   0  0  0  0  0  3  0  0  0  0  0  0
  160.8330  207.7550  154.0260 C   0  0  0  0  0  1  0  0  0  0  0  0
  160.8300  212.6700  149.5640 C   0  0  0  0  0  3  0  0  0  0  0  0
  162.4260  207.5730  150.3710 C   0  0  1  0  0  3  0  0  0  0  0  0
  161.0130  208.8490  151.8050 C   0  0  0  0  0  0  0  0  0  0  0  0
  161.9420  206.4260  151.7260 S   0  0  0  0  0  0  0  0  0  0  0  0
  160.5330  214.0570  146.1890 O   0  0  0  0  0  0  0  0  0  0  0  0
  158.4200  214.4120  147.2640 C   0  0  0  0  0  1  0  0  0  0  0  0
  161.4490  213.1300  146.5830 C   0  0  0  0  0  0  0  0  0  0  0  0
  159.2420  213.5100  146.3640 C   0  0  2  0  0  3  0  0  0  0  0  0
  163.2890  214.4410  146.0080 F   0  0  0  0  0  0  0  0  0  0  0  0
  160.7470  211.9380  147.0790 C   0  0  2  0  0  3  0  0  0  0  0  0
  162.7640  213.2910  146.4980 C   0  0  0  0  0  3  0  0  0  0  0  0
  159.3640  212.2210  146.9560 O   0  0  0  0  0  0  0  0  0  0  0  0
  162.1260  206.9200  149.0340 C   0  0  0  0  0  2  0  0  0  0  0  0
  161.3160  205.6530  149.2380 C   0  0  0  0  0  2  0  0  0  0  0  0
  160.9080  204.9530  144.5600 C   0  0  0  0  0  3  0  0  0  0  0  0
  161.2210  205.0140  146.7910 C   0  0  0  0  0  0  0  0  0  0  0  0
  161.4770  204.1010  145.6480 C   0  0  0  0  0  2  0  0  0  0  0  0
  160.4550  206.0650  145.0400 N   0  0  0  0  0  0  0  0  0  0  0  0
  160.6470  206.1070  146.4220 N   0  0  0  0  0  0  0  0  0  0  0  0
  161.5630  204.7220  148.1470 N   0  0  0  0  0  2  0  0  0  0  0  0
  159.8250  210.7050  153.2420 C   0  0  0  0  0  2  0  0  0  0  0  0
  160.4580  211.7260  154.0620 N   0  0  0  0  0  2  0  0  0  0  0  0
  161.2480  211.0830  154.9560 O   0  0  0  0  0  1  0  0  0  0  0  0
  1 12  1  0  0  0  0
  2 30  1  6  0  0  0
  4  3  1  6  0  0  0
  4  1  1  0  0  0  0
  4  7  1  0  0  0  0
  5  9  1  0  0  0  0
  6  3  2  0  0  0  0
  6 10  1  0  0  0  0
  7  8  1  6  0  0  0
  7  2  1  0  0  0  0
 10  8  2  0  0  0  0
 11 22  1  6  0  0  0
 11  1  1  0  0  0  0
 11 13  1  0  0  0  0
 12  2  1  0  0  0  0
 12  5  2  0  0  0  0
 13  5  1  0  0  0  0
 14 17  1  0  0  0  0
 14 16  1  0  0  0  0
 16 19  1  0  0  0  0
 17 21  1  0  0  0  0
 17 15  1  1  0  0  0
 18 20  1  0  0  0  0
 19  6  1  1  0  0  0
 20 16  2  0  0  0  0
 21 19  1  0  0  0  0
 22 23  1  0  0  0  0
 24 27  2  0  0  0  0
 24 26  1  0  0  0  0
 25 29  1  0  0  0  0
 26 25  1  0  0  0  0
 27 28  1  0  0  0  0
 28 25  2  0  0  0  0
 29 23  1  0  0  0  0
 30 31  1  0  0  0  0
 31 32  1  0  0  0  0
M  END
>  <MODEL>
9

>  <REMARK>
 VINA RESULT:      -6.4      3.269      7.076
  Name = 
  6 active torsions:
  status: ('A' for Active; 'I' for Inactive)
    1  A    between atoms: C_2  and  C_17
    2  A    between atoms: N_7  and  C_17
    3  A    between atoms: C_9  and  C_27
    4  A    between atoms: C_9  and  C_30
    5  A    between atoms: C_15  and  C_19
    6  A    between atoms: N_28  and  C_30
                            x       y       z     vdW  Elec       q    Type
                         _______ _______ _______ _____ _____    ______ ____

>  <TORSDO>
F 6

$$$$
