=
 OpenBabel11052412113D

 56 60  0  0  1  0  0  0  0  0999 V2000
  161.4900  205.0310  149.3700 C   0  0  1  0  0  3  0  0  0  0  0  0
  162.2250  206.1180  145.7790 C   0  0  2  0  0  3  0  0  0  0  0  0
  160.1890  203.1700  148.5850 O   0  0  0  0  0  0  0  0  0  0  0  0
  160.1330  204.0930  145.8970 C   0  0  0  0  0  2  0  0  0  0  0  0
  160.4920  204.9050  147.0470 N   0  0  0  0  0  0  0  0  0  0  0  0
  160.6550  204.3170  148.3450 C   0  0  0  0  0  0  0  0  0  0  0  0
  161.4650  206.5180  149.1590 C   0  0  0  0  0  3  0  0  0  0  0  0
  161.3690  203.9250  145.0050 C   0  0  0  0  0  2  0  0  0  0  0  0
  161.2870  207.0800  147.9570 C   0  0  0  0  0  0  0  0  0  0  0  0
  161.0300  206.2270  146.7430 C   0  0  1  0  0  3  0  0  0  0  0  0
  162.0060  205.2040  144.6350 N   0  0  0  0  0  0  0  0  0  0  0  0
  163.4950  205.9750  146.3850 O   0  0  0  0  0  0  0  0  0  0  0  0
  163.7350  204.6230  146.6550 C   0  0  0  0  0  2  0  0  0  0  0  0
  164.2750  203.9470  145.4110 C   0  0  0  0  0  1  0  0  0  0  0  0
  161.0780  204.6810  150.7980 C   0  0  0  0  0  2  0  0  0  0  0  0
  161.8680  205.5040  151.8050 C   0  0  1  0  0  3  0  0  0  0  0  0
  160.9330  206.3070  152.6260 C   0  0  1  0  0  3  0  0  0  0  0  0
  161.5110  205.1190  153.1110 O   0  0  0  0  0  0  0  0  0  0  0  0
  161.6560  207.5050  153.2360 C   0  0  2  0  0  3  0  0  0  0  0  0
  161.7210  208.7600  155.4370 C   0  0  0  0  0  3  0  0  0  0  0  0
  160.2570  208.1300  157.2600 C   0  0  0  0  0  3  0  0  0  0  0  0
  159.7190  207.1020  156.4770 C   0  0  0  0  0  3  0  0  0  0  0  0
  160.1830  206.9020  155.1730 C   0  0  0  0  0  3  0  0  0  0  0  0
  161.2580  208.9580  156.7410 C   0  0  0  0  0  3  0  0  0  0  0  0
  161.1860  207.7290  154.6470 C   0  0  0  0  0  0  0  0  0  0  0  0
  162.3630  209.7590  152.7770 O   0  0  0  0  0  1  0  0  0  0  0  0
  161.4750  208.7610  152.3710 C   0  0  2  0  0  3  0  0  0  0  0  0
  160.0710  210.6320  152.8700 O   0  0  0  0  0  1  0  0  0  0  0  0
  160.0520  209.2920  152.4780 C   0  0  0  0  0  2  0  0  0  0  0  0
  161.2950  208.4710  147.7620 O   0  0  0  0  0  0  0  0  0  0  0  0
  162.4370  209.2040  149.7410 C   0  0  0  0  0  2  0  0  0  0  0  0
  161.8870  209.4670  148.5610 C   0  0  0  0  0  0  0  0  0  0  0  0
  161.9220  210.7820  148.0940 O   0  0  0  0  0  0  0  0  0  0  0  0
  160.7980  211.3960  147.4730 C   0  0  0  0  0  2  0  0  0  0  0  0
  161.1260  212.7970  147.0630 C   0  0  0  0  0  0  0  0  0  0  0  0
  160.2340  213.6220  146.9380 O   0  0  0  0  0  0  0  0  0  0  0  0
  162.5360  213.1830  146.7760 C   0  0  0  0  0  1  0  0  0  0  0  0
  161.1720  205.8860  143.6550 C   0  0  0  0  0  2  0  0  0  0  0  0
  161.8490  205.8320  142.2940 C   0  0  0  0  0  2  0  0  0  0  0  0
  161.5610  207.1000  141.5050 C   0  0  0  0  0  2  0  0  0  0  0  0
  162.4990  207.2460  140.3960 N   0  0  0  0  0  0  0  0  0  0  0  0
  160.7210  208.3440  139.0550 C   0  0  0  0  0  2  0  0  0  0  0  0
  162.1080  209.7100  140.5630 C   0  0  2  0  0  3  0  0  0  0  0  0
  162.1330  208.4640  139.6590 C   0  0  1  0  0  3  0  0  0  0  0  0
  160.4110  211.5330  140.7480 C   0  0  0  0  0  3  0  0  0  0  0  0
  158.2690  211.3500  138.7120 C   0  0  0  0  0  1  0  0  0  0  0  0
  158.1120  209.0620  138.1330 O   0  0  0  0  0  0  0  0  0  0  0  0
  158.7950  209.9530  138.7010 C   0  0  0  0  0  0  0  0  0  0  0  0
  160.8340  210.3870  140.2080 C   0  0  0  0  0  0  0  0  0  0  0  0
  160.0610  209.6140  139.2960 N   0  0  0  0  0  0  0  0  0  0  0  0
  163.1910  210.5290  140.2390 O   0  0  0  0  0  1  0  0  0  0  0  0
  161.1950  212.2860  141.7720 C   0  0  0  0  0  2  0  0  0  0  0  0
  160.4630  212.2640  143.1030 C   0  0  0  0  0  2  0  0  0  0  0  0
  160.5910  213.5070  143.7270 O   0  0  0  0  0  1  0  0  0  0  0  0
  162.7120  206.3850  138.2350 O   0  0  0  0  0  1  0  0  0  0  0  0
  162.2760  206.0890  139.5310 C   0  0  0  0  0  2  0  0  0  0  0  0
  1 15  1  1  0  0  0
  2 12  1  1  0  0  0
  2 10  1  0  0  0  0
  4  5  1  0  0  0  0
  5  6  1  0  0  0  0
  6  3  2  0  0  0  0
  6  1  1  0  0  0  0
  7  1  1  0  0  0  0
  8  4  1  0  0  0  0
  9  7  2  0  0  0  0
 10  5  1  0  0  0  0
 10  9  1  1  0  0  0
 11  8  1  0  0  0  0
 11  2  1  0  0  0  0
 12 13  1  0  0  0  0
 14 13  1  0  0  0  0
 16 15  1  6  0  0  0
 16 17  1  0  0  0  0
 16 18  1  0  0  0  0
 17 18  1  0  0  0  0
 17 19  1  1  0  0  0
 19 27  1  6  0  0  0
 19 25  1  0  0  0  0
 20 24  1  0  0  0  0
 22 21  1  0  0  0  0
 23 22  2  0  0  0  0
 24 21  2  0  0  0  0
 25 23  1  0  0  0  0
 25 20  2  0  0  0  0
 27 29  1  0  0  0  0
 27 26  1  1  0  0  0
 29 28  1  0  0  0  0
 30  9  1  0  0  0  0
 30 32  1  0  0  0  0
 32 31  2  0  0  0  0
 33 32  1  0  0  0  0
 34 33  1  0  0  0  0
 35 34  1  0  0  0  0
 36 35  2  0  0  0  0
 37 35  1  0  0  0  0
 38 11  1  0  0  0  0
 39 38  1  0  0  0  0
 40 39  1  0  0  0  0
 41 40  1  0  0  0  0
 42 50  1  0  0  0  0
 42 44  1  0  0  0  0
 43 51  1  6  0  0  0
 44 41  1  1  0  0  0
 44 43  1  0  0  0  0
 45 52  1  0  0  0  0
 47 48  2  0  0  0  0
 48 46  1  0  0  0  0
 48 50  1  0  0  0  0
 49 43  1  0  0  0  0
 49 45  2  0  0  0  0
 50 49  1  0  0  0  0
 52 53  1  0  0  0  0
 53 54  1  0  0  0  0
 55 56  1  0  0  0  0
 56 41  1  0  0  0  0
M  END
>  <MODEL>
1

>  <REMARK>
 VINA RESULT:      -2.7      0.000      0.000
  Name = 
  21 active torsions:
  status: ('A' for Active; 'I' for Inactive)
    1  A    between atoms: C_1  and  C_14
    2  A    between atoms: C_1  and  C_35
    3  A    between atoms: C_3  and  O_43
    4  A    between atoms: C_4  and  C_36
    5  A    between atoms: C_5  and  O_43
    6  A    between atoms: O_7  and  C_25
    7  A    between atoms: O_7  and  C_47
    8  A    between atoms: C_11  and  C_30
    9  A    between atoms: C_11  and  C_34
   10  A    between atoms: C_11  and  C_55
   11  A    between atoms: C_12  and  N_42
   12  A    between atoms: C_14  and  N_51
   13  A    between atoms: C_17  and  C_36
   14  A    between atoms: C_18  and  C_21
   15  A    between atoms: C_21  and  O_22
   16  A    between atoms: O_22  and  C_25
   17  A    between atoms: C_23  and  C_53
   18  A    between atoms: C_27  and  N_42
   19  A    between atoms: C_34  and  C_44
   20  A    between atoms: C_35  and  N_42
   21  A    between atoms: C_37  and  C_53
                            x       y       z     vdW  Elec       q    Type
                         _______ _______ _______ _____ _____    ______ ____

>  <TORSDO>
F 21

$$$$
=
 OpenBabel11052412113D

 56 60  0  0  1  0  0  0  0  0999 V2000
  160.3690  204.9530  148.8500 C   0  0  1  0  0  3  0  0  0  0  0  0
  160.7130  204.6500  145.0540 C   0  0  2  0  0  3  0  0  0  0  0  0
  161.1400  207.2270  148.7800 O   0  0  0  0  0  0  0  0  0  0  0  0
  161.9960  207.0590  146.0750 C   0  0  0  0  0  2  0  0  0  0  0  0
  161.6990  205.9180  146.9250 N   0  0  0  0  0  0  0  0  0  0  0  0
  161.1140  206.0970  148.2230 C   0  0  0  0  0  0  0  0  0  0  0  0
  160.9010  203.6280  148.3840 C   0  0  0  0  0  3  0  0  0  0  0  0
  160.9640  207.1130  144.9420 C   0  0  0  0  0  2  0  0  0  0  0  0
  161.4730  203.4550  147.1860 C   0  0  0  0  0  0  0  0  0  0  0  0
  161.6750  204.6220  146.2570 C   0  0  1  0  0  3  0  0  0  0  0  0
  160.8460  205.8470  144.1930 N   0  0  0  0  0  0  0  0  0  0  0  0
  159.3720  204.2940  145.3290 O   0  0  0  0  0  0  0  0  0  0  0  0
  158.8820  203.4850  144.2970 C   0  0  0  0  0  2  0  0  0  0  0  0
  157.4850  203.9320  143.9220 C   0  0  0  0  0  1  0  0  0  0  0  0
  160.3680  205.0280  150.3740 C   0  0  0  0  0  2  0  0  0  0  0  0
  161.3070  206.1220  150.8620 C   0  0  1  0  0  3  0  0  0  0  0  0
  161.1390  206.2990  152.3230 C   0  0  1  0  0  3  0  0  0  0  0  0
  162.2220  205.5800  151.7840 O   0  0  0  0  0  0  0  0  0  0  0  0
  161.6150  207.6860  152.7490 C   0  0  2  0  0  3  0  0  0  0  0  0
  161.6070  209.1290  154.8320 C   0  0  0  0  0  3  0  0  0  0  0  0
  160.3330  208.4720  156.7830 C   0  0  0  0  0  3  0  0  0  0  0  0
  159.9090  207.3150  156.1200 C   0  0  0  0  0  3  0  0  0  0  0  0
  160.3340  207.0640  154.8120 C   0  0  0  0  0  3  0  0  0  0  0  0
  161.1820  209.3780  156.1400 C   0  0  0  0  0  3  0  0  0  0  0  0
  161.1850  207.9680  154.1620 C   0  0  0  0  0  0  0  0  0  0  0  0
  162.2000  209.4370  151.2060 O   0  0  0  0  0  1  0  0  0  0  0  0
  161.1170  208.7650  151.7770 C   0  0  2  0  0  3  0  0  0  0  0  0
  160.5320  211.0670  152.0610 O   0  0  0  0  0  1  0  0  0  0  0  0
  160.2310  209.7740  152.4940 C   0  0  0  0  0  2  0  0  0  0  0  0
  161.9420  202.2060  146.7430 O   0  0  0  0  0  0  0  0  0  0  0  0
  160.5840  200.6610  145.5070 C   0  0  0  0  0  2  0  0  0  0  0  0
  161.2330  200.9970  146.6150 C   0  0  0  0  0  0  0  0  0  0  0  0
  161.2260  200.0980  147.6840 O   0  0  0  0  0  0  0  0  0  0  0  0
  161.8080  200.4130  148.9430 C   0  0  0  0  0  2  0  0  0  0  0  0
  160.7810  200.9880  149.8660 C   0  0  0  0  0  0  0  0  0  0  0  0
  159.5990  200.9650  149.5560 O   0  0  0  0  0  0  0  0  0  0  0  0
  161.1970  201.6170  151.1510 C   0  0  0  0  0  1  0  0  0  0  0  0
  162.0230  205.6790  143.3520 C   0  0  0  0  0  2  0  0  0  0  0  0
  161.6250  205.8310  141.8920 C   0  0  0  0  0  2  0  0  0  0  0  0
  161.7650  207.2800  141.4510 C   0  0  0  0  0  2  0  0  0  0  0  0
  162.5650  207.3760  140.2330 N   0  0  0  0  0  0  0  0  0  0  0  0
  160.7180  208.4340  138.9540 C   0  0  0  0  0  2  0  0  0  0  0  0
  162.1100  209.8270  140.4310 C   0  0  2  0  0  3  0  0  0  0  0  0
  162.1440  208.5890  139.5170 C   0  0  1  0  0  3  0  0  0  0  0  0
  160.3690  211.6000  140.6800 C   0  0  0  0  0  3  0  0  0  0  0  0
  158.1750  211.3720  138.7060 C   0  0  0  0  0  1  0  0  0  0  0  0
  158.0650  209.0850  138.1130 O   0  0  0  0  0  0  0  0  0  0  0  0
  158.7390  209.9910  138.6680 C   0  0  0  0  0  0  0  0  0  0  0  0
  160.8080  210.4700  140.1190 C   0  0  0  0  0  0  0  0  0  0  0  0
  160.0310  209.6830  139.2240 N   0  0  0  0  0  0  0  0  0  0  0  0
  163.1600  210.6790  140.0820 O   0  0  0  0  0  1  0  0  0  0  0  0
  161.1610  212.3670  141.6870 C   0  0  0  0  0  2  0  0  0  0  0  0
  160.2600  212.8070  142.8280 C   0  0  0  0  0  2  0  0  0  0  0  0
  159.9930  211.7170  143.6600 O   0  0  0  0  0  1  0  0  0  0  0  0
  162.6200  206.4100  138.1070 O   0  0  0  0  0  1  0  0  0  0  0  0
  162.2090  206.2080  139.4290 C   0  0  0  0  0  2  0  0  0  0  0  0
  1 15  1  1  0  0  0
  2 12  1  1  0  0  0
  2 10  1  0  0  0  0
  4  5  1  0  0  0  0
  5  6  1  0  0  0  0
  6  3  2  0  0  0  0
  6  1  1  0  0  0  0
  7  1  1  0  0  0  0
  8  4  1  0  0  0  0
  9  7  2  0  0  0  0
 10  5  1  0  0  0  0
 10  9  1  1  0  0  0
 11  8  1  0  0  0  0
 11  2  1  0  0  0  0
 13 12  1  0  0  0  0
 14 13  1  0  0  0  0
 16 15  1  1  0  0  0
 16 18  1  0  0  0  0
 16 17  1  0  0  0  0
 17 19  1  6  0  0  0
 18 17  1  0  0  0  0
 19 27  1  6  0  0  0
 19 25  1  0  0  0  0
 20 24  1  0  0  0  0
 22 21  1  0  0  0  0
 23 22  2  0  0  0  0
 24 21  2  0  0  0  0
 25 23  1  0  0  0  0
 25 20  2  0  0  0  0
 27 26  1  1  0  0  0
 27 29  1  0  0  0  0
 28 29  1  0  0  0  0
 30  9  1  0  0  0  0
 31 32  2  0  0  0  0
 32 30  1  0  0  0  0
 32 33  1  0  0  0  0
 33 34  1  0  0  0  0
 34 35  1  0  0  0  0
 35 37  1  0  0  0  0
 36 35  2  0  0  0  0
 38 11  1  0  0  0  0
 39 38  1  0  0  0  0
 40 39  1  0  0  0  0
 41 40  1  0  0  0  0
 42 50  1  0  0  0  0
 42 44  1  0  0  0  0
 43 51  1  6  0  0  0
 44 41  1  1  0  0  0
 44 43  1  0  0  0  0
 45 52  1  0  0  0  0
 47 48  2  0  0  0  0
 48 46  1  0  0  0  0
 48 50  1  0  0  0  0
 49 43  1  0  0  0  0
 49 45  2  0  0  0  0
 50 49  1  0  0  0  0
 52 53  1  0  0  0  0
 53 54  1  0  0  0  0
 55 56  1  0  0  0  0
 56 41  1  0  0  0  0
M  END
>  <MODEL>
2

>  <REMARK>
 VINA RESULT:      -2.5      1.745      4.466
  Name = 
  21 active torsions:
  status: ('A' for Active; 'I' for Inactive)
    1  A    between atoms: C_1  and  C_14
    2  A    between atoms: C_1  and  C_35
    3  A    between atoms: C_3  and  O_43
    4  A    between atoms: C_4  and  C_36
    5  A    between atoms: C_5  and  O_43
    6  A    between atoms: O_7  and  C_25
    7  A    between atoms: O_7  and  C_47
    8  A    between atoms: C_11  and  C_30
    9  A    between atoms: C_11  and  C_34
   10  A    between atoms: C_11  and  C_55
   11  A    between atoms: C_12  and  N_42
   12  A    between atoms: C_14  and  N_51
   13  A    between atoms: C_17  and  C_36
   14  A    between atoms: C_18  and  C_21
   15  A    between atoms: C_21  and  O_22
   16  A    between atoms: O_22  and  C_25
   17  A    between atoms: C_23  and  C_53
   18  A    between atoms: C_27  and  N_42
   19  A    between atoms: C_34  and  C_44
   20  A    between atoms: C_35  and  N_42
   21  A    between atoms: C_37  and  C_53
                            x       y       z     vdW  Elec       q    Type
                         _______ _______ _______ _____ _____    ______ ____

>  <TORSDO>
F 21

$$$$
=
 OpenBabel11052412113D

 56 60  0  0  1  0  0  0  0  0999 V2000
  161.4840  209.7010  154.0420 C   0  0  1  0  0  3  0  0  0  0  0  0
  162.0700  209.6760  150.2640 C   0  0  2  0  0  3  0  0  0  0  0  0
  160.9020  207.3700  154.0090 O   0  0  0  0  0  0  0  0  0  0  0  0
  160.7330  207.2520  151.1740 C   0  0  0  0  0  2  0  0  0  0  0  0
  160.7360  208.4770  151.9560 N   0  0  0  0  0  0  0  0  0  0  0  0
  160.9910  208.4520  153.3680 C   0  0  0  0  0  0  0  0  0  0  0  0
  160.9980  210.9350  153.3360 C   0  0  0  0  0  3  0  0  0  0  0  0
  162.0140  207.2000  150.3340 C   0  0  0  0  0  2  0  0  0  0  0  0
  160.7310  210.9640  152.0240 C   0  0  0  0  0  0  0  0  0  0  0  0
  160.8410  209.7150  151.1910 C   0  0  1  0  0  3  0  0  0  0  0  0
  162.2320  208.4090  149.5160 N   0  0  0  0  0  0  0  0  0  0  0  0
  163.2760  210.1670  150.8180 O   0  0  0  0  0  0  0  0  0  0  0  0
  163.5470  211.4370  150.2950 C   0  0  0  0  0  2  0  0  0  0  0  0
  163.0240  211.5220  148.8760 C   0  0  0  0  0  1  0  0  0  0  0  0
  161.1120  209.7450  155.5220 C   0  0  0  0  0  2  0  0  0  0  0  0
  160.6070  211.1260  155.9120 C   0  0  1  0  0  3  0  0  0  0  0  0
  159.6090  210.9970  156.9980 C   0  0  1  0  0  3  0  0  0  0  0  0
  160.9370  211.3860  157.2550 O   0  0  0  0  0  0  0  0  0  0  0  0
  158.7050  212.2270  157.0390 C   0  0  2  0  0  3  0  0  0  0  0  0
  156.1910  212.4610  157.2500 C   0  0  0  0  0  3  0  0  0  0  0  0
  154.7090  211.1480  155.8570 C   0  0  0  0  0  3  0  0  0  0  0  0
  155.8140  210.5400  155.2490 C   0  0  0  0  0  3  0  0  0  0  0  0
  157.1080  210.8920  155.6430 C   0  0  0  0  0  3  0  0  0  0  0  0
  154.8970  212.1070  156.8570 C   0  0  0  0  0  3  0  0  0  0  0  0
  157.3040  211.8530  156.6450 C   0  0  0  0  0  0  0  0  0  0  0  0
  160.2680  214.0460  156.8330 O   0  0  0  0  0  1  0  0  0  0  0  0
  159.2620  213.3540  156.1560 C   0  0  2  0  0  3  0  0  0  0  0  0
  157.9630  214.3010  154.3860 O   0  0  0  0  0  1  0  0  0  0  0  0
  158.1630  214.3320  155.7680 C   0  0  0  0  0  2  0  0  0  0  0  0
  160.3070  212.1290  151.3630 O   0  0  0  0  0  0  0  0  0  0  0  0
  158.0190  212.3410  152.0570 C   0  0  0  0  0  2  0  0  0  0  0  0
  158.9980  212.6220  151.2050 C   0  0  0  0  0  0  0  0  0  0  0  0
  158.7130  213.4610  150.1260 O   0  0  0  0  0  0  0  0  0  0  0  0
  158.2840  212.9550  148.8660 C   0  0  0  0  0  2  0  0  0  0  0  0
  156.9530  213.5290  148.4980 C   0  0  0  0  0  0  0  0  0  0  0  0
  156.6580  213.6850  147.3220 O   0  0  0  0  0  0  0  0  0  0  0  0
  155.9940  213.9420  149.5610 C   0  0  0  0  0  1  0  0  0  0  0  0
  161.2910  208.4090  148.4040 C   0  0  0  0  0  2  0  0  0  0  0  0
  161.4910  207.1500  147.5760 C   0  0  0  0  0  2  0  0  0  0  0  0
  160.2420  206.8420  146.7640 C   0  0  0  0  0  2  0  0  0  0  0  0
  160.3070  205.4960  146.2020 N   0  0  0  0  0  0  0  0  0  0  0  0
  160.7480  204.5940  148.4730 C   0  0  0  0  0  2  0  0  0  0  0  0
  161.4180  203.2760  146.5040 C   0  0  2  0  0  3  0  0  0  0  0  0
  161.2460  204.7160  147.0210 C   0  0  1  0  0  3  0  0  0  0  0  0
  161.4190  201.1080  147.7440 C   0  0  0  0  0  3  0  0  0  0  0  0
  161.3280  201.4420  150.6850 C   0  0  0  0  0  1  0  0  0  0  0  0
  160.2580  203.5150  151.0740 O   0  0  0  0  0  0  0  0  0  0  0  0
  160.8180  202.7690  150.2310 C   0  0  0  0  0  0  0  0  0  0  0  0
  161.3110  202.4400  147.7270 C   0  0  0  0  0  0  0  0  0  0  0  0
  160.9740  203.2170  148.8710 N   0  0  0  0  0  0  0  0  0  0  0  0
  162.6900  203.1420  145.9430 O   0  0  0  0  0  1  0  0  0  0  0  0
  161.6840  200.3000  146.5180 C   0  0  0  0  0  2  0  0  0  0  0  0
  160.3710  199.8490  145.9010 C   0  0  0  0  0  2  0  0  0  0  0  0
  160.2410  200.3990  144.6240 O   0  0  0  0  0  1  0  0  0  0  0  0
  160.5420  204.5320  144.0880 O   0  0  0  0  0  1  0  0  0  0  0  0
  160.8680  205.6510  144.8610 C   0  0  0  0  0  2  0  0  0  0  0  0
  1 15  1  1  0  0  0
  2 12  1  1  0  0  0
  2 10  1  0  0  0  0
  4  5  1  0  0  0  0
  5  6  1  0  0  0  0
  6  3  2  0  0  0  0
  6  1  1  0  0  0  0
  7  1  1  0  0  0  0
  8  4  1  0  0  0  0
  9  7  2  0  0  0  0
 10  5  1  0  0  0  0
 10  9  1  1  0  0  0
 11  2  1  0  0  0  0
 11  8  1  0  0  0  0
 13 12  1  0  0  0  0
 14 13  1  0  0  0  0
 16 15  1  1  0  0  0
 16 17  1  0  0  0  0
 16 18  1  0  0  0  0
 17 19  1  6  0  0  0
 17 18  1  0  0  0  0
 19 27  1  6  0  0  0
 21 24  2  0  0  0  0
 22 23  2  0  0  0  0
 22 21  1  0  0  0  0
 23 25  1  0  0  0  0
 24 20  1  0  0  0  0
 25 19  1  0  0  0  0
 25 20  2  0  0  0  0
 27 26  1  1  0  0  0
 28 29  1  0  0  0  0
 29 27  1  0  0  0  0
 30  9  1  0  0  0  0
 32 30  1  0  0  0  0
 32 31  2  0  0  0  0
 33 32  1  0  0  0  0
 34 33  1  0  0  0  0
 35 34  1  0  0  0  0
 35 37  1  0  0  0  0
 36 35  2  0  0  0  0
 38 11  1  0  0  0  0
 39 38  1  0  0  0  0
 40 39  1  0  0  0  0
 41 40  1  0  0  0  0
 42 50  1  0  0  0  0
 43 51  1  1  0  0  0
 43 44  1  0  0  0  0
 43 49  1  0  0  0  0
 44 41  1  6  0  0  0
 44 42  1  0  0  0  0
 48 46  1  0  0  0  0
 48 47  2  0  0  0  0
 49 45  2  0  0  0  0
 49 50  1  0  0  0  0
 50 48  1  0  0  0  0
 52 45  1  0  0  0  0
 53 52  1  0  0  0  0
 54 53  1  0  0  0  0
 55 56  1  0  0  0  0
 56 41  1  0  0  0  0
M  END
>  <MODEL>
3

>  <REMARK>
 VINA RESULT:      -2.2      4.152      7.900
  Name = 
  21 active torsions:
  status: ('A' for Active; 'I' for Inactive)
    1  A    between atoms: C_1  and  C_14
    2  A    between atoms: C_1  and  C_35
    3  A    between atoms: C_3  and  O_43
    4  A    between atoms: C_4  and  C_36
    5  A    between atoms: C_5  and  O_43
    6  A    between atoms: O_7  and  C_25
    7  A    between atoms: O_7  and  C_47
    8  A    between atoms: C_11  and  C_30
    9  A    between atoms: C_11  and  C_34
   10  A    between atoms: C_11  and  C_55
   11  A    between atoms: C_12  and  N_42
   12  A    between atoms: C_14  and  N_51
   13  A    between atoms: C_17  and  C_36
   14  A    between atoms: C_18  and  C_21
   15  A    between atoms: C_21  and  O_22
   16  A    between atoms: O_22  and  C_25
   17  A    between atoms: C_23  and  C_53
   18  A    between atoms: C_27  and  N_42
   19  A    between atoms: C_34  and  C_44
   20  A    between atoms: C_35  and  N_42
   21  A    between atoms: C_37  and  C_53
                            x       y       z     vdW  Elec       q    Type
                         _______ _______ _______ _____ _____    ______ ____

>  <TORSDO>
F 21

$$$$
=
 OpenBabel11052412113D

 56 60  0  0  1  0  0  0  0  0999 V2000
  161.4050  204.5860  149.0820 C   0  0  1  0  0  3  0  0  0  0  0  0
  162.1750  205.9520  145.5950 C   0  0  2  0  0  3  0  0  0  0  0  0
  160.2670  202.6940  148.1350 O   0  0  0  0  0  0  0  0  0  0  0  0
  160.2310  203.7830  145.5100 C   0  0  0  0  0  2  0  0  0  0  0  0
  160.4940  204.5420  146.7210 N   0  0  0  0  0  0  0  0  0  0  0  0
  160.6570  203.8830  147.9850 C   0  0  0  0  0  0  0  0  0  0  0  0
  161.2800  206.0780  148.9640 C   0  0  0  0  0  3  0  0  0  0  0  0
  161.5040  203.7600  144.6560 C   0  0  0  0  0  2  0  0  0  0  0  0
  161.1010  206.7030  147.7940 C   0  0  0  0  0  0  0  0  0  0  0  0
  160.9440  205.9150  146.5200 C   0  0  1  0  0  3  0  0  0  0  0  0
  162.0590  205.1010  144.3900 N   0  0  0  0  0  0  0  0  0  0  0  0
  163.4320  205.8590  146.2370 O   0  0  0  0  0  0  0  0  0  0  0  0
  164.1020  204.7140  145.7900 C   0  0  0  0  0  2  0  0  0  0  0  0
  164.3570  203.7880  146.9620 C   0  0  0  0  0  1  0  0  0  0  0  0
  160.9740  204.1170  150.4690 C   0  0  0  0  0  2  0  0  0  0  0  0
  161.7860  204.8110  151.5520 C   0  0  1  0  0  3  0  0  0  0  0  0
  160.9300  205.7920  152.2570 C   0  0  1  0  0  3  0  0  0  0  0  0
  161.2260  204.5330  152.8130 O   0  0  0  0  0  0  0  0  0  0  0  0
  161.7880  206.8570  152.9350 C   0  0  2  0  0  3  0  0  0  0  0  0
  161.8860  208.0800  155.1530 C   0  0  0  0  0  3  0  0  0  0  0  0
  160.1380  207.7860  156.8020 C   0  0  0  0  0  3  0  0  0  0  0  0
  159.4790  206.8930  155.9490 C   0  0  0  0  0  3  0  0  0  0  0  0
  160.0250  206.5920  154.6980 C   0  0  0  0  0  3  0  0  0  0  0  0
  161.3420  208.3790  156.4050 C   0  0  0  0  0  3  0  0  0  0  0  0
  161.2300  207.1830  154.2930 C   0  0  0  0  0  0  0  0  0  0  0  0
  162.5390  209.1360  152.7650 O   0  0  0  0  0  1  0  0  0  0  0  0
  161.9120  208.1100  152.0560 C   0  0  2  0  0  3  0  0  0  0  0  0
  160.1610  209.7160  152.3330 O   0  0  0  0  0  1  0  0  0  0  0  0
  160.5420  208.5900  151.6000 C   0  0  0  0  0  2  0  0  0  0  0  0
  161.0150  208.1010  147.6860 O   0  0  0  0  0  0  0  0  0  0  0  0
  163.1040  208.8470  148.6020 C   0  0  0  0  0  2  0  0  0  0  0  0
  161.8380  209.0790  148.2750 C   0  0  0  0  0  0  0  0  0  0  0  0
  161.3190  210.3550  148.5080 O   0  0  0  0  0  0  0  0  0  0  0  0
  162.1470  211.4570  148.8610 C   0  0  0  0  0  2  0  0  0  0  0  0
  162.2160  212.4410  147.7370 C   0  0  0  0  0  0  0  0  0  0  0  0
  163.1290  213.2520  147.6890 O   0  0  0  0  0  0  0  0  0  0  0  0
  161.1580  212.4570  146.6880 C   0  0  0  0  0  1  0  0  0  0  0  0
  161.2100  205.7860  143.4240 C   0  0  0  0  0  2  0  0  0  0  0  0
  162.0270  206.1220  142.1860 C   0  0  0  0  0  2  0  0  0  0  0  0
  161.3110  207.1650  141.3420 C   0  0  0  0  0  2  0  0  0  0  0  0
  162.2220  207.7610  140.3690 N   0  0  0  0  0  0  0  0  0  0  0  0
  160.8000  209.7430  140.8300 C   0  0  0  0  0  2  0  0  0  0  0  0
  162.5160  209.8780  139.0700 C   0  0  2  0  0  3  0  0  0  0  0  0
  161.5380  208.9120  139.7640 C   0  0  1  0  0  3  0  0  0  0  0  0
  162.6640  212.3690  139.1700 C   0  0  0  0  0  3  0  0  0  0  0  0
  160.4320  213.6160  140.6630 C   0  0  0  0  0  1  0  0  0  0  0  0
  159.6900  211.9880  142.2100 O   0  0  0  0  0  0  0  0  0  0  0  0
  160.3760  212.2170  141.1800 C   0  0  0  0  0  0  0  0  0  0  0  0
  162.0910  211.2210  139.5410 C   0  0  0  0  0  0  0  0  0  0  0  0
  161.0620  211.1360  140.5210 N   0  0  0  0  0  0  0  0  0  0  0  0
  162.3480  209.7810  137.6880 O   0  0  0  0  0  1  0  0  0  0  0  0
  163.8040  212.4320  138.2070 C   0  0  0  0  0  2  0  0  0  0  0  0
  164.9770  213.1580  138.8420 C   0  0  0  0  0  2  0  0  0  0  0  0
  165.3310  214.2550  138.0520 O   0  0  0  0  0  1  0  0  0  0  0  0
  161.5450  206.9690  138.2780 O   0  0  0  0  0  1  0  0  0  0  0  0
  162.4270  206.7420  139.3410 C   0  0  0  0  0  2  0  0  0  0  0  0
  1 15  1  1  0  0  0
  2 12  1  1  0  0  0
  2 10  1  0  0  0  0
  4  5  1  0  0  0  0
  5  6  1  0  0  0  0
  6  3  2  0  0  0  0
  6  1  1  0  0  0  0
  7  1  1  0  0  0  0
  8  4  1  0  0  0  0
  9  7  2  0  0  0  0
 10  5  1  0  0  0  0
 10  9  1  1  0  0  0
 11  8  1  0  0  0  0
 11  2  1  0  0  0  0
 13 12  1  0  0  0  0
 13 14  1  0  0  0  0
 16 15  1  6  0  0  0
 16 17  1  0  0  0  0
 16 18  1  0  0  0  0
 17 18  1  0  0  0  0
 17 19  1  1  0  0  0
 19 27  1  6  0  0  0
 19 25  1  0  0  0  0
 20 24  1  0  0  0  0
 22 21  1  0  0  0  0
 23 22  2  0  0  0  0
 24 21  2  0  0  0  0
 25 23  1  0  0  0  0
 25 20  2  0  0  0  0
 27 26  1  1  0  0  0
 29 27  1  0  0  0  0
 29 28  1  0  0  0  0
 30  9  1  0  0  0  0
 30 32  1  0  0  0  0
 32 33  1  0  0  0  0
 32 31  2  0  0  0  0
 33 34  1  0  0  0  0
 35 34  1  0  0  0  0
 36 35  2  0  0  0  0
 37 35  1  0  0  0  0
 38 11  1  0  0  0  0
 39 38  1  0  0  0  0
 40 39  1  0  0  0  0
 41 40  1  0  0  0  0
 43 51  1  6  0  0  0
 43 49  1  0  0  0  0
 43 44  1  0  0  0  0
 44 41  1  1  0  0  0
 44 42  1  0  0  0  0
 45 49  2  0  0  0  0
 46 48  1  0  0  0  0
 48 47  2  0  0  0  0
 49 50  1  0  0  0  0
 50 42  1  0  0  0  0
 50 48  1  0  0  0  0
 52 53  1  0  0  0  0
 52 45  1  0  0  0  0
 54 53  1  0  0  0  0
 55 56  1  0  0  0  0
 56 41  1  0  0  0  0
M  END
>  <MODEL>
4

>  <REMARK>
 VINA RESULT:      -1.9      1.532      2.063
  Name = 
  21 active torsions:
  status: ('A' for Active; 'I' for Inactive)
    1  A    between atoms: C_1  and  C_14
    2  A    between atoms: C_1  and  C_35
    3  A    between atoms: C_3  and  O_43
    4  A    between atoms: C_4  and  C_36
    5  A    between atoms: C_5  and  O_43
    6  A    between atoms: O_7  and  C_25
    7  A    between atoms: O_7  and  C_47
    8  A    between atoms: C_11  and  C_30
    9  A    between atoms: C_11  and  C_34
   10  A    between atoms: C_11  and  C_55
   11  A    between atoms: C_12  and  N_42
   12  A    between atoms: C_14  and  N_51
   13  A    between atoms: C_17  and  C_36
   14  A    between atoms: C_18  and  C_21
   15  A    between atoms: C_21  and  O_22
   16  A    between atoms: O_22  and  C_25
   17  A    between atoms: C_23  and  C_53
   18  A    between atoms: C_27  and  N_42
   19  A    between atoms: C_34  and  C_44
   20  A    between atoms: C_35  and  N_42
   21  A    between atoms: C_37  and  C_53
                            x       y       z     vdW  Elec       q    Type
                         _______ _______ _______ _____ _____    ______ ____

>  <TORSDO>
F 21

$$$$
=
 OpenBabel11052412113D

 56 60  0  0  1  0  0  0  0  0999 V2000
  161.1710  204.5680  148.2540 C   0  0  1  0  0  3  0  0  0  0  0  0
  160.6910  204.5880  144.4610 C   0  0  2  0  0  3  0  0  0  0  0  0
  162.6130  206.4860  148.1230 O   0  0  0  0  0  0  0  0  0  0  0  0
  162.8520  206.3570  145.2930 C   0  0  0  0  0  2  0  0  0  0  0  0
  162.3630  205.2780  146.1360 N   0  0  0  0  0  0  0  0  0  0  0  0
  162.1190  205.4860  147.5350 C   0  0  0  0  0  0  0  0  0  0  0  0
  161.1490  203.2030  147.6290 C   0  0  0  0  0  3  0  0  0  0  0  0
  161.7030  206.8490  144.4060 C   0  0  0  0  0  2  0  0  0  0  0  0
  161.4010  202.9920  146.3310 C   0  0  0  0  0  0  0  0  0  0  0  0
  161.7950  204.1340  145.4320 C   0  0  1  0  0  3  0  0  0  0  0  0
  161.0430  205.7710  143.6440 N   0  0  0  0  0  0  0  0  0  0  0  0
  159.3810  204.6370  144.9950 O   0  0  0  0  0  0  0  0  0  0  0  0
  158.5210  203.8760  144.1940 C   0  0  0  0  0  2  0  0  0  0  0  0
  158.9470  202.4230  144.2350 C   0  0  0  0  0  1  0  0  0  0  0  0
  161.4780  204.4740  149.7460 C   0  0  0  0  0  2  0  0  0  0  0  0
  160.6190  205.4490  150.5370 C   0  0  1  0  0  3  0  0  0  0  0  0
  161.4780  206.5170  151.0990 C   0  0  1  0  0  3  0  0  0  0  0  0
  160.6940  206.7260  149.9490 O   0  0  0  0  0  0  0  0  0  0  0  0
  160.7980  207.1700  152.3000 C   0  0  2  0  0  3  0  0  0  0  0  0
  161.8420  209.2960  151.3990 C   0  0  0  0  0  3  0  0  0  0  0  0
  160.8990  211.4590  151.9390 C   0  0  0  0  0  3  0  0  0  0  0  0
  159.9090  210.8380  152.7110 C   0  0  0  0  0  3  0  0  0  0  0  0
  159.8870  209.4450  152.8280 C   0  0  0  0  0  3  0  0  0  0  0  0
  161.8650  210.6880  151.2840 C   0  0  0  0  0  3  0  0  0  0  0  0
  160.8530  208.6670  152.1740 C   0  0  0  0  0  0  0  0  0  0  0  0
  161.4990  205.2940  153.6340 O   0  0  0  0  0  1  0  0  0  0  0  0
  161.4200  206.6880  153.6190 C   0  0  2  0  0  3  0  0  0  0  0  0
  161.3850  207.8970  155.6820 O   0  0  0  0  0  1  0  0  0  0  0  0
  160.5910  207.1490  154.8100 C   0  0  0  0  0  2  0  0  0  0  0  0
  161.3480  201.7160  145.7450 O   0  0  0  0  0  0  0  0  0  0  0  0
  161.4360  199.3180  145.7710 C   0  0  0  0  0  2  0  0  0  0  0  0
  161.1610  200.4700  146.3720 C   0  0  0  0  0  0  0  0  0  0  0  0
  160.6880  200.4330  147.6850 O   0  0  0  0  0  0  0  0  0  0  0  0
  161.5650  200.4100  148.8060 C   0  0  0  0  0  2  0  0  0  0  0  0
  160.9120  201.0360  149.9960 C   0  0  0  0  0  0  0  0  0  0  0  0
  161.5730  201.2980  150.9890 O   0  0  0  0  0  0  0  0  0  0  0  0
  159.4480  201.3150  149.9870 C   0  0  0  0  0  1  0  0  0  0  0  0
  161.9250  205.3400  142.5670 C   0  0  0  0  0  2  0  0  0  0  0  0
  161.5160  206.0290  141.2750 C   0  0  0  0  0  2  0  0  0  0  0  0
  162.2700  207.3390  141.1090 C   0  0  0  0  0  2  0  0  0  0  0  0
  162.6770  207.5310  139.7200 N   0  0  0  0  0  0  0  0  0  0  0  0
  160.6870  208.7780  138.9110 C   0  0  0  0  0  2  0  0  0  0  0  0
  162.2940  209.9090  140.3950 C   0  0  2  0  0  3  0  0  0  0  0  0
  162.1790  208.8450  139.2880 C   0  0  1  0  0  3  0  0  0  0  0  0
  160.6340  211.6000  141.1840 C   0  0  0  0  0  3  0  0  0  0  0  0
  158.1810  211.6950  139.5280 C   0  0  0  0  0  1  0  0  0  0  0  0
  157.9530  209.5420  138.5750 O   0  0  0  0  0  0  0  0  0  0  0  0
  158.7120  210.3450  139.1760 C   0  0  0  0  0  0  0  0  0  0  0  0
  160.9710  210.5860  140.3830 C   0  0  0  0  0  0  0  0  0  0  0  0
  160.0640  209.9570  139.4840 N   0  0  0  0  0  0  0  0  0  0  0  0
  163.2980  210.8160  140.0520 O   0  0  0  0  0  1  0  0  0  0  0  0
  161.5710  212.1890  142.1860 C   0  0  0  0  0  2  0  0  0  0  0  0
  161.2300  213.6520  142.4160 C   0  0  0  0  0  2  0  0  0  0  0  0
  160.1720  214.0210  141.5820 O   0  0  0  0  0  1  0  0  0  0  0  0
  162.5950  206.3560  137.7030 O   0  0  0  0  0  1  0  0  0  0  0  0
  161.9870  206.4930  138.9560 C   0  0  0  0  0  2  0  0  0  0  0  0
  1 15  1  1  0  0  0
  2 12  1  1  0  0  0
  2 10  1  0  0  0  0
  4  5  1  0  0  0  0
  5  6  1  0  0  0  0
  6  3  2  0  0  0  0
  6  1  1  0  0  0  0
  7  1  1  0  0  0  0
  8  4  1  0  0  0  0
  9  7  2  0  0  0  0
 10  5  1  0  0  0  0
 10  9  1  1  0  0  0
 11  8  1  0  0  0  0
 11  2  1  0  0  0  0
 13 14  1  0  0  0  0
 13 12  1  0  0  0  0
 16 15  1  6  0  0  0
 16 17  1  0  0  0  0
 17 19  1  1  0  0  0
 18 16  1  0  0  0  0
 18 17  1  0  0  0  0
 19 27  1  1  0  0  0
 20 25  1  0  0  0  0
 21 22  2  0  0  0  0
 22 23  1  0  0  0  0
 24 20  2  0  0  0  0
 24 21  1  0  0  0  0
 25 19  1  0  0  0  0
 25 23  2  0  0  0  0
 27 26  1  6  0  0  0
 27 29  1  0  0  0  0
 29 28  1  0  0  0  0
 30  9  1  0  0  0  0
 30 32  1  0  0  0  0
 31 32  2  0  0  0  0
 32 33  1  0  0  0  0
 33 34  1  0  0  0  0
 34 35  1  0  0  0  0
 35 36  2  0  0  0  0
 37 35  1  0  0  0  0
 38 11  1  0  0  0  0
 39 38  1  0  0  0  0
 40 39  1  0  0  0  0
 41 40  1  0  0  0  0
 42 44  1  0  0  0  0
 42 50  1  0  0  0  0
 43 51  1  6  0  0  0
 44 41  1  1  0  0  0
 44 43  1  0  0  0  0
 45 52  1  0  0  0  0
 47 48  2  0  0  0  0
 48 50  1  0  0  0  0
 48 46  1  0  0  0  0
 49 43  1  0  0  0  0
 49 45  2  0  0  0  0
 50 49  1  0  0  0  0
 52 53  1  0  0  0  0
 54 53  1  0  0  0  0
 55 56  1  0  0  0  0
 56 41  1  0  0  0  0
M  END
>  <MODEL>
5

>  <REMARK>
 VINA RESULT:      -1.6      2.074      4.954
  Name = 
  21 active torsions:
  status: ('A' for Active; 'I' for Inactive)
    1  A    between atoms: C_1  and  C_14
    2  A    between atoms: C_1  and  C_35
    3  A    between atoms: C_3  and  O_43
    4  A    between atoms: C_4  and  C_36
    5  A    between atoms: C_5  and  O_43
    6  A    between atoms: O_7  and  C_25
    7  A    between atoms: O_7  and  C_47
    8  A    between atoms: C_11  and  C_30
    9  A    between atoms: C_11  and  C_34
   10  A    between atoms: C_11  and  C_55
   11  A    between atoms: C_12  and  N_42
   12  A    between atoms: C_14  and  N_51
   13  A    between atoms: C_17  and  C_36
   14  A    between atoms: C_18  and  C_21
   15  A    between atoms: C_21  and  O_22
   16  A    between atoms: O_22  and  C_25
   17  A    between atoms: C_23  and  C_53
   18  A    between atoms: C_27  and  N_42
   19  A    between atoms: C_34  and  C_44
   20  A    between atoms: C_35  and  N_42
   21  A    between atoms: C_37  and  C_53
                            x       y       z     vdW  Elec       q    Type
                         _______ _______ _______ _____ _____    ______ ____

>  <TORSDO>
F 21

$$$$
=
 OpenBabel11052412113D

 56 60  0  0  1  0  0  0  0  0999 V2000
  160.4540  205.0360  148.7320 C   0  0  1  0  0  3  0  0  0  0  0  0
  160.8610  204.4670  144.9730 C   0  0  2  0  0  3  0  0  0  0  0  0
  161.2290  207.3000  148.5140 O   0  0  0  0  0  0  0  0  0  0  0  0
  162.1290  206.9420  145.8420 C   0  0  0  0  0  2  0  0  0  0  0  0
  161.8170  205.8640  146.7650 N   0  0  0  0  0  0  0  0  0  0  0  0
  161.2110  206.1330  148.0380 C   0  0  0  0  0  0  0  0  0  0  0  0
  160.9930  203.6820  148.3690 C   0  0  0  0  0  3  0  0  0  0  0  0
  161.1160  206.9150  144.6920 C   0  0  0  0  0  2  0  0  0  0  0  0
  161.5840  203.4250  147.1950 C   0  0  0  0  0  0  0  0  0  0  0  0
  161.8020  204.5240  146.1900 C   0  0  1  0  0  3  0  0  0  0  0  0
  161.0090  205.6000  144.0310 N   0  0  0  0  0  0  0  0  0  0  0  0
  159.5140  204.1310  145.2490 O   0  0  0  0  0  0  0  0  0  0  0  0
  159.0710  203.1780  144.3250 C   0  0  0  0  0  2  0  0  0  0  0  0
  159.4700  201.7940  144.7950 C   0  0  0  0  0  1  0  0  0  0  0  0
  160.4290  205.2180  150.2470 C   0  0  0  0  0  2  0  0  0  0  0  0
  161.2790  206.4100  150.6620 C   0  0  1  0  0  3  0  0  0  0  0  0
  161.3900  206.4440  152.1390 C   0  0  1  0  0  3  0  0  0  0  0  0
  162.4330  205.9550  151.3290 O   0  0  0  0  0  0  0  0  0  0  0  0
  161.7380  207.8530  152.6130 C   0  0  2  0  0  3  0  0  0  0  0  0
  160.4770  207.0840  154.6730 C   0  0  0  0  0  3  0  0  0  0  0  0
  160.4000  208.4650  156.6600 C   0  0  0  0  0  3  0  0  0  0  0  0
  161.1760  209.4380  156.0170 C   0  0  0  0  0  3  0  0  0  0  0  0
  161.6010  209.2340  154.7010 C   0  0  0  0  0  3  0  0  0  0  0  0
  160.0510  207.2890  155.9880 C   0  0  0  0  0  3  0  0  0  0  0  0
  161.2540  208.0570  154.0220 C   0  0  0  0  0  0  0  0  0  0  0  0
  162.2050  209.5020  150.9250 O   0  0  0  0  0  1  0  0  0  0  0  0
  161.1730  208.9150  151.6580 C   0  0  2  0  0  3  0  0  0  0  0  0
  160.7500  211.2550  151.9090 O   0  0  0  0  0  1  0  0  0  0  0  0
  160.4340  209.9990  152.4290 C   0  0  0  0  0  2  0  0  0  0  0  0
  162.0590  202.1480  146.8490 O   0  0  0  0  0  0  0  0  0  0  0  0
  161.6140  199.7910  146.9290 C   0  0  0  0  0  2  0  0  0  0  0  0
  161.8980  200.9340  147.5420 C   0  0  0  0  0  0  0  0  0  0  0  0
  162.0650  200.9150  148.9290 O   0  0  0  0  0  0  0  0  0  0  0  0
  160.9610  200.8660  149.8240 C   0  0  0  0  0  2  0  0  0  0  0  0
  161.1710  201.8070  150.9680 C   0  0  0  0  0  0  0  0  0  0  0  0
  160.2100  202.2970  151.5410 O   0  0  0  0  0  0  0  0  0  0  0  0
  162.5510  202.1750  151.3910 C   0  0  0  0  0  1  0  0  0  0  0  0
  162.2000  205.3730  143.2230 C   0  0  0  0  0  2  0  0  0  0  0  0
  161.9430  205.8530  141.8040 C   0  0  0  0  0  2  0  0  0  0  0  0
  162.0280  207.3700  141.7310 C   0  0  0  0  0  2  0  0  0  0  0  0
  162.4330  207.8040  140.3970 N   0  0  0  0  0  0  0  0  0  0  0  0
  161.0210  209.6500  141.2720 C   0  0  0  0  0  2  0  0  0  0  0  0
  162.3610  210.0200  139.2390 C   0  0  2  0  0  3  0  0  0  0  0  0
  161.5850  208.9450  140.0240 C   0  0  1  0  0  3  0  0  0  0  0  0
  162.3930  212.5020  139.5080 C   0  0  0  0  0  3  0  0  0  0  0  0
  160.4230  213.4920  141.4850 C   0  0  0  0  0  1  0  0  0  0  0  0
  160.0780  211.7160  143.0080 O   0  0  0  0  0  0  0  0  0  0  0  0
  160.5410  212.0610  141.8900 C   0  0  0  0  0  0  0  0  0  0  0  0
  161.9630  211.2960  139.8870 C   0  0  0  0  0  0  0  0  0  0  0  0
  161.1460  211.0760  141.0310 N   0  0  0  0  0  0  0  0  0  0  0  0
  161.9380  210.0060  137.9090 O   0  0  0  0  0  1  0  0  0  0  0  0
  163.3230  212.7080  138.3580 C   0  0  0  0  0  2  0  0  0  0  0  0
  164.6700  213.1970  138.8630 C   0  0  0  0  0  2  0  0  0  0  0  0
  164.5010  213.8540  140.0840 O   0  0  0  0  0  1  0  0  0  0  0  0
  161.6180  207.1740  138.3000 O   0  0  0  0  0  1  0  0  0  0  0  0
  162.1320  206.6840  139.5060 C   0  0  0  0  0  2  0  0  0  0  0  0
  1 15  1  1  0  0  0
  2 12  1  1  0  0  0
  2 10  1  0  0  0  0
  4  5  1  0  0  0  0
  5  6  1  0  0  0  0
  6  3  2  0  0  0  0
  6  1  1  0  0  0  0
  7  1  1  0  0  0  0
  8  4  1  0  0  0  0
  9  7  2  0  0  0  0
 10  5  1  0  0  0  0
 10  9  1  1  0  0  0
 11  8  1  0  0  0  0
 11  2  1  0  0  0  0
 13 14  1  0  0  0  0
 13 12  1  0  0  0  0
 16 15  1  1  0  0  0
 16 18  1  0  0  0  0
 16 17  1  0  0  0  0
 17 19  1  6  0  0  0
 18 17  1  0  0  0  0
 19 27  1  6  0  0  0
 19 25  1  0  0  0  0
 20 24  1  0  0  0  0
 22 21  1  0  0  0  0
 23 22  2  0  0  0  0
 24 21  2  0  0  0  0
 25 20  2  0  0  0  0
 25 23  1  0  0  0  0
 27 26  1  1  0  0  0
 27 29  1  0  0  0  0
 28 29  1  0  0  0  0
 30  9  1  0  0  0  0
 30 32  1  0  0  0  0
 31 32  2  0  0  0  0
 32 33  1  0  0  0  0
 33 34  1  0  0  0  0
 34 35  1  0  0  0  0
 35 37  1  0  0  0  0
 35 36  2  0  0  0  0
 38 11  1  0  0  0  0
 39 38  1  0  0  0  0
 40 39  1  0  0  0  0
 41 40  1  0  0  0  0
 43 51  1  6  0  0  0
 43 49  1  0  0  0  0
 43 44  1  0  0  0  0
 44 41  1  1  0  0  0
 44 42  1  0  0  0  0
 45 49  2  0  0  0  0
 46 48  1  0  0  0  0
 48 47  2  0  0  0  0
 49 50  1  0  0  0  0
 50 42  1  0  0  0  0
 50 48  1  0  0  0  0
 52 53  1  0  0  0  0
 52 45  1  0  0  0  0
 53 54  1  0  0  0  0
 55 56  1  0  0  0  0
 56 41  1  0  0  0  0
M  END
>  <MODEL>
6

>  <REMARK>
 VINA RESULT:      -0.9      2.157      4.710
  Name = 
  21 active torsions:
  status: ('A' for Active; 'I' for Inactive)
    1  A    between atoms: C_1  and  C_14
    2  A    between atoms: C_1  and  C_35
    3  A    between atoms: C_3  and  O_43
    4  A    between atoms: C_4  and  C_36
    5  A    between atoms: C_5  and  O_43
    6  A    between atoms: O_7  and  C_25
    7  A    between atoms: O_7  and  C_47
    8  A    between atoms: C_11  and  C_30
    9  A    between atoms: C_11  and  C_34
   10  A    between atoms: C_11  and  C_55
   11  A    between atoms: C_12  and  N_42
   12  A    between atoms: C_14  and  N_51
   13  A    between atoms: C_17  and  C_36
   14  A    between atoms: C_18  and  C_21
   15  A    between atoms: C_21  and  O_22
   16  A    between atoms: O_22  and  C_25
   17  A    between atoms: C_23  and  C_53
   18  A    between atoms: C_27  and  N_42
   19  A    between atoms: C_34  and  C_44
   20  A    between atoms: C_35  and  N_42
   21  A    between atoms: C_37  and  C_53
                            x       y       z     vdW  Elec       q    Type
                         _______ _______ _______ _____ _____    ______ ____

>  <TORSDO>
F 21

$$$$
=
 OpenBabel11052412113D

 56 60  0  0  1  0  0  0  0  0999 V2000
  162.0170  209.8590  153.9790 C   0  0  1  0  0  3  0  0  0  0  0  0
  161.7610  206.5570  152.0690 C   0  0  2  0  0  3  0  0  0  0  0  0
  160.9740  208.8730  155.9050 O   0  0  0  0  0  0  0  0  0  0  0  0
  160.1800  206.5240  154.5160 C   0  0  0  0  0  2  0  0  0  0  0  0
  160.6030  207.7610  153.8820 N   0  0  0  0  0  0  0  0  0  0  0  0
  161.1450  208.8410  154.6570 C   0  0  0  0  0  0  0  0  0  0  0  0
  161.6570  210.0130  152.5290 C   0  0  0  0  0  3  0  0  0  0  0  0
  161.2120  205.4330  154.2080 C   0  0  0  0  0  2  0  0  0  0  0  0
  161.1260  209.0210  151.8020 C   0  0  0  0  0  0  0  0  0  0  0  0
  160.7950  207.6970  152.4380 C   0  0  1  0  0  3  0  0  0  0  0  0
  161.4940  205.2790  152.7670 N   0  0  0  0  0  0  0  0  0  0  0  0
  163.1330  206.9010  152.0210 O   0  0  0  0  0  0  0  0  0  0  0  0
  163.7890  206.0790  151.0960 C   0  0  0  0  0  2  0  0  0  0  0  0
  162.9300  205.9260  149.8580 C   0  0  0  0  0  1  0  0  0  0  0  0
  161.9890  211.2100  154.6880 C   0  0  0  0  0  2  0  0  0  0  0  0
  160.5570  211.6800  154.8990 C   0  0  1  0  0  3  0  0  0  0  0  0
  160.1130  212.4530  153.7160 C   0  0  1  0  0  3  0  0  0  0  0  0
  159.7260  211.1150  153.9140 O   0  0  0  0  0  0  0  0  0  0  0  0
  158.9540  213.3740  154.0880 C   0  0  2  0  0  3  0  0  0  0  0  0
  157.5290  212.6960  156.0700 C   0  0  0  0  0  3  0  0  0  0  0  0
  155.7290  211.0980  155.8070 C   0  0  0  0  0  3  0  0  0  0  0  0
  156.0310  210.9780  154.4450 C   0  0  0  0  0  3  0  0  0  0  0  0
  157.0840  211.7160  153.8960 C   0  0  0  0  0  3  0  0  0  0  0  0
  156.4780  211.9570  156.6190 C   0  0  0  0  0  3  0  0  0  0  0  0
  157.8380  212.5780  154.7050 C   0  0  0  0  0  0  0  0  0  0  0  0
  157.0840  214.3110  152.8980 O   0  0  0  0  0  1  0  0  0  0  0  0
  158.4730  214.1780  152.8700 C   0  0  2  0  0  3  0  0  0  0  0  0
  159.8590  214.2410  150.9220 O   0  0  0  0  0  1  0  0  0  0  0  0
  158.8780  213.4910  151.5730 C   0  0  0  0  0  2  0  0  0  0  0  0
  160.8200  209.1620  150.4380 O   0  0  0  0  0  0  0  0  0  0  0  0
  161.8980  208.2120  148.5150 C   0  0  0  0  0  2  0  0  0  0  0  0
  161.7010  209.2320  149.3420 C   0  0  0  0  0  0  0  0  0  0  0  0
  162.3820  210.4260  149.0940 O   0  0  0  0  0  0  0  0  0  0  0  0
  161.8380  211.6950  149.4370 C   0  0  0  0  0  2  0  0  0  0  0  0
  161.6390  212.5280  148.2110 C   0  0  0  0  0  0  0  0  0  0  0  0
  160.5460  212.5660  147.6680 O   0  0  0  0  0  0  0  0  0  0  0  0
  162.7800  213.2900  147.6300 C   0  0  0  0  0  1  0  0  0  0  0  0
  160.3570  204.6340  152.1250 C   0  0  0  0  0  2  0  0  0  0  0  0
  160.7080  203.1870  151.8170 C   0  0  0  0  0  2  0  0  0  0  0  0
  160.8720  202.9850  150.3180 C   0  0  0  0  0  2  0  0  0  0  0  0
  161.2040  201.5960  150.0150 N   0  0  0  0  0  0  0  0  0  0  0  0
  161.5790  200.1930  148.0000 C   0  0  0  0  0  2  0  0  0  0  0  0
  161.1650  202.6050  147.7260 C   0  0  2  0  0  3  0  0  0  0  0  0
  161.7950  201.5630  148.6690 C   0  0  1  0  0  3  0  0  0  0  0  0
  160.3700  202.3730  145.3700 C   0  0  0  0  0  3  0  0  0  0  0  0
  160.9960  199.7360  144.1770 C   0  0  0  0  0  1  0  0  0  0  0  0
  161.1290  198.2160  145.9850 O   0  0  0  0  0  0  0  0  0  0  0  0
  161.1020  199.4240  145.6330 C   0  0  0  0  0  0  0  0  0  0  0  0
  160.9040  201.8470  146.4760 C   0  0  0  0  0  0  0  0  0  0  0  0
  161.1950  200.4620  146.6270 N   0  0  0  0  0  0  0  0  0  0  0  0
  162.0920  203.6200  147.4850 O   0  0  0  0  0  1  0  0  0  0  0  0
  159.9870  203.8110  145.2600 C   0  0  0  0  0  2  0  0  0  0  0  0
  160.8610  204.5020  144.2260 C   0  0  0  0  0  2  0  0  0  0  0  0
  160.8170  205.8840  144.4260 O   0  0  0  0  0  1  0  0  0  0  0  0
  158.9410  201.7110  149.4470 O   0  0  0  0  0  1  0  0  0  0  0  0
  159.9300  200.8800  149.9850 C   0  0  0  0  0  2  0  0  0  0  0  0
  1  6  1  0  0  0  0
  1 15  1  1  0  0  0
  2 12  1  1  0  0  0
  2 10  1  0  0  0  0
  2 11  1  0  0  0  0
  5  4  1  0  0  0  0
  5  6  1  0  0  0  0
  6  3  2  0  0  0  0
  7  1  1  0  0  0  0
  8  4  1  0  0  0  0
  9  7  2  0  0  0  0
 10  9  1  1  0  0  0
 10  5  1  0  0  0  0
 11  8  1  0  0  0  0
 13 12  1  0  0  0  0
 14 13  1  0  0  0  0
 16 15  1  6  0  0  0
 17 18  1  0  0  0  0
 17 19  1  1  0  0  0
 17 16  1  0  0  0  0
 18 16  1  0  0  0  0
 19 27  1  6  0  0  0
 19 25  1  0  0  0  0
 20 24  1  0  0  0  0
 21 24  2  0  0  0  0
 22 21  1  0  0  0  0
 23 22  2  0  0  0  0
 23 25  1  0  0  0  0
 25 20  2  0  0  0  0
 27 26  1  1  0  0  0
 28 29  1  0  0  0  0
 29 27  1  0  0  0  0
 30  9  1  0  0  0  0
 31 32  2  0  0  0  0
 32 30  1  0  0  0  0
 33 32  1  0  0  0  0
 33 34  1  0  0  0  0
 35 34  1  0  0  0  0
 36 35  2  0  0  0  0
 37 35  1  0  0  0  0
 38 11  1  0  0  0  0
 39 38  1  0  0  0  0
 40 39  1  0  0  0  0
 41 40  1  0  0  0  0
 42 44  1  0  0  0  0
 43 51  1  6  0  0  0
 43 44  1  0  0  0  0
 44 41  1  1  0  0  0
 45 49  2  0  0  0  0
 46 48  1  0  0  0  0
 48 47  2  0  0  0  0
 48 50  1  0  0  0  0
 49 50  1  0  0  0  0
 49 43  1  0  0  0  0
 50 42  1  0  0  0  0
 52 45  1  0  0  0  0
 53 54  1  0  0  0  0
 53 52  1  0  0  0  0
 55 56  1  0  0  0  0
 56 41  1  0  0  0  0
M  END
>  <MODEL>
7

>  <REMARK>
 VINA RESULT:      -0.8      4.334      7.925
  Name = 
  21 active torsions:
  status: ('A' for Active; 'I' for Inactive)
    1  A    between atoms: C_1  and  C_14
    2  A    between atoms: C_1  and  C_35
    3  A    between atoms: C_3  and  O_43
    4  A    between atoms: C_4  and  C_36
    5  A    between atoms: C_5  and  O_43
    6  A    between atoms: O_7  and  C_25
    7  A    between atoms: O_7  and  C_47
    8  A    between atoms: C_11  and  C_30
    9  A    between atoms: C_11  and  C_34
   10  A    between atoms: C_11  and  C_55
   11  A    between atoms: C_12  and  N_42
   12  A    between atoms: C_14  and  N_51
   13  A    between atoms: C_17  and  C_36
   14  A    between atoms: C_18  and  C_21
   15  A    between atoms: C_21  and  O_22
   16  A    between atoms: O_22  and  C_25
   17  A    between atoms: C_23  and  C_53
   18  A    between atoms: C_27  and  N_42
   19  A    between atoms: C_34  and  C_44
   20  A    between atoms: C_35  and  N_42
   21  A    between atoms: C_37  and  C_53
                            x       y       z     vdW  Elec       q    Type
                         _______ _______ _______ _____ _____    ______ ____

>  <TORSDO>
F 21

$$$$
=
 OpenBabel11052412113D

 56 60  0  0  1  0  0  0  0  0999 V2000
  159.8510  212.1480  152.2960 C   0  0  1  0  0  3  0  0  0  0  0  0
  161.5210  208.8970  151.1720 C   0  0  2  0  0  3  0  0  0  0  0  0
  159.8490  212.9750  150.0410 O   0  0  0  0  0  0  0  0  0  0  0  0
  161.5680  210.9240  149.0800 C   0  0  0  0  0  2  0  0  0  0  0  0
  161.3760  211.2590  150.4810 N   0  0  0  0  0  0  0  0  0  0  0  0
  160.3660  212.1950  150.8850 C   0  0  0  0  0  0  0  0  0  0  0  0
  160.8940  211.6310  153.2450 C   0  0  0  0  0  3  0  0  0  0  0  0
  161.0120  209.5180  148.8280 C   0  0  0  0  0  2  0  0  0  0  0  0
  161.8580  210.7790  152.8740 C   0  0  0  0  0  0  0  0  0  0  0  0
  161.9830  210.3410  151.4380 C   0  0  1  0  0  3  0  0  0  0  0  0
  161.5530  208.4980  149.7470 N   0  0  0  0  0  0  0  0  0  0  0  0
  160.3480  208.4890  151.8500 O   0  0  0  0  0  0  0  0  0  0  0  0
  160.5230  207.1940  152.3510 C   0  0  0  0  0  2  0  0  0  0  0  0
  161.9950  206.9510  152.6180 C   0  0  0  0  0  1  0  0  0  0  0  0
  159.3170  213.4990  152.7640 C   0  0  0  0  0  2  0  0  0  0  0  0
  158.7290  213.3930  154.1630 C   0  0  1  0  0  3  0  0  0  0  0  0
  158.2620  212.0070  154.3970 C   0  0  1  0  0  3  0  0  0  0  0  0
  159.4810  212.4770  154.9220 O   0  0  0  0  0  0  0  0  0  0  0  0
  157.2120  211.9800  155.5050 C   0  0  2  0  0  3  0  0  0  0  0  0
  155.3680  213.6210  156.0790 C   0  0  0  0  0  3  0  0  0  0  0  0
  153.8690  214.4410  154.3640 C   0  0  0  0  0  3  0  0  0  0  0  0
  154.5320  213.6630  153.4080 C   0  0  0  0  0  3  0  0  0  0  0  0
  155.6130  212.8620  153.7880 C   0  0  0  0  0  3  0  0  0  0  0  0
  154.2860  214.4200  155.6990 C   0  0  0  0  0  3  0  0  0  0  0  0
  156.0360  212.8360  155.1240 C   0  0  0  0  0  0  0  0  0  0  0  0
  158.2740  213.7260  156.7750 O   0  0  0  0  0  1  0  0  0  0  0  0
  157.8150  212.4100  156.8510 C   0  0  2  0  0  3  0  0  0  0  0  0
  158.5770  210.1660  157.1750 O   0  0  0  0  0  1  0  0  0  0  0  0
  158.9740  211.5030  157.2390 C   0  0  0  0  0  2  0  0  0  0  0  0
  162.8130  210.2750  153.7730 O   0  0  0  0  0  0  0  0  0  0  0  0
  163.0970  210.8630  156.0830 C   0  0  0  0  0  2  0  0  0  0  0  0
  162.6730  210.0180  155.1500 C   0  0  0  0  0  0  0  0  0  0  0  0
  162.0430  208.8420  155.5610 O   0  0  0  0  0  0  0  0  0  0  0  0
  160.6480  208.7850  155.8360 C   0  0  0  0  0  2  0  0  0  0  0  0
  160.1950  207.3650  155.9590 C   0  0  0  0  0  0  0  0  0  0  0  0
  159.6890  206.7990  155.0030 O   0  0  0  0  0  0  0  0  0  0  0  0
  160.3320  206.6450  157.2570 C   0  0  0  0  0  1  0  0  0  0  0  0
  162.9340  208.2100  149.3820 C   0  0  0  0  0  2  0  0  0  0  0  0
  163.0110  207.9290  147.8890 C   0  0  0  0  0  2  0  0  0  0  0  0
  162.9480  206.4330  147.6250 C   0  0  0  0  0  2  0  0  0  0  0  0
  161.8870  206.1180  146.6730 N   0  0  0  0  0  0  0  0  0  0  0  0
  161.1730  203.7430  146.7930 C   0  0  0  0  0  2  0  0  0  0  0  0
  161.1880  205.1000  148.8480 C   0  0  2  0  0  3  0  0  0  0  0  0
  160.9690  205.1740  147.3260 C   0  0  1  0  0  3  0  0  0  0  0  0
  161.3520  203.1170  150.3580 C   0  0  0  0  0  3  0  0  0  0  0  0
  160.7730  200.5540  148.9930 C   0  0  0  0  0  1  0  0  0  0  0  0
  161.3200  200.8890  146.7160 O   0  0  0  0  0  0  0  0  0  0  0  0
  161.0990  201.4310  147.8300 C   0  0  0  0  0  0  0  0  0  0  0  0
  161.2020  203.6430  149.1390 C   0  0  0  0  0  0  0  0  0  0  0  0
  161.1410  202.8660  147.9490 N   0  0  0  0  0  0  0  0  0  0  0  0
  160.1080  205.7060  149.4930 O   0  0  0  0  0  1  0  0  0  0  0  0
  161.5050  203.9500  151.5870 C   0  0  0  0  0  2  0  0  0  0  0  0
  160.4150  203.6040  152.5870 C   0  0  0  0  0  2  0  0  0  0  0  0
  160.8050  204.0130  153.8640 O   0  0  0  0  0  1  0  0  0  0  0  0
  161.8950  205.7780  144.3620 O   0  0  0  0  0  1  0  0  0  0  0  0
  162.5420  205.4410  145.5560 C   0  0  0  0  0  2  0  0  0  0  0  0
  1 15  1  1  0  0  0
  1  7  1  0  0  0  0
  2 10  1  0  0  0  0
  2 12  1  6  0  0  0
  3  6  2  0  0  0  0
  4  5  1  0  0  0  0
  5  6  1  0  0  0  0
  5 10  1  0  0  0  0
  6  1  1  0  0  0  0
  8  4  1  0  0  0  0
  8 11  1  0  0  0  0
  9  7  2  0  0  0  0
  9 30  1  0  0  0  0
 10  9  1  1  0  0  0
 11  2  1  0  0  0  0
 12 13  1  0  0  0  0
 13 14  1  0  0  0  0
 16 15  1  6  0  0  0
 16 17  1  0  0  0  0
 16 18  1  0  0  0  0
 17 18  1  0  0  0  0
 17 19  1  1  0  0  0
 19 27  1  1  0  0  0
 21 24  2  0  0  0  0
 22 23  2  0  0  0  0
 22 21  1  0  0  0  0
 23 25  1  0  0  0  0
 24 20  1  0  0  0  0
 25 19  1  0  0  0  0
 25 20  2  0  0  0  0
 27 26  1  6  0  0  0
 27 29  1  0  0  0  0
 28 29  1  0  0  0  0
 30 32  1  0  0  0  0
 32 33  1  0  0  0  0
 32 31  2  0  0  0  0
 33 34  1  0  0  0  0
 34 35  1  0  0  0  0
 35 37  1  0  0  0  0
 36 35  2  0  0  0  0
 38 11  1  0  0  0  0
 39 38  1  0  0  0  0
 40 39  1  0  0  0  0
 41 40  1  0  0  0  0
 42 44  1  0  0  0  0
 42 50  1  0  0  0  0
 43 49  1  0  0  0  0
 43 51  1  1  0  0  0
 44 41  1  6  0  0  0
 44 43  1  0  0  0  0
 45 52  1  0  0  0  0
 47 48  2  0  0  0  0
 48 50  1  0  0  0  0
 48 46  1  0  0  0  0
 49 45  2  0  0  0  0
 50 49  1  0  0  0  0
 52 53  1  0  0  0  0
 53 54  1  0  0  0  0
 55 56  1  0  0  0  0
 56 41  1  0  0  0  0
M  END
>  <MODEL>
8

>  <REMARK>
 VINA RESULT:      -0.3      4.314      8.803
  Name = 
  21 active torsions:
  status: ('A' for Active; 'I' for Inactive)
    1  A    between atoms: C_1  and  C_14
    2  A    between atoms: C_1  and  C_35
    3  A    between atoms: C_3  and  O_43
    4  A    between atoms: C_4  and  C_36
    5  A    between atoms: C_5  and  O_43
    6  A    between atoms: O_7  and  C_25
    7  A    between atoms: O_7  and  C_47
    8  A    between atoms: C_11  and  C_30
    9  A    between atoms: C_11  and  C_34
   10  A    between atoms: C_11  and  C_55
   11  A    between atoms: C_12  and  N_42
   12  A    between atoms: C_14  and  N_51
   13  A    between atoms: C_17  and  C_36
   14  A    between atoms: C_18  and  C_21
   15  A    between atoms: C_21  and  O_22
   16  A    between atoms: O_22  and  C_25
   17  A    between atoms: C_23  and  C_53
   18  A    between atoms: C_27  and  N_42
   19  A    between atoms: C_34  and  C_44
   20  A    between atoms: C_35  and  N_42
   21  A    between atoms: C_37  and  C_53
                            x       y       z     vdW  Elec       q    Type
                         _______ _______ _______ _____ _____    ______ ____

>  <TORSDO>
F 21

$$$$
