=
 OpenBabel11042421333D

 45 47  0  0  1  0  0  0  0  0999 V2000
  161.8020  206.5180  148.2060 C   0  0  0  0  0  0  0  0  0  0  0  0
  160.3880  206.5810  148.7470 C   0  0  0  0  0  2  0  0  0  0  0  0
  162.8080  207.0700  148.9030 C   0  0  0  0  0  3  0  0  0  0  0  0
  162.5620  207.7470  150.2310 C   0  0  2  0  0  3  0  0  0  0  0  0
  160.3740  206.5890  150.2500 C   0  0  0  0  0  3  0  0  0  0  0  0
  161.3660  207.1580  150.9450 C   0  0  0  0  0  0  0  0  0  0  0  0
  161.8820  205.9500  153.0520 C   0  0  0  0  0  1  0  0  0  0  0  0
  160.7750  208.1550  154.3970 O   0  0  0  0  0  0  0  0  0  0  0  0
  160.7570  208.1920  153.1380 C   0  0  0  0  0  0  0  0  0  0  0  0
  161.3390  207.1210  152.3760 N   0  0  0  0  0  0  0  0  0  0  0  0
  160.0950  209.3480  152.4500 C   0  0  0  0  0  2  0  0  0  0  0  0
  158.9900  211.4770  153.2060 N   0  0  0  0  0  2  0  0  0  0  0  0
  160.0840  210.5670  153.3110 C   0  0  0  0  0  0  0  0  0  0  0  0
  161.0390  210.7950  154.0990 O   0  0  0  0  0  0  0  0  0  0  0  0
  158.8710  212.6510  154.0560 C   0  0  0  0  0  2  0  0  0  0  0  0
  156.8760  211.3750  154.8830 C   0  0  0  0  0  3  0  0  0  0  0  0
  156.4380  213.2740  156.8890 C   0  0  0  0  0  3  0  0  0  0  0  0
  154.8840  210.0590  155.6310 C   0  0  0  0  0  1  0  0  0  0  0  0
  155.7970  211.2310  155.7600 C   0  0  0  0  0  0  0  0  0  0  0  0
  157.5140  213.4220  156.0090 C   0  0  0  0  0  3  0  0  0  0  0  0
  157.7360  212.4710  155.0040 C   0  0  0  0  0  0  0  0  0  0  0  0
  155.5770  212.1790  156.7640 C   0  0  0  0  0  3  0  0  0  0  0  0
  162.4650  209.2360  150.0910 C   0  0  0  0  0  0  0  0  0  0  0  0
  162.9190  210.2900  151.4780 S   0  0  0  0  0  1  0  0  0  0  0  0
  162.1110  209.7150  148.8880 C   0  0  0  0  0  3  0  0  0  0  0  0
  161.9140  211.0950  148.5450 N   0  0  0  0  0  0  0  0  0  0  0  0
  160.9930  211.5310  147.7470 C   0  0  0  0  0  3  0  0  0  0  0  0
  160.8560  212.9280  147.4650 N   0  0  0  0  0  0  0  0  0  0  0  0
  157.9130  214.2850  144.7130 C   0  0  0  0  0  3  0  0  0  0  0  0
  160.2400  213.9940  145.3180 C   0  0  0  0  0  3  0  0  0  0  0  0
  159.8640  213.3900  146.5290 C   0  0  0  0  0  0  0  0  0  0  0  0
  158.4970  213.2450  146.8190 C   0  0  0  0  0  3  0  0  0  0  0  0
  157.5270  213.6900  145.9160 C   0  0  0  0  0  3  0  0  0  0  0  0
  159.2710  214.4390  144.4150 C   0  0  0  0  0  3  0  0  0  0  0  0
  161.0450  214.2060  149.2670 O   0  0  0  0  0  1  0  0  0  0  0  0
  161.6820  213.8520  148.1270 N   0  0  0  0  0  2  0  0  0  0  0  0
  162.1140  205.8670  146.8940 C   0  0  0  0  0  2  0  0  0  0  0  0
  162.4310  204.4550  147.0590 N   0  0  0  0  0  2  0  0  0  0  0  0
  161.2380  203.7410  146.8570 N   0  0  0  0  0  0  0  0  0  0  0  0
  160.5100  201.8920  145.4110 C   0  0  0  0  0  1  0  0  0  0  0  0
  161.1830  203.2560  145.4720 C   0  0  0  0  0  3  0  0  0  0  0  0
  160.4930  204.2270  144.5120 C   0  0  0  0  0  1  0  0  0  0  0  0
  161.2540  202.5900  147.7520 C   0  0  0  0  0  2  0  0  0  0  0  0
  160.8380  201.8530  150.0360 N   0  0  0  0  0  1  0  0  0  0  0  0
  160.8400  203.0100  149.1540 C   0  0  0  0  0  2  0  0  0  0  0  0
  1  2  1  0  0  0  0
  1  3  2  0  0  0  0
  2  5  1  0  0  0  0
  3  4  1  0  0  0  0
  4 23  1  6  0  0  0
  4  6  1  0  0  0  0
  5  6  2  0  0  0  0
  6 10  1  0  0  0  0
  9  8  2  0  0  0  0
 10  7  1  0  0  0  0
 10  9  1  0  0  0  0
 11  9  1  0  0  0  0
 11 13  1  0  0  0  0
 12 13  1  0  0  0  0
 12 15  1  0  0  0  0
 13 14  2  0  0  0  0
 15 21  1  0  0  0  0
 16 21  2  0  0  0  0
 16 19  1  0  0  0  0
 18 19  1  0  0  0  0
 19 22  2  0  0  0  0
 20 17  2  0  0  0  0
 21 20  1  0  0  0  0
 22 17  1  0  0  0  0
 23 24  1  0  0  0  0
 25 23  2  0  0  0  0
 26 25  1  0  0  0  0
 27 26  2  0  0  0  0
 28 27  1  0  0  0  0
 28 36  1  0  0  0  0
 29 33  1  0  0  0  0
 30 31  2  0  0  0  0
 31 32  1  0  0  0  0
 31 28  1  0  0  0  0
 33 32  2  0  0  0  0
 34 29  2  0  0  0  0
 34 30  1  0  0  0  0
 36 35  1  0  0  0  0
 37 38  1  0  0  0  0
 37  1  1  0  0  0  0
 39 38  1  0  0  0  0
 39 43  1  0  0  0  0
 40 41  1  0  0  0  0
 41 39  1  0  0  0  0
 42 41  1  0  0  0  0
 43 45  1  0  0  0  0
 45 44  1  0  0  0  0
M  END
>  <MODEL>
1

>  <REMARK>
 VINA RESULT:      -6.4      0.000      0.000
  Name = 
  15 active torsions:
  status: ('A' for Active; 'I' for Inactive)
    1  A    between atoms: C_1  and  C_8
    2  A    between atoms: N_3  and  C_21
    3  A    between atoms: C_6  and  C_40
    4  A    between atoms: C_8  and  N_33
    5  A    between atoms: N_11  and  C_35
    6  A    between atoms: N_14  and  N_32
    7  A    between atoms: C_17  and  N_32
    8  A    between atoms: N_19  and  C_30
    9  A    between atoms: N_19  and  N_33
   10  A    between atoms: N_19  and  C_37
   11  A    between atoms: C_21  and  C_42
   12  A    between atoms: C_23  and  C_39
   13  A    between atoms: C_26  and  C_37
   14  A    between atoms: C_28  and  C_39
   15  A    between atoms: N_31  and  C_43
                            x       y       z     vdW  Elec       q    Type
                         _______ _______ _______ _____ _____    ______ ____

>  <TORSDO>
F 15

$$$$
=
 OpenBabel11042421333D

 45 47  0  0  1  0  0  0  0  0999 V2000
  161.8730  207.7610  151.2320 C   0  0  0  0  0  0  0  0  0  0  0  0
  160.6290  207.6460  152.0890 C   0  0  0  0  0  2  0  0  0  0  0  0
  162.5960  208.8930  151.2530 C   0  0  0  0  0  3  0  0  0  0  0  0
  162.2020  210.0580  152.1300 C   0  0  2  0  0  3  0  0  0  0  0  0
  160.7500  208.4630  153.3450 C   0  0  0  0  0  3  0  0  0  0  0  0
  161.4520  209.6010  153.3620 C   0  0  0  0  0  0  0  0  0  0  0  0
  162.9060  210.6920  155.0530 C   0  0  0  0  0  1  0  0  0  0  0  0
  160.5430  211.3780  156.4080 O   0  0  0  0  0  0  0  0  0  0  0  0
  160.4150  210.6980  155.3550 C   0  0  0  0  0  0  0  0  0  0  0  0
  161.5740  210.3390  154.5830 N   0  0  0  0  0  0  0  0  0  0  0  0
  159.0480  210.2440  154.9380 C   0  0  0  0  0  2  0  0  0  0  0  0
  158.3080  212.6360  155.1740 N   0  0  0  0  0  2  0  0  0  0  0  0
  158.0030  211.2480  155.2940 C   0  0  0  0  0  0  0  0  0  0  0  0
  156.8780  210.8700  155.7150 O   0  0  0  0  0  0  0  0  0  0  0  0
  157.3250  213.6750  155.4360 C   0  0  0  0  0  2  0  0  0  0  0  0
  157.1490  214.0530  152.9620 C   0  0  0  0  0  3  0  0  0  0  0  0
  154.3720  214.3240  153.1590 C   0  0  0  0  0  3  0  0  0  0  0  0
  157.0580  214.4490  150.4940 C   0  0  0  0  0  1  0  0  0  0  0  0
  156.3880  214.3180  151.8190 C   0  0  0  0  0  0  0  0  0  0  0  0
  155.1320  214.0640  154.3030 C   0  0  0  0  0  3  0  0  0  0  0  0
  156.5220  213.9270  154.2070 C   0  0  0  0  0  0  0  0  0  0  0  0
  154.9990  214.4530  151.9160 C   0  0  0  0  0  3  0  0  0  0  0  0
  161.4510  211.1060  151.3640 C   0  0  0  0  0  0  0  0  0  0  0  0
  160.1470  212.0400  152.1810 S   0  0  0  0  0  1  0  0  0  0  0  0
  161.8540  211.3500  150.1070 C   0  0  0  0  0  3  0  0  0  0  0  0
  161.2550  212.2720  149.1840 N   0  0  0  0  0  0  0  0  0  0  0  0
  161.5570  212.3580  147.9290 C   0  0  0  0  0  3  0  0  0  0  0  0
  160.9040  213.3000  147.0710 N   0  0  0  0  0  0  0  0  0  0  0  0
  162.0710  213.6610  142.9980 C   0  0  0  0  0  3  0  0  0  0  0  0
  160.3410  213.6960  144.6940 C   0  0  0  0  0  3  0  0  0  0  0  0
  161.2930  213.4220  145.6900 C   0  0  0  0  0  0  0  0  0  0  0  0
  162.6380  213.2650  145.3170 C   0  0  0  0  0  3  0  0  0  0  0  0
  163.0250  213.3840  143.9790 C   0  0  0  0  0  3  0  0  0  0  0  0
  160.7270  213.8150  143.3550 C   0  0  0  0  0  3  0  0  0  0  0  0
  158.7550  213.3060  147.6200 O   0  0  0  0  0  1  0  0  0  0  0  0
  159.8590  214.0890  147.5790 N   0  0  0  0  0  2  0  0  0  0  0  0
  162.3180  206.6460  150.3370 C   0  0  0  0  0  2  0  0  0  0  0  0
  161.2510  206.2190  149.4430 N   0  0  0  0  0  2  0  0  0  0  0  0
  161.6740  205.0200  148.8440 N   0  0  0  0  0  0  0  0  0  0  0  0
  161.0300  202.6950  148.3730 C   0  0  0  0  0  1  0  0  0  0  0  0
  160.7500  203.9370  149.2080 C   0  0  0  0  0  3  0  0  0  0  0  0
  160.7780  203.5870  150.6970 C   0  0  0  0  0  1  0  0  0  0  0  0
  161.6240  205.2060  147.3980 C   0  0  0  0  0  2  0  0  0  0  0  0
  160.4240  206.3250  145.5990 N   0  0  0  0  0  1  0  0  0  0  0  0
  160.5950  206.2670  147.0420 C   0  0  0  0  0  2  0  0  0  0  0  0
  1  3  2  0  0  0  0
  1  2  1  0  0  0  0
  2  5  1  0  0  0  0
  3  4  1  0  0  0  0
  4 23  1  6  0  0  0
  4  6  1  0  0  0  0
  5  6  2  0  0  0  0
  6 10  1  0  0  0  0
  9  8  2  0  0  0  0
 10  7  1  0  0  0  0
 10  9  1  0  0  0  0
 11 13  1  0  0  0  0
 11  9  1  0  0  0  0
 12 13  1  0  0  0  0
 12 15  1  0  0  0  0
 13 14  2  0  0  0  0
 16 21  1  0  0  0  0
 17 20  1  0  0  0  0
 18 19  1  0  0  0  0
 19 22  1  0  0  0  0
 19 16  2  0  0  0  0
 21 20  2  0  0  0  0
 21 15  1  0  0  0  0
 22 17  2  0  0  0  0
 23 24  1  0  0  0  0
 25 23  2  0  0  0  0
 26 25  1  0  0  0  0
 27 26  2  0  0  0  0
 28 36  1  0  0  0  0
 28 27  1  0  0  0  0
 29 34  2  0  0  0  0
 29 33  1  0  0  0  0
 30 31  2  0  0  0  0
 31 28  1  0  0  0  0
 32 31  1  0  0  0  0
 33 32  2  0  0  0  0
 34 30  1  0  0  0  0
 36 35  1  0  0  0  0
 37  1  1  0  0  0  0
 38 37  1  0  0  0  0
 39 41  1  0  0  0  0
 39 38  1  0  0  0  0
 40 41  1  0  0  0  0
 41 42  1  0  0  0  0
 43 39  1  0  0  0  0
 44 45  1  0  0  0  0
 45 43  1  0  0  0  0
M  END
>  <MODEL>
2

>  <REMARK>
 VINA RESULT:      -6.4      2.407      3.660
  Name = 
  15 active torsions:
  status: ('A' for Active; 'I' for Inactive)
    1  A    between atoms: C_1  and  C_8
    2  A    between atoms: N_3  and  C_21
    3  A    between atoms: C_6  and  C_40
    4  A    between atoms: C_8  and  N_33
    5  A    between atoms: N_11  and  C_35
    6  A    between atoms: N_14  and  N_32
    7  A    between atoms: C_17  and  N_32
    8  A    between atoms: N_19  and  C_30
    9  A    between atoms: N_19  and  N_33
   10  A    between atoms: N_19  and  C_37
   11  A    between atoms: C_21  and  C_42
   12  A    between atoms: C_23  and  C_39
   13  A    between atoms: C_26  and  C_37
   14  A    between atoms: C_28  and  C_39
   15  A    between atoms: N_31  and  C_43
                            x       y       z     vdW  Elec       q    Type
                         _______ _______ _______ _____ _____    ______ ____

>  <TORSDO>
F 15

$$$$
=
 OpenBabel11042421333D

 45 47  0  0  1  0  0  0  0  0999 V2000
  159.3620  210.9870  154.4850 C   0  0  0  0  0  0  0  0  0  0  0  0
  158.6970  211.0850  153.1270 C   0  0  0  0  0  2  0  0  0  0  0  0
  160.5500  210.3710  154.6040 C   0  0  0  0  0  3  0  0  0  0  0  0
  161.2500  209.7810  153.4030 C   0  0  2  0  0  3  0  0  0  0  0  0
  159.7130  211.1430  152.0210 C   0  0  0  0  0  3  0  0  0  0  0  0
  160.8890  210.5130  152.1300 C   0  0  0  0  0  0  0  0  0  0  0  0
  163.0800  209.8480  151.1730 C   0  0  0  0  0  1  0  0  0  0  0  0
  162.4650  211.5320  149.0090 O   0  0  0  0  0  0  0  0  0  0  0  0
  161.6240  211.4830  149.9460 C   0  0  0  0  0  0  0  0  0  0  0  0
  161.8470  210.6160  151.0710 N   0  0  0  0  0  0  0  0  0  0  0  0
  160.4100  212.3610  149.8860 C   0  0  0  0  0  2  0  0  0  0  0  0
  159.4240  213.4460  147.8420 N   0  0  0  0  0  2  0  0  0  0  0  0
  160.5010  213.3500  148.7720 C   0  0  0  0  0  0  0  0  0  0  0  0
  161.5280  214.0690  148.6450 O   0  0  0  0  0  0  0  0  0  0  0  0
  159.4050  214.4280  146.7710 C   0  0  0  0  0  2  0  0  0  0  0  0
  160.9980  214.3990  144.8320 C   0  0  0  0  0  3  0  0  0  0  0  0
  159.7920  212.0870  143.8210 C   0  0  0  0  0  3  0  0  0  0  0  0
  162.6040  214.4530  142.9160 C   0  0  0  0  0  1  0  0  0  0  0  0
  161.4610  213.8300  143.6420 C   0  0  0  0  0  0  0  0  0  0  0  0
  159.3240  212.6570  145.0090 C   0  0  0  0  0  3  0  0  0  0  0  0
  159.9270  213.8140  145.5170 C   0  0  0  0  0  0  0  0  0  0  0  0
  160.8600  212.6740  143.1360 C   0  0  0  0  0  3  0  0  0  0  0  0
  161.0240  208.3040  153.2930 C   0  0  0  0  0  0  0  0  0  0  0  0
  160.7720  207.3300  154.7860 S   0  0  0  0  0  1  0  0  0  0  0  0
  160.9410  207.7880  152.0560 C   0  0  0  0  0  3  0  0  0  0  0  0
  160.7740  206.4020  151.7210 N   0  0  0  0  0  0  0  0  0  0  0  0
  161.0030  205.8950  150.5520 C   0  0  0  0  0  3  0  0  0  0  0  0
  160.8220  204.4970  150.3010 N   0  0  0  0  0  0  0  0  0  0  0  0
  161.4180  202.8930  146.4090 C   0  0  0  0  0  3  0  0  0  0  0  0
  161.4560  204.7810  147.9260 C   0  0  0  0  0  3  0  0  0  0  0  0
  161.0240  203.9590  148.9810 C   0  0  0  0  0  0  0  0  0  0  0  0
  160.7890  202.5980  148.7270 C   0  0  0  0  0  3  0  0  0  0  0  0
  160.9840  202.0680  147.4480 C   0  0  0  0  0  3  0  0  0  0  0  0
  161.6520  204.2510  146.6470 C   0  0  0  0  0  3  0  0  0  0  0  0
  161.6180  203.2770  151.9740 O   0  0  0  0  0  1  0  0  0  0  0  0
  160.4690  203.6440  151.3600 N   0  0  0  0  0  2  0  0  0  0  0  0
  158.7200  211.5470  155.7170 C   0  0  0  0  0  2  0  0  0  0  0  0
  158.2960  212.9250  155.5210 N   0  0  0  0  0  2  0  0  0  0  0  0
  156.9590  213.0070  155.9470 N   0  0  0  0  0  0  0  0  0  0  0  0
  155.0090  214.4280  155.4780 C   0  0  0  0  0  1  0  0  0  0  0  0
  156.1390  213.6000  154.8820 C   0  0  0  0  0  3  0  0  0  0  0  0
  156.9440  214.4450  153.8920 C   0  0  0  0  0  1  0  0  0  0  0  0
  156.4890  211.6480  156.1920 C   0  0  0  0  0  2  0  0  0  0  0  0
  154.8740  209.9870  155.4430 N   0  0  0  0  0  1  0  0  0  0  0  0
  155.5880  211.1930  155.0550 C   0  0  0  0  0  2  0  0  0  0  0  0
  1  3  2  0  0  0  0
  1 37  1  0  0  0  0
  2  1  1  0  0  0  0
  4 23  1  6  0  0  0
  4  3  1  0  0  0  0
  5  6  2  0  0  0  0
  5  2  1  0  0  0  0
  6  4  1  0  0  0  0
  8  9  2  0  0  0  0
  9 10  1  0  0  0  0
 10  7  1  0  0  0  0
 10  6  1  0  0  0  0
 11  9  1  0  0  0  0
 12 13  1  0  0  0  0
 13 11  1  0  0  0  0
 14 13  2  0  0  0  0
 15 12  1  0  0  0  0
 16 21  1  0  0  0  0
 17 20  1  0  0  0  0
 18 19  1  0  0  0  0
 19 16  2  0  0  0  0
 20 21  2  0  0  0  0
 21 15  1  0  0  0  0
 22 19  1  0  0  0  0
 22 17  2  0  0  0  0
 23 24  1  0  0  0  0
 25 23  2  0  0  0  0
 26 25  1  0  0  0  0
 27 26  2  0  0  0  0
 28 27  1  0  0  0  0
 28 36  1  0  0  0  0
 29 34  2  0  0  0  0
 29 33  1  0  0  0  0
 30 31  2  0  0  0  0
 31 28  1  0  0  0  0
 32 31  1  0  0  0  0
 33 32  2  0  0  0  0
 34 30  1  0  0  0  0
 36 35  1  0  0  0  0
 38 37  1  0  0  0  0
 38 39  1  0  0  0  0
 39 43  1  0  0  0  0
 41 40  1  0  0  0  0
 41 39  1  0  0  0  0
 42 41  1  0  0  0  0
 45 44  1  0  0  0  0
 45 43  1  0  0  0  0
M  END
>  <MODEL>
3

>  <REMARK>
 VINA RESULT:      -5.5      2.250      9.937
  Name = 
  15 active torsions:
  status: ('A' for Active; 'I' for Inactive)
    1  A    between atoms: C_1  and  C_8
    2  A    between atoms: N_3  and  C_21
    3  A    between atoms: C_6  and  C_40
    4  A    between atoms: C_8  and  N_33
    5  A    between atoms: N_11  and  C_35
    6  A    between atoms: N_14  and  N_32
    7  A    between atoms: C_17  and  N_32
    8  A    between atoms: N_19  and  C_30
    9  A    between atoms: N_19  and  N_33
   10  A    between atoms: N_19  and  C_37
   11  A    between atoms: C_21  and  C_42
   12  A    between atoms: C_23  and  C_39
   13  A    between atoms: C_26  and  C_37
   14  A    between atoms: C_28  and  C_39
   15  A    between atoms: N_31  and  C_43
                            x       y       z     vdW  Elec       q    Type
                         _______ _______ _______ _____ _____    ______ ____

>  <TORSDO>
F 15

$$$$
=
 OpenBabel11042421333D

 45 47  0  0  1  0  0  0  0  0999 V2000
  161.3700  210.7290  151.3790 C   0  0  0  0  0  0  0  0  0  0  0  0
  162.5170  210.5700  152.3560 C   0  0  0  0  0  2  0  0  0  0  0  0
  160.5460  209.6960  151.1420 C   0  0  0  0  0  3  0  0  0  0  0  0
  160.7280  208.3710  151.8450 C   0  0  2  0  0  3  0  0  0  0  0  0
  162.1810  209.5840  153.4400 C   0  0  0  0  0  3  0  0  0  0  0  0
  161.3760  208.5430  153.2010 C   0  0  0  0  0  0  0  0  0  0  0  0
  160.6040  206.2970  153.9240 C   0  0  0  0  0  1  0  0  0  0  0  0
  160.8660  207.2330  156.5600 O   0  0  0  0  0  0  0  0  0  0  0  0
  161.1240  208.0540  155.6400 C   0  0  0  0  0  0  0  0  0  0  0  0
  161.0500  207.6410  154.2640 N   0  0  0  0  0  0  0  0  0  0  0  0
  161.4740  209.4670  155.9960 C   0  0  0  0  0  2  0  0  0  0  0  0
  159.0770  210.0510  155.5050 N   0  0  0  0  0  2  0  0  0  0  0  0
  160.2550  210.2820  156.2760 C   0  0  0  0  0  0  0  0  0  0  0  0
  160.2800  211.1750  157.1640 O   0  0  0  0  0  0  0  0  0  0  0  0
  157.8310  210.7540  155.7600 C   0  0  0  0  0  2  0  0  0  0  0  0
  156.4070  212.4730  154.6160 C   0  0  0  0  0  3  0  0  0  0  0  0
  158.5180  213.1490  152.9100 C   0  0  0  0  0  3  0  0  0  0  0  0
  154.9160  214.1480  153.5080 C   0  0  0  0  0  1  0  0  0  0  0  0
  156.2290  213.4550  153.6360 C   0  0  0  0  0  0  0  0  0  0  0  0
  158.6950  212.1630  153.8850 C   0  0  0  0  0  3  0  0  0  0  0  0
  157.6390  211.8230  154.7410 C   0  0  0  0  0  0  0  0  0  0  0  0
  157.2850  213.7950  152.7840 C   0  0  0  0  0  3  0  0  0  0  0  0
  161.4560  207.3790  150.9880 C   0  0  0  0  0  0  0  0  0  0  0  0
  162.6600  206.2720  151.7400 S   0  0  0  0  0  1  0  0  0  0  0  0
  161.1060  207.3170  149.6940 C   0  0  0  0  0  3  0  0  0  0  0  0
  161.6990  206.4780  148.6910 N   0  0  0  0  0  0  0  0  0  0  0  0
  161.2640  205.3040  148.3620 C   0  0  0  0  0  3  0  0  0  0  0  0
  161.9070  204.5330  147.3410 N   0  0  0  0  0  0  0  0  0  0  0  0
  160.5480  200.6080  146.4330 C   0  0  0  0  0  3  0  0  0  0  0  0
  161.0230  202.8770  145.7280 C   0  0  0  0  0  3  0  0  0  0  0  0
  161.4450  203.2060  147.0280 C   0  0  0  0  0  0  0  0  0  0  0  0
  161.4070  202.2160  148.0240 C   0  0  0  0  0  3  0  0  0  0  0  0
  160.9600  200.9250  147.7290 C   0  0  0  0  0  3  0  0  0  0  0  0
  160.5780  201.5850  145.4320 C   0  0  0  0  0  3  0  0  0  0  0  0
  162.4460  205.9050  145.6840 O   0  0  0  0  0  1  0  0  0  0  0  0
  162.9790  205.0910  146.6250 N   0  0  0  0  0  2  0  0  0  0  0  0
  161.1360  212.0140  150.6450 C   0  0  0  0  0  2  0  0  0  0  0  0
  161.6480  211.9540  149.2830 N   0  0  0  0  0  2  0  0  0  0  0  0
  161.5580  213.2520  148.7540 N   0  0  0  0  0  0  0  0  0  0  0  0
  163.4820  212.2780  147.5750 C   0  0  0  0  0  1  0  0  0  0  0  0
  162.7800  213.5600  147.9980 C   0  0  0  0  0  3  0  0  0  0  0  0
  162.5350  214.4530  146.7800 C   0  0  0  0  0  1  0  0  0  0  0  0
  160.4260  213.2800  147.8360 C   0  0  0  0  0  2  0  0  0  0  0  0
  159.9280  212.2620  145.6800 N   0  0  0  0  0  1  0  0  0  0  0  0
  160.3660  211.9860  147.0390 C   0  0  0  0  0  2  0  0  0  0  0  0
  1  2  1  0  0  0  0
  2  5  1  0  0  0  0
  3  1  2  0  0  0  0
  3  4  1  0  0  0  0
  4 23  1  6  0  0  0
  4  6  1  0  0  0  0
  6  5  2  0  0  0  0
  6 10  1  0  0  0  0
  7 10  1  0  0  0  0
  9 11  1  0  0  0  0
  9  8  2  0  0  0  0
 10  9  1  0  0  0  0
 11 13  1  0  0  0  0
 12 15  1  0  0  0  0
 12 13  1  0  0  0  0
 13 14  2  0  0  0  0
 16 21  1  0  0  0  0
 17 20  1  0  0  0  0
 18 19  1  0  0  0  0
 19 16  2  0  0  0  0
 20 21  2  0  0  0  0
 21 15  1  0  0  0  0
 22 17  2  0  0  0  0
 22 19  1  0  0  0  0
 23 24  1  0  0  0  0
 25 23  2  0  0  0  0
 26 25  1  0  0  0  0
 27 26  2  0  0  0  0
 28 27  1  0  0  0  0
 29 33  1  0  0  0  0
 30 31  2  0  0  0  0
 31 28  1  0  0  0  0
 31 32  1  0  0  0  0
 33 32  2  0  0  0  0
 34 30  1  0  0  0  0
 34 29  2  0  0  0  0
 35 36  1  0  0  0  0
 36 28  1  0  0  0  0
 37  1  1  0  0  0  0
 38 37  1  0  0  0  0
 39 38  1  0  0  0  0
 40 41  1  0  0  0  0
 41 39  1  0  0  0  0
 42 41  1  0  0  0  0
 43 39  1  0  0  0  0
 44 45  1  0  0  0  0
 45 43  1  0  0  0  0
M  END
>  <MODEL>
4

>  <REMARK>
 VINA RESULT:      -5.1      2.432      7.275
  Name = 
  15 active torsions:
  status: ('A' for Active; 'I' for Inactive)
    1  A    between atoms: C_1  and  C_8
    2  A    between atoms: N_3  and  C_21
    3  A    between atoms: C_6  and  C_40
    4  A    between atoms: C_8  and  N_33
    5  A    between atoms: N_11  and  C_35
    6  A    between atoms: N_14  and  N_32
    7  A    between atoms: C_17  and  N_32
    8  A    between atoms: N_19  and  C_30
    9  A    between atoms: N_19  and  N_33
   10  A    between atoms: N_19  and  C_37
   11  A    between atoms: C_21  and  C_42
   12  A    between atoms: C_23  and  C_39
   13  A    between atoms: C_26  and  C_37
   14  A    between atoms: C_28  and  C_39
   15  A    between atoms: N_31  and  C_43
                            x       y       z     vdW  Elec       q    Type
                         _______ _______ _______ _____ _____    ______ ____

>  <TORSDO>
F 15

$$$$
=
 OpenBabel11042421333D

 45 47  0  0  1  0  0  0  0  0999 V2000
  159.2880  211.9510  154.2120 C   0  0  0  0  0  0  0  0  0  0  0  0
  160.4080  211.5810  155.1620 C   0  0  0  0  0  2  0  0  0  0  0  0
  159.1610  211.3010  153.0440 C   0  0  0  0  0  3  0  0  0  0  0  0
  160.1090  210.1900  152.6590 C   0  0  2  0  0  3  0  0  0  0  0  0
  160.7720  210.1280  155.0430 C   0  0  0  0  0  3  0  0  0  0  0  0
  160.6650  209.4840  153.8750 C   0  0  0  0  0  0  0  0  0  0  0  0
  161.3060  207.3860  155.0370 C   0  0  0  0  0  1  0  0  0  0  0  0
  161.2930  206.1680  152.5050 O   0  0  0  0  0  0  0  0  0  0  0  0
  161.0400  207.4020  152.5420 C   0  0  0  0  0  0  0  0  0  0  0  0
  160.9890  208.0910  153.8030 N   0  0  0  0  0  0  0  0  0  0  0  0
  160.8250  208.1440  151.2570 C   0  0  0  0  0  2  0  0  0  0  0  0
  160.7960  206.0440  149.8720 N   0  0  0  0  0  2  0  0  0  0  0  0
  161.3070  207.3590  150.0820 C   0  0  0  0  0  0  0  0  0  0  0  0
  162.1700  207.8480  149.3050 O   0  0  0  0  0  0  0  0  0  0  0  0
  161.1640  205.2430  148.7160 C   0  0  0  0  0  2  0  0  0  0  0  0
  161.2550  202.8180  148.0780 C   0  0  0  0  0  3  0  0  0  0  0  0
  160.7570  202.0590  150.7230 C   0  0  0  0  0  3  0  0  0  0  0  0
  161.3350  200.4240  147.3580 C   0  0  0  0  0  1  0  0  0  0  0  0
  161.1610  201.4640  148.4120 C   0  0  0  0  0  0  0  0  0  0  0  0
  160.8460  203.4140  150.3890 C   0  0  0  0  0  3  0  0  0  0  0  0
  161.0960  203.7960  149.0660 C   0  0  0  0  0  0  0  0  0  0  0  0
  160.9130  201.0830  149.7340 C   0  0  0  0  0  3  0  0  0  0  0  0
  161.1890  210.6710  151.7370 C   0  0  0  0  0  0  0  0  0  0  0  0
  162.9140  210.3900  152.1670 S   0  0  0  0  0  1  0  0  0  0  0  0
  160.8010  211.2270  150.5780 C   0  0  0  0  0  3  0  0  0  0  0  0
  161.6590  211.7920  149.5750 N   0  0  0  0  0  0  0  0  0  0  0  0
  161.2690  212.1670  148.4000 C   0  0  0  0  0  3  0  0  0  0  0  0
  162.1870  212.7330  147.4580 N   0  0  0  0  0  0  0  0  0  0  0  0
  160.9090  213.7930  143.5440 C   0  0  0  0  0  3  0  0  0  0  0  0
  160.3800  213.1920  145.8310 C   0  0  0  0  0  3  0  0  0  0  0  0
  161.7480  213.0910  146.1340 C   0  0  0  0  0  0  0  0  0  0  0  0
  162.6880  213.3430  145.1210 C   0  0  0  0  0  3  0  0  0  0  0  0
  162.2710  213.6910  143.8330 C   0  0  0  0  0  3  0  0  0  0  0  0
  159.9630  213.5410  144.5430 C   0  0  0  0  0  3  0  0  0  0  0  0
  164.2070  211.8250  147.5830 O   0  0  0  0  0  1  0  0  0  0  0  0
  163.5190  212.9610  147.8430 N   0  0  0  0  0  2  0  0  0  0  0  0
  158.3160  213.0460  154.5300 C   0  0  0  0  0  2  0  0  0  0  0  0
  158.1130  213.1810  155.9660 N   0  0  0  0  0  2  0  0  0  0  0  0
  156.7600  212.8980  156.2160 N   0  0  0  0  0  0  0  0  0  0  0  0
  155.1320  213.9970  154.7380 C   0  0  0  0  0  1  0  0  0  0  0  0
  155.9580  214.1130  156.0110 C   0  0  0  0  0  3  0  0  0  0  0  0
  155.0530  214.4530  157.1960 C   0  0  0  0  0  1  0  0  0  0  0  0
  156.3320  211.8920  155.2510 C   0  0  0  0  0  2  0  0  0  0  0  0
  154.9360  209.9110  155.0130 N   0  0  0  0  0  1  0  0  0  0  0  0
  155.6700  210.7270  155.9680 C   0  0  0  0  0  2  0  0  0  0  0  0
  1 37  1  0  0  0  0
  1  2  1  0  0  0  0
  3  1  2  0  0  0  0
  4 23  1  1  0  0  0
  4  3  1  0  0  0  0
  4  6  1  0  0  0  0
  5  2  1  0  0  0  0
  6  5  2  0  0  0  0
  8  9  2  0  0  0  0
  9 10  1  0  0  0  0
 10  6  1  0  0  0  0
 10  7  1  0  0  0  0
 11  9  1  0  0  0  0
 12 13  1  0  0  0  0
 13 11  1  0  0  0  0
 14 13  2  0  0  0  0
 15 21  1  0  0  0  0
 15 12  1  0  0  0  0
 16 19  2  0  0  0  0
 16 21  1  0  0  0  0
 18 19  1  0  0  0  0
 19 22  1  0  0  0  0
 20 17  1  0  0  0  0
 21 20  2  0  0  0  0
 22 17  2  0  0  0  0
 23 24  1  0  0  0  0
 25 23  2  0  0  0  0
 26 25  1  0  0  0  0
 27 26  2  0  0  0  0
 28 36  1  0  0  0  0
 28 27  1  0  0  0  0
 29 33  2  0  0  0  0
 29 34  1  0  0  0  0
 30 31  1  0  0  0  0
 31 28  1  0  0  0  0
 32 31  2  0  0  0  0
 33 32  1  0  0  0  0
 34 30  2  0  0  0  0
 35 36  1  0  0  0  0
 37 38  1  0  0  0  0
 38 39  1  0  0  0  0
 40 41  1  0  0  0  0
 41 39  1  0  0  0  0
 41 42  1  0  0  0  0
 43 45  1  0  0  0  0
 43 39  1  0  0  0  0
 44 45  1  0  0  0  0
M  END
>  <MODEL>
5

>  <REMARK>
 VINA RESULT:      -5.1      2.170      8.774
  Name = 
  15 active torsions:
  status: ('A' for Active; 'I' for Inactive)
    1  A    between atoms: C_1  and  C_8
    2  A    between atoms: N_3  and  C_21
    3  A    between atoms: C_6  and  C_40
    4  A    between atoms: C_8  and  N_33
    5  A    between atoms: N_11  and  C_35
    6  A    between atoms: N_14  and  N_32
    7  A    between atoms: C_17  and  N_32
    8  A    between atoms: N_19  and  C_30
    9  A    between atoms: N_19  and  N_33
   10  A    between atoms: N_19  and  C_37
   11  A    between atoms: C_21  and  C_42
   12  A    between atoms: C_23  and  C_39
   13  A    between atoms: C_26  and  C_37
   14  A    between atoms: C_28  and  C_39
   15  A    between atoms: N_31  and  C_43
                            x       y       z     vdW  Elec       q    Type
                         _______ _______ _______ _____ _____    ______ ____

>  <TORSDO>
F 15

$$$$
=
 OpenBabel11042421333D

 45 47  0  0  1  0  0  0  0  0999 V2000
  161.3240  204.8980  149.4580 C   0  0  0  0  0  0  0  0  0  0  0  0
  160.0470  205.1680  150.2260 C   0  0  0  0  0  2  0  0  0  0  0  0
  162.3770  205.7190  149.6030 C   0  0  0  0  0  3  0  0  0  0  0  0
  162.3220  206.9080  150.5340 C   0  0  2  0  0  3  0  0  0  0  0  0
  160.3280  205.8390  151.5410 C   0  0  0  0  0  3  0  0  0  0  0  0
  161.3650  206.6730  151.6820 C   0  0  0  0  0  0  0  0  0  0  0  0
  162.4690  206.5540  153.9030 C   0  0  0  0  0  1  0  0  0  0  0  0
  161.3100  209.0570  154.4340 O   0  0  0  0  0  0  0  0  0  0  0  0
  161.0400  208.5330  153.3210 C   0  0  0  0  0  0  0  0  0  0  0  0
  161.6240  207.2710  152.9570 N   0  0  0  0  0  0  0  0  0  0  0  0
  160.0810  209.2260  152.3990 C   0  0  0  0  0  2  0  0  0  0  0  0
  158.6170  211.2600  152.6100 N   0  0  0  0  0  2  0  0  0  0  0  0
  159.9010  210.6600  152.7700 C   0  0  0  0  0  0  0  0  0  0  0  0
  160.8780  211.3320  153.1940 O   0  0  0  0  0  0  0  0  0  0  0  0
  158.3430  212.6300  153.0110 C   0  0  0  0  0  2  0  0  0  0  0  0
  156.7450  211.5360  154.6050 C   0  0  0  0  0  3  0  0  0  0  0  0
  156.7970  213.7850  156.2680 C   0  0  0  0  0  3  0  0  0  0  0  0
  155.1290  210.3890  156.1320 C   0  0  0  0  0  1  0  0  0  0  0  0
  155.9730  211.5640  155.7710 C   0  0  0  0  0  0  0  0  0  0  0  0
  157.5650  213.7610  155.0990 C   0  0  0  0  0  3  0  0  0  0  0  0
  157.5400  212.6360  154.2660 C   0  0  0  0  0  0  0  0  0  0  0  0
  155.9990  212.6870  156.6040 C   0  0  0  0  0  3  0  0  0  0  0  0
  162.0270  208.1800  149.7990 C   0  0  0  0  0  0  0  0  0  0  0  0
  161.2260  208.1100  148.1880 S   0  0  0  0  0  1  0  0  0  0  0  0
  162.3120  209.3300  150.4300 C   0  0  0  0  0  3  0  0  0  0  0  0
  162.1540  210.6550  149.8980 N   0  0  0  0  0  0  0  0  0  0  0  0
  161.8310  210.9230  148.6740 C   0  0  0  0  0  3  0  0  0  0  0  0
  161.6820  212.2740  148.2240 N   0  0  0  0  0  0  0  0  0  0  0  0
  160.7740  213.0950  144.1530 C   0  0  0  0  0  3  0  0  0  0  0  0
  162.2520  213.3270  146.0580 C   0  0  0  0  0  3  0  0  0  0  0  0
  161.3790  212.5560  146.8450 C   0  0  0  0  0  0  0  0  0  0  0  0
  160.1990  212.0640  146.2650 C   0  0  0  0  0  3  0  0  0  0  0  0
  159.8970  212.3320  144.9270 C   0  0  0  0  0  3  0  0  0  0  0  0
  161.9510  213.5950  144.7190 C   0  0  0  0  0  3  0  0  0  0  0  0
  160.6590  213.3710  149.8580 O   0  0  0  0  0  1  0  0  0  0  0  0
  161.8090  213.3270  149.1450 N   0  0  0  0  0  2  0  0  0  0  0  0
  161.4450  203.7400  148.5150 C   0  0  0  0  0  2  0  0  0  0  0  0
  162.1040  204.1260  147.2750 N   0  0  0  0  0  2  0  0  0  0  0  0
  161.1390  204.0410  146.2560 N   0  0  0  0  0  0  0  0  0  0  0  0
  160.2050  206.0880  145.2670 C   0  0  0  0  0  1  0  0  0  0  0  0
  161.3690  205.1070  145.2720 C   0  0  0  0  0  3  0  0  0  0  0  0
  162.6870  205.8560  145.4810 C   0  0  0  0  0  1  0  0  0  0  0  0
  161.3080  202.7530  145.5930 C   0  0  0  0  0  2  0  0  0  0  0  0
  160.0730  200.7780  144.8850 N   0  0  0  0  0  1  0  0  0  0  0  0
  160.0940  201.8730  145.8430 C   0  0  0  0  0  2  0  0  0  0  0  0
  1  3  2  0  0  0  0
  1  2  1  0  0  0  0
  2  5  1  0  0  0  0
  3  4  1  0  0  0  0
  4 23  1  6  0  0  0
  4  6  1  0  0  0  0
  5  6  2  0  0  0  0
  6 10  1  0  0  0  0
  9  8  2  0  0  0  0
 10  9  1  0  0  0  0
 10  7  1  0  0  0  0
 11 13  1  0  0  0  0
 11  9  1  0  0  0  0
 12 13  1  0  0  0  0
 12 15  1  0  0  0  0
 13 14  2  0  0  0  0
 15 21  1  0  0  0  0
 16 19  1  0  0  0  0
 17 22  1  0  0  0  0
 19 18  1  0  0  0  0
 19 22  2  0  0  0  0
 20 17  2  0  0  0  0
 21 16  2  0  0  0  0
 21 20  1  0  0  0  0
 23 25  2  0  0  0  0
 24 23  1  0  0  0  0
 26 25  1  0  0  0  0
 27 26  2  0  0  0  0
 28 27  1  0  0  0  0
 28 36  1  0  0  0  0
 29 34  2  0  0  0  0
 29 33  1  0  0  0  0
 30 31  2  0  0  0  0
 31 28  1  0  0  0  0
 32 31  1  0  0  0  0
 33 32  2  0  0  0  0
 34 30  1  0  0  0  0
 36 35  1  0  0  0  0
 37  1  1  0  0  0  0
 38 37  1  0  0  0  0
 39 38  1  0  0  0  0
 40 41  1  0  0  0  0
 41 42  1  0  0  0  0
 41 39  1  0  0  0  0
 43 45  1  0  0  0  0
 43 39  1  0  0  0  0
 44 45  1  0  0  0  0
M  END
>  <MODEL>
6

>  <REMARK>
 VINA RESULT:      -4.8      1.517      1.992
  Name = 
  15 active torsions:
  status: ('A' for Active; 'I' for Inactive)
    1  A    between atoms: C_1  and  C_8
    2  A    between atoms: N_3  and  C_21
    3  A    between atoms: C_6  and  C_40
    4  A    between atoms: C_8  and  N_33
    5  A    between atoms: N_11  and  C_35
    6  A    between atoms: N_14  and  N_32
    7  A    between atoms: C_17  and  N_32
    8  A    between atoms: N_19  and  C_30
    9  A    between atoms: N_19  and  N_33
   10  A    between atoms: N_19  and  C_37
   11  A    between atoms: C_21  and  C_42
   12  A    between atoms: C_23  and  C_39
   13  A    between atoms: C_26  and  C_37
   14  A    between atoms: C_28  and  C_39
   15  A    between atoms: N_31  and  C_43
                            x       y       z     vdW  Elec       q    Type
                         _______ _______ _______ _____ _____    ______ ____

>  <TORSDO>
F 15

$$$$
=
 OpenBabel11042421333D

 45 47  0  0  1  0  0  0  0  0999 V2000
  161.9990  213.3540  145.2960 C   0  0  0  0  0  0  0  0  0  0  0  0
  161.6470  214.4490  146.2810 C   0  0  0  0  0  2  0  0  0  0  0  0
  161.4190  212.1480  145.4020 C   0  0  0  0  0  3  0  0  0  0  0  0
  160.4020  211.8600  146.4820 C   0  0  2  0  0  3  0  0  0  0  0  0
  160.2320  214.3130  146.7720 C   0  0  0  0  0  3  0  0  0  0  0  0
  159.6590  213.1100  146.8970 C   0  0  0  0  0  0  0  0  0  0  0  0
  157.2990  212.5240  146.4000 C   0  0  0  0  0  1  0  0  0  0  0  0
  156.7170  213.3090  149.0340 O   0  0  0  0  0  0  0  0  0  0  0  0
  157.9130  213.4320  148.6580 C   0  0  0  0  0  0  0  0  0  0  0  0
  158.3000  213.0170  147.3360 N   0  0  0  0  0  0  0  0  0  0  0  0
  158.9150  214.0450  149.5900 C   0  0  0  0  0  2  0  0  0  0  0  0
  159.2500  213.8770  152.0770 N   0  0  0  0  0  2  0  0  0  0  0  0
  158.3810  214.1480  150.9800 C   0  0  0  0  0  0  0  0  0  0  0  0
  157.1730  214.4480  151.1730 O   0  0  0  0  0  0  0  0  0  0  0  0
  158.8260  214.0210  153.4600 C   0  0  0  0  0  2  0  0  0  0  0  0
  159.9830  211.8470  153.9350 C   0  0  0  0  0  3  0  0  0  0  0  0
  157.8970  211.0570  155.6240 C   0  0  0  0  0  3  0  0  0  0  0  0
  161.1860  209.6910  154.3390 C   0  0  0  0  0  1  0  0  0  0  0  0
  160.0240  210.5980  154.5640 C   0  0  0  0  0  0  0  0  0  0  0  0
  157.8520  212.3040  154.9930 C   0  0  0  0  0  3  0  0  0  0  0  0
  158.8960  212.7010  154.1470 C   0  0  0  0  0  0  0  0  0  0  0  0
  158.9830  210.2030  155.4090 C   0  0  0  0  0  3  0  0  0  0  0  0
  161.0150  211.1480  147.6510 C   0  0  0  0  0  0  0  0  0  0  0  0
  161.7620  212.1030  148.9810 S   0  0  0  0  0  1  0  0  0  0  0  0
  160.9010  209.8110  147.6800 C   0  0  0  0  0  3  0  0  0  0  0  0
  161.4480  208.9310  148.6730 N   0  0  0  0  0  0  0  0  0  0  0  0
  161.1470  207.6770  148.7920 C   0  0  0  0  0  3  0  0  0  0  0  0
  161.7470  206.8630  149.8060 N   0  0  0  0  0  0  0  0  0  0  0  0
  160.6010  202.7960  150.2810 C   0  0  0  0  0  3  0  0  0  0  0  0
  161.1930  204.6520  148.8410 C   0  0  0  0  0  3  0  0  0  0  0  0
  161.3580  205.4850  149.9610 C   0  0  0  0  0  0  0  0  0  0  0  0
  161.1340  204.9520  151.2410 C   0  0  0  0  0  3  0  0  0  0  0  0
  160.7570  203.6160  151.4000 C   0  0  0  0  0  3  0  0  0  0  0  0
  160.8170  203.3150  149.0000 C   0  0  0  0  0  3  0  0  0  0  0  0
  162.1090  208.1990  151.5390 O   0  0  0  0  0  1  0  0  0  0  0  0
  162.7390  207.4110  150.6360 N   0  0  0  0  0  2  0  0  0  0  0  0
  163.0020  213.5710  144.2040 C   0  0  0  0  0  2  0  0  0  0  0  0
  162.3880  214.1630  143.0240 N   0  0  0  0  0  2  0  0  0  0  0  0
  162.0980  213.1080  142.1420 N   0  0  0  0  0  0  0  0  0  0  0  0
  160.0290  211.8110  142.4260 C   0  0  0  0  0  1  0  0  0  0  0  0
  160.6540  213.0820  141.8670 C   0  0  0  0  0  3  0  0  0  0  0  0
  159.9100  214.3100  142.3940 C   0  0  0  0  0  1  0  0  0  0  0  0
  162.8030  213.3690  140.8920 C   0  0  0  0  0  2  0  0  0  0  0  0
  162.2910  211.4810  139.4430 N   0  0  0  0  0  1  0  0  0  0  0  0
  161.9800  212.8750  139.7130 C   0  0  0  0  0  2  0  0  0  0  0  0
  1  3  2  0  0  0  0
  1  2  1  0  0  0  0
  2  5  1  0  0  0  0
  3  4  1  0  0  0  0
  4  6  1  0  0  0  0
  4 23  1  1  0  0  0
  5  6  2  0  0  0  0
  6 10  1  0  0  0  0
  7 10  1  0  0  0  0
  9  8  2  0  0  0  0
  9 11  1  0  0  0  0
 10  9  1  0  0  0  0
 11 13  1  0  0  0  0
 12 15  1  0  0  0  0
 13 14  2  0  0  0  0
 13 12  1  0  0  0  0
 15 21  1  0  0  0  0
 16 21  2  0  0  0  0
 16 19  1  0  0  0  0
 18 19  1  0  0  0  0
 19 22  2  0  0  0  0
 20 17  2  0  0  0  0
 21 20  1  0  0  0  0
 22 17  1  0  0  0  0
 23 25  2  0  0  0  0
 23 24  1  0  0  0  0
 25 26  1  0  0  0  0
 26 27  2  0  0  0  0
 27 28  1  0  0  0  0
 28 31  1  0  0  0  0
 28 36  1  0  0  0  0
 29 33  1  0  0  0  0
 30 34  1  0  0  0  0
 30 31  2  0  0  0  0
 31 32  1  0  0  0  0
 32 33  2  0  0  0  0
 34 29  2  0  0  0  0
 36 35  1  0  0  0  0
 37  1  1  0  0  0  0
 38 37  1  0  0  0  0
 39 38  1  0  0  0  0
 41 39  1  0  0  0  0
 41 42  1  0  0  0  0
 41 40  1  0  0  0  0
 43 39  1  0  0  0  0
 44 45  1  0  0  0  0
 45 43  1  0  0  0  0
M  END
>  <MODEL>
7

>  <REMARK>
 VINA RESULT:      -4.7      2.917      8.054
  Name = 
  15 active torsions:
  status: ('A' for Active; 'I' for Inactive)
    1  A    between atoms: C_1  and  C_8
    2  A    between atoms: N_3  and  C_21
    3  A    between atoms: C_6  and  C_40
    4  A    between atoms: C_8  and  N_33
    5  A    between atoms: N_11  and  C_35
    6  A    between atoms: N_14  and  N_32
    7  A    between atoms: C_17  and  N_32
    8  A    between atoms: N_19  and  C_30
    9  A    between atoms: N_19  and  N_33
   10  A    between atoms: N_19  and  C_37
   11  A    between atoms: C_21  and  C_42
   12  A    between atoms: C_23  and  C_39
   13  A    between atoms: C_26  and  C_37
   14  A    between atoms: C_28  and  C_39
   15  A    between atoms: N_31  and  C_43
                            x       y       z     vdW  Elec       q    Type
                         _______ _______ _______ _____ _____    ______ ____

>  <TORSDO>
F 15

$$$$
=
 OpenBabel11042421333D

 45 47  0  0  1  0  0  0  0  0999 V2000
  161.8860  210.1470  151.2310 C   0  0  0  0  0  0  0  0  0  0  0  0
  162.9140  210.1940  152.3430 C   0  0  0  0  0  2  0  0  0  0  0  0
  160.8290  209.3250  151.3320 C   0  0  0  0  0  3  0  0  0  0  0  0
  160.6320  208.4490  152.5470 C   0  0  2  0  0  3  0  0  0  0  0  0
  162.2920  209.8960  153.6780 C   0  0  0  0  0  3  0  0  0  0  0  0
  161.2510  209.0610  153.7840 C   0  0  0  0  0  0  0  0  0  0  0  0
  159.9030  207.5970  155.2670 C   0  0  0  0  0  1  0  0  0  0  0  0
  160.2810  209.5400  157.2610 O   0  0  0  0  0  0  0  0  0  0  0  0
  160.7790  209.7850  156.1290 C   0  0  0  0  0  0  0  0  0  0  0  0
  160.6620  208.8240  155.0660 N   0  0  0  0  0  0  0  0  0  0  0  0
  161.4620  211.1000  155.8990 C   0  0  0  0  0  2  0  0  0  0  0  0
  160.1360  213.0940  156.6710 N   0  0  0  0  0  2  0  0  0  0  0  0
  160.4790  212.1890  155.6230 C   0  0  0  0  0  0  0  0  0  0  0  0
  159.9470  212.2880  154.4850 O   0  0  0  0  0  0  0  0  0  0  0  0
  159.2400  214.2200  156.4640 C   0  0  0  0  0  2  0  0  0  0  0  0
  157.2910  214.1850  154.8860 C   0  0  0  0  0  3  0  0  0  0  0  0
  155.9460  212.3550  156.5190 C   0  0  0  0  0  3  0  0  0  0  0  0
  155.3760  214.2240  153.2770 C   0  0  0  0  0  1  0  0  0  0  0  0
  156.0150  213.7340  154.5310 C   0  0  0  0  0  0  0  0  0  0  0  0
  157.2200  212.8090  156.8780 C   0  0  0  0  0  3  0  0  0  0  0  0
  157.8950  213.7240  156.0610 C   0  0  0  0  0  0  0  0  0  0  0  0
  155.3430  212.8190  155.3470 C   0  0  0  0  0  3  0  0  0  0  0  0
  161.1060  207.0470  152.3080 C   0  0  0  0  0  0  0  0  0  0  0  0
  162.3150  206.3160  153.4240 S   0  0  0  0  0  1  0  0  0  0  0  0
  160.5340  206.3720  151.2990 C   0  0  0  0  0  3  0  0  0  0  0  0
  160.8640  205.0430  150.8680 N   0  0  0  0  0  0  0  0  0  0  0  0
  160.8300  204.6380  149.6390 C   0  0  0  0  0  3  0  0  0  0  0  0
  161.1870  203.2960  149.2890 N   0  0  0  0  0  0  0  0  0  0  0  0
  160.8930  201.9490  145.2670 C   0  0  0  0  0  3  0  0  0  0  0  0
  161.2190  203.7480  146.8560 C   0  0  0  0  0  3  0  0  0  0  0  0
  161.0870  202.8460  147.9250 C   0  0  0  0  0  0  0  0  0  0  0  0
  160.8540  201.4900  147.6420 C   0  0  0  0  0  3  0  0  0  0  0  0
  160.7570  201.0440  146.3210 C   0  0  0  0  0  3  0  0  0  0  0  0
  161.1220  203.3030  145.5350 C   0  0  0  0  0  3  0  0  0  0  0  0
  160.5750  201.9230  150.9200 O   0  0  0  0  0  1  0  0  0  0  0  0
  161.6600  202.4250  150.2840 N   0  0  0  0  0  2  0  0  0  0  0  0
  162.0230  210.9860  149.9970 C   0  0  0  0  0  2  0  0  0  0  0  0
  160.8170  211.7600  149.7390 N   0  0  0  0  0  2  0  0  0  0  0  0
  161.2310  213.0240  149.2870 N   0  0  0  0  0  0  0  0  0  0  0  0
  160.1010  213.4810  147.1530 C   0  0  0  0  0  1  0  0  0  0  0  0
  161.3790  213.0000  147.8250 C   0  0  0  0  0  3  0  0  0  0  0  0
  162.5760  213.8080  147.3200 C   0  0  0  0  0  1  0  0  0  0  0  0
  160.1860  213.9810  149.6320 C   0  0  0  0  0  2  0  0  0  0  0  0
  158.4290  214.4150  151.2610 N   0  0  0  0  0  1  0  0  0  0  0  0
  159.6980  213.7350  151.0500 C   0  0  0  0  0  2  0  0  0  0  0  0
  1  3  2  0  0  0  0
  1  2  1  0  0  0  0
  2  5  1  0  0  0  0
  3  4  1  0  0  0  0
  4 23  1  6  0  0  0
  4  6  1  0  0  0  0
  5  6  2  0  0  0  0
  6 10  1  0  0  0  0
  9  8  2  0  0  0  0
 10  7  1  0  0  0  0
 10  9  1  0  0  0  0
 11  9  1  0  0  0  0
 13 11  1  0  0  0  0
 13 12  1  0  0  0  0
 14 13  2  0  0  0  0
 15 12  1  0  0  0  0
 16 21  1  0  0  0  0
 17 20  1  0  0  0  0
 18 19  1  0  0  0  0
 19 16  2  0  0  0  0
 19 22  1  0  0  0  0
 21 15  1  0  0  0  0
 21 20  2  0  0  0  0
 22 17  2  0  0  0  0
 23 24  1  0  0  0  0
 25 23  2  0  0  0  0
 26 25  1  0  0  0  0
 27 26  2  0  0  0  0
 28 27  1  0  0  0  0
 28 36  1  0  0  0  0
 29 34  2  0  0  0  0
 29 33  1  0  0  0  0
 30 31  2  0  0  0  0
 31 28  1  0  0  0  0
 32 31  1  0  0  0  0
 33 32  2  0  0  0  0
 34 30  1  0  0  0  0
 36 35  1  0  0  0  0
 37  1  1  0  0  0  0
 38 37  1  0  0  0  0
 39 43  1  0  0  0  0
 39 38  1  0  0  0  0
 40 41  1  0  0  0  0
 41 39  1  0  0  0  0
 42 41  1  0  0  0  0
 43 45  1  0  0  0  0
 45 44  1  0  0  0  0
M  END
>  <MODEL>
8

>  <REMARK>
 VINA RESULT:      -4.4      2.395      7.560
  Name = 
  15 active torsions:
  status: ('A' for Active; 'I' for Inactive)
    1  A    between atoms: C_1  and  C_8
    2  A    between atoms: N_3  and  C_21
    3  A    between atoms: C_6  and  C_40
    4  A    between atoms: C_8  and  N_33
    5  A    between atoms: N_11  and  C_35
    6  A    between atoms: N_14  and  N_32
    7  A    between atoms: C_17  and  N_32
    8  A    between atoms: N_19  and  C_30
    9  A    between atoms: N_19  and  N_33
   10  A    between atoms: N_19  and  C_37
   11  A    between atoms: C_21  and  C_42
   12  A    between atoms: C_23  and  C_39
   13  A    between atoms: C_26  and  C_37
   14  A    between atoms: C_28  and  C_39
   15  A    between atoms: N_31  and  C_43
                            x       y       z     vdW  Elec       q    Type
                         _______ _______ _______ _____ _____    ______ ____

>  <TORSDO>
F 15

$$$$
=
 OpenBabel11042421333D

 45 47  0  0  1  0  0  0  0  0999 V2000
  159.0630  212.3050  152.8800 C   0  0  0  0  0  0  0  0  0  0  0  0
  160.1440  212.6630  153.8790 C   0  0  0  0  0  2  0  0  0  0  0  0
  158.9120  211.0300  152.4860 C   0  0  0  0  0  3  0  0  0  0  0  0
  159.7950  209.9320  153.0320 C   0  0  2  0  0  3  0  0  0  0  0  0
  160.4180  211.5250  154.8220 C   0  0  0  0  0  3  0  0  0  0  0  0
  160.2880  210.2540  154.4260 C   0  0  0  0  0  0  0  0  0  0  0  0
  160.5410  209.5090  156.7800 C   0  0  0  0  0  1  0  0  0  0  0  0
  160.9520  206.9270  155.7510 O   0  0  0  0  0  0  0  0  0  0  0  0
  160.7800  207.8510  154.9110 C   0  0  0  0  0  0  0  0  0  0  0  0
  160.5250  209.1940  155.3580 N   0  0  0  0  0  0  0  0  0  0  0  0
  160.8770  207.5380  153.4480 C   0  0  0  0  0  2  0  0  0  0  0  0
  160.5980  205.0810  152.9890 N   0  0  0  0  0  2  0  0  0  0  0  0
  161.4690  206.1880  153.2130 C   0  0  0  0  0  0  0  0  0  0  0  0
  162.7190  206.0310  153.2360 O   0  0  0  0  0  0  0  0  0  0  0  0
  161.0960  203.7490  152.6860 C   0  0  0  0  0  2  0  0  0  0  0  0
  161.1370  202.1930  150.7190 C   0  0  0  0  0  3  0  0  0  0  0  0
  160.6170  204.3160  148.9740 C   0  0  0  0  0  3  0  0  0  0  0  0
  161.2200  200.5830  148.8060 C   0  0  0  0  0  1  0  0  0  0  0  0
  161.0470  201.9630  149.3420 C   0  0  0  0  0  0  0  0  0  0  0  0
  160.7120  204.5490  150.3500 C   0  0  0  0  0  3  0  0  0  0  0  0
  160.9720  203.4870  151.2250 C   0  0  0  0  0  0  0  0  0  0  0  0
  160.7860  203.0240  148.4690 C   0  0  0  0  0  3  0  0  0  0  0  0
  160.9160  209.5970  152.0950 C   0  0  0  0  0  0  0  0  0  0  0  0
  162.5760  210.1980  152.4460 S   0  0  0  0  0  1  0  0  0  0  0  0
  160.6300  208.7850  151.0650 C   0  0  0  0  0  3  0  0  0  0  0  0
  161.5330  208.3740  150.0290 N   0  0  0  0  0  0  0  0  0  0  0  0
  161.1990  207.6610  149.0010 C   0  0  0  0  0  3  0  0  0  0  0  0
  162.1610  207.3010  148.0030 N   0  0  0  0  0  0  0  0  0  0  0  0
  161.0690  204.8080  144.7360 C   0  0  0  0  0  3  0  0  0  0  0  0
  160.5120  206.5620  146.3120 C   0  0  0  0  0  3  0  0  0  0  0  0
  161.7850  206.4590  146.8970 C   0  0  0  0  0  0  0  0  0  0  0  0
  162.6910  205.5150  146.3860 C   0  0  0  0  0  3  0  0  0  0  0  0
  162.3350  204.6940  145.3120 C   0  0  0  0  0  3  0  0  0  0  0  0
  160.1550  205.7410  145.2380 C   0  0  0  0  0  3  0  0  0  0  0  0
  163.3780  209.1380  148.2540 O   0  0  0  0  0  1  0  0  0  0  0  0
  163.4720  207.7960  148.0950 N   0  0  0  0  0  2  0  0  0  0  0  0
  158.1570  213.3450  152.2950 C   0  0  0  0  0  2  0  0  0  0  0  0
  158.8770  214.2410  151.4010 N   0  0  0  0  0  2  0  0  0  0  0  0
  159.0220  213.5670  150.1770 N   0  0  0  0  0  0  0  0  0  0  0  0
  158.7860  214.4510  147.8950 C   0  0  0  0  0  1  0  0  0  0  0  0
  158.0730  214.1160  149.1980 C   0  0  0  0  0  3  0  0  0  0  0  0
  156.8800  213.1980  148.9240 C   0  0  0  0  0  1  0  0  0  0  0  0
  160.3770  213.8090  149.6950 C   0  0  0  0  0  2  0  0  0  0  0  0
  161.8150  212.4380  148.2880 N   0  0  0  0  0  1  0  0  0  0  0  0
  161.1310  212.4950  149.5700 C   0  0  0  0  0  2  0  0  0  0  0  0
  1  2  1  0  0  0  0
  2  5  1  0  0  0  0
  3  1  2  0  0  0  0
  3  4  1  0  0  0  0
  4 23  1  6  0  0  0
  4  6  1  0  0  0  0
  6  5  2  0  0  0  0
  6 10  1  0  0  0  0
  9 10  1  0  0  0  0
  9  8  2  0  0  0  0
 10  7  1  0  0  0  0
 11  9  1  0  0  0  0
 12 13  1  0  0  0  0
 13 14  2  0  0  0  0
 13 11  1  0  0  0  0
 15 12  1  0  0  0  0
 16 21  1  0  0  0  0
 17 20  1  0  0  0  0
 18 19  1  0  0  0  0
 19 16  2  0  0  0  0
 20 21  2  0  0  0  0
 21 15  1  0  0  0  0
 22 17  2  0  0  0  0
 22 19  1  0  0  0  0
 23 24  1  0  0  0  0
 25 23  2  0  0  0  0
 26 25  1  0  0  0  0
 27 26  2  0  0  0  0
 28 36  1  0  0  0  0
 28 27  1  0  0  0  0
 29 34  2  0  0  0  0
 29 33  1  0  0  0  0
 30 31  2  0  0  0  0
 31 28  1  0  0  0  0
 32 31  1  0  0  0  0
 33 32  2  0  0  0  0
 34 30  1  0  0  0  0
 36 35  1  0  0  0  0
 37  1  1  0  0  0  0
 38 37  1  0  0  0  0
 39 38  1  0  0  0  0
 40 41  1  0  0  0  0
 41 39  1  0  0  0  0
 42 41  1  0  0  0  0
 43 39  1  0  0  0  0
 44 45  1  0  0  0  0
 45 43  1  0  0  0  0
M  END
>  <MODEL>
9

>  <REMARK>
 VINA RESULT:      -4.4      2.744      8.459
  Name = 
  15 active torsions:
  status: ('A' for Active; 'I' for Inactive)
    1  A    between atoms: C_1  and  C_8
    2  A    between atoms: N_3  and  C_21
    3  A    between atoms: C_6  and  C_40
    4  A    between atoms: C_8  and  N_33
    5  A    between atoms: N_11  and  C_35
    6  A    between atoms: N_14  and  N_32
    7  A    between atoms: C_17  and  N_32
    8  A    between atoms: N_19  and  C_30
    9  A    between atoms: N_19  and  N_33
   10  A    between atoms: N_19  and  C_37
   11  A    between atoms: C_21  and  C_42
   12  A    between atoms: C_23  and  C_39
   13  A    between atoms: C_26  and  C_37
   14  A    between atoms: C_28  and  C_39
   15  A    between atoms: N_31  and  C_43
                            x       y       z     vdW  Elec       q    Type
                         _______ _______ _______ _____ _____    ______ ____

>  <TORSDO>
F 15

$$$$
