=
 OpenBabel11042421483D

 44 45  0  0  1  0  0  0  0  0999 V2000
  160.0860  210.6350  152.8940 N   0  0  0  0  0  0  0  0  0  0  0  0
  160.7240  211.7940  154.9040 N   0  0  0  0  0  0  0  0  0  0  0  0
  161.0490  211.1570  153.8170 C   0  0  0  0  0  3  0  0  0  0  0  0
  159.4030  211.9410  155.4430 C   0  0  0  0  0  0  0  0  0  0  0  0
  156.8100  212.3120  156.4040 C   0  0  0  0  0  0  0  0  0  0  0  0
  157.6280  211.1780  156.9490 C   0  0  0  0  0  2  0  0  0  0  0  0
  155.6070  212.4910  156.8310 N   0  0  0  0  0  2  0  0  0  0  0  0
  158.6320  213.1530  155.1270 C   0  0  0  0  0  3  0  0  0  0  0  0
  158.9230  211.0580  156.2720 N   0  0  0  0  0  0  0  0  0  0  0  0
  157.4250  213.3030  155.5770 N   0  0  0  0  0  0  0  0  0  0  0  0
  160.4350  209.4300  152.1600 C   0  0  0  0  0  2  0  0  0  0  0  0
  161.5700  209.7240  151.1930 C   0  0  0  0  0  2  0  0  0  0  0  0
  162.2780  208.4380  150.7940 C   0  0  0  0  0  2  0  0  0  0  0  0
  161.2980  207.4010  150.2580 C   0  0  1  0  0  3  0  0  0  0  0  0
  161.8200  206.7550  149.0030 C   0  0  0  0  0  3  0  0  0  0  0  0
  161.0420  206.5360  147.9390 C   0  0  0  0  0  3  0  0  0  0  0  0
  161.9040  204.1340  147.0180 S   0  0  0  0  0  0  0  0  0  0  0  0
  161.5910  205.8990  146.7070 C   0  0  1  0  0  3  0  0  0  0  0  0
  160.6060  206.0160  145.5600 C   0  0  0  0  0  2  0  0  0  0  0  0
  161.0560  203.6430  145.4840 C   0  0  0  0  0  2  0  0  0  0  0  0
  160.8960  204.8730  144.6230 C   0  0  0  0  0  2  0  0  0  0  0  0
  161.0020  206.3760  151.3460 C   0  0  0  0  0  2  0  0  0  0  0  0
  162.2430  205.5770  151.7130 C   0  0  0  0  0  2  0  0  0  0  0  0
  161.9440  204.2150  151.7470 O   0  0  0  0  0  0  0  0  0  0  0  0
  160.6650  204.1220  151.2040 C   0  0  0  0  0  1  0  0  0  0  0  0
  159.0870  211.5380  152.3300 C   0  0  0  0  0  2  0  0  0  0  0  0
  159.7390  212.7170  151.6230 C   0  0  2  0  0  3  0  0  0  0  0  0
  159.3190  214.0180  152.2900 C   0  0  0  0  0  2  0  0  0  0  0  0
  158.0980  214.4520  151.7730 O   0  0  0  0  0  1  0  0  0  0  0  0
  159.3110  212.7150  150.1660 C   0  0  0  0  0  2  0  0  0  0  0  0
  160.3360  213.3430  149.3490 N   0  0  0  0  0  2  0  0  0  0  0  0
  159.8100  213.4370  147.9980 C   0  0  0  0  0  2  0  0  0  0  0  0
  160.7940  212.8130  147.0250 C   0  0  1  0  0  3  0  0  0  0  0  0
  160.2890  213.1430  145.3390 S   0  0  0  0  0  0  0  0  0  0  0  0
  159.5530  214.4510  145.2830 O   0  0  0  0  0  0  0  0  0  0  0  0
  159.3810  212.0420  144.8620 O   0  0  0  0  0  0  0  0  0  0  0  0
  161.7200  213.2360  144.2770 C   0  0  0  0  0  2  0  0  0  0  0  0
  161.8560  211.9850  142.2510 O   0  0  0  0  0  1  0  0  0  0  0  0
  160.4420  213.7880  142.2140 O   0  0  0  0  0  0  0  0  0  0  0  0
  161.3410  212.9570  142.8650 C   0  0  0  0  0  0  0  0  0  0  0  0
  162.1780  213.3810  147.2920 C   0  0  0  0  0  2  0  0  0  0  0  0
  164.0750  211.9640  147.0320 O   0  0  0  0  0  0  0  0  0  0  0  0
  162.9150  211.7100  148.9920 O   0  0  0  0  0  1  0  0  0  0  0  0
  163.1080  212.3130  147.7560 C   0  0  0  0  0  0  0  0  0  0  0  0
  1  3  1  0  0  0  0
  2  4  1  0  0  0  0
  3  2  2  0  0  0  0
  4  9  2  0  0  0  0
  5  7  2  0  0  0  0
  5  6  1  0  0  0  0
  8  4  1  0  0  0  0
  8 10  2  0  0  0  0
  9  6  1  0  0  0  0
 10  5  1  0  0  0  0
 11  1  1  0  0  0  0
 12 11  1  0  0  0  0
 13 12  1  0  0  0  0
 14 15  1  6  0  0  0
 14 13  1  0  0  0  0
 14 22  1  0  0  0  0
 16 15  2  0  0  0  0
 18 17  1  0  0  0  0
 18 16  1  1  0  0  0
 19 18  1  0  0  0  0
 20 17  1  0  0  0  0
 21 20  1  0  0  0  0
 21 19  1  0  0  0  0
 22 23  1  0  0  0  0
 23 24  1  0  0  0  0
 25 24  1  0  0  0  0
 26  1  1  0  0  0  0
 27 30  1  6  0  0  0
 27 28  1  0  0  0  0
 27 26  1  0  0  0  0
 29 28  1  0  0  0  0
 31 30  1  0  0  0  0
 32 31  1  0  0  0  0
 33 41  1  1  0  0  0
 33 32  1  0  0  0  0
 34 33  1  0  0  0  0
 35 34  2  0  0  0  0
 36 34  2  0  0  0  0
 37 34  1  0  0  0  0
 38 40  1  0  0  0  0
 39 40  2  0  0  0  0
 40 37  1  0  0  0  0
 41 44  1  0  0  0  0
 42 44  2  0  0  0  0
 44 43  1  0  0  0  0
M  END
>  <MODEL>
1

>  <REMARK>
 VINA RESULT:      -5.0      0.000      0.000
  Name = 
  22 active torsions:
  status: ('A' for Active; 'I' for Inactive)
    1  A    between atoms: C_1  and  C_3
    2  A    between atoms: C_1  and  C_9
    3  A    between atoms: C_1  and  C_18
    4  A    between atoms: C_5  and  C_18
    5  A    between atoms: C_5  and  C_38
    6  A    between atoms: C_6  and  N_32
    7  A    between atoms: C_6  and  C_43
    8  A    between atoms: C_7  and  N_13
    9  A    between atoms: C_7  and  C_35
   10  A    between atoms: C_8  and  N_29
   11  A    between atoms: C_9  and  C_36
   12  A    between atoms: C_10  and  C_25
   13  A    between atoms: C_11  and  S_15
   14  A    between atoms: C_11  and  C_30
   15  A    between atoms: O_12  and  C_36
   16  A    between atoms: N_13  and  C_38
   17  A    between atoms: S_15  and  C_43
   18  A    between atoms: C_22  and  C_35
   19  A    between atoms: C_23  and  C_40
   20  A    between atoms: C_23  and  C_43
   21  A    between atoms: C_26  and  N_32
   22  A    between atoms: C_26  and  C_35
                            x       y       z     vdW  Elec       q    Type
                         _______ _______ _______ _____ _____    ______ ____

>  <TORSDO>
F 22

$$$$
=
 OpenBabel11042421483D

 44 45  0  0  1  0  0  0  0  0999 V2000
  161.7040  210.4800  151.1670 N   0  0  0  0  0  0  0  0  0  0  0  0
  159.8910  210.8770  152.6990 N   0  0  0  0  0  0  0  0  0  0  0  0
  160.3720  210.8980  151.4900 C   0  0  0  0  0  3  0  0  0  0  0  0
  160.6220  210.6050  153.9030 C   0  0  0  0  0  0  0  0  0  0  0  0
  162.0600  209.9570  156.2050 C   0  0  0  0  0  0  0  0  0  0  0  0
  161.7370  211.3980  155.9350 C   0  0  0  0  0  2  0  0  0  0  0  0
  162.7300  209.6420  157.2600 N   0  0  0  0  0  2  0  0  0  0  0  0
  160.7760  209.2110  154.3460 C   0  0  0  0  0  3  0  0  0  0  0  0
  161.0700  211.5790  154.6420 N   0  0  0  0  0  0  0  0  0  0  0  0
  161.4550  208.9290  155.4160 N   0  0  0  0  0  0  0  0  0  0  0  0
  162.3690  211.1370  150.0530 C   0  0  0  0  0  2  0  0  0  0  0  0
  161.3580  211.4550  148.9630 C   0  0  0  0  0  2  0  0  0  0  0  0
  162.0600  211.9860  147.7230 C   0  0  0  0  0  2  0  0  0  0  0  0
  161.7270  213.4520  147.4730 C   0  0  1  0  0  3  0  0  0  0  0  0
  161.5900  213.7370  146.0020 C   0  0  0  0  0  3  0  0  0  0  0  0
  161.0330  212.8650  145.1570 C   0  0  0  0  0  3  0  0  0  0  0  0
  162.3840  212.5940  142.8200 S   0  0  0  0  0  0  0  0  0  0  0  0
  160.9060  213.1800  143.7040 C   0  0  1  0  0  3  0  0  0  0  0  0
  159.6910  212.4930  143.1120 C   0  0  0  0  0  2  0  0  0  0  0  0
  161.3800  211.7850  141.5370 C   0  0  0  0  0  2  0  0  0  0  0  0
  159.9700  212.3130  141.6430 C   0  0  0  0  0  2  0  0  0  0  0  0
  160.4670  213.8220  148.2460 C   0  0  0  0  0  2  0  0  0  0  0  0
  159.2100  213.4090  147.4940 C   0  0  0  0  0  2  0  0  0  0  0  0
  158.0920  213.5450  148.3160 O   0  0  0  0  0  0  0  0  0  0  0  0
  158.6140  213.8410  149.5730 C   0  0  0  0  0  1  0  0  0  0  0  0
  162.1390  209.1410  151.5540 C   0  0  0  0  0  2  0  0  0  0  0  0
  161.1130  208.0880  151.1590 C   0  0  2  0  0  3  0  0  0  0  0  0
  161.1560  206.9280  152.1420 C   0  0  0  0  0  2  0  0  0  0  0  0
  162.4180  206.3350  152.1330 O   0  0  0  0  0  1  0  0  0  0  0  0
  161.4300  207.5970  149.7570 C   0  0  0  0  0  2  0  0  0  0  0  0
  160.8480  206.2810  149.5520 N   0  0  0  0  0  2  0  0  0  0  0  0
  160.6250  206.1280  148.1240 C   0  0  0  0  0  2  0  0  0  0  0  0
  160.8870  204.6900  147.7200 C   0  0  1  0  0  3  0  0  0  0  0  0
  161.8100  204.6370  146.1860 S   0  0  0  0  0  0  0  0  0  0  0  0
  163.0750  203.8520  146.3890 O   0  0  0  0  0  0  0  0  0  0  0  0
  162.1580  206.0370  145.7610 O   0  0  0  0  0  0  0  0  0  0  0  0
  160.8380  203.8520  144.9120 C   0  0  0  0  0  2  0  0  0  0  0  0
  159.5050  201.8760  144.8400 O   0  0  0  0  0  0  0  0  0  0  0  0
  161.4000  201.7500  146.1230 O   0  0  0  0  0  1  0  0  0  0  0  0
  160.5440  202.4390  145.2760 C   0  0  0  0  0  0  0  0  0  0  0  0
  161.6560  203.9980  148.8330 C   0  0  0  0  0  2  0  0  0  0  0  0
  160.8010  202.8790  150.7550 O   0  0  0  0  0  1  0  0  0  0  0  0
  160.0230  202.1130  148.7390 O   0  0  0  0  0  0  0  0  0  0  0  0
  160.8100  202.9680  149.5010 C   0  0  0  0  0  0  0  0  0  0  0  0
  1  3  1  0  0  0  0
  1 26  1  0  0  0  0
  2  4  1  0  0  0  0
  3  2  2  0  0  0  0
  4  8  1  0  0  0  0
  4  9  2  0  0  0  0
  5  7  2  0  0  0  0
  6  5  1  0  0  0  0
  8 10  2  0  0  0  0
  9  6  1  0  0  0  0
 10  5  1  0  0  0  0
 11  1  1  0  0  0  0
 12 11  1  0  0  0  0
 13 12  1  0  0  0  0
 14 15  1  6  0  0  0
 14 13  1  0  0  0  0
 14 22  1  0  0  0  0
 16 15  2  0  0  0  0
 17 18  1  0  0  0  0
 18 16  1  1  0  0  0
 19 18  1  0  0  0  0
 20 21  1  0  0  0  0
 20 17  1  0  0  0  0
 21 19  1  0  0  0  0
 23 22  1  0  0  0  0
 23 24  1  0  0  0  0
 24 25  1  0  0  0  0
 27 30  1  6  0  0  0
 27 26  1  0  0  0  0
 27 28  1  0  0  0  0
 29 28  1  0  0  0  0
 31 30  1  0  0  0  0
 32 31  1  0  0  0  0
 33 32  1  1  0  0  0
 33 41  1  0  0  0  0
 34 35  2  0  0  0  0
 34 33  1  0  0  0  0
 36 34  2  0  0  0  0
 37 40  1  0  0  0  0
 37 34  1  0  0  0  0
 38 40  2  0  0  0  0
 40 39  1  0  0  0  0
 41 44  1  0  0  0  0
 43 44  2  0  0  0  0
 44 42  1  0  0  0  0
M  END
>  <MODEL>
2

>  <REMARK>
 VINA RESULT:      -4.6      2.995      7.696
  Name = 
  22 active torsions:
  status: ('A' for Active; 'I' for Inactive)
    1  A    between atoms: C_1  and  C_3
    2  A    between atoms: C_1  and  C_9
    3  A    between atoms: C_1  and  C_18
    4  A    between atoms: C_5  and  C_18
    5  A    between atoms: C_5  and  C_38
    6  A    between atoms: C_6  and  N_32
    7  A    between atoms: C_6  and  C_43
    8  A    between atoms: C_7  and  N_13
    9  A    between atoms: C_7  and  C_35
   10  A    between atoms: C_8  and  N_29
   11  A    between atoms: C_9  and  C_36
   12  A    between atoms: C_10  and  C_25
   13  A    between atoms: C_11  and  S_15
   14  A    between atoms: C_11  and  C_30
   15  A    between atoms: O_12  and  C_36
   16  A    between atoms: N_13  and  C_38
   17  A    between atoms: S_15  and  C_43
   18  A    between atoms: C_22  and  C_35
   19  A    between atoms: C_23  and  C_40
   20  A    between atoms: C_23  and  C_43
   21  A    between atoms: C_26  and  N_32
   22  A    between atoms: C_26  and  C_35
                            x       y       z     vdW  Elec       q    Type
                         _______ _______ _______ _____ _____    ______ ____

>  <TORSDO>
F 22

$$$$
=
 OpenBabel11042421483D

 44 45  0  0  1  0  0  0  0  0999 V2000
  161.9350  208.0010  149.3930 N   0  0  0  0  0  0  0  0  0  0  0  0
  160.1890  206.5400  148.6130 N   0  0  0  0  0  0  0  0  0  0  0  0
  160.7200  207.2600  149.5570 C   0  0  0  0  0  3  0  0  0  0  0  0
  160.7790  206.2320  147.3420 C   0  0  0  0  0  0  0  0  0  0  0  0
  161.8370  205.6980  144.8150 C   0  0  0  0  0  0  0  0  0  0  0  0
  162.6370  205.3240  146.0290 C   0  0  0  0  0  2  0  0  0  0  0  0
  162.3150  205.4660  143.6410 N   0  0  0  0  0  2  0  0  0  0  0  0
  159.9640  206.3600  146.1250 C   0  0  0  0  0  3  0  0  0  0  0  0
  161.9910  205.7600  147.2700 N   0  0  0  0  0  0  0  0  0  0  0  0
  160.4760  206.1150  144.9580 N   0  0  0  0  0  0  0  0  0  0  0  0
  162.7860  208.1760  150.5580 C   0  0  0  0  0  2  0  0  0  0  0  0
  162.6210  206.9950  151.5010 C   0  0  0  0  0  2  0  0  0  0  0  0
  161.5950  207.3100  152.5780 C   0  0  0  0  0  2  0  0  0  0  0  0
  160.8530  206.0580  153.0320 C   0  0  1  0  0  3  0  0  0  0  0  0
  161.3540  204.8360  152.3100 C   0  0  0  0  0  3  0  0  0  0  0  0
  160.7670  204.3740  151.2020 C   0  0  0  0  0  3  0  0  0  0  0  0
  160.6500  201.6660  151.3170 S   0  0  0  0  0  0  0  0  0  0  0  0
  161.2910  203.1640  150.5060 C   0  0  1  0  0  3  0  0  0  0  0  0
  160.8510  203.1480  149.0550 C   0  0  0  0  0  2  0  0  0  0  0  0
  160.1570  200.9330  149.7260 C   0  0  0  0  0  2  0  0  0  0  0  0
  160.8390  201.7050  148.6220 C   0  0  0  0  0  2  0  0  0  0  0  0
  160.9760  205.9180  154.5440 C   0  0  0  0  0  2  0  0  0  0  0  0
  160.4910  207.1690  155.2610 C   0  0  0  0  0  2  0  0  0  0  0  0
  161.5360  207.7440  155.9840 O   0  0  0  0  0  0  0  0  0  0  0  0
  160.9450  208.1860  157.1650 C   0  0  0  0  0  1  0  0  0  0  0  0
  162.0330  208.9650  148.3000 C   0  0  0  0  0  2  0  0  0  0  0  0
  161.5760  210.3490  148.7380 C   0  0  2  0  0  3  0  0  0  0  0  0
  162.1590  211.4050  147.8110 C   0  0  0  0  0  2  0  0  0  0  0  0
  162.6040  212.5010  148.5490 O   0  0  0  0  0  1  0  0  0  0  0  0
  162.0410  210.5910  150.1640 C   0  0  0  0  0  2  0  0  0  0  0  0
  161.0910  211.4470  150.8540 N   0  0  0  0  0  2  0  0  0  0  0  0
  160.6980  210.7580  152.0710 C   0  0  0  0  0  2  0  0  0  0  0  0
  159.6230  211.5570  152.7840 C   0  0  1  0  0  3  0  0  0  0  0  0
  159.9290  211.5690  154.5480 S   0  0  0  0  0  0  0  0  0  0  0  0
  159.7790  212.9690  155.0720 O   0  0  0  0  0  0  0  0  0  0  0  0
  161.3270  211.0850  154.8190 O   0  0  0  0  0  0  0  0  0  0  0  0
  158.7590  210.5090  155.3800 C   0  0  0  0  0  2  0  0  0  0  0  0
  157.1570  211.6990  156.6870 O   0  0  0  0  0  1  0  0  0  0  0  0
  156.5650  211.2990  154.5100 O   0  0  0  0  0  0  0  0  0  0  0  0
  157.4590  211.2100  155.5660 C   0  0  0  0  0  0  0  0  0  0  0  0
  159.6140  212.9720  152.2300 C   0  0  0  0  0  2  0  0  0  0  0  0
  157.4830  213.9480  152.6580 O   0  0  0  0  0  1  0  0  0  0  0  0
  157.7870  213.1300  150.5380 O   0  0  0  0  0  0  0  0  0  0  0  0
  158.2370  213.3760  151.8300 C   0  0  0  0  0  0  0  0  0  0  0  0
  1  3  1  0  0  0  0
  1 11  1  0  0  0  0
  2  3  2  0  0  0  0
  4  2  1  0  0  0  0
  5 10  1  0  0  0  0
  5  6  1  0  0  0  0
  6  9  1  0  0  0  0
  7  5  2  0  0  0  0
  8  4  1  0  0  0  0
  9  4  2  0  0  0  0
 10  8  2  0  0  0  0
 11 12  1  0  0  0  0
 12 13  1  0  0  0  0
 13 14  1  0  0  0  0
 14 15  1  6  0  0  0
 14 22  1  0  0  0  0
 16 15  2  0  0  0  0
 18 16  1  1  0  0  0
 18 17  1  0  0  0  0
 19 18  1  0  0  0  0
 20 17  1  0  0  0  0
 21 19  1  0  0  0  0
 21 20  1  0  0  0  0
 22 23  1  0  0  0  0
 23 24  1  0  0  0  0
 24 25  1  0  0  0  0
 26 27  1  0  0  0  0
 26  1  1  0  0  0  0
 27 28  1  6  0  0  0
 27 30  1  0  0  0  0
 28 29  1  0  0  0  0
 30 31  1  0  0  0  0
 31 32  1  0  0  0  0
 33 32  1  6  0  0  0
 33 34  1  0  0  0  0
 34 36  2  0  0  0  0
 34 35  2  0  0  0  0
 34 37  1  0  0  0  0
 37 40  1  0  0  0  0
 39 40  2  0  0  0  0
 40 38  1  0  0  0  0
 41 33  1  0  0  0  0
 43 44  2  0  0  0  0
 44 41  1  0  0  0  0
 44 42  1  0  0  0  0
M  END
>  <MODEL>
3

>  <REMARK>
 VINA RESULT:      -4.4      3.869      8.231
  Name = 
  22 active torsions:
  status: ('A' for Active; 'I' for Inactive)
    1  A    between atoms: C_1  and  C_3
    2  A    between atoms: C_1  and  C_9
    3  A    between atoms: C_1  and  C_18
    4  A    between atoms: C_5  and  C_18
    5  A    between atoms: C_5  and  C_38
    6  A    between atoms: C_6  and  N_32
    7  A    between atoms: C_6  and  C_43
    8  A    between atoms: C_7  and  N_13
    9  A    between atoms: C_7  and  C_35
   10  A    between atoms: C_8  and  N_29
   11  A    between atoms: C_9  and  C_36
   12  A    between atoms: C_10  and  C_25
   13  A    between atoms: C_11  and  S_15
   14  A    between atoms: C_11  and  C_30
   15  A    between atoms: O_12  and  C_36
   16  A    between atoms: N_13  and  C_38
   17  A    between atoms: S_15  and  C_43
   18  A    between atoms: C_22  and  C_35
   19  A    between atoms: C_23  and  C_40
   20  A    between atoms: C_23  and  C_43
   21  A    between atoms: C_26  and  N_32
   22  A    between atoms: C_26  and  C_35
                            x       y       z     vdW  Elec       q    Type
                         _______ _______ _______ _____ _____    ______ ____

>  <TORSDO>
F 22

$$$$
=
 OpenBabel11042421483D

 44 45  0  0  1  0  0  0  0  0999 V2000
  160.6470  212.4190  150.5460 N   0  0  0  0  0  0  0  0  0  0  0  0
  160.5250  214.4530  149.2650 N   0  0  0  0  0  0  0  0  0  0  0  0
  160.5400  213.8420  150.4140 C   0  0  0  0  0  3  0  0  0  0  0  0
  160.4470  213.8360  147.9730 C   0  0  0  0  0  0  0  0  0  0  0  0
  160.1680  212.6410  145.4660 C   0  0  0  0  0  0  0  0  0  0  0  0
  161.5310  213.0910  145.9070 C   0  0  0  0  0  2  0  0  0  0  0  0
  160.0210  212.0940  144.3080 N   0  0  0  0  0  2  0  0  0  0  0  0
  159.1980  213.1710  147.5730 C   0  0  0  0  0  3  0  0  0  0  0  0
  161.4910  213.7860  147.1960 N   0  0  0  0  0  0  0  0  0  0  0  0
  159.0850  212.6270  146.4000 N   0  0  0  0  0  0  0  0  0  0  0  0
  159.9940  211.7930  151.6840 C   0  0  0  0  0  2  0  0  0  0  0  0
  159.6830  212.8400  152.7420 C   0  0  0  0  0  2  0  0  0  0  0  0
  158.1810  213.0430  152.8670 C   0  0  0  0  0  2  0  0  0  0  0  0
  157.7170  212.9270  154.3140 C   0  0  1  0  0  3  0  0  0  0  0  0
  158.8140  212.3970  155.1980 C   0  0  0  0  0  3  0  0  0  0  0  0
  158.6390  211.3380  155.9920 C   0  0  0  0  0  3  0  0  0  0  0  0
  160.0230  209.0650  156.5200 S   0  0  0  0  0  0  0  0  0  0  0  0
  159.7480  210.8330  156.8520 C   0  0  1  0  0  3  0  0  0  0  0  0
  161.0350  211.5800  156.5590 C   0  0  0  0  0  2  0  0  0  0  0  0
  161.8200  209.3030  156.3610 C   0  0  0  0  0  2  0  0  0  0  0  0
  162.1650  210.6570  156.9340 C   0  0  0  0  0  2  0  0  0  0  0  0
  157.2040  214.2800  154.7900 C   0  0  0  0  0  2  0  0  0  0  0  0
  155.6950  214.2690  154.9810 C   0  0  0  0  0  2  0  0  0  0  0  0
  155.3820  214.3740  156.3360 O   0  0  0  0  0  0  0  0  0  0  0  0
  155.1740  213.0600  156.7510 C   0  0  0  0  0  1  0  0  0  0  0  0
  161.7720  211.7330  149.9170 C   0  0  0  0  0  2  0  0  0  0  0  0
  161.5640  210.2260  149.8990 C   0  0  2  0  0  3  0  0  0  0  0  0
  162.3830  209.5760  151.0040 C   0  0  0  0  0  2  0  0  0  0  0  0
  161.5420  208.9400  151.9180 O   0  0  0  0  0  1  0  0  0  0  0  0
  161.9930  209.6860  148.5460 C   0  0  0  0  0  2  0  0  0  0  0  0
  162.3650  208.2870  148.6670 N   0  0  0  0  0  2  0  0  0  0  0  0
  161.1340  207.5140  148.6660 C   0  0  0  0  0  2  0  0  0  0  0  0
  161.4250  206.0960  148.2110 C   0  0  1  0  0  3  0  0  0  0  0  0
  161.2210  204.9550  149.5750 S   0  0  0  0  0  0  0  0  0  0  0  0
  159.8050  205.0180  150.0740 O   0  0  0  0  0  0  0  0  0  0  0  0
  162.1570  205.3330  150.6910 O   0  0  0  0  0  0  0  0  0  0  0  0
  161.5750  203.2900  149.0400 C   0  0  0  0  0  2  0  0  0  0  0  0
  160.4490  202.1630  150.8150 O   0  0  0  0  0  1  0  0  0  0  0  0
  159.7480  201.6340  148.6990 O   0  0  0  0  0  0  0  0  0  0  0  0
  160.5580  202.3430  149.5730 C   0  0  0  0  0  0  0  0  0  0  0  0
  160.4840  205.7430  147.0710 C   0  0  0  0  0  2  0  0  0  0  0  0
  160.6470  205.2580  144.7430 O   0  0  0  0  0  0  0  0  0  0  0  0
  162.5260  206.1600  145.6980 O   0  0  0  0  0  1  0  0  0  0  0  0
  161.2170  205.7010  145.7730 C   0  0  0  0  0  0  0  0  0  0  0  0
  1 11  1  0  0  0  0
  2  3  2  0  0  0  0
  3  1  1  0  0  0  0
  4  2  1  0  0  0  0
  5  6  1  0  0  0  0
  5 10  1  0  0  0  0
  6  9  1  0  0  0  0
  7  5  2  0  0  0  0
  8  4  1  0  0  0  0
  9  4  2  0  0  0  0
 10  8  2  0  0  0  0
 11 12  1  0  0  0  0
 12 13  1  0  0  0  0
 14 13  1  6  0  0  0
 14 22  1  0  0  0  0
 14 15  1  0  0  0  0
 15 16  2  0  0  0  0
 17 18  1  0  0  0  0
 18 16  1  6  0  0  0
 19 18  1  0  0  0  0
 19 21  1  0  0  0  0
 20 17  1  0  0  0  0
 20 21  1  0  0  0  0
 22 23  1  0  0  0  0
 23 24  1  0  0  0  0
 24 25  1  0  0  0  0
 26  1  1  0  0  0  0
 27 30  1  6  0  0  0
 27 26  1  0  0  0  0
 27 28  1  0  0  0  0
 28 29  1  0  0  0  0
 30 31  1  0  0  0  0
 32 31  1  0  0  0  0
 33 41  1  6  0  0  0
 33 32  1  0  0  0  0
 33 34  1  0  0  0  0
 34 35  2  0  0  0  0
 34 36  2  0  0  0  0
 37 40  1  0  0  0  0
 37 34  1  0  0  0  0
 39 40  2  0  0  0  0
 40 38  1  0  0  0  0
 42 44  2  0  0  0  0
 43 44  1  0  0  0  0
 44 41  1  0  0  0  0
M  END
>  <MODEL>
4

>  <REMARK>
 VINA RESULT:      -4.2      3.933      9.235
  Name = 
  22 active torsions:
  status: ('A' for Active; 'I' for Inactive)
    1  A    between atoms: C_1  and  C_3
    2  A    between atoms: C_1  and  C_9
    3  A    between atoms: C_1  and  C_18
    4  A    between atoms: C_5  and  C_18
    5  A    between atoms: C_5  and  C_38
    6  A    between atoms: C_6  and  N_32
    7  A    between atoms: C_6  and  C_43
    8  A    between atoms: C_7  and  N_13
    9  A    between atoms: C_7  and  C_35
   10  A    between atoms: C_8  and  N_29
   11  A    between atoms: C_9  and  C_36
   12  A    between atoms: C_10  and  C_25
   13  A    between atoms: C_11  and  S_15
   14  A    between atoms: C_11  and  C_30
   15  A    between atoms: O_12  and  C_36
   16  A    between atoms: N_13  and  C_38
   17  A    between atoms: S_15  and  C_43
   18  A    between atoms: C_22  and  C_35
   19  A    between atoms: C_23  and  C_40
   20  A    between atoms: C_23  and  C_43
   21  A    between atoms: C_26  and  N_32
   22  A    between atoms: C_26  and  C_35
                            x       y       z     vdW  Elec       q    Type
                         _______ _______ _______ _____ _____    ______ ____

>  <TORSDO>
F 22

$$$$
=
 OpenBabel11042421483D

 44 45  0  0  1  0  0  0  0  0999 V2000
  162.1350  207.8570  149.3550 N   0  0  0  0  0  0  0  0  0  0  0  0
  160.2090  206.6260  148.6030 N   0  0  0  0  0  0  0  0  0  0  0  0
  160.8550  207.2440  149.5480 C   0  0  0  0  0  3  0  0  0  0  0  0
  160.7090  206.3090  147.2960 C   0  0  0  0  0  0  0  0  0  0  0  0
  161.5760  205.7460  144.7040 C   0  0  0  0  0  0  0  0  0  0  0  0
  162.5320  205.5520  145.8460 C   0  0  0  0  0  2  0  0  0  0  0  0
  161.9640  205.4980  143.5000 N   0  0  0  0  0  2  0  0  0  0  0  0
  159.7700  206.2570  146.1650 C   0  0  0  0  0  3  0  0  0  0  0  0
  161.9590  205.9860  147.1230 N   0  0  0  0  0  0  0  0  0  0  0  0
  160.1940  206.0010  144.9660 N   0  0  0  0  0  0  0  0  0  0  0  0
  163.0480  207.8910  150.4860 C   0  0  0  0  0  2  0  0  0  0  0  0
  162.2750  207.6970  151.7800 C   0  0  0  0  0  2  0  0  0  0  0  0
  162.2800  206.2330  152.1910 C   0  0  0  0  0  2  0  0  0  0  0  0
  160.9080  205.7800  152.6760 C   0  0  1  0  0  3  0  0  0  0  0  0
  160.4840  204.5050  151.9990 C   0  0  0  0  0  3  0  0  0  0  0  0
  160.8760  204.1920  150.7600 C   0  0  0  0  0  3  0  0  0  0  0  0
  160.9300  202.9190  148.3660 S   0  0  0  0  0  0  0  0  0  0  0  0
  160.4430  202.9170  150.1190 C   0  0  1  0  0  3  0  0  0  0  0  0
  161.0970  201.7280  150.7960 C   0  0  0  0  0  2  0  0  0  0  0  0
  161.6460  201.2500  148.4920 C   0  0  0  0  0  2  0  0  0  0  0  0
  161.1500  200.6230  149.7730 C   0  0  0  0  0  2  0  0  0  0  0  0
  160.9300  205.6400  154.1930 C   0  0  0  0  0  2  0  0  0  0  0  0
  160.4600  206.9150  154.8770 C   0  0  0  0  0  2  0  0  0  0  0  0
  160.2050  206.6700  156.2270 O   0  0  0  0  0  0  0  0  0  0  0  0
  160.4490  207.8880  156.8570 C   0  0  0  0  0  1  0  0  0  0  0  0
  162.2910  208.8500  148.2960 C   0  0  0  0  0  2  0  0  0  0  0  0
  161.6410  210.1730  148.6750 C   0  0  2  0  0  3  0  0  0  0  0  0
  161.9110  211.2120  147.5970 C   0  0  0  0  0  2  0  0  0  0  0  0
  163.0070  211.9990  147.9510 O   0  0  0  0  0  1  0  0  0  0  0  0
  162.2120  210.6380  150.0040 C   0  0  0  0  0  2  0  0  0  0  0  0
  161.2660  211.5200  150.6660 N   0  0  0  0  0  2  0  0  0  0  0  0
  160.5360  210.7180  151.6330 C   0  0  0  0  0  2  0  0  0  0  0  0
  160.4530  211.4630  152.9520 C   0  0  1  0  0  3  0  0  0  0  0  0
  158.8870  212.3220  153.0800 S   0  0  0  0  0  0  0  0  0  0  0  0
  158.3000  212.4990  151.7090 O   0  0  0  0  0  0  0  0  0  0  0  0
  159.1050  213.6740  153.7040 O   0  0  0  0  0  0  0  0  0  0  0  0
  157.7500  211.3800  154.0820 C   0  0  0  0  0  2  0  0  0  0  0  0
  156.7160  212.4150  155.9650 O   0  0  0  0  0  1  0  0  0  0  0  0
  155.8160  212.9400  153.9240 O   0  0  0  0  0  0  0  0  0  0  0  0
  156.7440  212.2780  154.7130 C   0  0  0  0  0  0  0  0  0  0  0  0
  160.6140  210.4690  154.0900 C   0  0  0  0  0  2  0  0  0  0  0  0
  160.9270  211.8440  156.0120 O   0  0  0  0  0  1  0  0  0  0  0  0
  162.7840  210.7020  155.3020 O   0  0  0  0  0  0  0  0  0  0  0  0
  161.4430  211.0480  155.1860 C   0  0  0  0  0  0  0  0  0  0  0  0
  1  3  1  0  0  0  0
  1 11  1  0  0  0  0
  2  3  2  0  0  0  0
  4  2  1  0  0  0  0
  5 10  1  0  0  0  0
  5  6  1  0  0  0  0
  6  9  1  0  0  0  0
  7  5  2  0  0  0  0
  8  4  1  0  0  0  0
  9  4  2  0  0  0  0
 10  8  2  0  0  0  0
 11 12  1  0  0  0  0
 12 13  1  0  0  0  0
 13 14  1  0  0  0  0
 14 15  1  6  0  0  0
 14 22  1  0  0  0  0
 16 15  2  0  0  0  0
 17 20  1  0  0  0  0
 17 18  1  0  0  0  0
 18 16  1  1  0  0  0
 18 19  1  0  0  0  0
 20 21  1  0  0  0  0
 21 19  1  0  0  0  0
 22 23  1  0  0  0  0
 23 24  1  0  0  0  0
 24 25  1  0  0  0  0
 26 27  1  0  0  0  0
 26  1  1  0  0  0  0
 27 28  1  6  0  0  0
 27 30  1  0  0  0  0
 28 29  1  0  0  0  0
 30 31  1  0  0  0  0
 31 32  1  0  0  0  0
 33 32  1  6  0  0  0
 33 34  1  0  0  0  0
 33 41  1  0  0  0  0
 34 36  2  0  0  0  0
 34 37  1  0  0  0  0
 35 34  2  0  0  0  0
 37 40  1  0  0  0  0
 39 40  2  0  0  0  0
 40 38  1  0  0  0  0
 41 44  1  0  0  0  0
 44 43  2  0  0  0  0
 44 42  1  0  0  0  0
M  END
>  <MODEL>
5

>  <REMARK>
 VINA RESULT:      -4.2      3.787      8.101
  Name = 
  22 active torsions:
  status: ('A' for Active; 'I' for Inactive)
    1  A    between atoms: C_1  and  C_3
    2  A    between atoms: C_1  and  C_9
    3  A    between atoms: C_1  and  C_18
    4  A    between atoms: C_5  and  C_18
    5  A    between atoms: C_5  and  C_38
    6  A    between atoms: C_6  and  N_32
    7  A    between atoms: C_6  and  C_43
    8  A    between atoms: C_7  and  N_13
    9  A    between atoms: C_7  and  C_35
   10  A    between atoms: C_8  and  N_29
   11  A    between atoms: C_9  and  C_36
   12  A    between atoms: C_10  and  C_25
   13  A    between atoms: C_11  and  S_15
   14  A    between atoms: C_11  and  C_30
   15  A    between atoms: O_12  and  C_36
   16  A    between atoms: N_13  and  C_38
   17  A    between atoms: S_15  and  C_43
   18  A    between atoms: C_22  and  C_35
   19  A    between atoms: C_23  and  C_40
   20  A    between atoms: C_23  and  C_43
   21  A    between atoms: C_26  and  N_32
   22  A    between atoms: C_26  and  C_35
                            x       y       z     vdW  Elec       q    Type
                         _______ _______ _______ _____ _____    ______ ____

>  <TORSDO>
F 22

$$$$
=
 OpenBabel11042421483D

 44 45  0  0  1  0  0  0  0  0999 V2000
  161.3930  208.9500  152.9940 N   0  0  0  0  0  0  0  0  0  0  0  0
  160.6700  209.3080  155.2610 N   0  0  0  0  0  0  0  0  0  0  0  0
  161.3350  208.6130  154.3850 C   0  0  0  0  0  3  0  0  0  0  0  0
  159.7740  210.3940  154.9850 C   0  0  0  0  0  0  0  0  0  0  0  0
  158.1310  212.5750  154.4100 C   0  0  0  0  0  0  0  0  0  0  0  0
  157.4940  211.2550  154.7370 C   0  0  0  0  0  2  0  0  0  0  0  0
  157.3850  213.5900  154.1340 N   0  0  0  0  0  2  0  0  0  0  0  0
  160.3150  211.7580  154.8810 C   0  0  0  0  0  3  0  0  0  0  0  0
  158.4890  210.1930  154.9140 N   0  0  0  0  0  0  0  0  0  0  0  0
  159.5360  212.7580  154.6050 N   0  0  0  0  0  0  0  0  0  0  0  0
  161.5230  207.8630  152.0380 C   0  0  0  0  0  2  0  0  0  0  0  0
  160.7120  206.6640  152.5050 C   0  0  0  0  0  2  0  0  0  0  0  0
  161.5390  205.3910  152.4100 C   0  0  0  0  0  2  0  0  0  0  0  0
  161.1550  204.5630  151.1890 C   0  0  1  0  0  3  0  0  0  0  0  0
  161.6180  205.2200  149.9170 C   0  0  0  0  0  3  0  0  0  0  0  0
  160.7890  205.4560  148.8960 C   0  0  0  0  0  3  0  0  0  0  0  0
  162.6410  205.1450  146.9390 S   0  0  0  0  0  0  0  0  0  0  0  0
  161.2770  206.1150  147.6500 C   0  0  1  0  0  3  0  0  0  0  0  0
  160.1660  206.2040  146.6210 C   0  0  0  0  0  2  0  0  0  0  0  0
  161.8990  205.1890  145.2780 C   0  0  0  0  0  2  0  0  0  0  0  0
  160.8310  206.2570  145.2710 C   0  0  0  0  0  2  0  0  0  0  0  0
  161.7140  203.1530  151.3400 C   0  0  0  0  0  2  0  0  0  0  0  0
  160.6750  202.1000  150.9870 C   0  0  0  0  0  2  0  0  0  0  0  0
  160.4200  202.1180  149.6160 O   0  0  0  0  0  0  0  0  0  0  0  0
  161.0570  200.9800  149.1250 C   0  0  0  0  0  1  0  0  0  0  0  0
  161.8460  210.2830  152.6080 C   0  0  0  0  0  2  0  0  0  0  0  0
  161.2860  210.6890  151.2520 C   0  0  2  0  0  3  0  0  0  0  0  0
  162.2740  210.3300  150.1530 C   0  0  0  0  0  2  0  0  0  0  0  0
  162.0580  209.0220  149.7190 O   0  0  0  0  0  1  0  0  0  0  0  0
  161.0300  212.1870  151.2550 C   0  0  0  0  0  2  0  0  0  0  0  0
  159.7770  212.4750  150.5780 N   0  0  0  0  0  2  0  0  0  0  0  0
  159.8770  213.8230  150.0450 C   0  0  0  0  0  2  0  0  0  0  0  0
  159.1420  213.9010  148.7210 C   0  0  1  0  0  3  0  0  0  0  0  0
  160.1840  213.2930  147.3980 S   0  0  0  0  0  0  0  0  0  0  0  0
  160.6340  211.8960  147.7170 O   0  0  0  0  0  0  0  0  0  0  0  0
  161.3890  214.1830  147.2580 O   0  0  0  0  0  0  0  0  0  0  0  0
  159.2770  213.2750  145.8610 C   0  0  0  0  0  2  0  0  0  0  0  0
  160.7700  214.2390  144.2710 O   0  0  0  0  0  1  0  0  0  0  0  0
  160.4430  211.9790  144.0840 O   0  0  0  0  0  0  0  0  0  0  0  0
  160.2110  213.1970  144.7050 C   0  0  0  0  0  0  0  0  0  0  0  0
  157.8650  213.0830  148.8170 C   0  0  0  0  0  2  0  0  0  0  0  0
  157.2520  214.4260  150.6880 O   0  0  0  0  0  1  0  0  0  0  0  0
  155.5110  213.6660  149.4060 O   0  0  0  0  0  0  0  0  0  0  0  0
  156.8670  213.7600  149.6930 C   0  0  0  0  0  0  0  0  0  0  0  0
  1  3  1  0  0  0  0
  3  2  2  0  0  0  0
  4  2  1  0  0  0  0
  5 10  1  0  0  0  0
  5  6  1  0  0  0  0
  6  9  1  0  0  0  0
  7  5  2  0  0  0  0
  8  4  1  0  0  0  0
  9  4  2  0  0  0  0
 10  8  2  0  0  0  0
 11 12  1  0  0  0  0
 11  1  1  0  0  0  0
 13 12  1  0  0  0  0
 14 15  1  6  0  0  0
 14 22  1  0  0  0  0
 14 13  1  0  0  0  0
 16 15  2  0  0  0  0
 17 18  1  0  0  0  0
 18 16  1  1  0  0  0
 19 18  1  0  0  0  0
 20 17  1  0  0  0  0
 21 20  1  0  0  0  0
 21 19  1  0  0  0  0
 23 22  1  0  0  0  0
 24 23  1  0  0  0  0
 25 24  1  0  0  0  0
 26  1  1  0  0  0  0
 27 28  1  6  0  0  0
 27 30  1  0  0  0  0
 27 26  1  0  0  0  0
 29 28  1  0  0  0  0
 31 30  1  0  0  0  0
 32 31  1  0  0  0  0
 33 41  1  1  0  0  0
 33 32  1  0  0  0  0
 34 35  2  0  0  0  0
 34 33  1  0  0  0  0
 36 34  2  0  0  0  0
 37 34  1  0  0  0  0
 38 40  1  0  0  0  0
 39 40  2  0  0  0  0
 40 37  1  0  0  0  0
 41 44  1  0  0  0  0
 43 44  2  0  0  0  0
 44 42  1  0  0  0  0
M  END
>  <MODEL>
6

>  <REMARK>
 VINA RESULT:      -4.1      1.913      3.447
  Name = 
  22 active torsions:
  status: ('A' for Active; 'I' for Inactive)
    1  A    between atoms: C_1  and  C_3
    2  A    between atoms: C_1  and  C_9
    3  A    between atoms: C_1  and  C_18
    4  A    between atoms: C_5  and  C_18
    5  A    between atoms: C_5  and  C_38
    6  A    between atoms: C_6  and  N_32
    7  A    between atoms: C_6  and  C_43
    8  A    between atoms: C_7  and  N_13
    9  A    between atoms: C_7  and  C_35
   10  A    between atoms: C_8  and  N_29
   11  A    between atoms: C_9  and  C_36
   12  A    between atoms: C_10  and  C_25
   13  A    between atoms: C_11  and  S_15
   14  A    between atoms: C_11  and  C_30
   15  A    between atoms: O_12  and  C_36
   16  A    between atoms: N_13  and  C_38
   17  A    between atoms: S_15  and  C_43
   18  A    between atoms: C_22  and  C_35
   19  A    between atoms: C_23  and  C_40
   20  A    between atoms: C_23  and  C_43
   21  A    between atoms: C_26  and  N_32
   22  A    between atoms: C_26  and  C_35
                            x       y       z     vdW  Elec       q    Type
                         _______ _______ _______ _____ _____    ______ ____

>  <TORSDO>
F 22

$$$$
=
 OpenBabel11042421483D

 44 45  0  0  1  0  0  0  0  0999 V2000
  160.2650  212.8130  150.8170 N   0  0  0  0  0  0  0  0  0  0  0  0
  160.4670  214.4450  149.0600 N   0  0  0  0  0  0  0  0  0  0  0  0
  160.7850  214.0210  150.2480 C   0  0  0  0  0  3  0  0  0  0  0  0
  159.4560  213.8990  148.2020 C   0  0  0  0  0  0  0  0  0  0  0  0
  157.5780  212.7830  146.4660 C   0  0  0  0  0  0  0  0  0  0  0  0
  157.0970  213.4390  147.7270 C   0  0  0  0  0  2  0  0  0  0  0  0
  156.7250  212.2550  145.6570 N   0  0  0  0  0  2  0  0  0  0  0  0
  159.8300  213.4470  146.8540 C   0  0  0  0  0  3  0  0  0  0  0  0
  158.2080  213.8830  148.5740 N   0  0  0  0  0  0  0  0  0  0  0  0
  158.9440  212.9230  146.0640 N   0  0  0  0  0  0  0  0  0  0  0  0
  160.0910  212.7630  152.2590 C   0  0  0  0  0  2  0  0  0  0  0  0
  158.8590  211.9410  152.6020 C   0  0  0  0  0  2  0  0  0  0  0  0
  158.0520  212.6210  153.6980 C   0  0  0  0  0  2  0  0  0  0  0  0
  158.4320  212.1010  155.0800 C   0  0  1  0  0  3  0  0  0  0  0  0
  159.3510  210.9130  154.9820 C   0  0  0  0  0  3  0  0  0  0  0  0
  159.8210  210.2860  156.0640 C   0  0  0  0  0  3  0  0  0  0  0  0
  160.0000  207.6820  156.8040 S   0  0  0  0  0  0  0  0  0  0  0  0
  160.7250  209.1070  155.9340 C   0  0  1  0  0  3  0  0  0  0  0  0
  160.9100  208.7330  154.4760 C   0  0  0  0  0  2  0  0  0  0  0  0
  160.2820  206.5830  155.3820 C   0  0  0  0  0  2  0  0  0  0  0  0
  161.2510  207.2660  154.4470 C   0  0  0  0  0  2  0  0  0  0  0  0
  159.0480  213.2330  155.8930 C   0  0  0  0  0  2  0  0  0  0  0  0
  158.0060  213.9350  156.7500 C   0  0  0  0  0  2  0  0  0  0  0  0
  156.9530  213.0650  157.0330 O   0  0  0  0  0  0  0  0  0  0  0  0
  155.8140  213.8660  156.9860 C   0  0  0  0  0  1  0  0  0  0  0  0
  160.4270  211.5600  150.0840 C   0  0  0  0  0  2  0  0  0  0  0  0
  161.8970  211.2250  149.8770 C   0  0  2  0  0  3  0  0  0  0  0  0
  162.2040  211.1360  148.3890 C   0  0  0  0  0  2  0  0  0  0  0  0
  162.7060  212.3530  147.9270 O   0  0  0  0  0  1  0  0  0  0  0  0
  162.1980  209.8980  150.5520 C   0  0  0  0  0  2  0  0  0  0  0  0
  161.9300  208.8040  149.6340 N   0  0  0  0  0  2  0  0  0  0  0  0
  162.3760  207.5820  150.2800 C   0  0  0  0  0  2  0  0  0  0  0  0
  161.9880  206.3860  149.4310 C   0  0  1  0  0  3  0  0  0  0  0  0
  161.2060  205.1350  150.4450 S   0  0  0  0  0  0  0  0  0  0  0  0
  159.8720  205.6360  150.9200 O   0  0  0  0  0  0  0  0  0  0  0  0
  162.0770  204.8360  151.6350 O   0  0  0  0  0  0  0  0  0  0  0  0
  160.9610  203.6420  149.4980 C   0  0  0  0  0  2  0  0  0  0  0  0
  160.9450  201.2900  149.8920 O   0  0  0  0  0  0  0  0  0  0  0  0
  161.0960  202.6100  151.7590 O   0  0  0  0  0  1  0  0  0  0  0  0
  161.0100  202.4480  150.3850 C   0  0  0  0  0  0  0  0  0  0  0  0
  161.0480  206.8490  148.3300 C   0  0  0  0  0  2  0  0  0  0  0  0
  162.4410  205.5890  146.8640 O   0  0  0  0  0  1  0  0  0  0  0  0
  160.3200  206.0010  146.0990 O   0  0  0  0  0  0  0  0  0  0  0  0
  161.3160  206.1150  147.0610 C   0  0  0  0  0  0  0  0  0  0  0  0
  1 11  1  0  0  0  0
  2  3  2  0  0  0  0
  3  1  1  0  0  0  0
  4  9  2  0  0  0  0
  4  2  1  0  0  0  0
  5  6  1  0  0  0  0
  6  9  1  0  0  0  0
  7  5  2  0  0  0  0
  8  4  1  0  0  0  0
 10  5  1  0  0  0  0
 10  8  2  0  0  0  0
 11 12  1  0  0  0  0
 12 13  1  0  0  0  0
 14 13  1  6  0  0  0
 14 22  1  0  0  0  0
 15 14  1  0  0  0  0
 15 16  2  0  0  0  0
 18 16  1  6  0  0  0
 18 17  1  0  0  0  0
 19 18  1  0  0  0  0
 20 17  1  0  0  0  0
 21 19  1  0  0  0  0
 21 20  1  0  0  0  0
 22 23  1  0  0  0  0
 23 24  1  0  0  0  0
 25 24  1  0  0  0  0
 26  1  1  0  0  0  0
 27 28  1  6  0  0  0
 27 26  1  0  0  0  0
 27 30  1  0  0  0  0
 29 28  1  0  0  0  0
 31 32  1  0  0  0  0
 31 30  1  0  0  0  0
 33 41  1  6  0  0  0
 33 32  1  0  0  0  0
 33 34  1  0  0  0  0
 34 35  2  0  0  0  0
 34 36  2  0  0  0  0
 37 40  1  0  0  0  0
 37 34  1  0  0  0  0
 38 40  2  0  0  0  0
 40 39  1  0  0  0  0
 42 44  1  0  0  0  0
 43 44  2  0  0  0  0
 44 41  1  0  0  0  0
M  END
>  <MODEL>
7

>  <REMARK>
 VINA RESULT:      -4.1      3.400      8.653
  Name = 
  22 active torsions:
  status: ('A' for Active; 'I' for Inactive)
    1  A    between atoms: C_1  and  C_3
    2  A    between atoms: C_1  and  C_9
    3  A    between atoms: C_1  and  C_18
    4  A    between atoms: C_5  and  C_18
    5  A    between atoms: C_5  and  C_38
    6  A    between atoms: C_6  and  N_32
    7  A    between atoms: C_6  and  C_43
    8  A    between atoms: C_7  and  N_13
    9  A    between atoms: C_7  and  C_35
   10  A    between atoms: C_8  and  N_29
   11  A    between atoms: C_9  and  C_36
   12  A    between atoms: C_10  and  C_25
   13  A    between atoms: C_11  and  S_15
   14  A    between atoms: C_11  and  C_30
   15  A    between atoms: O_12  and  C_36
   16  A    between atoms: N_13  and  C_38
   17  A    between atoms: S_15  and  C_43
   18  A    between atoms: C_22  and  C_35
   19  A    between atoms: C_23  and  C_40
   20  A    between atoms: C_23  and  C_43
   21  A    between atoms: C_26  and  N_32
   22  A    between atoms: C_26  and  C_35
                            x       y       z     vdW  Elec       q    Type
                         _______ _______ _______ _____ _____    ______ ____

>  <TORSDO>
F 22

$$$$
=
 OpenBabel11042421483D

 44 45  0  0  1  0  0  0  0  0999 V2000
  161.9600  207.7570  150.9640 N   0  0  0  0  0  0  0  0  0  0  0  0
  162.3390  206.3720  152.8950 N   0  0  0  0  0  0  0  0  0  0  0  0
  162.4510  206.5790  151.6150 C   0  0  0  0  0  3  0  0  0  0  0  0
  161.5880  207.1650  153.8240 C   0  0  0  0  0  0  0  0  0  0  0  0
  160.0800  208.6030  155.6810 C   0  0  0  0  0  0  0  0  0  0  0  0
  161.1130  209.3290  154.8690 C   0  0  0  0  0  2  0  0  0  0  0  0
  159.3810  209.2510  156.5480 N   0  0  0  0  0  2  0  0  0  0  0  0
  160.4160  206.5740  154.4850 C   0  0  0  0  0  3  0  0  0  0  0  0
  161.8840  208.4190  154.0170 N   0  0  0  0  0  0  0  0  0  0  0  0
  159.7310  207.2550  155.3510 N   0  0  0  0  0  0  0  0  0  0  0  0
  161.5010  207.6290  149.5900 C   0  0  0  0  0  2  0  0  0  0  0  0
  160.3650  206.6220  149.5160 C   0  0  0  0  0  2  0  0  0  0  0  0
  160.6900  205.3880  150.3420 C   0  0  0  0  0  2  0  0  0  0  0  0
  160.4920  204.1070  149.5400 C   0  0  1  0  0  3  0  0  0  0  0  0
  160.8400  204.3120  148.0910 C   0  0  0  0  0  3  0  0  0  0  0  0
  161.9720  203.8430  147.5580 C   0  0  0  0  0  3  0  0  0  0  0  0
  160.7900  203.7800  145.1170 S   0  0  0  0  0  0  0  0  0  0  0  0
  162.2860  204.0570  146.1150 C   0  0  1  0  0  3  0  0  0  0  0  0
  162.7640  205.4770  145.8760 C   0  0  0  0  0  2  0  0  0  0  0  0
  161.0340  205.3300  144.1960 C   0  0  0  0  0  2  0  0  0  0  0  0
  162.4470  205.8030  144.4400 C   0  0  0  0  0  2  0  0  0  0  0  0
  161.3100  202.9860  150.1700 C   0  0  0  0  0  2  0  0  0  0  0  0
  160.4150  201.9290  150.7990 C   0  0  0  0  0  2  0  0  0  0  0  0
  160.0350  200.9890  149.8410 O   0  0  0  0  0  0  0  0  0  0  0  0
  161.1720  200.8070  149.0570 C   0  0  0  0  0  1  0  0  0  0  0  0
  162.4010  209.0650  151.4390 C   0  0  0  0  0  2  0  0  0  0  0  0
  161.5360  210.1820  150.8730 C   0  0  2  0  0  3  0  0  0  0  0  0
  162.3030  210.9380  149.7990 C   0  0  0  0  0  2  0  0  0  0  0  0
  161.4160  211.5160  148.8900 O   0  0  0  0  0  1  0  0  0  0  0  0
  161.1510  211.1240  152.0010 C   0  0  0  0  0  2  0  0  0  0  0  0
  159.7070  211.2760  152.0470 N   0  0  0  0  0  2  0  0  0  0  0  0
  159.4290  212.6880  152.2460 C   0  0  0  0  0  2  0  0  0  0  0  0
  157.9500  212.9490  152.0370 C   0  0  1  0  0  3  0  0  0  0  0  0
  157.1550  213.2940  153.6040 S   0  0  0  0  0  0  0  0  0  0  0  0
  155.7380  213.7290  153.3620 O   0  0  0  0  0  0  0  0  0  0  0  0
  157.8970  214.3930  154.3130 O   0  0  0  0  0  0  0  0  0  0  0  0
  157.1470  211.8290  154.6230 C   0  0  0  0  0  2  0  0  0  0  0  0
  157.7850  212.2440  156.8830 O   0  0  0  0  0  1  0  0  0  0  0  0
  155.5430  212.4060  156.4370 O   0  0  0  0  0  0  0  0  0  0  0  0
  156.8520  212.1800  156.0390 C   0  0  0  0  0  0  0  0  0  0  0  0
  157.7870  214.1220  151.0830 C   0  0  0  0  0  2  0  0  0  0  0  0
  156.5470  213.2250  149.2570 O   0  0  0  0  0  1  0  0  0  0  0  0
  158.7530  213.6780  148.8250 O   0  0  0  0  0  0  0  0  0  0  0  0
  157.6550  213.6460  149.6770 C   0  0  0  0  0  0  0  0  0  0  0  0
  1 26  1  0  0  0  0
  1  3  1  0  0  0  0
  2  4  1  0  0  0  0
  3  2  2  0  0  0  0
  4  9  2  0  0  0  0
  4  8  1  0  0  0  0
  5  7  2  0  0  0  0
  6  5  1  0  0  0  0
  8 10  2  0  0  0  0
  9  6  1  0  0  0  0
 10  5  1  0  0  0  0
 11  1  1  0  0  0  0
 12 11  1  0  0  0  0
 12 13  1  0  0  0  0
 14 15  1  6  0  0  0
 14 22  1  0  0  0  0
 14 13  1  0  0  0  0
 16 15  2  0  0  0  0
 17 18  1  0  0  0  0
 18 16  1  1  0  0  0
 19 18  1  0  0  0  0
 20 21  1  0  0  0  0
 20 17  1  0  0  0  0
 21 19  1  0  0  0  0
 22 23  1  0  0  0  0
 24 23  1  0  0  0  0
 25 24  1  0  0  0  0
 27 28  1  6  0  0  0
 27 26  1  0  0  0  0
 27 30  1  0  0  0  0
 29 28  1  0  0  0  0
 30 31  1  0  0  0  0
 31 32  1  0  0  0  0
 33 41  1  6  0  0  0
 33 32  1  0  0  0  0
 33 34  1  0  0  0  0
 34 36  2  0  0  0  0
 34 37  1  0  0  0  0
 35 34  2  0  0  0  0
 37 40  1  0  0  0  0
 40 39  2  0  0  0  0
 40 38  1  0  0  0  0
 42 44  1  0  0  0  0
 43 44  2  0  0  0  0
 44 41  1  0  0  0  0
M  END
>  <MODEL>
8

>  <REMARK>
 VINA RESULT:      -4.0      3.340      6.372
  Name = 
  22 active torsions:
  status: ('A' for Active; 'I' for Inactive)
    1  A    between atoms: C_1  and  C_3
    2  A    between atoms: C_1  and  C_9
    3  A    between atoms: C_1  and  C_18
    4  A    between atoms: C_5  and  C_18
    5  A    between atoms: C_5  and  C_38
    6  A    between atoms: C_6  and  N_32
    7  A    between atoms: C_6  and  C_43
    8  A    between atoms: C_7  and  N_13
    9  A    between atoms: C_7  and  C_35
   10  A    between atoms: C_8  and  N_29
   11  A    between atoms: C_9  and  C_36
   12  A    between atoms: C_10  and  C_25
   13  A    between atoms: C_11  and  S_15
   14  A    between atoms: C_11  and  C_30
   15  A    between atoms: O_12  and  C_36
   16  A    between atoms: N_13  and  C_38
   17  A    between atoms: S_15  and  C_43
   18  A    between atoms: C_22  and  C_35
   19  A    between atoms: C_23  and  C_40
   20  A    between atoms: C_23  and  C_43
   21  A    between atoms: C_26  and  N_32
   22  A    between atoms: C_26  and  C_35
                            x       y       z     vdW  Elec       q    Type
                         _______ _______ _______ _____ _____    ______ ____

>  <TORSDO>
F 22

$$$$
=
 OpenBabel11042421483D

 44 45  0  0  1  0  0  0  0  0999 V2000
  161.7960  208.8080  151.3610 N   0  0  0  0  0  0  0  0  0  0  0  0
  160.0520  209.5860  152.8250 N   0  0  0  0  0  0  0  0  0  0  0  0
  160.4620  209.2490  151.6370 C   0  0  0  0  0  3  0  0  0  0  0  0
  160.8660  209.7340  153.9970 C   0  0  0  0  0  0  0  0  0  0  0  0
  162.4880  210.1350  156.2320 C   0  0  0  0  0  0  0  0  0  0  0  0
  161.5260  208.9820  156.2330 C   0  0  0  0  0  2  0  0  0  0  0  0
  163.2380  210.3380  157.2610 N   0  0  0  0  0  2  0  0  0  0  0  0
  161.9800  210.6940  153.9770 C   0  0  0  0  0  3  0  0  0  0  0  0
  160.6810  208.9690  155.0350 N   0  0  0  0  0  0  0  0  0  0  0  0
  162.7180  210.8720  155.0290 N   0  0  0  0  0  0  0  0  0  0  0  0
  162.3540  209.1120  150.0540 C   0  0  0  0  0  2  0  0  0  0  0  0
  161.5540  210.2250  149.3970 C   0  0  0  0  0  2  0  0  0  0  0  0
  162.1430  211.5830  149.7460 C   0  0  0  0  0  2  0  0  0  0  0  0
  161.1770  212.7150  149.4200 C   0  0  1  0  0  3  0  0  0  0  0  0
  160.7780  212.6920  147.9690 C   0  0  0  0  0  3  0  0  0  0  0  0
  160.9180  213.7570  147.1750 C   0  0  0  0  0  3  0  0  0  0  0  0
  161.9040  214.2530  144.6970 S   0  0  0  0  0  0  0  0  0  0  0  0
  160.5190  213.7000  145.7390 C   0  0  1  0  0  3  0  0  0  0  0  0
  160.1560  212.2820  145.3400 C   0  0  0  0  0  2  0  0  0  0  0  0
  161.7360  212.8170  143.5920 C   0  0  0  0  0  2  0  0  0  0  0  0
  160.3940  212.1770  143.8570 C   0  0  0  0  0  2  0  0  0  0  0  0
  159.9690  212.6300  150.3460 C   0  0  0  0  0  2  0  0  0  0  0  0
  160.2640  213.2430  151.7060 C   0  0  0  0  0  2  0  0  0  0  0  0
  159.0740  213.5960  152.3420 O   0  0  0  0  0  0  0  0  0  0  0  0
  158.1140  212.7550  151.7840 C   0  0  0  0  0  1  0  0  0  0  0  0
  162.3360  207.6760  152.1100 C   0  0  0  0  0  2  0  0  0  0  0  0
  161.4040  206.4740  152.0480 C   0  0  2  0  0  3  0  0  0  0  0  0
  161.4510  205.7140  153.3650 C   0  0  0  0  0  2  0  0  0  0  0  0
  160.4410  206.1610  154.2160 O   0  0  0  0  0  1  0  0  0  0  0  0
  161.8410  205.5720  150.9070 C   0  0  0  0  0  2  0  0  0  0  0  0
  161.0310  204.3660  150.8940 N   0  0  0  0  0  2  0  0  0  0  0  0
  160.4230  204.2710  149.5770 C   0  0  0  0  0  2  0  0  0  0  0  0
  161.3190  203.4590  148.6610 C   0  0  1  0  0  3  0  0  0  0  0  0
  160.7860  201.7490  148.6330 S   0  0  0  0  0  0  0  0  0  0  0  0
  160.0710  201.4260  149.9130 O   0  0  0  0  0  0  0  0  0  0  0  0
  161.9860  200.8520  148.4940 O   0  0  0  0  0  0  0  0  0  0  0  0
  159.6760  201.4760  147.2630 C   0  0  0  0  0  2  0  0  0  0  0  0
  161.1160  200.0120  146.0490 O   0  0  0  0  0  1  0  0  0  0  0  0
  160.4220  201.8830  144.9220 O   0  0  0  0  0  0  0  0  0  0  0  0
  160.4370  201.0730  146.0480 C   0  0  0  0  0  0  0  0  0  0  0  0
  161.2710  204.0590  147.2660 C   0  0  0  0  0  2  0  0  0  0  0  0
  163.2910  204.8850  146.3090 O   0  0  0  0  0  0  0  0  0  0  0  0
  162.2610  206.2870  147.8020 O   0  0  0  0  0  1  0  0  0  0  0  0
  162.3330  205.0920  147.0970 C   0  0  0  0  0  0  0  0  0  0  0  0
  1  3  1  0  0  0  0
  1 26  1  0  0  0  0
  2  4  1  0  0  0  0
  3  2  2  0  0  0  0
  4  9  2  0  0  0  0
  5  6  1  0  0  0  0
  5  7  2  0  0  0  0
  8  4  1  0  0  0  0
  8 10  2  0  0  0  0
  9  6  1  0  0  0  0
 10  5  1  0  0  0  0
 11  1  1  0  0  0  0
 12 13  1  0  0  0  0
 12 11  1  0  0  0  0
 14 15  1  6  0  0  0
 14 13  1  0  0  0  0
 14 22  1  0  0  0  0
 16 15  2  0  0  0  0
 17 18  1  0  0  0  0
 18 16  1  1  0  0  0
 19 18  1  0  0  0  0
 20 21  1  0  0  0  0
 20 17  1  0  0  0  0
 21 19  1  0  0  0  0
 22 23  1  0  0  0  0
 23 24  1  0  0  0  0
 25 24  1  0  0  0  0
 27 30  1  6  0  0  0
 27 26  1  0  0  0  0
 27 28  1  0  0  0  0
 28 29  1  0  0  0  0
 31 30  1  0  0  0  0
 32 31  1  0  0  0  0
 33 41  1  6  0  0  0
 33 32  1  0  0  0  0
 34 33  1  0  0  0  0
 34 35  2  0  0  0  0
 36 34  2  0  0  0  0
 37 34  1  0  0  0  0
 39 40  2  0  0  0  0
 40 38  1  0  0  0  0
 40 37  1  0  0  0  0
 42 44  2  0  0  0  0
 44 41  1  0  0  0  0
 44 43  1  0  0  0  0
M  END
>  <MODEL>
9

>  <REMARK>
 VINA RESULT:      -4.0      3.634      8.045
  Name = 
  22 active torsions:
  status: ('A' for Active; 'I' for Inactive)
    1  A    between atoms: C_1  and  C_3
    2  A    between atoms: C_1  and  C_9
    3  A    between atoms: C_1  and  C_18
    4  A    between atoms: C_5  and  C_18
    5  A    between atoms: C_5  and  C_38
    6  A    between atoms: C_6  and  N_32
    7  A    between atoms: C_6  and  C_43
    8  A    between atoms: C_7  and  N_13
    9  A    between atoms: C_7  and  C_35
   10  A    between atoms: C_8  and  N_29
   11  A    between atoms: C_9  and  C_36
   12  A    between atoms: C_10  and  C_25
   13  A    between atoms: C_11  and  S_15
   14  A    between atoms: C_11  and  C_30
   15  A    between atoms: O_12  and  C_36
   16  A    between atoms: N_13  and  C_38
   17  A    between atoms: S_15  and  C_43
   18  A    between atoms: C_22  and  C_35
   19  A    between atoms: C_23  and  C_40
   20  A    between atoms: C_23  and  C_43
   21  A    between atoms: C_26  and  N_32
   22  A    between atoms: C_26  and  C_35
                            x       y       z     vdW  Elec       q    Type
                         _______ _______ _______ _____ _____    ______ ____

>  <TORSDO>
F 22

$$$$
