=
 OpenBabel11042422353D

 33 36  0  0  1  0  0  0  0  0999 V2000
  161.2800  205.8120  150.0120 C   0  0  0  0  0  2  0  0  0  0  0  0
  162.5470  207.9500  148.6340 C   0  0  0  0  0  3  0  0  0  0  0  0
  161.8040  209.3940  150.4790 C   0  0  2  0  0  3  0  0  0  0  0  0
  161.3180  206.9920  150.6420 C   0  0  0  0  0  0  0  0  0  0  0  0
  161.0160  205.8480  152.8160 O   0  0  0  0  0  1  0  0  0  0  0  0
  161.0280  203.4520  148.5460 O   0  0  0  0  0  0  0  0  0  0  0  0
  161.8760  208.1710  149.9300 C   0  0  0  0  0  0  0  0  0  0  0  0
  160.6140  209.7110  151.7840 S   0  0  0  0  0  0  0  0  0  0  0  0
  162.4700  206.7590  148.0400 C   0  0  0  0  0  3  0  0  0  0  0  0
  161.0730  207.0450  152.1030 C   0  0  1  0  0  3  0  0  0  0  0  0
  161.6150  204.4150  147.9810 C   0  0  0  0  0  0  0  0  0  0  0  0
  160.9790  208.2270  152.7440 C   0  0  2  0  0  3  0  0  0  0  0  0
  161.7590  205.6720  148.6610 N   0  0  0  0  0  0  0  0  0  0  0  0
  161.2280  208.5590  157.0240 C   0  0  0  0  0  3  0  0  0  0  0  0
  161.6920  209.4360  154.8170 C   0  0  0  0  0  3  0  0  0  0  0  0
  160.5860  207.4590  156.4500 C   0  0  0  0  0  3  0  0  0  0  0  0
  160.4960  207.3500  155.0590 C   0  0  0  0  0  3  0  0  0  0  0  0
  161.7830  209.5470  156.2070 C   0  0  0  0  0  3  0  0  0  0  0  0
  161.0390  208.3430  154.2250 C   0  0  0  0  0  0  0  0  0  0  0  0
  162.1250  211.1930  148.7410 C   0  0  0  0  0  0  0  0  0  0  0  0
  161.0530  210.8930  148.1520 O   0  0  0  0  0  0  0  0  0  0  0  0
  162.5180  210.5100  149.9350 N   0  0  0  0  0  2  0  0  0  0  0  0
  162.9660  212.3090  148.2230 C   0  0  0  0  0  2  0  0  0  0  0  0
  161.2100  213.5980  149.2080 O   0  0  0  0  0  0  0  0  0  0  0  0
  162.1810  213.6110  148.1980 C   0  0  2  0  0  3  0  0  0  0  0  0
  160.1930  214.4480  148.7490 C   0  0  0  0  0  2  0  0  0  0  0  0
  161.4790  213.7880  146.8690 C   0  0  0  0  0  2  0  0  0  0  0  0
  160.1490  214.3670  147.2410 C   0  0  0  0  0  2  0  0  0  0  0  0
  162.1750  204.2100  146.6120 C   0  0  0  0  0  2  0  0  0  0  0  0
  161.0460  204.0410  145.6140 C   0  0  0  0  0  2  0  0  0  0  0  0
  160.1080  206.3600  145.2990 N   0  0  0  0  0  1  0  0  0  0  0  0
  160.8950  205.2810  144.8060 C   0  0  0  0  0  0  0  0  0  0  0  0
  161.4390  205.3660  143.6750 O   0  0  0  0  0  0  0  0  0  0  0  0
  1  4  1  0  0  0  0
  2  7  1  0  0  0  0
  3 22  1  6  0  0  0
  3  8  1  0  0  0  0
  4 10  1  0  0  0  0
  7  3  1  0  0  0  0
  7  4  2  0  0  0  0
  8 12  1  0  0  0  0
  9  2  2  0  0  0  0
  9 13  1  0  0  0  0
 10 12  1  0  0  0  0
 10  5  1  1  0  0  0
 11  6  2  0  0  0  0
 11 13  1  0  0  0  0
 12 19  1  1  0  0  0
 13  1  1  0  0  0  0
 15 18  1  0  0  0  0
 16 14  1  0  0  0  0
 17 16  2  0  0  0  0
 18 14  2  0  0  0  0
 19 15  2  0  0  0  0
 19 17  1  0  0  0  0
 20 22  1  0  0  0  0
 21 20  2  0  0  0  0
 23 20  1  0  0  0  0
 25 23  1  6  0  0  0
 25 24  1  0  0  0  0
 26 24  1  0  0  0  0
 27 28  1  0  0  0  0
 27 25  1  0  0  0  0
 28 26  1  0  0  0  0
 29 11  1  0  0  0  0
 30 29  1  0  0  0  0
 32 31  1  0  0  0  0
 32 30  1  0  0  0  0
 33 32  2  0  0  0  0
M  END
>  <MODEL>
1

>  <REMARK>
 VINA RESULT:      -8.1      0.000      0.000
  Name = 
  7 active torsions:
  status: ('A' for Active; 'I' for Inactive)
    1  A    between atoms: C_2  and  C_18
    2  A    between atoms: C_8  and  N_30
    3  A    between atoms: C_9  and  C_21
    4  A    between atoms: C_9  and  C_28
    5  A    between atoms: C_15  and  C_21
    6  A    between atoms: C_18  and  C_19
    7  A    between atoms: C_25  and  C_31
                            x       y       z     vdW  Elec       q    Type
                         _______ _______ _______ _____ _____    ______ ____

>  <TORSDO>
F 7

$$$$
=
 OpenBabel11042422353D

 33 36  0  0  1  0  0  0  0  0999 V2000
  160.9370  206.3410  151.8030 C   0  0  0  0  0  2  0  0  0  0  0  0
  162.0240  207.7300  149.5750 C   0  0  0  0  0  3  0  0  0  0  0  0
  161.6470  209.7940  150.8560 C   0  0  2  0  0  3  0  0  0  0  0  0
  161.1180  207.6590  151.9490 C   0  0  0  0  0  0  0  0  0  0  0  0
  161.1470  207.3900  154.4090 O   0  0  0  0  0  1  0  0  0  0  0  0
  160.3690  203.6480  151.3480 O   0  0  0  0  0  0  0  0  0  0  0  0
  161.5860  208.4540  150.7840 C   0  0  0  0  0  0  0  0  0  0  0  0
  160.7010  210.6570  152.1130 S   0  0  0  0  0  0  0  0  0  0  0  0
  161.8110  206.4180  149.4730 C   0  0  0  0  0  3  0  0  0  0  0  0
  161.1220  208.2470  153.3100 C   0  0  1  0  0  3  0  0  0  0  0  0
  160.8840  204.2920  150.3940 C   0  0  0  0  0  0  0  0  0  0  0  0
  161.1740  209.5830  153.4830 C   0  0  2  0  0  3  0  0  0  0  0  0
  161.1800  205.6900  150.5420 N   0  0  0  0  0  0  0  0  0  0  0  0
  162.0440  211.4570  157.2540 C   0  0  0  0  0  3  0  0  0  0  0  0
  160.4490  210.7330  155.5860 C   0  0  0  0  0  3  0  0  0  0  0  0
  163.0870  210.9510  156.4740 C   0  0  0  0  0  3  0  0  0  0  0  0
  162.8090  210.3350  155.2510 C   0  0  0  0  0  3  0  0  0  0  0  0
  160.7250  211.3490  156.8090 C   0  0  0  0  0  3  0  0  0  0  0  0
  161.4840  210.2090  154.7960 C   0  0  0  0  0  0  0  0  0  0  0  0
  161.7760  211.8140  149.3520 C   0  0  0  0  0  0  0  0  0  0  0  0
  160.7450  212.3290  149.8620 O   0  0  0  0  0  0  0  0  0  0  0  0
  162.2950  210.5760  149.8470 N   0  0  0  0  0  2  0  0  0  0  0  0
  162.4950  212.5280  148.2590 C   0  0  0  0  0  2  0  0  0  0  0  0
  160.6090  212.1320  146.8430 O   0  0  0  0  0  0  0  0  0  0  0  0
  161.5110  213.1200  147.2610 C   0  0  2  0  0  3  0  0  0  0  0  0
  160.1990  212.5310  145.5630 C   0  0  0  0  0  2  0  0  0  0  0  0
  162.2370  213.6460  146.0420 C   0  0  0  0  0  2  0  0  0  0  0  0
  161.3440  213.2630  144.9010 C   0  0  0  0  0  2  0  0  0  0  0  0
  161.2000  203.5670  149.1270 C   0  0  0  0  0  2  0  0  0  0  0  0
  160.4770  202.2340  149.1020 C   0  0  0  0  0  2  0  0  0  0  0  0
  160.8070  201.8180  146.6370 N   0  0  0  0  0  1  0  0  0  0  0  0
  160.9950  201.3990  147.9850 C   0  0  0  0  0  0  0  0  0  0  0  0
  161.5720  200.3080  148.2290 O   0  0  0  0  0  0  0  0  0  0  0  0
  1  4  1  0  0  0  0
  2  7  1  0  0  0  0
  3 22  1  6  0  0  0
  3  8  1  0  0  0  0
  4 10  1  0  0  0  0
  7  3  1  0  0  0  0
  7  4  2  0  0  0  0
  8 12  1  0  0  0  0
  9  2  2  0  0  0  0
  9 13  1  0  0  0  0
 10 12  1  0  0  0  0
 10  5  1  1  0  0  0
 11 13  1  0  0  0  0
 11  6  2  0  0  0  0
 12 19  1  1  0  0  0
 13  1  1  0  0  0  0
 15 18  2  0  0  0  0
 16 14  2  0  0  0  0
 17 16  1  0  0  0  0
 18 14  1  0  0  0  0
 19 17  2  0  0  0  0
 19 15  1  0  0  0  0
 20 22  1  0  0  0  0
 20 21  2  0  0  0  0
 23 20  1  0  0  0  0
 24 25  1  0  0  0  0
 25 23  1  1  0  0  0
 26 24  1  0  0  0  0
 27 25  1  0  0  0  0
 28 26  1  0  0  0  0
 28 27  1  0  0  0  0
 29 11  1  0  0  0  0
 30 29  1  0  0  0  0
 31 32  1  0  0  0  0
 32 33  2  0  0  0  0
 32 30  1  0  0  0  0
M  END
>  <MODEL>
2

>  <REMARK>
 VINA RESULT:      -7.9      2.361      2.764
  Name = 
  7 active torsions:
  status: ('A' for Active; 'I' for Inactive)
    1  A    between atoms: C_2  and  C_18
    2  A    between atoms: C_8  and  N_30
    3  A    between atoms: C_9  and  C_21
    4  A    between atoms: C_9  and  C_28
    5  A    between atoms: C_15  and  C_21
    6  A    between atoms: C_18  and  C_19
    7  A    between atoms: C_25  and  C_31
                            x       y       z     vdW  Elec       q    Type
                         _______ _______ _______ _____ _____    ______ ____

>  <TORSDO>
F 7

$$$$
=
 OpenBabel11042422353D

 33 36  0  0  1  0  0  0  0  0999 V2000
  161.6510  206.4980  149.2970 C   0  0  0  0  0  2  0  0  0  0  0  0
  160.8190  206.3630  152.0100 C   0  0  0  0  0  3  0  0  0  0  0  0
  161.5820  208.6900  152.2150 C   0  0  2  0  0  3  0  0  0  0  0  0
  161.7180  207.6340  150.0010 C   0  0  0  0  0  0  0  0  0  0  0  0
  161.6610  208.9460  147.9040 O   0  0  0  0  0  1  0  0  0  0  0  0
  161.7080  204.0500  147.9600 O   0  0  0  0  0  0  0  0  0  0  0  0
  161.3940  207.6020  151.4510 C   0  0  0  0  0  0  0  0  0  0  0  0
  162.6820  209.9900  151.6480 S   0  0  0  0  0  0  0  0  0  0  0  0
  160.7860  205.2530  151.2720 C   0  0  0  0  0  3  0  0  0  0  0  0
  161.8340  208.9280  149.2870 C   0  0  1  0  0  3  0  0  0  0  0  0
  161.3130  204.0370  149.1570 C   0  0  0  0  0  0  0  0  0  0  0  0
  162.0310  210.0750  149.9670 C   0  0  2  0  0  3  0  0  0  0  0  0
  161.2820  205.2540  149.9210 N   0  0  0  0  0  0  0  0  0  0  0  0
  161.5820  213.9690  148.1990 C   0  0  0  0  0  3  0  0  0  0  0  0
  162.7590  211.8630  148.3720 C   0  0  0  0  0  3  0  0  0  0  0  0
  160.6790  213.5420  149.1750 C   0  0  0  0  0  3  0  0  0  0  0  0
  160.8160  212.2750  149.7480 C   0  0  0  0  0  3  0  0  0  0  0  0
  162.6240  213.1300  147.7980 C   0  0  0  0  0  3  0  0  0  0  0  0
  161.8530  211.4150  149.3460 C   0  0  0  0  0  0  0  0  0  0  0  0
  160.1600  209.7740  153.9930 C   0  0  0  0  0  0  0  0  0  0  0  0
  159.6670  210.5970  153.1760 O   0  0  0  0  0  0  0  0  0  0  0  0
  161.0800  208.7710  153.5530 N   0  0  0  0  0  2  0  0  0  0  0  0
  159.7390  209.8100  155.4220 C   0  0  0  0  0  2  0  0  0  0  0  0
  161.8890  210.8540  155.4890 O   0  0  0  0  0  0  0  0  0  0  0  0
  160.8360  210.4000  156.2940 C   0  0  2  0  0  3  0  0  0  0  0  0
  163.0290  210.7800  156.3010 C   0  0  0  0  0  2  0  0  0  0  0  0
  161.3830  209.3570  157.2450 C   0  0  0  0  0  2  0  0  0  0  0  0
  162.8570  209.6250  157.2610 C   0  0  0  0  0  2  0  0  0  0  0  0
  160.8570  202.7440  149.7480 C   0  0  0  0  0  2  0  0  0  0  0  0
  160.0100  201.9880  148.7430 C   0  0  0  0  0  2  0  0  0  0  0  0
  160.8540  201.2160  146.4970 N   0  0  0  0  0  1  0  0  0  0  0  0
  160.8760  201.1050  147.9160 C   0  0  0  0  0  0  0  0  0  0  0  0
  161.6050  200.2410  148.4680 O   0  0  0  0  0  0  0  0  0  0  0  0
  1 13  1  0  0  0  0
  1  4  1  0  0  0  0
  3 22  1  1  0  0  0
  4  7  2  0  0  0  0
  6 11  2  0  0  0  0
  7  2  1  0  0  0  0
  7  3  1  0  0  0  0
  8  3  1  0  0  0  0
  9  2  2  0  0  0  0
 10  5  1  1  0  0  0
 10 12  1  0  0  0  0
 10  4  1  0  0  0  0
 11 29  1  0  0  0  0
 11 13  1  0  0  0  0
 12 19  1  6  0  0  0
 12  8  1  0  0  0  0
 13  9  1  0  0  0  0
 14 16  1  0  0  0  0
 15 19  2  0  0  0  0
 16 17  2  0  0  0  0
 18 14  2  0  0  0  0
 18 15  1  0  0  0  0
 19 17  1  0  0  0  0
 20 23  1  0  0  0  0
 21 20  2  0  0  0  0
 22 20  1  0  0  0  0
 24 25  1  0  0  0  0
 24 26  1  0  0  0  0
 25 23  1  6  0  0  0
 25 27  1  0  0  0  0
 26 28  1  0  0  0  0
 27 28  1  0  0  0  0
 30 29  1  0  0  0  0
 31 32  1  0  0  0  0
 32 33  2  0  0  0  0
 32 30  1  0  0  0  0
M  END
>  <MODEL>
3

>  <REMARK>
 VINA RESULT:      -7.7      2.462      6.197
  Name = 
  7 active torsions:
  status: ('A' for Active; 'I' for Inactive)
    1  A    between atoms: C_2  and  C_18
    2  A    between atoms: C_8  and  N_30
    3  A    between atoms: C_9  and  C_21
    4  A    between atoms: C_9  and  C_28
    5  A    between atoms: C_15  and  C_21
    6  A    between atoms: C_18  and  C_19
    7  A    between atoms: C_25  and  C_31
                            x       y       z     vdW  Elec       q    Type
                         _______ _______ _______ _____ _____    ______ ____

>  <TORSDO>
F 7

$$$$
=
 OpenBabel11042422353D

 33 36  0  0  1  0  0  0  0  0999 V2000
  160.8270  207.8650  154.6110 C   0  0  0  0  0  2  0  0  0  0  0  0
  161.0320  210.1040  152.8740 C   0  0  0  0  0  3  0  0  0  0  0  0
  161.9880  208.5570  151.2210 C   0  0  2  0  0  3  0  0  0  0  0  0
  161.2300  207.6170  153.3590 C   0  0  0  0  0  0  0  0  0  0  0  0
  160.5110  205.2600  153.5870 O   0  0  0  0  0  1  0  0  0  0  0  0
  160.2110  208.4830  157.2610 O   0  0  0  0  0  0  0  0  0  0  0  0
  161.4550  208.7600  152.4360 C   0  0  0  0  0  0  0  0  0  0  0  0
  162.8990  207.0460  150.8940 S   0  0  0  0  0  0  0  0  0  0  0  0
  160.6500  210.3020  154.1360 C   0  0  0  0  0  3  0  0  0  0  0  0
  161.1740  206.2300  152.8380 C   0  0  1  0  0  3  0  0  0  0  0  0
  160.2790  209.4470  156.4510 C   0  0  0  0  0  0  0  0  0  0  0  0
  161.6900  205.9270  151.6300 C   0  0  2  0  0  3  0  0  0  0  0  0
  160.6190  209.2120  155.0750 N   0  0  0  0  0  0  0  0  0  0  0  0
  160.7780  202.2480  149.5980 C   0  0  0  0  0  3  0  0  0  0  0  0
  161.0720  204.6500  149.5670 C   0  0  0  0  0  3  0  0  0  0  0  0
  161.0900  202.2300  150.9600 C   0  0  0  0  0  3  0  0  0  0  0  0
  161.3940  203.4220  151.6230 C   0  0  0  0  0  3  0  0  0  0  0  0
  160.7670  203.4590  148.9020 C   0  0  0  0  0  3  0  0  0  0  0  0
  161.3980  204.6460  150.9320 C   0  0  0  0  0  0  0  0  0  0  0  0
  161.8100  209.3440  148.8310 C   0  0  0  0  0  0  0  0  0  0  0  0
  161.4960  208.1960  148.4180 O   0  0  0  0  0  0  0  0  0  0  0  0
  162.0160  209.5870  150.2260 N   0  0  0  0  0  2  0  0  0  0  0  0
  161.9140  210.4740  147.8650 C   0  0  0  0  0  2  0  0  0  0  0  0
  160.9070  212.5290  148.5550 O   0  0  0  0  0  0  0  0  0  0  0  0
  162.0990  211.7950  148.5960 C   0  0  2  0  0  3  0  0  0  0  0  0
  161.3020  213.8710  148.6510 C   0  0  0  0  0  2  0  0  0  0  0  0
  163.1870  212.6200  147.9420 C   0  0  0  0  0  2  0  0  0  0  0  0
  162.6550  214.0190  147.9960 C   0  0  0  0  0  2  0  0  0  0  0  0
  159.9750  210.8230  156.9460 C   0  0  0  0  0  2  0  0  0  0  0  0
  158.4990  211.1210  156.7660 C   0  0  0  0  0  2  0  0  0  0  0  0
  159.4040  213.2560  155.7780 N   0  0  0  0  0  1  0  0  0  0  0  0
  158.3170  212.5380  156.3500 C   0  0  0  0  0  0  0  0  0  0  0  0
  157.2110  213.1100  156.5310 O   0  0  0  0  0  0  0  0  0  0  0  0
  1 13  1  0  0  0  0
  2  9  2  0  0  0  0
  3 22  1  1  0  0  0
  3  7  1  0  0  0  0
  4  1  1  0  0  0  0
  7  2  1  0  0  0  0
  7  4  2  0  0  0  0
  8  3  1  0  0  0  0
  8 12  1  0  0  0  0
  9 13  1  0  0  0  0
 10  4  1  0  0  0  0
 10  5  1  6  0  0  0
 11 29  1  0  0  0  0
 11  6  2  0  0  0  0
 12 19  1  1  0  0  0
 12 10  1  0  0  0  0
 13 11  1  0  0  0  0
 14 16  1  0  0  0  0
 15 19  2  0  0  0  0
 16 17  2  0  0  0  0
 18 15  1  0  0  0  0
 18 14  2  0  0  0  0
 19 17  1  0  0  0  0
 20 22  1  0  0  0  0
 21 20  2  0  0  0  0
 23 20  1  0  0  0  0
 24 25  1  0  0  0  0
 24 26  1  0  0  0  0
 25 23  1  6  0  0  0
 27 28  1  0  0  0  0
 27 25  1  0  0  0  0
 28 26  1  0  0  0  0
 30 29  1  0  0  0  0
 31 32  1  0  0  0  0
 32 33  2  0  0  0  0
 32 30  1  0  0  0  0
M  END
>  <MODEL>
4

>  <REMARK>
 VINA RESULT:      -7.7      3.022      7.202
  Name = 
  7 active torsions:
  status: ('A' for Active; 'I' for Inactive)
    1  A    between atoms: C_2  and  C_18
    2  A    between atoms: C_8  and  N_30
    3  A    between atoms: C_9  and  C_21
    4  A    between atoms: C_9  and  C_28
    5  A    between atoms: C_15  and  C_21
    6  A    between atoms: C_18  and  C_19
    7  A    between atoms: C_25  and  C_31
                            x       y       z     vdW  Elec       q    Type
                         _______ _______ _______ _____ _____    ______ ____

>  <TORSDO>
F 7

$$$$
=
 OpenBabel11042422353D

 33 36  0  0  1  0  0  0  0  0999 V2000
  161.1890  206.7550  150.5660 C   0  0  0  0  0  2  0  0  0  0  0  0
  162.2800  208.6630  148.7660 C   0  0  0  0  0  3  0  0  0  0  0  0
  161.6810  210.3690  150.4320 C   0  0  2  0  0  3  0  0  0  0  0  0
  161.2610  208.0170  151.0040 C   0  0  0  0  0  0  0  0  0  0  0  0
  161.1840  207.2190  153.3440 O   0  0  0  0  0  1  0  0  0  0  0  0
  160.8510  204.1960  149.5070 O   0  0  0  0  0  0  0  0  0  0  0  0
  161.7270  209.0770  150.0700 C   0  0  0  0  0  0  0  0  0  0  0  0
  160.6100  210.8750  151.7790 S   0  0  0  0  0  0  0  0  0  0  0  0
  162.1730  207.3950  148.3710 C   0  0  0  0  0  3  0  0  0  0  0  0
  161.1500  208.2930  152.4560 C   0  0  1  0  0  3  0  0  0  0  0  0
  161.3640  205.0640  148.7490 C   0  0  0  0  0  0  0  0  0  0  0  0
  161.0910  209.5590  152.9150 C   0  0  2  0  0  3  0  0  0  0  0  0
  161.5440  206.4120  149.2140 N   0  0  0  0  0  0  0  0  0  0  0  0
  161.6040  210.6030  157.0550 C   0  0  0  0  0  3  0  0  0  0  0  0
  160.2010  209.8390  155.2380 C   0  0  0  0  0  3  0  0  0  0  0  0
  162.6900  210.6800  156.1800 C   0  0  0  0  0  3  0  0  0  0  0  0
  162.5310  210.3350  154.8360 C   0  0  0  0  0  3  0  0  0  0  0  0
  160.3580  210.1840  156.5830 C   0  0  0  0  0  3  0  0  0  0  0  0
  161.2850  209.9010  154.3490 C   0  0  0  0  0  0  0  0  0  0  0  0
  161.6100  212.4590  149.0210 C   0  0  0  0  0  0  0  0  0  0  0  0
  160.3690  212.5990  149.1930 O   0  0  0  0  0  0  0  0  0  0  0  0
  162.3190  211.3920  149.6600 N   0  0  0  0  0  2  0  0  0  0  0  0
  162.3570  213.4450  148.1910 C   0  0  0  0  0  2  0  0  0  0  0  0
  161.1210  212.5790  146.3370 O   0  0  0  0  0  0  0  0  0  0  0  0
  161.5950  213.7650  146.9140 C   0  0  2  0  0  3  0  0  0  0  0  0
  161.0190  212.8570  144.9660 C   0  0  0  0  0  2  0  0  0  0  0  0
  162.4950  214.4530  145.9120 C   0  0  0  0  0  2  0  0  0  0  0  0
  162.0950  213.8530  144.5990 C   0  0  0  0  0  2  0  0  0  0  0  0
  161.7990  204.6550  147.3810 C   0  0  0  0  0  2  0  0  0  0  0  0
  160.9430  205.3500  146.3390 C   0  0  0  0  0  2  0  0  0  0  0  0
  161.5600  205.4470  143.8970 N   0  0  0  0  0  1  0  0  0  0  0  0
  161.1200  204.6890  145.0180 C   0  0  0  0  0  0  0  0  0  0  0  0
  160.8520  203.4670  144.8840 O   0  0  0  0  0  0  0  0  0  0  0  0
  1  4  1  0  0  0  0
  2  7  1  0  0  0  0
  3 22  1  6  0  0  0
  3  8  1  0  0  0  0
  4 10  1  0  0  0  0
  7  3  1  0  0  0  0
  7  4  2  0  0  0  0
  8 12  1  0  0  0  0
  9  2  2  0  0  0  0
  9 13  1  0  0  0  0
 10 12  1  0  0  0  0
 10  5  1  1  0  0  0
 11 13  1  0  0  0  0
 11  6  2  0  0  0  0
 12 19  1  1  0  0  0
 13  1  1  0  0  0  0
 15 18  2  0  0  0  0
 16 14  2  0  0  0  0
 17 16  1  0  0  0  0
 18 14  1  0  0  0  0
 19 17  2  0  0  0  0
 19 15  1  0  0  0  0
 20 21  2  0  0  0  0
 20 22  1  0  0  0  0
 23 20  1  0  0  0  0
 24 25  1  0  0  0  0
 25 23  1  1  0  0  0
 26 24  1  0  0  0  0
 27 25  1  0  0  0  0
 28 26  1  0  0  0  0
 28 27  1  0  0  0  0
 29 11  1  0  0  0  0
 30 29  1  0  0  0  0
 31 32  1  0  0  0  0
 32 30  1  0  0  0  0
 33 32  2  0  0  0  0
M  END
>  <MODEL>
5

>  <REMARK>
 VINA RESULT:      -7.2      1.409      1.915
  Name = 
  7 active torsions:
  status: ('A' for Active; 'I' for Inactive)
    1  A    between atoms: C_2  and  C_18
    2  A    between atoms: C_8  and  N_30
    3  A    between atoms: C_9  and  C_21
    4  A    between atoms: C_9  and  C_28
    5  A    between atoms: C_15  and  C_21
    6  A    between atoms: C_18  and  C_19
    7  A    between atoms: C_25  and  C_31
                            x       y       z     vdW  Elec       q    Type
                         _______ _______ _______ _____ _____    ______ ____

>  <TORSDO>
F 7

$$$$
=
 OpenBabel11042422353D

 33 36  0  0  1  0  0  0  0  0999 V2000
  161.0230  207.0000  152.2050 C   0  0  0  0  0  2  0  0  0  0  0  0
  161.3650  209.7990  151.8560 C   0  0  0  0  0  3  0  0  0  0  0  0
  162.2500  209.2720  149.6250 C   0  0  2  0  0  3  0  0  0  0  0  0
  161.4230  207.4080  150.9950 C   0  0  0  0  0  0  0  0  0  0  0  0
  160.5760  205.3080  149.9980 O   0  0  0  0  0  1  0  0  0  0  0  0
  160.4190  206.2040  154.8090 O   0  0  0  0  0  0  0  0  0  0  0  0
  161.7180  208.8500  150.7830 C   0  0  0  0  0  0  0  0  0  0  0  0
  163.0810  208.0970  148.5520 S   0  0  0  0  0  0  0  0  0  0  0  0
  160.9830  209.3420  153.0490 C   0  0  0  0  0  3  0  0  0  0  0  0
  161.2970  206.4900  149.8380 C   0  0  1  0  0  3  0  0  0  0  0  0
  160.5460  207.4420  154.6060 C   0  0  0  0  0  0  0  0  0  0  0  0
  161.8060  206.8230  148.6350 C   0  0  2  0  0  3  0  0  0  0  0  0
  160.8840  207.9280  153.2970 N   0  0  0  0  0  0  0  0  0  0  0  0
  160.8500  204.7360  144.9990 C   0  0  0  0  0  3  0  0  0  0  0  0
  162.1500  204.9330  147.0300 C   0  0  0  0  0  3  0  0  0  0  0  0
  160.1540  205.9000  145.3340 C   0  0  0  0  0  3  0  0  0  0  0  0
  160.4560  206.5780  146.5180 C   0  0  0  0  0  3  0  0  0  0  0  0
  161.8490  204.2530  145.8460 C   0  0  0  0  0  3  0  0  0  0  0  0
  161.4520  206.0970  147.3870 C   0  0  0  0  0  0  0  0  0  0  0  0
  161.6480  211.2640  148.2000 C   0  0  0  0  0  0  0  0  0  0  0  0
  160.8310  210.5950  147.5120 O   0  0  0  0  0  0  0  0  0  0  0  0
  162.3420  210.6630  149.2980 N   0  0  0  0  0  2  0  0  0  0  0  0
  161.8520  212.7100  147.9050 C   0  0  0  0  0  2  0  0  0  0  0  0
  160.5400  212.9170  149.8930 O   0  0  0  0  0  0  0  0  0  0  0  0
  160.8780  213.5670  148.6980 C   0  0  2  0  0  3  0  0  0  0  0  0
  159.2650  213.3980  150.2220 C   0  0  0  0  0  2  0  0  0  0  0  0
  159.6070  213.8010  147.9110 C   0  0  0  0  0  2  0  0  0  0  0  0
  158.5240  213.7030  148.9410 C   0  0  0  0  0  2  0  0  0  0  0  0
  160.3130  208.3830  155.7420 C   0  0  0  0  0  2  0  0  0  0  0  0
  161.5850  208.5390  156.5520 C   0  0  0  0  0  2  0  0  0  0  0  0
  161.0150  210.9830  156.3190 N   0  0  0  0  0  1  0  0  0  0  0  0
  161.9750  209.9740  156.6080 C   0  0  0  0  0  0  0  0  0  0  0  0
  163.1600  210.2940  156.8830 O   0  0  0  0  0  0  0  0  0  0  0  0
  1 13  1  0  0  0  0
  2  9  2  0  0  0  0
  3 22  1  1  0  0  0
  3  7  1  0  0  0  0
  4  1  1  0  0  0  0
  7  4  2  0  0  0  0
  7  2  1  0  0  0  0
  8 12  1  0  0  0  0
  8  3  1  0  0  0  0
  9 13  1  0  0  0  0
 10  5  1  6  0  0  0
 10  4  1  0  0  0  0
 11  6  2  0  0  0  0
 11 29  1  0  0  0  0
 12 19  1  1  0  0  0
 12 10  1  0  0  0  0
 13 11  1  0  0  0  0
 14 16  2  0  0  0  0
 14 18  1  0  0  0  0
 15 19  1  0  0  0  0
 16 17  1  0  0  0  0
 17 19  2  0  0  0  0
 18 15  2  0  0  0  0
 20 22  1  0  0  0  0
 21 20  2  0  0  0  0
 23 20  1  0  0  0  0
 24 26  1  0  0  0  0
 25 23  1  6  0  0  0
 25 24  1  0  0  0  0
 27 25  1  0  0  0  0
 27 28  1  0  0  0  0
 28 26  1  0  0  0  0
 29 30  1  0  0  0  0
 30 32  1  0  0  0  0
 31 32  1  0  0  0  0
 32 33  2  0  0  0  0
M  END
>  <MODEL>
6

>  <REMARK>
 VINA RESULT:      -7.2      2.246      7.050
  Name = 
  7 active torsions:
  status: ('A' for Active; 'I' for Inactive)
    1  A    between atoms: C_2  and  C_18
    2  A    between atoms: C_8  and  N_30
    3  A    between atoms: C_9  and  C_21
    4  A    between atoms: C_9  and  C_28
    5  A    between atoms: C_15  and  C_21
    6  A    between atoms: C_18  and  C_19
    7  A    between atoms: C_25  and  C_31
                            x       y       z     vdW  Elec       q    Type
                         _______ _______ _______ _____ _____    ______ ____

>  <TORSDO>
F 7

$$$$
=
 OpenBabel11042422353D

 33 36  0  0  1  0  0  0  0  0999 V2000
  161.6140  206.6000  149.8640 C   0  0  0  0  0  2  0  0  0  0  0  0
  160.8410  206.8330  152.5880 C   0  0  0  0  0  3  0  0  0  0  0  0
  161.6720  209.1440  152.4800 C   0  0  2  0  0  3  0  0  0  0  0  0
  161.7280  207.8130  150.4160 C   0  0  0  0  0  0  0  0  0  0  0  0
  161.6600  208.8510  148.1710 O   0  0  0  0  0  1  0  0  0  0  0  0
  161.5740  204.0020  148.8470 O   0  0  0  0  0  0  0  0  0  0  0  0
  161.4370  207.9740  151.8650 C   0  0  0  0  0  0  0  0  0  0  0  0
  162.7940  210.3280  151.7320 S   0  0  0  0  0  0  0  0  0  0  0  0
  160.7600  205.6410  151.9970 C   0  0  0  0  0  3  0  0  0  0  0  0
  161.8640  209.0020  149.5420 C   0  0  1  0  0  3  0  0  0  0  0  0
  161.2050  204.1520  150.0440 C   0  0  0  0  0  0  0  0  0  0  0  0
  162.1080  210.2190  150.0670 C   0  0  2  0  0  3  0  0  0  0  0  0
  161.2250  205.4560  150.6480 N   0  0  0  0  0  0  0  0  0  0  0  0
  161.5940  213.8240  147.7790 C   0  0  0  0  0  3  0  0  0  0  0  0
  160.8660  212.3270  149.5350 C   0  0  0  0  0  3  0  0  0  0  0  0
  162.6740  212.9800  147.5100 C   0  0  0  0  0  3  0  0  0  0  0  0
  162.8490  211.8110  148.2550 C   0  0  0  0  0  3  0  0  0  0  0  0
  160.6880  213.4970  148.7910 C   0  0  0  0  0  3  0  0  0  0  0  0
  161.9530  211.4750  149.2840 C   0  0  0  0  0  0  0  0  0  0  0  0
  160.0920  210.2610  154.0970 C   0  0  0  0  0  0  0  0  0  0  0  0
  159.4020  210.7570  153.1670 O   0  0  0  0  0  0  0  0  0  0  0  0
  161.2030  209.4080  153.8070 N   0  0  0  0  0  2  0  0  0  0  0  0
  159.7150  210.5200  155.5150 C   0  0  0  0  0  2  0  0  0  0  0  0
  159.5710  212.6650  156.5620 O   0  0  0  0  0  0  0  0  0  0  0  0
  158.9380  211.8210  155.6390 C   0  0  2  0  0  3  0  0  0  0  0  0
  158.5500  213.4790  157.0730 C   0  0  0  0  0  2  0  0  0  0  0  0
  157.5290  211.5590  156.1270 C   0  0  0  0  0  2  0  0  0  0  0  0
  157.2650  212.6850  157.0790 C   0  0  0  0  0  2  0  0  0  0  0  0
  160.7280  202.9580  150.8030 C   0  0  0  0  0  2  0  0  0  0  0  0
  161.3590  201.7010  150.2370 C   0  0  0  0  0  2  0  0  0  0  0  0
  161.2180  200.5700  147.9880 N   0  0  0  0  0  1  0  0  0  0  0  0
  160.5650  201.2160  149.0760 C   0  0  0  0  0  0  0  0  0  0  0  0
  159.3220  201.4030  149.0410 O   0  0  0  0  0  0  0  0  0  0  0  0
  1  4  1  0  0  0  0
  1 13  1  0  0  0  0
  3 22  1  1  0  0  0
  4  7  2  0  0  0  0
  6 11  2  0  0  0  0
  7  3  1  0  0  0  0
  7  2  1  0  0  0  0
  8  3  1  0  0  0  0
  9  2  2  0  0  0  0
 10  5  1  1  0  0  0
 10 12  1  0  0  0  0
 10  4  1  0  0  0  0
 11 13  1  0  0  0  0
 11 29  1  0  0  0  0
 12 19  1  6  0  0  0
 12  8  1  0  0  0  0
 13  9  1  0  0  0  0
 14 18  1  0  0  0  0
 16 14  2  0  0  0  0
 16 17  1  0  0  0  0
 17 19  2  0  0  0  0
 18 15  2  0  0  0  0
 19 15  1  0  0  0  0
 20 23  1  0  0  0  0
 21 20  2  0  0  0  0
 22 20  1  0  0  0  0
 24 26  1  0  0  0  0
 25 23  1  1  0  0  0
 25 27  1  0  0  0  0
 25 24  1  0  0  0  0
 26 28  1  0  0  0  0
 27 28  1  0  0  0  0
 30 29  1  0  0  0  0
 31 32  1  0  0  0  0
 32 30  1  0  0  0  0
 33 32  2  0  0  0  0
M  END
>  <MODEL>
7

>  <REMARK>
 VINA RESULT:      -7.2      3.043      6.268
  Name = 
  7 active torsions:
  status: ('A' for Active; 'I' for Inactive)
    1  A    between atoms: C_2  and  C_18
    2  A    between atoms: C_8  and  N_30
    3  A    between atoms: C_9  and  C_21
    4  A    between atoms: C_9  and  C_28
    5  A    between atoms: C_15  and  C_21
    6  A    between atoms: C_18  and  C_19
    7  A    between atoms: C_25  and  C_31
                            x       y       z     vdW  Elec       q    Type
                         _______ _______ _______ _____ _____    ______ ____

>  <TORSDO>
F 7

$$$$
=
 OpenBabel11042422353D

 33 36  0  0  1  0  0  0  0  0999 V2000
  160.8800  212.7450  149.7520 C   0  0  0  0  0  2  0  0  0  0  0  0
  161.9950  210.1690  149.3080 C   0  0  0  0  0  3  0  0  0  0  0  0
  161.8640  209.8470  151.7410 C   0  0  2  0  0  3  0  0  0  0  0  0
  160.9680  211.9390  150.8170 C   0  0  0  0  0  0  0  0  0  0  0  0
  159.1930  213.2350  151.9540 O   0  0  0  0  0  1  0  0  0  0  0  0
  160.9440  214.4510  147.5460 O   0  0  0  0  0  0  0  0  0  0  0  0
  161.6360  210.6200  150.6670 C   0  0  0  0  0  0  0  0  0  0  0  0
  161.8530  210.5800  153.3790 S   0  0  0  0  0  0  0  0  0  0  0  0
  161.9000  211.0140  148.2810 C   0  0  0  0  0  3  0  0  0  0  0  0
  160.1700  212.2420  152.0280 C   0  0  1  0  0  3  0  0  0  0  0  0
  161.3990  213.2870  147.3800 C   0  0  0  0  0  0  0  0  0  0  0  0
  160.3320  211.5250  153.1580 C   0  0  2  0  0  3  0  0  0  0  0  0
  161.4270  212.3590  148.4770 N   0  0  0  0  0  0  0  0  0  0  0  0
  157.5790  211.6340  156.4600 C   0  0  0  0  0  3  0  0  0  0  0  0
  159.7660  212.0910  155.5300 C   0  0  0  0  0  3  0  0  0  0  0  0
  157.1680  211.1110  155.2310 C   0  0  0  0  0  3  0  0  0  0  0  0
  158.0570  211.0800  154.1530 C   0  0  0  0  0  3  0  0  0  0  0  0
  158.8790  212.1230  156.6100 C   0  0  0  0  0  3  0  0  0  0  0  0
  159.3640  211.5790  154.2860 C   0  0  0  0  0  0  0  0  0  0  0  0
  161.6170  207.3820  152.2170 C   0  0  0  0  0  0  0  0  0  0  0  0
  160.5250  207.5520  152.8220 O   0  0  0  0  0  0  0  0  0  0  0  0
  162.2980  208.4880  151.6160 N   0  0  0  0  0  2  0  0  0  0  0  0
  162.1790  206.0090  152.0780 C   0  0  0  0  0  2  0  0  0  0  0  0
  161.4130  203.7470  151.9670 O   0  0  0  0  0  0  0  0  0  0  0  0
  161.1320  205.0500  151.5330 C   0  0  2  0  0  3  0  0  0  0  0  0
  160.8600  202.9090  150.9880 C   0  0  0  0  0  2  0  0  0  0  0  0
  161.1370  205.0560  150.0200 C   0  0  0  0  0  2  0  0  0  0  0  0
  160.9370  203.6170  149.6560 C   0  0  0  0  0  2  0  0  0  0  0  0
  161.8810  212.8920  146.0230 C   0  0  0  0  0  2  0  0  0  0  0  0
  160.9810  213.4930  144.9610 C   0  0  0  0  0  2  0  0  0  0  0  0
  160.1610  211.8460  143.2390 N   0  0  0  0  0  1  0  0  0  0  0  0
  159.9940  212.4790  144.5020 C   0  0  0  0  0  0  0  0  0  0  0  0
  158.9960  212.2040  145.2170 O   0  0  0  0  0  0  0  0  0  0  0  0
  1  4  1  0  0  0  0
  2  7  1  0  0  0  0
  3 22  1  6  0  0  0
  3  8  1  0  0  0  0
  4 10  1  0  0  0  0
  7  4  2  0  0  0  0
  7  3  1  0  0  0  0
  9 13  1  0  0  0  0
  9  2  2  0  0  0  0
 10  5  1  6  0  0  0
 10 12  1  0  0  0  0
 11  6  2  0  0  0  0
 11 13  1  0  0  0  0
 12  8  1  0  0  0  0
 12 19  1  1  0  0  0
 13  1  1  0  0  0  0
 14 18  1  0  0  0  0
 15 18  2  0  0  0  0
 16 14  2  0  0  0  0
 17 19  2  0  0  0  0
 17 16  1  0  0  0  0
 19 15  1  0  0  0  0
 20 21  2  0  0  0  0
 22 20  1  0  0  0  0
 23 20  1  0  0  0  0
 25 24  1  0  0  0  0
 25 23  1  1  0  0  0
 26 24  1  0  0  0  0
 27 25  1  0  0  0  0
 28 27  1  0  0  0  0
 28 26  1  0  0  0  0
 29 11  1  0  0  0  0
 30 29  1  0  0  0  0
 31 32  1  0  0  0  0
 32 30  1  0  0  0  0
 32 33  2  0  0  0  0
M  END
>  <MODEL>
8

>  <REMARK>
 VINA RESULT:      -6.8      3.092      6.812
  Name = 
  7 active torsions:
  status: ('A' for Active; 'I' for Inactive)
    1  A    between atoms: C_2  and  C_18
    2  A    between atoms: C_8  and  N_30
    3  A    between atoms: C_9  and  C_21
    4  A    between atoms: C_9  and  C_28
    5  A    between atoms: C_15  and  C_21
    6  A    between atoms: C_18  and  C_19
    7  A    between atoms: C_25  and  C_31
                            x       y       z     vdW  Elec       q    Type
                         _______ _______ _______ _____ _____    ______ ____

>  <TORSDO>
F 7

$$$$
=
 OpenBabel11042422353D

 33 36  0  0  1  0  0  0  0  0999 V2000
  161.4890  207.6810  152.7100 C   0  0  0  0  0  2  0  0  0  0  0  0
  160.9540  210.1250  151.3620 C   0  0  0  0  0  3  0  0  0  0  0  0
  161.6960  208.9930  149.3100 C   0  0  2  0  0  3  0  0  0  0  0  0
  161.6110  207.6690  151.3770 C   0  0  0  0  0  0  0  0  0  0  0  0
  161.3090  205.2130  151.3640 O   0  0  0  0  0  1  0  0  0  0  0  0
  161.4430  207.8390  155.4940 O   0  0  0  0  0  0  0  0  0  0  0  0
  161.4450  208.9420  150.6280 C   0  0  0  0  0  0  0  0  0  0  0  0
  162.7070  207.7190  148.5510 S   0  0  0  0  0  0  0  0  0  0  0  0
  160.8600  210.0900  152.6910 C   0  0  0  0  0  3  0  0  0  0  0  0
  161.6300  206.3720  150.6590 C   0  0  1  0  0  3  0  0  0  0  0  0
  161.1780  208.8950  154.8590 C   0  0  0  0  0  0  0  0  0  0  0  0
  161.8790  206.3210  149.3350 C   0  0  2  0  0  3  0  0  0  0  0  0
  161.2090  208.9010  153.4220 N   0  0  0  0  0  0  0  0  0  0  0  0
  161.1650  202.7790  147.0040 C   0  0  0  0  0  3  0  0  0  0  0  0
  161.2060  203.9180  149.1380 C   0  0  0  0  0  3  0  0  0  0  0  0
  161.5810  203.9530  146.3720 C   0  0  0  0  0  3  0  0  0  0  0  0
  161.8080  205.1090  147.1240 C   0  0  0  0  0  3  0  0  0  0  0  0
  160.9780  202.7610  148.3880 C   0  0  0  0  0  3  0  0  0  0  0  0
  161.6130  205.1080  148.5170 C   0  0  0  0  0  0  0  0  0  0  0  0
  162.1290  211.3200  148.4390 C   0  0  0  0  0  0  0  0  0  0  0  0
  163.2510  211.3850  149.0110 O   0  0  0  0  0  0  0  0  0  0  0  0
  161.3390  210.1300  148.5160 N   0  0  0  0  0  2  0  0  0  0  0  0
  161.6450  212.4730  147.6290 C   0  0  0  0  0  2  0  0  0  0  0  0
  160.2200  212.2080  145.7280 O   0  0  0  0  0  0  0  0  0  0  0  0
  160.2310  212.2260  147.1290 C   0  0  2  0  0  3  0  0  0  0  0  0
  158.9250  212.6040  145.3670 C   0  0  0  0  0  2  0  0  0  0  0  0
  159.2990  213.3230  147.5960 C   0  0  0  0  0  2  0  0  0  0  0  0
  158.4100  213.5640  146.4140 C   0  0  0  0  0  2  0  0  0  0  0  0
  160.8100  210.1220  155.6270 C   0  0  0  0  0  2  0  0  0  0  0  0
  159.3310  210.0970  155.9590 C   0  0  0  0  0  2  0  0  0  0  0  0
  159.4500  212.4570  155.0820 N   0  0  0  0  0  1  0  0  0  0  0  0
  158.7620  211.4670  155.8390 C   0  0  0  0  0  0  0  0  0  0  0  0
  157.6900  211.7580  156.4290 O   0  0  0  0  0  0  0  0  0  0  0  0
  1 13  1  0  0  0  0
  2  9  2  0  0  0  0
  3 22  1  1  0  0  0
  3  7  1  0  0  0  0
  4  1  1  0  0  0  0
  7  2  1  0  0  0  0
  7  4  2  0  0  0  0
  8  3  1  0  0  0  0
  8 12  1  0  0  0  0
  9 13  1  0  0  0  0
 10  5  1  6  0  0  0
 10  4  1  0  0  0  0
 11  6  2  0  0  0  0
 11 29  1  0  0  0  0
 12 19  1  1  0  0  0
 12 10  1  0  0  0  0
 13 11  1  0  0  0  0
 14 18  1  0  0  0  0
 16 14  2  0  0  0  0
 16 17  1  0  0  0  0
 17 19  2  0  0  0  0
 18 15  2  0  0  0  0
 19 15  1  0  0  0  0
 20 22  1  0  0  0  0
 20 21  2  0  0  0  0
 23 20  1  0  0  0  0
 24 25  1  0  0  0  0
 25 27  1  0  0  0  0
 25 23  1  6  0  0  0
 26 24  1  0  0  0  0
 26 28  1  0  0  0  0
 28 27  1  0  0  0  0
 29 30  1  0  0  0  0
 31 32  1  0  0  0  0
 32 30  1  0  0  0  0
 32 33  2  0  0  0  0
M  END
>  <MODEL>
9

>  <REMARK>
 VINA RESULT:      -6.8      2.631      7.063
  Name = 
  7 active torsions:
  status: ('A' for Active; 'I' for Inactive)
    1  A    between atoms: C_2  and  C_18
    2  A    between atoms: C_8  and  N_30
    3  A    between atoms: C_9  and  C_21
    4  A    between atoms: C_9  and  C_28
    5  A    between atoms: C_15  and  C_21
    6  A    between atoms: C_18  and  C_19
    7  A    between atoms: C_25  and  C_31
                            x       y       z     vdW  Elec       q    Type
                         _______ _______ _______ _____ _____    ______ ____

>  <TORSDO>
F 7

$$$$
