=
 OpenBabel11052411023D

 37 39  0  0  1  0  0  0  0  0999 V2000
  162.7580  205.9450  151.7540 C   0  0  0  0  0  1  0  0  0  0  0  0
  161.3330  206.4770  151.5380 C   0  0  1  0  0  0  0  0  0  0  0  0
  161.3320  207.6530  150.5300 C   0  0  1  0  0  3  0  0  0  0  0  0
  162.0420  209.1950  151.2070 S   0  0  0  0  0  1  0  0  0  0  0  0
  162.0390  207.3080  149.2220 C   0  0  0  0  0  2  0  0  0  0  0  0
  161.1470  207.6390  148.0390 C   0  0  0  0  0  2  0  0  0  0  0  0
  159.8030  201.3560  145.0760 N   0  0  0  0  0  0  0  0  0  0  0  0
  161.4950  202.4650  145.9520 C   0  0  0  0  0  0  0  0  0  0  0  0
  161.2800  206.5900  146.9910 C   0  0  0  0  0  0  0  0  0  0  0  0
  162.4270  203.0990  146.6420 C   0  0  0  0  0  2  0  0  0  0  0  0
  161.2290  200.0190  146.6770 C   0  0  0  0  0  1  0  0  0  0  0  0
  162.1220  205.5600  147.1910 C   0  0  0  0  0  3  0  0  0  0  0  0
  161.1910  204.4870  145.1690 C   0  0  2  0  0  3  0  0  0  0  0  0
  162.3660  204.5280  146.1180 C   0  0  2  0  0  3  0  0  0  0  0  0
  160.8770  201.2410  145.9040 C   0  0  0  0  0  0  0  0  0  0  0  0
  160.3700  205.6660  144.8940 C   0  0  0  0  0  3  0  0  0  0  0  0
  159.7710  202.5960  144.6430 O   0  0  0  0  0  0  0  0  0  0  0  0
  160.7860  203.2430  145.1530 C   0  0  0  0  0  0  0  0  0  0  0  0
  160.4430  206.6810  145.7630 C   0  0  0  0  0  3  0  0  0  0  0  0
  160.4800  205.3440  150.9420 C   0  0  0  0  0  2  0  0  0  0  0  0
  160.8600  203.1790  152.1160 C   0  0  0  0  0  1  0  0  0  0  0  0
  161.1970  203.9990  150.8830 C   0  0  1  0  0  3  0  0  0  0  0  0
  160.7550  203.2550  149.6330 C   0  0  0  0  0  2  0  0  0  0  0  0
  159.5180  201.2240  149.3580 O   0  0  0  0  0  1  0  0  0  0  0  0
  160.6990  201.7560  149.8790 C   0  0  0  0  0  2  0  0  0  0  0  0
  160.6980  206.8960  152.7990 N   0  0  0  0  0  2  0  0  0  0  0  0
  161.3570  206.3320  153.9060 N   0  0  0  0  0  2  0  0  0  0  0  0
  161.6050  207.4130  154.8450 C   0  0  0  0  0  2  0  0  0  0  0  0
  160.2210  209.4610  155.1470 C   0  0  0  0  0  3  0  0  0  0  0  0
  160.3250  208.1270  155.1460 C   0  0  0  0  0  3  0  0  0  0  0  0
  161.3770  210.3800  154.8640 C   0  0  2  0  0  3  0  0  0  0  0  0
  163.3600  210.8100  156.1440 O   0  0  0  0  0  1  0  0  0  0  0  0
  161.9710  210.9500  156.1480 C   0  0  0  0  0  2  0  0  0  0  0  0
  160.9890  211.4280  153.9730 O   0  0  0  0  0  0  0  0  0  0  0  0
  159.1900  211.2830  152.5180 O   0  0  0  0  0  0  0  0  0  0  0  0
  158.8440  212.4700  154.4790 N   0  0  0  0  0  1  0  0  0  0  0  0
  159.6650  211.7040  153.6070 C   0  0  0  0  0  0  0  0  0  0  0  0
  2  1  1  1  0  0  0
  2 26  1  0  0  0  0
  3  4  1  1  0  0  0
  3  2  1  0  0  0  0
  5  3  1  0  0  0  0
  6  5  1  0  0  0  0
  7 15  2  0  0  0  0
  8 10  1  0  0  0  0
  9 12  2  0  0  0  0
  9  6  1  0  0  0  0
 13 16  1  1  0  0  0
 13 14  1  0  0  0  0
 14 10  1  1  0  0  0
 14 12  1  0  0  0  0
 15  8  1  0  0  0  0
 15 11  1  0  0  0  0
 16 19  2  0  0  0  0
 17  7  1  0  0  0  0
 17 18  1  0  0  0  0
 18 13  1  0  0  0  0
 18  8  2  0  0  0  0
 19  9  1  0  0  0  0
 20  2  1  0  0  0  0
 22 20  1  0  0  0  0
 22 21  1  1  0  0  0
 23 25  1  0  0  0  0
 23 22  1  0  0  0  0
 24 25  1  0  0  0  0
 26 27  1  0  0  0  0
 27 28  1  0  0  0  0
 28 30  1  0  0  0  0
 30 29  2  0  0  0  0
 31 29  1  1  0  0  0
 31 33  1  0  0  0  0
 32 33  1  0  0  0  0
 34 31  1  0  0  0  0
 35 37  2  0  0  0  0
 37 34  1  0  0  0  0
 37 36  1  0  0  0  0
M  END
>  <MODEL>
1

>  <REMARK>
 VINA RESULT:      -7.0      0.000      0.000
  Name = 
  16 active torsions:
  status: ('A' for Active; 'I' for Inactive)
    1  A    between atoms: C_2  and  N_6
    2  A    between atoms: C_2  and  C_20
    3  A    between atoms: C_3  and  C_4
    4  A    between atoms: C_4  and  O_10
    5  A    between atoms: C_4  and  C_27
    6  A    between atoms: N_6  and  N_14
    7  A    between atoms: C_8  and  C_15
    8  A    between atoms: C_8  and  C_17
    9  A    between atoms: O_10  and  C_33
   10  A    between atoms: C_11  and  C_29
   11  A    between atoms: C_11  and  C_36
   12  A    between atoms: C_13  and  C_15
   13  A    between atoms: C_13  and  C_16
   14  A    between atoms: N_14  and  C_17
   15  A    between atoms: C_17  and  C_19
   16  A    between atoms: C_19  and  C_29
                            x       y       z     vdW  Elec       q    Type
                         _______ _______ _______ _____ _____    ______ ____

>  <TORSDO>
F 16

$$$$
=
 OpenBabel11052411023D

 37 39  0  0  1  0  0  0  0  0999 V2000
  160.0130  206.2190  148.0790 C   0  0  0  0  0  1  0  0  0  0  0  0
  161.2630  205.9150  148.9190 C   0  0  1  0  0  0  0  0  0  0  0  0
  160.8690  205.3430  150.3040 C   0  0  1  0  0  3  0  0  0  0  0  0
  160.8000  203.5170  150.3470 S   0  0  0  0  0  1  0  0  0  0  0  0
  161.7810  205.8360  151.4250 C   0  0  0  0  0  2  0  0  0  0  0  0
  161.1030  205.6550  152.7710 C   0  0  0  0  0  2  0  0  0  0  0  0
  157.8920  211.6290  154.7860 N   0  0  0  0  0  0  0  0  0  0  0  0
  159.6110  210.9830  153.5670 C   0  0  0  0  0  0  0  0  0  0  0  0
  161.0150  206.9620  153.4770 C   0  0  0  0  0  0  0  0  0  0  0  0
  160.5160  210.5390  152.7130 C   0  0  0  0  0  2  0  0  0  0  0  0
  158.0980  212.7850  152.5480 C   0  0  0  0  0  1  0  0  0  0  0  0
  161.2210  208.1000  152.7890 C   0  0  0  0  0  3  0  0  0  0  0  0
  160.4620  209.3640  154.7710 C   0  0  2  0  0  3  0  0  0  0  0  0
  161.2410  209.4400  153.4790 C   0  0  2  0  0  3  0  0  0  0  0  0
  158.5450  211.8450  153.6110 C   0  0  0  0  0  0  0  0  0  0  0  0
  160.3610  208.1290  155.5490 C   0  0  0  0  0  3  0  0  0  0  0  0
  158.5330  210.6760  155.4240 O   0  0  0  0  0  0  0  0  0  0  0  0
  159.5610  210.3100  154.7030 C   0  0  0  0  0  0  0  0  0  0  0  0
  160.6560  206.9840  154.9220 C   0  0  0  0  0  3  0  0  0  0  0  0
  162.0890  204.8440  148.1850 C   0  0  0  0  0  2  0  0  0  0  0  0
  162.6980  205.1380  145.7860 C   0  0  0  0  0  1  0  0  0  0  0  0
  161.6460  204.6050  146.7450 C   0  0  1  0  0  3  0  0  0  0  0  0
  161.4590  203.1130  146.5250 C   0  0  0  0  0  2  0  0  0  0  0  0
  160.0930  201.6460  145.2160 O   0  0  0  0  0  1  0  0  0  0  0  0
  160.8250  202.8340  145.1720 C   0  0  0  0  0  2  0  0  0  0  0  0
  162.1210  207.0990  149.0890 N   0  0  0  0  0  2  0  0  0  0  0  0
  161.3530  208.2770  149.1110 N   0  0  0  0  0  2  0  0  0  0  0  0
  162.2140  209.3490  148.6390 C   0  0  0  0  0  2  0  0  0  0  0  0
  161.8520  211.7460  149.2090 C   0  0  0  0  0  3  0  0  0  0  0  0
  162.1580  210.5020  149.5920 C   0  0  0  0  0  3  0  0  0  0  0  0
  161.5500  212.1210  147.7840 C   0  0  2  0  0  3  0  0  0  0  0  0
  162.9570  214.0610  147.8920 O   0  0  0  0  0  1  0  0  0  0  0  0
  162.6950  212.9060  147.1530 C   0  0  0  0  0  2  0  0  0  0  0  0
  160.3230  212.8490  147.6980 O   0  0  0  0  0  0  0  0  0  0  0  0
  158.0880  212.5610  147.1560 O   0  0  0  0  0  0  0  0  0  0  0  0
  159.6170  212.2610  145.4400 N   0  0  0  0  0  1  0  0  0  0  0  0
  159.2940  212.5600  146.7920 C   0  0  0  0  0  0  0  0  0  0  0  0
  2  1  1  6  0  0  0
  2 26  1  0  0  0  0
  2  3  1  0  0  0  0
  3  4  1  6  0  0  0
  3  5  1  0  0  0  0
  5  6  1  0  0  0  0
  6  9  1  0  0  0  0
  7 17  1  0  0  0  0
  8 15  1  0  0  0  0
  8 18  2  0  0  0  0
  9 19  1  0  0  0  0
 10  8  1  0  0  0  0
 11 15  1  0  0  0  0
 12  9  2  0  0  0  0
 12 14  1  0  0  0  0
 13 16  1  6  0  0  0
 14 10  1  6  0  0  0
 14 13  1  0  0  0  0
 15  7  2  0  0  0  0
 18 13  1  0  0  0  0
 18 17  1  0  0  0  0
 19 16  2  0  0  0  0
 20  2  1  0  0  0  0
 22 21  1  6  0  0  0
 22 20  1  0  0  0  0
 23 22  1  0  0  0  0
 25 24  1  0  0  0  0
 25 23  1  0  0  0  0
 26 27  1  0  0  0  0
 28 27  1  0  0  0  0
 28 30  1  0  0  0  0
 29 30  2  0  0  0  0
 31 33  1  1  0  0  0
 31 29  1  0  0  0  0
 33 32  1  0  0  0  0
 34 31  1  0  0  0  0
 36 37  1  0  0  0  0
 37 35  2  0  0  0  0
 37 34  1  0  0  0  0
M  END
>  <MODEL>
2

>  <REMARK>
 VINA RESULT:      -6.7      3.329      8.123
  Name = 
  16 active torsions:
  status: ('A' for Active; 'I' for Inactive)
    1  A    between atoms: C_2  and  N_6
    2  A    between atoms: C_2  and  C_20
    3  A    between atoms: C_3  and  C_4
    4  A    between atoms: C_4  and  O_10
    5  A    between atoms: C_4  and  C_27
    6  A    between atoms: N_6  and  N_14
    7  A    between atoms: C_8  and  C_15
    8  A    between atoms: C_8  and  C_17
    9  A    between atoms: O_10  and  C_33
   10  A    between atoms: C_11  and  C_29
   11  A    between atoms: C_11  and  C_36
   12  A    between atoms: C_13  and  C_15
   13  A    between atoms: C_13  and  C_16
   14  A    between atoms: N_14  and  C_17
   15  A    between atoms: C_17  and  C_19
   16  A    between atoms: C_19  and  C_29
                            x       y       z     vdW  Elec       q    Type
                         _______ _______ _______ _____ _____    ______ ____

>  <TORSDO>
F 16

$$$$
=
 OpenBabel11052411023D

 37 39  0  0  1  0  0  0  0  0999 V2000
  161.3750  211.1240  155.3510 C   0  0  0  0  0  1  0  0  0  0  0  0
  160.3740  210.1150  154.7670 C   0  0  1  0  0  0  0  0  0  0  0  0
  161.0080  208.7050  154.6690 C   0  0  1  0  0  3  0  0  0  0  0  0
  160.1680  207.4540  155.7040 S   0  0  0  0  0  1  0  0  0  0  0  0
  161.0890  208.1940  153.2330 C   0  0  0  0  0  2  0  0  0  0  0  0
  161.7120  206.8100  153.2010 C   0  0  0  0  0  2  0  0  0  0  0  0
  162.2700  203.5790  146.9320 N   0  0  0  0  0  0  0  0  0  0  0  0
  161.2500  205.3110  147.8360 C   0  0  0  0  0  0  0  0  0  0  0  0
  161.1990  206.0470  152.0320 C   0  0  0  0  0  0  0  0  0  0  0  0
  160.8050  206.4300  148.3820 C   0  0  0  0  0  2  0  0  0  0  0  0
  162.3820  205.7050  145.5700 C   0  0  0  0  0  1  0  0  0  0  0  0
  160.8700  206.7060  150.9060 C   0  0  0  0  0  3  0  0  0  0  0  0
  160.6110  204.5230  149.7770 C   0  0  2  0  0  3  0  0  0  0  0  0
  160.2520  205.9900  149.7310 C   0  0  2  0  0  3  0  0  0  0  0  0
  161.9500  204.8880  146.7360 C   0  0  0  0  0  0  0  0  0  0  0  0
  160.8480  203.8180  151.0370 C   0  0  0  0  0  3  0  0  0  0  0  0
  161.7870  203.2270  148.1010 O   0  0  0  0  0  0  0  0  0  0  0  0
  161.1690  204.2540  148.6240 C   0  0  0  0  0  0  0  0  0  0  0  0
  161.1020  204.5640  152.1190 C   0  0  0  0  0  3  0  0  0  0  0  0
  159.1690  210.0250  155.7180 C   0  0  0  0  0  2  0  0  0  0  0  0
  156.8910  211.0140  155.5010 C   0  0  0  0  0  1  0  0  0  0  0  0
  158.3510  211.3110  155.8000 C   0  0  1  0  0  3  0  0  0  0  0  0
  158.4820  211.8940  157.1980 C   0  0  0  0  0  2  0  0  0  0  0  0
  159.2310  213.8370  156.0180 O   0  0  0  0  0  1  0  0  0  0  0  0
  158.5420  213.4120  157.1550 C   0  0  0  0  0  2  0  0  0  0  0  0
  159.8700  210.5320  153.4480 N   0  0  0  0  0  2  0  0  0  0  0  0
  160.4190  211.7690  153.0670 N   0  0  0  0  0  2  0  0  0  0  0  0
  159.7520  212.1650  151.8380 C   0  0  0  0  0  2  0  0  0  0  0  0
  159.8320  214.2590  150.4920 C   0  0  0  0  0  3  0  0  0  0  0  0
  159.8120  213.6530  151.6840 C   0  0  0  0  0  3  0  0  0  0  0  0
  159.8140  213.5140  149.1860 C   0  0  2  0  0  3  0  0  0  0  0  0
  161.3430  212.3660  147.7370 O   0  0  0  0  0  1  0  0  0  0  0  0
  161.1860  213.5100  148.5200 C   0  0  0  0  0  2  0  0  0  0  0  0
  158.8210  214.0490  148.3080 O   0  0  0  0  0  0  0  0  0  0  0  0
  157.3730  213.2290  146.6950 O   0  0  0  0  0  0  0  0  0  0  0  0
  156.8050  212.8180  148.9040 N   0  0  0  0  0  1  0  0  0  0  0  0
  157.6630  213.3660  147.9130 C   0  0  0  0  0  0  0  0  0  0  0  0
  2  1  1  1  0  0  0
  2 20  1  0  0  0  0
  3  2  1  0  0  0  0
  3  4  1  1  0  0  0
  5  3  1  0  0  0  0
  6  5  1  0  0  0  0
  7 17  1  0  0  0  0
  8 10  1  0  0  0  0
  8 18  2  0  0  0  0
  9 19  1  0  0  0  0
  9  6  1  0  0  0  0
 11 15  1  0  0  0  0
 12  9  2  0  0  0  0
 13 16  1  1  0  0  0
 14 10  1  6  0  0  0
 14 13  1  0  0  0  0
 14 12  1  0  0  0  0
 15  7  2  0  0  0  0
 15  8  1  0  0  0  0
 16 19  2  0  0  0  0
 17 18  1  0  0  0  0
 18 13  1  0  0  0  0
 20 22  1  0  0  0  0
 22 21  1  1  0  0  0
 22 23  1  0  0  0  0
 24 25  1  0  0  0  0
 25 23  1  0  0  0  0
 26  2  1  0  0  0  0
 27 26  1  0  0  0  0
 28 27  1  0  0  0  0
 29 30  2  0  0  0  0
 30 28  1  0  0  0  0
 31 33  1  6  0  0  0
 31 29  1  0  0  0  0
 32 33  1  0  0  0  0
 34 31  1  0  0  0  0
 35 37  2  0  0  0  0
 37 34  1  0  0  0  0
 37 36  1  0  0  0  0
M  END
>  <MODEL>
3

>  <REMARK>
 VINA RESULT:      -6.2      3.289      6.816
  Name = 
  16 active torsions:
  status: ('A' for Active; 'I' for Inactive)
    1  A    between atoms: C_2  and  N_6
    2  A    between atoms: C_2  and  C_20
    3  A    between atoms: C_3  and  C_4
    4  A    between atoms: C_4  and  O_10
    5  A    between atoms: C_4  and  C_27
    6  A    between atoms: N_6  and  N_14
    7  A    between atoms: C_8  and  C_15
    8  A    between atoms: C_8  and  C_17
    9  A    between atoms: O_10  and  C_33
   10  A    between atoms: C_11  and  C_29
   11  A    between atoms: C_11  and  C_36
   12  A    between atoms: C_13  and  C_15
   13  A    between atoms: C_13  and  C_16
   14  A    between atoms: N_14  and  C_17
   15  A    between atoms: C_17  and  C_19
   16  A    between atoms: C_19  and  C_29
                            x       y       z     vdW  Elec       q    Type
                         _______ _______ _______ _____ _____    ______ ____

>  <TORSDO>
F 16

$$$$
=
 OpenBabel11052411023D

 37 39  0  0  1  0  0  0  0  0999 V2000
  162.8650  206.5470  151.4800 C   0  0  0  0  0  1  0  0  0  0  0  0
  161.3390  206.7240  151.4250 C   0  0  1  0  0  0  0  0  0  0  0  0
  160.7950  207.2320  152.7840 C   0  0  1  0  0  3  0  0  0  0  0  0
  161.3060  206.2010  154.2050 S   0  0  0  0  0  1  0  0  0  0  0  0
  161.1670  208.6860  153.0600 C   0  0  0  0  0  2  0  0  0  0  0  0
  160.4320  209.1920  154.2890 C   0  0  0  0  0  2  0  0  0  0  0  0
  156.0690  214.1320  151.7140 N   0  0  0  0  0  0  0  0  0  0  0  0
  158.1600  213.4690  151.4970 C   0  0  0  0  0  0  0  0  0  0  0  0
  159.9630  210.5860  154.0630 C   0  0  0  0  0  0  0  0  0  0  0  0
  159.3440  212.9250  151.2750 C   0  0  0  0  0  2  0  0  0  0  0  0
  156.8820  213.9570  149.3280 C   0  0  0  0  0  1  0  0  0  0  0  0
  160.2570  211.2020  152.9030 C   0  0  0  0  0  3  0  0  0  0  0  0
  158.7370  213.0360  153.5640 C   0  0  2  0  0  3  0  0  0  0  0  0
  159.8900  212.6470  152.6700 C   0  0  2  0  0  3  0  0  0  0  0  0
  157.0500  213.8810  150.8040 C   0  0  0  0  0  0  0  0  0  0  0  0
  158.5220  212.4170  154.8720 C   0  0  0  0  0  3  0  0  0  0  0  0
  156.5640  213.8800  152.9050 O   0  0  0  0  0  0  0  0  0  0  0  0
  157.8080  213.5040  152.7700 C   0  0  0  0  0  0  0  0  0  0  0  0
  159.1400  211.2530  155.1090 C   0  0  0  0  0  3  0  0  0  0  0  0
  161.0140  207.7860  150.3610 C   0  0  0  0  0  2  0  0  0  0  0  0
  162.3540  208.0890  148.2810 C   0  0  0  0  0  1  0  0  0  0  0  0
  162.2480  208.4480  149.7540 C   0  0  1  0  0  3  0  0  0  0  0  0
  162.1300  209.9550  149.9090 C   0  0  0  0  0  2  0  0  0  0  0  0
  162.6810  211.8580  148.5670 O   0  0  0  0  0  1  0  0  0  0  0  0
  162.0060  210.6370  148.5570 C   0  0  0  0  0  2  0  0  0  0  0  0
  160.6490  205.4820  151.0400 N   0  0  0  0  0  2  0  0  0  0  0  0
  161.5540  204.4100  150.9500 N   0  0  0  0  0  2  0  0  0  0  0  0
  161.3420  203.7860  149.6550 C   0  0  0  0  0  2  0  0  0  0  0  0
  160.9380  204.8290  147.4300 C   0  0  0  0  0  3  0  0  0  0  0  0
  160.6570  204.7480  148.7350 C   0  0  0  0  0  3  0  0  0  0  0  0
  161.9790  203.9790  146.7550 C   0  0  2  0  0  3  0  0  0  0  0  0
  162.6870  205.7120  145.2530 O   0  0  0  0  0  1  0  0  0  0  0  0
  163.1370  204.8200  146.2280 C   0  0  0  0  0  2  0  0  0  0  0  0
  161.3990  203.1970  145.7080 O   0  0  0  0  0  0  0  0  0  0  0  0
  159.9120  201.5390  145.0690 O   0  0  0  0  0  0  0  0  0  0  0  0
  161.0390  201.2060  147.0670 N   0  0  0  0  0  1  0  0  0  0  0  0
  160.7480  201.9720  145.9050 C   0  0  0  0  0  0  0  0  0  0  0  0
  2  1  1  1  0  0  0
  2  3  1  0  0  0  0
  3  5  1  0  0  0  0
  3  4  1  1  0  0  0
  5  6  1  0  0  0  0
  7 17  1  0  0  0  0
  8 18  2  0  0  0  0
  9  6  1  0  0  0  0
  9 19  1  0  0  0  0
 10  8  1  0  0  0  0
 11 15  1  0  0  0  0
 12  9  2  0  0  0  0
 13 16  1  6  0  0  0
 14 10  1  6  0  0  0
 14 12  1  0  0  0  0
 14 13  1  0  0  0  0
 15  8  1  0  0  0  0
 15  7  2  0  0  0  0
 16 19  2  0  0  0  0
 18 17  1  0  0  0  0
 18 13  1  0  0  0  0
 20  2  1  0  0  0  0
 22 21  1  6  0  0  0
 22 23  1  0  0  0  0
 22 20  1  0  0  0  0
 25 24  1  0  0  0  0
 25 23  1  0  0  0  0
 26  2  1  0  0  0  0
 27 26  1  0  0  0  0
 28 27  1  0  0  0  0
 29 30  2  0  0  0  0
 30 28  1  0  0  0  0
 31 33  1  6  0  0  0
 31 29  1  0  0  0  0
 32 33  1  0  0  0  0
 34 37  1  0  0  0  0
 34 31  1  0  0  0  0
 35 37  2  0  0  0  0
 37 36  1  0  0  0  0
M  END
>  <MODEL>
4

>  <REMARK>
 VINA RESULT:      -6.1      2.593      9.842
  Name = 
  16 active torsions:
  status: ('A' for Active; 'I' for Inactive)
    1  A    between atoms: C_2  and  N_6
    2  A    between atoms: C_2  and  C_20
    3  A    between atoms: C_3  and  C_4
    4  A    between atoms: C_4  and  O_10
    5  A    between atoms: C_4  and  C_27
    6  A    between atoms: N_6  and  N_14
    7  A    between atoms: C_8  and  C_15
    8  A    between atoms: C_8  and  C_17
    9  A    between atoms: O_10  and  C_33
   10  A    between atoms: C_11  and  C_29
   11  A    between atoms: C_11  and  C_36
   12  A    between atoms: C_13  and  C_15
   13  A    between atoms: C_13  and  C_16
   14  A    between atoms: N_14  and  C_17
   15  A    between atoms: C_17  and  C_19
   16  A    between atoms: C_19  and  C_29
                            x       y       z     vdW  Elec       q    Type
                         _______ _______ _______ _____ _____    ______ ____

>  <TORSDO>
F 16

$$$$
=
 OpenBabel11052411023D

 37 39  0  0  1  0  0  0  0  0999 V2000
  162.8300  206.2020  150.9540 C   0  0  0  0  0  1  0  0  0  0  0  0
  161.3050  206.3630  151.0490 C   0  0  1  0  0  0  0  0  0  0  0  0
  160.7920  205.9340  152.4470 C   0  0  1  0  0  3  0  0  0  0  0  0
  160.8680  204.1290  152.7290 S   0  0  0  0  0  1  0  0  0  0  0  0
  161.5160  206.6500  153.5840 C   0  0  0  0  0  2  0  0  0  0  0  0
  160.5580  206.9170  154.7310 C   0  0  0  0  0  2  0  0  0  0  0  0
  157.9240  213.4600  155.2940 N   0  0  0  0  0  0  0  0  0  0  0  0
  159.5450  212.3930  154.2490 C   0  0  0  0  0  0  0  0  0  0  0  0
  160.6010  208.3560  155.1060 C   0  0  0  0  0  0  0  0  0  0  0  0
  160.3830  211.6810  153.5160 C   0  0  0  0  0  2  0  0  0  0  0  0
  158.1600  214.0310  152.8440 C   0  0  0  0  0  1  0  0  0  0  0  0
  160.8820  209.2760  154.1640 C   0  0  0  0  0  3  0  0  0  0  0  0
  160.2930  211.0360  155.7960 C   0  0  2  0  0  3  0  0  0  0  0  0
  161.0360  210.7340  154.5160 C   0  0  2  0  0  3  0  0  0  0  0  0
  158.5580  213.3320  154.0960 C   0  0  0  0  0  0  0  0  0  0  0  0
  160.1110  210.0340  156.8460 C   0  0  0  0  0  3  0  0  0  0  0  0
  158.5020  212.6320  156.1340 O   0  0  0  0  0  0  0  0  0  0  0  0
  159.4730  212.0150  155.5130 C   0  0  0  0  0  0  0  0  0  0  0  0
  160.2900  208.7510  156.5070 C   0  0  0  0  0  3  0  0  0  0  0  0
  160.9630  207.8500  150.8580 C   0  0  0  0  0  2  0  0  0  0  0  0
  161.8050  208.7340  148.6850 C   0  0  0  0  0  1  0  0  0  0  0  0
  162.0680  208.6540  150.1790 C   0  0  1  0  0  3  0  0  0  0  0  0
  162.1000  210.0530  150.7730 C   0  0  0  0  0  2  0  0  0  0  0  0
  161.1320  212.0770  149.9410 O   0  0  0  0  0  1  0  0  0  0  0  0
  162.1040  211.1110  149.6810 C   0  0  0  0  0  2  0  0  0  0  0  0
  160.5990  205.6060  150.0020 N   0  0  0  0  0  2  0  0  0  0  0  0
  161.5080  204.9070  149.1870 N   0  0  0  0  0  2  0  0  0  0  0  0
  161.2850  205.3570  147.8240 C   0  0  0  0  0  2  0  0  0  0  0  0
  162.8010  204.7260  145.9520 C   0  0  0  0  0  3  0  0  0  0  0  0
  162.5850  205.4030  147.0850 C   0  0  0  0  0  3  0  0  0  0  0  0
  161.7700  203.8370  145.3120 C   0  0  2  0  0  3  0  0  0  0  0  0
  161.3430  205.4960  143.6320 O   0  0  0  0  0  1  0  0  0  0  0  0
  160.7250  204.6440  144.5490 C   0  0  0  0  0  2  0  0  0  0  0  0
  161.1510  202.9920  146.2850 O   0  0  0  0  0  0  0  0  0  0  0  0
  161.1440  200.7280  146.7830 O   0  0  0  0  0  0  0  0  0  0  0  0
  159.8870  201.3910  144.9510 N   0  0  0  0  0  1  0  0  0  0  0  0
  160.7510  201.6710  146.0450 C   0  0  0  0  0  0  0  0  0  0  0  0
  2  1  1  6  0  0  0
  2  3  1  0  0  0  0
  3  4  1  1  0  0  0
  3  5  1  0  0  0  0
  5  6  1  0  0  0  0
  6  9  1  0  0  0  0
  7 17  1  0  0  0  0
  8 18  2  0  0  0  0
  9 19  1  0  0  0  0
 10  8  1  0  0  0  0
 11 15  1  0  0  0  0
 12 14  1  0  0  0  0
 12  9  2  0  0  0  0
 13 16  1  6  0  0  0
 14 10  1  6  0  0  0
 14 13  1  0  0  0  0
 15  8  1  0  0  0  0
 15  7  2  0  0  0  0
 18 13  1  0  0  0  0
 18 17  1  0  0  0  0
 19 16  2  0  0  0  0
 20  2  1  0  0  0  0
 22 21  1  6  0  0  0
 22 23  1  0  0  0  0
 22 20  1  0  0  0  0
 25 24  1  0  0  0  0
 25 23  1  0  0  0  0
 26  2  1  0  0  0  0
 27 26  1  0  0  0  0
 28 27  1  0  0  0  0
 29 30  2  0  0  0  0
 30 28  1  0  0  0  0
 31 33  1  1  0  0  0
 31 29  1  0  0  0  0
 31 34  1  0  0  0  0
 32 33  1  0  0  0  0
 36 37  1  0  0  0  0
 37 34  1  0  0  0  0
 37 35  2  0  0  0  0
M  END
>  <MODEL>
5

>  <REMARK>
 VINA RESULT:      -6.0      2.275     10.373
  Name = 
  16 active torsions:
  status: ('A' for Active; 'I' for Inactive)
    1  A    between atoms: C_2  and  N_6
    2  A    between atoms: C_2  and  C_20
    3  A    between atoms: C_3  and  C_4
    4  A    between atoms: C_4  and  O_10
    5  A    between atoms: C_4  and  C_27
    6  A    between atoms: N_6  and  N_14
    7  A    between atoms: C_8  and  C_15
    8  A    between atoms: C_8  and  C_17
    9  A    between atoms: O_10  and  C_33
   10  A    between atoms: C_11  and  C_29
   11  A    between atoms: C_11  and  C_36
   12  A    between atoms: C_13  and  C_15
   13  A    between atoms: C_13  and  C_16
   14  A    between atoms: N_14  and  C_17
   15  A    between atoms: C_17  and  C_19
   16  A    between atoms: C_19  and  C_29
                            x       y       z     vdW  Elec       q    Type
                         _______ _______ _______ _____ _____    ______ ____

>  <TORSDO>
F 16

$$$$
=
 OpenBabel11052411023D

 37 39  0  0  1  0  0  0  0  0999 V2000
  162.8320  205.7640  150.6360 C   0  0  0  0  0  1  0  0  0  0  0  0
  161.3230  205.9980  150.8080 C   0  0  1  0  0  0  0  0  0  0  0  0
  160.8660  205.6090  152.2360 C   0  0  1  0  0  3  0  0  0  0  0  0
  160.8890  203.8080  152.5450 S   0  0  0  0  0  1  0  0  0  0  0  0
  161.6700  206.3150  153.3250 C   0  0  0  0  0  2  0  0  0  0  0  0
  160.7430  206.8500  154.4010 C   0  0  0  0  0  2  0  0  0  0  0  0
  158.7320  213.5800  155.2550 N   0  0  0  0  0  0  0  0  0  0  0  0
  159.8080  212.3280  153.7950 C   0  0  0  0  0  0  0  0  0  0  0  0
  160.9720  208.3080  154.5910 C   0  0  0  0  0  0  0  0  0  0  0  0
  160.2870  211.5050  152.8780 C   0  0  0  0  0  2  0  0  0  0  0  0
  158.0540  213.9410  152.8480 C   0  0  0  0  0  1  0  0  0  0  0  0
  160.9110  209.1300  153.5270 C   0  0  0  0  0  3  0  0  0  0  0  0
  161.0340  211.0480  155.0810 C   0  0  2  0  0  3  0  0  0  0  0  0
  161.2350  210.5980  153.6530 C   0  0  2  0  0  3  0  0  0  0  0  0
  158.8670  213.3170  153.9260 C   0  0  0  0  0  0  0  0  0  0  0  0
  161.2250  210.1450  156.2160 C   0  0  0  0  0  3  0  0  0  0  0  0
  159.5540  212.7830  155.9000 O   0  0  0  0  0  0  0  0  0  0  0  0
  160.2010  212.0560  155.0270 C   0  0  0  0  0  0  0  0  0  0  0  0
  161.2200  208.8310  155.9620 C   0  0  0  0  0  3  0  0  0  0  0  0
  161.0410  207.4980  150.6150 C   0  0  0  0  0  2  0  0  0  0  0  0
  161.7050  207.9760  148.2610 C   0  0  0  0  0  1  0  0  0  0  0  0
  162.0560  208.2050  149.7210 C   0  0  1  0  0  3  0  0  0  0  0  0
  162.0360  209.6930  150.0290 C   0  0  0  0  0  2  0  0  0  0  0  0
  162.5430  211.7510  148.9150 O   0  0  0  0  0  1  0  0  0  0  0  0
  161.9160  210.5140  148.7550 C   0  0  0  0  0  2  0  0  0  0  0  0
  160.5290  205.2640  149.8090 N   0  0  0  0  0  2  0  0  0  0  0  0
  161.3050  204.2780  149.1740 N   0  0  0  0  0  2  0  0  0  0  0  0
  160.4300  203.1440  148.9310 C   0  0  0  0  0  2  0  0  0  0  0  0
  161.3620  201.6330  147.1850 C   0  0  0  0  0  3  0  0  0  0  0  0
  161.2360  201.9690  148.4730 C   0  0  0  0  0  3  0  0  0  0  0  0
  160.6970  202.3860  146.0660 C   0  0  2  0  0  3  0  0  0  0  0  0
  160.5020  200.1520  145.2130 O   0  0  0  0  0  1  0  0  0  0  0  0
  159.9900  201.4450  145.0960 C   0  0  0  0  0  2  0  0  0  0  0  0
  161.6380  203.2140  145.3790 O   0  0  0  0  0  0  0  0  0  0  0  0
  160.6640  205.2330  144.7900 O   0  0  0  0  0  0  0  0  0  0  0  0
  162.6250  205.3490  146.0200 N   0  0  0  0  0  1  0  0  0  0  0  0
  161.5970  204.6150  145.3670 C   0  0  0  0  0  0  0  0  0  0  0  0
  2  1  1  6  0  0  0
  2  3  1  0  0  0  0
  3  4  1  1  0  0  0
  3  5  1  0  0  0  0
  5  6  1  0  0  0  0
  6  9  1  0  0  0  0
  7 17  1  0  0  0  0
  8 15  1  0  0  0  0
  8 18  2  0  0  0  0
  9 19  1  0  0  0  0
 10  8  1  0  0  0  0
 11 15  1  0  0  0  0
 12 14  1  0  0  0  0
 12  9  2  0  0  0  0
 13 16  1  1  0  0  0
 14 10  1  6  0  0  0
 14 13  1  0  0  0  0
 15  7  2  0  0  0  0
 18 13  1  0  0  0  0
 18 17  1  0  0  0  0
 19 16  2  0  0  0  0
 20  2  1  0  0  0  0
 22 21  1  6  0  0  0
 22 23  1  0  0  0  0
 22 20  1  0  0  0  0
 25 24  1  0  0  0  0
 25 23  1  0  0  0  0
 26  2  1  0  0  0  0
 27 26  1  0  0  0  0
 28 27  1  0  0  0  0
 29 30  2  0  0  0  0
 30 28  1  0  0  0  0
 31 33  1  6  0  0  0
 31 29  1  0  0  0  0
 33 32  1  0  0  0  0
 34 31  1  0  0  0  0
 35 37  2  0  0  0  0
 37 34  1  0  0  0  0
 37 36  1  0  0  0  0
M  END
>  <MODEL>
6

>  <REMARK>
 VINA RESULT:      -5.8      2.353     10.146
  Name = 
  16 active torsions:
  status: ('A' for Active; 'I' for Inactive)
    1  A    between atoms: C_2  and  N_6
    2  A    between atoms: C_2  and  C_20
    3  A    between atoms: C_3  and  C_4
    4  A    between atoms: C_4  and  O_10
    5  A    between atoms: C_4  and  C_27
    6  A    between atoms: N_6  and  N_14
    7  A    between atoms: C_8  and  C_15
    8  A    between atoms: C_8  and  C_17
    9  A    between atoms: O_10  and  C_33
   10  A    between atoms: C_11  and  C_29
   11  A    between atoms: C_11  and  C_36
   12  A    between atoms: C_13  and  C_15
   13  A    between atoms: C_13  and  C_16
   14  A    between atoms: N_14  and  C_17
   15  A    between atoms: C_17  and  C_19
   16  A    between atoms: C_19  and  C_29
                            x       y       z     vdW  Elec       q    Type
                         _______ _______ _______ _____ _____    ______ ____

>  <TORSDO>
F 16

$$$$
=
 OpenBabel11052411023D

 37 39  0  0  1  0  0  0  0  0999 V2000
  162.8110  206.4630  151.6200 C   0  0  0  0  0  1  0  0  0  0  0  0
  161.2810  206.5970  151.5900 C   0  0  1  0  0  0  0  0  0  0  0  0
  160.7610  207.2530  152.8940 C   0  0  1  0  0  3  0  0  0  0  0  0
  161.1930  206.3170  154.4030 S   0  0  0  0  0  1  0  0  0  0  0  0
  161.2230  208.6990  153.0510 C   0  0  0  0  0  2  0  0  0  0  0  0
  160.6050  209.3160  154.2930 C   0  0  0  0  0  2  0  0  0  0  0  0
  156.1580  214.1700  151.6990 N   0  0  0  0  0  0  0  0  0  0  0  0
  158.2110  213.4360  151.3710 C   0  0  0  0  0  0  0  0  0  0  0  0
  160.1490  210.7020  154.0000 C   0  0  0  0  0  0  0  0  0  0  0  0
  159.3610  212.8450  151.1000 C   0  0  0  0  0  2  0  0  0  0  0  0
  156.7750  213.7980  149.2770 C   0  0  0  0  0  1  0  0  0  0  0  0
  160.3640  211.2230  152.7780 C   0  0  0  0  0  3  0  0  0  0  0  0
  158.9400  213.1400  153.4140 C   0  0  2  0  0  3  0  0  0  0  0  0
  160.0100  212.6560  152.4650 C   0  0  2  0  0  3  0  0  0  0  0  0
  157.0580  213.8260  150.7370 C   0  0  0  0  0  0  0  0  0  0  0  0
  158.8160  212.6250  154.7780 C   0  0  0  0  0  3  0  0  0  0  0  0
  156.7400  213.9930  152.8630 O   0  0  0  0  0  0  0  0  0  0  0  0
  157.9620  213.5740  152.6610 C   0  0  0  0  0  0  0  0  0  0  0  0
  159.4260  211.4660  155.0530 C   0  0  0  0  0  3  0  0  0  0  0  0
  160.9000  207.5160  150.4160 C   0  0  0  0  0  2  0  0  0  0  0  0
  162.1250  207.8200  148.2670 C   0  0  0  0  0  1  0  0  0  0  0  0
  162.0960  208.1830  149.7420 C   0  0  1  0  0  3  0  0  0  0  0  0
  161.9780  209.6900  149.9000 C   0  0  0  0  0  2  0  0  0  0  0  0
  162.6620  211.5810  148.6030 O   0  0  0  0  0  1  0  0  0  0  0  0
  161.9510  210.3820  148.5470 C   0  0  0  0  0  2  0  0  0  0  0  0
  160.6130  205.3030  151.3770 N   0  0  0  0  0  2  0  0  0  0  0  0
  161.4730  204.3920  150.7370 N   0  0  0  0  0  2  0  0  0  0  0  0
  160.7640  203.8920  149.5700 C   0  0  0  0  0  2  0  0  0  0  0  0
  160.8750  201.7080  148.3800 C   0  0  0  0  0  3  0  0  0  0  0  0
  160.8510  202.3990  149.5250 C   0  0  0  0  0  3  0  0  0  0  0  0
  160.8020  202.3540  147.0240 C   0  0  2  0  0  3  0  0  0  0  0  0
  159.7060  201.7400  144.9800 O   0  0  0  0  0  1  0  0  0  0  0  0
  160.6530  201.3180  145.9140 C   0  0  0  0  0  2  0  0  0  0  0  0
  161.9400  203.1870  146.7940 O   0  0  0  0  0  0  0  0  0  0  0  0
  160.7950  205.0100  145.9340 O   0  0  0  0  0  0  0  0  0  0  0  0
  163.1030  205.0420  145.7220 N   0  0  0  0  0  1  0  0  0  0  0  0
  161.8930  204.4290  146.1450 C   0  0  0  0  0  0  0  0  0  0  0  0
  2  1  1  1  0  0  0
  2  3  1  0  0  0  0
  3  5  1  0  0  0  0
  3  4  1  1  0  0  0
  5  6  1  0  0  0  0
  7 17  1  0  0  0  0
  8 18  2  0  0  0  0
  9  6  1  0  0  0  0
  9 19  1  0  0  0  0
 10  8  1  0  0  0  0
 11 15  1  0  0  0  0
 12  9  2  0  0  0  0
 13 16  1  1  0  0  0
 14 10  1  6  0  0  0
 14 12  1  0  0  0  0
 14 13  1  0  0  0  0
 15  8  1  0  0  0  0
 15  7  2  0  0  0  0
 16 19  2  0  0  0  0
 18 17  1  0  0  0  0
 18 13  1  0  0  0  0
 20  2  1  0  0  0  0
 22 21  1  6  0  0  0
 22 23  1  0  0  0  0
 22 20  1  0  0  0  0
 25 24  1  0  0  0  0
 25 23  1  0  0  0  0
 26  2  1  0  0  0  0
 27 26  1  0  0  0  0
 28 27  1  0  0  0  0
 29 30  2  0  0  0  0
 30 28  1  0  0  0  0
 31 33  1  6  0  0  0
 31 29  1  0  0  0  0
 32 33  1  0  0  0  0
 34 31  1  0  0  0  0
 35 37  2  0  0  0  0
 36 37  1  0  0  0  0
 37 34  1  0  0  0  0
M  END
>  <MODEL>
7

>  <REMARK>
 VINA RESULT:      -5.7      2.633      9.837
  Name = 
  16 active torsions:
  status: ('A' for Active; 'I' for Inactive)
    1  A    between atoms: C_2  and  N_6
    2  A    between atoms: C_2  and  C_20
    3  A    between atoms: C_3  and  C_4
    4  A    between atoms: C_4  and  O_10
    5  A    between atoms: C_4  and  C_27
    6  A    between atoms: N_6  and  N_14
    7  A    between atoms: C_8  and  C_15
    8  A    between atoms: C_8  and  C_17
    9  A    between atoms: O_10  and  C_33
   10  A    between atoms: C_11  and  C_29
   11  A    between atoms: C_11  and  C_36
   12  A    between atoms: C_13  and  C_15
   13  A    between atoms: C_13  and  C_16
   14  A    between atoms: N_14  and  C_17
   15  A    between atoms: C_17  and  C_19
   16  A    between atoms: C_19  and  C_29
                            x       y       z     vdW  Elec       q    Type
                         _______ _______ _______ _____ _____    ______ ____

>  <TORSDO>
F 16

$$$$
=
 OpenBabel11052411023D

 37 39  0  0  1  0  0  0  0  0999 V2000
  161.6750  210.6990  155.7740 C   0  0  0  0  0  1  0  0  0  0  0  0
  160.9360  209.9890  154.6300 C   0  0  1  0  0  0  0  0  0  0  0  0
  161.1500  208.4560  154.7050 C   0  0  1  0  0  3  0  0  0  0  0  0
  160.3380  207.6760  156.1450 S   0  0  0  0  0  1  0  0  0  0  0  0
  160.7110  207.7380  153.4320 C   0  0  0  0  0  2  0  0  0  0  0  0
  161.6970  206.6380  153.0820 C   0  0  0  0  0  2  0  0  0  0  0  0
  162.3650  203.6260  146.7140 N   0  0  0  0  0  0  0  0  0  0  0  0
  161.2580  205.2690  147.6800 C   0  0  0  0  0  0  0  0  0  0  0  0
  161.2150  205.8800  151.8950 C   0  0  0  0  0  0  0  0  0  0  0  0
  160.7560  206.3450  148.2620 C   0  0  0  0  0  2  0  0  0  0  0  0
  162.3380  205.7930  145.4140 C   0  0  0  0  0  1  0  0  0  0  0  0
  160.8350  206.5510  150.7920 C   0  0  0  0  0  3  0  0  0  0  0  0
  160.6880  204.3900  149.6030 C   0  0  2  0  0  3  0  0  0  0  0  0
  160.2450  205.8340  149.6040 C   0  0  2  0  0  3  0  0  0  0  0  0
  161.9680  204.9190  146.5600 C   0  0  0  0  0  0  0  0  0  0  0  0
  160.9800  203.6640  150.8390 C   0  0  0  0  0  3  0  0  0  0  0  0
  161.9170  203.2130  147.8780 O   0  0  0  0  0  0  0  0  0  0  0  0
  161.2470  204.1870  148.4370 C   0  0  0  0  0  0  0  0  0  0  0  0
  161.2040  204.3920  151.9400 C   0  0  0  0  0  3  0  0  0  0  0  0
  159.4300  210.2620  154.7840 C   0  0  0  0  0  2  0  0  0  0  0  0
  159.1940  212.7060  155.2110 C   0  0  0  0  0  1  0  0  0  0  0  0
  159.1000  211.3220  155.8310 C   0  0  1  0  0  3  0  0  0  0  0  0
  157.6920  211.0850  156.3510 C   0  0  0  0  0  2  0  0  0  0  0  0
  155.5580  212.0740  155.9090 O   0  0  0  0  0  1  0  0  0  0  0  0
  156.6520  211.4540  155.3050 C   0  0  0  0  0  2  0  0  0  0  0  0
  161.3450  210.4890  153.3080 N   0  0  0  0  0  2  0  0  0  0  0  0
  160.2330  210.9350  152.5710 N   0  0  0  0  0  2  0  0  0  0  0  0
  160.7030  211.9980  151.6990 C   0  0  0  0  0  2  0  0  0  0  0  0
  159.4370  213.7020  150.3980 C   0  0  0  0  0  3  0  0  0  0  0  0
  159.6340  213.0340  151.5390 C   0  0  0  0  0  3  0  0  0  0  0  0
  160.2730  213.4980  149.1650 C   0  0  2  0  0  3  0  0  0  0  0  0
  158.5340  214.1020  147.6260 O   0  0  0  0  0  1  0  0  0  0  0  0
  159.4220  213.0810  147.9700 C   0  0  0  0  0  2  0  0  0  0  0  0
  161.3130  212.5480  149.4060 O   0  0  0  0  0  0  0  0  0  0  0  0
  162.7780  212.5550  147.6110 O   0  0  0  0  0  0  0  0  0  0  0  0
  161.9540  210.4900  148.2680 N   0  0  0  0  0  1  0  0  0  0  0  0
  162.0430  211.9030  148.3990 C   0  0  0  0  0  0  0  0  0  0  0  0
  2  3  1  0  0  0  0
  2 20  1  0  0  0  0
  2  1  1  1  0  0  0
  3  4  1  1  0  0  0
  5  3  1  0  0  0  0
  6  5  1  0  0  0  0
  7 17  1  0  0  0  0
  8 10  1  0  0  0  0
  8 18  2  0  0  0  0
  9 19  1  0  0  0  0
  9  6  1  0  0  0  0
 11 15  1  0  0  0  0
 12  9  2  0  0  0  0
 13 14  1  0  0  0  0
 13 16  1  1  0  0  0
 14 10  1  6  0  0  0
 14 12  1  0  0  0  0
 15  7  2  0  0  0  0
 15  8  1  0  0  0  0
 16 19  2  0  0  0  0
 17 18  1  0  0  0  0
 18 13  1  0  0  0  0
 20 22  1  0  0  0  0
 22 21  1  6  0  0  0
 22 23  1  0  0  0  0
 25 24  1  0  0  0  0
 25 23  1  0  0  0  0
 26  2  1  0  0  0  0
 27 26  1  0  0  0  0
 28 27  1  0  0  0  0
 29 30  2  0  0  0  0
 30 28  1  0  0  0  0
 31 33  1  6  0  0  0
 31 34  1  0  0  0  0
 31 29  1  0  0  0  0
 32 33  1  0  0  0  0
 35 37  2  0  0  0  0
 36 37  1  0  0  0  0
 37 34  1  0  0  0  0
M  END
>  <MODEL>
8

>  <REMARK>
 VINA RESULT:      -5.4      3.191      6.613
  Name = 
  16 active torsions:
  status: ('A' for Active; 'I' for Inactive)
    1  A    between atoms: C_2  and  N_6
    2  A    between atoms: C_2  and  C_20
    3  A    between atoms: C_3  and  C_4
    4  A    between atoms: C_4  and  O_10
    5  A    between atoms: C_4  and  C_27
    6  A    between atoms: N_6  and  N_14
    7  A    between atoms: C_8  and  C_15
    8  A    between atoms: C_8  and  C_17
    9  A    between atoms: O_10  and  C_33
   10  A    between atoms: C_11  and  C_29
   11  A    between atoms: C_11  and  C_36
   12  A    between atoms: C_13  and  C_15
   13  A    between atoms: C_13  and  C_16
   14  A    between atoms: N_14  and  C_17
   15  A    between atoms: C_17  and  C_19
   16  A    between atoms: C_19  and  C_29
                            x       y       z     vdW  Elec       q    Type
                         _______ _______ _______ _____ _____    ______ ____

>  <TORSDO>
F 16

$$$$
=
 OpenBabel11052411023D

 37 39  0  0  1  0  0  0  0  0999 V2000
  162.9610  210.6790  153.9760 C   0  0  0  0  0  1  0  0  0  0  0  0
  161.5840  209.9980  153.9940 C   0  0  1  0  0  0  0  0  0  0  0  0
  161.6770  208.5870  154.6280 C   0  0  1  0  0  3  0  0  0  0  0  0
  161.1880  208.5440  156.3890 S   0  0  0  0  0  1  0  0  0  0  0  0
  160.8720  207.5430  153.8590 C   0  0  0  0  0  2  0  0  0  0  0  0
  161.7790  206.4170  153.3950 C   0  0  0  0  0  2  0  0  0  0  0  0
  162.1590  203.6110  146.9110 N   0  0  0  0  0  0  0  0  0  0  0  0
  161.2750  205.3530  147.9310 C   0  0  0  0  0  0  0  0  0  0  0  0
  161.2210  205.7860  152.1680 C   0  0  0  0  0  0  0  0  0  0  0  0
  160.9180  206.4640  148.5520 C   0  0  0  0  0  2  0  0  0  0  0  0
  162.4710  205.8120  145.7100 C   0  0  0  0  0  1  0  0  0  0  0  0
  160.9660  206.5510  151.0900 C   0  0  0  0  0  3  0  0  0  0  0  0
  160.5420  204.4850  149.8020 C   0  0  2  0  0  3  0  0  0  0  0  0
  160.3090  205.9760  149.8610 C   0  0  2  0  0  3  0  0  0  0  0  0
  161.9530  204.9520  146.8080 C   0  0  0  0  0  0  0  0  0  0  0  0
  160.6990  203.6730  151.0090 C   0  0  0  0  0  3  0  0  0  0  0  0
  161.6300  203.2170  148.0480 O   0  0  0  0  0  0  0  0  0  0  0  0
  161.0930  204.2530  148.6380 C   0  0  0  0  0  0  0  0  0  0  0  0
  160.9980  204.3150  152.1460 C   0  0  0  0  0  3  0  0  0  0  0  0
  160.6380  210.8430  154.8650 C   0  0  0  0  0  2  0  0  0  0  0  0
  158.3220  209.9480  155.0850 C   0  0  0  0  0  1  0  0  0  0  0  0
  159.2120  210.9200  154.3280 C   0  0  1  0  0  3  0  0  0  0  0  0
  158.6920  212.3370  154.5040 C   0  0  0  0  0  2  0  0  0  0  0  0
  159.6080  212.9640  152.3830 O   0  0  0  0  0  1  0  0  0  0  0  0
  158.4480  213.0020  153.1580 C   0  0  0  0  0  2  0  0  0  0  0  0
  160.9900  209.9070  152.6510 N   0  0  0  0  0  2  0  0  0  0  0  0
  161.9860  209.9260  151.6580 N   0  0  0  0  0  2  0  0  0  0  0  0
  161.7050  211.0650  150.8000 C   0  0  0  0  0  2  0  0  0  0  0  0
  161.8500  211.5650  148.3650 C   0  0  0  0  0  3  0  0  0  0  0  0
  161.8920  210.6790  149.3660 C   0  0  0  0  0  3  0  0  0  0  0  0
  161.5970  213.0330  148.5710 C   0  0  2  0  0  3  0  0  0  0  0  0
  159.7970  214.2000  149.6450 O   0  0  0  0  0  1  0  0  0  0  0  0
  160.1050  213.3510  148.5820 C   0  0  0  0  0  2  0  0  0  0  0  0
  162.2760  213.8110  147.5840 O   0  0  0  0  0  0  0  0  0  0  0  0
  163.1410  212.9690  145.6050 O   0  0  0  0  0  0  0  0  0  0  0  0
  161.0750  214.0110  145.4720 N   0  0  0  0  0  1  0  0  0  0  0  0
  162.2110  213.5700  146.2050 C   0  0  0  0  0  0  0  0  0  0  0  0
  2  1  1  6  0  0  0
  2  3  1  0  0  0  0
  2 20  1  0  0  0  0
  3  4  1  1  0  0  0
  5  3  1  0  0  0  0
  6  5  1  0  0  0  0
  7 17  1  0  0  0  0
  8 10  1  0  0  0  0
  8 18  2  0  0  0  0
  9  6  1  0  0  0  0
 11 15  1  0  0  0  0
 12  9  2  0  0  0  0
 13 14  1  0  0  0  0
 13 16  1  1  0  0  0
 14 10  1  6  0  0  0
 14 12  1  0  0  0  0
 15  7  2  0  0  0  0
 15  8  1  0  0  0  0
 16 19  2  0  0  0  0
 17 18  1  0  0  0  0
 18 13  1  0  0  0  0
 19  9  1  0  0  0  0
 22 23  1  0  0  0  0
 22 20  1  0  0  0  0
 22 21  1  1  0  0  0
 24 25  1  0  0  0  0
 25 23  1  0  0  0  0
 26  2  1  0  0  0  0
 27 26  1  0  0  0  0
 28 27  1  0  0  0  0
 29 30  2  0  0  0  0
 30 28  1  0  0  0  0
 31 29  1  6  0  0  0
 31 33  1  0  0  0  0
 33 32  1  0  0  0  0
 34 31  1  0  0  0  0
 35 37  2  0  0  0  0
 36 37  1  0  0  0  0
 37 34  1  0  0  0  0
M  END
>  <MODEL>
9

>  <REMARK>
 VINA RESULT:      -5.2      3.527      6.606
  Name = 
  16 active torsions:
  status: ('A' for Active; 'I' for Inactive)
    1  A    between atoms: C_2  and  N_6
    2  A    between atoms: C_2  and  C_20
    3  A    between atoms: C_3  and  C_4
    4  A    between atoms: C_4  and  O_10
    5  A    between atoms: C_4  and  C_27
    6  A    between atoms: N_6  and  N_14
    7  A    between atoms: C_8  and  C_15
    8  A    between atoms: C_8  and  C_17
    9  A    between atoms: O_10  and  C_33
   10  A    between atoms: C_11  and  C_29
   11  A    between atoms: C_11  and  C_36
   12  A    between atoms: C_13  and  C_15
   13  A    between atoms: C_13  and  C_16
   14  A    between atoms: N_14  and  C_17
   15  A    between atoms: C_17  and  C_19
   16  A    between atoms: C_19  and  C_29
                            x       y       z     vdW  Elec       q    Type
                         _______ _______ _______ _____ _____    ______ ____

>  <TORSDO>
F 16

$$$$
