=
 OpenBabel11052411143D

 26 29  0  0  1  0  0  0  0  0999 V2000
  161.5220  202.0310  149.5910 N   0  0  0  0  0  2  0  0  0  0  0  0
  160.4950  202.4440  148.6400 C   0  0  0  0  0  2  0  0  0  0  0  0
  160.5600  204.8990  150.2740 C   0  0  2  0  0  3  0  0  0  0  0  0
  160.9870  205.6860  151.4700 N   0  0  0  0  0  0  0  0  0  0  0  0
  161.0590  203.3690  147.5590 C   0  0  0  0  0  2  0  0  0  0  0  0
  160.8860  202.0300  150.9080 C   0  0  0  0  0  2  0  0  0  0  0  0
  161.3320  203.2220  151.7790 C   0  0  0  0  0  2  0  0  0  0  0  0
  161.8240  204.5960  148.0930 C   0  0  2  0  0  3  0  0  0  0  0  0
  161.6780  204.4630  150.9620 C   0  0  1  0  0  3  0  0  0  0  0  0
  160.9930  205.5540  148.9680 C   0  0  0  0  0  2  0  0  0  0  0  0
  160.9370  208.1060  152.0500 C   0  0  2  0  0  3  0  0  0  0  0  0
  162.3670  209.8830  151.8660 N   0  0  0  0  0  0  0  0  0  0  0  0
  161.0370  207.9150  154.2650 N   0  0  0  0  0  0  0  0  0  0  0  0
  160.9060  206.6670  153.7610 C   0  0  0  0  0  3  0  0  0  0  0  0
  160.8460  206.7720  152.3780 C   0  0  0  0  0  0  0  0  0  0  0  0
  161.8070  208.7920  151.0590 C   0  0  0  0  0  3  0  0  0  0  0  0
  161.0720  208.7630  153.2200 C   0  0  1  0  0  3  0  0  0  0  0  0
  161.9670  209.8470  153.0770 N   0  0  0  0  0  2  0  0  0  0  0  0
  160.3770  207.6380  156.5930 C   0  0  0  0  0  1  0  0  0  0  0  0
  161.4050  208.2190  155.6400 C   0  0  0  0  0  2  0  0  0  0  0  0
  163.7030  204.6420  146.5110 N   0  0  0  0  0  1  0  0  0  0  0  0
  162.5330  205.3690  146.9770 C   0  0  1  0  0  3  0  0  0  0  0  0
  161.6310  205.7160  145.8300 C   0  0  0  0  0  0  0  0  0  0  0  0
  161.1150  205.5320  143.3710 C   0  0  0  0  0  1  0  0  0  0  0  0
  161.9360  205.2160  144.5280 N   0  0  0  0  0  2  0  0  0  0  0  0
  160.6290  206.4620  146.0090 O   0  0  0  0  0  0  0  0  0  0  0  0
  1  6  1  0  0  0  0
  2  1  1  0  0  0  0
  3 10  1  6  0  0  0
  3  9  1  0  0  0  0
  3  4  1  0  0  0  0
  4 15  1  0  0  0  0
  5  8  1  0  0  0  0
  5  2  1  0  0  0  0
  6  7  1  0  0  0  0
  8 22  1  6  0  0  0
  8 10  1  0  0  0  0
  9  4  1  0  0  0  0
  9  7  1  1  0  0  0
 11 16  1  6  0  0  0
 11 15  1  0  0  0  0
 11 17  1  0  0  0  0
 12 18  1  0  0  0  0
 13 20  1  0  0  0  0
 14 13  1  0  0  0  0
 15 14  2  0  0  0  0
 16 12  2  0  0  0  0
 17 18  1  6  0  0  0
 17 13  1  0  0  0  0
 20 19  1  0  0  0  0
 22 21  1  6  0  0  0
 23 26  2  0  0  0  0
 23 22  1  0  0  0  0
 24 25  1  0  0  0  0
 25 23  1  0  0  0  0
M  END
>  <MODEL>
1

>  <REMARK>
 VINA RESULT:      -8.3      0.000      0.000
  Name = 
  4 active torsions:
  status: ('A' for Active; 'I' for Inactive)
    1  A    between atoms: C_7  and  C_25
    2  A    between atoms: N_8  and  C_16
    3  A    between atoms: N_11  and  C_14
    4  A    between atoms: C_23  and  C_25
                            x       y       z     vdW  Elec       q    Type
                         _______ _______ _______ _____ _____    ______ ____

>  <TORSDO>
F 4

$$$$
=
 OpenBabel11052411143D

 26 29  0  0  1  0  0  0  0  0999 V2000
  161.1820  202.5570  151.1770 N   0  0  0  0  0  2  0  0  0  0  0  0
  159.9910  202.5560  150.3340 C   0  0  0  0  0  2  0  0  0  0  0  0
  160.8560  205.3310  149.8300 C   0  0  2  0  0  3  0  0  0  0  0  0
  161.7120  206.5250  150.1030 N   0  0  0  0  0  0  0  0  0  0  0  0
  160.3400  202.3730  148.8550 C   0  0  0  0  0  2  0  0  0  0  0  0
  160.9580  203.5730  152.2040 C   0  0  0  0  0  2  0  0  0  0  0  0
  161.7920  204.8470  151.9650 C   0  0  0  0  0  2  0  0  0  0  0  0
  161.3860  203.3660  148.3110 C   0  0  2  0  0  3  0  0  0  0  0  0
  162.0540  205.1220  150.4880 C   0  0  1  0  0  3  0  0  0  0  0  0
  160.9800  204.8510  148.3890 C   0  0  0  0  0  2  0  0  0  0  0  0
  161.9910  208.7870  151.1030 C   0  0  2  0  0  3  0  0  0  0  0  0
  160.7070  210.2210  152.3390 N   0  0  0  0  0  0  0  0  0  0  0  0
  161.9840  209.9790  149.2240 N   0  0  0  0  0  0  0  0  0  0  0  0
  161.9860  208.6740  148.8690 C   0  0  0  0  0  3  0  0  0  0  0  0
  161.9870  207.9190  150.0340 C   0  0  0  0  0  0  0  0  0  0  0  0
  161.1340  208.8160  152.3170 C   0  0  0  0  0  3  0  0  0  0  0  0
  161.9700  210.0250  150.5690 C   0  0  1  0  0  3  0  0  0  0  0  0
  161.1610  210.8830  151.3490 N   0  0  0  0  0  2  0  0  0  0  0  0
  162.8710  212.0610  148.3240 C   0  0  0  0  0  1  0  0  0  0  0  0
  161.7110  211.0830  148.3170 C   0  0  0  0  0  2  0  0  0  0  0  0
  160.9010  202.0950  146.2650 N   0  0  0  0  0  1  0  0  0  0  0  0
  161.8410  203.0100  146.8930 C   0  0  1  0  0  3  0  0  0  0  0  0
  162.0760  204.2100  146.0250 C   0  0  0  0  0  0  0  0  0  0  0  0
  161.2870  205.6890  144.1440 C   0  0  0  0  0  1  0  0  0  0  0  0
  161.1100  204.5510  145.0310 N   0  0  0  0  0  2  0  0  0  0  0  0
  163.1280  204.8950  146.1540 O   0  0  0  0  0  0  0  0  0  0  0  0
  1  6  1  0  0  0  0
  2  1  1  0  0  0  0
  3 10  1  6  0  0  0
  3  4  1  0  0  0  0
  3  9  1  0  0  0  0
  4  9  1  0  0  0  0
  5  2  1  0  0  0  0
  7  6  1  0  0  0  0
  8 22  1  6  0  0  0
  8 10  1  0  0  0  0
  8  5  1  0  0  0  0
  9  7  1  1  0  0  0
 11 16  1  1  0  0  0
 13 17  1  0  0  0  0
 14 13  1  0  0  0  0
 14 15  2  0  0  0  0
 15  4  1  0  0  0  0
 15 11  1  0  0  0  0
 16 12  2  0  0  0  0
 17 11  1  0  0  0  0
 17 18  1  6  0  0  0
 18 12  1  0  0  0  0
 20 19  1  0  0  0  0
 20 13  1  0  0  0  0
 22 21  1  6  0  0  0
 23 26  2  0  0  0  0
 23 22  1  0  0  0  0
 24 25  1  0  0  0  0
 25 23  1  0  0  0  0
M  END
>  <MODEL>
2

>  <REMARK>
 VINA RESULT:      -8.2      1.907      3.411
  Name = 
  4 active torsions:
  status: ('A' for Active; 'I' for Inactive)
    1  A    between atoms: C_7  and  C_25
    2  A    between atoms: N_8  and  C_16
    3  A    between atoms: N_11  and  C_14
    4  A    between atoms: C_23  and  C_25
                            x       y       z     vdW  Elec       q    Type
                         _______ _______ _______ _____ _____    ______ ____

>  <TORSDO>
F 4

$$$$
=
 OpenBabel11052411143D

 26 29  0  0  1  0  0  0  0  0999 V2000
  160.3660  204.0370  145.3360 N   0  0  0  0  0  2  0  0  0  0  0  0
  161.5100  203.2170  145.7200 C   0  0  0  0  0  2  0  0  0  0  0  0
  161.9340  205.4370  147.6150 C   0  0  2  0  0  3  0  0  0  0  0  0
  161.6400  206.8010  148.1480 N   0  0  0  0  0  0  0  0  0  0  0  0
  161.2370  202.4210  146.9990 C   0  0  0  0  0  2  0  0  0  0  0  0
  160.9130  205.3010  144.8450 C   0  0  0  0  0  2  0  0  0  0  0  0
  160.7120  206.4580  145.8440 C   0  0  0  0  0  2  0  0  0  0  0  0
  160.7530  203.2650  148.1940 C   0  0  2  0  0  3  0  0  0  0  0  0
  160.7100  205.9980  147.2990 C   0  0  1  0  0  3  0  0  0  0  0  0
  161.7370  204.3530  148.6680 C   0  0  0  0  0  2  0  0  0  0  0  0
  161.9960  208.0490  150.2720 C   0  0  2  0  0  3  0  0  0  0  0  0
  160.7450  208.5720  152.1150 N   0  0  0  0  0  0  0  0  0  0  0  0
  162.0990  210.1060  149.4310 N   0  0  0  0  0  0  0  0  0  0  0  0
  162.0500  209.2490  148.3870 C   0  0  0  0  0  3  0  0  0  0  0  0
  161.9820  207.9610  148.8990 C   0  0  0  0  0  0  0  0  0  0  0  0
  161.1060  207.4180  151.2820 C   0  0  0  0  0  3  0  0  0  0  0  0
  162.0480  209.3670  150.5550 C   0  0  1  0  0  3  0  0  0  0  0  0
  161.2590  209.6590  151.6910 N   0  0  0  0  0  2  0  0  0  0  0  0
  162.7320  212.1040  148.1900 C   0  0  0  0  0  1  0  0  0  0  0  0
  161.9050  211.5450  149.3320 C   0  0  0  0  0  2  0  0  0  0  0  0
  160.5330  200.9890  149.0920 N   0  0  0  0  0  1  0  0  0  0  0  0
  160.3050  202.3970  149.3740 C   0  0  1  0  0  3  0  0  0  0  0  0
  160.9420  202.7890  150.6740 C   0  0  0  0  0  0  0  0  0  0  0  0
  161.0460  204.3830  152.6210 C   0  0  0  0  0  1  0  0  0  0  0  0
  160.4600  203.9380  151.3680 N   0  0  0  0  0  2  0  0  0  0  0  0
  161.9090  202.1230  151.1360 O   0  0  0  0  0  0  0  0  0  0  0  0
  1  2  1  0  0  0  0
  2  5  1  0  0  0  0
  3  4  1  0  0  0  0
  3 10  1  1  0  0  0
  4 15  1  0  0  0  0
  5  8  1  0  0  0  0
  6  1  1  0  0  0  0
  6  7  1  0  0  0  0
  8 10  1  0  0  0  0
  8 22  1  1  0  0  0
  9  7  1  6  0  0  0
  9  3  1  0  0  0  0
  9  4  1  0  0  0  0
 11 17  1  0  0  0  0
 11 16  1  1  0  0  0
 13 17  1  0  0  0  0
 14 15  2  0  0  0  0
 14 13  1  0  0  0  0
 15 11  1  0  0  0  0
 16 12  2  0  0  0  0
 17 18  1  6  0  0  0
 18 12  1  0  0  0  0
 19 20  1  0  0  0  0
 20 13  1  0  0  0  0
 22 21  1  6  0  0  0
 22 23  1  0  0  0  0
 23 26  2  0  0  0  0
 23 25  1  0  0  0  0
 25 24  1  0  0  0  0
M  END
>  <MODEL>
3

>  <REMARK>
 VINA RESULT:      -7.7      2.458      5.146
  Name = 
  4 active torsions:
  status: ('A' for Active; 'I' for Inactive)
    1  A    between atoms: C_7  and  C_25
    2  A    between atoms: N_8  and  C_16
    3  A    between atoms: N_11  and  C_14
    4  A    between atoms: C_23  and  C_25
                            x       y       z     vdW  Elec       q    Type
                         _______ _______ _______ _____ _____    ______ ____

>  <TORSDO>
F 4

$$$$
=
 OpenBabel11052411143D

 26 29  0  0  1  0  0  0  0  0999 V2000
  161.5590  201.6200  150.1310 N   0  0  0  0  0  2  0  0  0  0  0  0
  160.4280  201.8770  149.2460 C   0  0  0  0  0  2  0  0  0  0  0  0
  160.4780  204.4830  150.6270 C   0  0  2  0  0  3  0  0  0  0  0  0
  160.9570  205.4090  151.6980 N   0  0  0  0  0  0  0  0  0  0  0  0
  160.8330  202.7200  148.0340 C   0  0  0  0  0  2  0  0  0  0  0  0
  161.0430  201.7150  151.4960 C   0  0  0  0  0  2  0  0  0  0  0  0
  161.4860  203.0110  152.2040 C   0  0  0  0  0  2  0  0  0  0  0  0
  161.5620  204.0340  148.3750 C   0  0  2  0  0  3  0  0  0  0  0  0
  161.6780  204.1810  151.2450 C   0  0  1  0  0  3  0  0  0  0  0  0
  160.7510  205.0280  149.2300 C   0  0  0  0  0  2  0  0  0  0  0  0
  160.9130  207.8710  152.0630 C   0  0  2  0  0  3  0  0  0  0  0  0
  162.3400  209.6230  151.7040 N   0  0  0  0  0  0  0  0  0  0  0  0
  161.0430  207.8750  154.2840 N   0  0  0  0  0  0  0  0  0  0  0  0
  160.9060  206.5880  153.8940 C   0  0  0  0  0  3  0  0  0  0  0  0
  160.8280  206.5710  152.5080 C   0  0  0  0  0  0  0  0  0  0  0  0
  161.7700  208.4660  151.0040 C   0  0  0  0  0  3  0  0  0  0  0  0
  161.0630  208.6280  153.1680 C   0  0  1  0  0  3  0  0  0  0  0  0
  161.9550  209.6950  152.9180 N   0  0  0  0  0  2  0  0  0  0  0  0
  160.3510  209.1870  156.2160 C   0  0  0  0  0  1  0  0  0  0  0  0
  161.4270  208.2990  155.6220 C   0  0  0  0  0  2  0  0  0  0  0  0
  161.6770  204.0510  145.9220 N   0  0  0  0  0  1  0  0  0  0  0  0
  162.1180  204.7300  147.1290 C   0  0  1  0  0  3  0  0  0  0  0  0
  161.7880  206.1910  147.0680 C   0  0  0  0  0  0  0  0  0  0  0  0
  162.2460  208.5330  147.8760 C   0  0  0  0  0  1  0  0  0  0  0  0
  162.5290  207.1070  147.8730 N   0  0  0  0  0  2  0  0  0  0  0  0
  160.8500  206.6030  146.3320 O   0  0  0  0  0  0  0  0  0  0  0  0
  1  6  1  0  0  0  0
  2  1  1  0  0  0  0
  3 10  1  6  0  0  0
  3  9  1  0  0  0  0
  3  4  1  0  0  0  0
  4 15  1  0  0  0  0
  5  8  1  0  0  0  0
  5  2  1  0  0  0  0
  6  7  1  0  0  0  0
  8 22  1  6  0  0  0
  8 10  1  0  0  0  0
  9  4  1  0  0  0  0
  9  7  1  1  0  0  0
 11 16  1  6  0  0  0
 11 15  1  0  0  0  0
 11 17  1  0  0  0  0
 12 18  1  0  0  0  0
 13 20  1  0  0  0  0
 14 13  1  0  0  0  0
 15 14  2  0  0  0  0
 16 12  2  0  0  0  0
 17 18  1  6  0  0  0
 17 13  1  0  0  0  0
 20 19  1  0  0  0  0
 22 21  1  6  0  0  0
 23 22  1  0  0  0  0
 23 25  1  0  0  0  0
 25 24  1  0  0  0  0
 26 23  2  0  0  0  0
M  END
>  <MODEL>
4

>  <REMARK>
 VINA RESULT:      -7.5      1.111      1.520
  Name = 
  4 active torsions:
  status: ('A' for Active; 'I' for Inactive)
    1  A    between atoms: C_7  and  C_25
    2  A    between atoms: N_8  and  C_16
    3  A    between atoms: N_11  and  C_14
    4  A    between atoms: C_23  and  C_25
                            x       y       z     vdW  Elec       q    Type
                         _______ _______ _______ _____ _____    ______ ____

>  <TORSDO>
F 4

$$$$
=
 OpenBabel11052411143D

 26 29  0  0  1  0  0  0  0  0999 V2000
  161.2930  202.6810  150.3340 N   0  0  0  0  0  2  0  0  0  0  0  0
  160.2520  203.0790  149.3920 C   0  0  0  0  0  2  0  0  0  0  0  0
  160.6410  205.6890  150.7090 C   0  0  2  0  0  3  0  0  0  0  0  0
  161.2110  206.5650  151.7770 N   0  0  0  0  0  0  0  0  0  0  0  0
  160.8320  203.8120  148.1790 C   0  0  0  0  0  2  0  0  0  0  0  0
  160.7410  202.8970  151.6710 C   0  0  0  0  0  2  0  0  0  0  0  0
  161.3460  204.1320  152.3660 C   0  0  0  0  0  2  0  0  0  0  0  0
  161.7370  205.0110  148.5210 C   0  0  2  0  0  3  0  0  0  0  0  0
  161.7540  205.2290  151.3890 C   0  0  1  0  0  3  0  0  0  0  0  0
  161.0520  206.1420  149.3130 C   0  0  0  0  0  2  0  0  0  0  0  0
  161.2060  207.8190  153.9270 C   0  0  2  0  0  3  0  0  0  0  0  0
  159.8480  207.9510  155.7630 N   0  0  0  0  0  0  0  0  0  0  0  0
  160.7620  209.8460  153.1240 N   0  0  0  0  0  0  0  0  0  0  0  0
  160.9510  209.0290  152.0640 C   0  0  0  0  0  3  0  0  0  0  0  0
  161.2260  207.7590  152.5520 C   0  0  0  0  0  0  0  0  0  0  0  0
  160.5090  206.9530  154.9140 C   0  0  0  0  0  3  0  0  0  0  0  0
  160.9020  209.0970  154.2330 C   0  0  1  0  0  3  0  0  0  0  0  0
  160.0550  209.1450  155.3640 N   0  0  0  0  0  2  0  0  0  0  0  0
  158.7050  211.0980  152.7600 C   0  0  0  0  0  1  0  0  0  0  0  0
  160.1920  211.1830  153.0480 C   0  0  0  0  0  2  0  0  0  0  0  0
  163.5510  204.7180  146.8900 N   0  0  0  0  0  1  0  0  0  0  0  0
  162.4440  205.5750  147.2850 C   0  0  1  0  0  3  0  0  0  0  0  0
  161.5190  205.8160  146.1290 C   0  0  0  0  0  0  0  0  0  0  0  0
  160.9830  205.4540  143.6950 C   0  0  0  0  0  1  0  0  0  0  0  0
  161.8260  205.2420  144.8600 N   0  0  0  0  0  2  0  0  0  0  0  0
  160.4960  206.5400  146.2730 O   0  0  0  0  0  0  0  0  0  0  0  0
  1  6  1  0  0  0  0
  2  1  1  0  0  0  0
  3 10  1  6  0  0  0
  3  9  1  0  0  0  0
  3  4  1  0  0  0  0
  4 15  1  0  0  0  0
  5  8  1  0  0  0  0
  5  2  1  0  0  0  0
  6  7  1  0  0  0  0
  8 22  1  6  0  0  0
  8 10  1  0  0  0  0
  9  4  1  0  0  0  0
  9  7  1  1  0  0  0
 11 17  1  0  0  0  0
 11 16  1  6  0  0  0
 13 17  1  0  0  0  0
 14 15  2  0  0  0  0
 14 13  1  0  0  0  0
 15 11  1  0  0  0  0
 16 12  2  0  0  0  0
 17 18  1  6  0  0  0
 18 12  1  0  0  0  0
 19 20  1  0  0  0  0
 20 13  1  0  0  0  0
 22 21  1  6  0  0  0
 23 26  2  0  0  0  0
 23 22  1  0  0  0  0
 24 25  1  0  0  0  0
 25 23  1  0  0  0  0
M  END
>  <MODEL>
5

>  <REMARK>
 VINA RESULT:      -7.3      1.250      2.235
  Name = 
  4 active torsions:
  status: ('A' for Active; 'I' for Inactive)
    1  A    between atoms: C_7  and  C_25
    2  A    between atoms: N_8  and  C_16
    3  A    between atoms: N_11  and  C_14
    4  A    between atoms: C_23  and  C_25
                            x       y       z     vdW  Elec       q    Type
                         _______ _______ _______ _____ _____    ______ ____

>  <TORSDO>
F 4

$$$$
=
 OpenBabel11052411143D

 26 29  0  0  1  0  0  0  0  0999 V2000
  160.2420  209.2540  156.9130 N   0  0  0  0  0  2  0  0  0  0  0  0
  161.2010  210.3510  156.8320 C   0  0  0  0  0  2  0  0  0  0  0  0
  161.5520  209.2890  154.1030 C   0  0  2  0  0  3  0  0  0  0  0  0
  161.3320  208.2630  153.0400 N   0  0  0  0  0  0  0  0  0  0  0  0
  160.6230  211.5590  156.0900 C   0  0  0  0  0  2  0  0  0  0  0  0
  161.0090  208.0240  156.7180 C   0  0  0  0  0  2  0  0  0  0  0  0
  160.7770  207.4000  155.3280 C   0  0  0  0  0  2  0  0  0  0  0  0
  160.0440  211.2440  154.6970 C   0  0  2  0  0  3  0  0  0  0  0  0
  160.4740  208.4360  154.2500 C   0  0  1  0  0  3  0  0  0  0  0  0
  161.0520  210.6670  153.6840 C   0  0  0  0  0  2  0  0  0  0  0  0
  162.2780  208.2350  150.7380 C   0  0  2  0  0  3  0  0  0  0  0  0
  161.8970  209.3520  148.7780 N   0  0  0  0  0  0  0  0  0  0  0  0
  161.4810  206.2650  150.0790 N   0  0  0  0  0  0  0  0  0  0  0  0
  161.1850  206.3980  151.3910 C   0  0  0  0  0  3  0  0  0  0  0  0
  161.6740  207.6260  151.8140 C   0  0  0  0  0  0  0  0  0  0  0  0
  162.1210  209.6140  150.2050 C   0  0  0  0  0  3  0  0  0  0  0  0
  162.1230  207.3870  149.7010 C   0  0  1  0  0  3  0  0  0  0  0  0
  161.8790  208.1060  148.5080 N   0  0  0  0  0  2  0  0  0  0  0  0
  160.8700  203.9140  149.9070 C   0  0  0  0  0  1  0  0  0  0  0  0
  160.9140  205.2550  149.1990 C   0  0  0  0  0  2  0  0  0  0  0  0
  159.7270  212.6670  152.7200 N   0  0  0  0  0  1  0  0  0  0  0  0
  159.3030  212.4400  154.0920 C   0  0  1  0  0  3  0  0  0  0  0  0
  157.8110  212.3190  154.1750 C   0  0  0  0  0  0  0  0  0  0  0  0
  155.8000  211.0140  154.9510 C   0  0  0  0  0  1  0  0  0  0  0  0
  157.2390  211.2020  154.8530 N   0  0  0  0  0  2  0  0  0  0  0  0
  157.0700  213.1820  153.6280 O   0  0  0  0  0  0  0  0  0  0  0  0
  2  1  1  0  0  0  0
  3 10  1  6  0  0  0
  3  9  1  0  0  0  0
  4  3  1  0  0  0  0
  4  9  1  0  0  0  0
  5  2  1  0  0  0  0
  6  1  1  0  0  0  0
  7  6  1  0  0  0  0
  8 22  1  6  0  0  0
  8  5  1  0  0  0  0
  9  7  1  1  0  0  0
 10  8  1  0  0  0  0
 11 16  1  6  0  0  0
 11 15  1  0  0  0  0
 12 16  2  0  0  0  0
 13 14  1  0  0  0  0
 14 15  2  0  0  0  0
 15  4  1  0  0  0  0
 17 18  1  6  0  0  0
 17 13  1  0  0  0  0
 17 11  1  0  0  0  0
 18 12  1  0  0  0  0
 20 19  1  0  0  0  0
 20 13  1  0  0  0  0
 22 21  1  6  0  0  0
 22 23  1  0  0  0  0
 23 25  1  0  0  0  0
 25 24  1  0  0  0  0
 26 23  2  0  0  0  0
M  END
>  <MODEL>
6

>  <REMARK>
 VINA RESULT:      -7.1      3.480      8.113
  Name = 
  4 active torsions:
  status: ('A' for Active; 'I' for Inactive)
    1  A    between atoms: C_7  and  C_25
    2  A    between atoms: N_8  and  C_16
    3  A    between atoms: N_11  and  C_14
    4  A    between atoms: C_23  and  C_25
                            x       y       z     vdW  Elec       q    Type
                         _______ _______ _______ _____ _____    ______ ____

>  <TORSDO>
F 4

$$$$
=
 OpenBabel11052411143D

 26 29  0  0  1  0  0  0  0  0999 V2000
  161.2420  201.6350  150.7790 N   0  0  0  0  0  2  0  0  0  0  0  0
  160.0810  201.6360  149.8960 C   0  0  0  0  0  2  0  0  0  0  0  0
  160.4650  204.5540  150.0820 C   0  0  2  0  0  3  0  0  0  0  0  0
  161.1000  205.7750  150.6640 N   0  0  0  0  0  0  0  0  0  0  0  0
  160.4770  201.8620  148.4340 C   0  0  0  0  0  2  0  0  0  0  0  0
  160.8330  202.3330  151.9970 C   0  0  0  0  0  2  0  0  0  0  0  0
  161.4410  203.7460  152.0980 C   0  0  0  0  0  2  0  0  0  0  0  0
  161.3450  203.1110  148.1870 C   0  0  2  0  0  3  0  0  0  0  0  0
  161.6720  204.3970  150.7380 C   0  0  1  0  0  3  0  0  0  0  0  0
  160.6900  204.4510  148.5780 C   0  0  0  0  0  2  0  0  0  0  0  0
  161.1370  208.1670  149.9760 C   0  0  2  0  0  3  0  0  0  0  0  0
  162.4740  209.4970  148.6800 N   0  0  0  0  0  0  0  0  0  0  0  0
  161.6930  209.0630  151.9360 N   0  0  0  0  0  0  0  0  0  0  0  0
  161.4780  207.7450  152.1460 C   0  0  0  0  0  3  0  0  0  0  0  0
  161.1340  207.1730  150.9290 C   0  0  0  0  0  0  0  0  0  0  0  0
  161.7750  208.2060  148.6340 C   0  0  0  0  0  3  0  0  0  0  0  0
  161.5000  209.2930  150.6230 C   0  0  1  0  0  3  0  0  0  0  0  0
  162.3310  210.0870  149.8010 N   0  0  0  0  0  2  0  0  0  0  0  0
  161.2840  210.6070  153.7740 C   0  0  0  0  0  1  0  0  0  0  0  0
  162.3300  209.9610  152.8870 C   0  0  0  0  0  2  0  0  0  0  0  0
  161.1510  202.2480  145.8950 N   0  0  0  0  0  1  0  0  0  0  0  0
  161.8750  203.1740  146.7510 C   0  0  1  0  0  3  0  0  0  0  0  0
  161.8590  204.5570  146.1720 C   0  0  0  0  0  0  0  0  0  0  0  0
  160.8290  206.2030  144.5660 C   0  0  0  0  0  1  0  0  0  0  0  0
  160.8860  204.8880  145.1820 N   0  0  0  0  0  2  0  0  0  0  0  0
  162.7130  205.4110  146.5380 O   0  0  0  0  0  0  0  0  0  0  0  0
  1  6  1  0  0  0  0
  2  1  1  0  0  0  0
  3 10  1  6  0  0  0
  3  4  1  0  0  0  0
  3  9  1  0  0  0  0
  4  9  1  0  0  0  0
  4 15  1  0  0  0  0
  5  2  1  0  0  0  0
  6  7  1  0  0  0  0
  8 22  1  6  0  0  0
  8  5  1  0  0  0  0
  8 10  1  0  0  0  0
  9  7  1  1  0  0  0
 11 16  1  6  0  0  0
 11 17  1  0  0  0  0
 11 15  1  0  0  0  0
 12 18  1  0  0  0  0
 13 14  1  0  0  0  0
 13 20  1  0  0  0  0
 15 14  2  0  0  0  0
 16 12  2  0  0  0  0
 17 18  1  6  0  0  0
 17 13  1  0  0  0  0
 20 19  1  0  0  0  0
 22 21  1  6  0  0  0
 23 26  2  0  0  0  0
 23 22  1  0  0  0  0
 24 25  1  0  0  0  0
 25 23  1  0  0  0  0
M  END
>  <MODEL>
7

>  <REMARK>
 VINA RESULT:      -7.1      1.714      2.187
  Name = 
  4 active torsions:
  status: ('A' for Active; 'I' for Inactive)
    1  A    between atoms: C_7  and  C_25
    2  A    between atoms: N_8  and  C_16
    3  A    between atoms: N_11  and  C_14
    4  A    between atoms: C_23  and  C_25
                            x       y       z     vdW  Elec       q    Type
                         _______ _______ _______ _____ _____    ______ ____

>  <TORSDO>
F 4

$$$$
=
 OpenBabel11052411143D

 26 29  0  0  1  0  0  0  0  0999 V2000
  160.9990  208.8590  155.6610 N   0  0  0  0  0  2  0  0  0  0  0  0
  162.0650  209.7920  155.3130 C   0  0  0  0  0  2  0  0  0  0  0  0
  161.5820  208.6880  152.6210 C   0  0  2  0  0  3  0  0  0  0  0  0
  160.9580  207.7090  151.6800 N   0  0  0  0  0  0  0  0  0  0  0  0
  161.5170  211.0760  154.6850 C   0  0  0  0  0  2  0  0  0  0  0  0
  161.4980  207.5240  155.3360 C   0  0  0  0  0  2  0  0  0  0  0  0
  160.8460  206.9440  154.0660 C   0  0  0  0  0  2  0  0  0  0  0  0
  160.5780  210.8560  153.4820 C   0  0  2  0  0  3  0  0  0  0  0  0
  160.4540  208.0150  153.0520 C   0  0  1  0  0  3  0  0  0  0  0  0
  161.2130  210.1280  152.2810 C   0  0  0  0  0  2  0  0  0  0  0  0
  160.4830  205.7250  150.2540 C   0  0  2  0  0  3  0  0  0  0  0  0
  161.1850  203.5500  150.1570 N   0  0  0  0  0  0  0  0  0  0  0  0
  161.4880  206.4110  148.3920 N   0  0  0  0  0  0  0  0  0  0  0  0
  161.5160  207.4430  149.2640 C   0  0  0  0  0  3  0  0  0  0  0  0
  160.8940  207.0270  150.4330 C   0  0  0  0  0  0  0  0  0  0  0  0
  160.6740  204.5320  151.1210 C   0  0  0  0  0  3  0  0  0  0  0  0
  160.8790  205.3830  149.0120 C   0  0  1  0  0  3  0  0  0  0  0  0
  161.3160  204.0380  148.9870 N   0  0  0  0  0  2  0  0  0  0  0  0
  161.4000  205.8300  146.0280 C   0  0  0  0  0  1  0  0  0  0  0  0
  162.2660  206.3430  147.1640 C   0  0  0  0  0  2  0  0  0  0  0  0
  159.9300  212.2640  151.5770 N   0  0  0  0  0  1  0  0  0  0  0  0
  159.9050  212.1540  153.0260 C   0  0  1  0  0  3  0  0  0  0  0  0
  158.5080  212.3140  153.5480 C   0  0  0  0  0  0  0  0  0  0  0  0
  156.6310  211.4240  154.9730 C   0  0  0  0  0  1  0  0  0  0  0  0
  157.9840  211.3380  154.4470 N   0  0  0  0  0  2  0  0  0  0  0  0
  157.7970  213.2870  153.1750 O   0  0  0  0  0  0  0  0  0  0  0  0
  2  1  1  0  0  0  0
  3 10  1  6  0  0  0
  3  9  1  0  0  0  0
  4  3  1  0  0  0  0
  4  9  1  0  0  0  0
  5  2  1  0  0  0  0
  6  1  1  0  0  0  0
  7  6  1  0  0  0  0
  8 22  1  6  0  0  0
  8  5  1  0  0  0  0
  9  7  1  1  0  0  0
 10  8  1  0  0  0  0
 11 15  1  0  0  0  0
 11 16  1  1  0  0  0
 12 16  2  0  0  0  0
 13 17  1  0  0  0  0
 13 14  1  0  0  0  0
 14 15  2  0  0  0  0
 15  4  1  0  0  0  0
 17 18  1  1  0  0  0
 17 11  1  0  0  0  0
 18 12  1  0  0  0  0
 19 20  1  0  0  0  0
 20 13  1  0  0  0  0
 22 21  1  6  0  0  0
 22 23  1  0  0  0  0
 23 25  1  0  0  0  0
 25 24  1  0  0  0  0
 26 23  2  0  0  0  0
M  END
>  <MODEL>
8

>  <REMARK>
 VINA RESULT:      -7.1      3.132      8.000
  Name = 
  4 active torsions:
  status: ('A' for Active; 'I' for Inactive)
    1  A    between atoms: C_7  and  C_25
    2  A    between atoms: N_8  and  C_16
    3  A    between atoms: N_11  and  C_14
    4  A    between atoms: C_23  and  C_25
                            x       y       z     vdW  Elec       q    Type
                         _______ _______ _______ _____ _____    ______ ____

>  <TORSDO>
F 4

$$$$
=
 OpenBabel11052411143D

 26 29  0  0  1  0  0  0  0  0999 V2000
  161.6560  203.9320  151.0270 N   0  0  0  0  0  2  0  0  0  0  0  0
  160.4450  204.1360  150.2390 C   0  0  0  0  0  2  0  0  0  0  0  0
  160.6000  206.8140  151.4670 C   0  0  2  0  0  3  0  0  0  0  0  0
  161.1690  207.7990  152.4360 N   0  0  0  0  0  0  0  0  0  0  0  0
  160.7280  204.9130  148.9510 C   0  0  0  0  0  2  0  0  0  0  0  0
  161.2690  204.1000  152.4270 C   0  0  0  0  0  2  0  0  0  0  0  0
  161.7640  205.4340  153.0200 C   0  0  0  0  0  2  0  0  0  0  0  0
  161.4730  206.2470  149.1510 C   0  0  2  0  0  3  0  0  0  0  0  0
  161.8550  206.5510  151.9850 C   0  0  1  0  0  3  0  0  0  0  0  0
  160.7370  207.2820  150.0230 C   0  0  0  0  0  2  0  0  0  0  0  0
  161.1810  209.0910  154.5630 C   0  0  2  0  0  3  0  0  0  0  0  0
  159.9560  209.1090  156.4960 N   0  0  0  0  0  0  0  0  0  0  0  0
  160.4500  211.0370  153.7690 N   0  0  0  0  0  0  0  0  0  0  0  0
  160.6520  210.2230  152.7090 C   0  0  0  0  0  3  0  0  0  0  0  0
  161.1050  209.0030  153.1920 C   0  0  0  0  0  0  0  0  0  0  0  0
  160.6630  208.1740  155.6130 C   0  0  0  0  0  3  0  0  0  0  0  0
  160.7560  210.3330  154.8750 C   0  0  1  0  0  3  0  0  0  0  0  0
  159.9960  210.3090  156.0660 N   0  0  0  0  0  2  0  0  0  0  0  0
  158.4640  212.1410  152.8920 C   0  0  0  0  0  1  0  0  0  0  0  0
  159.7260  212.2980  153.7190 C   0  0  0  0  0  2  0  0  0  0  0  0
  163.1110  207.6680  147.9970 N   0  0  0  0  0  1  0  0  0  0  0  0
  161.9050  206.8750  147.8230 C   0  0  1  0  0  3  0  0  0  0  0  0
  162.0810  205.8730  146.7210 C   0  0  0  0  0  0  0  0  0  0  0  0
  161.2150  204.8490  144.5890 C   0  0  0  0  0  1  0  0  0  0  0  0
  161.1130  205.8100  145.6750 N   0  0  0  0  0  2  0  0  0  0  0  0
  163.0620  205.0790  146.7330 O   0  0  0  0  0  0  0  0  0  0  0  0
  1  6  1  0  0  0  0
  2  1  1  0  0  0  0
  3 10  1  6  0  0  0
  3  9  1  0  0  0  0
  3  4  1  0  0  0  0
  4 15  1  0  0  0  0
  5  8  1  0  0  0  0
  5  2  1  0  0  0  0
  6  7  1  0  0  0  0
  8 22  1  6  0  0  0
  8 10  1  0  0  0  0
  9  4  1  0  0  0  0
  9  7  1  1  0  0  0
 11 17  1  0  0  0  0
 11 16  1  1  0  0  0
 13 17  1  0  0  0  0
 14 15  2  0  0  0  0
 14 13  1  0  0  0  0
 15 11  1  0  0  0  0
 16 12  2  0  0  0  0
 17 18  1  1  0  0  0
 18 12  1  0  0  0  0
 19 20  1  0  0  0  0
 20 13  1  0  0  0  0
 22 21  1  1  0  0  0
 23 26  2  0  0  0  0
 23 22  1  0  0  0  0
 24 25  1  0  0  0  0
 25 23  1  0  0  0  0
M  END
>  <MODEL>
9

>  <REMARK>
 VINA RESULT:      -7.0      2.081      3.091
  Name = 
  4 active torsions:
  status: ('A' for Active; 'I' for Inactive)
    1  A    between atoms: C_7  and  C_25
    2  A    between atoms: N_8  and  C_16
    3  A    between atoms: N_11  and  C_14
    4  A    between atoms: C_23  and  C_25
                            x       y       z     vdW  Elec       q    Type
                         _______ _______ _______ _____ _____    ______ ____

>  <TORSDO>
F 4

$$$$
