=
 OpenBabel11042422503D

 38 40  0  0  1  0  0  0  0  0999 V2000
  162.0300  208.4950  148.2400 C   0  0  0  0  0  3  0  0  0  0  0  0
  161.5880  207.0540  148.4320 C   0  0  0  0  0  2  0  0  0  0  0  0
  162.1800  209.3600  149.2550 C   0  0  0  0  0  0  0  0  0  0  0  0
  160.8000  207.4750  152.1040 N   0  0  0  0  0  0  0  0  0  0  0  0
  161.1750  207.7160  150.8200 C   0  0  0  0  0  0  0  0  0  0  0  0
  161.8600  209.7650  152.0490 S   0  0  0  0  0  0  0  0  0  0  0  0
  161.1150  208.5130  152.9210 C   0  0  0  0  0  0  0  0  0  0  0  0
  160.9420  206.8130  149.7310 N   0  0  0  0  0  0  0  0  0  0  0  0
  161.7800  208.9290  150.5960 C   0  0  0  0  0  0  0  0  0  0  0  0
  160.2470  208.3330  157.1250 C   0  0  0  0  0  3  0  0  0  0  0  0
  160.7230  207.2590  155.0150 C   0  0  0  0  0  3  0  0  0  0  0  0
  160.1390  210.7040  157.2450 F   0  0  0  0  0  0  0  0  0  0  0  0
  160.6880  210.9400  154.5610 O   0  0  0  0  0  1  0  0  0  0  0  0
  160.6130  209.6770  155.1370 C   0  0  0  0  0  0  0  0  0  0  0  0
  160.4420  207.1710  156.3800 C   0  0  0  0  0  3  0  0  0  0  0  0
  160.8120  208.5030  154.3730 C   0  0  0  0  0  0  0  0  0  0  0  0
  160.3320  209.5820  156.5070 C   0  0  0  0  0  0  0  0  0  0  0  0
  162.6280  210.7100  149.0550 N   0  0  0  0  0  2  0  0  0  0  0  0
  162.4730  212.9150  148.3440 O   0  0  0  0  0  0  0  0  0  0  0  0
  161.9820  211.7570  148.3150 C   0  0  0  0  0  0  0  0  0  0  0  0
  160.7760  211.5130  147.4630 C   0  0  0  0  0  2  0  0  0  0  0  0
  160.4560  212.7310  146.6120 C   0  0  0  0  0  2  0  0  0  0  0  0
  159.5880  212.3570  145.5000 N   0  0  0  0  0  2  0  0  0  0  0  0
  160.1870  211.5360  143.3790 O   0  0  0  0  0  1  0  0  0  0  0  0
  160.2580  212.6400  144.2310 C   0  0  0  0  0  3  0  0  0  0  0  0
  161.5920  212.9970  144.4450 O   0  0  0  0  0  1  0  0  0  0  0  0
  160.2670  205.5430  149.9470 C   0  0  0  0  0  2  0  0  0  0  0  0
  161.2550  204.3980  149.7960 C   0  0  0  0  0  2  0  0  0  0  0  0
  160.7750  203.1670  150.5490 C   0  0  0  0  0  2  0  0  0  0  0  0
  159.4330  201.6220  149.3170 O   0  0  0  0  0  1  0  0  0  0  0  0
  160.7520  201.9390  149.6490 C   0  0  1  0  0  3  0  0  0  0  0  0
  161.5300  202.2170  148.3730 C   0  0  0  0  0  2  0  0  0  0  0  0
  160.7960  201.6850  147.1530 C   0  0  0  0  0  2  0  0  0  0  0  0
  161.1130  202.5360  145.9370 C   0  0  0  0  0  2  0  0  0  0  0  0
  161.3680  203.8460  146.3390 O   0  0  0  0  0  0  0  0  0  0  0  0
  161.8590  204.4710  145.1930 C   0  0  0  0  0  2  0  0  0  0  0  0
  160.3190  206.0490  145.2040 C   0  0  0  0  0  1  0  0  0  0  0  0
  160.7960  204.9790  144.4480 O   0  0  0  0  0  0  0  0  0  0  0  0
  1  2  1  0  0  0  0
  1  3  2  0  0  0  0
  2  8  1  0  0  0  0
  3  9  1  0  0  0  0
  4  7  2  0  0  0  0
  5  4  1  0  0  0  0
  6  7  1  0  0  0  0
  7 16  1  0  0  0  0
  8 27  1  0  0  0  0
  8  5  1  0  0  0  0
  9  5  2  0  0  0  0
  9  6  1  0  0  0  0
 11 15  1  0  0  0  0
 13 14  1  0  0  0  0
 14 17  2  0  0  0  0
 15 10  2  0  0  0  0
 16 11  2  0  0  0  0
 16 14  1  0  0  0  0
 17 10  1  0  0  0  0
 17 12  1  0  0  0  0
 18  3  1  0  0  0  0
 20 19  2  0  0  0  0
 20 18  1  0  0  0  0
 21 20  1  0  0  0  0
 22 21  1  0  0  0  0
 23 22  1  0  0  0  0
 24 25  1  0  0  0  0
 25 26  1  0  0  0  0
 25 23  1  0  0  0  0
 28 27  1  0  0  0  0
 28 29  1  0  0  0  0
 31 30  1  6  0  0  0
 31 29  1  0  0  0  0
 32 31  1  0  0  0  0
 33 32  1  0  0  0  0
 34 35  1  0  0  0  0
 34 33  1  0  0  0  0
 36 35  1  0  0  0  0
 38 36  1  0  0  0  0
 38 37  1  0  0  0  0
M  END
>  <MODEL>
1

>  <REMARK>
 VINA RESULT:      -7.1      0.000      0.000
  Name = 
  16 active torsions:
  status: ('A' for Active; 'I' for Inactive)
    1  A    between atoms: C_3  and  C_11
    2  A    between atoms: C_3  and  C_27
    3  A    between atoms: C_4  and  C_11
    4  A    between atoms: C_4  and  C_34
    5  A    between atoms: C_5  and  O_35
    6  A    between atoms: C_5  and  O_38
    7  A    between atoms: C_9  and  N_10
    8  A    between atoms: C_17  and  C_25
    9  A    between atoms: C_17  and  C_30
   10  A    between atoms: C_18  and  C_34
   11  A    between atoms: C_18  and  O_35
   12  A    between atoms: C_20  and  N_32
   13  A    between atoms: C_21  and  C_27
   14  A    between atoms: C_21  and  N_36
   15  A    between atoms: C_28  and  C_33
   16  A    between atoms: C_30  and  N_32
                            x       y       z     vdW  Elec       q    Type
                         _______ _______ _______ _____ _____    ______ ____

>  <TORSDO>
F 16

$$$$
=
 OpenBabel11042422503D

 38 40  0  0  1  0  0  0  0  0999 V2000
  161.4580  208.8530  152.6740 C   0  0  0  0  0  3  0  0  0  0  0  0
  161.9730  209.4730  151.3850 C   0  0  0  0  0  2  0  0  0  0  0  0
  161.1740  207.5460  152.7990 C   0  0  0  0  0  0  0  0  0  0  0  0
  161.4760  206.3400  149.3320 N   0  0  0  0  0  0  0  0  0  0  0  0
  161.5010  207.2300  150.3590 C   0  0  0  0  0  0  0  0  0  0  0  0
  160.9700  205.0580  151.4460 S   0  0  0  0  0  0  0  0  0  0  0  0
  161.2010  205.0830  149.7640 C   0  0  0  0  0  0  0  0  0  0  0  0
  161.7330  208.6350  150.2010 N   0  0  0  0  0  0  0  0  0  0  0  0
  161.2480  206.7050  151.6040 C   0  0  0  0  0  0  0  0  0  0  0  0
  160.9070  201.6440  147.2040 C   0  0  0  0  0  3  0  0  0  0  0  0
  160.6890  202.6960  149.3670 C   0  0  0  0  0  3  0  0  0  0  0  0
  161.6430  202.9190  145.3390 F   0  0  0  0  0  0  0  0  0  0  0  0
  161.8700  205.1840  146.8820 O   0  0  0  0  0  1  0  0  0  0  0  0
  161.4410  203.9970  147.4650 C   0  0  0  0  0  0  0  0  0  0  0  0
  160.5850  201.5640  148.5580 C   0  0  0  0  0  3  0  0  0  0  0  0
  161.1160  203.9250  148.8400 C   0  0  0  0  0  0  0  0  0  0  0  0
  161.3330  202.8560  146.6580 C   0  0  0  0  0  0  0  0  0  0  0  0
  160.7170  206.9750  154.0350 N   0  0  0  0  0  2  0  0  0  0  0  0
  160.0890  206.9760  156.2710 O   0  0  0  0  0  0  0  0  0  0  0  0
  160.6230  207.6060  155.3210 C   0  0  0  0  0  0  0  0  0  0  0  0
  161.1870  208.9650  155.5930 C   0  0  0  0  0  2  0  0  0  0  0  0
  160.1690  209.8440  156.3010 C   0  0  0  0  0  2  0  0  0  0  0  0
  159.2520  210.4380  155.3320 N   0  0  0  0  0  2  0  0  0  0  0  0
  160.3470  211.9090  153.8600 O   0  0  0  0  0  1  0  0  0  0  0  0
  159.6440  211.8210  155.0620 C   0  0  0  0  0  3  0  0  0  0  0  0
  160.4160  212.3300  156.1090 O   0  0  0  0  0  1  0  0  0  0  0  0
  161.9640  209.2090  148.8850 C   0  0  0  0  0  2  0  0  0  0  0  0
  162.3330  210.6780  149.0160 C   0  0  0  0  0  2  0  0  0  0  0  0
  161.4630  211.5360  148.1110 C   0  0  0  0  0  2  0  0  0  0  0  0
  163.1460  213.2250  147.9770 O   0  0  0  0  0  1  0  0  0  0  0  0
  161.7960  213.0150  148.2610 C   0  0  1  0  0  3  0  0  0  0  0  0
  160.9530  213.8360  147.2980 C   0  0  0  0  0  2  0  0  0  0  0  0
  160.6700  213.0640  146.0190 C   0  0  0  0  0  2  0  0  0  0  0  0
  161.3750  213.7170  144.8450 C   0  0  0  0  0  2  0  0  0  0  0  0
  162.5950  213.0810  144.6220 O   0  0  0  0  0  0  0  0  0  0  0  0
  162.6960  213.0020  143.2330 C   0  0  0  0  0  2  0  0  0  0  0  0
  162.1120  211.8930  141.4190 C   0  0  0  0  0  1  0  0  0  0  0  0
  161.7430  212.1090  142.7460 O   0  0  0  0  0  0  0  0  0  0  0  0
  1  3  2  0  0  0  0
  2  1  1  0  0  0  0
  3 18  1  0  0  0  0
  4  7  2  0  0  0  0
  4  5  1  0  0  0  0
  5  9  2  0  0  0  0
  6  9  1  0  0  0  0
  7  6  1  0  0  0  0
  8  5  1  0  0  0  0
  8  2  1  0  0  0  0
  9  3  1  0  0  0  0
 10 15  1  0  0  0  0
 12 17  1  0  0  0  0
 13 14  1  0  0  0  0
 14 16  2  0  0  0  0
 15 11  2  0  0  0  0
 16 11  1  0  0  0  0
 16  7  1  0  0  0  0
 17 10  2  0  0  0  0
 17 14  1  0  0  0  0
 18 20  1  0  0  0  0
 20 21  1  0  0  0  0
 20 19  2  0  0  0  0
 21 22  1  0  0  0  0
 23 22  1  0  0  0  0
 24 25  1  0  0  0  0
 25 23  1  0  0  0  0
 25 26  1  0  0  0  0
 27 28  1  0  0  0  0
 27  8  1  0  0  0  0
 29 31  1  0  0  0  0
 29 28  1  0  0  0  0
 31 30  1  6  0  0  0
 32 31  1  0  0  0  0
 33 32  1  0  0  0  0
 34 33  1  0  0  0  0
 35 34  1  0  0  0  0
 36 35  1  0  0  0  0
 37 38  1  0  0  0  0
 38 36  1  0  0  0  0
M  END
>  <MODEL>
2

>  <REMARK>
 VINA RESULT:      -7.1      3.079      8.774
  Name = 
  16 active torsions:
  status: ('A' for Active; 'I' for Inactive)
    1  A    between atoms: C_3  and  C_11
    2  A    between atoms: C_3  and  C_27
    3  A    between atoms: C_4  and  C_11
    4  A    between atoms: C_4  and  C_34
    5  A    between atoms: C_5  and  O_35
    6  A    between atoms: C_5  and  O_38
    7  A    between atoms: C_9  and  N_10
    8  A    between atoms: C_17  and  C_25
    9  A    between atoms: C_17  and  C_30
   10  A    between atoms: C_18  and  C_34
   11  A    between atoms: C_18  and  O_35
   12  A    between atoms: C_20  and  N_32
   13  A    between atoms: C_21  and  C_27
   14  A    between atoms: C_21  and  N_36
   15  A    between atoms: C_28  and  C_33
   16  A    between atoms: C_30  and  N_32
                            x       y       z     vdW  Elec       q    Type
                         _______ _______ _______ _____ _____    ______ ____

>  <TORSDO>
F 16

$$$$
=
 OpenBabel11042422503D

 38 40  0  0  1  0  0  0  0  0999 V2000
  161.2790  208.8310  153.3520 C   0  0  0  0  0  3  0  0  0  0  0  0
  161.8580  209.3880  152.0620 C   0  0  0  0  0  2  0  0  0  0  0  0
  160.9850  207.5330  153.5260 C   0  0  0  0  0  0  0  0  0  0  0  0
  161.4500  206.1610  150.1390 N   0  0  0  0  0  0  0  0  0  0  0  0
  161.4280  207.0980  151.1230 C   0  0  0  0  0  0  0  0  0  0  0  0
  160.8380  204.9820  152.2850 S   0  0  0  0  0  0  0  0  0  0  0  0
  161.1500  204.9260  150.6170 C   0  0  0  0  0  0  0  0  0  0  0  0
  161.6720  208.4940  150.9090 N   0  0  0  0  0  0  0  0  0  0  0  0
  161.1130  206.6350  152.3770 C   0  0  0  0  0  0  0  0  0  0  0  0
  160.9970  201.3630  148.2200 C   0  0  0  0  0  3  0  0  0  0  0  0
  160.8940  202.4800  150.3590 C   0  0  0  0  0  3  0  0  0  0  0  0
  161.3580  202.6300  146.2430 F   0  0  0  0  0  0  0  0  0  0  0  0
  161.4760  204.9740  147.6750 O   0  0  0  0  0  1  0  0  0  0  0  0
  161.2630  203.7720  148.3420 C   0  0  0  0  0  0  0  0  0  0  0  0
  160.8400  201.3070  149.6050 C   0  0  0  0  0  3  0  0  0  0  0  0
  161.1060  203.7250  149.7470 C   0  0  0  0  0  0  0  0  0  0  0  0
  161.2070  202.5900  147.5900 C   0  0  0  0  0  0  0  0  0  0  0  0
  160.4660  207.0220  154.7640 N   0  0  0  0  0  2  0  0  0  0  0  0
  160.0900  206.9880  157.0560 O   0  0  0  0  0  0  0  0  0  0  0  0
  160.7280  207.4930  156.0950 C   0  0  0  0  0  0  0  0  0  0  0  0
  161.7700  208.5230  156.3930 C   0  0  0  0  0  2  0  0  0  0  0  0
  161.1390  209.7930  156.9410 C   0  0  0  0  0  2  0  0  0  0  0  0
  161.6910  210.9640  156.2670 N   0  0  0  0  0  2  0  0  0  0  0  0
  160.3470  212.8880  156.4170 O   0  0  0  0  0  1  0  0  0  0  0  0
  160.6100  211.7430  155.6630 C   0  0  0  0  0  3  0  0  0  0  0  0
  159.4520  210.9710  155.5420 O   0  0  0  0  0  1  0  0  0  0  0  0
  161.9680  209.0040  149.5790 C   0  0  0  0  0  2  0  0  0  0  0  0
  162.1210  210.5160  149.6250 C   0  0  0  0  0  2  0  0  0  0  0  0
  161.9750  211.1160  148.2350 C   0  0  0  0  0  2  0  0  0  0  0  0
  162.6620  212.9660  146.8910 O   0  0  0  0  0  1  0  0  0  0  0  0
  162.4270  212.5710  148.2080 C   0  0  1  0  0  3  0  0  0  0  0  0
  161.3490  213.4590  148.8080 C   0  0  0  0  0  2  0  0  0  0  0  0
  160.0220  213.2780  148.0870 C   0  0  0  0  0  2  0  0  0  0  0  0
  158.9340  214.0710  148.7860 C   0  0  0  0  0  2  0  0  0  0  0  0
  159.2010  214.1260  150.1530 O   0  0  0  0  0  0  0  0  0  0  0  0
  158.1940  213.3560  150.7350 C   0  0  0  0  0  2  0  0  0  0  0  0
  159.6200  212.4030  152.1210 C   0  0  0  0  0  1  0  0  0  0  0  0
  158.4650  213.1830  152.0920 O   0  0  0  0  0  0  0  0  0  0  0  0
  1  3  2  0  0  0  0
  2  1  1  0  0  0  0
  3 18  1  0  0  0  0
  4  7  2  0  0  0  0
  4  5  1  0  0  0  0
  5  9  2  0  0  0  0
  6  9  1  0  0  0  0
  7  6  1  0  0  0  0
  8  5  1  0  0  0  0
  8  2  1  0  0  0  0
  9  3  1  0  0  0  0
 10 15  1  0  0  0  0
 12 17  1  0  0  0  0
 13 14  1  0  0  0  0
 14 16  2  0  0  0  0
 15 11  2  0  0  0  0
 16 11  1  0  0  0  0
 16  7  1  0  0  0  0
 17 10  2  0  0  0  0
 17 14  1  0  0  0  0
 18 20  1  0  0  0  0
 20 21  1  0  0  0  0
 20 19  2  0  0  0  0
 21 22  1  0  0  0  0
 23 22  1  0  0  0  0
 25 23  1  0  0  0  0
 25 24  1  0  0  0  0
 26 25  1  0  0  0  0
 27 28  1  0  0  0  0
 27  8  1  0  0  0  0
 29 28  1  0  0  0  0
 31 30  1  6  0  0  0
 31 29  1  0  0  0  0
 31 32  1  0  0  0  0
 33 34  1  0  0  0  0
 33 32  1  0  0  0  0
 34 35  1  0  0  0  0
 35 36  1  0  0  0  0
 36 38  1  0  0  0  0
 38 37  1  0  0  0  0
M  END
>  <MODEL>
3

>  <REMARK>
 VINA RESULT:      -7.1      3.288      9.154
  Name = 
  16 active torsions:
  status: ('A' for Active; 'I' for Inactive)
    1  A    between atoms: C_3  and  C_11
    2  A    between atoms: C_3  and  C_27
    3  A    between atoms: C_4  and  C_11
    4  A    between atoms: C_4  and  C_34
    5  A    between atoms: C_5  and  O_35
    6  A    between atoms: C_5  and  O_38
    7  A    between atoms: C_9  and  N_10
    8  A    between atoms: C_17  and  C_25
    9  A    between atoms: C_17  and  C_30
   10  A    between atoms: C_18  and  C_34
   11  A    between atoms: C_18  and  O_35
   12  A    between atoms: C_20  and  N_32
   13  A    between atoms: C_21  and  C_27
   14  A    between atoms: C_21  and  N_36
   15  A    between atoms: C_28  and  C_33
   16  A    between atoms: C_30  and  N_32
                            x       y       z     vdW  Elec       q    Type
                         _______ _______ _______ _____ _____    ______ ____

>  <TORSDO>
F 16

$$$$
=
 OpenBabel11042422503D

 38 40  0  0  1  0  0  0  0  0999 V2000
  161.8360  210.3370  151.2700 C   0  0  0  0  0  3  0  0  0  0  0  0
  161.3520  209.6620  152.5430 C   0  0  0  0  0  2  0  0  0  0  0  0
  161.9080  209.7090  150.0860 C   0  0  0  0  0  0  0  0  0  0  0  0
  161.2010  206.2130  151.0080 N   0  0  0  0  0  0  0  0  0  0  0  0
  161.3850  207.5470  151.1890 C   0  0  0  0  0  0  0  0  0  0  0  0
  161.6180  207.2270  148.7350 S   0  0  0  0  0  0  0  0  0  0  0  0
  161.2910  205.8670  149.6980 C   0  0  0  0  0  0  0  0  0  0  0  0
  161.3780  208.1940  152.4670 N   0  0  0  0  0  0  0  0  0  0  0  0
  161.6250  208.2730  150.0470 C   0  0  0  0  0  0  0  0  0  0  0  0
  160.7800  201.7780  148.4840 C   0  0  0  0  0  3  0  0  0  0  0  0
  160.7430  203.5030  150.1720 C   0  0  0  0  0  3  0  0  0  0  0  0
  161.3640  202.3260  146.2470 F   0  0  0  0  0  0  0  0  0  0  0  0
  161.7220  204.9710  146.9090 O   0  0  0  0  0  1  0  0  0  0  0  0
  161.3390  204.0640  147.8910 C   0  0  0  0  0  0  0  0  0  0  0  0
  160.5700  202.1680  149.8050 C   0  0  0  0  0  3  0  0  0  0  0  0
  161.1280  204.4690  149.2300 C   0  0  0  0  0  0  0  0  0  0  0  0
  161.1630  202.7210  147.5290 C   0  0  0  0  0  0  0  0  0  0  0  0
  162.3410  210.3730  148.8880 N   0  0  0  0  0  2  0  0  0  0  0  0
  162.6050  212.1610  147.4300 O   0  0  0  0  0  0  0  0  0  0  0  0
  162.0410  211.7110  148.4610 C   0  0  0  0  0  0  0  0  0  0  0  0
  161.0410  212.5740  149.1630 C   0  0  0  0  0  2  0  0  0  0  0  0
  160.3370  213.4990  148.1830 C   0  0  0  0  0  2  0  0  0  0  0  0
  158.9480  213.0870  148.0080 N   0  0  0  0  0  2  0  0  0  0  0  0
  157.3730  212.4240  146.3920 O   0  0  0  0  0  1  0  0  0  0  0  0
  158.6340  212.9920  146.5830 C   0  0  0  0  0  3  0  0  0  0  0  0
  159.6050  212.2430  145.9120 O   0  0  0  0  0  1  0  0  0  0  0  0
  161.1650  207.4310  153.6880 C   0  0  0  0  0  2  0  0  0  0  0  0
  160.6140  208.3370  154.7770 C   0  0  0  0  0  2  0  0  0  0  0  0
  161.5340  208.3470  155.9870 C   0  0  0  0  0  2  0  0  0  0  0  0
  162.6560  210.4420  155.7450 O   0  0  0  0  0  1  0  0  0  0  0  0
  161.7250  209.7590  156.5280 C   0  0  1  0  0  3  0  0  0  0  0  0
  160.4030  210.5090  156.4950 C   0  0  0  0  0  2  0  0  0  0  0  0
  160.6240  212.0130  156.4610 C   0  0  0  0  0  2  0  0  0  0  0  0
  159.6420  212.6660  155.5070 C   0  0  0  0  0  2  0  0  0  0  0  0
  159.8360  212.1630  154.2220 O   0  0  0  0  0  0  0  0  0  0  0  0
  158.5470  212.0080  153.7120 C   0  0  0  0  0  2  0  0  0  0  0  0
  158.4320  213.0810  151.7890 C   0  0  0  0  0  1  0  0  0  0  0  0
  158.6120  211.8100  152.3330 O   0  0  0  0  0  0  0  0  0  0  0  0
  1  2  1  0  0  0  0
  3  1  2  0  0  0  0
  4  5  1  0  0  0  0
  5  8  1  0  0  0  0
  6  7  1  0  0  0  0
  6  9  1  0  0  0  0
  7  4  2  0  0  0  0
  8  2  1  0  0  0  0
  8 27  1  0  0  0  0
  9  3  1  0  0  0  0
  9  5  2  0  0  0  0
 10 15  1  0  0  0  0
 12 17  1  0  0  0  0
 13 14  1  0  0  0  0
 14 16  2  0  0  0  0
 15 11  2  0  0  0  0
 16  7  1  0  0  0  0
 16 11  1  0  0  0  0
 17 14  1  0  0  0  0
 17 10  2  0  0  0  0
 18  3  1  0  0  0  0
 19 20  2  0  0  0  0
 20 18  1  0  0  0  0
 20 21  1  0  0  0  0
 22 21  1  0  0  0  0
 23 22  1  0  0  0  0
 24 25  1  0  0  0  0
 25 23  1  0  0  0  0
 26 25  1  0  0  0  0
 27 28  1  0  0  0  0
 28 29  1  0  0  0  0
 29 31  1  0  0  0  0
 31 30  1  6  0  0  0
 32 31  1  0  0  0  0
 33 32  1  0  0  0  0
 34 33  1  0  0  0  0
 35 34  1  0  0  0  0
 36 35  1  0  0  0  0
 37 38  1  0  0  0  0
 38 36  1  0  0  0  0
M  END
>  <MODEL>
4

>  <REMARK>
 VINA RESULT:      -7.1      3.034      7.723
  Name = 
  16 active torsions:
  status: ('A' for Active; 'I' for Inactive)
    1  A    between atoms: C_3  and  C_11
    2  A    between atoms: C_3  and  C_27
    3  A    between atoms: C_4  and  C_11
    4  A    between atoms: C_4  and  C_34
    5  A    between atoms: C_5  and  O_35
    6  A    between atoms: C_5  and  O_38
    7  A    between atoms: C_9  and  N_10
    8  A    between atoms: C_17  and  C_25
    9  A    between atoms: C_17  and  C_30
   10  A    between atoms: C_18  and  C_34
   11  A    between atoms: C_18  and  O_35
   12  A    between atoms: C_20  and  N_32
   13  A    between atoms: C_21  and  C_27
   14  A    between atoms: C_21  and  N_36
   15  A    between atoms: C_28  and  C_33
   16  A    between atoms: C_30  and  N_32
                            x       y       z     vdW  Elec       q    Type
                         _______ _______ _______ _____ _____    ______ ____

>  <TORSDO>
F 16

$$$$
=
 OpenBabel11042422503D

 38 40  0  0  1  0  0  0  0  0999 V2000
  161.5790  209.1150  152.8070 C   0  0  0  0  0  3  0  0  0  0  0  0
  162.0750  209.8140  151.5520 C   0  0  0  0  0  2  0  0  0  0  0  0
  161.3110  207.8000  152.8600 C   0  0  0  0  0  0  0  0  0  0  0  0
  161.5940  206.7980  149.3270 N   0  0  0  0  0  0  0  0  0  0  0  0
  161.6190  207.6270  150.4030 C   0  0  0  0  0  0  0  0  0  0  0  0
  161.1220  205.3910  151.3680 S   0  0  0  0  0  0  0  0  0  0  0  0
  161.3370  205.5140  149.6880 C   0  0  0  0  0  0  0  0  0  0  0  0
  161.8330  209.0420  150.3240 N   0  0  0  0  0  0  0  0  0  0  0  0
  161.3830  207.0300  151.6180 C   0  0  0  0  0  0  0  0  0  0  0  0
  161.0540  202.2250  146.9380 C   0  0  0  0  0  3  0  0  0  0  0  0
  160.8250  203.1540  149.1550 C   0  0  0  0  0  3  0  0  0  0  0  0
  161.8020  203.6020  145.1520 F   0  0  0  0  0  0  0  0  0  0  0  0
  162.0220  205.7770  146.8200 O   0  0  0  0  0  1  0  0  0  0  0  0
  161.5890  204.5600  147.3340 C   0  0  0  0  0  0  0  0  0  0  0  0
  160.7240  202.0690  148.2840 C   0  0  0  0  0  3  0  0  0  0  0  0
  161.2560  204.4100  148.7010 C   0  0  0  0  0  0  0  0  0  0  0  0
  161.4840  203.4650  146.4640 C   0  0  0  0  0  0  0  0  0  0  0  0
  160.8720  207.1540  154.0650 N   0  0  0  0  0  2  0  0  0  0  0  0
  160.0210  207.0370  156.2230 O   0  0  0  0  0  0  0  0  0  0  0  0
  160.4890  207.7630  155.3070 C   0  0  0  0  0  0  0  0  0  0  0  0
  160.6750  209.2230  155.5780 C   0  0  0  0  0  2  0  0  0  0  0  0
  159.3400  209.9030  155.8370 C   0  0  0  0  0  2  0  0  0  0  0  0
  159.4060  211.3090  155.4510 N   0  0  0  0  0  2  0  0  0  0  0  0
  159.9350  212.2160  153.3470 O   0  0  0  0  0  1  0  0  0  0  0  0
  158.9990  211.4600  154.0540 C   0  0  0  0  0  3  0  0  0  0  0  0
  157.7370  212.0540  153.9680 O   0  0  0  0  0  1  0  0  0  0  0  0
  162.0450  209.6930  149.0400 C   0  0  0  0  0  2  0  0  0  0  0  0
  162.1010  211.2010  149.2260 C   0  0  0  0  0  2  0  0  0  0  0  0
  162.5630  211.8850  147.9490 C   0  0  0  0  0  2  0  0  0  0  0  0
  160.5260  213.1190  148.1270 O   0  0  0  0  0  1  0  0  0  0  0  0
  161.3960  212.5270  147.2100 C   0  0  1  0  0  3  0  0  0  0  0  0
  161.9100  213.5930  146.2550 C   0  0  0  0  0  2  0  0  0  0  0  0
  161.8420  213.1180  144.8130 C   0  0  0  0  0  2  0  0  0  0  0  0
  163.2050  213.2390  144.1570 C   0  0  0  0  0  2  0  0  0  0  0  0
  163.0470  213.5210  142.8010 O   0  0  0  0  0  0  0  0  0  0  0  0
  161.9340  212.7720  142.4180 C   0  0  0  0  0  2  0  0  0  0  0  0
  161.1440  211.1190  141.1920 C   0  0  0  0  0  1  0  0  0  0  0  0
  162.3100  211.8380  141.4540 O   0  0  0  0  0  0  0  0  0  0  0  0
  1  3  2  0  0  0  0
  2  1  1  0  0  0  0
  3 18  1  0  0  0  0
  4  7  2  0  0  0  0
  4  5  1  0  0  0  0
  5  9  2  0  0  0  0
  6  9  1  0  0  0  0
  7  6  1  0  0  0  0
  8  5  1  0  0  0  0
  8  2  1  0  0  0  0
  9  3  1  0  0  0  0
 10 15  1  0  0  0  0
 12 17  1  0  0  0  0
 13 14  1  0  0  0  0
 14 16  2  0  0  0  0
 15 11  2  0  0  0  0
 16 11  1  0  0  0  0
 16  7  1  0  0  0  0
 17 10  2  0  0  0  0
 17 14  1  0  0  0  0
 18 20  1  0  0  0  0
 20 21  1  0  0  0  0
 20 19  2  0  0  0  0
 21 22  1  0  0  0  0
 23 22  1  0  0  0  0
 24 25  1  0  0  0  0
 25 23  1  0  0  0  0
 26 25  1  0  0  0  0
 27 28  1  0  0  0  0
 27  8  1  0  0  0  0
 29 28  1  0  0  0  0
 31 29  1  0  0  0  0
 31 30  1  1  0  0  0
 32 31  1  0  0  0  0
 33 32  1  0  0  0  0
 34 33  1  0  0  0  0
 35 34  1  0  0  0  0
 36 35  1  0  0  0  0
 37 38  1  0  0  0  0
 38 36  1  0  0  0  0
M  END
>  <MODEL>
5

>  <REMARK>
 VINA RESULT:      -7.0      3.140      8.635
  Name = 
  16 active torsions:
  status: ('A' for Active; 'I' for Inactive)
    1  A    between atoms: C_3  and  C_11
    2  A    between atoms: C_3  and  C_27
    3  A    between atoms: C_4  and  C_11
    4  A    between atoms: C_4  and  C_34
    5  A    between atoms: C_5  and  O_35
    6  A    between atoms: C_5  and  O_38
    7  A    between atoms: C_9  and  N_10
    8  A    between atoms: C_17  and  C_25
    9  A    between atoms: C_17  and  C_30
   10  A    between atoms: C_18  and  C_34
   11  A    between atoms: C_18  and  O_35
   12  A    between atoms: C_20  and  N_32
   13  A    between atoms: C_21  and  C_27
   14  A    between atoms: C_21  and  N_36
   15  A    between atoms: C_28  and  C_33
   16  A    between atoms: C_30  and  N_32
                            x       y       z     vdW  Elec       q    Type
                         _______ _______ _______ _____ _____    ______ ____

>  <TORSDO>
F 16

$$$$
=
 OpenBabel11042422503D

 38 40  0  0  1  0  0  0  0  0999 V2000
  162.1580  208.8790  148.2390 C   0  0  0  0  0  3  0  0  0  0  0  0
  161.7350  207.4300  148.4130 C   0  0  0  0  0  2  0  0  0  0  0  0
  162.2640  209.7430  149.2610 C   0  0  0  0  0  0  0  0  0  0  0  0
  160.8330  207.8240  152.0610 N   0  0  0  0  0  0  0  0  0  0  0  0
  161.2410  208.0760  150.7900 C   0  0  0  0  0  0  0  0  0  0  0  0
  161.8550  210.1310  152.0450 S   0  0  0  0  0  0  0  0  0  0  0  0
  161.1060  208.8640  152.8910 C   0  0  0  0  0  0  0  0  0  0  0  0
  161.0560  207.1740  149.6920 N   0  0  0  0  0  0  0  0  0  0  0  0
  161.8320  209.3000  150.5880 C   0  0  0  0  0  0  0  0  0  0  0  0
  160.0990  208.9530  157.0670 C   0  0  0  0  0  3  0  0  0  0  0  0
  160.5500  210.0730  154.9750 C   0  0  0  0  0  3  0  0  0  0  0  0
  160.1810  206.5810  157.1790 F   0  0  0  0  0  0  0  0  0  0  0  0
  160.8300  206.4030  154.5130 O   0  0  0  0  0  1  0  0  0  0  0  0
  160.6340  207.6530  155.0880 C   0  0  0  0  0  0  0  0  0  0  0  0
  160.2220  210.1310  156.3300 C   0  0  0  0  0  3  0  0  0  0  0  0
  160.7610  208.8430  154.3330 C   0  0  0  0  0  0  0  0  0  0  0  0
  160.3040  207.7190  156.4500 C   0  0  0  0  0  0  0  0  0  0  0  0
  162.6950  211.1010  149.0790 N   0  0  0  0  0  2  0  0  0  0  0  0
  162.5110  213.3130  148.3980 O   0  0  0  0  0  0  0  0  0  0  0  0
  162.0350  212.1490  148.3530 C   0  0  0  0  0  0  0  0  0  0  0  0
  160.8320  211.9020  147.4990 C   0  0  0  0  0  2  0  0  0  0  0  0
  160.0710  213.1930  147.2430 C   0  0  0  0  0  2  0  0  0  0  0  0
  158.6330  212.9540  147.3070 N   0  0  0  0  0  2  0  0  0  0  0  0
  159.0450  214.0710  149.3350 O   0  0  0  0  0  1  0  0  0  0  0  0
  158.0550  213.7030  148.4220 C   0  0  0  0  0  3  0  0  0  0  0  0
  157.0650  212.9520  149.0620 O   0  0  0  0  0  1  0  0  0  0  0  0
  160.3960  205.8910  149.8840 C   0  0  0  0  0  2  0  0  0  0  0  0
  161.2130  205.0230  150.8270 C   0  0  0  0  0  2  0  0  0  0  0  0
  160.5010  203.7080  151.1030 C   0  0  0  0  0  2  0  0  0  0  0  0
  161.6850  201.6820  151.5490 O   0  0  0  0  0  1  0  0  0  0  0  0
  161.2680  202.5280  150.5200 C   0  0  1  0  0  3  0  0  0  0  0  0
  160.3740  201.7490  149.5680 C   0  0  0  0  0  2  0  0  0  0  0  0
  161.1860  201.0930  148.4630 C   0  0  0  0  0  2  0  0  0  0  0  0
  160.8310  201.7020  147.1200 C   0  0  0  0  0  2  0  0  0  0  0  0
  161.3270  203.0030  147.0520 O   0  0  0  0  0  0  0  0  0  0  0  0
  161.2490  203.3350  145.6990 C   0  0  0  0  0  2  0  0  0  0  0  0
  161.2050  205.1160  144.4010 C   0  0  0  0  0  1  0  0  0  0  0  0
  161.8860  204.5560  145.4810 O   0  0  0  0  0  0  0  0  0  0  0  0
  1  2  1  0  0  0  0
  1  3  2  0  0  0  0
  2  8  1  0  0  0  0
  3  9  1  0  0  0  0
  4  7  2  0  0  0  0
  5  4  1  0  0  0  0
  6  7  1  0  0  0  0
  7 16  1  0  0  0  0
  8 27  1  0  0  0  0
  8  5  1  0  0  0  0
  9  5  2  0  0  0  0
  9  6  1  0  0  0  0
 11 15  1  0  0  0  0
 13 14  1  0  0  0  0
 14 17  2  0  0  0  0
 15 10  2  0  0  0  0
 16 11  2  0  0  0  0
 16 14  1  0  0  0  0
 17 10  1  0  0  0  0
 17 12  1  0  0  0  0
 18  3  1  0  0  0  0
 20 19  2  0  0  0  0
 20 18  1  0  0  0  0
 21 20  1  0  0  0  0
 22 23  1  0  0  0  0
 22 21  1  0  0  0  0
 23 25  1  0  0  0  0
 25 26  1  0  0  0  0
 25 24  1  0  0  0  0
 27 28  1  0  0  0  0
 28 29  1  0  0  0  0
 31 29  1  0  0  0  0
 31 30  1  1  0  0  0
 32 31  1  0  0  0  0
 33 32  1  0  0  0  0
 34 33  1  0  0  0  0
 35 34  1  0  0  0  0
 36 35  1  0  0  0  0
 37 38  1  0  0  0  0
 38 36  1  0  0  0  0
M  END
>  <MODEL>
6

>  <REMARK>
 VINA RESULT:      -6.7      1.836      2.335
  Name = 
  16 active torsions:
  status: ('A' for Active; 'I' for Inactive)
    1  A    between atoms: C_3  and  C_11
    2  A    between atoms: C_3  and  C_27
    3  A    between atoms: C_4  and  C_11
    4  A    between atoms: C_4  and  C_34
    5  A    between atoms: C_5  and  O_35
    6  A    between atoms: C_5  and  O_38
    7  A    between atoms: C_9  and  N_10
    8  A    between atoms: C_17  and  C_25
    9  A    between atoms: C_17  and  C_30
   10  A    between atoms: C_18  and  C_34
   11  A    between atoms: C_18  and  O_35
   12  A    between atoms: C_20  and  N_32
   13  A    between atoms: C_21  and  C_27
   14  A    between atoms: C_21  and  N_36
   15  A    between atoms: C_28  and  C_33
   16  A    between atoms: C_30  and  N_32
                            x       y       z     vdW  Elec       q    Type
                         _______ _______ _______ _____ _____    ______ ____

>  <TORSDO>
F 16

$$$$
=
 OpenBabel11042422503D

 38 40  0  0  1  0  0  0  0  0999 V2000
  161.4770  208.9890  152.5210 C   0  0  0  0  0  3  0  0  0  0  0  0
  161.9660  209.6640  151.2510 C   0  0  0  0  0  2  0  0  0  0  0  0
  161.2330  207.6720  152.6080 C   0  0  0  0  0  0  0  0  0  0  0  0
  161.5510  206.5840  149.1030 N   0  0  0  0  0  0  0  0  0  0  0  0
  161.5550  207.4410  150.1570 C   0  0  0  0  0  0  0  0  0  0  0  0
  161.0950  205.2220  151.1780 S   0  0  0  0  0  0  0  0  0  0  0  0
  161.3160  205.3060  149.4960 C   0  0  0  0  0  0  0  0  0  0  0  0
  161.7440  208.8570  150.0420 N   0  0  0  0  0  0  0  0  0  0  0  0
  161.3240  206.8710  151.3860 C   0  0  0  0  0  0  0  0  0  0  0  0
  161.1980  202.1250  146.6110 C   0  0  0  0  0  3  0  0  0  0  0  0
  161.5820  204.4350  147.1970 C   0  0  0  0  0  3  0  0  0  0  0  0
  160.5310  200.5760  148.2850 F   0  0  0  0  0  0  0  0  0  0  0  0
  160.5720  202.5320  150.2170 O   0  0  0  0  0  1  0  0  0  0  0  0
  160.9020  202.8560  148.9060 C   0  0  0  0  0  0  0  0  0  0  0  0
  161.5520  203.4210  146.2390 C   0  0  0  0  0  3  0  0  0  0  0  0
  161.2600  204.1750  148.5380 C   0  0  0  0  0  0  0  0  0  0  0  0
  160.8740  201.8420  147.9380 C   0  0  0  0  0  0  0  0  0  0  0  0
  160.8000  207.0490  153.8270 N   0  0  0  0  0  2  0  0  0  0  0  0
  160.2470  206.9490  156.0800 O   0  0  0  0  0  0  0  0  0  0  0  0
  160.7680  207.6130  155.1470 C   0  0  0  0  0  0  0  0  0  0  0  0
  161.3810  208.9390  155.4690 C   0  0  0  0  0  2  0  0  0  0  0  0
  160.3950  209.8300  156.2080 C   0  0  0  0  0  2  0  0  0  0  0  0
  159.3730  210.3230  155.2900 N   0  0  0  0  0  2  0  0  0  0  0  0
  160.2000  211.9130  153.7670 O   0  0  0  0  0  1  0  0  0  0  0  0
  159.5970  211.7420  155.0150 C   0  0  0  0  0  3  0  0  0  0  0  0
  160.3850  212.3210  156.0130 O   0  0  0  0  0  1  0  0  0  0  0  0
  161.9500  209.4780  148.7430 C   0  0  0  0  0  2  0  0  0  0  0  0
  162.3550  210.9330  148.9220 C   0  0  0  0  0  2  0  0  0  0  0  0
  161.4990  211.8420  148.0540 C   0  0  0  0  0  2  0  0  0  0  0  0
  162.9970  213.6930  147.8670 O   0  0  0  0  0  1  0  0  0  0  0  0
  161.7530  213.3110  148.3710 C   0  0  1  0  0  3  0  0  0  0  0  0
  160.6740  214.1720  147.7340 C   0  0  0  0  0  2  0  0  0  0  0  0
  160.0670  213.4860  146.5200 C   0  0  0  0  0  2  0  0  0  0  0  0
  160.6330  214.0810  145.2450 C   0  0  0  0  0  2  0  0  0  0  0  0
  161.5690  213.2050  144.6970 O   0  0  0  0  0  0  0  0  0  0  0  0
  162.6520  214.0190  144.3640 C   0  0  0  0  0  2  0  0  0  0  0  0
  162.3340  212.6170  142.6910 C   0  0  0  0  0  1  0  0  0  0  0  0
  163.0330  213.7710  143.0450 O   0  0  0  0  0  0  0  0  0  0  0  0
  1  3  2  0  0  0  0
  2  1  1  0  0  0  0
  3 18  1  0  0  0  0
  4  7  2  0  0  0  0
  4  5  1  0  0  0  0
  5  9  2  0  0  0  0
  6  9  1  0  0  0  0
  7  6  1  0  0  0  0
  8  5  1  0  0  0  0
  8  2  1  0  0  0  0
  9  3  1  0  0  0  0
 10 17  1  0  0  0  0
 11 16  2  0  0  0  0
 14 13  1  0  0  0  0
 15 10  2  0  0  0  0
 15 11  1  0  0  0  0
 16 14  1  0  0  0  0
 16  7  1  0  0  0  0
 17 12  1  0  0  0  0
 17 14  2  0  0  0  0
 18 20  1  0  0  0  0
 20 21  1  0  0  0  0
 20 19  2  0  0  0  0
 21 22  1  0  0  0  0
 23 22  1  0  0  0  0
 24 25  1  0  0  0  0
 25 23  1  0  0  0  0
 25 26  1  0  0  0  0
 27 28  1  0  0  0  0
 27  8  1  0  0  0  0
 29 31  1  0  0  0  0
 29 28  1  0  0  0  0
 31 30  1  6  0  0  0
 32 31  1  0  0  0  0
 33 32  1  0  0  0  0
 34 33  1  0  0  0  0
 35 34  1  0  0  0  0
 36 35  1  0  0  0  0
 37 38  1  0  0  0  0
 38 36  1  0  0  0  0
M  END
>  <MODEL>
7

>  <REMARK>
 VINA RESULT:      -6.7      3.077      8.904
  Name = 
  16 active torsions:
  status: ('A' for Active; 'I' for Inactive)
    1  A    between atoms: C_3  and  C_11
    2  A    between atoms: C_3  and  C_27
    3  A    between atoms: C_4  and  C_11
    4  A    between atoms: C_4  and  C_34
    5  A    between atoms: C_5  and  O_35
    6  A    between atoms: C_5  and  O_38
    7  A    between atoms: C_9  and  N_10
    8  A    between atoms: C_17  and  C_25
    9  A    between atoms: C_17  and  C_30
   10  A    between atoms: C_18  and  C_34
   11  A    between atoms: C_18  and  O_35
   12  A    between atoms: C_20  and  N_32
   13  A    between atoms: C_21  and  C_27
   14  A    between atoms: C_21  and  N_36
   15  A    between atoms: C_28  and  C_33
   16  A    between atoms: C_30  and  N_32
                            x       y       z     vdW  Elec       q    Type
                         _______ _______ _______ _____ _____    ______ ____

>  <TORSDO>
F 16

$$$$
=
 OpenBabel11042422503D

 38 40  0  0  1  0  0  0  0  0999 V2000
  161.7900  210.2330  150.9580 C   0  0  0  0  0  3  0  0  0  0  0  0
  161.1940  209.4790  152.1350 C   0  0  0  0  0  2  0  0  0  0  0  0
  161.9580  209.6860  149.7430 C   0  0  0  0  0  0  0  0  0  0  0  0
  161.1490  206.1450  150.3580 N   0  0  0  0  0  0  0  0  0  0  0  0
  161.3270  207.4610  150.6460 C   0  0  0  0  0  0  0  0  0  0  0  0
  161.7640  207.3060  148.2040 S   0  0  0  0  0  0  0  0  0  0  0  0
  161.3470  205.8880  149.0400 C   0  0  0  0  0  0  0  0  0  0  0  0
  161.2160  208.0190  151.9610 N   0  0  0  0  0  0  0  0  0  0  0  0
  161.6680  208.2600  149.5810 C   0  0  0  0  0  0  0  0  0  0  0  0
  160.9940  202.0040  147.2390 C   0  0  0  0  0  3  0  0  0  0  0  0
  161.4120  204.3770  147.0830 C   0  0  0  0  0  3  0  0  0  0  0  0
  160.4940  201.0280  149.3460 F   0  0  0  0  0  0  0  0  0  0  0  0
  160.6930  203.4630  150.6060 O   0  0  0  0  0  1  0  0  0  0  0  0
  160.9010  203.3820  149.2340 C   0  0  0  0  0  0  0  0  0  0  0  0
  161.3030  203.1270  146.4730 C   0  0  0  0  0  3  0  0  0  0  0  0
  161.2140  204.5270  148.4640 C   0  0  0  0  0  0  0  0  0  0  0  0
  160.7940  202.1290  148.6140 C   0  0  0  0  0  0  0  0  0  0  0  0
  162.4940  210.4250  148.6350 N   0  0  0  0  0  2  0  0  0  0  0  0
  162.9020  212.3060  147.3350 O   0  0  0  0  0  0  0  0  0  0  0  0
  162.2500  211.7950  148.2830 C   0  0  0  0  0  0  0  0  0  0  0  0
  161.2090  212.6270  148.9640 C   0  0  0  0  0  2  0  0  0  0  0  0
  160.4220  213.4460  147.9540 C   0  0  0  0  0  2  0  0  0  0  0  0
  159.6210  212.5700  147.1050 N   0  0  0  0  0  2  0  0  0  0  0  0
  159.1760  214.0980  145.3730 O   0  0  0  0  0  1  0  0  0  0  0  0
  159.8360  212.9110  145.6990 C   0  0  0  0  0  3  0  0  0  0  0  0
  159.4020  211.8760  144.8670 O   0  0  0  0  0  1  0  0  0  0  0  0
  160.8950  207.1780  153.1030 C   0  0  0  0  0  2  0  0  0  0  0  0
  161.2090  207.9140  154.3950 C   0  0  0  0  0  2  0  0  0  0  0  0
  159.9850  207.9710  155.2960 C   0  0  0  0  0  2  0  0  0  0  0  0
  159.9960  209.3350  157.2560 O   0  0  0  0  0  1  0  0  0  0  0  0
  159.7870  209.3650  155.8770 C   0  0  1  0  0  3  0  0  0  0  0  0
  160.7750  210.3340  155.2460 C   0  0  0  0  0  2  0  0  0  0  0  0
  160.0980  211.6410  154.8660 C   0  0  0  0  0  2  0  0  0  0  0  0
  158.7470  211.3670  154.2320 C   0  0  0  0  0  2  0  0  0  0  0  0
  157.9250  212.4820  154.3860 O   0  0  0  0  0  0  0  0  0  0  0  0
  157.6730  212.5410  155.7560 C   0  0  0  0  0  2  0  0  0  0  0  0
  155.8980  212.0360  156.9630 C   0  0  0  0  0  1  0  0  0  0  0  0
  156.8600  211.4700  156.1270 O   0  0  0  0  0  0  0  0  0  0  0  0
  1  2  1  0  0  0  0
  3  1  2  0  0  0  0
  4  5  1  0  0  0  0
  5  8  1  0  0  0  0
  6  7  1  0  0  0  0
  6  9  1  0  0  0  0
  7  4  2  0  0  0  0
  8  2  1  0  0  0  0
  8 27  1  0  0  0  0
  9  3  1  0  0  0  0
  9  5  2  0  0  0  0
 10 17  1  0  0  0  0
 11 16  2  0  0  0  0
 14 13  1  0  0  0  0
 15 11  1  0  0  0  0
 15 10  2  0  0  0  0
 16  7  1  0  0  0  0
 16 14  1  0  0  0  0
 17 14  2  0  0  0  0
 17 12  1  0  0  0  0
 18  3  1  0  0  0  0
 19 20  2  0  0  0  0
 20 18  1  0  0  0  0
 20 21  1  0  0  0  0
 22 21  1  0  0  0  0
 23 22  1  0  0  0  0
 24 25  1  0  0  0  0
 25 23  1  0  0  0  0
 26 25  1  0  0  0  0
 27 28  1  0  0  0  0
 28 29  1  0  0  0  0
 29 31  1  0  0  0  0
 31 30  1  1  0  0  0
 32 31  1  0  0  0  0
 33 32  1  0  0  0  0
 34 35  1  0  0  0  0
 34 33  1  0  0  0  0
 35 36  1  0  0  0  0
 36 38  1  0  0  0  0
 38 37  1  0  0  0  0
M  END
>  <MODEL>
8

>  <REMARK>
 VINA RESULT:      -6.6      2.890      7.918
  Name = 
  16 active torsions:
  status: ('A' for Active; 'I' for Inactive)
    1  A    between atoms: C_3  and  C_11
    2  A    between atoms: C_3  and  C_27
    3  A    between atoms: C_4  and  C_11
    4  A    between atoms: C_4  and  C_34
    5  A    between atoms: C_5  and  O_35
    6  A    between atoms: C_5  and  O_38
    7  A    between atoms: C_9  and  N_10
    8  A    between atoms: C_17  and  C_25
    9  A    between atoms: C_17  and  C_30
   10  A    between atoms: C_18  and  C_34
   11  A    between atoms: C_18  and  O_35
   12  A    between atoms: C_20  and  N_32
   13  A    between atoms: C_21  and  C_27
   14  A    between atoms: C_21  and  N_36
   15  A    between atoms: C_28  and  C_33
   16  A    between atoms: C_30  and  N_32
                            x       y       z     vdW  Elec       q    Type
                         _______ _______ _______ _____ _____    ______ ____

>  <TORSDO>
F 16

$$$$
=
 OpenBabel11042422503D

 38 40  0  0  1  0  0  0  0  0999 V2000
  161.6140  210.5400  151.3050 C   0  0  0  0  0  3  0  0  0  0  0  0
  160.9130  209.4060  152.0330 C   0  0  0  0  0  2  0  0  0  0  0  0
  162.0280  210.4530  150.0310 C   0  0  0  0  0  0  0  0  0  0  0  0
  161.4800  206.8900  149.2710 N   0  0  0  0  0  0  0  0  0  0  0  0
  161.4800  208.0320  150.0080 C   0  0  0  0  0  0  0  0  0  0  0  0
  162.3180  208.7460  147.7790 S   0  0  0  0  0  0  0  0  0  0  0  0
  161.9120  207.1120  148.0030 C   0  0  0  0  0  0  0  0  0  0  0  0
  161.1050  208.0970  151.3890 N   0  0  0  0  0  0  0  0  0  0  0  0
  161.9080  209.1610  149.3530 C   0  0  0  0  0  0  0  0  0  0  0  0
  162.3220  203.9410  145.1330 C   0  0  0  0  0  3  0  0  0  0  0  0
  163.1740  205.2500  146.9740 C   0  0  0  0  0  3  0  0  0  0  0  0
  160.1770  204.4240  144.2320 F   0  0  0  0  0  0  0  0  0  0  0  0
  159.8050  206.4790  146.0220 O   0  0  0  0  0  1  0  0  0  0  0  0
  160.9860  205.7440  146.0560 C   0  0  0  0  0  0  0  0  0  0  0  0
  163.3330  204.2140  146.0530 C   0  0  0  0  0  3  0  0  0  0  0  0
  162.0070  206.0290  146.9930 C   0  0  0  0  0  0  0  0  0  0  0  0
  161.1520  204.7020  145.1330 C   0  0  0  0  0  0  0  0  0  0  0  0
  162.6620  211.5480  149.3520 N   0  0  0  0  0  2  0  0  0  0  0  0
  162.7620  213.4480  148.0200 O   0  0  0  0  0  0  0  0  0  0  0  0
  162.0730  212.4790  148.4310 C   0  0  0  0  0  0  0  0  0  0  0  0
  160.6860  212.3120  147.8950 C   0  0  0  0  0  2  0  0  0  0  0  0
  160.4390  213.2470  146.7230 C   0  0  0  0  0  2  0  0  0  0  0  0
  160.1890  212.4790  145.5070 N   0  0  0  0  0  2  0  0  0  0  0  0
  162.2650  212.9500  144.5070 O   0  0  0  0  0  1  0  0  0  0  0  0
  160.8830  213.0990  144.3780 C   0  0  0  0  0  3  0  0  0  0  0  0
  160.5530  214.4530  144.2770 O   0  0  0  0  0  1  0  0  0  0  0  0
  160.6870  206.9020  152.1060 C   0  0  0  0  0  2  0  0  0  0  0  0
  161.8270  205.8980  152.1500 C   0  0  0  0  0  2  0  0  0  0  0  0
  161.3080  204.5050  152.4700 C   0  0  0  0  0  2  0  0  0  0  0  0
  161.7410  202.2260  151.9020 O   0  0  0  0  0  1  0  0  0  0  0  0
  161.6640  203.5130  151.3690 C   0  0  1  0  0  3  0  0  0  0  0  0
  160.5990  203.5390  150.2850 C   0  0  0  0  0  2  0  0  0  0  0  0
  161.1490  203.0320  148.9610 C   0  0  0  0  0  2  0  0  0  0  0  0
  160.5080  201.7060  148.6000 C   0  0  0  0  0  2  0  0  0  0  0  0
  161.4980  200.7870  148.2580 O   0  0  0  0  0  0  0  0  0  0  0  0
  161.2050  200.4350  146.9400 C   0  0  0  0  0  2  0  0  0  0  0  0
  160.0750  200.9280  145.1120 C   0  0  0  0  0  1  0  0  0  0  0  0
  160.4860  201.4630  146.3320 O   0  0  0  0  0  0  0  0  0  0  0  0
  1  2  1  0  0  0  0
  3  1  2  0  0  0  0
  4  5  1  0  0  0  0
  5  8  1  0  0  0  0
  6  7  1  0  0  0  0
  6  9  1  0  0  0  0
  7  4  2  0  0  0  0
  8  2  1  0  0  0  0
  8 27  1  0  0  0  0
  9  5  2  0  0  0  0
  9  3  1  0  0  0  0
 10 15  1  0  0  0  0
 11 16  1  0  0  0  0
 12 17  1  0  0  0  0
 13 14  1  0  0  0  0
 14 16  2  0  0  0  0
 15 11  2  0  0  0  0
 16  7  1  0  0  0  0
 17 10  2  0  0  0  0
 17 14  1  0  0  0  0
 18  3  1  0  0  0  0
 19 20  2  0  0  0  0
 20 18  1  0  0  0  0
 21 20  1  0  0  0  0
 22 21  1  0  0  0  0
 23 22  1  0  0  0  0
 25 24  1  0  0  0  0
 25 23  1  0  0  0  0
 26 25  1  0  0  0  0
 27 28  1  0  0  0  0
 28 29  1  0  0  0  0
 31 30  1  1  0  0  0
 31 29  1  0  0  0  0
 32 31  1  0  0  0  0
 33 32  1  0  0  0  0
 34 33  1  0  0  0  0
 35 34  1  0  0  0  0
 36 35  1  0  0  0  0
 37 38  1  0  0  0  0
 38 36  1  0  0  0  0
M  END
>  <MODEL>
9

>  <REMARK>
 VINA RESULT:      -6.5      3.348      5.683
  Name = 
  16 active torsions:
  status: ('A' for Active; 'I' for Inactive)
    1  A    between atoms: C_3  and  C_11
    2  A    between atoms: C_3  and  C_27
    3  A    between atoms: C_4  and  C_11
    4  A    between atoms: C_4  and  C_34
    5  A    between atoms: C_5  and  O_35
    6  A    between atoms: C_5  and  O_38
    7  A    between atoms: C_9  and  N_10
    8  A    between atoms: C_17  and  C_25
    9  A    between atoms: C_17  and  C_30
   10  A    between atoms: C_18  and  C_34
   11  A    between atoms: C_18  and  O_35
   12  A    between atoms: C_20  and  N_32
   13  A    between atoms: C_21  and  C_27
   14  A    between atoms: C_21  and  N_36
   15  A    between atoms: C_28  and  C_33
   16  A    between atoms: C_30  and  N_32
                            x       y       z     vdW  Elec       q    Type
                         _______ _______ _______ _____ _____    ______ ____

>  <TORSDO>
F 16

$$$$
