=
 OpenBabel11042420453D

 27 28  0  0  1  0  0  0  0  0999 V2000
  160.8250  202.4530  147.7810 C   0  0  0  0  0  0  0  0  0  0  0  0
  161.4070  203.6760  147.8410 C   0  0  0  0  0  0  0  0  0  0  0  0
  161.2790  204.1560  151.4780 O   0  0  0  0  0  0  0  0  0  0  0  0
  160.2350  201.8470  148.9960 C   0  0  0  0  0  3  0  0  0  0  0  0
  160.3390  202.4200  150.1920 C   0  0  0  0  0  3  0  0  0  0  0  0
  161.0260  203.7050  150.3300 C   0  0  0  0  0  0  0  0  0  0  0  0
  161.3840  204.5070  149.1100 C   0  0  2  0  0  3  0  0  0  0  0  0
  160.3100  202.2700  145.4290 O   0  0  0  0  0  1  0  0  0  0  0  0
  161.1950  200.3190  146.5060 C   0  0  0  0  0  0  0  0  0  0  0  0
  161.0040  199.5860  145.3420 O   0  0  0  0  0  0  0  0  0  0  0  0
  160.8010  201.6970  146.5550 N   0  0  0  0  0  0  0  0  0  0  0  0
  161.7360  199.7670  147.5000 O   0  0  0  0  0  1  0  0  0  0  0  0
  162.1380  204.2430  146.6590 C   0  0  0  0  0  2  0  0  0  0  0  0
  160.5850  205.8500  145.2830 N   0  0  0  0  0  0  0  0  0  0  0  0
  161.2690  205.1420  145.8890 C   0  0  0  0  0  0  0  0  0  0  0  0
  160.4020  205.6680  148.9600 C   0  0  0  0  0  2  0  0  0  0  0  0
  161.0870  207.0220  149.1100 C   0  0  2  0  0  3  0  0  0  0  0  0
  161.2190  207.6430  147.8810 F   0  0  0  0  0  0  0  0  0  0  0  0
  162.4450  206.8790  149.7850 C   0  0  0  0  0  2  0  0  0  0  0  0
  161.2710  207.3340  152.8370 C   0  0  0  0  0  0  0  0  0  0  0  0
  162.3150  206.9140  152.2140 N   0  0  0  0  0  0  0  0  0  0  0  0
  160.6570  208.4110  152.2360 O   0  0  0  0  0  0  0  0  0  0  0  0
  162.5240  207.7430  151.0340 C   0  0  2  0  0  3  0  0  0  0  0  0
  161.3690  208.7530  151.0590 C   0  0  2  0  0  3  0  0  0  0  0  0
  160.7790  206.7070  154.0910 C   0  0  0  0  0  1  0  0  0  0  0  0
  161.9240  210.1600  151.1820 C   0  0  0  0  0  2  0  0  0  0  0  0
  162.0620  210.7250  149.9140 O   0  0  0  0  0  1  0  0  0  0  0  0
  1  2  2  0  0  0  0
  1  4  1  0  0  0  0
  2  7  1  0  0  0  0
  4  5  2  0  0  0  0
  5  6  1  0  0  0  0
  6  3  2  0  0  0  0
  7 16  1  6  0  0  0
  7  6  1  0  0  0  0
  8 11  1  0  0  0  0
  9 11  1  0  0  0  0
  9 12  1  0  0  0  0
 10  9  2  0  0  0  0
 11  1  1  0  0  0  0
 13  2  1  0  0  0  0
 14 15  3  0  0  0  0
 15 13  1  0  0  0  0
 16 17  1  0  0  0  0
 17 18  1  6  0  0  0
 17 19  1  0  0  0  0
 20 25  1  0  0  0  0
 21 20  2  0  0  0  0
 22 20  1  0  0  0  0
 23 19  1  6  0  0  0
 23 24  1  0  0  0  0
 23 21  1  0  0  0  0
 24 26  1  1  0  0  0
 24 22  1  0  0  0  0
 27 26  1  0  0  0  0
M  END
>  <MODEL>
1

>  <REMARK>
 VINA RESULT:      -8.1      0.000      0.000
  Name = 
  8 active torsions:
  status: ('A' for Active; 'I' for Inactive)
    1  A    between atoms: C_1  and  N_20
    2  A    between atoms: C_2  and  C_5
    3  A    between atoms: C_2  and  C_19
    4  A    between atoms: C_3  and  C_23
    5  A    between atoms: C_5  and  C_21
    6  A    between atoms: C_9  and  C_17
    7  A    between atoms: C_17  and  C_22
    8  A    between atoms: C_19  and  C_24
                            x       y       z     vdW  Elec       q    Type
                         _______ _______ _______ _____ _____    ______ ____

>  <TORSDO>
F 8

$$$$
=
 OpenBabel11042420453D

 27 28  0  0  1  0  0  0  0  0999 V2000
  160.8260  202.4930  147.8870 C   0  0  0  0  0  0  0  0  0  0  0  0
  161.4840  203.6730  147.9950 C   0  0  0  0  0  0  0  0  0  0  0  0
  161.4500  203.9790  151.6520 O   0  0  0  0  0  0  0  0  0  0  0  0
  160.2200  201.8650  149.0830 C   0  0  0  0  0  3  0  0  0  0  0  0
  160.3810  202.3700  150.3030 C   0  0  0  0  0  3  0  0  0  0  0  0
  161.1490  203.6020  150.4890 C   0  0  0  0  0  0  0  0  0  0  0  0
  161.5350  204.4400  149.3020 C   0  0  2  0  0  3  0  0  0  0  0  0
  160.1950  202.4360  145.5570 O   0  0  0  0  0  1  0  0  0  0  0  0
  161.1070  200.4250  146.4870 C   0  0  0  0  0  0  0  0  0  0  0  0
  160.8510  199.7540  145.2980 O   0  0  0  0  0  0  0  0  0  0  0  0
  160.7330  201.8020  146.6270 N   0  0  0  0  0  0  0  0  0  0  0  0
  161.6900  199.8170  147.4240 O   0  0  0  0  0  1  0  0  0  0  0  0
  162.2280  204.2530  146.8270 C   0  0  0  0  0  2  0  0  0  0  0  0
  160.7440  205.9940  145.5420 N   0  0  0  0  0  0  0  0  0  0  0  0
  161.3970  205.2270  146.1080 C   0  0  0  0  0  0  0  0  0  0  0  0
  160.6250  205.6650  149.2290 C   0  0  0  0  0  2  0  0  0  0  0  0
  161.4040  206.9680  149.3760 C   0  0  2  0  0  3  0  0  0  0  0  0
  162.3730  207.0730  148.3940 F   0  0  0  0  0  0  0  0  0  0  0  0
  162.0290  207.0810  150.7590 C   0  0  0  0  0  2  0  0  0  0  0  0
  160.9290  209.4790  152.7450 C   0  0  0  0  0  0  0  0  0  0  0  0
  160.6360  208.8630  151.6540 N   0  0  0  0  0  0  0  0  0  0  0  0
  161.4760  208.6670  153.7150 O   0  0  0  0  0  0  0  0  0  0  0  0
  160.9830  207.4560  151.7990 C   0  0  2  0  0  3  0  0  0  0  0  0
  161.5720  207.3450  153.2120 C   0  0  2  0  0  3  0  0  0  0  0  0
  160.6950  210.9340  152.9330 C   0  0  0  0  0  1  0  0  0  0  0  0
  160.7150  206.4110  154.0480 C   0  0  0  0  0  2  0  0  0  0  0  0
  160.3190  207.0570  155.2200 O   0  0  0  0  0  1  0  0  0  0  0  0
  1  2  2  0  0  0  0
  1  4  1  0  0  0  0
  2  7  1  0  0  0  0
  4  5  2  0  0  0  0
  5  6  1  0  0  0  0
  6  3  2  0  0  0  0
  7 16  1  6  0  0  0
  7  6  1  0  0  0  0
  8 11  1  0  0  0  0
  9 11  1  0  0  0  0
  9 12  1  0  0  0  0
 10  9  2  0  0  0  0
 11  1  1  0  0  0  0
 13  2  1  0  0  0  0
 14 15  3  0  0  0  0
 15 13  1  0  0  0  0
 16 17  1  0  0  0  0
 17 18  1  6  0  0  0
 17 19  1  0  0  0  0
 20 25  1  0  0  0  0
 20 22  1  0  0  0  0
 21 23  1  0  0  0  0
 21 20  2  0  0  0  0
 23 19  1  6  0  0  0
 23 24  1  0  0  0  0
 24 22  1  0  0  0  0
 24 26  1  1  0  0  0
 26 27  1  0  0  0  0
M  END
>  <MODEL>
2

>  <REMARK>
 VINA RESULT:      -7.5      1.221      2.072
  Name = 
  8 active torsions:
  status: ('A' for Active; 'I' for Inactive)
    1  A    between atoms: C_1  and  N_20
    2  A    between atoms: C_2  and  C_5
    3  A    between atoms: C_2  and  C_19
    4  A    between atoms: C_3  and  C_23
    5  A    between atoms: C_5  and  C_21
    6  A    between atoms: C_9  and  C_17
    7  A    between atoms: C_17  and  C_22
    8  A    between atoms: C_19  and  C_24
                            x       y       z     vdW  Elec       q    Type
                         _______ _______ _______ _____ _____    ______ ____

>  <TORSDO>
F 8

$$$$
=
 OpenBabel11042420453D

 27 28  0  0  1  0  0  0  0  0999 V2000
  161.5760  203.4920  146.3300 C   0  0  0  0  0  0  0  0  0  0  0  0
  161.9390  203.9540  147.5510 C   0  0  0  0  0  0  0  0  0  0  0  0
  161.0850  200.9830  149.5300 O   0  0  0  0  0  0  0  0  0  0  0  0
  160.8780  202.1920  146.2010 C   0  0  0  0  0  3  0  0  0  0  0  0
  160.6750  201.3950  147.2470 C   0  0  0  0  0  3  0  0  0  0  0  0
  161.1170  201.8080  148.5790 C   0  0  0  0  0  0  0  0  0  0  0  0
  161.5580  203.2240  148.8240 C   0  0  2  0  0  3  0  0  0  0  0  0
  163.1150  204.0840  144.5650 O   0  0  0  0  0  1  0  0  0  0  0  0
  160.9790  205.1730  144.5590 C   0  0  0  0  0  0  0  0  0  0  0  0
  161.3850  205.9720  143.4980 O   0  0  0  0  0  0  0  0  0  0  0  0
  161.8900  204.2240  145.1300 N   0  0  0  0  0  0  0  0  0  0  0  0
  159.8010  205.2770  144.9940 O   0  0  0  0  0  1  0  0  0  0  0  0
  162.7720  205.1950  147.6910 C   0  0  0  0  0  2  0  0  0  0  0  0
  161.2550  207.3300  147.8430 N   0  0  0  0  0  0  0  0  0  0  0  0
  161.9230  206.3890  147.7770 C   0  0  0  0  0  0  0  0  0  0  0  0
  160.4500  203.9820  149.5540 C   0  0  0  0  0  2  0  0  0  0  0  0
  160.9260  204.5530  150.8850 C   0  0  2  0  0  3  0  0  0  0  0  0
  160.4980  203.7640  151.9380 F   0  0  0  0  0  0  0  0  0  0  0  0
  160.4540  205.9890  151.0670 C   0  0  0  0  0  2  0  0  0  0  0  0
  160.9590  207.4900  153.9640 C   0  0  0  0  0  0  0  0  0  0  0  0
  161.2910  206.4350  153.3070 N   0  0  0  0  0  0  0  0  0  0  0  0
  160.8400  208.6200  153.1850 O   0  0  0  0  0  0  0  0  0  0  0  0
  161.4460  206.7860  151.9010 C   0  0  2  0  0  3  0  0  0  0  0  0
  161.1170  208.2830  151.8360 C   0  0  2  0  0  3  0  0  0  0  0  0
  160.7260  207.4800  155.4320 C   0  0  0  0  0  1  0  0  0  0  0  0
  162.3330  209.0510  151.3520 C   0  0  0  0  0  2  0  0  0  0  0  0
  162.0220  209.7360  150.1770 O   0  0  0  0  0  1  0  0  0  0  0  0
  1  2  2  0  0  0  0
  2 13  1  0  0  0  0
  2  7  1  0  0  0  0
  4  1  1  0  0  0  0
  4  5  2  0  0  0  0
  5  6  1  0  0  0  0
  6  7  1  0  0  0  0
  6  3  2  0  0  0  0
  7 16  1  6  0  0  0
  8 11  1  0  0  0  0
  9 12  1  0  0  0  0
  9 11  1  0  0  0  0
 10  9  2  0  0  0  0
 11  1  1  0  0  0  0
 13 15  1  0  0  0  0
 15 14  3  0  0  0  0
 16 17  1  0  0  0  0
 17 19  1  0  0  0  0
 17 18  1  1  0  0  0
 20 25  1  0  0  0  0
 21 20  2  0  0  0  0
 22 20  1  0  0  0  0
 23 19  1  6  0  0  0
 23 21  1  0  0  0  0
 24 26  1  1  0  0  0
 24 23  1  0  0  0  0
 24 22  1  0  0  0  0
 27 26  1  0  0  0  0
M  END
>  <MODEL>
3

>  <REMARK>
 VINA RESULT:      -7.3      2.182      3.102
  Name = 
  8 active torsions:
  status: ('A' for Active; 'I' for Inactive)
    1  A    between atoms: C_1  and  N_20
    2  A    between atoms: C_2  and  C_5
    3  A    between atoms: C_2  and  C_19
    4  A    between atoms: C_3  and  C_23
    5  A    between atoms: C_5  and  C_21
    6  A    between atoms: C_9  and  C_17
    7  A    between atoms: C_17  and  C_22
    8  A    between atoms: C_19  and  C_24
                            x       y       z     vdW  Elec       q    Type
                         _______ _______ _______ _____ _____    ______ ____

>  <TORSDO>
F 8

$$$$
=
 OpenBabel11042420453D

 27 28  0  0  1  0  0  0  0  0999 V2000
  161.3480  208.6410  153.8430 C   0  0  0  0  0  0  0  0  0  0  0  0
  161.1470  208.9250  152.5330 C   0  0  0  0  0  0  0  0  0  0  0  0
  160.5790  205.5060  151.3230 O   0  0  0  0  0  0  0  0  0  0  0  0
  161.4460  207.2350  154.2960 C   0  0  0  0  0  3  0  0  0  0  0  0
  161.2430  206.2120  153.4700 C   0  0  0  0  0  3  0  0  0  0  0  0
  160.9440  206.4600  152.0590 C   0  0  0  0  0  0  0  0  0  0  0  0
  161.1210  207.8360  151.4780 C   0  0  2  0  0  3  0  0  0  0  0  0
  162.5090  210.5080  154.8420 O   0  0  0  0  0  1  0  0  0  0  0  0
  160.4480  209.8340  155.8640 C   0  0  0  0  0  0  0  0  0  0  0  0
  160.6500  210.7530  156.8860 O   0  0  0  0  0  1  0  0  0  0  0  0
  161.4310  209.6880  154.8300 N   0  0  0  0  0  0  0  0  0  0  0  0
  159.3870  209.1560  155.8460 O   0  0  0  0  0  0  0  0  0  0  0  0
  160.9000  210.3330  152.0760 C   0  0  0  0  0  2  0  0  0  0  0  0
  158.6190  211.2330  153.0080 N   0  0  0  0  0  0  0  0  0  0  0  0
  159.6240  210.8370  152.5970 C   0  0  0  0  0  0  0  0  0  0  0  0
  162.4040  207.8760  150.6490 C   0  0  0  0  0  2  0  0  0  0  0  0
  162.1200  208.0270  149.1590 C   0  0  2  0  0  3  0  0  0  0  0  0
  160.7580  208.0980  148.9240 F   0  0  0  0  0  0  0  0  0  0  0  0
  162.7410  206.8870  148.3630 C   0  0  0  0  0  2  0  0  0  0  0  0
  161.4300  203.8900  147.9180 C   0  0  0  0  0  0  0  0  0  0  0  0
  161.1890  205.0170  148.4880 N   0  0  0  0  0  0  0  0  0  0  0  0
  162.0590  204.0030  146.6980 O   0  0  0  0  0  0  0  0  0  0  0  0
  161.6720  206.0910  147.6300 C   0  0  2  0  0  3  0  0  0  0  0  0
  162.2780  205.3750  146.4150 C   0  0  2  0  0  3  0  0  0  0  0  0
  161.0580  202.5860  148.5290 C   0  0  0  0  0  1  0  0  0  0  0  0
  161.5220  205.7710  145.1600 C   0  0  0  0  0  2  0  0  0  0  0  0
  160.2630  206.2640  145.5040 O   0  0  0  0  0  1  0  0  0  0  0  0
  1  4  1  0  0  0  0
  1 11  1  0  0  0  0
  2  1  2  0  0  0  0
  3  6  2  0  0  0  0
  5  4  2  0  0  0  0
  6  5  1  0  0  0  0
  7 16  1  1  0  0  0
  7  6  1  0  0  0  0
  7  2  1  0  0  0  0
  9 10  1  0  0  0  0
 11  8  1  0  0  0  0
 11  9  1  0  0  0  0
 12  9  2  0  0  0  0
 13  2  1  0  0  0  0
 13 15  1  0  0  0  0
 15 14  3  0  0  0  0
 17 18  1  1  0  0  0
 17 16  1  0  0  0  0
 19 17  1  0  0  0  0
 20 21  2  0  0  0  0
 20 25  1  0  0  0  0
 22 20  1  0  0  0  0
 23 19  1  1  0  0  0
 23 21  1  0  0  0  0
 24 26  1  6  0  0  0
 24 22  1  0  0  0  0
 24 23  1  0  0  0  0
 26 27  1  0  0  0  0
M  END
>  <MODEL>
4

>  <REMARK>
 VINA RESULT:      -7.3      2.627      7.919
  Name = 
  8 active torsions:
  status: ('A' for Active; 'I' for Inactive)
    1  A    between atoms: C_1  and  N_20
    2  A    between atoms: C_2  and  C_5
    3  A    between atoms: C_2  and  C_19
    4  A    between atoms: C_3  and  C_23
    5  A    between atoms: C_5  and  C_21
    6  A    between atoms: C_9  and  C_17
    7  A    between atoms: C_17  and  C_22
    8  A    between atoms: C_19  and  C_24
                            x       y       z     vdW  Elec       q    Type
                         _______ _______ _______ _____ _____    ______ ____

>  <TORSDO>
F 8

$$$$
=
 OpenBabel11042420453D

 27 28  0  0  1  0  0  0  0  0999 V2000
  159.9950  210.2680  154.1760 C   0  0  0  0  0  0  0  0  0  0  0  0
  160.6620  209.0940  154.3010 C   0  0  0  0  0  0  0  0  0  0  0  0
  162.7020  209.3050  151.2570 O   0  0  0  0  0  0  0  0  0  0  0  0
  160.1320  211.0760  152.9430 C   0  0  0  0  0  3  0  0  0  0  0  0
  160.9770  210.7410  151.9710 C   0  0  0  0  0  3  0  0  0  0  0  0
  161.7820  209.5250  152.0870 C   0  0  0  0  0  0  0  0  0  0  0  0
  161.4780  208.5160  153.1610 C   0  0  2  0  0  3  0  0  0  0  0  0
  157.8970  210.3410  155.3700 O   0  0  0  0  0  1  0  0  0  0  0  0
  159.6340  211.8080  156.1280 C   0  0  0  0  0  0  0  0  0  0  0  0
  158.7560  212.3830  157.0390 O   0  0  0  0  0  1  0  0  0  0  0  0
  159.1740  210.7780  155.2430 N   0  0  0  0  0  0  0  0  0  0  0  0
  160.8360  212.1860  156.1080 O   0  0  0  0  0  0  0  0  0  0  0  0
  160.6510  208.3330  155.5950 C   0  0  0  0  0  2  0  0  0  0  0  0
  162.5180  209.2130  157.2150 N   0  0  0  0  0  0  0  0  0  0  0  0
  161.6950  208.8260  156.5010 C   0  0  0  0  0  0  0  0  0  0  0  0
  160.7500  207.3230  152.5450 C   0  0  0  0  0  2  0  0  0  0  0  0
  161.3880  205.9950  152.9410 C   0  0  2  0  0  3  0  0  0  0  0  0
  162.3850  206.1910  153.8800 F   0  0  0  0  0  0  0  0  0  0  0  0
  161.9370  205.2650  151.7220 C   0  0  0  0  0  2  0  0  0  0  0  0
  160.6890  203.0390  149.6280 C   0  0  0  0  0  0  0  0  0  0  0  0
  160.4640  203.5770  150.7740 N   0  0  0  0  0  0  0  0  0  0  0  0
  161.2030  203.9100  148.6920 O   0  0  0  0  0  0  0  0  0  0  0  0
  160.8330  204.9850  150.7140 C   0  0  2  0  0  3  0  0  0  0  0  0
  161.3520  205.1900  149.2840 C   0  0  2  0  0  3  0  0  0  0  0  0
  160.4160  201.6050  149.3470 C   0  0  0  0  0  1  0  0  0  0  0  0
  160.4740  206.1970  148.5630 C   0  0  0  0  0  2  0  0  0  0  0  0
  160.8340  207.4910  148.9390 O   0  0  0  0  0  1  0  0  0  0  0  0
  1  2  2  0  0  0  0
  1 11  1  0  0  0  0
  2 13  1  0  0  0  0
  3  6  2  0  0  0  0
  4  1  1  0  0  0  0
  5  6  1  0  0  0  0
  5  4  2  0  0  0  0
  6  7  1  0  0  0  0
  7 16  1  6  0  0  0
  7  2  1  0  0  0  0
  9 10  1  0  0  0  0
 11  8  1  0  0  0  0
 11  9  1  0  0  0  0
 12  9  2  0  0  0  0
 13 15  1  0  0  0  0
 15 14  3  0  0  0  0
 16 17  1  0  0  0  0
 17 18  1  1  0  0  0
 19 17  1  0  0  0  0
 20 21  2  0  0  0  0
 22 24  1  0  0  0  0
 22 20  1  0  0  0  0
 23 21  1  0  0  0  0
 23 19  1  1  0  0  0
 24 26  1  6  0  0  0
 24 23  1  0  0  0  0
 25 20  1  0  0  0  0
 26 27  1  0  0  0  0
M  END
>  <MODEL>
5

>  <REMARK>
 VINA RESULT:      -7.2      3.471      9.007
  Name = 
  8 active torsions:
  status: ('A' for Active; 'I' for Inactive)
    1  A    between atoms: C_1  and  N_20
    2  A    between atoms: C_2  and  C_5
    3  A    between atoms: C_2  and  C_19
    4  A    between atoms: C_3  and  C_23
    5  A    between atoms: C_5  and  C_21
    6  A    between atoms: C_9  and  C_17
    7  A    between atoms: C_17  and  C_22
    8  A    between atoms: C_19  and  C_24
                            x       y       z     vdW  Elec       q    Type
                         _______ _______ _______ _____ _____    ______ ____

>  <TORSDO>
F 8

$$$$
=
 OpenBabel11042420453D

 27 28  0  0  1  0  0  0  0  0999 V2000
  160.7880  202.3100  147.4480 C   0  0  0  0  0  0  0  0  0  0  0  0
  161.5120  203.4400  147.2520 C   0  0  0  0  0  0  0  0  0  0  0  0
  161.5610  204.6580  150.7140 O   0  0  0  0  0  0  0  0  0  0  0  0
  160.1700  202.0400  148.7660 C   0  0  0  0  0  3  0  0  0  0  0  0
  160.3810  202.8260  149.8180 C   0  0  0  0  0  3  0  0  0  0  0  0
  161.2190  204.0180  149.6850 C   0  0  0  0  0  0  0  0  0  0  0  0
  161.6290  204.5060  148.3230 C   0  0  2  0  0  3  0  0  0  0  0  0
  159.8930  201.6340  145.3090 O   0  0  0  0  0  1  0  0  0  0  0  0
  161.1640  200.0040  146.5230 C   0  0  0  0  0  0  0  0  0  0  0  0
  160.8550  199.0460  145.5660 O   0  0  0  0  0  0  0  0  0  0  0  0
  160.6330  201.3310  146.4030 N   0  0  0  0  0  0  0  0  0  0  0  0
  161.9290  199.7000  147.4760 O   0  0  0  0  0  1  0  0  0  0  0  0
  162.2650  203.6620  145.9730 C   0  0  0  0  0  2  0  0  0  0  0  0
  160.7540  204.8630  144.1950 N   0  0  0  0  0  0  0  0  0  0  0  0
  161.4200  204.3340  144.9780 C   0  0  0  0  0  0  0  0  0  0  0  0
  160.7870  205.7240  147.9460 C   0  0  0  0  0  2  0  0  0  0  0  0
  161.6490  206.9150  147.5400 C   0  0  2  0  0  3  0  0  0  0  0  0
  162.5070  206.5700  146.5110 F   0  0  0  0  0  0  0  0  0  0  0  0
  162.4300  207.4580  148.7290 C   0  0  0  0  0  2  0  0  0  0  0  0
  162.0890  210.6480  149.5090 C   0  0  0  0  0  0  0  0  0  0  0  0
  161.5610  209.7300  148.7800 N   0  0  0  0  0  0  0  0  0  0  0  0
  162.5360  210.2010  150.7330 O   0  0  0  0  0  0  0  0  0  0  0  0
  161.6010  208.4680  149.5080 C   0  0  2  0  0  3  0  0  0  0  0  0
  162.2870  208.8100  150.8380 C   0  0  2  0  0  3  0  0  0  0  0  0
  162.2030  212.0610  149.0630 C   0  0  0  0  0  1  0  0  0  0  0  0
  161.3320  208.5410  151.9870 C   0  0  0  0  0  2  0  0  0  0  0  0
  160.4550  209.6160  152.1330 O   0  0  0  0  0  1  0  0  0  0  0  0
  1  4  1  0  0  0  0
  2  1  2  0  0  0  0
  2  7  1  0  0  0  0
  4  5  2  0  0  0  0
  6  5  1  0  0  0  0
  6  3  2  0  0  0  0
  7 16  1  6  0  0  0
  7  6  1  0  0  0  0
  8 11  1  0  0  0  0
  9 12  1  0  0  0  0
 10  9  2  0  0  0  0
 11  9  1  0  0  0  0
 11  1  1  0  0  0  0
 13  2  1  0  0  0  0
 14 15  3  0  0  0  0
 15 13  1  0  0  0  0
 17 18  1  6  0  0  0
 17 16  1  0  0  0  0
 17 19  1  0  0  0  0
 20 22  1  0  0  0  0
 21 23  1  0  0  0  0
 21 20  2  0  0  0  0
 22 24  1  0  0  0  0
 23 19  1  6  0  0  0
 23 24  1  0  0  0  0
 24 26  1  1  0  0  0
 25 20  1  0  0  0  0
 26 27  1  0  0  0  0
M  END
>  <MODEL>
6

>  <REMARK>
 VINA RESULT:      -7.1      1.460      2.309
  Name = 
  8 active torsions:
  status: ('A' for Active; 'I' for Inactive)
    1  A    between atoms: C_1  and  N_20
    2  A    between atoms: C_2  and  C_5
    3  A    between atoms: C_2  and  C_19
    4  A    between atoms: C_3  and  C_23
    5  A    between atoms: C_5  and  C_21
    6  A    between atoms: C_9  and  C_17
    7  A    between atoms: C_17  and  C_22
    8  A    between atoms: C_19  and  C_24
                            x       y       z     vdW  Elec       q    Type
                         _______ _______ _______ _____ _____    ______ ____

>  <TORSDO>
F 8

$$$$
=
 OpenBabel11042420453D

 27 28  0  0  1  0  0  0  0  0999 V2000
  161.6660  205.8040  148.3320 C   0  0  0  0  0  0  0  0  0  0  0  0
  161.1470  205.7940  149.5850 C   0  0  0  0  0  0  0  0  0  0  0  0
  161.9170  209.2610  150.5150 O   0  0  0  0  0  0  0  0  0  0  0  0
  162.4350  206.9740  147.8530 C   0  0  0  0  0  3  0  0  0  0  0  0
  162.5590  208.0820  148.5780 C   0  0  0  0  0  3  0  0  0  0  0  0
  161.9520  208.1580  149.9070 C   0  0  0  0  0  0  0  0  0  0  0  0
  161.4180  206.9170  150.5670 C   0  0  2  0  0  3  0  0  0  0  0  0
  161.8640  203.4610  147.7780 O   0  0  0  0  0  1  0  0  0  0  0  0
  160.8980  204.8960  146.1180 C   0  0  0  0  0  0  0  0  0  0  0  0
  160.8580  203.8370  145.2210 O   0  0  0  0  0  0  0  0  0  0  0  0
  161.4520  204.7040  147.4270 N   0  0  0  0  0  0  0  0  0  0  0  0
  160.4220  206.0110  145.7770 O   0  0  0  0  0  1  0  0  0  0  0  0
  160.2440  204.6840  150.0390 C   0  0  0  0  0  2  0  0  0  0  0  0
  161.5730  202.9120  151.4450 N   0  0  0  0  0  0  0  0  0  0  0  0
  160.9880  203.6930  150.8250 C   0  0  0  0  0  0  0  0  0  0  0  0
  162.3990  206.4510  151.6410 C   0  0  0  0  0  2  0  0  0  0  0  0
  161.8160  206.5740  153.0440 C   0  0  2  0  0  3  0  0  0  0  0  0
  161.4070  205.3400  153.5160 F   0  0  0  0  0  0  0  0  0  0  0  0
  160.6610  207.5670  153.0740 C   0  0  0  0  0  2  0  0  0  0  0  0
  160.4770  209.4580  155.7740 C   0  0  0  0  0  0  0  0  0  0  0  0
  161.2900  208.6930  155.1360 N   0  0  0  0  0  0  0  0  0  0  0  0
  159.6650  210.2150  154.9570 O   0  0  0  0  0  0  0  0  0  0  0  0
  161.0910  208.8820  153.7050 C   0  0  2  0  0  3  0  0  0  0  0  0
  159.9630  209.9180  153.6040 C   0  0  2  0  0  3  0  0  0  0  0  0
  160.4230  209.5120  157.2580 C   0  0  0  0  0  1  0  0  0  0  0  0
  160.4750  211.1620  152.9020 C   0  0  0  0  0  2  0  0  0  0  0  0
  160.1230  212.2960  153.6350 O   0  0  0  0  0  1  0  0  0  0  0  0
  1  2  2  0  0  0  0
  2 13  1  0  0  0  0
  2  7  1  0  0  0  0
  4  1  1  0  0  0  0
  4  5  2  0  0  0  0
  5  6  1  0  0  0  0
  6  3  2  0  0  0  0
  6  7  1  0  0  0  0
  7 16  1  1  0  0  0
  9 11  1  0  0  0  0
 10  9  2  0  0  0  0
 11  8  1  0  0  0  0
 11  1  1  0  0  0  0
 12  9  1  0  0  0  0
 13 15  1  0  0  0  0
 15 14  3  0  0  0  0
 16 17  1  0  0  0  0
 17 19  1  0  0  0  0
 17 18  1  6  0  0  0
 20 25  1  0  0  0  0
 21 20  2  0  0  0  0
 22 20  1  0  0  0  0
 23 19  1  6  0  0  0
 23 21  1  0  0  0  0
 24 26  1  6  0  0  0
 24 23  1  0  0  0  0
 24 22  1  0  0  0  0
 26 27  1  0  0  0  0
M  END
>  <MODEL>
7

>  <REMARK>
 VINA RESULT:      -7.1      2.698      4.398
  Name = 
  8 active torsions:
  status: ('A' for Active; 'I' for Inactive)
    1  A    between atoms: C_1  and  N_20
    2  A    between atoms: C_2  and  C_5
    3  A    between atoms: C_2  and  C_19
    4  A    between atoms: C_3  and  C_23
    5  A    between atoms: C_5  and  C_21
    6  A    between atoms: C_9  and  C_17
    7  A    between atoms: C_17  and  C_22
    8  A    between atoms: C_19  and  C_24
                            x       y       z     vdW  Elec       q    Type
                         _______ _______ _______ _____ _____    ______ ____

>  <TORSDO>
F 8

$$$$
=
 OpenBabel11042420453D

 27 28  0  0  1  0  0  0  0  0999 V2000
  161.7030  206.0730  148.4010 C   0  0  0  0  0  0  0  0  0  0  0  0
  161.1090  206.1150  149.6190 C   0  0  0  0  0  0  0  0  0  0  0  0
  161.9140  209.5870  150.4950 O   0  0  0  0  0  0  0  0  0  0  0  0
  162.5310  207.2090  147.9360 C   0  0  0  0  0  3  0  0  0  0  0  0
  162.6410  208.3350  148.6360 C   0  0  0  0  0  3  0  0  0  0  0  0
  161.9560  208.4670  149.9220 C   0  0  0  0  0  0  0  0  0  0  0  0
  161.3500  207.2590  150.5830 C   0  0  2  0  0  3  0  0  0  0  0  0
  161.9570  203.7270  147.8890 O   0  0  0  0  0  1  0  0  0  0  0  0
  160.9570  205.1080  146.2040 C   0  0  0  0  0  0  0  0  0  0  0  0
  160.9420  204.0310  145.3260 O   0  0  0  0  0  0  0  0  0  0  0  0
  161.5150  204.9530  147.5160 N   0  0  0  0  0  0  0  0  0  0  0  0
  160.4540  206.2050  145.8430 O   0  0  0  0  0  1  0  0  0  0  0  0
  160.1510  205.0420  150.0480 C   0  0  0  0  0  2  0  0  0  0  0  0
  161.3670  203.2290  151.5040 N   0  0  0  0  0  0  0  0  0  0  0  0
  160.8320  204.0270  150.8620 C   0  0  0  0  0  0  0  0  0  0  0  0
  162.2520  206.8010  151.7280 C   0  0  0  0  0  2  0  0  0  0  0  0
  161.5830  206.9680  153.0880 C   0  0  2  0  0  3  0  0  0  0  0  0
  160.7340  205.9070  153.3500 F   0  0  0  0  0  0  0  0  0  0  0  0
  160.8300  208.2890  153.1720 C   0  0  0  0  0  2  0  0  0  0  0  0
  162.1390  209.6610  155.8750 C   0  0  0  0  0  0  0  0  0  0  0  0
  161.2990  209.9030  154.9310 N   0  0  0  0  0  0  0  0  0  0  0  0
  162.1260  208.3550  156.3140 O   0  0  0  0  0  0  0  0  0  0  0  0
  160.5740  208.6780  154.6200 C   0  0  2  0  0  3  0  0  0  0  0  0
  161.1660  207.6260  155.5680 C   0  0  2  0  0  3  0  0  0  0  0  0
  163.0390  210.7030  156.4350 C   0  0  0  0  0  1  0  0  0  0  0  0
  160.0810  207.1050  156.4930 C   0  0  0  0  0  2  0  0  0  0  0  0
  158.8890  206.9530  155.7830 O   0  0  0  0  0  1  0  0  0  0  0  0
  1  2  2  0  0  0  0
  2 13  1  0  0  0  0
  2  7  1  0  0  0  0
  4  1  1  0  0  0  0
  4  5  2  0  0  0  0
  5  6  1  0  0  0  0
  6  3  2  0  0  0  0
  6  7  1  0  0  0  0
  7 16  1  1  0  0  0
  9 11  1  0  0  0  0
 10  9  2  0  0  0  0
 11  8  1  0  0  0  0
 11  1  1  0  0  0  0
 12  9  1  0  0  0  0
 13 15  1  0  0  0  0
 15 14  3  0  0  0  0
 16 17  1  0  0  0  0
 17 19  1  0  0  0  0
 17 18  1  6  0  0  0
 20 22  1  0  0  0  0
 20 25  1  0  0  0  0
 21 20  2  0  0  0  0
 23 19  1  6  0  0  0
 23 21  1  0  0  0  0
 23 24  1  0  0  0  0
 24 22  1  0  0  0  0
 24 26  1  1  0  0  0
 27 26  1  0  0  0  0
M  END
>  <MODEL>
8

>  <REMARK>
 VINA RESULT:      -7.1      2.810      4.945
  Name = 
  8 active torsions:
  status: ('A' for Active; 'I' for Inactive)
    1  A    between atoms: C_1  and  N_20
    2  A    between atoms: C_2  and  C_5
    3  A    between atoms: C_2  and  C_19
    4  A    between atoms: C_3  and  C_23
    5  A    between atoms: C_5  and  C_21
    6  A    between atoms: C_9  and  C_17
    7  A    between atoms: C_17  and  C_22
    8  A    between atoms: C_19  and  C_24
                            x       y       z     vdW  Elec       q    Type
                         _______ _______ _______ _____ _____    ______ ____

>  <TORSDO>
F 8

$$$$
=
 OpenBabel11042420453D

 27 28  0  0  1  0  0  0  0  0999 V2000
  161.6870  206.5120  151.0050 C   0  0  0  0  0  0  0  0  0  0  0  0
  160.9720  205.7210  150.1680 C   0  0  0  0  0  0  0  0  0  0  0  0
  160.2820  202.9640  152.4910 O   0  0  0  0  0  0  0  0  0  0  0  0
  162.0730  206.0220  152.3470 C   0  0  0  0  0  3  0  0  0  0  0  0
  161.6580  204.8480  152.8160 C   0  0  0  0  0  3  0  0  0  0  0  0
  160.8180  203.9850  151.9850 C   0  0  0  0  0  0  0  0  0  0  0  0
  160.6370  204.2850  150.5230 C   0  0  2  0  0  3  0  0  0  0  0  0
  163.0550  208.0510  149.7430 O   0  0  0  0  0  1  0  0  0  0  0  0
  161.4480  209.0030  151.2450 C   0  0  0  0  0  0  0  0  0  0  0  0
  161.9420  210.2720  150.9740 O   0  0  0  0  0  0  0  0  0  0  0  0
  162.0520  207.8550  150.6330 N   0  0  0  0  0  0  0  0  0  0  0  0
  160.4560  208.8770  152.0110 O   0  0  0  0  0  1  0  0  0  0  0  0
  160.4470  206.2490  148.8640 C   0  0  0  0  0  2  0  0  0  0  0  0
  162.3300  206.2700  147.0370 N   0  0  0  0  0  0  0  0  0  0  0  0
  161.5010  206.2610  147.8420 C   0  0  0  0  0  0  0  0  0  0  0  0
  161.4920  203.3250  149.6980 C   0  0  0  0  0  2  0  0  0  0  0  0
  160.8320  201.9610  149.5370 C   0  0  2  0  0  3  0  0  0  0  0  0
  161.7800  200.9530  149.5400 F   0  0  0  0  0  0  0  0  0  0  0  0
  159.9930  201.9030  148.2680 C   0  0  0  0  0  2  0  0  0  0  0  0
  160.7830  203.1800  145.3270 C   0  0  0  0  0  0  0  0  0  0  0  0
  161.2320  203.0660  146.5270 N   0  0  0  0  0  0  0  0  0  0  0  0
  160.1090  202.0670  144.8740 O   0  0  0  0  0  0  0  0  0  0  0  0
  160.8770  201.7490  147.0390 C   0  0  2  0  0  3  0  0  0  0  0  0
  160.0950  201.0860  145.8970 C   0  0  2  0  0  3  0  0  0  0  0  0
  160.9780  204.4070  144.5110 C   0  0  0  0  0  1  0  0  0  0  0  0
  160.8290  199.8420  145.4310 C   0  0  0  0  0  2  0  0  0  0  0  0
  161.5810  199.3160  146.4820 O   0  0  0  0  0  1  0  0  0  0  0  0
  1  4  1  0  0  0  0
  2  7  1  0  0  0  0
  2  1  2  0  0  0  0
  4  5  2  0  0  0  0
  6  3  2  0  0  0  0
  6  5  1  0  0  0  0
  7 16  1  6  0  0  0
  7  6  1  0  0  0  0
  8 11  1  0  0  0  0
  9 12  1  0  0  0  0
 10  9  2  0  0  0  0
 11  1  1  0  0  0  0
 11  9  1  0  0  0  0
 13  2  1  0  0  0  0
 14 15  3  0  0  0  0
 15 13  1  0  0  0  0
 17 18  1  6  0  0  0
 17 16  1  0  0  0  0
 19 17  1  0  0  0  0
 20 21  2  0  0  0  0
 21 23  1  0  0  0  0
 22 20  1  0  0  0  0
 22 24  1  0  0  0  0
 23 19  1  1  0  0  0
 24 26  1  6  0  0  0
 24 23  1  0  0  0  0
 25 20  1  0  0  0  0
 26 27  1  0  0  0  0
M  END
>  <MODEL>
9

>  <REMARK>
 VINA RESULT:      -7.0      1.989      7.288
  Name = 
  8 active torsions:
  status: ('A' for Active; 'I' for Inactive)
    1  A    between atoms: C_1  and  N_20
    2  A    between atoms: C_2  and  C_5
    3  A    between atoms: C_2  and  C_19
    4  A    between atoms: C_3  and  C_23
    5  A    between atoms: C_5  and  C_21
    6  A    between atoms: C_9  and  C_17
    7  A    between atoms: C_17  and  C_22
    8  A    between atoms: C_19  and  C_24
                            x       y       z     vdW  Elec       q    Type
                         _______ _______ _______ _____ _____    ______ ____

>  <TORSDO>
F 8

$$$$
