=
 OpenBabel11052409383D

 38 42  0  0  0  0  0  0  0  0999 V2000
  161.8500  209.6590  150.8100 C   0  0  0  0  0  0  0  0  0  0  0  0
  161.6030  208.2950  150.9700 C   0  0  0  0  0  0  0  0  0  0  0  0
  161.4960  209.9040  153.2240 C   0  0  0  0  0  3  0  0  0  0  0  0
  161.3110  207.7510  152.1830 C   0  0  0  0  0  0  0  0  0  0  0  0
  161.2490  208.5240  153.3430 C   0  0  0  0  0  0  0  0  0  0  0  0
  161.1050  206.4320  152.0590 N   0  0  0  0  0  0  0  0  0  0  0  0
  161.5950  207.3430  150.0260 N   0  0  0  0  0  2  0  0  0  0  0  0
  161.7940  210.4700  151.9640 C   0  0  0  0  0  3  0  0  0  0  0  0
  161.2900  206.2200  150.7300 C   0  0  0  0  0  0  0  0  0  0  0  0
  161.1790  202.3810  145.9980 C   0  0  0  0  0  3  0  0  0  0  0  0
  160.9100  202.4700  148.7820 C   0  0  0  0  0  0  0  0  0  0  0  0
  160.9020  203.7080  150.8020 C   0  0  0  0  0  0  0  0  0  0  0  0
  161.2910  203.6030  146.6670 C   0  0  0  0  0  3  0  0  0  0  0  0
  161.1560  203.6510  148.0580 C   0  0  0  0  0  0  0  0  0  0  0  0
  161.1490  204.8980  150.0800 C   0  0  0  0  0  0  0  0  0  0  0  0
  160.9330  201.2060  146.7190 C   0  0  0  0  0  3  0  0  0  0  0  0
  160.7980  203.7050  152.2250 N   0  0  0  0  0  1  0  0  0  0  0  0
  161.2680  204.8270  148.7240 N   0  0  0  0  0  0  0  0  0  0  0  0
  160.8000  201.2480  148.1110 C   0  0  0  0  0  3  0  0  0  0  0  0
  160.7930  202.5300  150.1320 N   0  0  0  0  0  0  0  0  0  0  0  0
  160.8460  207.8000  154.9290 S   0  0  0  0  0  0  0  0  0  0  0  0
  161.1940  209.3410  155.8200 C   0  0  0  0  0  2  0  0  0  0  0  0
  160.1400  209.5440  156.8940 C   0  0  0  0  0  2  0  0  0  0  0  0
  159.4950  210.8380  156.7300 N   0  0  0  0  0  0  0  0  0  0  0  0
  159.8320  212.6470  155.1850 C   0  0  0  0  0  2  0  0  0  0  0  0
  158.4900  212.0180  154.9110 C   0  0  0  0  0  2  0  0  0  0  0  0
  160.5040  211.7460  156.2010 C   0  0  0  0  0  2  0  0  0  0  0  0
  158.5130  210.7090  155.6640 C   0  0  0  0  0  2  0  0  0  0  0  0
  162.1520  210.1980  149.5200 N   0  0  0  0  0  2  0  0  0  0  0  0
  161.8720  211.5800  149.1620 C   0  0  0  0  0  2  0  0  0  0  0  0
  162.3600  211.8350  147.8820 O   0  0  0  0  0  0  0  0  0  0  0  0
  162.8120  213.1540  147.9350 C   0  0  0  0  0  2  0  0  0  0  0  0
  162.2750  213.9220  146.7430 C   0  0  0  0  0  2  0  0  0  0  0  0
  161.7810  212.9870  145.7480 N   0  0  0  0  0  2  0  0  0  0  0  0
  162.5230  213.2470  144.5280 C   0  0  0  0  0  2  0  0  0  0  0  0
  161.8410  212.5900  143.3780 C   0  0  0  0  0  0  0  0  0  0  0  0
  162.4930  212.3110  142.3380 O   0  0  0  0  0  0  0  0  0  0  0  0
  160.4940  212.2610  143.4660 O   0  0  0  0  0  1  0  0  0  0  0  0
  1  2  2  0  0  0  0
  1  8  1  0  0  0  0
  2  4  1  0  0  0  0
  3  5  1  0  0  0  0
  4  5  2  0  0  0  0
  5 21  1  0  0  0  0
  6  4  1  0  0  0  0
  7  9  1  0  0  0  0
  7  2  1  0  0  0  0
  8  3  2  0  0  0  0
  9  6  2  0  0  0  0
 10 13  2  0  0  0  0
 10 16  1  0  0  0  0
 11 20  1  0  0  0  0
 12 17  1  0  0  0  0
 13 14  1  0  0  0  0
 14 18  1  0  0  0  0
 14 11  2  0  0  0  0
 15  9  1  0  0  0  0
 15 12  1  0  0  0  0
 16 19  2  0  0  0  0
 18 15  2  0  0  0  0
 19 11  1  0  0  0  0
 20 12  2  0  0  0  0
 21 22  1  0  0  0  0
 22 23  1  0  0  0  0
 24 23  1  0  0  0  0
 25 27  1  0  0  0  0
 26 25  1  0  0  0  0
 26 28  1  0  0  0  0
 27 24  1  0  0  0  0
 28 24  1  0  0  0  0
 29  1  1  0  0  0  0
 30 29  1  0  0  0  0
 31 32  1  0  0  0  0
 31 30  1  0  0  0  0
 33 32  1  0  0  0  0
 34 33  1  0  0  0  0
 35 34  1  0  0  0  0
 36 38  1  0  0  0  0
 36 35  1  0  0  0  0
 37 36  2  0  0  0  0
M  END
>  <MODEL>
1

>  <REMARK>
 VINA RESULT:      -7.6      0.000      0.000
  Name = 
  13 active torsions:
  status: ('A' for Active; 'I' for Inactive)
    1  A    between atoms: C_2  and  C_3
    2  A    between atoms: C_3  and  N_27
    3  A    between atoms: C_5  and  N_28
    4  A    between atoms: N_6  and  C_14
    5  A    between atoms: C_13  and  S_15
    6  A    between atoms: C_14  and  C_18
    7  A    between atoms: S_15  and  C_18
    8  A    between atoms: C_20  and  C_36
    9  A    between atoms: C_22  and  O_23
   10  A    between atoms: C_22  and  N_28
   11  A    between atoms: O_23  and  C_29
   12  A    between atoms: C_26  and  N_27
   13  A    between atoms: C_26  and  C_29
                            x       y       z     vdW  Elec       q    Type
                         _______ _______ _______ _____ _____    ______ ____

>  <TORSDO>
F 13

$$$$
=
 OpenBabel11052409383D

 38 42  0  0  0  0  0  0  0  0999 V2000
  161.1810  208.6690  152.9570 C   0  0  0  0  0  0  0  0  0  0  0  0
  161.2480  207.7910  151.8760 C   0  0  0  0  0  0  0  0  0  0  0  0
  161.7850  210.4690  151.4050 C   0  0  0  0  0  3  0  0  0  0  0  0
  161.5700  208.2120  150.6220 C   0  0  0  0  0  0  0  0  0  0  0  0
  161.8450  209.5510  150.3400 C   0  0  0  0  0  0  0  0  0  0  0  0
  161.5760  207.1720  149.7740 N   0  0  0  0  0  0  0  0  0  0  0  0
  161.0360  206.4670  151.8750 N   0  0  0  0  0  2  0  0  0  0  0  0
  161.4560  210.0320  152.7080 C   0  0  0  0  0  3  0  0  0  0  0  0
  161.2430  206.1270  150.5750 C   0  0  0  0  0  0  0  0  0  0  0  0
  161.1280  201.7250  146.3630 C   0  0  0  0  0  3  0  0  0  0  0  0
  160.9600  202.1500  149.1230 C   0  0  0  0  0  0  0  0  0  0  0  0
  160.9710  203.6300  150.9730 C   0  0  0  0  0  0  0  0  0  0  0  0
  161.2100  203.0250  146.8700 C   0  0  0  0  0  3  0  0  0  0  0  0
  161.1250  203.2400  148.2490 C   0  0  0  0  0  0  0  0  0  0  0  0
  161.1370  204.7290  150.1010 C   0  0  0  0  0  0  0  0  0  0  0  0
  160.9630  200.6400  147.2330 C   0  0  0  0  0  3  0  0  0  0  0  0
  160.9220  203.8000  152.3890 N   0  0  0  0  0  1  0  0  0  0  0  0
  161.2090  204.4940  148.7600 N   0  0  0  0  0  0  0  0  0  0  0  0
  160.8800  200.8510  148.6130 C   0  0  0  0  0  3  0  0  0  0  0  0
  160.8910  202.3740  150.4590 N   0  0  0  0  0  0  0  0  0  0  0  0
  162.2860  210.0880  148.6910 S   0  0  0  0  0  0  0  0  0  0  0  0
  161.8410  211.8120  149.0400 C   0  0  0  0  0  2  0  0  0  0  0  0
  162.2260  212.6750  147.8520 C   0  0  0  0  0  2  0  0  0  0  0  0
  161.0630  213.3950  147.3540 N   0  0  0  0  0  0  0  0  0  0  0  0
  159.0190  212.6780  146.3160 C   0  0  0  0  0  2  0  0  0  0  0  0
  158.7000  213.2400  147.6780 C   0  0  0  0  0  2  0  0  0  0  0  0
  160.5310  212.6170  146.2440 C   0  0  0  0  0  2  0  0  0  0  0  0
  160.0340  213.3340  148.3820 C   0  0  0  0  0  2  0  0  0  0  0  0
  160.8430  208.1930  154.2630 N   0  0  0  0  0  2  0  0  0  0  0  0
  160.8520  209.0500  155.4380 C   0  0  0  0  0  2  0  0  0  0  0  0
  159.5400  209.3510  155.8030 O   0  0  0  0  0  0  0  0  0  0  0  0
  159.5590  210.7170  156.0830 C   0  0  0  0  0  2  0  0  0  0  0  0
  158.3600  211.3830  155.4380 C   0  0  0  0  0  2  0  0  0  0  0  0
  158.8140  212.2970  154.4040 N   0  0  0  0  0  2  0  0  0  0  0  0
  158.3180  211.7770  153.1420 C   0  0  0  0  0  2  0  0  0  0  0  0
  158.6830  212.7070  152.0390 C   0  0  0  0  0  0  0  0  0  0  0  0
  157.8540  212.9540  151.1250 O   0  0  0  0  0  0  0  0  0  0  0  0
  159.9280  213.3260  152.0360 O   0  0  0  0  0  1  0  0  0  0  0  0
  1 29  1  0  0  0  0
  2  1  2  0  0  0  0
  3  8  2  0  0  0  0
  4  2  1  0  0  0  0
  5  4  2  0  0  0  0
  5  3  1  0  0  0  0
  6  9  2  0  0  0  0
  6  4  1  0  0  0  0
  7  2  1  0  0  0  0
  8  1  1  0  0  0  0
  9  7  1  0  0  0  0
 10 13  2  0  0  0  0
 10 16  1  0  0  0  0
 11 20  1  0  0  0  0
 12 17  1  0  0  0  0
 13 14  1  0  0  0  0
 14 18  1  0  0  0  0
 14 11  2  0  0  0  0
 15  9  1  0  0  0  0
 15 12  1  0  0  0  0
 16 19  2  0  0  0  0
 18 15  2  0  0  0  0
 19 11  1  0  0  0  0
 20 12  2  0  0  0  0
 21 22  1  0  0  0  0
 21  5  1  0  0  0  0
 23 22  1  0  0  0  0
 24 23  1  0  0  0  0
 24 28  1  0  0  0  0
 25 26  1  0  0  0  0
 26 28  1  0  0  0  0
 27 25  1  0  0  0  0
 27 24  1  0  0  0  0
 29 30  1  0  0  0  0
 30 31  1  0  0  0  0
 31 32  1  0  0  0  0
 33 32  1  0  0  0  0
 34 33  1  0  0  0  0
 35 34  1  0  0  0  0
 36 35  1  0  0  0  0
 37 36  2  0  0  0  0
 38 36  1  0  0  0  0
M  END
>  <MODEL>
2

>  <REMARK>
 VINA RESULT:      -7.3      2.773      6.058
  Name = 
  13 active torsions:
  status: ('A' for Active; 'I' for Inactive)
    1  A    between atoms: C_2  and  C_3
    2  A    between atoms: C_3  and  N_27
    3  A    between atoms: C_5  and  N_28
    4  A    between atoms: N_6  and  C_14
    5  A    between atoms: C_13  and  S_15
    6  A    between atoms: C_14  and  C_18
    7  A    between atoms: S_15  and  C_18
    8  A    between atoms: C_20  and  C_36
    9  A    between atoms: C_22  and  O_23
   10  A    between atoms: C_22  and  N_28
   11  A    between atoms: O_23  and  C_29
   12  A    between atoms: C_26  and  N_27
   13  A    between atoms: C_26  and  C_29
                            x       y       z     vdW  Elec       q    Type
                         _______ _______ _______ _____ _____    ______ ____

>  <TORSDO>
F 13

$$$$
=
 OpenBabel11052409383D

 38 42  0  0  0  0  0  0  0  0999 V2000
  161.9030  209.6620  150.8880 C   0  0  0  0  0  0  0  0  0  0  0  0
  161.6210  208.3040  151.0390 C   0  0  0  0  0  0  0  0  0  0  0  0
  161.4460  209.9220  153.2830 C   0  0  0  0  0  3  0  0  0  0  0  0
  161.2640  207.7700  152.2400 C   0  0  0  0  0  0  0  0  0  0  0  0
  161.1660  208.5470  153.3940 C   0  0  0  0  0  0  0  0  0  0  0  0
  161.0380  206.4540  152.1090 N   0  0  0  0  0  0  0  0  0  0  0  0
  161.6370  207.3490  150.0980 N   0  0  0  0  0  2  0  0  0  0  0  0
  161.8110  210.4780  152.0360 C   0  0  0  0  0  3  0  0  0  0  0  0
  161.2780  206.2350  150.7900 C   0  0  0  0  0  0  0  0  0  0  0  0
  161.2290  202.3960  146.0570 C   0  0  0  0  0  3  0  0  0  0  0  0
  160.9080  202.4870  148.8350 C   0  0  0  0  0  0  0  0  0  0  0  0
  160.8710  203.7260  150.8550 C   0  0  0  0  0  0  0  0  0  0  0  0
  161.3370  203.6180  146.7280 C   0  0  0  0  0  3  0  0  0  0  0  0
  161.1760  203.6660  148.1160 C   0  0  0  0  0  0  0  0  0  0  0  0
  161.1400  204.9140  150.1380 C   0  0  0  0  0  0  0  0  0  0  0  0
  160.9610  201.2230  146.7730 C   0  0  0  0  0  3  0  0  0  0  0  0
  160.7400  203.7230  152.2750 N   0  0  0  0  0  1  0  0  0  0  0  0
  161.2850  204.8420  148.7850 N   0  0  0  0  0  0  0  0  0  0  0  0
  160.8020  201.2660  148.1630 C   0  0  0  0  0  3  0  0  0  0  0  0
  160.7660  202.5480  150.1830 N   0  0  0  0  0  0  0  0  0  0  0  0
  160.6770  207.8360  154.9620 S   0  0  0  0  0  0  0  0  0  0  0  0
  159.7530  209.3210  155.4460 C   0  0  0  0  0  2  0  0  0  0  0  0
  160.1960  209.7510  156.8330 C   0  0  0  0  0  2  0  0  0  0  0  0
  159.7760  211.1200  157.0940 N   0  0  0  0  0  0  0  0  0  0  0  0
  159.7750  213.1130  155.7530 C   0  0  0  0  0  2  0  0  0  0  0  0
  158.3480  212.6970  156.0060 C   0  0  0  0  0  2  0  0  0  0  0  0
  160.6290  211.9820  156.2890 C   0  0  0  0  0  2  0  0  0  0  0  0
  158.4420  211.2860  156.5350 C   0  0  0  0  0  2  0  0  0  0  0  0
  162.2730  210.1900  149.6110 N   0  0  0  0  0  2  0  0  0  0  0  0
  161.8820  211.5200  149.1700 C   0  0  0  0  0  2  0  0  0  0  0  0
  162.8530  212.0260  148.3070 O   0  0  0  0  0  0  0  0  0  0  0  0
  162.1320  212.7330  147.3440 C   0  0  0  0  0  2  0  0  0  0  0  0
  160.6670  212.3540  147.4270 C   0  0  0  0  0  2  0  0  0  0  0  0
  159.8490  213.5390  147.2430 N   0  0  0  0  0  2  0  0  0  0  0  0
  158.4650  213.1040  147.3090 C   0  0  0  0  0  2  0  0  0  0  0  0
  157.8990  213.4370  148.6450 C   0  0  0  0  0  0  0  0  0  0  0  0
  156.6800  213.2290  148.8800 O   0  0  0  0  0  0  0  0  0  0  0  0
  158.7230  213.9490  149.6410 O   0  0  0  0  0  1  0  0  0  0  0  0
  1  2  2  0  0  0  0
  1  8  1  0  0  0  0
  2  4  1  0  0  0  0
  3  5  1  0  0  0  0
  4  5  2  0  0  0  0
  5 21  1  0  0  0  0
  6  4  1  0  0  0  0
  7  9  1  0  0  0  0
  7  2  1  0  0  0  0
  8  3  2  0  0  0  0
  9  6  2  0  0  0  0
 10 13  2  0  0  0  0
 10 16  1  0  0  0  0
 11 20  1  0  0  0  0
 12 17  1  0  0  0  0
 13 14  1  0  0  0  0
 14 18  1  0  0  0  0
 14 11  2  0  0  0  0
 15  9  1  0  0  0  0
 15 12  1  0  0  0  0
 16 19  2  0  0  0  0
 18 15  2  0  0  0  0
 19 11  1  0  0  0  0
 20 12  2  0  0  0  0
 21 22  1  0  0  0  0
 22 23  1  0  0  0  0
 23 24  1  0  0  0  0
 25 26  1  0  0  0  0
 25 27  1  0  0  0  0
 26 28  1  0  0  0  0
 27 24  1  0  0  0  0
 28 24  1  0  0  0  0
 29  1  1  0  0  0  0
 30 29  1  0  0  0  0
 31 30  1  0  0  0  0
 32 33  1  0  0  0  0
 32 31  1  0  0  0  0
 34 35  1  0  0  0  0
 34 33  1  0  0  0  0
 35 36  1  0  0  0  0
 36 37  2  0  0  0  0
 36 38  1  0  0  0  0
M  END
>  <MODEL>
3

>  <REMARK>
 VINA RESULT:      -7.2      1.701      2.346
  Name = 
  13 active torsions:
  status: ('A' for Active; 'I' for Inactive)
    1  A    between atoms: C_2  and  C_3
    2  A    between atoms: C_3  and  N_27
    3  A    between atoms: C_5  and  N_28
    4  A    between atoms: N_6  and  C_14
    5  A    between atoms: C_13  and  S_15
    6  A    between atoms: C_14  and  C_18
    7  A    between atoms: S_15  and  C_18
    8  A    between atoms: C_20  and  C_36
    9  A    between atoms: C_22  and  O_23
   10  A    between atoms: C_22  and  N_28
   11  A    between atoms: O_23  and  C_29
   12  A    between atoms: C_26  and  N_27
   13  A    between atoms: C_26  and  C_29
                            x       y       z     vdW  Elec       q    Type
                         _______ _______ _______ _____ _____    ______ ____

>  <TORSDO>
F 13

$$$$
=
 OpenBabel11052409383D

 38 42  0  0  0  0  0  0  0  0999 V2000
  161.1140  208.9670  152.7630 C   0  0  0  0  0  0  0  0  0  0  0  0
  161.2490  208.3000  151.5460 C   0  0  0  0  0  0  0  0  0  0  0  0
  161.6600  211.0410  151.5740 C   0  0  0  0  0  3  0  0  0  0  0  0
  161.5770  208.9530  150.3970 C   0  0  0  0  0  0  0  0  0  0  0  0
  161.7900  210.3320  150.3660 C   0  0  0  0  0  0  0  0  0  0  0  0
  161.6550  208.0830  149.3790 N   0  0  0  0  0  0  0  0  0  0  0  0
  161.1050  206.9890  151.3040 N   0  0  0  0  0  2  0  0  0  0  0  0
  161.3240  210.3630  152.7680 C   0  0  0  0  0  3  0  0  0  0  0  0
  161.3580  206.8970  149.9710 C   0  0  0  0  0  0  0  0  0  0  0  0
  160.7990  200.8450  149.5220 C   0  0  0  0  0  3  0  0  0  0  0  0
  161.2620  203.1430  147.9950 C   0  0  0  0  0  0  0  0  0  0  0  0
  161.5200  205.4940  147.8560 C   0  0  0  0  0  0  0  0  0  0  0  0
  160.8440  202.0950  150.1460 C   0  0  0  0  0  3  0  0  0  0  0  0
  161.0760  203.2450  149.3860 C   0  0  0  0  0  0  0  0  0  0  0  0
  161.3340  205.6030  149.2530 C   0  0  0  0  0  0  0  0  0  0  0  0
  160.9850  200.7440  148.1380 C   0  0  0  0  0  3  0  0  0  0  0  0
  161.7180  206.6450  147.0360 N   0  0  0  0  0  1  0  0  0  0  0  0
  161.1170  204.4670  149.9730 N   0  0  0  0  0  0  0  0  0  0  0  0
  161.2150  201.8920  147.3730 C   0  0  0  0  0  3  0  0  0  0  0  0
  161.4750  204.2690  147.2680 N   0  0  0  0  0  0  0  0  0  0  0  0
  162.2390  211.1750  148.8530 S   0  0  0  0  0  0  0  0  0  0  0  0
  161.1630  212.5890  149.2190 C   0  0  0  0  0  2  0  0  0  0  0  0
  160.7880  213.2780  147.9190 C   0  0  0  0  0  2  0  0  0  0  0  0
  159.4520  213.8480  148.0170 N   0  0  0  0  0  0  0  0  0  0  0  0
  157.2540  212.8840  147.9170 C   0  0  0  0  0  2  0  0  0  0  0  0
  157.5000  213.3890  149.3160 C   0  0  0  0  0  2  0  0  0  0  0  0
  158.5810  213.0170  147.1980 C   0  0  0  0  0  2  0  0  0  0  0  0
  158.9870  213.6470  149.3810 C   0  0  0  0  0  2  0  0  0  0  0  0
  160.7710  208.2490  153.9520 N   0  0  0  0  0  2  0  0  0  0  0  0
  161.1910  208.6800  155.2770 C   0  0  0  0  0  2  0  0  0  0  0  0
  160.0660  208.9720  156.0470 O   0  0  0  0  0  0  0  0  0  0  0  0
  160.2790  210.2750  156.4980 C   0  0  0  0  0  2  0  0  0  0  0  0
  158.9940  211.0690  156.3750 C   0  0  0  0  0  2  0  0  0  0  0  0
  158.6770  211.2640  154.9710 N   0  0  0  0  0  2  0  0  0  0  0  0
  158.8810  212.6740  154.6910 C   0  0  0  0  0  2  0  0  0  0  0  0
  158.5210  212.9600  153.2750 C   0  0  0  0  0  0  0  0  0  0  0  0
  158.3520  212.0110  152.4660 O   0  0  0  0  0  0  0  0  0  0  0  0
  158.3420  214.2740  152.8560 O   0  0  0  0  0  1  0  0  0  0  0  0
  1  8  1  0  0  0  0
  1 29  1  0  0  0  0
  2  1  2  0  0  0  0
  3  8  2  0  0  0  0
  4  2  1  0  0  0  0
  5  4  2  0  0  0  0
  5  3  1  0  0  0  0
  6  9  2  0  0  0  0
  6  4  1  0  0  0  0
  7  2  1  0  0  0  0
  9  7  1  0  0  0  0
 10 13  1  0  0  0  0
 11 14  1  0  0  0  0
 12 15  1  0  0  0  0
 14 18  1  0  0  0  0
 14 13  2  0  0  0  0
 15  9  1  0  0  0  0
 15 18  2  0  0  0  0
 16 10  2  0  0  0  0
 17 12  1  0  0  0  0
 19 11  2  0  0  0  0
 19 16  1  0  0  0  0
 20 12  2  0  0  0  0
 20 11  1  0  0  0  0
 21 22  1  0  0  0  0
 21  5  1  0  0  0  0
 23 24  1  0  0  0  0
 23 22  1  0  0  0  0
 24 28  1  0  0  0  0
 25 26  1  0  0  0  0
 26 28  1  0  0  0  0
 27 25  1  0  0  0  0
 27 24  1  0  0  0  0
 29 30  1  0  0  0  0
 30 31  1  0  0  0  0
 31 32  1  0  0  0  0
 33 32  1  0  0  0  0
 34 33  1  0  0  0  0
 35 34  1  0  0  0  0
 36 35  1  0  0  0  0
 37 36  2  0  0  0  0
 38 36  1  0  0  0  0
M  END
>  <MODEL>
4

>  <REMARK>
 VINA RESULT:      -7.2      3.217      6.375
  Name = 
  13 active torsions:
  status: ('A' for Active; 'I' for Inactive)
    1  A    between atoms: C_2  and  C_3
    2  A    between atoms: C_3  and  N_27
    3  A    between atoms: C_5  and  N_28
    4  A    between atoms: N_6  and  C_14
    5  A    between atoms: C_13  and  S_15
    6  A    between atoms: C_14  and  C_18
    7  A    between atoms: S_15  and  C_18
    8  A    between atoms: C_20  and  C_36
    9  A    between atoms: C_22  and  O_23
   10  A    between atoms: C_22  and  N_28
   11  A    between atoms: O_23  and  C_29
   12  A    between atoms: C_26  and  N_27
   13  A    between atoms: C_26  and  C_29
                            x       y       z     vdW  Elec       q    Type
                         _______ _______ _______ _____ _____    ______ ____

>  <TORSDO>
F 13

$$$$
=
 OpenBabel11052409383D

 38 42  0  0  0  0  0  0  0  0999 V2000
  162.0660  209.3530  150.0170 C   0  0  0  0  0  0  0  0  0  0  0  0
  161.5130  209.4630  151.2930 C   0  0  0  0  0  0  0  0  0  0  0  0
  161.9600  206.9180  150.2900 C   0  0  0  0  0  3  0  0  0  0  0  0
  161.2010  208.3700  152.0420 C   0  0  0  0  0  0  0  0  0  0  0  0
  161.4070  207.0710  151.5750 C   0  0  0  0  0  0  0  0  0  0  0  0
  160.6990  208.7510  153.2270 N   0  0  0  0  0  0  0  0  0  0  0  0
  161.2220  210.5820  151.9720 N   0  0  0  0  0  2  0  0  0  0  0  0
  162.2890  208.0530  149.5150 C   0  0  0  0  0  3  0  0  0  0  0  0
  160.7260  210.1070  153.1440 C   0  0  0  0  0  0  0  0  0  0  0  0
  156.7810  213.7280  156.0530 C   0  0  0  0  0  3  0  0  0  0  0  0
  159.3700  212.6830  156.2310 C   0  0  0  0  0  0  0  0  0  0  0  0
  161.1010  211.3320  155.3410 C   0  0  0  0  0  0  0  0  0  0  0  0
  157.2590  212.8830  155.0470 C   0  0  0  0  0  3  0  0  0  0  0  0
  158.5520  212.3600  155.1330 C   0  0  0  0  0  0  0  0  0  0  0  0
  160.2840  211.0040  154.2350 C   0  0  0  0  0  0  0  0  0  0  0  0
  157.5960  214.0500  157.1450 C   0  0  0  0  0  3  0  0  0  0  0  0
  162.4120  210.7890  155.4890 N   0  0  0  0  0  1  0  0  0  0  0  0
  159.0300  211.5330  154.1700 N   0  0  0  0  0  0  0  0  0  0  0  0
  158.8900  213.5270  157.2370 C   0  0  0  0  0  3  0  0  0  0  0  0
  160.6190  212.1590  156.3070 N   0  0  0  0  0  0  0  0  0  0  0  0
  161.0090  205.6430  152.5770 S   0  0  0  0  0  0  0  0  0  0  0  0
  161.8670  204.5060  151.4520 C   0  0  0  0  0  2  0  0  0  0  0  0
  161.2430  203.1270  151.5680 C   0  0  0  0  0  2  0  0  0  0  0  0
  160.5170  202.7980  150.3500 N   0  0  0  0  0  0  0  0  0  0  0  0
  161.1690  202.6780  148.0410 C   0  0  0  0  0  2  0  0  0  0  0  0
  160.8480  201.2880  148.5280 C   0  0  0  0  0  2  0  0  0  0  0  0
  161.1370  203.5590  149.2740 C   0  0  0  0  0  2  0  0  0  0  0  0
  160.7960  201.4050  150.0340 C   0  0  0  0  0  2  0  0  0  0  0  0
  162.3850  210.5230  149.2590 N   0  0  0  0  0  2  0  0  0  0  0  0
  161.4830  211.0830  148.2640 C   0  0  0  0  0  2  0  0  0  0  0  0
  162.0620  212.2210  147.7030 O   0  0  0  0  0  0  0  0  0  0  0  0
  160.9830  212.9590  147.2160 C   0  0  0  0  0  2  0  0  0  0  0  0
  161.4810  213.9890  146.2230 C   0  0  0  0  0  2  0  0  0  0  0  0
  161.9880  213.3160  145.0400 N   0  0  0  0  0  2  0  0  0  0  0  0
  160.8330  212.8080  144.3230 C   0  0  0  0  0  2  0  0  0  0  0  0
  161.2650  212.2470  143.0130 C   0  0  0  0  0  0  0  0  0  0  0  0
  162.4480  212.4100  142.6180 O   0  0  0  0  0  1  0  0  0  0  0  0
  160.3670  211.5180  142.2410 O   0  0  0  0  0  0  0  0  0  0  0  0
  1  2  1  0  0  0  0
  2  7  1  0  0  0  0
  2  4  2  0  0  0  0
  3  5  2  0  0  0  0
  4  6  1  0  0  0  0
  5  4  1  0  0  0  0
  5 21  1  0  0  0  0
  7  9  1  0  0  0  0
  8  1  2  0  0  0  0
  8  3  1  0  0  0  0
  9  6  2  0  0  0  0
  9 15  1  0  0  0  0
 10 16  1  0  0  0  0
 11 20  1  0  0  0  0
 11 19  1  0  0  0  0
 12 17  1  0  0  0  0
 12 20  2  0  0  0  0
 13 14  1  0  0  0  0
 13 10  2  0  0  0  0
 14 11  2  0  0  0  0
 15 12  1  0  0  0  0
 16 19  2  0  0  0  0
 18 15  2  0  0  0  0
 18 14  1  0  0  0  0
 22 23  1  0  0  0  0
 22 21  1  0  0  0  0
 24 23  1  0  0  0  0
 25 26  1  0  0  0  0
 25 27  1  0  0  0  0
 26 28  1  0  0  0  0
 27 24  1  0  0  0  0
 28 24  1  0  0  0  0
 29  1  1  0  0  0  0
 30 29  1  0  0  0  0
 31 30  1  0  0  0  0
 32 31  1  0  0  0  0
 33 32  1  0  0  0  0
 34 33  1  0  0  0  0
 35 34  1  0  0  0  0
 36 35  1  0  0  0  0
 37 36  1  0  0  0  0
 38 36  2  0  0  0  0
M  END
>  <MODEL>
5

>  <REMARK>
 VINA RESULT:      -6.9      1.640      8.149
  Name = 
  13 active torsions:
  status: ('A' for Active; 'I' for Inactive)
    1  A    between atoms: C_2  and  C_3
    2  A    between atoms: C_3  and  N_27
    3  A    between atoms: C_5  and  N_28
    4  A    between atoms: N_6  and  C_14
    5  A    between atoms: C_13  and  S_15
    6  A    between atoms: C_14  and  C_18
    7  A    between atoms: S_15  and  C_18
    8  A    between atoms: C_20  and  C_36
    9  A    between atoms: C_22  and  O_23
   10  A    between atoms: C_22  and  N_28
   11  A    between atoms: O_23  and  C_29
   12  A    between atoms: C_26  and  N_27
   13  A    between atoms: C_26  and  C_29
                            x       y       z     vdW  Elec       q    Type
                         _______ _______ _______ _____ _____    ______ ____

>  <TORSDO>
F 13

$$$$
=
 OpenBabel11052409383D

 38 42  0  0  0  0  0  0  0  0999 V2000
  161.3370  207.5000  150.4970 C   0  0  0  0  0  0  0  0  0  0  0  0
  161.1760  208.7150  151.1630 C   0  0  0  0  0  0  0  0  0  0  0  0
  162.3300  208.7630  148.6440 C   0  0  0  0  0  3  0  0  0  0  0  0
  161.5610  209.8990  150.6120 C   0  0  0  0  0  0  0  0  0  0  0  0
  162.1480  209.9680  149.3480 C   0  0  0  0  0  0  0  0  0  0  0  0
  161.2840  210.9090  151.4500 N   0  0  0  0  0  0  0  0  0  0  0  0
  160.6410  208.9250  152.3750 N   0  0  0  0  0  2  0  0  0  0  0  0
  161.9260  207.5350  149.2140 C   0  0  0  0  0  3  0  0  0  0  0  0
  160.7270  210.2750  152.5150 C   0  0  0  0  0  0  0  0  0  0  0  0
  156.5610  213.2110  155.8550 C   0  0  0  0  0  3  0  0  0  0  0  0
  159.2000  212.2870  155.9240 C   0  0  0  0  0  0  0  0  0  0  0  0
  161.0120  211.1770  154.8750 C   0  0  0  0  0  0  0  0  0  0  0  0
  157.0940  212.5520  154.7440 C   0  0  0  0  0  3  0  0  0  0  0  0
  158.4130  212.0900  154.7750 C   0  0  0  0  0  0  0  0  0  0  0  0
  160.2260  210.9760  153.7180 C   0  0  0  0  0  0  0  0  0  0  0  0
  157.3450  213.4080  156.9980 C   0  0  0  0  0  3  0  0  0  0  0  0
  162.3480  210.6860  154.9660 N   0  0  0  0  0  1  0  0  0  0  0  0
  158.9450  211.4420  153.7090 N   0  0  0  0  0  0  0  0  0  0  0  0
  158.6650  212.9450  157.0350 C   0  0  0  0  0  3  0  0  0  0  0  0
  160.4750  211.8230  155.9440 N   0  0  0  0  0  0  0  0  0  0  0  0
  162.6320  211.5330  148.6260 S   0  0  0  0  0  0  0  0  0  0  0  0
  161.0110  211.7740  147.8470 C   0  0  0  0  0  2  0  0  0  0  0  0
  160.4770  213.1450  148.2240 C   0  0  0  0  0  2  0  0  0  0  0  0
  159.4870  213.5850  147.2520 N   0  0  0  0  0  0  0  0  0  0  0  0
  158.5880  212.5770  145.2650 C   0  0  0  0  0  2  0  0  0  0  0  0
  157.5000  212.6520  146.3070 C   0  0  0  0  0  2  0  0  0  0  0  0
  159.8610  212.9920  145.9750 C   0  0  0  0  0  2  0  0  0  0  0  0
  158.2200  212.9590  147.6000 C   0  0  0  0  0  2  0  0  0  0  0  0
  160.9180  206.2750  151.1040 N   0  0  0  0  0  2  0  0  0  0  0  0
  161.7980  205.4740  151.9410 C   0  0  0  0  0  2  0  0  0  0  0  0
  161.9620  204.2140  151.3670 O   0  0  0  0  0  0  0  0  0  0  0  0
  160.6960  203.8790  150.8860 C   0  0  0  0  0  2  0  0  0  0  0  0
  160.8330  203.1170  149.5840 C   0  0  0  0  0  2  0  0  0  0  0  0
  161.2090  204.0360  148.5240 N   0  0  0  0  0  2  0  0  0  0  0  0
  161.5460  203.2220  147.3690 C   0  0  0  0  0  2  0  0  0  0  0  0
  161.9300  204.1030  146.2310 C   0  0  0  0  0  0  0  0  0  0  0  0
  161.3350  203.9990  145.1280 O   0  0  0  0  0  0  0  0  0  0  0  0
  162.9260  205.0590  146.3990 O   0  0  0  0  0  1  0  0  0  0  0  0
  1 29  1  0  0  0  0
  1  2  1  0  0  0  0
  2  7  1  0  0  0  0
  3  8  1  0  0  0  0
  3  5  2  0  0  0  0
  4  2  2  0  0  0  0
  4  6  1  0  0  0  0
  5  4  1  0  0  0  0
  6  9  2  0  0  0  0
  7  9  1  0  0  0  0
  8  1  2  0  0  0  0
  9 15  1  0  0  0  0
 10 16  1  0  0  0  0
 11 20  1  0  0  0  0
 11 19  1  0  0  0  0
 12 17  1  0  0  0  0
 12 20  2  0  0  0  0
 13 14  1  0  0  0  0
 13 10  2  0  0  0  0
 14 11  2  0  0  0  0
 15 12  1  0  0  0  0
 16 19  2  0  0  0  0
 18 15  2  0  0  0  0
 18 14  1  0  0  0  0
 21  5  1  0  0  0  0
 22 23  1  0  0  0  0
 22 21  1  0  0  0  0
 24 28  1  0  0  0  0
 24 23  1  0  0  0  0
 25 27  1  0  0  0  0
 25 26  1  0  0  0  0
 26 28  1  0  0  0  0
 27 24  1  0  0  0  0
 29 30  1  0  0  0  0
 31 30  1  0  0  0  0
 32 31  1  0  0  0  0
 33 32  1  0  0  0  0
 34 33  1  0  0  0  0
 35 34  1  0  0  0  0
 36 38  1  0  0  0  0
 36 35  1  0  0  0  0
 37 36  2  0  0  0  0
M  END
>  <MODEL>
6

>  <REMARK>
 VINA RESULT:      -6.8      3.279      9.039
  Name = 
  13 active torsions:
  status: ('A' for Active; 'I' for Inactive)
    1  A    between atoms: C_2  and  C_3
    2  A    between atoms: C_3  and  N_27
    3  A    between atoms: C_5  and  N_28
    4  A    between atoms: N_6  and  C_14
    5  A    between atoms: C_13  and  S_15
    6  A    between atoms: C_14  and  C_18
    7  A    between atoms: S_15  and  C_18
    8  A    between atoms: C_20  and  C_36
    9  A    between atoms: C_22  and  O_23
   10  A    between atoms: C_22  and  N_28
   11  A    between atoms: O_23  and  C_29
   12  A    between atoms: C_26  and  N_27
   13  A    between atoms: C_26  and  C_29
                            x       y       z     vdW  Elec       q    Type
                         _______ _______ _______ _____ _____    ______ ____

>  <TORSDO>
F 13

$$$$
=
 OpenBabel11052409383D

 38 42  0  0  0  0  0  0  0  0999 V2000
  162.0250  208.5270  151.2680 C   0  0  0  0  0  0  0  0  0  0  0  0
  161.7370  209.7050  150.5790 C   0  0  0  0  0  0  0  0  0  0  0  0
  161.0920  209.5880  153.2720 C   0  0  0  0  0  3  0  0  0  0  0  0
  161.1630  210.7770  151.1910 C   0  0  0  0  0  0  0  0  0  0  0  0
  160.8200  210.7600  152.5430 C   0  0  0  0  0  0  0  0  0  0  0  0
  161.0070  211.7790  150.3120 N   0  0  0  0  0  0  0  0  0  0  0  0
  161.9670  209.9810  149.2880 N   0  0  0  0  0  2  0  0  0  0  0  0
  161.6930  208.4760  152.6400 C   0  0  0  0  0  3  0  0  0  0  0  0
  161.5060  211.2540  149.1630 C   0  0  0  0  0  0  0  0  0  0  0  0
  159.2870  213.4520  143.9300 C   0  0  0  0  0  3  0  0  0  0  0  0
  161.6120  213.3660  145.4840 C   0  0  0  0  0  0  0  0  0  0  0  0
  162.7450  212.6550  147.4400 C   0  0  0  0  0  0  0  0  0  0  0  0
  159.2850  212.7570  145.1430 C   0  0  0  0  0  3  0  0  0  0  0  0
  160.4460  212.7120  145.9210 C   0  0  0  0  0  0  0  0  0  0  0  0
  161.5770  211.9950  147.8840 C   0  0  0  0  0  0  0  0  0  0  0  0
  160.4490  214.1020  143.4950 C   0  0  0  0  0  3  0  0  0  0  0  0
  163.9380  212.6690  148.2210 N   0  0  0  0  0  1  0  0  0  0  0  0
  160.4600  212.0480  147.1040 N   0  0  0  0  0  0  0  0  0  0  0  0
  161.6120  214.0610  144.2710 C   0  0  0  0  0  3  0  0  0  0  0  0
  162.7270  213.3220  146.2550 N   0  0  0  0  0  0  0  0  0  0  0  0
  160.0830  212.1840  153.3390 S   0  0  0  0  0  0  0  0  0  0  0  0
  159.7590  211.2680  154.8710 C   0  0  0  0  0  2  0  0  0  0  0  0
  160.5210  211.9200  156.0110 C   0  0  0  0  0  2  0  0  0  0  0  0
  160.9330  210.9160  156.9810 N   0  0  0  0  0  0  0  0  0  0  0  0
  160.8960  208.5140  156.9620 C   0  0  0  0  0  2  0  0  0  0  0  0
  162.3310  208.9780  156.9320 C   0  0  0  0  0  2  0  0  0  0  0  0
  160.0600  209.7660  156.7920 C   0  0  0  0  0  2  0  0  0  0  0  0
  162.2570  210.4490  156.5950 C   0  0  0  0  0  2  0  0  0  0  0  0
  162.6310  207.4200  150.5960 N   0  0  0  0  0  2  0  0  0  0  0  0
  161.8550  206.3830  149.9330 C   0  0  0  0  0  2  0  0  0  0  0  0
  161.9940  206.5110  148.5520 O   0  0  0  0  0  0  0  0  0  0  0  0
  161.1320  205.5510  148.0220 C   0  0  0  0  0  2  0  0  0  0  0  0
  161.9080  204.6190  147.1130 C   0  0  0  0  0  2  0  0  0  0  0  0
  161.3680  203.2760  147.2220 N   0  0  0  0  0  2  0  0  0  0  0  0
  160.9790  203.0950  148.6090 C   0  0  0  0  0  2  0  0  0  0  0  0
  160.6400  201.6650  148.8520 C   0  0  0  0  0  0  0  0  0  0  0  0
  161.4870  200.7680  148.6050 O   0  0  0  0  0  0  0  0  0  0  0  0
  159.3980  201.3260  149.3780 O   0  0  0  0  0  1  0  0  0  0  0  0
  1  8  1  0  0  0  0
  2  4  1  0  0  0  0
  2  1  2  0  0  0  0
  4  5  2  0  0  0  0
  5  3  1  0  0  0  0
  5 21  1  0  0  0  0
  6  4  1  0  0  0  0
  7  2  1  0  0  0  0
  8  3  2  0  0  0  0
  9  7  1  0  0  0  0
  9  6  2  0  0  0  0
 10 13  1  0  0  0  0
 11 14  1  0  0  0  0
 11 20  1  0  0  0  0
 12 15  1  0  0  0  0
 12 17  1  0  0  0  0
 13 14  2  0  0  0  0
 14 18  1  0  0  0  0
 15  9  1  0  0  0  0
 16 10  2  0  0  0  0
 16 19  1  0  0  0  0
 18 15  2  0  0  0  0
 19 11  2  0  0  0  0
 20 12  2  0  0  0  0
 21 22  1  0  0  0  0
 22 23  1  0  0  0  0
 23 24  1  0  0  0  0
 26 25  1  0  0  0  0
 27 25  1  0  0  0  0
 27 24  1  0  0  0  0
 28 26  1  0  0  0  0
 28 24  1  0  0  0  0
 29  1  1  0  0  0  0
 30 29  1  0  0  0  0
 31 30  1  0  0  0  0
 32 31  1  0  0  0  0
 33 34  1  0  0  0  0
 33 32  1  0  0  0  0
 34 35  1  0  0  0  0
 35 36  1  0  0  0  0
 36 38  1  0  0  0  0
 37 36  2  0  0  0  0
M  END
>  <MODEL>
7

>  <REMARK>
 VINA RESULT:      -6.2      3.160      7.866
  Name = 
  13 active torsions:
  status: ('A' for Active; 'I' for Inactive)
    1  A    between atoms: C_2  and  C_3
    2  A    between atoms: C_3  and  N_27
    3  A    between atoms: C_5  and  N_28
    4  A    between atoms: N_6  and  C_14
    5  A    between atoms: C_13  and  S_15
    6  A    between atoms: C_14  and  C_18
    7  A    between atoms: S_15  and  C_18
    8  A    between atoms: C_20  and  C_36
    9  A    between atoms: C_22  and  O_23
   10  A    between atoms: C_22  and  N_28
   11  A    between atoms: O_23  and  C_29
   12  A    between atoms: C_26  and  N_27
   13  A    between atoms: C_26  and  C_29
                            x       y       z     vdW  Elec       q    Type
                         _______ _______ _______ _____ _____    ______ ____

>  <TORSDO>
F 13

$$$$
=
 OpenBabel11052409383D

 38 42  0  0  0  0  0  0  0  0999 V2000
  162.0570  208.6200  149.1600 C   0  0  0  0  0  0  0  0  0  0  0  0
  161.5890  208.5440  150.4720 C   0  0  0  0  0  0  0  0  0  0  0  0
  161.5920  206.2210  148.9600 C   0  0  0  0  0  3  0  0  0  0  0  0
  161.1480  207.3760  151.0150 C   0  0  0  0  0  0  0  0  0  0  0  0
  161.1300  206.1840  150.2890 C   0  0  0  0  0  0  0  0  0  0  0  0
  160.7680  207.5740  152.2860 N   0  0  0  0  0  0  0  0  0  0  0  0
  161.5060  209.5310  151.3760 N   0  0  0  0  0  2  0  0  0  0  0  0
  162.0540  207.4320  148.3980 C   0  0  0  0  0  3  0  0  0  0  0  0
  160.9980  208.9000  152.4680 C   0  0  0  0  0  0  0  0  0  0  0  0
  159.1330  213.5660  155.9160 C   0  0  0  0  0  3  0  0  0  0  0  0
  160.2480  211.0050  156.0750 C   0  0  0  0  0  0  0  0  0  0  0  0
  161.0420  209.0450  155.0070 C   0  0  0  0  0  0  0  0  0  0  0  0
  159.3990  212.8510  154.7440 C   0  0  0  0  0  3  0  0  0  0  0  0
  159.9570  211.5720  154.8210 C   0  0  0  0  0  0  0  0  0  0  0  0
  160.7520  209.6090  153.7440 C   0  0  0  0  0  0  0  0  0  0  0  0
  159.4240  213.0020  157.1640 C   0  0  0  0  0  3  0  0  0  0  0  0
  161.5730  207.7270  155.1330 N   0  0  0  0  0  1  0  0  0  0  0  0
  160.2160  210.8610  153.6950 N   0  0  0  0  0  0  0  0  0  0  0  0
  159.9800  211.7210  157.2450 C   0  0  0  0  0  3  0  0  0  0  0  0
  160.7790  209.7580  156.1340 N   0  0  0  0  0  0  0  0  0  0  0  0
  160.5650  204.6520  151.0210 S   0  0  0  0  0  0  0  0  0  0  0  0
  161.6210  203.6460  149.9410 C   0  0  0  0  0  2  0  0  0  0  0  0
  160.7450  202.7670  149.0670 C   0  0  0  0  0  2  0  0  0  0  0  0
  161.4200  202.4720  147.8120 N   0  0  0  0  0  0  0  0  0  0  0  0
  160.6250  201.7710  145.6560 C   0  0  0  0  0  2  0  0  0  0  0  0
  161.1690  203.1730  145.5410 C   0  0  0  0  0  2  0  0  0  0  0  0
  160.6250  201.4550  147.1370 C   0  0  0  0  0  2  0  0  0  0  0  0
  161.3130  203.6520  146.9660 C   0  0  0  0  0  2  0  0  0  0  0  0
  162.5160  209.8630  148.6220 N   0  0  0  0  0  2  0  0  0  0  0  0
  161.6280  210.9910  148.3850 C   0  0  0  0  0  2  0  0  0  0  0  0
  162.3800  212.0990  147.9950 O   0  0  0  0  0  0  0  0  0  0  0  0
  161.7580  213.1810  148.6170 C   0  0  0  0  0  2  0  0  0  0  0  0
  160.5190  213.5720  147.8380 C   0  0  0  0  0  2  0  0  0  0  0  0
  159.6880  214.4400  148.6530 N   0  0  0  0  0  2  0  0  0  0  0  0
  158.3150  214.2080  148.2420 C   0  0  0  0  0  2  0  0  0  0  0  0
  157.5200  213.7190  149.4020 C   0  0  0  0  0  0  0  0  0  0  0  0
  158.0820  213.0650  150.3180 O   0  0  0  0  0  1  0  0  0  0  0  0
  156.1640  214.0130  149.4870 O   0  0  0  0  0  0  0  0  0  0  0  0
  1  2  1  0  0  0  0
  2  4  2  0  0  0  0
  2  7  1  0  0  0  0
  3  5  2  0  0  0  0
  4  6  1  0  0  0  0
  5  4  1  0  0  0  0
  5 21  1  0  0  0  0
  6  9  2  0  0  0  0
  7  9  1  0  0  0  0
  8  3  1  0  0  0  0
  8  1  2  0  0  0  0
  9 15  1  0  0  0  0
 10 16  1  0  0  0  0
 11 20  1  0  0  0  0
 11 19  1  0  0  0  0
 12 17  1  0  0  0  0
 12 20  2  0  0  0  0
 13 14  1  0  0  0  0
 13 10  2  0  0  0  0
 14 11  2  0  0  0  0
 15 12  1  0  0  0  0
 16 19  2  0  0  0  0
 18 15  2  0  0  0  0
 18 14  1  0  0  0  0
 22 21  1  0  0  0  0
 23 22  1  0  0  0  0
 24 23  1  0  0  0  0
 25 27  1  0  0  0  0
 26 25  1  0  0  0  0
 26 28  1  0  0  0  0
 27 24  1  0  0  0  0
 28 24  1  0  0  0  0
 29  1  1  0  0  0  0
 30 29  1  0  0  0  0
 31 30  1  0  0  0  0
 31 32  1  0  0  0  0
 33 32  1  0  0  0  0
 33 34  1  0  0  0  0
 35 34  1  0  0  0  0
 35 36  1  0  0  0  0
 36 38  2  0  0  0  0
 36 37  1  0  0  0  0
M  END
>  <MODEL>
8

>  <REMARK>
 VINA RESULT:      -6.2      2.452      8.467
  Name = 
  13 active torsions:
  status: ('A' for Active; 'I' for Inactive)
    1  A    between atoms: C_2  and  C_3
    2  A    between atoms: C_3  and  N_27
    3  A    between atoms: C_5  and  N_28
    4  A    between atoms: N_6  and  C_14
    5  A    between atoms: C_13  and  S_15
    6  A    between atoms: C_14  and  C_18
    7  A    between atoms: S_15  and  C_18
    8  A    between atoms: C_20  and  C_36
    9  A    between atoms: C_22  and  O_23
   10  A    between atoms: C_22  and  N_28
   11  A    between atoms: O_23  and  C_29
   12  A    between atoms: C_26  and  N_27
   13  A    between atoms: C_26  and  C_29
                            x       y       z     vdW  Elec       q    Type
                         _______ _______ _______ _____ _____    ______ ____

>  <TORSDO>
F 13

$$$$
=
 OpenBabel11052409383D

 38 42  0  0  0  0  0  0  0  0999 V2000
  160.5670  208.5870  154.8840 C   0  0  0  0  0  0  0  0  0  0  0  0
  160.8220  209.0370  153.5880 C   0  0  0  0  0  0  0  0  0  0  0  0
  161.1930  206.3420  154.1190 C   0  0  0  0  0  3  0  0  0  0  0  0
  161.2350  208.1980  152.6000 C   0  0  0  0  0  0  0  0  0  0  0  0
  161.4370  206.8350  152.8240 C   0  0  0  0  0  0  0  0  0  0  0  0
  161.3940  208.8780  151.4540 N   0  0  0  0  0  0  0  0  0  0  0  0
  160.7030  210.2850  153.1120 N   0  0  0  0  0  2  0  0  0  0  0  0
  160.7600  207.2120  155.1440 C   0  0  0  0  0  3  0  0  0  0  0  0
  161.0630  210.1470  151.8080 C   0  0  0  0  0  0  0  0  0  0  0  0
  162.8910  213.2440  146.8880 C   0  0  0  0  0  3  0  0  0  0  0  0
  161.1190  213.3700  149.0480 C   0  0  0  0  0  0  0  0  0  0  0  0
  160.2050  212.4050  151.0100 C   0  0  0  0  0  0  0  0  0  0  0  0
  162.8560  212.2010  147.8180 C   0  0  0  0  0  3  0  0  0  0  0  0
  161.9720  212.2620  148.8990 C   0  0  0  0  0  0  0  0  0  0  0  0
  161.0610  211.2880  150.8660 C   0  0  0  0  0  0  0  0  0  0  0  0
  162.0430  214.3470  147.0380 C   0  0  0  0  0  3  0  0  0  0  0  0
  159.2590  212.4890  152.0740 N   0  0  0  0  0  1  0  0  0  0  0  0
  161.9190  211.2560  149.8080 N   0  0  0  0  0  0  0  0  0  0  0  0
  161.1540  214.4110  148.1160 C   0  0  0  0  0  3  0  0  0  0  0  0
  160.2580  213.4100  150.0960 N   0  0  0  0  0  0  0  0  0  0  0  0
  161.9620  205.7390  151.5100 S   0  0  0  0  0  0  0  0  0  0  0  0
  160.8540  204.4110  152.0580 C   0  0  0  0  0  2  0  0  0  0  0  0
  161.3030  203.1010  151.4360 C   0  0  0  0  0  2  0  0  0  0  0  0
  160.5640  202.8450  150.2090 N   0  0  0  0  0  0  0  0  0  0  0  0
  161.2100  202.7750  147.8960 C   0  0  0  0  0  2  0  0  0  0  0  0
  160.8300  201.3840  148.3360 C   0  0  0  0  0  2  0  0  0  0  0  0
  161.2150  203.6140  149.1580 C   0  0  0  0  0  2  0  0  0  0  0  0
  160.7830  201.4520  149.8450 C   0  0  0  0  0  2  0  0  0  0  0  0
  160.1320  209.4950  155.8980 N   0  0  0  0  0  2  0  0  0  0  0  0
  160.9420  210.6160  156.3490 C   0  0  0  0  0  2  0  0  0  0  0  0
  160.1210  211.7160  156.5880 O   0  0  0  0  0  0  0  0  0  0  0  0
  159.0020  211.1860  157.2320 C   0  0  0  0  0  2  0  0  0  0  0  0
  157.8310  212.1350  157.0780 C   0  0  0  0  0  2  0  0  0  0  0  0
  156.8050  211.5100  156.2620 N   0  0  0  0  0  2  0  0  0  0  0  0
  157.0480  211.9310  154.8940 C   0  0  0  0  0  2  0  0  0  0  0  0
  156.6100  213.3440  154.7200 C   0  0  0  0  0  0  0  0  0  0  0  0
  157.4400  214.2190  154.3630 O   0  0  0  0  0  0  0  0  0  0  0  0
  155.2780  213.6870  154.9230 O   0  0  0  0  0  1  0  0  0  0  0  0
  1  8  1  0  0  0  0
  1 29  1  0  0  0  0
  2  1  2  0  0  0  0
  3  8  2  0  0  0  0
  4  5  2  0  0  0  0
  4  2  1  0  0  0  0
  5  3  1  0  0  0  0
  6  9  2  0  0  0  0
  6  4  1  0  0  0  0
  7  2  1  0  0  0  0
  9  7  1  0  0  0  0
 10 16  2  0  0  0  0
 10 13  1  0  0  0  0
 11 20  1  0  0  0  0
 12 17  1  0  0  0  0
 13 14  2  0  0  0  0
 14 11  1  0  0  0  0
 14 18  1  0  0  0  0
 15 12  1  0  0  0  0
 15  9  1  0  0  0  0
 16 19  1  0  0  0  0
 18 15  2  0  0  0  0
 19 11  2  0  0  0  0
 20 12  2  0  0  0  0
 21 22  1  0  0  0  0
 21  5  1  0  0  0  0
 23 22  1  0  0  0  0
 24 23  1  0  0  0  0
 25 26  1  0  0  0  0
 25 27  1  0  0  0  0
 26 28  1  0  0  0  0
 27 24  1  0  0  0  0
 28 24  1  0  0  0  0
 29 30  1  0  0  0  0
 30 31  1  0  0  0  0
 31 32  1  0  0  0  0
 33 32  1  0  0  0  0
 34 33  1  0  0  0  0
 35 34  1  0  0  0  0
 36 35  1  0  0  0  0
 36 38  1  0  0  0  0
 37 36  2  0  0  0  0
M  END
>  <MODEL>
9

>  <REMARK>
 VINA RESULT:      -6.1      3.648      9.149
  Name = 
  13 active torsions:
  status: ('A' for Active; 'I' for Inactive)
    1  A    between atoms: C_2  and  C_3
    2  A    between atoms: C_3  and  N_27
    3  A    between atoms: C_5  and  N_28
    4  A    between atoms: N_6  and  C_14
    5  A    between atoms: C_13  and  S_15
    6  A    between atoms: C_14  and  C_18
    7  A    between atoms: S_15  and  C_18
    8  A    between atoms: C_20  and  C_36
    9  A    between atoms: C_22  and  O_23
   10  A    between atoms: C_22  and  N_28
   11  A    between atoms: O_23  and  C_29
   12  A    between atoms: C_26  and  N_27
   13  A    between atoms: C_26  and  C_29
                            x       y       z     vdW  Elec       q    Type
                         _______ _______ _______ _____ _____    ______ ____

>  <TORSDO>
F 13

$$$$
