=
 OpenBabel11042420533D

 52 54  0  0  1  0  0  0  0  0999 V2000
  161.5500  209.2410  147.3670 F   0  0  0  0  0  0  0  0  0  0  0  0
  162.0250  208.3920  150.9000 C   0  0  0  0  0  0  0  0  0  0  0  0
  161.9120  209.6760  151.4870 C   0  0  0  0  0  0  0  0  0  0  0  0
  161.8930  208.2730  149.5100 C   0  0  0  0  0  3  0  0  0  0  0  0
  161.6790  210.7910  150.6770 C   0  0  0  0  0  3  0  0  0  0  0  0
  161.6650  209.3940  148.7090 C   0  0  0  0  0  0  0  0  0  0  0  0
  161.5590  210.6640  149.2870 C   0  0  0  0  0  0  0  0  0  0  0  0
  161.3240  211.8020  148.4440 N   0  0  0  0  0  2  0  0  0  0  0  0
  163.5370  212.2670  147.8200 O   0  0  0  0  0  0  0  0  0  0  0  0
  161.8960  213.6390  146.9030 N   0  0  0  0  0  2  0  0  0  0  0  0
  162.3140  212.5550  147.7310 C   0  0  0  0  0  0  0  0  0  0  0  0
  162.8490  214.3990  146.1090 C   0  0  0  0  0  2  0  0  0  0  0  0
  159.1020  212.8420  143.0330 N   0  0  0  0  0  0  0  0  0  0  0  0
  161.6160  212.9550  142.7230 C   0  0  2  0  0  3  0  0  0  0  0  0
  160.2160  211.3180  141.6700 O   0  0  0  0  0  0  0  0  0  0  0  0
  160.3700  214.2230  144.5250 C   0  0  0  0  0  2  0  0  0  0  0  0
  163.9360  213.7360  144.1070 O   0  0  0  0  0  0  0  0  0  0  0  0
  157.9420  214.4440  144.6020 C   0  0  0  0  0  1  0  0  0  0  0  0
  162.8370  213.9210  144.6940 C   0  0  0  0  0  0  0  0  0  0  0  0
  159.1860  213.8510  144.0430 C   0  0  0  0  0  0  0  0  0  0  0  0
  160.2890  212.3080  142.4450 C   0  0  0  0  0  0  0  0  0  0  0  0
  161.5950  213.6750  144.0040 N   0  0  0  0  0  0  0  0  0  0  0  0
  162.9110  213.2340  140.6080 C   0  0  0  0  0  1  0  0  0  0  0  0
  161.9800  213.9130  141.5960 C   0  0  0  0  0  2  0  0  0  0  0  0
  163.4000  206.5760  151.6030 O   0  0  0  0  0  0  0  0  0  0  0  0
  162.2930  207.1690  151.6930 C   0  0  0  0  0  0  0  0  0  0  0  0
  161.0530  206.4970  152.8040 S   0  0  0  0  0  0  0  0  0  0  0  0
  161.6830  204.8000  152.6340 C   0  0  0  0  0  2  0  0  0  0  0  0
  160.3190  202.7870  152.1880 C   0  0  0  0  0  2  0  0  0  0  0  0
  161.7290  203.6780  150.5110 O   0  0  0  0  0  0  0  0  0  0  0  0
  160.3300  201.8120  151.0550 C   0  0  0  0  0  2  0  0  0  0  0  0
  161.2490  202.4450  150.0290 C   0  0  1  0  0  3  0  0  0  0  0  0
  160.8960  204.0400  151.5840 C   0  0  2  0  0  3  0  0  0  0  0  0
  160.5460  202.6280  148.6880 C   0  0  0  0  0  2  0  0  0  0  0  0
  161.4040  203.2360  147.7490 O   0  0  0  0  0  0  0  0  0  0  0  0
  161.4160  202.4720  146.5600 C   0  0  2  0  0  3  0  0  0  0  0  0
  160.9760  203.2470  145.3980 N   0  0  0  0  0  2  0  0  0  0  0  0
  161.9940  204.2480  145.1180 C   0  0  0  0  0  2  0  0  0  0  0  0
  162.3140  206.2410  146.5500 C   0  0  0  0  0  1  0  0  0  0  0  0
  161.4610  205.6300  145.4540 C   0  0  0  0  0  2  0  0  0  0  0  0
  160.6250  201.1640  146.6970 C   0  0  0  0  0  2  0  0  0  0  0  0
  161.5590  199.9650  146.7450 C   0  0  0  0  0  2  0  0  0  0  0  0
  161.1690  198.9440  145.6990 C   0  0  0  0  0  1  0  0  0  0  0  0
  161.9390  209.8930  152.9690 C   0  0  0  0  0  2  0  0  0  0  0  0
  161.0040  211.0230  153.3770 C   0  0  0  0  0  2  0  0  0  0  0  0
  159.6910  210.4720  153.9010 C   0  0  0  0  0  2  0  0  0  0  0  0
  158.5370  211.3190  153.4010 C   0  0  0  0  0  2  0  0  0  0  0  0
  158.4510  212.5490  154.1700 N   0  0  0  0  0  2  0  0  0  0  0  0
  155.9400  213.6430  153.5090 O   0  0  0  0  0  0  0  0  0  0  0  0
  156.7800  212.7360  154.6640 P   0  0  0  0  0  0  0  0  0  0  0  0
  156.7280  213.4470  155.9940 O   0  0  0  0  0  1  0  0  0  0  0  0
  156.0610  211.2120  154.8200 O   0  0  0  0  0  1  0  0  0  0  0  0
  1  6  1  0  0  0  0
  2  3  1  0  0  0  0
  2 26  1  0  0  0  0
  3 44  1  0  0  0  0
  4  2  2  0  0  0  0
  5  3  2  0  0  0  0
  6  7  2  0  0  0  0
  6  4  1  0  0  0  0
  7  5  1  0  0  0  0
  8  7  1  0  0  0  0
 10 11  1  0  0  0  0
 11  9  2  0  0  0  0
 11  8  1  0  0  0  0
 12 10  1  0  0  0  0
 13 20  2  0  0  0  0
 14 24  1  6  0  0  0
 14 22  1  0  0  0  0
 15 21  2  0  0  0  0
 17 19  2  0  0  0  0
 19 12  1  0  0  0  0
 20 16  1  0  0  0  0
 20 18  1  0  0  0  0
 21 14  1  0  0  0  0
 21 13  1  0  0  0  0
 22 16  1  0  0  0  0
 22 19  1  0  0  0  0
 23 24  1  0  0  0  0
 25 26  2  0  0  0  0
 26 27  1  0  0  0  0
 28 27  1  0  0  0  0
 30 33  1  0  0  0  0
 31 29  1  0  0  0  0
 32 34  1  6  0  0  0
 32 30  1  0  0  0  0
 32 31  1  0  0  0  0
 33 29  1  0  0  0  0
 33 28  1  1  0  0  0
 35 34  1  0  0  0  0
 36 41  1  1  0  0  0
 36 35  1  0  0  0  0
 37 36  1  0  0  0  0
 38 37  1  0  0  0  0
 38 40  1  0  0  0  0
 40 39  1  0  0  0  0
 41 42  1  0  0  0  0
 43 42  1  0  0  0  0
 44 45  1  0  0  0  0
 45 46  1  0  0  0  0
 47 46  1  0  0  0  0
 47 48  1  0  0  0  0
 48 50  1  0  0  0  0
 49 50  2  0  0  0  0
 50 52  1  0  0  0  0
 50 51  1  0  0  0  0
M  END
>  <MODEL>
1

>  <REMARK>
 VINA RESULT:      -5.0      0.000      0.000
  Name = 
  22 active torsions:
  status: ('A' for Active; 'I' for Inactive)
    1  A    between atoms: C_5  and  C_10
    2  A    between atoms: C_5  and  C_19
    3  A    between atoms: N_6  and  C_44
    4  A    between atoms: C_8  and  C_40
    5  A    between atoms: C_9  and  C_48
    6  A    between atoms: C_12  and  C_51
    7  A    between atoms: S_13  and  C_37
    8  A    between atoms: S_13  and  C_40
    9  A    between atoms: C_14  and  C_45
   10  A    between atoms: C_14  and  N_50
   11  A    between atoms: N_16  and  C_36
   12  A    between atoms: C_17  and  C_31
   13  A    between atoms: C_19  and  C_45
   14  A    between atoms: N_20  and  C_28
   15  A    between atoms: N_20  and  C_39
   16  A    between atoms: C_28  and  C_48
   17  A    between atoms: C_28  and  O_49
   18  A    between atoms: C_31  and  O_49
   19  A    between atoms: C_33  and  C_36
   20  A    between atoms: C_34  and  C_39
   21  A    between atoms: C_37  and  C_41
   22  A    between atoms: P_42  and  N_50
                            x       y       z     vdW  Elec       q    Type
                         _______ _______ _______ _____ _____    ______ ____

>  <TORSDO>
F 22

$$$$
=
 OpenBabel11042420533D

 52 54  0  0  1  0  0  0  0  0999 V2000
  161.5650  211.9370  150.8610 F   0  0  0  0  0  0  0  0  0  0  0  0
  162.0280  208.3060  150.7080 C   0  0  0  0  0  0  0  0  0  0  0  0
  162.0240  208.1070  149.3060 C   0  0  0  0  0  0  0  0  0  0  0  0
  161.8770  209.6070  151.2050 C   0  0  0  0  0  3  0  0  0  0  0  0
  161.8660  209.2030  148.4510 C   0  0  0  0  0  3  0  0  0  0  0  0
  161.7150  210.6930  150.3430 C   0  0  0  0  0  0  0  0  0  0  0  0
  161.7060  210.4990  148.9580 C   0  0  0  0  0  0  0  0  0  0  0  0
  161.5380  211.6300  148.0900 N   0  0  0  0  0  2  0  0  0  0  0  0
  163.7930  212.2030  147.7840 O   0  0  0  0  0  0  0  0  0  0  0  0
  162.2340  213.5030  146.6450 N   0  0  0  0  0  2  0  0  0  0  0  0
  162.5820  212.4340  147.5240 C   0  0  0  0  0  0  0  0  0  0  0  0
  163.2510  214.3130  145.9940 C   0  0  0  0  0  2  0  0  0  0  0  0
  160.0200  211.8110  142.9560 N   0  0  0  0  0  0  0  0  0  0  0  0
  162.2140  212.9930  142.4930 C   0  0  2  0  0  3  0  0  0  0  0  0
  161.4360  211.0950  141.2530 O   0  0  0  0  0  0  0  0  0  0  0  0
  160.8420  213.3620  144.5880 C   0  0  0  0  0  2  0  0  0  0  0  0
  164.2130  214.4510  143.8290 O   0  0  0  0  0  0  0  0  0  0  0  0
  158.5610  212.5500  144.8800 C   0  0  0  0  0  1  0  0  0  0  0  0
  163.2260  214.0800  144.5180 C   0  0  0  0  0  0  0  0  0  0  0  0
  159.8440  212.6080  144.1310 C   0  0  0  0  0  0  0  0  0  0  0  0
  161.2240  211.9050  142.1930 C   0  0  0  0  0  0  0  0  0  0  0  0
  162.0960  213.4480  143.8850 N   0  0  0  0  0  0  0  0  0  0  0  0
  163.0500  214.1420  140.4410 C   0  0  0  0  0  1  0  0  0  0  0  0
  162.0080  214.1670  141.5450 C   0  0  0  0  0  2  0  0  0  0  0  0
  163.2340  206.5220  151.7330 O   0  0  0  0  0  0  0  0  0  0  0  0
  162.1680  207.1900  151.6740 C   0  0  0  0  0  0  0  0  0  0  0  0
  160.8290  206.7580  152.7890 S   0  0  0  0  0  0  0  0  0  0  0  0
  161.9050  206.8100  154.2540 C   0  0  0  0  0  2  0  0  0  0  0  0
  160.1580  207.2630  155.9440 C   0  0  0  0  0  2  0  0  0  0  0  0
  161.0400  209.0210  154.6290 O   0  0  0  0  0  0  0  0  0  0  0  0
  159.3270  208.4780  156.2130 C   0  0  0  0  0  2  0  0  0  0  0  0
  159.9480  209.5520  155.3400 C   0  0  1  0  0  3  0  0  0  0  0  0
  161.3840  207.8140  155.2650 C   0  0  2  0  0  3  0  0  0  0  0  0
  160.3770  210.7600  156.1650 C   0  0  0  0  0  2  0  0  0  0  0  0
  159.4060  211.7810  156.1020 O   0  0  0  0  0  0  0  0  0  0  0  0
  159.7650  212.7110  155.0990 C   0  0  2  0  0  3  0  0  0  0  0  0
  159.2420  214.0510  155.3730 N   0  0  0  0  0  2  0  0  0  0  0  0
  158.0760  213.9070  156.2310 C   0  0  0  0  0  2  0  0  0  0  0  0
  155.8740  213.2680  155.3000 C   0  0  0  0  0  1  0  0  0  0  0  0
  156.8410  214.4180  155.5090 C   0  0  0  0  0  2  0  0  0  0  0  0
  159.3790  212.2310  153.6930 C   0  0  0  0  0  2  0  0  0  0  0  0
  159.1550  213.4090  152.7590 C   0  0  0  0  0  2  0  0  0  0  0  0
  158.3870  212.9770  151.5300 C   0  0  0  0  0  1  0  0  0  0  0  0
  162.2780  206.7720  148.6760 C   0  0  0  0  0  2  0  0  0  0  0  0
  161.0250  205.9090  148.6920 C   0  0  0  0  0  2  0  0  0  0  0  0
  161.0560  204.9360  149.8570 C   0  0  0  0  0  2  0  0  0  0  0  0
  160.4550  203.6080  149.4400 C   0  0  0  0  0  2  0  0  0  0  0  0
  161.2760  202.9900  148.4110 N   0  0  0  0  0  2  0  0  0  0  0  0
  161.5150  200.4080  149.5120 O   0  0  0  0  0  1  0  0  0  0  0  0
  160.7780  201.3140  148.2890 P   0  0  0  0  0  0  0  0  0  0  0  0
  161.1900  200.7670  146.9440 O   0  0  0  0  0  0  0  0  0  0  0  0
  159.0960  201.2090  148.4400 O   0  0  0  0  0  1  0  0  0  0  0  0
  2  4  1  0  0  0  0
  2 26  1  0  0  0  0
  3  2  2  0  0  0  0
  5  7  2  0  0  0  0
  5  3  1  0  0  0  0
  6  1  1  0  0  0  0
  6  4  2  0  0  0  0
  7  6  1  0  0  0  0
  8  7  1  0  0  0  0
 10 11  1  0  0  0  0
 11  9  2  0  0  0  0
 11  8  1  0  0  0  0
 12 10  1  0  0  0  0
 13 20  2  0  0  0  0
 14 24  1  6  0  0  0
 14 22  1  0  0  0  0
 15 21  2  0  0  0  0
 17 19  2  0  0  0  0
 19 12  1  0  0  0  0
 20 16  1  0  0  0  0
 20 18  1  0  0  0  0
 21 14  1  0  0  0  0
 21 13  1  0  0  0  0
 22 19  1  0  0  0  0
 22 16  1  0  0  0  0
 23 24  1  0  0  0  0
 26 25  2  0  0  0  0
 26 27  1  0  0  0  0
 27 28  1  0  0  0  0
 29 31  1  0  0  0  0
 30 33  1  0  0  0  0
 30 32  1  0  0  0  0
 32 34  1  1  0  0  0
 32 31  1  0  0  0  0
 33 28  1  6  0  0  0
 33 29  1  0  0  0  0
 35 34  1  0  0  0  0
 36 41  1  6  0  0  0
 36 37  1  0  0  0  0
 36 35  1  0  0  0  0
 37 38  1  0  0  0  0
 39 40  1  0  0  0  0
 40 38  1  0  0  0  0
 42 41  1  0  0  0  0
 43 42  1  0  0  0  0
 44 45  1  0  0  0  0
 44  3  1  0  0  0  0
 45 46  1  0  0  0  0
 47 46  1  0  0  0  0
 48 47  1  0  0  0  0
 50 48  1  0  0  0  0
 50 52  1  0  0  0  0
 50 49  1  0  0  0  0
 51 50  2  0  0  0  0
M  END
>  <MODEL>
2

>  <REMARK>
 VINA RESULT:      -4.6      2.956      8.070
  Name = 
  22 active torsions:
  status: ('A' for Active; 'I' for Inactive)
    1  A    between atoms: C_5  and  C_10
    2  A    between atoms: C_5  and  C_19
    3  A    between atoms: N_6  and  C_44
    4  A    between atoms: C_8  and  C_40
    5  A    between atoms: C_9  and  C_48
    6  A    between atoms: C_12  and  C_51
    7  A    between atoms: S_13  and  C_37
    8  A    between atoms: S_13  and  C_40
    9  A    between atoms: C_14  and  C_45
   10  A    between atoms: C_14  and  N_50
   11  A    between atoms: N_16  and  C_36
   12  A    between atoms: C_17  and  C_31
   13  A    between atoms: C_19  and  C_45
   14  A    between atoms: N_20  and  C_28
   15  A    between atoms: N_20  and  C_39
   16  A    between atoms: C_28  and  C_48
   17  A    between atoms: C_28  and  O_49
   18  A    between atoms: C_31  and  O_49
   19  A    between atoms: C_33  and  C_36
   20  A    between atoms: C_34  and  C_39
   21  A    between atoms: C_37  and  C_41
   22  A    between atoms: P_42  and  N_50
                            x       y       z     vdW  Elec       q    Type
                         _______ _______ _______ _____ _____    ______ ____

>  <TORSDO>
F 22

$$$$
=
 OpenBabel11042420533D

 52 54  0  0  1  0  0  0  0  0999 V2000
  162.6410  209.7470  148.5340 F   0  0  0  0  0  0  0  0  0  0  0  0
  161.4440  210.2020  151.9670 C   0  0  0  0  0  0  0  0  0  0  0  0
  160.7760  211.4450  151.8410 C   0  0  0  0  0  0  0  0  0  0  0  0
  162.0590  209.6500  150.8360 C   0  0  0  0  0  3  0  0  0  0  0  0
  160.7470  212.0940  150.6030 C   0  0  0  0  0  3  0  0  0  0  0  0
  162.0280  210.3100  149.6050 C   0  0  0  0  0  0  0  0  0  0  0  0
  161.3730  211.5390  149.4800 C   0  0  0  0  0  0  0  0  0  0  0  0
  161.3550  212.1990  148.2050 N   0  0  0  0  0  2  0  0  0  0  0  0
  163.4990  213.1500  148.2460 O   0  0  0  0  0  0  0  0  0  0  0  0
  162.2410  213.5240  146.3240 N   0  0  0  0  0  2  0  0  0  0  0  0
  162.4180  212.9680  147.6260 C   0  0  0  0  0  0  0  0  0  0  0  0
  163.3050  214.2610  145.6620 C   0  0  0  0  0  2  0  0  0  0  0  0
  160.0210  211.8070  142.6420 N   0  0  0  0  0  0  0  0  0  0  0  0
  162.3050  212.8150  142.2000 C   0  0  2  0  0  3  0  0  0  0  0  0
  161.4440  210.9040  141.0360 O   0  0  0  0  0  0  0  0  0  0  0  0
  160.8880  213.3900  144.2180 C   0  0  0  0  0  2  0  0  0  0  0  0
  164.3490  214.2140  143.5310 O   0  0  0  0  0  0  0  0  0  0  0  0
  158.5490  212.7460  144.4650 C   0  0  0  0  0  1  0  0  0  0  0  0
  163.3160  213.9470  144.2010 C   0  0  0  0  0  0  0  0  0  0  0  0
  159.8590  212.6790  143.7640 C   0  0  0  0  0  0  0  0  0  0  0  0
  161.2540  211.7780  141.9220 C   0  0  0  0  0  0  0  0  0  0  0  0
  162.1690  213.3550  143.5600 N   0  0  0  0  0  0  0  0  0  0  0  0
  163.2970  213.7990  140.1320 C   0  0  0  0  0  1  0  0  0  0  0  0
  162.2110  213.9440  141.1830 C   0  0  0  0  0  2  0  0  0  0  0  0
  162.1840  209.9430  154.2190 O   0  0  0  0  0  0  0  0  0  0  0  0
  161.5340  209.4680  153.2510 C   0  0  0  0  0  0  0  0  0  0  0  0
  160.7200  207.8820  153.4680 S   0  0  0  0  0  0  0  0  0  0  0  0
  162.1610  206.9530  152.8620 C   0  0  0  0  0  2  0  0  0  0  0  0
  160.6250  207.0220  150.9260 C   0  0  0  0  0  2  0  0  0  0  0  0
  161.8830  205.0730  151.3920 O   0  0  0  0  0  0  0  0  0  0  0  0
  160.1300  205.9460  150.0130 C   0  0  0  0  0  2  0  0  0  0  0  0
  160.9750  204.7380  150.3700 C   0  0  1  0  0  3  0  0  0  0  0  0
  161.9310  206.4780  151.4400 C   0  0  2  0  0  3  0  0  0  0  0  0
  161.7120  204.1950  149.1510 C   0  0  0  0  0  2  0  0  0  0  0  0
  161.0320  204.5320  147.9620 O   0  0  0  0  0  0  0  0  0  0  0  0
  160.9780  203.4020  147.1140 C   0  0  2  0  0  3  0  0  0  0  0  0
  161.4770  202.1920  147.7720 N   0  0  0  0  0  2  0  0  0  0  0  0
  160.7350  201.0580  147.2410 C   0  0  0  0  0  2  0  0  0  0  0  0
  161.2290  199.1010  145.8110 C   0  0  0  0  0  1  0  0  0  0  0  0
  161.6750  199.8840  147.0310 C   0  0  0  0  0  2  0  0  0  0  0  0
  161.6800  203.6440  145.7720 C   0  0  0  0  0  2  0  0  0  0  0  0
  160.7530  204.3420  144.7900 C   0  0  0  0  0  2  0  0  0  0  0  0
  161.5070  205.3810  143.9900 C   0  0  0  0  0  1  0  0  0  0  0  0
  160.0050  212.0670  152.9650 C   0  0  0  0  0  2  0  0  0  0  0  0
  159.1820  213.2510  152.4790 C   0  0  0  0  0  2  0  0  0  0  0  0
  158.7490  214.1200  153.6450 C   0  0  0  0  0  2  0  0  0  0  0  0
  159.0380  213.4120  154.9540 C   0  0  0  0  0  2  0  0  0  0  0  0
  157.8390  213.3710  155.7750 N   0  0  0  0  0  2  0  0  0  0  0  0
  156.6500  211.0650  154.6770 O   0  0  0  0  0  0  0  0  0  0  0  0
  157.4460  211.6830  156.0350 P   0  0  0  0  0  0  0  0  0  0  0  0
  156.5480  211.5590  157.2410 O   0  0  0  0  0  1  0  0  0  0  0  0
  158.8670  210.8050  156.3070 O   0  0  0  0  0  1  0  0  0  0  0  0
  1  6  1  0  0  0  0
  2 26  1  0  0  0  0
  3  2  1  0  0  0  0
  3 44  1  0  0  0  0
  4  2  2  0  0  0  0
  5  3  2  0  0  0  0
  6  4  1  0  0  0  0
  7  6  2  0  0  0  0
  7  5  1  0  0  0  0
  8  7  1  0  0  0  0
 10 11  1  0  0  0  0
 11  8  1  0  0  0  0
 11  9  2  0  0  0  0
 12 10  1  0  0  0  0
 13 20  2  0  0  0  0
 14 24  1  6  0  0  0
 14 22  1  0  0  0  0
 15 21  2  0  0  0  0
 17 19  2  0  0  0  0
 19 12  1  0  0  0  0
 20 16  1  0  0  0  0
 20 18  1  0  0  0  0
 21 14  1  0  0  0  0
 21 13  1  0  0  0  0
 22 19  1  0  0  0  0
 22 16  1  0  0  0  0
 23 24  1  0  0  0  0
 26 27  1  0  0  0  0
 26 25  2  0  0  0  0
 28 27  1  0  0  0  0
 29 33  1  0  0  0  0
 30 33  1  0  0  0  0
 31 32  1  0  0  0  0
 31 29  1  0  0  0  0
 32 34  1  6  0  0  0
 32 30  1  0  0  0  0
 33 28  1  1  0  0  0
 35 34  1  0  0  0  0
 36 41  1  6  0  0  0
 36 37  1  0  0  0  0
 36 35  1  0  0  0  0
 38 37  1  0  0  0  0
 39 40  1  0  0  0  0
 40 38  1  0  0  0  0
 42 41  1  0  0  0  0
 43 42  1  0  0  0  0
 45 44  1  0  0  0  0
 45 46  1  0  0  0  0
 46 47  1  0  0  0  0
 47 48  1  0  0  0  0
 48 50  1  0  0  0  0
 49 50  2  0  0  0  0
 50 52  1  0  0  0  0
 50 51  1  0  0  0  0
M  END
>  <MODEL>
3

>  <REMARK>
 VINA RESULT:      -4.4      1.585      2.745
  Name = 
  22 active torsions:
  status: ('A' for Active; 'I' for Inactive)
    1  A    between atoms: C_5  and  C_10
    2  A    between atoms: C_5  and  C_19
    3  A    between atoms: N_6  and  C_44
    4  A    between atoms: C_8  and  C_40
    5  A    between atoms: C_9  and  C_48
    6  A    between atoms: C_12  and  C_51
    7  A    between atoms: S_13  and  C_37
    8  A    between atoms: S_13  and  C_40
    9  A    between atoms: C_14  and  C_45
   10  A    between atoms: C_14  and  N_50
   11  A    between atoms: N_16  and  C_36
   12  A    between atoms: C_17  and  C_31
   13  A    between atoms: C_19  and  C_45
   14  A    between atoms: N_20  and  C_28
   15  A    between atoms: N_20  and  C_39
   16  A    between atoms: C_28  and  C_48
   17  A    between atoms: C_28  and  O_49
   18  A    between atoms: C_31  and  O_49
   19  A    between atoms: C_33  and  C_36
   20  A    between atoms: C_34  and  C_39
   21  A    between atoms: C_37  and  C_41
   22  A    between atoms: P_42  and  N_50
                            x       y       z     vdW  Elec       q    Type
                         _______ _______ _______ _____ _____    ______ ____

>  <TORSDO>
F 22

$$$$
=
 OpenBabel11042420533D

 52 54  0  0  1  0  0  0  0  0999 V2000
  161.0460  208.6700  148.1920 F   0  0  0  0  0  0  0  0  0  0  0  0
  161.7640  205.5920  146.3370 C   0  0  0  0  0  0  0  0  0  0  0  0
  161.5680  204.6290  147.3560 C   0  0  0  0  0  0  0  0  0  0  0  0
  161.5760  206.9460  146.6450 C   0  0  0  0  0  3  0  0  0  0  0  0
  161.1990  205.0430  148.6400 C   0  0  0  0  0  3  0  0  0  0  0  0
  161.2120  207.3490  147.9310 C   0  0  0  0  0  0  0  0  0  0  0  0
  161.0230  206.3990  148.9400 C   0  0  0  0  0  0  0  0  0  0  0  0
  160.6490  206.8370  150.2550 N   0  0  0  0  0  2  0  0  0  0  0  0
  162.4610  208.2570  150.7060 O   0  0  0  0  0  0  0  0  0  0  0  0
  160.8280  208.1120  152.3580 N   0  0  0  0  0  2  0  0  0  0  0  0
  161.3700  207.7570  151.0860 C   0  0  0  0  0  0  0  0  0  0  0  0
  161.4830  209.0860  153.2170 C   0  0  0  0  0  2  0  0  0  0  0  0
  159.2820  213.6760  153.1070 N   0  0  0  0  0  2  0  0  0  0  0  0
  159.1380  211.7640  154.7660 C   0  0  2  0  0  3  0  0  0  0  0  0
  158.9100  214.0730  155.3710 O   0  0  0  0  0  0  0  0  0  0  0  0
  160.0080  211.5030  152.4030 C   0  0  0  0  0  3  0  0  0  0  0  0
  160.1350  209.1660  155.1680 O   0  0  0  0  0  0  0  0  0  0  0  0
  159.7930  213.2140  150.6780 C   0  0  0  0  0  1  0  0  0  0  0  0
  160.4790  209.7460  154.1050 C   0  0  0  0  0  0  0  0  0  0  0  0
  159.6820  212.7550  152.0880 C   0  0  0  0  0  0  0  0  0  0  0  0
  159.1120  213.2330  154.4540 C   0  0  0  0  0  0  0  0  0  0  0  0
  159.9060  211.0220  153.7560 N   0  0  0  0  0  0  0  0  0  0  0  0
  157.1170  211.4990  156.2060 C   0  0  0  0  0  1  0  0  0  0  0  0
  157.7180  211.2180  154.8410 C   0  0  0  0  0  2  0  0  0  0  0  0
  163.3350  204.7930  144.7310 O   0  0  0  0  0  0  0  0  0  0  0  0
  162.1770  205.2290  144.9600 C   0  0  0  0  0  0  0  0  0  0  0  0
  161.0410  205.3980  143.5800 S   0  0  0  0  0  0  0  0  0  0  0  0
  162.3030  206.1500  142.5100 C   0  0  0  0  0  2  0  0  0  0  0  0
  162.6530  205.8970  140.0750 C   0  0  0  0  0  2  0  0  0  0  0  0
  161.6020  207.8300  140.9420 O   0  0  0  0  0  0  0  0  0  0  0  0
  162.5030  206.8640  138.9450 C   0  0  0  0  0  2  0  0  0  0  0  0
  161.8300  208.0690  139.5740 C   0  0  1  0  0  3  0  0  0  0  0  0
  161.7340  206.4440  141.1350 C   0  0  2  0  0  3  0  0  0  0  0  0
  160.5270  208.4130  138.8620 C   0  0  0  0  0  2  0  0  0  0  0  0
  160.6150  209.6730  138.2330 O   0  0  0  0  0  0  0  0  0  0  0  0
  160.9160  210.6600  139.1990 C   0  0  2  0  0  3  0  0  0  0  0  0
  159.7120  211.2020  139.8320 N   0  0  0  0  0  2  0  0  0  0  0  0
  159.2320  212.3010  139.0070 C   0  0  0  0  0  2  0  0  0  0  0  0
  157.2960  210.7610  138.9790 C   0  0  0  0  0  1  0  0  0  0  0  0
  157.7240  212.2120  138.8610 C   0  0  0  0  0  2  0  0  0  0  0  0
  161.8090  211.7740  138.6370 C   0  0  0  0  0  2  0  0  0  0  0  0
  163.2790  211.4590  138.8590 C   0  0  0  0  0  2  0  0  0  0  0  0
  164.1010  212.7280  138.8720 C   0  0  0  0  0  1  0  0  0  0  0  0
  161.6470  203.1550  147.1030 C   0  0  0  0  0  2  0  0  0  0  0  0
  160.4720  202.4230  147.7360 C   0  0  0  0  0  2  0  0  0  0  0  0
  160.9550  201.2530  148.5730 C   0  0  0  0  0  2  0  0  0  0  0  0
  160.4930  201.4180  150.0080 C   0  0  0  0  0  2  0  0  0  0  0  0
  160.3870  202.8290  150.3400 N   0  0  0  0  0  2  0  0  0  0  0  0
  162.3140  201.7570  152.0920 O   0  0  0  0  0  1  0  0  0  0  0  0
  161.3110  203.0880  151.8060 P   0  0  0  0  0  0  0  0  0  0  0  0
  160.3660  203.2610  152.9690 O   0  0  0  0  0  1  0  0  0  0  0  0
  162.2540  204.4840  151.6430 O   0  0  0  0  0  0  0  0  0  0  0  0
  2  4  2  0  0  0  0
  2  3  1  0  0  0  0
  3  5  2  0  0  0  0
  4  6  1  0  0  0  0
  5  7  1  0  0  0  0
  6  1  1  0  0  0  0
  6  7  2  0  0  0  0
  7  8  1  0  0  0  0
  8 11  1  0  0  0  0
  9 11  2  0  0  0  0
 10 12  1  0  0  0  0
 11 10  1  0  0  0  0
 12 19  1  0  0  0  0
 13 21  1  0  0  0  0
 14 24  1  6  0  0  0
 16 22  1  0  0  0  0
 18 20  1  0  0  0  0
 19 17  2  0  0  0  0
 20 16  2  0  0  0  0
 20 13  1  0  0  0  0
 21 14  1  0  0  0  0
 21 15  2  0  0  0  0
 22 19  1  0  0  0  0
 22 14  1  0  0  0  0
 24 23  1  0  0  0  0
 25 26  2  0  0  0  0
 26  2  1  0  0  0  0
 27 26  1  0  0  0  0
 28 27  1  0  0  0  0
 29 33  1  0  0  0  0
 30 33  1  0  0  0  0
 31 32  1  0  0  0  0
 31 29  1  0  0  0  0
 32 34  1  6  0  0  0
 32 30  1  0  0  0  0
 33 28  1  1  0  0  0
 35 34  1  0  0  0  0
 35 36  1  0  0  0  0
 36 41  1  6  0  0  0
 36 37  1  0  0  0  0
 38 37  1  0  0  0  0
 40 39  1  0  0  0  0
 40 38  1  0  0  0  0
 41 42  1  0  0  0  0
 42 43  1  0  0  0  0
 44  3  1  0  0  0  0
 44 45  1  0  0  0  0
 45 46  1  0  0  0  0
 46 47  1  0  0  0  0
 47 48  1  0  0  0  0
 48 50  1  0  0  0  0
 50 49  1  0  0  0  0
 50 51  1  0  0  0  0
 52 50  2  0  0  0  0
M  END
>  <MODEL>
4

>  <REMARK>
 VINA RESULT:      -4.3      3.989     10.255
  Name = 
  22 active torsions:
  status: ('A' for Active; 'I' for Inactive)
    1  A    between atoms: C_5  and  C_10
    2  A    between atoms: C_5  and  C_19
    3  A    between atoms: N_6  and  C_44
    4  A    between atoms: C_8  and  C_40
    5  A    between atoms: C_9  and  C_48
    6  A    between atoms: C_12  and  C_51
    7  A    between atoms: S_13  and  C_37
    8  A    between atoms: S_13  and  C_40
    9  A    between atoms: C_14  and  C_45
   10  A    between atoms: C_14  and  N_50
   11  A    between atoms: N_16  and  C_36
   12  A    between atoms: C_17  and  C_31
   13  A    between atoms: C_19  and  C_45
   14  A    between atoms: N_20  and  C_28
   15  A    between atoms: N_20  and  C_39
   16  A    between atoms: C_28  and  C_48
   17  A    between atoms: C_28  and  O_49
   18  A    between atoms: C_31  and  O_49
   19  A    between atoms: C_33  and  C_36
   20  A    between atoms: C_34  and  C_39
   21  A    between atoms: C_37  and  C_41
   22  A    between atoms: P_42  and  N_50
                            x       y       z     vdW  Elec       q    Type
                         _______ _______ _______ _____ _____    ______ ____

>  <TORSDO>
F 22

$$$$
=
 OpenBabel11042420533D

 52 54  0  0  1  0  0  0  0  0999 V2000
  161.1490  208.6730  148.2600 F   0  0  0  0  0  0  0  0  0  0  0  0
  161.7670  205.6080  146.3490 C   0  0  0  0  0  0  0  0  0  0  0  0
  161.4980  204.6320  147.3390 C   0  0  0  0  0  0  0  0  0  0  0  0
  161.6360  206.9620  146.6850 C   0  0  0  0  0  3  0  0  0  0  0  0
  161.1160  205.0330  148.6230 C   0  0  0  0  0  3  0  0  0  0  0  0
  161.2590  207.3520  147.9710 C   0  0  0  0  0  0  0  0  0  0  0  0
  160.9980  206.3900  148.9520 C   0  0  0  0  0  0  0  0  0  0  0  0
  160.6110  206.8140  150.2680 N   0  0  0  0  0  2  0  0  0  0  0  0
  162.5410  208.0110  150.8560 O   0  0  0  0  0  0  0  0  0  0  0  0
  160.8260  207.9810  152.4290 N   0  0  0  0  0  2  0  0  0  0  0  0
  161.3860  207.6180  151.1670 C   0  0  0  0  0  0  0  0  0  0  0  0
  161.5400  208.8440  153.3560 C   0  0  0  0  0  2  0  0  0  0  0  0
  159.2940  213.3950  153.7760 N   0  0  0  0  0  2  0  0  0  0  0  0
  159.2810  211.3510  155.2760 C   0  0  2  0  0  3  0  0  0  0  0  0
  159.0740  213.5980  156.0840 O   0  0  0  0  0  0  0  0  0  0  0  0
  159.9900  211.2980  152.8460 C   0  0  0  0  0  3  0  0  0  0  0  0
  160.3270  208.7440  155.3940 O   0  0  0  0  0  0  0  0  0  0  0  0
  159.6430  213.1420  151.2880 C   0  0  0  0  0  1  0  0  0  0  0  0
  160.5920  209.4150  154.3610 C   0  0  0  0  0  0  0  0  0  0  0  0
  159.6320  212.5670  152.6590 C   0  0  0  0  0  0  0  0  0  0  0  0
  159.2210  212.8400  155.0900 C   0  0  0  0  0  0  0  0  0  0  0  0
  159.9850  210.7060  154.1590 N   0  0  0  0  0  0  0  0  0  0  0  0
  156.9130  211.5450  154.5110 C   0  0  0  0  0  1  0  0  0  0  0  0
  157.8750  210.7800  155.4010 C   0  0  0  0  0  2  0  0  0  0  0  0
  163.3710  204.8590  144.7510 O   0  0  0  0  0  0  0  0  0  0  0  0
  162.1970  205.2570  144.9740 C   0  0  0  0  0  0  0  0  0  0  0  0
  161.0620  205.3860  143.5890 S   0  0  0  0  0  0  0  0  0  0  0  0
  162.2980  206.1950  142.5290 C   0  0  0  0  0  2  0  0  0  0  0  0
  162.5570  205.8830  140.0900 C   0  0  0  0  0  2  0  0  0  0  0  0
  161.6730  207.9000  140.9550 O   0  0  0  0  0  0  0  0  0  0  0  0
  162.4440  206.8430  138.9490 C   0  0  0  0  0  2  0  0  0  0  0  0
  161.8780  208.1020  139.5780 C   0  0  1  0  0  3  0  0  0  0  0  0
  161.7110  206.5100  141.1670 C   0  0  2  0  0  3  0  0  0  0  0  0
  160.5820  208.5300  138.8970 C   0  0  0  0  0  2  0  0  0  0  0  0
  160.8140  209.5910  137.9980 O   0  0  0  0  0  0  0  0  0  0  0  0
  159.9480  210.6660  138.3060 C   0  0  2  0  0  3  0  0  0  0  0  0
  159.3640  210.5410  139.6430 N   0  0  0  0  0  2  0  0  0  0  0  0
  159.5350  211.8150  140.3240 C   0  0  0  0  0  2  0  0  0  0  0  0
  161.8180  211.4980  141.2220 C   0  0  0  0  0  1  0  0  0  0  0  0
  160.3510  211.6160  141.5890 C   0  0  0  0  0  2  0  0  0  0  0  0
  158.8680  210.8710  137.2360 C   0  0  0  0  0  2  0  0  0  0  0  0
  157.7130  209.9030  137.4360 C   0  0  0  0  0  2  0  0  0  0  0  0
  156.4150  210.6540  137.6360 C   0  0  0  0  0  1  0  0  0  0  0  0
  161.5120  203.1620  147.0520 C   0  0  0  0  0  2  0  0  0  0  0  0
  160.3870  202.4460  147.7840 C   0  0  0  0  0  2  0  0  0  0  0  0
  160.9060  201.2080  148.4910 C   0  0  0  0  0  2  0  0  0  0  0  0
  160.7100  201.3460  149.9880 C   0  0  0  0  0  2  0  0  0  0  0  0
  160.4520  202.7350  150.3330 N   0  0  0  0  0  2  0  0  0  0  0  0
  160.3210  203.3450  153.0800 O   0  0  0  0  0  1  0  0  0  0  0  0
  161.3730  203.0890  151.7810 P   0  0  0  0  0  0  0  0  0  0  0  0
  162.2000  204.3310  151.5550 O   0  0  0  0  0  0  0  0  0  0  0  0
  162.4020  201.7920  152.1310 O   0  0  0  0  0  1  0  0  0  0  0  0
  2  4  2  0  0  0  0
  2  3  1  0  0  0  0
  3  5  2  0  0  0  0
  4  6  1  0  0  0  0
  5  7  1  0  0  0  0
  6  1  1  0  0  0  0
  6  7  2  0  0  0  0
  7  8  1  0  0  0  0
  8 11  1  0  0  0  0
  9 11  2  0  0  0  0
 10 12  1  0  0  0  0
 11 10  1  0  0  0  0
 12 19  1  0  0  0  0
 13 21  1  0  0  0  0
 14 24  1  6  0  0  0
 16 22  1  0  0  0  0
 18 20  1  0  0  0  0
 19 17  2  0  0  0  0
 20 16  2  0  0  0  0
 20 13  1  0  0  0  0
 21 14  1  0  0  0  0
 21 15  2  0  0  0  0
 22 19  1  0  0  0  0
 22 14  1  0  0  0  0
 23 24  1  0  0  0  0
 25 26  2  0  0  0  0
 26  2  1  0  0  0  0
 27 26  1  0  0  0  0
 28 27  1  0  0  0  0
 29 33  1  0  0  0  0
 30 33  1  0  0  0  0
 31 32  1  0  0  0  0
 31 29  1  0  0  0  0
 32 34  1  6  0  0  0
 32 30  1  0  0  0  0
 33 28  1  1  0  0  0
 35 36  1  0  0  0  0
 35 34  1  0  0  0  0
 36 41  1  6  0  0  0
 36 37  1  0  0  0  0
 37 38  1  0  0  0  0
 38 40  1  0  0  0  0
 39 40  1  0  0  0  0
 41 42  1  0  0  0  0
 42 43  1  0  0  0  0
 44  3  1  0  0  0  0
 44 45  1  0  0  0  0
 45 46  1  0  0  0  0
 46 47  1  0  0  0  0
 47 48  1  0  0  0  0
 48 50  1  0  0  0  0
 50 52  1  0  0  0  0
 50 49  1  0  0  0  0
 51 50  2  0  0  0  0
M  END
>  <MODEL>
5

>  <REMARK>
 VINA RESULT:      -4.1      3.855     10.225
  Name = 
  22 active torsions:
  status: ('A' for Active; 'I' for Inactive)
    1  A    between atoms: C_5  and  C_10
    2  A    between atoms: C_5  and  C_19
    3  A    between atoms: N_6  and  C_44
    4  A    between atoms: C_8  and  C_40
    5  A    between atoms: C_9  and  C_48
    6  A    between atoms: C_12  and  C_51
    7  A    between atoms: S_13  and  C_37
    8  A    between atoms: S_13  and  C_40
    9  A    between atoms: C_14  and  C_45
   10  A    between atoms: C_14  and  N_50
   11  A    between atoms: N_16  and  C_36
   12  A    between atoms: C_17  and  C_31
   13  A    between atoms: C_19  and  C_45
   14  A    between atoms: N_20  and  C_28
   15  A    between atoms: N_20  and  C_39
   16  A    between atoms: C_28  and  C_48
   17  A    between atoms: C_28  and  O_49
   18  A    between atoms: C_31  and  O_49
   19  A    between atoms: C_33  and  C_36
   20  A    between atoms: C_34  and  C_39
   21  A    between atoms: C_37  and  C_41
   22  A    between atoms: P_42  and  N_50
                            x       y       z     vdW  Elec       q    Type
                         _______ _______ _______ _____ _____    ______ ____

>  <TORSDO>
F 22

$$$$
=
 OpenBabel11042420533D

 52 54  0  0  1  0  0  0  0  0999 V2000
  161.7580  206.7410  151.3660 F   0  0  0  0  0  0  0  0  0  0  0  0
  161.2930  210.3760  151.3570 C   0  0  0  0  0  0  0  0  0  0  0  0
  161.6390  210.6730  150.0170 C   0  0  0  0  0  0  0  0  0  0  0  0
  161.3370  209.0420  151.7840 C   0  0  0  0  0  3  0  0  0  0  0  0
  162.0190  209.6410  149.1530 C   0  0  0  0  0  3  0  0  0  0  0  0
  161.7210  208.0190  150.9150 C   0  0  0  0  0  0  0  0  0  0  0  0
  162.0680  208.3120  149.5910 C   0  0  0  0  0  0  0  0  0  0  0  0
  162.4610  207.2450  148.7150 N   0  0  0  0  0  2  0  0  0  0  0  0
  160.8140  207.4920  147.0630 O   0  0  0  0  0  0  0  0  0  0  0  0
  162.3830  205.8100  146.7120 N   0  0  0  0  0  2  0  0  0  0  0  0
  161.8330  206.8800  147.4790 C   0  0  0  0  0  0  0  0  0  0  0  0
  161.8250  205.4350  145.4220 C   0  0  0  0  0  2  0  0  0  0  0  0
  161.2120  201.9900  149.1210 N   0  0  0  0  0  2  0  0  0  0  0  0
  161.2200  201.7840  146.5940 C   0  0  2  0  0  3  0  0  0  0  0  0
  161.9440  200.0430  148.0750 O   0  0  0  0  0  0  0  0  0  0  0  0
  160.9170  203.9790  147.8170 C   0  0  0  0  0  3  0  0  0  0  0  0
  161.4940  203.3750  144.2920 O   0  0  0  0  0  0  0  0  0  0  0  0
  160.5140  204.1540  150.2160 C   0  0  0  0  0  1  0  0  0  0  0  0
  161.5180  203.9730  145.4000 C   0  0  0  0  0  0  0  0  0  0  0  0
  160.8690  203.3730  149.0020 C   0  0  0  0  0  0  0  0  0  0  0  0
  161.4950  201.2140  147.9560 C   0  0  0  0  0  0  0  0  0  0  0  0
  161.2500  203.2530  146.6200 N   0  0  0  0  0  0  0  0  0  0  0  0
  160.0540  200.2160  145.0410 C   0  0  0  0  0  1  0  0  0  0  0  0
  159.8680  201.3010  146.0850 C   0  0  0  0  0  2  0  0  0  0  0  0
  161.0660  211.2360  153.5700 O   0  0  0  0  0  0  0  0  0  0  0  0
  160.9020  211.4190  152.3350 C   0  0  0  0  0  0  0  0  0  0  0  0
  160.1870  212.9740  151.7910 S   0  0  0  0  0  0  0  0  0  0  0  0
  158.4870  212.3370  151.8950 C   0  0  0  0  0  2  0  0  0  0  0  0
  156.6940  213.5870  153.0500 C   0  0  0  0  0  2  0  0  0  0  0  0
  158.8120  213.3130  154.0660 O   0  0  0  0  0  0  0  0  0  0  0  0
  156.7120  214.4450  154.2750 C   0  0  0  0  0  2  0  0  0  0  0  0
  158.0910  214.2200  154.8640 C   0  0  1  0  0  3  0  0  0  0  0  0
  157.8720  212.6700  153.2410 C   0  0  2  0  0  3  0  0  0  0  0  0
  158.0070  213.7220  156.3030 C   0  0  0  0  0  2  0  0  0  0  0  0
  159.0650  212.8350  156.5900 O   0  0  0  0  0  0  0  0  0  0  0  0
  158.5360  211.5810  156.9740 C   0  0  2  0  0  3  0  0  0  0  0  0
  159.1150  210.4770  156.2060 N   0  0  0  0  0  2  0  0  0  0  0  0
  159.9840  209.7220  157.0970 C   0  0  0  0  0  2  0  0  0  0  0  0
  160.1070  207.9110  155.4150 C   0  0  0  0  0  1  0  0  0  0  0  0
  160.9230  208.8520  156.2810 C   0  0  0  0  0  2  0  0  0  0  0  0
  157.0020  211.5560  156.9280 C   0  0  0  0  0  2  0  0  0  0  0  0
  156.5060  210.8640  155.6690 C   0  0  0  0  0  2  0  0  0  0  0  0
  155.0130  211.0460  155.5130 C   0  0  0  0  0  1  0  0  0  0  0  0
  161.5280  212.0510  149.4390 C   0  0  0  0  0  2  0  0  0  0  0  0
  162.6160  212.3040  148.4050 C   0  0  0  0  0  2  0  0  0  0  0  0
  162.4090  213.6440  147.7230 C   0  0  0  0  0  2  0  0  0  0  0  0
  162.2420  213.4440  146.2300 C   0  0  0  0  0  2  0  0  0  0  0  0
  161.0790  214.1770  145.7550 N   0  0  0  0  0  2  0  0  0  0  0  0
  161.3590  212.7530  143.3410 O   0  0  0  0  0  0  0  0  0  0  0  0
  160.2760  213.1650  144.5720 P   0  0  0  0  0  0  0  0  0  0  0  0
  159.1090  213.9180  143.9800 O   0  0  0  0  0  1  0  0  0  0  0  0
  159.7060  211.7590  145.3210 O   0  0  0  0  0  1  0  0  0  0  0  0
  2  4  1  0  0  0  0
  2 26  1  0  0  0  0
  3  2  2  0  0  0  0
  5  7  2  0  0  0  0
  5  3  1  0  0  0  0
  6  1  1  0  0  0  0
  6  4  2  0  0  0  0
  7  6  1  0  0  0  0
  8  7  1  0  0  0  0
  9 11  2  0  0  0  0
 10 11  1  0  0  0  0
 11  8  1  0  0  0  0
 12 10  1  0  0  0  0
 14 24  1  1  0  0  0
 14 22  1  0  0  0  0
 14 21  1  0  0  0  0
 16 20  2  0  0  0  0
 17 19  2  0  0  0  0
 19 12  1  0  0  0  0
 19 22  1  0  0  0  0
 20 13  1  0  0  0  0
 20 18  1  0  0  0  0
 21 15  2  0  0  0  0
 21 13  1  0  0  0  0
 22 16  1  0  0  0  0
 23 24  1  0  0  0  0
 26 25  2  0  0  0  0
 27 28  1  0  0  0  0
 27 26  1  0  0  0  0
 29 33  1  0  0  0  0
 29 31  1  0  0  0  0
 30 32  1  0  0  0  0
 31 32  1  0  0  0  0
 32 34  1  1  0  0  0
 33 28  1  6  0  0  0
 33 30  1  0  0  0  0
 34 35  1  0  0  0  0
 35 36  1  0  0  0  0
 36 41  1  6  0  0  0
 37 36  1  0  0  0  0
 37 38  1  0  0  0  0
 39 40  1  0  0  0  0
 40 38  1  0  0  0  0
 42 41  1  0  0  0  0
 43 42  1  0  0  0  0
 44  3  1  0  0  0  0
 45 44  1  0  0  0  0
 46 45  1  0  0  0  0
 47 46  1  0  0  0  0
 48 47  1  0  0  0  0
 49 50  2  0  0  0  0
 50 52  1  0  0  0  0
 50 48  1  0  0  0  0
 51 50  1  0  0  0  0
M  END
>  <MODEL>
6

>  <REMARK>
 VINA RESULT:      -3.8      3.184     10.261
  Name = 
  22 active torsions:
  status: ('A' for Active; 'I' for Inactive)
    1  A    between atoms: C_5  and  C_10
    2  A    between atoms: C_5  and  C_19
    3  A    between atoms: N_6  and  C_44
    4  A    between atoms: C_8  and  C_40
    5  A    between atoms: C_9  and  C_48
    6  A    between atoms: C_12  and  C_51
    7  A    between atoms: S_13  and  C_37
    8  A    between atoms: S_13  and  C_40
    9  A    between atoms: C_14  and  C_45
   10  A    between atoms: C_14  and  N_50
   11  A    between atoms: N_16  and  C_36
   12  A    between atoms: C_17  and  C_31
   13  A    between atoms: C_19  and  C_45
   14  A    between atoms: N_20  and  C_28
   15  A    between atoms: N_20  and  C_39
   16  A    between atoms: C_28  and  C_48
   17  A    between atoms: C_28  and  O_49
   18  A    between atoms: C_31  and  O_49
   19  A    between atoms: C_33  and  C_36
   20  A    between atoms: C_34  and  C_39
   21  A    between atoms: C_37  and  C_41
   22  A    between atoms: P_42  and  N_50
                            x       y       z     vdW  Elec       q    Type
                         _______ _______ _______ _____ _____    ______ ____

>  <TORSDO>
F 22

$$$$
=
 OpenBabel11042420533D

 52 54  0  0  1  0  0  0  0  0999 V2000
  160.6100  205.1100  154.1170 F   0  0  0  0  0  0  0  0  0  0  0  0
  161.5750  208.6440  154.2200 C   0  0  0  0  0  0  0  0  0  0  0  0
  161.5320  208.9600  152.8400 C   0  0  0  0  0  0  0  0  0  0  0  0
  161.2550  207.3410  154.6230 C   0  0  0  0  0  3  0  0  0  0  0  0
  161.1790  207.9740  151.9140 C   0  0  0  0  0  3  0  0  0  0  0  0
  160.9080  206.3620  153.6900 C   0  0  0  0  0  0  0  0  0  0  0  0
  160.8700  206.6710  152.3260 C   0  0  0  0  0  0  0  0  0  0  0  0
  160.5100  205.6490  151.3840 N   0  0  0  0  0  2  0  0  0  0  0  0
  162.4330  204.3130  151.5310 O   0  0  0  0  0  0  0  0  0  0  0  0
  160.7610  203.5620  150.0970 N   0  0  0  0  0  2  0  0  0  0  0  0
  161.2940  204.5020  151.0280 C   0  0  0  0  0  0  0  0  0  0  0  0
  161.4840  202.3490  149.7450 C   0  0  0  0  0  2  0  0  0  0  0  0
  161.0410  204.2380  145.0370 N   0  0  0  0  0  0  0  0  0  0  0  0
  160.3040  202.0390  146.0590 C   0  0  2  0  0  3  0  0  0  0  0  0
  159.1500  203.1250  144.2610 O   0  0  0  0  0  0  0  0  0  0  0  0
  162.0260  203.5640  147.1150 C   0  0  0  0  0  2  0  0  0  0  0  0
  160.3700  200.6580  148.5080 O   0  0  0  0  0  0  0  0  0  0  0  0
  163.0350  205.4700  145.9760 C   0  0  0  0  0  1  0  0  0  0  0  0
  160.9430  201.7790  148.4740 C   0  0  0  0  0  0  0  0  0  0  0  0
  162.0310  204.3760  146.0600 C   0  0  0  0  0  0  0  0  0  0  0  0
  160.1100  203.1560  145.0740 C   0  0  0  0  0  0  0  0  0  0  0  0
  161.0740  202.4900  147.2270 N   0  0  0  0  0  0  0  0  0  0  0  0
  159.9990  199.8700  144.8630 C   0  0  0  0  0  1  0  0  0  0  0  0
  161.0120  200.8670  145.3930 C   0  0  0  0  0  2  0  0  0  0  0  0
  163.0390  210.2750  155.1590 O   0  0  0  0  0  0  0  0  0  0  0  0
  161.9620  209.6310  155.2560 C   0  0  0  0  0  0  0  0  0  0  0  0
  160.9090  209.9400  156.6780 S   0  0  0  0  0  0  0  0  0  0  0  0
  161.4360  211.6750  156.8110 C   0  0  0  0  0  2  0  0  0  0  0  0
  159.4170  213.0360  157.2380 C   0  0  0  0  0  2  0  0  0  0  0  0
  159.7060  211.9340  155.1650 O   0  0  0  0  0  0  0  0  0  0  0  0
  158.1360  213.1770  156.4790 C   0  0  0  0  0  2  0  0  0  0  0  0
  158.3960  212.4490  155.1740 C   0  0  1  0  0  3  0  0  0  0  0  0
  160.4050  212.5960  156.1900 C   0  0  2  0  0  3  0  0  0  0  0  0
  158.1670  213.3610  153.9730 C   0  0  0  0  0  2  0  0  0  0  0  0
  157.3240  214.4390  154.3150 O   0  0  0  0  0  0  0  0  0  0  0  0
  156.0490  214.2410  153.7370 C   0  0  2  0  0  3  0  0  0  0  0  0
  155.2870  213.1940  154.4210 N   0  0  0  0  0  2  0  0  0  0  0  0
  154.6270  213.8010  155.5670 C   0  0  0  0  0  2  0  0  0  0  0  0
  154.8410  211.7570  156.9460 C   0  0  0  0  0  1  0  0  0  0  0  0
  155.2000  213.2280  156.8510 C   0  0  0  0  0  2  0  0  0  0  0  0
  156.1270  213.9850  152.2260 C   0  0  0  0  0  2  0  0  0  0  0  0
  154.7440  214.0170  151.5960 C   0  0  0  0  0  2  0  0  0  0  0  0
  154.8430  214.0020  150.0870 C   0  0  0  0  0  1  0  0  0  0  0  0
  161.7600  210.3460  152.3200 C   0  0  0  0  0  2  0  0  0  0  0  0
  161.2840  210.4790  150.8810 C   0  0  0  0  0  2  0  0  0  0  0  0
  162.1040  211.5160  150.1360 C   0  0  0  0  0  2  0  0  0  0  0  0
  162.2830  211.0960  148.6910 C   0  0  0  0  0  2  0  0  0  0  0  0
  162.7300  212.2260  147.8930 N   0  0  0  0  0  2  0  0  0  0  0  0
  161.4420  214.2940  146.4790 O   0  0  0  0  0  0  0  0  0  0  0  0
  161.4510  213.4240  147.9280 P   0  0  0  0  0  0  0  0  0  0  0  0
  161.6860  214.3710  149.0800 O   0  0  0  0  0  1  0  0  0  0  0  0
  159.9580  212.6540  148.1380 O   0  0  0  0  0  1  0  0  0  0  0  0
  2  4  1  0  0  0  0
  2 26  1  0  0  0  0
  3  2  2  0  0  0  0
  5  7  2  0  0  0  0
  5  3  1  0  0  0  0
  6  1  1  0  0  0  0
  6  4  2  0  0  0  0
  7  6  1  0  0  0  0
  8  7  1  0  0  0  0
 10 11  1  0  0  0  0
 11  8  1  0  0  0  0
 11  9  2  0  0  0  0
 12 10  1  0  0  0  0
 13 21  1  0  0  0  0
 13 20  2  0  0  0  0
 14 24  1  6  0  0  0
 14 22  1  0  0  0  0
 15 21  2  0  0  0  0
 16 22  1  0  0  0  0
 18 20  1  0  0  0  0
 19 17  2  0  0  0  0
 19 12  1  0  0  0  0
 20 16  1  0  0  0  0
 21 14  1  0  0  0  0
 22 19  1  0  0  0  0
 23 24  1  0  0  0  0
 25 26  2  0  0  0  0
 26 27  1  0  0  0  0
 27 28  1  0  0  0  0
 30 32  1  0  0  0  0
 30 33  1  0  0  0  0
 31 29  1  0  0  0  0
 32 34  1  6  0  0  0
 32 31  1  0  0  0  0
 33 28  1  1  0  0  0
 33 29  1  0  0  0  0
 34 35  1  0  0  0  0
 36 41  1  6  0  0  0
 36 35  1  0  0  0  0
 36 37  1  0  0  0  0
 37 38  1  0  0  0  0
 38 40  1  0  0  0  0
 40 39  1  0  0  0  0
 42 41  1  0  0  0  0
 43 42  1  0  0  0  0
 44  3  1  0  0  0  0
 45 44  1  0  0  0  0
 46 45  1  0  0  0  0
 47 46  1  0  0  0  0
 48 50  1  0  0  0  0
 48 47  1  0  0  0  0
 49 50  2  0  0  0  0
 50 52  1  0  0  0  0
 50 51  1  0  0  0  0
M  END
>  <MODEL>
7

>  <REMARK>
 VINA RESULT:      -3.3      3.789     10.404
  Name = 
  22 active torsions:
  status: ('A' for Active; 'I' for Inactive)
    1  A    between atoms: C_5  and  C_10
    2  A    between atoms: C_5  and  C_19
    3  A    between atoms: N_6  and  C_44
    4  A    between atoms: C_8  and  C_40
    5  A    between atoms: C_9  and  C_48
    6  A    between atoms: C_12  and  C_51
    7  A    between atoms: S_13  and  C_37
    8  A    between atoms: S_13  and  C_40
    9  A    between atoms: C_14  and  C_45
   10  A    between atoms: C_14  and  N_50
   11  A    between atoms: N_16  and  C_36
   12  A    between atoms: C_17  and  C_31
   13  A    between atoms: C_19  and  C_45
   14  A    between atoms: N_20  and  C_28
   15  A    between atoms: N_20  and  C_39
   16  A    between atoms: C_28  and  C_48
   17  A    between atoms: C_28  and  O_49
   18  A    between atoms: C_31  and  O_49
   19  A    between atoms: C_33  and  C_36
   20  A    between atoms: C_34  and  C_39
   21  A    between atoms: C_37  and  C_41
   22  A    between atoms: P_42  and  N_50
                            x       y       z     vdW  Elec       q    Type
                         _______ _______ _______ _____ _____    ______ ____

>  <TORSDO>
F 22

$$$$
=
 OpenBabel11042420533D

 52 54  0  0  1  0  0  0  0  0999 V2000
  161.1290  203.2490  145.9820 F   0  0  0  0  0  0  0  0  0  0  0  0
  161.5090  205.3980  148.9250 C   0  0  0  0  0  0  0  0  0  0  0  0
  162.2080  206.4900  148.3550 C   0  0  0  0  0  0  0  0  0  0  0  0
  161.1530  204.3220  148.1020 C   0  0  0  0  0  3  0  0  0  0  0  0
  162.5320  206.4720  146.9950 C   0  0  0  0  0  3  0  0  0  0  0  0
  161.4850  204.3120  146.7460 C   0  0  0  0  0  0  0  0  0  0  0  0
  162.1800  205.3870  146.1820 C   0  0  0  0  0  0  0  0  0  0  0  0
  162.5110  205.3540  144.7850 N   0  0  0  0  0  2  0  0  0  0  0  0
  160.6830  206.5580  143.9410 O   0  0  0  0  0  0  0  0  0  0  0  0
  162.2630  205.8520  142.3840 N   0  0  0  0  0  2  0  0  0  0  0  0
  161.7630  205.9490  143.7170 C   0  0  0  0  0  0  0  0  0  0  0  0
  161.5790  206.4880  141.2680 C   0  0  0  0  0  2  0  0  0  0  0  0
  160.5850  210.1660  137.8910 N   0  0  0  0  0  0  0  0  0  0  0  0
  162.6810  209.5740  139.1880 C   0  0  2  0  0  3  0  0  0  0  0  0
  162.7010  210.5810  137.0120 O   0  0  0  0  0  0  0  0  0  0  0  0
  160.3710  208.7450  139.8080 C   0  0  0  0  0  2  0  0  0  0  0  0
  163.6020  207.7140  141.0850 O   0  0  0  0  0  0  0  0  0  0  0  0
  158.3100  209.6040  138.8290 C   0  0  0  0  0  1  0  0  0  0  0  0
  162.3900  207.6310  140.7510 C   0  0  0  0  0  0  0  0  0  0  0  0
  159.7920  209.5000  138.8770 C   0  0  0  0  0  0  0  0  0  0  0  0
  162.0110  210.1260  137.9620 C   0  0  0  0  0  0  0  0  0  0  0  0
  161.8040  208.6270  139.8900 N   0  0  0  0  0  0  0  0  0  0  0  0
  162.6580  212.0450  139.5420 C   0  0  0  0  0  1  0  0  0  0  0  0
  163.0760  210.7080  140.1250 C   0  0  0  0  0  2  0  0  0  0  0  0
  161.0680  204.2330  150.9590 O   0  0  0  0  0  0  0  0  0  0  0  0
  161.1520  205.3390  150.3630 C   0  0  0  0  0  0  0  0  0  0  0  0
  160.8300  206.8370  151.2980 S   0  0  0  0  0  0  0  0  0  0  0  0
  161.9580  206.3550  152.6400 C   0  0  0  0  0  2  0  0  0  0  0  0
  160.8560  206.5080  154.8480 C   0  0  0  0  0  2  0  0  0  0  0  0
  161.1160  208.4350  153.5000 O   0  0  0  0  0  0  0  0  0  0  0  0
  160.0810  207.6110  155.4970 C   0  0  0  0  0  2  0  0  0  0  0  0
  160.2920  208.8010  154.5810 C   0  0  1  0  0  3  0  0  0  0  0  0
  161.7390  207.2270  153.8620 C   0  0  2  0  0  3  0  0  0  0  0  0
  160.8880  209.9850  155.3360 C   0  0  0  0  0  2  0  0  0  0  0  0
  159.8980  210.6470  156.0920 O   0  0  0  0  0  0  0  0  0  0  0  0
  159.0120  211.3200  155.2200 C   0  0  2  0  0  3  0  0  0  0  0  0
  159.7070  212.2670  154.3460 N   0  0  0  0  0  2  0  0  0  0  0  0
  159.2080  212.0720  152.9930 C   0  0  0  0  0  2  0  0  0  0  0  0
  159.0490  213.9490  151.3890 C   0  0  0  0  0  1  0  0  0  0  0  0
  158.3820  213.2750  152.5730 C   0  0  0  0  0  2  0  0  0  0  0  0
  157.8520  211.9900  155.9690 C   0  0  0  0  0  2  0  0  0  0  0  0
  158.2350  213.3880  156.4250 C   0  0  0  0  0  2  0  0  0  0  0  0
  157.0000  214.2110  156.7200 C   0  0  0  0  0  1  0  0  0  0  0  0
  162.5450  207.7280  149.1270 C   0  0  0  0  0  2  0  0  0  0  0  0
  161.9430  208.9650  148.4760 C   0  0  0  0  0  2  0  0  0  0  0  0
  162.2930  210.2130  149.2650 C   0  0  0  0  0  2  0  0  0  0  0  0
  161.5190  211.4000  148.7260 C   0  0  0  0  0  2  0  0  0  0  0  0
  161.5760  211.4150  147.2730 N   0  0  0  0  0  2  0  0  0  0  0  0
  162.1990  214.0460  146.4820 O   0  0  0  0  0  1  0  0  0  0  0  0
  160.9320  212.9570  146.7450 P   0  0  0  0  0  0  0  0  0  0  0  0
  160.0140  213.5060  147.8100 O   0  0  0  0  0  1  0  0  0  0  0  0
  160.0580  212.7470  145.3120 O   0  0  0  0  0  0  0  0  0  0  0  0
  1  6  1  0  0  0  0
  2 26  1  0  0  0  0
  3  2  1  0  0  0  0
  3 44  1  0  0  0  0
  4  2  2  0  0  0  0
  5  3  2  0  0  0  0
  6  4  1  0  0  0  0
  7  6  2  0  0  0  0
  7  5  1  0  0  0  0
  8  7  1  0  0  0  0
 10 11  1  0  0  0  0
 11  9  2  0  0  0  0
 11  8  1  0  0  0  0
 12 10  1  0  0  0  0
 13 21  1  0  0  0  0
 13 20  2  0  0  0  0
 14 22  1  0  0  0  0
 14 24  1  1  0  0  0
 15 21  2  0  0  0  0
 16 22  1  0  0  0  0
 18 20  1  0  0  0  0
 19 17  2  0  0  0  0
 19 12  1  0  0  0  0
 20 16  1  0  0  0  0
 21 14  1  0  0  0  0
 22 19  1  0  0  0  0
 23 24  1  0  0  0  0
 26 25  2  0  0  0  0
 26 27  1  0  0  0  0
 27 28  1  0  0  0  0
 29 31  1  0  0  0  0
 30 33  1  0  0  0  0
 30 32  1  0  0  0  0
 32 34  1  1  0  0  0
 32 31  1  0  0  0  0
 33 28  1  6  0  0  0
 33 29  1  0  0  0  0
 34 35  1  0  0  0  0
 36 41  1  1  0  0  0
 36 35  1  0  0  0  0
 37 36  1  0  0  0  0
 38 37  1  0  0  0  0
 39 40  1  0  0  0  0
 40 38  1  0  0  0  0
 41 42  1  0  0  0  0
 42 43  1  0  0  0  0
 45 44  1  0  0  0  0
 45 46  1  0  0  0  0
 47 46  1  0  0  0  0
 48 47  1  0  0  0  0
 49 50  1  0  0  0  0
 50 48  1  0  0  0  0
 50 51  1  0  0  0  0
 52 50  2  0  0  0  0
M  END
>  <MODEL>
8

>  <REMARK>
 VINA RESULT:      -3.0      3.508      8.145
  Name = 
  22 active torsions:
  status: ('A' for Active; 'I' for Inactive)
    1  A    between atoms: C_5  and  C_10
    2  A    between atoms: C_5  and  C_19
    3  A    between atoms: N_6  and  C_44
    4  A    between atoms: C_8  and  C_40
    5  A    between atoms: C_9  and  C_48
    6  A    between atoms: C_12  and  C_51
    7  A    between atoms: S_13  and  C_37
    8  A    between atoms: S_13  and  C_40
    9  A    between atoms: C_14  and  C_45
   10  A    between atoms: C_14  and  N_50
   11  A    between atoms: N_16  and  C_36
   12  A    between atoms: C_17  and  C_31
   13  A    between atoms: C_19  and  C_45
   14  A    between atoms: N_20  and  C_28
   15  A    between atoms: N_20  and  C_39
   16  A    between atoms: C_28  and  C_48
   17  A    between atoms: C_28  and  O_49
   18  A    between atoms: C_31  and  O_49
   19  A    between atoms: C_33  and  C_36
   20  A    between atoms: C_34  and  C_39
   21  A    between atoms: C_37  and  C_41
   22  A    between atoms: P_42  and  N_50
                            x       y       z     vdW  Elec       q    Type
                         _______ _______ _______ _____ _____    ______ ____

>  <TORSDO>
F 22

$$$$
=
 OpenBabel11042420533D

 52 54  0  0  1  0  0  0  0  0999 V2000
  161.9140  206.6970  151.3250 F   0  0  0  0  0  0  0  0  0  0  0  0
  161.3220  210.3010  151.6250 C   0  0  0  0  0  0  0  0  0  0  0  0
  161.6950  210.7290  150.3270 C   0  0  0  0  0  0  0  0  0  0  0  0
  161.4000  208.9360  151.9330 C   0  0  0  0  0  3  0  0  0  0  0  0
  162.1360  209.7910  149.3880 C   0  0  0  0  0  3  0  0  0  0  0  0
  161.8450  208.0090  150.9890 C   0  0  0  0  0  0  0  0  0  0  0  0
  162.2200  208.4300  149.7080 C   0  0  0  0  0  0  0  0  0  0  0  0
  162.6750  207.4590  148.7540 N   0  0  0  0  0  2  0  0  0  0  0  0
  160.7760  207.3690  147.3790 O   0  0  0  0  0  0  0  0  0  0  0  0
  162.5730  206.0310  146.7470 N   0  0  0  0  0  2  0  0  0  0  0  0
  161.9470  206.9720  147.6180 C   0  0  0  0  0  0  0  0  0  0  0  0
  161.9070  205.5480  145.5480 C   0  0  0  0  0  2  0  0  0  0  0  0
  160.9830  202.5670  149.5710 N   0  0  0  0  0  2  0  0  0  0  0  0
  161.2130  202.0570  147.0990 C   0  0  2  0  0  3  0  0  0  0  0  0
  161.8100  200.5180  148.8380 O   0  0  0  0  0  0  0  0  0  0  0  0
  160.7960  204.3800  148.0150 C   0  0  0  0  0  3  0  0  0  0  0  0
  161.6830  203.3620  144.6520 O   0  0  0  0  0  0  0  0  0  0  0  0
  160.1830  204.8390  150.3300 C   0  0  0  0  0  1  0  0  0  0  0  0
  161.6080  204.0890  145.6780 C   0  0  0  0  0  0  0  0  0  0  0  0
  160.6460  203.9210  149.2560 C   0  0  0  0  0  0  0  0  0  0  0  0
  161.3690  201.6600  148.5390 C   0  0  0  0  0  0  0  0  0  0  0  0
  161.2360  203.5190  146.9480 N   0  0  0  0  0  0  0  0  0  0  0  0
  160.1570  200.1520  145.8800 C   0  0  0  0  0  1  0  0  0  0  0  0
  159.9130  201.4980  146.5370 C   0  0  0  0  0  2  0  0  0  0  0  0
  161.1950  211.0640  153.8800 O   0  0  0  0  0  0  0  0  0  0  0  0
  160.8660  211.2400  152.6780 C   0  0  0  0  0  0  0  0  0  0  0  0
  159.8370  212.6540  152.2730 S   0  0  0  0  0  0  0  0  0  0  0  0
  158.2990  211.7700  152.6750 C   0  0  0  0  0  2  0  0  0  0  0  0
  156.8820  211.2960  154.6440 C   0  0  0  0  0  2  0  0  0  0  0  0
  159.0350  212.2390  154.9130 O   0  0  0  0  0  0  0  0  0  0  0  0
  157.0200  211.6810  156.0830 C   0  0  0  0  0  2  0  0  0  0  0  0
  158.4130  212.2760  156.1750 C   0  0  1  0  0  3  0  0  0  0  0  0
  158.2960  211.3360  154.1280 C   0  0  2  0  0  3  0  0  0  0  0  0
  159.2600  211.5500  157.2150 C   0  0  0  0  0  2  0  0  0  0  0  0
  160.5910  211.4120  156.7700 O   0  0  0  0  0  0  0  0  0  0  0  0
  160.8840  210.0410  156.5810 C   0  0  2  0  0  3  0  0  0  0  0  0
  159.8120  209.1730  157.0730 N   0  0  0  0  0  2  0  0  0  0  0  0
  159.6210  208.1070  156.1010 C   0  0  0  0  0  2  0  0  0  0  0  0
  160.6370  206.9770  154.1480 C   0  0  0  0  0  1  0  0  0  0  0  0
  160.9170  207.8630  155.3470 C   0  0  0  0  0  2  0  0  0  0  0  0
  162.2440  209.6470  157.1720 C   0  0  0  0  0  2  0  0  0  0  0  0
  163.3830  210.2450  156.3630 C   0  0  0  0  0  2  0  0  0  0  0  0
  164.2690  211.1010  157.2390 C   0  0  0  0  0  1  0  0  0  0  0  0
  161.5520  212.1480  149.8700 C   0  0  0  0  0  2  0  0  0  0  0  0
  161.7160  212.2610  148.3620 C   0  0  0  0  0  2  0  0  0  0  0  0
  162.5580  213.4710  148.0010 C   0  0  0  0  0  2  0  0  0  0  0  0
  161.8550  214.2910  146.9370 C   0  0  0  0  0  2  0  0  0  0  0  0
  161.5410  213.4560  145.7880 N   0  0  0  0  0  2  0  0  0  0  0  0
  159.2180  214.4190  144.5180 O   0  0  0  0  0  0  0  0  0  0  0  0
  159.7950  213.3460  145.6910 P   0  0  0  0  0  0  0  0  0  0  0  0
  159.1960  213.6990  147.0300 O   0  0  0  0  0  1  0  0  0  0  0  0
  159.3490  211.7650  145.2820 O   0  0  0  0  0  1  0  0  0  0  0  0
  2  4  1  0  0  0  0
  2 26  1  0  0  0  0
  3  2  2  0  0  0  0
  5  7  2  0  0  0  0
  5  3  1  0  0  0  0
  6  1  1  0  0  0  0
  6  4  2  0  0  0  0
  7  6  1  0  0  0  0
  8  7  1  0  0  0  0
  9 11  2  0  0  0  0
 10 11  1  0  0  0  0
 11  8  1  0  0  0  0
 12 19  1  0  0  0  0
 12 10  1  0  0  0  0
 14 24  1  1  0  0  0
 14 21  1  0  0  0  0
 16 20  2  0  0  0  0
 17 19  2  0  0  0  0
 19 22  1  0  0  0  0
 20 13  1  0  0  0  0
 20 18  1  0  0  0  0
 21 15  2  0  0  0  0
 21 13  1  0  0  0  0
 22 14  1  0  0  0  0
 22 16  1  0  0  0  0
 23 24  1  0  0  0  0
 26 25  2  0  0  0  0
 27 28  1  0  0  0  0
 27 26  1  0  0  0  0
 29 31  1  0  0  0  0
 30 32  1  0  0  0  0
 31 32  1  0  0  0  0
 32 34  1  1  0  0  0
 33 28  1  6  0  0  0
 33 29  1  0  0  0  0
 33 30  1  0  0  0  0
 35 34  1  0  0  0  0
 36 35  1  0  0  0  0
 36 37  1  0  0  0  0
 36 41  1  1  0  0  0
 38 37  1  0  0  0  0
 39 40  1  0  0  0  0
 40 38  1  0  0  0  0
 42 41  1  0  0  0  0
 42 43  1  0  0  0  0
 44  3  1  0  0  0  0
 45 44  1  0  0  0  0
 46 45  1  0  0  0  0
 47 46  1  0  0  0  0
 48 47  1  0  0  0  0
 49 50  2  0  0  0  0
 50 48  1  0  0  0  0
 50 51  1  0  0  0  0
 52 50  1  0  0  0  0
M  END
>  <MODEL>
9

>  <REMARK>
 VINA RESULT:      -2.9      3.284      9.678
  Name = 
  22 active torsions:
  status: ('A' for Active; 'I' for Inactive)
    1  A    between atoms: C_5  and  C_10
    2  A    between atoms: C_5  and  C_19
    3  A    between atoms: N_6  and  C_44
    4  A    between atoms: C_8  and  C_40
    5  A    between atoms: C_9  and  C_48
    6  A    between atoms: C_12  and  C_51
    7  A    between atoms: S_13  and  C_37
    8  A    between atoms: S_13  and  C_40
    9  A    between atoms: C_14  and  C_45
   10  A    between atoms: C_14  and  N_50
   11  A    between atoms: N_16  and  C_36
   12  A    between atoms: C_17  and  C_31
   13  A    between atoms: C_19  and  C_45
   14  A    between atoms: N_20  and  C_28
   15  A    between atoms: N_20  and  C_39
   16  A    between atoms: C_28  and  C_48
   17  A    between atoms: C_28  and  O_49
   18  A    between atoms: C_31  and  O_49
   19  A    between atoms: C_33  and  C_36
   20  A    between atoms: C_34  and  C_39
   21  A    between atoms: C_37  and  C_41
   22  A    between atoms: P_42  and  N_50
                            x       y       z     vdW  Elec       q    Type
                         _______ _______ _______ _____ _____    ______ ____

>  <TORSDO>
F 22

$$$$
