=
 OpenBabel11042421323D

 27 31  0  0  1  0  0  0  0  0999 V2000
  161.0290  205.6320  151.3370 C   0  0  0  0  0  0  0  0  0  0  0  0
  161.0100  206.4670  152.5560 C   0  0  0  0  0  0  0  0  0  0  0  0
  160.4670  209.9270  153.7840 C   0  0  2  0  0  3  0  0  0  0  0  0
  160.4800  210.5850  155.0130 O   0  0  0  0  0  1  0  0  0  0  0  0
  160.9670  210.9010  151.6240 C   0  0  0  0  0  3  0  0  0  0  0  0
  159.9110  210.6780  152.6280 C   0  0  0  0  0  2  0  0  0  0  0  0
  160.8500  208.6330  153.6970 C   0  0  0  0  0  0  0  0  0  0  0  0
  160.9550  203.4890  150.1970 C   0  0  0  0  0  0  0  0  0  0  0  0
  161.1400  206.2770  150.1060 C   0  0  2  0  0  3  0  0  0  0  0  0
  160.8180  201.9950  150.2480 C   0  0  0  0  0  2  0  0  0  0  0  0
  161.1510  205.5420  148.9180 C   0  0  0  0  0  3  0  0  0  0  0  0
  161.0720  203.4120  147.7690 O   0  0  0  0  0  0  0  0  0  0  0  0
  161.0980  205.8350  153.8010 C   0  0  0  0  0  3  0  0  0  0  0  0
  160.9880  207.8940  152.4670 C   0  0  0  0  0  0  0  0  0  0  0  0
  160.9340  204.2320  151.3810 C   0  0  0  0  0  3  0  0  0  0  0  0
  161.5570  209.8910  151.0010 C   0  0  0  0  0  0  0  0  0  0  0  0
  160.9870  207.9510  154.9170 C   0  0  0  0  0  3  0  0  0  0  0  0
  161.0500  204.1490  148.9570 C   0  0  0  0  0  0  0  0  0  0  0  0
  160.8040  202.0090  147.7520 C   0  0  0  0  0  2  0  0  0  0  0  0
  161.2540  207.6630  150.0770 O   0  0  0  0  0  0  0  0  0  0  0  0
  161.3970  201.3430  148.9910 C   0  0  0  0  0  2  0  0  0  0  0  0
  161.2140  208.4620  151.2330 C   0  0  0  0  0  0  0  0  0  0  0  0
  161.1200  206.5720  154.9730 C   0  0  0  0  0  3  0  0  0  0  0  0
  162.5470  210.2260  149.9360 C   0  0  0  0  0  2  0  0  0  0  0  0
  161.8900  210.9450  148.8590 N   0  0  0  0  0  2  0  0  0  0  0  0
  162.5010  212.0700  148.2940 C   0  0  0  0  0  0  0  0  0  0  0  0
  163.0060  213.0000  147.8290 N   0  0  0  0  0  0  0  0  0  0  0  0
  1 15  1  0  0  0  0
  1  2  2  0  0  0  0
  2 13  1  0  0  0  0
  3  4  1  1  0  0  0
  5  6  1  0  0  0  0
  6  3  1  0  0  0  0
  7  3  1  0  0  0  0
  7 17  2  0  0  0  0
  8 10  1  0  0  0  0
  8 15  2  0  0  0  0
  9 11  1  1  0  0  0
  9  1  1  0  0  0  0
 11 18  2  0  0  0  0
 12 18  1  0  0  0  0
 13 23  2  0  0  0  0
 14  2  1  0  0  0  0
 14  7  1  0  0  0  0
 16 22  1  0  0  0  0
 16  5  2  0  0  0  0
 17 23  1  0  0  0  0
 18  8  1  0  0  0  0
 19 12  1  0  0  0  0
 19 21  1  0  0  0  0
 20  9  1  0  0  0  0
 20 22  1  0  0  0  0
 21 10  1  0  0  0  0
 22 14  2  0  0  0  0
 24 16  1  0  0  0  0
 25 24  1  0  0  0  0
 26 25  1  0  0  0  0
 27 26  3  0  0  0  0
M  END
>  <MODEL>
1

>  <REMARK>
 VINA RESULT:      -9.6      0.000      0.000
  Name = 
  3 active torsions:
  status: ('A' for Active; 'I' for Inactive)
    1  A    between atoms: C_7  and  C_19
    2  A    between atoms: C_7  and  N_25
    3  A    between atoms: C_11  and  N_25
                            x       y       z     vdW  Elec       q    Type
                         _______ _______ _______ _____ _____    ______ ____

>  <TORSDO>
F 3

$$$$
=
 OpenBabel11042421323D

 27 31  0  0  1  0  0  0  0  0999 V2000
  161.1980  205.7630  150.1090 C   0  0  0  0  0  0  0  0  0  0  0  0
  161.1670  206.2130  151.5160 C   0  0  0  0  0  0  0  0  0  0  0  0
  160.5820  209.1710  153.6810 C   0  0  2  0  0  3  0  0  0  0  0  0
  160.5840  209.4490  155.0470 O   0  0  0  0  0  1  0  0  0  0  0  0
  161.0760  210.7280  151.8930 C   0  0  0  0  0  3  0  0  0  0  0  0
  160.0200  210.2150  152.7860 C   0  0  0  0  0  2  0  0  0  0  0  0
  160.9790  207.9600  153.2290 C   0  0  0  0  0  0  0  0  0  0  0  0
  161.1520  204.0350  148.4030 C   0  0  0  0  0  0  0  0  0  0  0  0
  161.3050  206.7340  149.1150 C   0  0  2  0  0  3  0  0  0  0  0  0
  161.0310  202.5890  148.0230 C   0  0  0  0  0  2  0  0  0  0  0  0
  161.3270  206.3710  147.7660 C   0  0  0  0  0  3  0  0  0  0  0  0
  161.2750  204.6580  146.0550 O   0  0  0  0  0  0  0  0  0  0  0  0
  161.2590  205.2520  152.5290 C   0  0  0  0  0  3  0  0  0  0  0  0
  161.1290  207.6050  151.8400 C   0  0  0  0  0  0  0  0  0  0  0  0
  161.1190  204.4070  149.7500 C   0  0  0  0  0  3  0  0  0  0  0  0
  161.6780  209.9440  151.0100 C   0  0  0  0  0  0  0  0  0  0  0  0
  161.1220  206.9580  154.2040 C   0  0  0  0  0  3  0  0  0  0  0  0
  161.2420  205.0240  147.4050 C   0  0  0  0  0  0  0  0  0  0  0  0
  161.0240  203.3160  145.6360 C   0  0  0  0  0  2  0  0  0  0  0  0
  161.4040  208.0710  149.4850 O   0  0  0  0  0  0  0  0  0  0  0  0
  161.6210  202.3300  146.6350 C   0  0  0  0  0  2  0  0  0  0  0  0
  161.3520  208.5050  150.8220 C   0  0  0  0  0  0  0  0  0  0  0  0
  161.2710  205.6230  153.8630 C   0  0  0  0  0  3  0  0  0  0  0  0
  162.6670  210.5810  150.0910 C   0  0  0  0  0  2  0  0  0  0  0  0
  162.0010  211.0290  148.8810 N   0  0  0  0  0  2  0  0  0  0  0  0
  161.7170  212.3870  148.7020 C   0  0  0  0  0  0  0  0  0  0  0  0
  161.4840  213.5100  148.5530 N   0  0  0  0  0  0  0  0  0  0  0  0
  1  2  2  0  0  0  0
  2 14  1  0  0  0  0
  2 13  1  0  0  0  0
  3  4  1  1  0  0  0
  5  6  1  0  0  0  0
  6  3  1  0  0  0  0
  7  3  1  0  0  0  0
  7 17  2  0  0  0  0
  8 15  2  0  0  0  0
  9 11  1  1  0  0  0
  9 20  1  0  0  0  0
  9  1  1  0  0  0  0
 10  8  1  0  0  0  0
 12 18  1  0  0  0  0
 13 23  2  0  0  0  0
 14  7  1  0  0  0  0
 15  1  1  0  0  0  0
 16  5  2  0  0  0  0
 18 11  2  0  0  0  0
 18  8  1  0  0  0  0
 19 12  1  0  0  0  0
 19 21  1  0  0  0  0
 20 22  1  0  0  0  0
 21 10  1  0  0  0  0
 22 16  1  0  0  0  0
 22 14  2  0  0  0  0
 23 17  1  0  0  0  0
 24 16  1  0  0  0  0
 25 24  1  0  0  0  0
 26 25  1  0  0  0  0
 27 26  3  0  0  0  0
M  END
>  <MODEL>
2

>  <REMARK>
 VINA RESULT:      -9.2      1.074      1.390
  Name = 
  3 active torsions:
  status: ('A' for Active; 'I' for Inactive)
    1  A    between atoms: C_7  and  C_19
    2  A    between atoms: C_7  and  N_25
    3  A    between atoms: C_11  and  N_25
                            x       y       z     vdW  Elec       q    Type
                         _______ _______ _______ _____ _____    ______ ____

>  <TORSDO>
F 3

$$$$
=
 OpenBabel11042421323D

 27 31  0  0  1  0  0  0  0  0999 V2000
  161.1370  206.1700  151.5380 C   0  0  0  0  0  0  0  0  0  0  0  0
  160.9600  204.7840  151.0570 C   0  0  0  0  0  0  0  0  0  0  0  0
  161.5310  202.5470  148.1510 C   0  0  2  0  0  3  0  0  0  0  0  0
  161.3050  201.2090  147.8370 O   0  0  0  0  0  1  0  0  0  0  0  0
  161.6170  204.3980  146.5910 C   0  0  0  0  0  3  0  0  0  0  0  0
  162.3980  203.3170  147.2200 C   0  0  0  0  0  2  0  0  0  0  0  0
  161.0600  203.0680  149.3070 C   0  0  0  0  0  0  0  0  0  0  0  0
  161.2660  207.8340  153.3030 C   0  0  0  0  0  0  0  0  0  0  0  0
  161.3630  207.1660  150.5900 C   0  0  2  0  0  3  0  0  0  0  0  0
  161.2510  208.1830  154.7620 C   0  0  0  0  0  2  0  0  0  0  0  0
  161.5500  208.4940  150.9830 C   0  0  0  0  0  3  0  0  0  0  0  0
  161.6870  210.1610  152.7340 O   0  0  0  0  0  0  0  0  0  0  0  0
  160.5390  203.8090  151.9680 C   0  0  0  0  0  3  0  0  0  0  0  0
  161.1330  204.4600  149.6760 C   0  0  0  0  0  0  0  0  0  0  0  0
  161.0910  206.5070  152.9010 C   0  0  0  0  0  3  0  0  0  0  0  0
  161.0910  205.3810  147.3070 C   0  0  0  0  0  0  0  0  0  0  0  0
  160.5920  202.1390  150.2510 C   0  0  0  0  0  3  0  0  0  0  0  0
  161.5110  208.8310  152.3390 C   0  0  0  0  0  0  0  0  0  0  0  0
  161.8220  210.5230  154.1090 C   0  0  0  0  0  2  0  0  0  0  0  0
  161.3850  206.8230  149.2420 O   0  0  0  0  0  0  0  0  0  0  0  0
  160.9090  209.6590  154.9750 C   0  0  0  0  0  2  0  0  0  0  0  0
  161.2400  205.5020  148.7820 C   0  0  0  0  0  0  0  0  0  0  0  0
  160.3240  202.5020  151.5620 C   0  0  0  0  0  3  0  0  0  0  0  0
  160.3980  206.4750  146.5650 C   0  0  0  0  0  2  0  0  0  0  0  0
  159.9520  205.9900  145.2710 N   0  0  0  0  0  2  0  0  0  0  0  0
  160.8710  205.8370  144.2270 C   0  0  0  0  0  0  0  0  0  0  0  0
  161.6300  205.7100  143.3640 N   0  0  0  0  0  0  0  0  0  0  0  0
  1 15  1  0  0  0  0
  2  1  2  0  0  0  0
  2 13  1  0  0  0  0
  3  4  1  1  0  0  0
  3  7  1  0  0  0  0
  5  6  1  0  0  0  0
  5 16  2  0  0  0  0
  6  3  1  0  0  0  0
  7 14  1  0  0  0  0
  7 17  2  0  0  0  0
  8 10  1  0  0  0  0
  9 11  1  6  0  0  0
  9  1  1  0  0  0  0
 10 21  1  0  0  0  0
 11 18  2  0  0  0  0
 12 19  1  0  0  0  0
 14  2  1  0  0  0  0
 15  8  2  0  0  0  0
 16 22  1  0  0  0  0
 17 23  1  0  0  0  0
 18 12  1  0  0  0  0
 18  8  1  0  0  0  0
 19 21  1  0  0  0  0
 20  9  1  0  0  0  0
 22 20  1  0  0  0  0
 22 14  2  0  0  0  0
 23 13  2  0  0  0  0
 24 16  1  0  0  0  0
 25 24  1  0  0  0  0
 26 25  1  0  0  0  0
 27 26  3  0  0  0  0
M  END
>  <MODEL>
3

>  <REMARK>
 VINA RESULT:      -8.7      2.529      6.776
  Name = 
  3 active torsions:
  status: ('A' for Active; 'I' for Inactive)
    1  A    between atoms: C_7  and  C_19
    2  A    between atoms: C_7  and  N_25
    3  A    between atoms: C_11  and  N_25
                            x       y       z     vdW  Elec       q    Type
                         _______ _______ _______ _____ _____    ______ ____

>  <TORSDO>
F 3

$$$$
=
 OpenBabel11042421323D

 27 31  0  0  1  0  0  0  0  0999 V2000
  161.1210  208.8870  152.5070 C   0  0  0  0  0  0  0  0  0  0  0  0
  161.4710  208.7820  151.0760 C   0  0  0  0  0  0  0  0  0  0  0  0
  161.2620  206.5510  148.1170 C   0  0  2  0  0  3  0  0  0  0  0  0
  161.6490  206.5950  146.7790 O   0  0  0  0  0  1  0  0  0  0  0  0
  161.0210  204.5640  149.4820 C   0  0  0  0  0  3  0  0  0  0  0  0
  160.3460  205.4490  148.5130 C   0  0  0  0  0  2  0  0  0  0  0  0
  161.6290  207.5350  148.9690 C   0  0  0  0  0  0  0  0  0  0  0  0
  160.7410  210.1600  154.5410 C   0  0  0  0  0  0  0  0  0  0  0  0
  160.8160  207.7120  153.1920 C   0  0  0  0  0  0  0  0  0  0  0  0
  160.6650  211.4790  155.2520 C   0  0  0  0  0  2  0  0  0  0  0  0
  160.4660  207.7480  154.5450 C   0  0  0  0  0  3  0  0  0  0  0  0
  160.0790  209.0070  156.5770 O   0  0  0  0  0  0  0  0  0  0  0  0
  161.9680  209.9160  150.4240 C   0  0  0  0  0  3  0  0  0  0  0  0
  161.3850  207.5310  150.3900 C   0  0  0  0  0  0  0  0  0  0  0  0
  161.0800  210.1160  153.1850 C   0  0  0  0  0  2  0  0  0  0  0  0
  161.4060  205.0050  150.6710 C   0  0  0  0  0  0  0  0  0  0  0  0
  162.1660  208.6890  148.3760 C   0  0  0  0  0  3  0  0  0  0  0  0
  160.4180  208.9710  155.2210 C   0  0  0  0  0  0  0  0  0  0  0  0
  159.8550  210.2410  157.2610 C   0  0  0  0  0  2  0  0  0  0  0  0
  160.8810  206.4990  152.5160 O   0  0  0  0  0  0  0  0  0  0  0  0
  160.8290  211.3050  156.7620 C   0  0  0  0  0  2  0  0  0  0  0  0
  161.1920  206.3980  151.1480 C   0  0  0  0  0  0  0  0  0  0  0  0
  162.3450  209.8630  149.0920 C   0  0  0  0  0  3  0  0  0  0  0  0
  161.9950  204.0080  151.6130 C   0  0  0  0  0  2  0  0  0  0  0  0
  161.0870  202.8870  151.7790 N   0  0  0  0  0  2  0  0  0  0  0  0
  161.0910  201.8400  150.8520 C   0  0  0  0  0  0  0  0  0  0  0  0
  161.0960  200.9740  150.0850 N   0  0  0  0  0  0  0  0  0  0  0  0
  1 15  1  0  0  0  0
  1  9  1  0  0  0  0
  2  1  2  0  0  0  0
  3  4  1  6  0  0  0
  3  6  1  0  0  0  0
  3  7  1  0  0  0  0
  5 16  2  0  0  0  0
  6  5  1  0  0  0  0
  7 14  1  0  0  0  0
  8 18  2  0  0  0  0
  8 10  1  0  0  0  0
  9 11  2  0  0  0  0
 10 21  1  0  0  0  0
 11 18  1  0  0  0  0
 12 19  1  0  0  0  0
 13  2  1  0  0  0  0
 14  2  1  0  0  0  0
 14 22  2  0  0  0  0
 15  8  1  0  0  0  0
 16 22  1  0  0  0  0
 16 24  1  0  0  0  0
 17  7  2  0  0  0  0
 17 23  1  0  0  0  0
 18 12  1  0  0  0  0
 20  9  1  0  0  0  0
 21 19  1  0  0  0  0
 22 20  1  0  0  0  0
 23 13  2  0  0  0  0
 24 25  1  0  0  0  0
 26 25  1  0  0  0  0
 27 26  3  0  0  0  0
M  END
>  <MODEL>
4

>  <REMARK>
 VINA RESULT:      -8.0      3.116      7.607
  Name = 
  3 active torsions:
  status: ('A' for Active; 'I' for Inactive)
    1  A    between atoms: C_7  and  C_19
    2  A    between atoms: C_7  and  N_25
    3  A    between atoms: C_11  and  N_25
                            x       y       z     vdW  Elec       q    Type
                         _______ _______ _______ _____ _____    ______ ____

>  <TORSDO>
F 3

$$$$
=
 OpenBabel11042421323D

 27 31  0  0  1  0  0  0  0  0999 V2000
  161.7350  206.7710  148.4800 C   0  0  0  0  0  0  0  0  0  0  0  0
  161.7950  205.5580  147.6380 C   0  0  0  0  0  0  0  0  0  0  0  0
  160.7220  202.0100  147.4490 C   0  0  2  0  0  3  0  0  0  0  0  0
  160.8570  200.9520  146.5520 O   0  0  0  0  0  1  0  0  0  0  0  0
  160.4560  201.8380  149.8500 C   0  0  0  0  0  3  0  0  0  0  0  0
  159.7470  201.8290  148.5570 C   0  0  0  0  0  2  0  0  0  0  0  0
  161.3780  203.1740  147.2380 C   0  0  0  0  0  0  0  0  0  0  0  0
  161.9260  209.1690  148.8140 C   0  0  0  0  0  0  0  0  0  0  0  0
  161.3980  206.6160  149.8230 C   0  0  0  0  0  0  0  0  0  0  0  0
  162.1730  210.5410  148.2610 C   0  0  0  0  0  2  0  0  0  0  0  0
  161.3140  207.7260  150.6680 C   0  0  0  0  0  3  0  0  0  0  0  0
  161.4940  210.1160  151.0130 O   0  0  0  0  0  0  0  0  0  0  0  0
  162.3200  205.6670  146.3450 C   0  0  0  0  0  3  0  0  0  0  0  0
  161.4050  204.2850  148.1570 C   0  0  0  0  0  0  0  0  0  0  0  0
  161.9980  208.0540  147.9740 C   0  0  0  0  0  2  0  0  0  0  0  0
  161.1140  202.9070  150.2730 C   0  0  0  0  0  0  0  0  0  0  0  0
  161.9560  203.3300  145.9680 C   0  0  0  0  0  3  0  0  0  0  0  0
  161.5680  209.0050  150.1660 C   0  0  0  0  0  0  0  0  0  0  0  0
  161.5810  211.4490  150.5080 C   0  0  0  0  0  2  0  0  0  0  0  0
  161.1610  205.3370  150.3180 O   0  0  0  0  0  0  0  0  0  0  0  0
  162.5880  211.5170  149.3630 C   0  0  0  0  0  2  0  0  0  0  0  0
  161.1940  204.1840  149.5140 C   0  0  0  0  0  0  0  0  0  0  0  0
  162.4310  204.5560  145.5270 C   0  0  0  0  0  3  0  0  0  0  0  0
  161.7190  202.8450  151.6360 C   0  0  0  0  0  2  0  0  0  0  0  0
  160.8460  203.5000  152.5950 N   0  0  0  0  0  2  0  0  0  0  0  0
  161.2060  204.7390  153.1360 C   0  0  0  0  0  0  0  0  0  0  0  0
  161.5020  205.7630  153.5840 N   0  0  0  0  0  0  0  0  0  0  0  0
  1  9  1  0  0  0  0
  2 14  1  0  0  0  0
  2  1  2  0  0  0  0
  3  4  1  6  0  0  0
  3  6  1  0  0  0  0
  5 16  2  0  0  0  0
  6  5  1  0  0  0  0
  7  3  1  0  0  0  0
  7 14  1  0  0  0  0
  8 18  2  0  0  0  0
  9 20  1  0  0  0  0
  9 11  2  0  0  0  0
 10  8  1  0  0  0  0
 10 21  1  0  0  0  0
 13  2  1  0  0  0  0
 14 22  2  0  0  0  0
 15  1  1  0  0  0  0
 15  8  1  0  0  0  0
 16 24  1  0  0  0  0
 17  7  2  0  0  0  0
 18 11  1  0  0  0  0
 18 12  1  0  0  0  0
 19 12  1  0  0  0  0
 21 19  1  0  0  0  0
 22 16  1  0  0  0  0
 22 20  1  0  0  0  0
 23 17  1  0  0  0  0
 23 13  2  0  0  0  0
 24 25  1  0  0  0  0
 25 26  1  0  0  0  0
 26 27  3  0  0  0  0
M  END
>  <MODEL>
5

>  <REMARK>
 VINA RESULT:      -7.9      3.027      7.807
  Name = 
  3 active torsions:
  status: ('A' for Active; 'I' for Inactive)
    1  A    between atoms: C_7  and  C_19
    2  A    between atoms: C_7  and  N_25
    3  A    between atoms: C_11  and  N_25
                            x       y       z     vdW  Elec       q    Type
                         _______ _______ _______ _____ _____    ______ ____

>  <TORSDO>
F 3

$$$$
=
 OpenBabel11042421323D

 27 31  0  0  1  0  0  0  0  0999 V2000
  161.0930  206.3650  152.3710 C   0  0  0  0  0  0  0  0  0  0  0  0
  160.9470  205.3010  151.3560 C   0  0  0  0  0  0  0  0  0  0  0  0
  161.9130  204.3270  147.9070 C   0  0  2  0  0  3  0  0  0  0  0  0
  161.6940  203.2460  147.0550 O   0  0  0  0  0  1  0  0  0  0  0  0
  162.3260  206.6200  147.2460 C   0  0  0  0  0  3  0  0  0  0  0  0
  162.9510  205.3070  147.4920 C   0  0  0  0  0  2  0  0  0  0  0  0
  161.2760  204.4010  149.0970 C   0  0  0  0  0  0  0  0  0  0  0  0
  160.9860  207.1890  154.6530 C   0  0  0  0  0  0  0  0  0  0  0  0
  161.5100  207.6230  151.9410 C   0  0  2  0  0  3  0  0  0  0  0  0
  160.7400  206.9420  156.1120 C   0  0  0  0  0  2  0  0  0  0  0  0
  161.6770  208.6670  152.8550 C   0  0  0  0  0  3  0  0  0  0  0  0
  161.5810  209.4990  155.1280 O   0  0  0  0  0  0  0  0  0  0  0  0
  160.3450  204.0950  151.7320 C   0  0  0  0  0  3  0  0  0  0  0  0
  161.3360  205.5240  149.9990 C   0  0  0  0  0  0  0  0  0  0  0  0
  160.8320  206.1470  153.7340 C   0  0  0  0  0  3  0  0  0  0  0  0
  161.7240  207.2940  148.2160 C   0  0  0  0  0  0  0  0  0  0  0  0
  160.6220  203.2290  149.5160 C   0  0  0  0  0  3  0  0  0  0  0  0
  161.4250  208.4520  154.2130 C   0  0  0  0  0  0  0  0  0  0  0  0
  161.4980  209.2820  156.5360 C   0  0  0  0  0  2  0  0  0  0  0  0
  161.7450  207.8320  150.5860 O   0  0  0  0  0  0  0  0  0  0  0  0
  160.4220  208.2450  156.8490 C   0  0  0  0  0  2  0  0  0  0  0  0
  161.6300  206.8150  149.6210 C   0  0  0  0  0  0  0  0  0  0  0  0
  160.1520  203.0790  150.8120 C   0  0  0  0  0  3  0  0  0  0  0  0
  161.2060  208.6540  147.8860 C   0  0  0  0  0  2  0  0  0  0  0  0
  161.9560  209.6600  148.6160 N   0  0  0  0  0  2  0  0  0  0  0  0
  161.8460  211.0090  148.2610 C   0  0  0  0  0  0  0  0  0  0  0  0
  161.7540  212.1230  147.9670 N   0  0  0  0  0  0  0  0  0  0  0  0
  1 15  1  0  0  0  0
  2 13  1  0  0  0  0
  2  1  2  0  0  0  0
  3  4  1  1  0  0  0
  3  7  1  0  0  0  0
  5  6  1  0  0  0  0
  5 16  2  0  0  0  0
  6  3  1  0  0  0  0
  7 17  2  0  0  0  0
  7 14  1  0  0  0  0
  8 10  1  0  0  0  0
  9  1  1  0  0  0  0
  9 11  1  6  0  0  0
 10 21  1  0  0  0  0
 11 18  2  0  0  0  0
 12 19  1  0  0  0  0
 14  2  1  0  0  0  0
 15  8  2  0  0  0  0
 16 22  1  0  0  0  0
 17 23  1  0  0  0  0
 18  8  1  0  0  0  0
 18 12  1  0  0  0  0
 19 21  1  0  0  0  0
 20  9  1  0  0  0  0
 22 14  2  0  0  0  0
 22 20  1  0  0  0  0
 23 13  2  0  0  0  0
 24 16  1  0  0  0  0
 24 25  1  0  0  0  0
 26 25  1  0  0  0  0
 27 26  3  0  0  0  0
M  END
>  <MODEL>
6

>  <REMARK>
 VINA RESULT:      -7.2      1.414      6.030
  Name = 
  3 active torsions:
  status: ('A' for Active; 'I' for Inactive)
    1  A    between atoms: C_7  and  C_19
    2  A    between atoms: C_7  and  N_25
    3  A    between atoms: C_11  and  N_25
                            x       y       z     vdW  Elec       q    Type
                         _______ _______ _______ _____ _____    ______ ____

>  <TORSDO>
F 3

$$$$
=
 OpenBabel11042421323D

 27 31  0  0  1  0  0  0  0  0999 V2000
  161.7410  208.2850  148.8800 C   0  0  0  0  0  0  0  0  0  0  0  0
  161.8020  206.8780  148.4320 C   0  0  0  0  0  0  0  0  0  0  0  0
  160.9090  203.4070  149.3960 C   0  0  2  0  0  3  0  0  0  0  0  0
  161.0320  202.1330  148.8440 O   0  0  0  0  0  1  0  0  0  0  0  0
  160.8340  203.9530  151.7540 C   0  0  0  0  0  3  0  0  0  0  0  0
  160.0310  203.5380  150.5890 C   0  0  0  0  0  2  0  0  0  0  0  0
  161.4840  204.4730  148.7940 C   0  0  0  0  0  0  0  0  0  0  0  0
  161.8280  210.6780  148.4710 C   0  0  0  0  0  0  0  0  0  0  0  0
  161.5140  208.5290  150.2330 C   0  0  0  0  0  0  0  0  0  0  0  0
  161.9590  211.8280  147.5170 C   0  0  0  0  0  2  0  0  0  0  0  0
  161.4340  209.8390  150.7150 C   0  0  0  0  0  3  0  0  0  0  0  0
  161.5120  212.2270  150.3200 O   0  0  0  0  0  0  0  0  0  0  0  0
  162.2220  206.6100  147.1240 C   0  0  0  0  0  3  0  0  0  0  0  0
  161.5200  205.8080  149.3360 C   0  0  0  0  0  0  0  0  0  0  0  0
  161.8960  209.3650  147.9960 C   0  0  0  0  0  2  0  0  0  0  0  0
  161.4640  205.1190  151.7820 C   0  0  0  0  0  0  0  0  0  0  0  0
  161.9560  204.2580  147.4880 C   0  0  0  0  0  3  0  0  0  0  0  0
  161.5810  210.9160  149.8370 C   0  0  0  0  0  0  0  0  0  0  0  0
  161.4900  213.3500  149.4380 C   0  0  0  0  0  2  0  0  0  0  0  0
  161.3830  207.4510  151.1020 O   0  0  0  0  0  0  0  0  0  0  0  0
  162.4030  213.1000  148.2410 C   0  0  0  0  0  2  0  0  0  0  0  0
  161.4180  206.1120  150.6760 C   0  0  0  0  0  0  0  0  0  0  0  0
  162.3310  205.3080  146.6650 C   0  0  0  0  0  3  0  0  0  0  0  0
  162.1710  205.4850  153.0440 C   0  0  0  0  0  2  0  0  0  0  0  0
  161.2060  205.8660  154.0600 N   0  0  0  0  0  2  0  0  0  0  0  0
  161.0000  207.2180  154.3570 C   0  0  0  0  0  0  0  0  0  0  0  0
  160.8310  208.3350  154.6020 N   0  0  0  0  0  0  0  0  0  0  0  0
  1  9  1  0  0  0  0
  2  1  2  0  0  0  0
  2 14  1  0  0  0  0
  3  4  1  6  0  0  0
  3  6  1  0  0  0  0
  5 16  2  0  0  0  0
  6  5  1  0  0  0  0
  7 14  1  0  0  0  0
  7  3  1  0  0  0  0
  8 18  2  0  0  0  0
  9 11  2  0  0  0  0
  9 20  1  0  0  0  0
 10 21  1  0  0  0  0
 10  8  1  0  0  0  0
 13  2  1  0  0  0  0
 14 22  2  0  0  0  0
 15  8  1  0  0  0  0
 15  1  1  0  0  0  0
 16 24  1  0  0  0  0
 17  7  2  0  0  0  0
 18 12  1  0  0  0  0
 18 11  1  0  0  0  0
 19 12  1  0  0  0  0
 21 19  1  0  0  0  0
 22 20  1  0  0  0  0
 22 16  1  0  0  0  0
 23 13  2  0  0  0  0
 23 17  1  0  0  0  0
 24 25  1  0  0  0  0
 25 26  1  0  0  0  0
 26 27  3  0  0  0  0
M  END
>  <MODEL>
7

>  <REMARK>
 VINA RESULT:      -6.7      2.657      7.282
  Name = 
  3 active torsions:
  status: ('A' for Active; 'I' for Inactive)
    1  A    between atoms: C_7  and  C_19
    2  A    between atoms: C_7  and  N_25
    3  A    between atoms: C_11  and  N_25
                            x       y       z     vdW  Elec       q    Type
                         _______ _______ _______ _____ _____    ______ ____

>  <TORSDO>
F 3

$$$$
