=
 OpenBabel11042422133D

 50 55  0  0  1  0  0  0  0  0999 V2000
  160.2670  210.0290  152.7570 C   0  0  1  0  0  3  0  0  0  0  0  0
  160.6880  206.9810  155.5410 F   0  0  0  0  0  0  0  0  0  0  0  0
  161.2280  207.7100  152.0720 C   0  0  0  0  0  0  0  0  0  0  0  0
  161.2490  209.0740  154.7490 N   0  0  0  0  0  0  0  0  0  0  0  0
  160.5570  207.8380  154.4670 C   0  0  1  0  0  3  0  0  0  0  0  0
  160.9580  209.1560  151.7130 C   0  0  0  0  0  2  0  0  0  0  0  0
  161.0860  207.1970  153.2660 N   0  0  0  0  0  0  0  0  0  0  0  0
  161.1140  210.1010  153.9880 C   0  0  0  0  0  3  0  0  0  0  0  0
  160.0780  211.3420  152.2370 O   0  0  0  0  0  0  0  0  0  0  0  0
  158.3950  212.0930  153.8470 C   0  0  0  0  0  3  0  0  0  0  0  0
  158.9770  212.1450  152.5630 C   0  0  0  0  0  0  0  0  0  0  0  0
  157.3380  213.8320  151.8960 C   0  0  0  0  0  3  0  0  0  0  0  0
  158.4510  213.0230  151.5850 C   0  0  0  0  0  0  0  0  0  0  0  0
  156.7910  213.7470  153.1740 C   0  0  0  0  0  0  0  0  0  0  0  0
  157.3010  212.9110  154.1160 C   0  0  0  0  0  0  0  0  0  0  0  0
  155.7140  214.4520  153.6590 O   0  0  0  0  0  0  0  0  0  0  0  0
  155.4620  214.0900  155.0150 C   0  0  0  0  0  3  0  0  0  0  0  0
  156.5270  213.0320  155.3750 C   0  0  0  0  0  3  0  0  0  0  0  0
  158.5470  213.6970  149.1110 C   0  0  0  0  0  0  0  0  0  0  0  0
  159.0650  213.0630  150.2880 N   0  0  0  0  0  2  0  0  0  0  0  0
  157.4660  214.3440  149.1450 O   0  0  0  0  0  0  0  0  0  0  0  0
  159.3650  213.6540  147.8540 C   0  0  1  0  0  3  0  0  0  0  0  0
  163.1700  212.1610  148.5130 C   0  0  0  0  0  1  0  0  0  0  0  0
  161.8310  212.6910  148.2800 C   0  0  0  0  0  0  0  0  0  0  0  0
  160.7230  213.1270  148.0870 C   0  0  0  0  0  0  0  0  0  0  0  0
  157.4870  213.8600  146.1270 C   0  0  0  0  0  2  0  0  0  0  0  0
  158.5980  212.9910  146.6880 C   0  0  0  0  0  0  0  0  0  0  0  0
  157.1410  212.5840  146.8730 C   0  0  0  0  0  2  0  0  0  0  0  0
  160.2660  213.3120  144.8190 C   0  0  1  0  0  3  0  0  0  0  0  0
  161.3160  212.6300  144.2080 O   0  0  0  0  0  1  0  0  0  0  0  0
  158.9600  212.8550  144.2130 C   0  0  0  0  0  2  0  0  0  0  0  0
  159.3920  212.3140  145.5640 C   0  0  2  0  0  3  0  0  0  0  0  0
  161.6930  206.9040  151.0320 O   0  0  0  0  0  0  0  0  0  0  0  0
  162.1400  205.5690  151.2310 C   0  0  0  0  0  2  0  0  0  0  0  0
  160.3480  202.1250  150.8060 C   0  0  0  0  0  2  0  0  0  0  0  0
  161.0100  202.2040  148.3290 C   0  0  0  0  0  0  0  0  0  0  0  0
  161.1230  201.6570  147.0560 O   0  0  0  0  0  1  0  0  0  0  0  0
  161.1280  203.4780  148.5240 C   0  0  0  0  0  0  0  0  0  0  0  0
  161.1330  204.6030  150.6320 C   0  0  1  0  0  3  0  0  0  0  0  0
  161.2030  204.6290  149.1130 C   0  0  0  0  0  0  0  0  0  0  0  0
  161.3570  203.2000  151.2640 C   0  0  0  0  0  2  0  0  0  0  0  0
  160.8030  201.3420  149.5450 C   0  0  0  0  0  2  0  0  0  0  0  0
  161.0110  205.8810  148.3090 C   0  0  1  0  0  3  0  0  0  0  0  0
  162.3170  206.4360  147.8310 C   0  0  0  0  0  0  0  0  0  0  0  0
  162.6900  207.7210  148.1910 O   0  0  0  0  0  1  0  0  0  0  0  0
  163.0960  205.7330  147.1380 O   0  0  0  0  0  0  0  0  0  0  0  0
  160.1470  205.6540  147.2340 O   0  0  0  0  0  0  0  0  0  0  0  0
  160.5980  206.5030  146.2210 C   0  0  0  0  0  2  0  0  0  0  0  0
  160.8670  204.4280  144.9110 C   0  0  0  0  0  1  0  0  0  0  0  0
  160.3560  205.8510  144.8790 C   0  0  0  0  0  2  0  0  0  0  0  0
  1  9  1  6  0  0  0
  1  8  1  0  0  0  0
  3  7  2  0  0  0  0
  5  4  1  0  0  0  0
  5  2  1  1  0  0  0
  6  3  1  0  0  0  0
  6  1  1  0  0  0  0
  7  5  1  0  0  0  0
  8  4  2  0  0  0  0
  9 11  1  0  0  0  0
 10 15  1  0  0  0  0
 11 10  2  0  0  0  0
 12 14  1  0  0  0  0
 13 12  2  0  0  0  0
 13 11  1  0  0  0  0
 14 16  1  0  0  0  0
 14 15  2  0  0  0  0
 15 18  1  0  0  0  0
 16 17  1  0  0  0  0
 17 18  2  0  0  0  0
 19 21  2  0  0  0  0
 19 20  1  0  0  0  0
 20 13  1  0  0  0  0
 22 25  1  1  0  0  0
 22 19  1  0  0  0  0
 24 23  1  0  0  0  0
 25 24  3  0  0  0  0
 26 27  1  0  0  0  0
 26 28  1  0  0  0  0
 27 28  1  0  0  0  0
 27 22  1  0  0  0  0
 29 30  1  6  0  0  0
 29 32  1  0  0  0  0
 31 29  1  0  0  0  0
 32 31  1  6  0  0  0
 32 27  1  0  0  0  0
 33 34  1  0  0  0  0
 33  3  1  0  0  0  0
 35 41  1  0  0  0  0
 36 38  2  0  0  0  0
 36 42  1  0  0  0  0
 37 36  1  0  0  0  0
 38 40  2  0  0  0  0
 39 34  1  1  0  0  0
 39 41  1  0  0  0  0
 40 39  1  0  0  0  0
 42 35  1  0  0  0  0
 43 47  1  6  0  0  0
 43 40  1  0  0  0  0
 44 45  1  0  0  0  0
 44 43  1  0  0  0  0
 46 44  2  0  0  0  0
 48 47  1  0  0  0  0
 50 49  1  0  0  0  0
 50 48  1  0  0  0  0
M  END
>  <MODEL>
1

>  <REMARK>
 VINA RESULT:      -8.5      0.000      0.000
  Name = 
  15 active torsions:
  status: ('A' for Active; 'I' for Inactive)
    1  A    between atoms: C_3  and  C_16
    2  A    between atoms: C_3  and  C_20
    3  A    between atoms: C_3  and  C_46
    4  A    between atoms: C_5  and  O_23
    5  A    between atoms: C_8  and  C_13
    6  A    between atoms: C_8  and  O_25
    7  A    between atoms: C_8  and  C_30
    8  A    between atoms: C_11  and  O_23
    9  A    between atoms: C_20  and  C_38
   10  A    between atoms: C_21  and  O_25
   11  A    between atoms: C_21  and  C_41
   12  A    between atoms: C_22  and  O_33
   13  A    between atoms: C_24  and  N_36
   14  A    between atoms: C_26  and  C_44
   15  A    between atoms: O_33  and  C_44
                            x       y       z     vdW  Elec       q    Type
                         _______ _______ _______ _____ _____    ______ ____

>  <TORSDO>
F 15

$$$$
=
 OpenBabel11042422133D

 50 55  0  0  1  0  0  0  0  0999 V2000
  160.9700  209.8520  153.5880 C   0  0  1  0  0  3  0  0  0  0  0  0
  159.1780  207.0410  156.0570 F   0  0  0  0  0  0  0  0  0  0  0  0
  161.3290  207.3050  153.2000 C   0  0  0  0  0  0  0  0  0  0  0  0
  160.6580  208.7790  155.7310 N   0  0  0  0  0  0  0  0  0  0  0  0
  159.7930  207.8150  155.0940 C   0  0  1  0  0  3  0  0  0  0  0  0
  161.7150  208.7310  152.8690 C   0  0  0  0  0  2  0  0  0  0  0  0
  160.5410  206.9520  154.1820 N   0  0  0  0  0  0  0  0  0  0  0  0
  161.1940  209.7370  155.0610 C   0  0  0  0  0  3  0  0  0  0  0  0
  161.4500  211.1160  153.1340 O   0  0  0  0  0  0  0  0  0  0  0  0
  161.8830  211.1010  150.7260 C   0  0  0  0  0  3  0  0  0  0  0  0
  161.2010  211.6150  151.8490 C   0  0  0  0  0  0  0  0  0  0  0  0
  159.9900  213.1640  150.3960 C   0  0  0  0  0  3  0  0  0  0  0  0
  160.2450  212.6460  151.6830 C   0  0  0  0  0  0  0  0  0  0  0  0
  160.6870  212.6320  149.3160 C   0  0  0  0  0  0  0  0  0  0  0  0
  161.5980  211.6360  149.4720 C   0  0  0  0  0  0  0  0  0  0  0  0
  160.5740  213.0050  147.9960 O   0  0  0  0  0  0  0  0  0  0  0  0
  161.4510  212.2220  147.1880 C   0  0  0  0  0  3  0  0  0  0  0  0
  162.1790  211.2670  148.1590 C   0  0  0  0  0  3  0  0  0  0  0  0
  158.3410  212.6440  153.4040 C   0  0  0  0  0  0  0  0  0  0  0  0
  159.5590  213.1480  152.8410 N   0  0  0  0  0  2  0  0  0  0  0  0
  157.7720  211.6310  152.9170 O   0  0  0  0  0  0  0  0  0  0  0  0
  157.8030  213.2920  154.6460 C   0  0  1  0  0  3  0  0  0  0  0  0
  153.8420  214.4210  154.2230 C   0  0  0  0  0  1  0  0  0  0  0  0
  155.2390  214.0280  154.3730 C   0  0  0  0  0  0  0  0  0  0  0  0
  156.3930  213.7000  154.4970 C   0  0  0  0  0  0  0  0  0  0  0  0
  158.2130  213.3040  157.1720 C   0  0  0  0  0  2  0  0  0  0  0  0
  158.1140  212.4630  155.9120 C   0  0  0  0  0  0  0  0  0  0  0  0
  159.4550  212.6300  156.6170 C   0  0  0  0  0  2  0  0  0  0  0  0
  155.9030  211.2730  155.6420 C   0  0  1  0  0  3  0  0  0  0  0  0
  155.4120  209.9900  155.4080 O   0  0  0  0  0  1  0  0  0  0  0  0
  156.1740  211.4370  157.1190 C   0  0  0  0  0  2  0  0  0  0  0  0
  157.3270  211.1720  156.1680 C   0  0  2  0  0  3  0  0  0  0  0  0
  161.9010  206.3200  152.3950 O   0  0  0  0  0  0  0  0  0  0  0  0
  161.7610  206.3010  150.9800 C   0  0  0  0  0  2  0  0  0  0  0  0
  160.2780  202.7010  151.2790 C   0  0  0  0  0  2  0  0  0  0  0  0
  161.0930  202.2790  148.8840 C   0  0  0  0  0  0  0  0  0  0  0  0
  161.3310  201.4710  147.7780 O   0  0  0  0  0  1  0  0  0  0  0  0
  161.0970  203.5690  148.7850 C   0  0  0  0  0  0  0  0  0  0  0  0
  160.8750  205.1370  150.5740 C   0  0  1  0  0  3  0  0  0  0  0  0
  161.0420  204.8250  149.0950 C   0  0  0  0  0  0  0  0  0  0  0  0
  161.1670  203.9390  151.5220 C   0  0  0  0  0  2  0  0  0  0  0  0
  160.8750  201.6980  150.2550 C   0  0  0  0  0  2  0  0  0  0  0  0
  160.8050  205.8400  148.0160 C   0  0  1  0  0  3  0  0  0  0  0  0
  161.6730  207.0470  148.1940 C   0  0  0  0  0  0  0  0  0  0  0  0
  163.0270  206.9680  147.9070 O   0  0  0  0  0  0  0  0  0  0  0  0
  161.1790  208.1420  148.5670 O   0  0  0  0  0  1  0  0  0  0  0  0
  160.9950  205.2760  146.7520 O   0  0  0  0  0  0  0  0  0  0  0  0
  160.4880  206.2180  145.8540 C   0  0  0  0  0  2  0  0  0  0  0  0
  161.4610  204.4320  144.4560 C   0  0  0  0  0  1  0  0  0  0  0  0
  160.8760  205.8270  144.4470 C   0  0  0  0  0  2  0  0  0  0  0  0
  1  9  1  6  0  0  0
  1  8  1  0  0  0  0
  3  7  2  0  0  0  0
  5  4  1  0  0  0  0
  5  2  1  1  0  0  0
  6  3  1  0  0  0  0
  6  1  1  0  0  0  0
  7  5  1  0  0  0  0
  8  4  2  0  0  0  0
 10 11  1  0  0  0  0
 11  9  1  0  0  0  0
 12 13  1  0  0  0  0
 13 11  2  0  0  0  0
 13 20  1  0  0  0  0
 14 15  1  0  0  0  0
 14 12  2  0  0  0  0
 15 10  2  0  0  0  0
 16 14  1  0  0  0  0
 17 16  1  0  0  0  0
 17 18  2  0  0  0  0
 18 15  1  0  0  0  0
 19 22  1  0  0  0  0
 20 19  1  0  0  0  0
 21 19  2  0  0  0  0
 22 25  1  6  0  0  0
 22 27  1  0  0  0  0
 23 24  1  0  0  0  0
 24 25  3  0  0  0  0
 27 28  1  0  0  0  0
 27 26  1  0  0  0  0
 28 26  1  0  0  0  0
 29 30  1  1  0  0  0
 29 32  1  0  0  0  0
 29 31  1  0  0  0  0
 32 27  1  6  0  0  0
 32 31  1  0  0  0  0
 33  3  1  0  0  0  0
 34 33  1  0  0  0  0
 35 41  1  0  0  0  0
 36 42  1  0  0  0  0
 37 36  1  0  0  0  0
 38 36  2  0  0  0  0
 38 40  2  0  0  0  0
 39 34  1  1  0  0  0
 39 41  1  0  0  0  0
 40 39  1  0  0  0  0
 42 35  1  0  0  0  0
 43 47  1  6  0  0  0
 43 44  1  0  0  0  0
 43 40  1  0  0  0  0
 44 46  1  0  0  0  0
 45 44  2  0  0  0  0
 48 47  1  0  0  0  0
 50 49  1  0  0  0  0
 50 48  1  0  0  0  0
M  END
>  <MODEL>
2

>  <REMARK>
 VINA RESULT:      -7.4      1.896      5.782
  Name = 
  15 active torsions:
  status: ('A' for Active; 'I' for Inactive)
    1  A    between atoms: C_3  and  C_16
    2  A    between atoms: C_3  and  C_20
    3  A    between atoms: C_3  and  C_46
    4  A    between atoms: C_5  and  O_23
    5  A    between atoms: C_8  and  C_13
    6  A    between atoms: C_8  and  O_25
    7  A    between atoms: C_8  and  C_30
    8  A    between atoms: C_11  and  O_23
    9  A    between atoms: C_20  and  C_38
   10  A    between atoms: C_21  and  O_25
   11  A    between atoms: C_21  and  C_41
   12  A    between atoms: C_22  and  O_33
   13  A    between atoms: C_24  and  N_36
   14  A    between atoms: C_26  and  C_44
   15  A    between atoms: O_33  and  C_44
                            x       y       z     vdW  Elec       q    Type
                         _______ _______ _______ _____ _____    ______ ____

>  <TORSDO>
F 15

$$$$
=
 OpenBabel11042422133D

 50 55  0  0  1  0  0  0  0  0999 V2000
  161.7580  210.6810  149.8940 C   0  0  1  0  0  3  0  0  0  0  0  0
  160.6320  212.8370  146.5330 F   0  0  0  0  0  0  0  0  0  0  0  0
  160.4920  212.9430  150.1150 C   0  0  0  0  0  0  0  0  0  0  0  0
  162.2640  211.9500  147.9000 N   0  0  0  0  0  0  0  0  0  0  0  0
  160.8560  212.2350  147.7540 C   0  0  1  0  0  3  0  0  0  0  0  0
  161.2600  211.8210  150.7790 C   0  0  0  0  0  2  0  0  0  0  0  0
  160.3780  213.1090  148.8230 N   0  0  0  0  0  0  0  0  0  0  0  0
  162.6990  211.2210  148.8650 C   0  0  0  0  0  3  0  0  0  0  0  0
  162.4350  209.7130  150.6920 O   0  0  0  0  0  0  0  0  0  0  0  0
  161.6200  210.0810  152.9700 C   0  0  0  0  0  3  0  0  0  0  0  0
  161.9200  209.2160  151.8970 C   0  0  0  0  0  0  0  0  0  0  0  0
  161.1860  207.3080  153.2370 C   0  0  0  0  0  3  0  0  0  0  0  0
  161.6960  207.8240  152.0280 C   0  0  0  0  0  0  0  0  0  0  0  0
  160.9060  208.1960  154.2730 C   0  0  0  0  0  0  0  0  0  0  0  0
  161.1120  209.5320  154.1450 C   0  0  0  0  0  0  0  0  0  0  0  0
  160.4070  207.8820  155.5160 O   0  0  0  0  0  0  0  0  0  0  0  0
  160.2520  209.0670  156.2950 C   0  0  0  0  0  3  0  0  0  0  0  0
  160.7260  210.2290  155.3960 C   0  0  0  0  0  3  0  0  0  0  0  0
  161.0960  206.1010  150.2230 C   0  0  0  0  0  0  0  0  0  0  0  0
  162.0030  206.9650  150.9190 N   0  0  0  0  0  2  0  0  0  0  0  0
  159.8730  206.0640  150.5290 O   0  0  0  0  0  0  0  0  0  0  0  0
  161.6110  205.3050  149.0610 C   0  0  1  0  0  3  0  0  0  0  0  0
  160.3120  201.3750  149.1700 C   0  0  0  0  0  1  0  0  0  0  0  0
  160.7710  202.7590  149.1270 C   0  0  0  0  0  0  0  0  0  0  0  0
  161.1500  203.9040  149.0940 C   0  0  0  0  0  0  0  0  0  0  0  0
  162.3750  207.1670  147.4790 C   0  0  0  0  0  2  0  0  0  0  0  0
  161.3910  206.0350  147.7180 C   0  0  0  0  0  0  0  0  0  0  0  0
  160.9070  207.4800  147.7110 C   0  0  0  0  0  2  0  0  0  0  0  0
  162.4260  204.4020  146.0930 C   0  0  1  0  0  3  0  0  0  0  0  0
  162.0560  203.3130  145.3050 O   0  0  0  0  0  1  0  0  0  0  0  0
  162.1190  205.6790  145.3470 C   0  0  0  0  0  2  0  0  0  0  0  0
  161.1820  205.2050  146.4450 C   0  0  2  0  0  3  0  0  0  0  0  0
  159.9010  213.8660  150.9770 O   0  0  0  0  0  0  0  0  0  0  0  0
  159.4780  213.5330  152.2930 C   0  0  0  0  0  2  0  0  0  0  0  0
  155.8040  213.4940  150.9690 C   0  0  0  0  0  2  0  0  0  0  0  0
  155.0500  214.0830  153.3500 C   0  0  0  0  0  0  0  0  0  0  0  0
  154.1000  214.4470  154.2960 O   0  0  0  0  0  1  0  0  0  0  0  0
  156.2020  213.6110  153.7040 C   0  0  0  0  0  0  0  0  0  0  0  0
  158.0290  213.0790  152.2590 C   0  0  1  0  0  3  0  0  0  0  0  0
  157.4110  213.1500  153.6470 C   0  0  0  0  0  0  0  0  0  0  0  0
  157.2780  213.9020  151.1750 C   0  0  0  0  0  2  0  0  0  0  0  0
  154.8110  214.2700  151.8760 C   0  0  0  0  0  2  0  0  0  0  0  0
  157.9790  212.4250  154.8310 C   0  0  1  0  0  3  0  0  0  0  0  0
  158.7010  213.3570  155.7530 C   0  0  0  0  0  0  0  0  0  0  0  0
  158.0020  214.0090  156.7570 O   0  0  0  0  0  1  0  0  0  0  0  0
  159.9430  213.5260  155.6500 O   0  0  0  0  0  0  0  0  0  0  0  0
  156.9790  211.7290  155.5140 O   0  0  0  0  0  0  0  0  0  0  0  0
  156.5850  210.7110  154.6440 C   0  0  0  0  0  2  0  0  0  0  0  0
  154.9620  210.5120  156.4930 C   0  0  0  0  0  1  0  0  0  0  0  0
  155.2030  210.2330  155.0260 C   0  0  0  0  0  2  0  0  0  0  0  0
  1  9  1  1  0  0  0
  1  6  1  0  0  0  0
  3  6  1  0  0  0  0
  3 33  1  0  0  0  0
  4  8  2  0  0  0  0
  5  2  1  6  0  0  0
  5  4  1  0  0  0  0
  5  7  1  0  0  0  0
  7  3  2  0  0  0  0
  8  1  1  0  0  0  0
  9 11  1  0  0  0  0
 10 15  1  0  0  0  0
 11 13  1  0  0  0  0
 11 10  2  0  0  0  0
 12 14  1  0  0  0  0
 13 12  2  0  0  0  0
 14 16  1  0  0  0  0
 15 14  2  0  0  0  0
 15 18  1  0  0  0  0
 16 17  1  0  0  0  0
 18 17  2  0  0  0  0
 19 21  2  0  0  0  0
 19 20  1  0  0  0  0
 20 13  1  0  0  0  0
 22 25  1  6  0  0  0
 22 19  1  0  0  0  0
 24 23  1  0  0  0  0
 25 24  3  0  0  0  0
 26 28  1  0  0  0  0
 26 27  1  0  0  0  0
 27 22  1  0  0  0  0
 28 27  1  0  0  0  0
 29 30  1  6  0  0  0
 29 32  1  0  0  0  0
 31 29  1  0  0  0  0
 32 31  1  6  0  0  0
 32 27  1  0  0  0  0
 33 34  1  0  0  0  0
 35 41  1  0  0  0  0
 35 42  1  0  0  0  0
 36 38  2  0  0  0  0
 36 37  1  0  0  0  0
 39 34  1  1  0  0  0
 39 40  1  0  0  0  0
 40 38  2  0  0  0  0
 40 43  1  0  0  0  0
 41 39  1  0  0  0  0
 42 36  1  0  0  0  0
 43 47  1  1  0  0  0
 43 44  1  0  0  0  0
 44 45  1  0  0  0  0
 46 44  2  0  0  0  0
 48 50  1  0  0  0  0
 48 47  1  0  0  0  0
 50 49  1  0  0  0  0
M  END
>  <MODEL>
3

>  <REMARK>
 VINA RESULT:      -7.1      2.765      9.235
  Name = 
  15 active torsions:
  status: ('A' for Active; 'I' for Inactive)
    1  A    between atoms: C_3  and  C_16
    2  A    between atoms: C_3  and  C_20
    3  A    between atoms: C_3  and  C_46
    4  A    between atoms: C_5  and  O_23
    5  A    between atoms: C_8  and  C_13
    6  A    between atoms: C_8  and  O_25
    7  A    between atoms: C_8  and  C_30
    8  A    between atoms: C_11  and  O_23
    9  A    between atoms: C_20  and  C_38
   10  A    between atoms: C_21  and  O_25
   11  A    between atoms: C_21  and  C_41
   12  A    between atoms: C_22  and  O_33
   13  A    between atoms: C_24  and  N_36
   14  A    between atoms: C_26  and  C_44
   15  A    between atoms: O_33  and  C_44
                            x       y       z     vdW  Elec       q    Type
                         _______ _______ _______ _____ _____    ______ ____

>  <TORSDO>
F 15

$$$$
=
 OpenBabel11042422133D

 50 55  0  0  1  0  0  0  0  0999 V2000
  160.4020  209.0150  153.1510 C   0  0  1  0  0  3  0  0  0  0  0  0
  160.7190  206.2270  156.2060 F   0  0  0  0  0  0  0  0  0  0  0  0
  161.2330  206.5960  152.6770 C   0  0  0  0  0  0  0  0  0  0  0  0
  161.3700  208.2030  155.2120 N   0  0  0  0  0  0  0  0  0  0  0  0
  160.6120  206.9840  155.0580 C   0  0  1  0  0  3  0  0  0  0  0  0
  161.0290  208.0130  152.1860 C   0  0  0  0  0  2  0  0  0  0  0  0
  161.0860  206.2050  153.9160 N   0  0  0  0  0  0  0  0  0  0  0  0
  161.2730  209.1590  154.3580 C   0  0  0  0  0  3  0  0  0  0  0  0
  160.2700  210.2820  152.5100 O   0  0  0  0  0  0  0  0  0  0  0  0
  159.3470  211.4380  154.4600 C   0  0  0  0  0  3  0  0  0  0  0  0
  159.5580  211.3530  153.0670 C   0  0  0  0  0  0  0  0  0  0  0  0
  158.3260  213.4410  152.7580 C   0  0  0  0  0  3  0  0  0  0  0  0
  159.0520  212.3620  152.2130 C   0  0  0  0  0  0  0  0  0  0  0  0
  158.1370  213.4860  154.1370 C   0  0  0  0  0  0  0  0  0  0  0  0
  158.6310  212.5230  154.9590 C   0  0  0  0  0  0  0  0  0  0  0  0
  157.4620  214.4530  154.8460 O   0  0  0  0  0  0  0  0  0  0  0  0
  157.4910  214.1490  156.2390 C   0  0  0  0  0  3  0  0  0  0  0  0
  158.2830  212.8290  156.3670 C   0  0  0  0  0  3  0  0  0  0  0  0
  158.9080  213.2020  149.7930 C   0  0  0  0  0  0  0  0  0  0  0  0
  159.2850  212.2560  150.8000 N   0  0  0  0  0  2  0  0  0  0  0  0
  158.3470  214.2880  150.1020 O   0  0  0  0  0  0  0  0  0  0  0  0
  159.2780  212.9190  148.3670 C   0  0  1  0  0  3  0  0  0  0  0  0
  156.3140  214.0500  145.7070 C   0  0  0  0  0  1  0  0  0  0  0  0
  157.3560  213.6530  146.6470 C   0  0  0  0  0  0  0  0  0  0  0  0
  158.2180  213.3230  147.4240 C   0  0  0  0  0  0  0  0  0  0  0  0
  161.7980  212.4740  148.4180 C   0  0  0  0  0  2  0  0  0  0  0  0
  160.6920  213.4370  148.0230 C   0  0  0  0  0  0  0  0  0  0  0  0
  161.6590  213.8020  149.1420 C   0  0  0  0  0  2  0  0  0  0  0  0
  160.6890  213.0160  145.5320 C   0  0  1  0  0  3  0  0  0  0  0  0
  160.4150  213.6910  144.3440 O   0  0  0  0  0  1  0  0  0  0  0  0
  162.1060  213.3210  145.9580 C   0  0  0  0  0  2  0  0  0  0  0  0
  160.9480  214.0340  146.6340 C   0  0  2  0  0  3  0  0  0  0  0  0
  161.6370  205.6720  151.7130 O   0  0  0  0  0  0  0  0  0  0  0  0
  161.4460  205.8780  150.3180 C   0  0  0  0  0  2  0  0  0  0  0  0
  159.7610  202.3550  150.3940 C   0  0  0  0  0  2  0  0  0  0  0  0
  161.3670  201.6620  148.5180 C   0  0  0  0  0  0  0  0  0  0  0  0
  161.9480  200.7350  147.6600 O   0  0  0  0  0  1  0  0  0  0  0  0
  161.4780  202.9330  148.3050 C   0  0  0  0  0  0  0  0  0  0  0  0
  160.7060  204.6900  149.7280 C   0  0  1  0  0  3  0  0  0  0  0  0
  161.3830  204.2170  148.4520 C   0  0  0  0  0  0  0  0  0  0  0  0
  160.5660  203.5990  150.8270 C   0  0  0  0  0  2  0  0  0  0  0  0
  160.6340  201.2380  149.7620 C   0  0  0  0  0  2  0  0  0  0  0  0
  161.6110  205.1120  147.2690 C   0  0  1  0  0  3  0  0  0  0  0  0
  162.1930  204.3600  146.1130 C   0  0  0  0  0  0  0  0  0  0  0  0
  163.5410  204.4890  145.8170 O   0  0  0  0  0  1  0  0  0  0  0  0
  161.4780  203.5820  145.4290 O   0  0  0  0  0  0  0  0  0  0  0  0
  160.4270  205.7540  146.8960 O   0  0  0  0  0  0  0  0  0  0  0  0
  160.6800  207.1150  147.0750 C   0  0  0  0  0  2  0  0  0  0  0  0
  162.1460  208.5470  148.4510 C   0  0  0  0  0  1  0  0  0  0  0  0
  162.0850  207.2970  147.6010 C   0  0  0  0  0  2  0  0  0  0  0  0
  1  9  1  6  0  0  0
  1  8  1  0  0  0  0
  3  7  2  0  0  0  0
  5  4  1  0  0  0  0
  5  2  1  1  0  0  0
  6  3  1  0  0  0  0
  6  1  1  0  0  0  0
  7  5  1  0  0  0  0
  8  4  2  0  0  0  0
  9 11  1  0  0  0  0
 10 15  1  0  0  0  0
 11 10  2  0  0  0  0
 12 14  1  0  0  0  0
 13 12  2  0  0  0  0
 13 11  1  0  0  0  0
 14 16  1  0  0  0  0
 14 15  2  0  0  0  0
 15 18  1  0  0  0  0
 16 17  1  0  0  0  0
 17 18  2  0  0  0  0
 19 21  2  0  0  0  0
 19 20  1  0  0  0  0
 20 13  1  0  0  0  0
 22 25  1  6  0  0  0
 22 19  1  0  0  0  0
 23 24  1  0  0  0  0
 24 25  3  0  0  0  0
 26 28  1  0  0  0  0
 27 22  1  0  0  0  0
 27 26  1  0  0  0  0
 27 28  1  0  0  0  0
 29 30  1  6  0  0  0
 29 31  1  0  0  0  0
 29 32  1  0  0  0  0
 32 31  1  1  0  0  0
 32 27  1  0  0  0  0
 33  3  1  0  0  0  0
 34 33  1  0  0  0  0
 35 41  1  0  0  0  0
 36 42  1  0  0  0  0
 37 36  1  0  0  0  0
 38 40  2  0  0  0  0
 38 36  2  0  0  0  0
 39 34  1  1  0  0  0
 39 41  1  0  0  0  0
 40 39  1  0  0  0  0
 42 35  1  0  0  0  0
 43 44  1  6  0  0  0
 43 40  1  0  0  0  0
 45 44  1  0  0  0  0
 46 44  2  0  0  0  0
 47 48  1  0  0  0  0
 47 43  1  0  0  0  0
 48 50  1  0  0  0  0
 50 49  1  0  0  0  0
M  END
>  <MODEL>
4

>  <REMARK>
 VINA RESULT:      -6.9      1.320      2.458
  Name = 
  15 active torsions:
  status: ('A' for Active; 'I' for Inactive)
    1  A    between atoms: C_3  and  C_16
    2  A    between atoms: C_3  and  C_20
    3  A    between atoms: C_3  and  C_46
    4  A    between atoms: C_5  and  O_23
    5  A    between atoms: C_8  and  C_13
    6  A    between atoms: C_8  and  O_25
    7  A    between atoms: C_8  and  C_30
    8  A    between atoms: C_11  and  O_23
    9  A    between atoms: C_20  and  C_38
   10  A    between atoms: C_21  and  O_25
   11  A    between atoms: C_21  and  C_41
   12  A    between atoms: C_22  and  O_33
   13  A    between atoms: C_24  and  N_36
   14  A    between atoms: C_26  and  C_44
   15  A    between atoms: O_33  and  C_44
                            x       y       z     vdW  Elec       q    Type
                         _______ _______ _______ _____ _____    ______ ____

>  <TORSDO>
F 15

$$$$
=
 OpenBabel11042422133D

 50 55  0  0  1  0  0  0  0  0999 V2000
  161.4680  210.2620  150.3290 C   0  0  1  0  0  3  0  0  0  0  0  0
  160.5260  213.4320  147.8240 F   0  0  0  0  0  0  0  0  0  0  0  0
  160.5140  212.4860  151.2820 C   0  0  0  0  0  0  0  0  0  0  0  0
  162.0710  211.9980  148.7600 N   0  0  0  0  0  0  0  0  0  0  0  0
  160.7080  212.4730  148.7990 C   0  0  1  0  0  3  0  0  0  0  0  0
  161.1510  211.1370  151.5380 C   0  0  0  0  0  2  0  0  0  0  0  0
  160.3820  213.0400  150.1060 N   0  0  0  0  0  0  0  0  0  0  0  0
  162.4380  210.9710  149.4390 C   0  0  0  0  0  3  0  0  0  0  0  0
  162.0380  209.0300  150.7630 O   0  0  0  0  0  0  0  0  0  0  0  0
  161.2310  209.1030  153.0730 C   0  0  0  0  0  3  0  0  0  0  0  0
  161.6450  208.3740  151.9370 C   0  0  0  0  0  0  0  0  0  0  0  0
  161.2750  206.2850  153.1520 C   0  0  0  0  0  3  0  0  0  0  0  0
  161.6600  206.9590  151.9740 C   0  0  0  0  0  0  0  0  0  0  0  0
  160.8770  207.0420  154.2500 C   0  0  0  0  0  0  0  0  0  0  0  0
  160.8530  208.3990  154.2130 C   0  0  0  0  0  0  0  0  0  0  0  0
  160.4690  206.5660  155.4760 O   0  0  0  0  0  0  0  0  0  0  0  0
  160.1380  207.6540  156.3370 C   0  0  0  0  0  3  0  0  0  0  0  0
  160.3870  208.9360  155.5150 C   0  0  0  0  0  3  0  0  0  0  0  0
  161.2390  205.5360  149.8800 C   0  0  0  0  0  0  0  0  0  0  0  0
  162.0790  206.2390  150.8040 N   0  0  0  0  0  2  0  0  0  0  0  0
  159.9860  205.5370  150.0140 O   0  0  0  0  0  0  0  0  0  0  0  0
  161.8740  204.8730  148.6930 C   0  0  1  0  0  3  0  0  0  0  0  0
  160.6900  200.9260  148.3010 C   0  0  0  0  0  1  0  0  0  0  0  0
  161.1090  202.3160  148.4350 C   0  0  0  0  0  0  0  0  0  0  0  0
  161.4540  203.4670  148.5480 C   0  0  0  0  0  0  0  0  0  0  0  0
  162.2990  207.1350  147.5730 C   0  0  0  0  0  2  0  0  0  0  0  0
  161.7440  205.7310  147.4150 C   0  0  0  0  0  0  0  0  0  0  0  0
  160.8040  206.9310  147.3980 C   0  0  0  0  0  2  0  0  0  0  0  0
  161.0390  205.2540  145.0360 C   0  0  1  0  0  3  0  0  0  0  0  0
  161.5940  205.1950  143.7590 O   0  0  0  0  0  1  0  0  0  0  0  0
  161.2670  203.9340  145.7350 C   0  0  0  0  0  2  0  0  0  0  0  0
  162.1510  205.1230  146.0670 C   0  0  2  0  0  3  0  0  0  0  0  0
  160.0760  213.1740  152.4140 O   0  0  0  0  0  0  0  0  0  0  0  0
  159.0770  214.1850  152.3650 C   0  0  0  0  0  2  0  0  0  0  0  0
  155.6000  213.6000  150.6850 C   0  0  0  0  0  2  0  0  0  0  0  0
  154.5280  214.1800  152.9430 C   0  0  0  0  0  0  0  0  0  0  0  0
  153.4440  214.4530  153.7690 O   0  0  0  0  0  1  0  0  0  0  0  0
  155.6870  213.8820  153.4350 C   0  0  0  0  0  0  0  0  0  0  0  0
  157.7110  213.5400  152.2120 C   0  0  1  0  0  3  0  0  0  0  0  0
  156.9450  213.5850  153.5240 C   0  0  0  0  0  0  0  0  0  0  0  0
  156.9790  214.2100  151.0140 C   0  0  0  0  0  2  0  0  0  0  0  0
  154.4250  214.2730  151.4440 C   0  0  0  0  0  2  0  0  0  0  0  0
  157.4720  212.9920  154.7970 C   0  0  1  0  0  3  0  0  0  0  0  0
  157.6560  211.5100  154.6800 C   0  0  0  0  0  0  0  0  0  0  0  0
  156.6780  210.6560  155.1660 O   0  0  0  0  0  1  0  0  0  0  0  0
  158.6710  211.0330  154.1110 O   0  0  0  0  0  0  0  0  0  0  0  0
  158.6680  213.6090  155.1760 O   0  0  0  0  0  0  0  0  0  0  0  0
  158.6820  213.5470  156.5710 C   0  0  0  0  0  2  0  0  0  0  0  0
  160.5190  212.0500  157.2600 C   0  0  0  0  0  1  0  0  0  0  0  0
  160.1130  213.4920  157.0530 C   0  0  0  0  0  2  0  0  0  0  0  0
  1  9  1  1  0  0  0
  1  6  1  0  0  0  0
  3  6  1  0  0  0  0
  3 33  1  0  0  0  0
  4  5  1  0  0  0  0
  4  8  2  0  0  0  0
  5  2  1  6  0  0  0
  5  7  1  0  0  0  0
  7  3  2  0  0  0  0
  8  1  1  0  0  0  0
  9 11  1  0  0  0  0
 10 15  1  0  0  0  0
 11 13  1  0  0  0  0
 11 10  2  0  0  0  0
 12 14  1  0  0  0  0
 13 12  2  0  0  0  0
 14 16  1  0  0  0  0
 15 14  2  0  0  0  0
 15 18  1  0  0  0  0
 16 17  1  0  0  0  0
 18 17  2  0  0  0  0
 19 21  2  0  0  0  0
 19 20  1  0  0  0  0
 20 13  1  0  0  0  0
 22 25  1  6  0  0  0
 22 19  1  0  0  0  0
 23 24  1  0  0  0  0
 24 25  3  0  0  0  0
 27 26  1  0  0  0  0
 27 22  1  0  0  0  0
 28 27  1  0  0  0  0
 28 26  1  0  0  0  0
 29 30  1  6  0  0  0
 29 31  1  0  0  0  0
 29 32  1  0  0  0  0
 32 31  1  1  0  0  0
 32 27  1  0  0  0  0
 34 33  1  0  0  0  0
 35 41  1  0  0  0  0
 35 42  1  0  0  0  0
 36 38  2  0  0  0  0
 36 37  1  0  0  0  0
 38 40  2  0  0  0  0
 39 34  1  1  0  0  0
 39 40  1  0  0  0  0
 40 43  1  0  0  0  0
 41 39  1  0  0  0  0
 42 36  1  0  0  0  0
 43 44  1  6  0  0  0
 43 47  1  0  0  0  0
 44 45  1  0  0  0  0
 46 44  2  0  0  0  0
 47 48  1  0  0  0  0
 48 50  1  0  0  0  0
 50 49  1  0  0  0  0
M  END
>  <MODEL>
5

>  <REMARK>
 VINA RESULT:      -6.5      2.945      9.397
  Name = 
  15 active torsions:
  status: ('A' for Active; 'I' for Inactive)
    1  A    between atoms: C_3  and  C_16
    2  A    between atoms: C_3  and  C_20
    3  A    between atoms: C_3  and  C_46
    4  A    between atoms: C_5  and  O_23
    5  A    between atoms: C_8  and  C_13
    6  A    between atoms: C_8  and  O_25
    7  A    between atoms: C_8  and  C_30
    8  A    between atoms: C_11  and  O_23
    9  A    between atoms: C_20  and  C_38
   10  A    between atoms: C_21  and  O_25
   11  A    between atoms: C_21  and  C_41
   12  A    between atoms: C_22  and  O_33
   13  A    between atoms: C_24  and  N_36
   14  A    between atoms: C_26  and  C_44
   15  A    between atoms: O_33  and  C_44
                            x       y       z     vdW  Elec       q    Type
                         _______ _______ _______ _____ _____    ______ ____

>  <TORSDO>
F 15

$$$$
=
 OpenBabel11042422133D

 50 55  0  0  1  0  0  0  0  0999 V2000
  160.7800  209.0640  153.0860 C   0  0  1  0  0  3  0  0  0  0  0  0
  160.7210  205.2790  154.7820 F   0  0  0  0  0  0  0  0  0  0  0  0
  161.0790  206.9350  151.6220 C   0  0  0  0  0  0  0  0  0  0  0  0
  161.6910  207.3560  154.5330 N   0  0  0  0  0  0  0  0  0  0  0  0
  160.6970  206.4370  154.0320 C   0  0  1  0  0  3  0  0  0  0  0  0
  161.1330  208.4430  151.7370 C   0  0  0  0  0  2  0  0  0  0  0  0
  160.9340  206.1120  152.6270 N   0  0  0  0  0  0  0  0  0  0  0  0
  161.7350  208.5750  154.1270 C   0  0  0  0  0  3  0  0  0  0  0  0
  160.8640  210.4840  152.9980 O   0  0  0  0  0  0  0  0  0  0  0  0
  159.1540  211.3130  154.5400 C   0  0  0  0  0  3  0  0  0  0  0  0
  159.7870  211.3360  153.2790 C   0  0  0  0  0  0  0  0  0  0  0  0
  158.2510  213.0910  152.5470 C   0  0  0  0  0  3  0  0  0  0  0  0
  159.3390  212.2340  152.2810 C   0  0  0  0  0  0  0  0  0  0  0  0
  157.6520  213.0340  153.8030 C   0  0  0  0  0  0  0  0  0  0  0  0
  158.0870  212.1790  154.7650 C   0  0  0  0  0  0  0  0  0  0  0  0
  156.5880  213.7870  154.2450 O   0  0  0  0  0  0  0  0  0  0  0  0
  156.2690  213.4400  155.5910 C   0  0  0  0  0  3  0  0  0  0  0  0
  157.2710  212.3370  155.9930 C   0  0  0  0  0  3  0  0  0  0  0  0
  160.0700  213.3340  150.0810 C   0  0  0  0  0  0  0  0  0  0  0  0
  160.0030  212.2430  151.0080 N   0  0  0  0  0  2  0  0  0  0  0  0
  159.5520  214.4500  150.3550 O   0  0  0  0  0  0  0  0  0  0  0  0
  160.8490  213.1510  148.8120 C   0  0  1  0  0  3  0  0  0  0  0  0
  162.6110  209.4110  148.5940 C   0  0  0  0  0  1  0  0  0  0  0  0
  161.9940  210.7300  148.6690 C   0  0  0  0  0  0  0  0  0  0  0  0
  161.4820  211.8210  148.7310 C   0  0  0  0  0  0  0  0  0  0  0  0
  160.1520  212.5810  146.4160 C   0  0  0  0  0  2  0  0  0  0  0  0
  160.0320  213.5640  147.5670 C   0  0  0  0  0  0  0  0  0  0  0  0
  160.7520  213.9700  146.2880 C   0  0  0  0  0  2  0  0  0  0  0  0
  157.6430  212.8520  147.9730 C   0  0  1  0  0  3  0  0  0  0  0  0
  156.5020  213.2990  148.6370 O   0  0  0  0  0  1  0  0  0  0  0  0
  157.7150  213.5110  146.6160 C   0  0  0  0  0  2  0  0  0  0  0  0
  158.5820  214.0280  147.7500 C   0  0  2  0  0  3  0  0  0  0  0  0
  161.2300  206.4200  150.3340 O   0  0  0  0  0  0  0  0  0  0  0  0
  161.9820  205.2450  150.0560 C   0  0  0  0  0  2  0  0  0  0  0  0
  160.1110  201.8690  150.6530 C   0  0  0  0  0  2  0  0  0  0  0  0
  161.1620  201.0210  148.4730 C   0  0  0  0  0  0  0  0  0  0  0  0
  161.4490  200.0370  147.5330 O   0  0  0  0  0  1  0  0  0  0  0  0
  161.3110  202.2760  148.1950 C   0  0  0  0  0  0  0  0  0  0  0  0
  161.0370  204.1110  149.7010 C   0  0  1  0  0  3  0  0  0  0  0  0
  161.3490  203.5650  148.3170 C   0  0  0  0  0  0  0  0  0  0  0  0
  161.0860  203.0510  150.8380 C   0  0  0  0  0  2  0  0  0  0  0  0
  160.7210  200.6760  149.8700 C   0  0  0  0  0  2  0  0  0  0  0  0
  161.3500  204.4200  147.0840 C   0  0  1  0  0  3  0  0  0  0  0  0
  162.5470  205.3190  147.0390 C   0  0  0  0  0  0  0  0  0  0  0  0
  163.8040  204.7800  146.8140 O   0  0  0  0  0  0  0  0  0  0  0  0
  162.4180  206.5640  147.1660 O   0  0  0  0  0  1  0  0  0  0  0  0
  161.2800  203.6320  145.9320 O   0  0  0  0  0  0  0  0  0  0  0  0
  162.0140  204.3290  144.9700 C   0  0  0  0  0  2  0  0  0  0  0  0
  159.6980  204.4780  144.1300 C   0  0  0  0  0  1  0  0  0  0  0  0
  161.0680  205.1170  144.0930 C   0  0  0  0  0  2  0  0  0  0  0  0
  1  9  1  6  0  0  0
  1  8  1  0  0  0  0
  3  6  1  0  0  0  0
  3  7  2  0  0  0  0
  5  4  1  0  0  0  0
  5  2  1  1  0  0  0
  6  1  1  0  0  0  0
  7  5  1  0  0  0  0
  8  4  2  0  0  0  0
  9 11  1  0  0  0  0
 10 15  1  0  0  0  0
 11 10  2  0  0  0  0
 12 14  1  0  0  0  0
 13 12  2  0  0  0  0
 13 11  1  0  0  0  0
 14 16  1  0  0  0  0
 14 15  2  0  0  0  0
 15 18  1  0  0  0  0
 16 17  1  0  0  0  0
 17 18  2  0  0  0  0
 19 21  2  0  0  0  0
 19 20  1  0  0  0  0
 20 13  1  0  0  0  0
 22 25  1  6  0  0  0
 22 19  1  0  0  0  0
 23 24  1  0  0  0  0
 24 25  3  0  0  0  0
 26 27  1  0  0  0  0
 27 32  1  0  0  0  0
 27 22  1  0  0  0  0
 28 26  1  0  0  0  0
 28 27  1  0  0  0  0
 29 30  1  1  0  0  0
 31 29  1  0  0  0  0
 32 31  1  6  0  0  0
 32 29  1  0  0  0  0
 33  3  1  0  0  0  0
 34 33  1  0  0  0  0
 35 41  1  0  0  0  0
 36 42  1  0  0  0  0
 37 36  1  0  0  0  0
 38 40  2  0  0  0  0
 38 36  2  0  0  0  0
 39 34  1  1  0  0  0
 39 41  1  0  0  0  0
 40 39  1  0  0  0  0
 42 35  1  0  0  0  0
 43 47  1  6  0  0  0
 43 40  1  0  0  0  0
 44 43  1  0  0  0  0
 44 46  1  0  0  0  0
 45 44  2  0  0  0  0
 48 47  1  0  0  0  0
 50 49  1  0  0  0  0
 50 48  1  0  0  0  0
M  END
>  <MODEL>
6

>  <REMARK>
 VINA RESULT:      -6.5      1.587      2.076
  Name = 
  15 active torsions:
  status: ('A' for Active; 'I' for Inactive)
    1  A    between atoms: C_3  and  C_16
    2  A    between atoms: C_3  and  C_20
    3  A    between atoms: C_3  and  C_46
    4  A    between atoms: C_5  and  O_23
    5  A    between atoms: C_8  and  C_13
    6  A    between atoms: C_8  and  O_25
    7  A    between atoms: C_8  and  C_30
    8  A    between atoms: C_11  and  O_23
    9  A    between atoms: C_20  and  C_38
   10  A    between atoms: C_21  and  O_25
   11  A    between atoms: C_21  and  C_41
   12  A    between atoms: C_22  and  O_33
   13  A    between atoms: C_24  and  N_36
   14  A    between atoms: C_26  and  C_44
   15  A    between atoms: O_33  and  C_44
                            x       y       z     vdW  Elec       q    Type
                         _______ _______ _______ _____ _____    ______ ____

>  <TORSDO>
F 15

$$$$
=
 OpenBabel11042422133D

 50 55  0  0  1  0  0  0  0  0999 V2000
  161.6850  210.4730  149.5760 C   0  0  1  0  0  3  0  0  0  0  0  0
  160.5490  213.4310  146.8990 F   0  0  0  0  0  0  0  0  0  0  0  0
  160.5650  212.6700  150.4030 C   0  0  0  0  0  0  0  0  0  0  0  0
  162.1810  212.1630  147.9220 N   0  0  0  0  0  0  0  0  0  0  0  0
  160.7880  212.5400  147.9250 C   0  0  1  0  0  3  0  0  0  0  0  0
  161.2930  211.3860  150.7350 C   0  0  0  0  0  2  0  0  0  0  0  0
  160.4070  213.1510  149.1970 N   0  0  0  0  0  0  0  0  0  0  0  0
  162.6120  211.2010  148.6580 C   0  0  0  0  0  3  0  0  0  0  0  0
  162.3360  209.3090  150.0800 O   0  0  0  0  0  0  0  0  0  0  0  0
  161.6370  209.3060  152.4260 C   0  0  0  0  0  3  0  0  0  0  0  0
  161.9030  208.6200  151.2210 C   0  0  0  0  0  0  0  0  0  0  0  0
  161.3000  206.5100  152.2970 C   0  0  0  0  0  3  0  0  0  0  0  0
  161.7270  207.2180  151.1540 C   0  0  0  0  0  0  0  0  0  0  0  0
  161.0520  207.2240  153.4660 C   0  0  0  0  0  0  0  0  0  0  0  0
  161.2100  208.5720  153.5290 C   0  0  0  0  0  0  0  0  0  0  0  0
  160.6310  206.7120  154.6720 O   0  0  0  0  0  0  0  0  0  0  0  0
  160.4840  207.7620  155.6260 C   0  0  0  0  0  3  0  0  0  0  0  0
  160.8730  209.0610  154.8870 C   0  0  0  0  0  3  0  0  0  0  0  0
  161.4420  205.2990  149.4740 C   0  0  0  0  0  0  0  0  0  0  0  0
  161.9990  206.5430  149.9160 N   0  0  0  0  0  2  0  0  0  0  0  0
  160.5840  204.6910  150.1680 O   0  0  0  0  0  0  0  0  0  0  0  0
  161.8310  204.7780  148.1220 C   0  0  1  0  0  3  0  0  0  0  0  0
  161.1490  200.7130  147.7350 C   0  0  0  0  0  1  0  0  0  0  0  0
  161.3890  202.1450  147.8760 C   0  0  0  0  0  0  0  0  0  0  0  0
  161.5880  203.3290  147.9900 C   0  0  0  0  0  0  0  0  0  0  0  0
  160.8580  207.0410  147.4270 C   0  0  0  0  0  2  0  0  0  0  0  0
  161.2540  205.6450  146.9800 C   0  0  0  0  0  0  0  0  0  0  0  0
  159.7860  206.0520  147.0050 C   0  0  0  0  0  2  0  0  0  0  0  0
  161.1630  205.0180  144.5360 C   0  0  1  0  0  3  0  0  0  0  0  0
  161.5710  205.5140  143.2990 O   0  0  0  0  0  1  0  0  0  0  0  0
  162.3120  204.2710  145.1720 C   0  0  0  0  0  2  0  0  0  0  0  0
  161.9840  205.6810  145.6320 C   0  0  2  0  0  3  0  0  0  0  0  0
  160.0670  213.3840  151.4930 O   0  0  0  0  0  0  0  0  0  0  0  0
  158.7750  213.1540  152.0410 C   0  0  0  0  0  2  0  0  0  0  0  0
  160.4380  213.1270  155.5750 C   0  0  0  0  0  2  0  0  0  0  0  0
  158.5540  211.5600  156.3350 C   0  0  0  0  0  0  0  0  0  0  0  0
  157.9340  210.7170  157.2490 O   0  0  0  0  0  1  0  0  0  0  0  0
  157.9110  212.0330  155.3160 C   0  0  0  0  0  0  0  0  0  0  0  0
  158.8200  213.3550  153.5460 C   0  0  1  0  0  3  0  0  0  0  0  0
  157.6440  212.6620  154.2160 C   0  0  0  0  0  0  0  0  0  0  0  0
  160.2150  212.9050  154.0640 C   0  0  0  0  0  2  0  0  0  0  0  0
  160.0120  211.9180  156.4500 C   0  0  0  0  0  2  0  0  0  0  0  0
  156.2160  212.9560  153.8650 C   0  0  1  0  0  3  0  0  0  0  0  0
  155.2740  212.4340  154.9040 C   0  0  0  0  0  0  0  0  0  0  0  0
  154.6790  211.1930  154.7320 O   0  0  0  0  0  0  0  0  0  0  0  0
  155.0450  213.0930  155.9510 O   0  0  0  0  0  1  0  0  0  0  0  0
  156.0240  214.3260  153.6670 O   0  0  0  0  0  0  0  0  0  0  0  0
  155.0220  214.4170  152.7000 C   0  0  0  0  0  2  0  0  0  0  0  0
  154.5610  214.4360  150.2760 C   0  0  0  0  0  1  0  0  0  0  0  0
  155.6400  214.3030  151.3260 C   0  0  0  0  0  2  0  0  0  0  0  0
  1  9  1  1  0  0  0
  1  6  1  0  0  0  0
  3  6  1  0  0  0  0
  3 33  1  0  0  0  0
  4  5  1  0  0  0  0
  4  8  2  0  0  0  0
  5  2  1  6  0  0  0
  5  7  1  0  0  0  0
  7  3  2  0  0  0  0
  8  1  1  0  0  0  0
  9 11  1  0  0  0  0
 10 15  1  0  0  0  0
 11 10  2  0  0  0  0
 12 14  1  0  0  0  0
 13 11  1  0  0  0  0
 13 12  2  0  0  0  0
 14 15  2  0  0  0  0
 14 16  1  0  0  0  0
 15 18  1  0  0  0  0
 16 17  1  0  0  0  0
 18 17  2  0  0  0  0
 19 20  1  0  0  0  0
 19 21  2  0  0  0  0
 20 13  1  0  0  0  0
 22 25  1  6  0  0  0
 22 19  1  0  0  0  0
 23 24  1  0  0  0  0
 24 25  3  0  0  0  0
 27 28  1  0  0  0  0
 27 26  1  0  0  0  0
 27 22  1  0  0  0  0
 28 26  1  0  0  0  0
 29 30  1  6  0  0  0
 29 31  1  0  0  0  0
 29 32  1  0  0  0  0
 32 31  1  1  0  0  0
 32 27  1  0  0  0  0
 33 34  1  0  0  0  0
 35 42  1  0  0  0  0
 36 42  1  0  0  0  0
 36 37  1  0  0  0  0
 38 36  2  0  0  0  0
 39 34  1  6  0  0  0
 39 41  1  0  0  0  0
 39 40  1  0  0  0  0
 40 38  2  0  0  0  0
 41 35  1  0  0  0  0
 43 47  1  1  0  0  0
 43 40  1  0  0  0  0
 43 44  1  0  0  0  0
 44 46  1  0  0  0  0
 45 44  2  0  0  0  0
 48 47  1  0  0  0  0
 49 50  1  0  0  0  0
 50 48  1  0  0  0  0
M  END
>  <MODEL>
7

>  <REMARK>
 VINA RESULT:      -5.7      2.917      9.208
  Name = 
  15 active torsions:
  status: ('A' for Active; 'I' for Inactive)
    1  A    between atoms: C_3  and  C_16
    2  A    between atoms: C_3  and  C_20
    3  A    between atoms: C_3  and  C_46
    4  A    between atoms: C_5  and  O_23
    5  A    between atoms: C_8  and  C_13
    6  A    between atoms: C_8  and  O_25
    7  A    between atoms: C_8  and  C_30
    8  A    between atoms: C_11  and  O_23
    9  A    between atoms: C_20  and  C_38
   10  A    between atoms: C_21  and  O_25
   11  A    between atoms: C_21  and  C_41
   12  A    between atoms: C_22  and  O_33
   13  A    between atoms: C_24  and  N_36
   14  A    between atoms: C_26  and  C_44
   15  A    between atoms: O_33  and  C_44
                            x       y       z     vdW  Elec       q    Type
                         _______ _______ _______ _____ _____    ______ ____

>  <TORSDO>
F 15

$$$$
