=
 OpenBabel11052410293D

 35 37  0  0  1  0  0  0  0  0999 V2000
  161.7070  208.3910  151.4040 C   0  0  1  0  0  3  0  0  0  0  0  0
  162.3860  207.6790  149.1120 C   0  0  0  0  0  3  0  0  0  0  0  0
  162.2740  207.0940  147.9210 C   0  0  0  0  0  3  0  0  0  0  0  0
  161.2230  206.1290  147.5450 C   0  0  0  0  0  0  0  0  0  0  0  0
  160.8650  203.6910  150.4010 C   0  0  0  0  0  1  0  0  0  0  0  0
  161.3820  207.4900  150.2080 C   0  0  1  0  0  3  0  0  0  0  0  0
  160.9990  205.0510  149.8160 C   0  0  0  0  0  0  0  0  0  0  0  0
  161.3270  206.0540  150.6320 C   0  0  0  0  0  3  0  0  0  0  0  0
  160.7050  205.2150  148.3770 C   0  0  0  0  0  3  0  0  0  0  0  0
  160.5560  205.9970  145.0430 N   0  0  0  0  0  0  0  0  0  0  0  0
  160.8530  206.0560  146.1600 C   0  0  0  0  0  0  0  0  0  0  0  0
  163.0510  210.3610  151.6020 O   0  0  0  0  0  0  0  0  0  0  0  0
  161.5590  210.3380  149.8050 N   0  0  0  0  0  2  0  0  0  0  0  0
  162.1560  209.7470  150.9600 C   0  0  0  0  0  0  0  0  0  0  0  0
  162.8970  211.4980  148.2900 O   0  0  0  0  0  0  0  0  0  0  0  0
  161.9540  211.6510  149.3210 C   0  0  1  0  0  3  0  0  0  0  0  0
  161.5770  211.7890  147.8980 C   0  0  1  0  0  3  0  0  0  0  0  0
  161.4780  213.2590  147.5380 C   0  0  0  0  0  2  0  0  0  0  0  0
  162.4590  213.5910  146.5160 N   0  0  0  0  0  2  0  0  0  0  0  0
  161.8770  212.8450  142.4690 N   0  0  0  0  0  0  0  0  0  0  0  0
  159.8510  211.9270  142.9930 O   0  0  0  0  0  0  0  0  0  0  0  0
  160.9160  212.4840  143.3720 C   0  0  0  0  0  0  0  0  0  0  0  0
  163.0030  213.4300  142.8860 N   0  0  0  0  0  0  0  0  0  0  0  0
  162.2490  213.3310  145.1250 C   0  0  0  0  0  0  0  0  0  0  0  0
  163.2220  213.6890  144.2000 C   0  0  0  0  0  3  0  0  0  0  0  0
  161.1110  212.7300  144.6920 N   0  0  0  0  0  0  0  0  0  0  0  0
  162.4150  211.2980  140.6670 C   0  0  0  0  0  1  0  0  0  0  0  0
  161.7070  212.5840  141.0470 C   0  0  0  0  0  2  0  0  0  0  0  0
  160.5880  208.5270  152.2300 O   0  0  0  0  0  0  0  0  0  0  0  0
  161.0880  208.5310  153.4920 N   0  0  0  0  0  2  0  0  0  0  0  0
  161.2820  206.1300  154.0320 C   0  0  0  0  0  1  0  0  0  0  0  0
  160.4980  207.4190  154.2380 C   0  0  1  0  0  3  0  0  0  0  0  0
  159.3520  206.9550  156.3020 F   0  0  0  0  0  0  0  0  0  0  0  0
  160.3090  207.7650  155.7150 C   0  0  2  0  0  3  0  0  0  0  0  0
  159.9350  209.1020  155.8470 O   0  0  0  0  0  1  0  0  0  0  0  0
  1 14  1  6  0  0  0
  1 29  1  0  0  0  0
  2  6  1  0  0  0  0
  3  2  2  0  0  0  0
  4  3  1  0  0  0  0
  4  9  2  0  0  0  0
  6  8  1  0  0  0  0
  6  1  1  1  0  0  0
  7  5  1  0  0  0  0
  7  8  2  0  0  0  0
  9  7  1  0  0  0  0
 10 11  3  0  0  0  0
 11  4  1  0  0  0  0
 13 14  1  0  0  0  0
 14 12  2  0  0  0  0
 15 16  1  0  0  0  0
 16 13  1  6  0  0  0
 17 18  1  1  0  0  0
 17 15  1  0  0  0  0
 17 16  1  0  0  0  0
 19 18  1  0  0  0  0
 20 23  1  0  0  0  0
 20 22  1  0  0  0  0
 21 22  2  0  0  0  0
 22 26  1  0  0  0  0
 23 25  2  0  0  0  0
 24 19  1  0  0  0  0
 25 24  1  0  0  0  0
 26 24  2  0  0  0  0
 27 28  1  0  0  0  0
 28 20  1  0  0  0  0
 29 30  1  0  0  0  0
 30 32  1  0  0  0  0
 32 31  1  1  0  0  0
 32 34  1  0  0  0  0
 34 35  1  6  0  0  0
 34 33  1  0  0  0  0
M  END
>  <MODEL>
1

>  <REMARK>
 VINA RESULT:      -7.9      0.000      0.000
  Name = 
  11 active torsions:
  status: ('A' for Active; 'I' for Inactive)
    1  A    between atoms: C_1  and  N_4
    2  A    between atoms: C_1  and  C_22
    3  A    between atoms: N_7  and  C_32
    4  A    between atoms: N_11  and  C_16
    5  A    between atoms: C_12  and  C_25
    6  A    between atoms: C_20  and  C_24
    7  A    between atoms: C_23  and  C_26
    8  A    between atoms: C_24  and  O_30
    9  A    between atoms: C_24  and  C_34
   10  A    between atoms: C_26  and  N_31
   11  A    between atoms: O_30  and  N_31
                            x       y       z     vdW  Elec       q    Type
                         _______ _______ _______ _____ _____    ______ ____

>  <TORSDO>
F 11

$$$$
=
 OpenBabel11052410293D

 35 37  0  0  1  0  0  0  0  0999 V2000
  161.6300  208.4270  149.8660 C   0  0  1  0  0  3  0  0  0  0  0  0
  160.6220  208.6830  152.1330 C   0  0  0  0  0  3  0  0  0  0  0  0
  160.4810  208.5040  153.4450 C   0  0  0  0  0  3  0  0  0  0  0  0
  161.1870  207.4820  154.2430 C   0  0  0  0  0  0  0  0  0  0  0  0
  161.0350  204.2470  152.3090 C   0  0  0  0  0  1  0  0  0  0  0  0
  161.6030  207.9090  151.3080 C   0  0  1  0  0  3  0  0  0  0  0  0
  161.2520  205.7110  152.4450 C   0  0  0  0  0  0  0  0  0  0  0  0
  161.2780  206.4470  151.3330 C   0  0  0  0  0  3  0  0  0  0  0  0
  161.4810  206.2510  153.8020 C   0  0  0  0  0  3  0  0  0  0  0  0
  161.6160  208.0020  156.7460 N   0  0  0  0  0  0  0  0  0  0  0  0
  161.4250  207.7700  155.6290 C   0  0  0  0  0  0  0  0  0  0  0  0
  162.7360  210.3540  150.7580 O   0  0  0  0  0  0  0  0  0  0  0  0
  161.7310  210.6480  148.6710 N   0  0  0  0  0  2  0  0  0  0  0  0
  162.0720  209.8560  149.8090 C   0  0  0  0  0  0  0  0  0  0  0  0
  163.3480  212.1120  147.8500 O   0  0  0  0  0  0  0  0  0  0  0  0
  162.1330  212.0400  148.5530 C   0  0  1  0  0  3  0  0  0  0  0  0
  162.1820  212.4250  147.1270 C   0  0  1  0  0  3  0  0  0  0  0  0
  162.0640  213.9310  147.0010 C   0  0  0  0  0  2  0  0  0  0  0  0
  162.7570  214.3890  145.8060 N   0  0  0  0  0  2  0  0  0  0  0  0
  161.9360  212.9480  141.9970 N   0  0  0  0  0  0  0  0  0  0  0  0
  160.3770  211.5580  142.9270 O   0  0  0  0  0  0  0  0  0  0  0  0
  161.2540  212.4500  143.0740 C   0  0  0  0  0  0  0  0  0  0  0  0
  162.8670  213.8890  142.1690 N   0  0  0  0  0  0  0  0  0  0  0  0
  162.4670  213.8870  144.4990 C   0  0  0  0  0  0  0  0  0  0  0  0
  163.1570  214.3820  143.3990 C   0  0  0  0  0  3  0  0  0  0  0  0
  161.5270  212.9250  144.3150 N   0  0  0  0  0  0  0  0  0  0  0  0
  162.5950  211.2820  140.3460 C   0  0  0  0  0  1  0  0  0  0  0  0
  161.6790  212.4510  140.6520 C   0  0  0  0  0  2  0  0  0  0  0  0
  162.4890  207.6500  149.0830 O   0  0  0  0  0  0  0  0  0  0  0  0
  161.7570  207.3240  147.9870 N   0  0  0  0  0  2  0  0  0  0  0  0
  161.3280  204.9010  148.1860 C   0  0  0  0  0  1  0  0  0  0  0  0
  162.1600  205.9950  147.5280 C   0  0  1  0  0  3  0  0  0  0  0  0
  160.9290  206.2490  145.4770 F   0  0  0  0  0  0  0  0  0  0  0  0
  162.1600  205.8980  146.0030 C   0  0  2  0  0  3  0  0  0  0  0  0
  162.4850  204.6000  145.6080 O   0  0  0  0  0  1  0  0  0  0  0  0
  1 29  1  6  0  0  0
  2  3  2  0  0  0  0
  3  4  1  0  0  0  0
  4 11  1  0  0  0  0
  5  7  1  0  0  0  0
  6  1  1  6  0  0  0
  6  8  1  0  0  0  0
  6  2  1  0  0  0  0
  7  9  1  0  0  0  0
  8  7  2  0  0  0  0
  9  4  2  0  0  0  0
 11 10  3  0  0  0  0
 13 14  1  0  0  0  0
 14  1  1  0  0  0  0
 14 12  2  0  0  0  0
 15 16  1  0  0  0  0
 16 13  1  6  0  0  0
 17 18  1  1  0  0  0
 17 15  1  0  0  0  0
 17 16  1  0  0  0  0
 19 18  1  0  0  0  0
 20 23  1  0  0  0  0
 20 22  1  0  0  0  0
 21 22  2  0  0  0  0
 22 26  1  0  0  0  0
 23 25  2  0  0  0  0
 24 19  1  0  0  0  0
 25 24  1  0  0  0  0
 26 24  2  0  0  0  0
 27 28  1  0  0  0  0
 28 20  1  0  0  0  0
 30 29  1  0  0  0  0
 32 30  1  0  0  0  0
 32 31  1  1  0  0  0
 34 33  1  1  0  0  0
 34 32  1  0  0  0  0
 35 34  1  0  0  0  0
M  END
>  <MODEL>
2

>  <REMARK>
 VINA RESULT:      -7.6      2.631      5.002
  Name = 
  11 active torsions:
  status: ('A' for Active; 'I' for Inactive)
    1  A    between atoms: C_1  and  N_4
    2  A    between atoms: C_1  and  C_22
    3  A    between atoms: N_7  and  C_32
    4  A    between atoms: N_11  and  C_16
    5  A    between atoms: C_12  and  C_25
    6  A    between atoms: C_20  and  C_24
    7  A    between atoms: C_23  and  C_26
    8  A    between atoms: C_24  and  O_30
    9  A    between atoms: C_24  and  C_34
   10  A    between atoms: C_26  and  N_31
   11  A    between atoms: O_30  and  N_31
                            x       y       z     vdW  Elec       q    Type
                         _______ _______ _______ _____ _____    ______ ____

>  <TORSDO>
F 11

$$$$
=
 OpenBabel11052410293D

 35 37  0  0  1  0  0  0  0  0999 V2000
  161.6440  208.0250  149.5900 C   0  0  1  0  0  3  0  0  0  0  0  0
  160.6500  208.3520  151.8530 C   0  0  0  0  0  3  0  0  0  0  0  0
  160.5060  208.2000  153.1690 C   0  0  0  0  0  3  0  0  0  0  0  0
  161.1790  207.1690  153.9820 C   0  0  0  0  0  0  0  0  0  0  0  0
  160.9140  203.9090  152.1040 C   0  0  0  0  0  1  0  0  0  0  0  0
  161.6030  207.5310  151.0400 C   0  0  1  0  0  3  0  0  0  0  0  0
  161.1800  205.3670  152.2150 C   0  0  0  0  0  0  0  0  0  0  0  0
  161.2290  206.0820  151.0910 C   0  0  0  0  0  3  0  0  0  0  0  0
  161.4300  205.9210  153.5620 C   0  0  0  0  0  3  0  0  0  0  0  0
  161.6300  207.7150  156.4760 N   0  0  0  0  0  0  0  0  0  0  0  0
  161.4290  207.4710  155.3630 C   0  0  0  0  0  0  0  0  0  0  0  0
  162.6400  210.0250  150.4490 O   0  0  0  0  0  0  0  0  0  0  0  0
  161.5600  210.2430  148.3890 N   0  0  0  0  0  2  0  0  0  0  0  0
  161.9860  209.4800  149.5180 C   0  0  0  0  0  0  0  0  0  0  0  0
  161.4800  212.0970  146.9780 O   0  0  0  0  0  0  0  0  0  0  0  0
  161.8620  211.6590  148.2590 C   0  0  1  0  0  3  0  0  0  0  0  0
  160.6110  212.4160  148.0380 C   0  0  1  0  0  3  0  0  0  0  0  0
  160.8180  213.8660  148.4310 C   0  0  0  0  0  2  0  0  0  0  0  0
  159.6560  214.3590  149.1550 N   0  0  0  0  0  2  0  0  0  0  0  0
  158.6510  213.0990  152.9840 N   0  0  0  0  0  0  0  0  0  0  0  0
  160.4620  211.7070  152.9350 O   0  0  0  0  0  0  0  0  0  0  0  0
  159.7480  212.5720  152.3610 C   0  0  0  0  0  0  0  0  0  0  0  0
  157.9000  214.0110  152.3620 N   0  0  0  0  0  0  0  0  0  0  0  0
  159.3180  213.9200  150.4730 C   0  0  0  0  0  0  0  0  0  0  0  0
  158.2020  214.4450  151.1130 C   0  0  0  0  0  3  0  0  0  0  0  0
  160.0720  212.9870  151.1110 N   0  0  0  0  0  0  0  0  0  0  0  0
  156.7550  212.6680  154.4530 C   0  0  0  0  0  1  0  0  0  0  0  0
  158.2660  212.6660  154.3210 C   0  0  0  0  0  2  0  0  0  0  0  0
  162.5840  207.2970  148.8530 O   0  0  0  0  0  0  0  0  0  0  0  0
  162.0450  207.1950  147.6110 N   0  0  0  0  0  2  0  0  0  0  0  0
  161.9600  204.7920  148.1730 C   0  0  0  0  0  1  0  0  0  0  0  0
  162.2680  205.8390  147.1090 C   0  0  1  0  0  3  0  0  0  0  0  0
  162.3540  205.7390  144.7070 F   0  0  0  0  0  0  0  0  0  0  0  0
  161.5190  205.5890  145.8010 C   0  0  2  0  0  3  0  0  0  0  0  0
  160.4430  206.4690  145.6920 O   0  0  0  0  0  1  0  0  0  0  0  0
  1 29  1  6  0  0  0
  2  3  2  0  0  0  0
  3  4  1  0  0  0  0
  4 11  1  0  0  0  0
  5  7  1  0  0  0  0
  6  1  1  6  0  0  0
  6  8  1  0  0  0  0
  6  2  1  0  0  0  0
  7  9  1  0  0  0  0
  8  7  2  0  0  0  0
  9  4  2  0  0  0  0
 11 10  3  0  0  0  0
 13 14  1  0  0  0  0
 14  1  1  0  0  0  0
 14 12  2  0  0  0  0
 15 17  1  0  0  0  0
 15 16  1  0  0  0  0
 16 13  1  6  0  0  0
 17 16  1  0  0  0  0
 17 18  1  1  0  0  0
 18 19  1  0  0  0  0
 19 24  1  0  0  0  0
 20 28  1  0  0  0  0
 22 21  2  0  0  0  0
 22 20  1  0  0  0  0
 23 20  1  0  0  0  0
 24 26  2  0  0  0  0
 24 25  1  0  0  0  0
 25 23  2  0  0  0  0
 26 22  1  0  0  0  0
 28 27  1  0  0  0  0
 30 29  1  0  0  0  0
 32 30  1  0  0  0  0
 32 31  1  1  0  0  0
 34 33  1  6  0  0  0
 34 32  1  0  0  0  0
 35 34  1  0  0  0  0
M  END
>  <MODEL>
3

>  <REMARK>
 VINA RESULT:      -7.2      3.866      7.307
  Name = 
  11 active torsions:
  status: ('A' for Active; 'I' for Inactive)
    1  A    between atoms: C_1  and  N_4
    2  A    between atoms: C_1  and  C_22
    3  A    between atoms: N_7  and  C_32
    4  A    between atoms: N_11  and  C_16
    5  A    between atoms: C_12  and  C_25
    6  A    between atoms: C_20  and  C_24
    7  A    between atoms: C_23  and  C_26
    8  A    between atoms: C_24  and  O_30
    9  A    between atoms: C_24  and  C_34
   10  A    between atoms: C_26  and  N_31
   11  A    between atoms: O_30  and  N_31
                            x       y       z     vdW  Elec       q    Type
                         _______ _______ _______ _____ _____    ______ ____

>  <TORSDO>
F 11

$$$$
=
 OpenBabel11052410293D

 35 37  0  0  1  0  0  0  0  0999 V2000
  162.0830  207.8400  150.5080 C   0  0  1  0  0  3  0  0  0  0  0  0
  160.7270  205.7590  150.7260 C   0  0  0  0  0  3  0  0  0  0  0  0
  160.3670  204.4950  150.5080 C   0  0  0  0  0  3  0  0  0  0  0  0
  160.8960  203.6360  149.4310 C   0  0  0  0  0  0  0  0  0  0  0  0
  160.9480  205.6990  146.2740 C   0  0  0  0  0  1  0  0  0  0  0  0
  161.8020  206.4450  149.9410 C   0  0  1  0  0  3  0  0  0  0  0  0
  161.1910  205.4700  147.7220 C   0  0  0  0  0  0  0  0  0  0  0  0
  161.4250  206.5320  148.4940 C   0  0  0  0  0  3  0  0  0  0  0  0
  161.2140  204.0730  148.2050 C   0  0  0  0  0  3  0  0  0  0  0  0
  160.9280  201.0770  149.8450 N   0  0  0  0  0  0  0  0  0  0  0  0
  160.9140  202.2190  149.6600 C   0  0  0  0  0  0  0  0  0  0  0  0
  162.7100  208.4590  148.2820 O   0  0  0  0  0  0  0  0  0  0  0  0
  162.0590  210.2210  149.6700 N   0  0  0  0  0  2  0  0  0  0  0  0
  162.3060  208.8380  149.4150 C   0  0  0  0  0  0  0  0  0  0  0  0
  161.1380  211.2510  147.7930 O   0  0  0  0  0  0  0  0  0  0  0  0
  162.2520  211.2390  148.6500 C   0  0  1  0  0  3  0  0  0  0  0  0
  161.1960  212.2660  148.7660 C   0  0  1  0  0  3  0  0  0  0  0  0
  161.6630  213.5540  148.1160 C   0  0  0  0  0  2  0  0  0  0  0  0
  160.6230  214.0820  147.2470 N   0  0  0  0  0  2  0  0  0  0  0  0
  160.6830  213.6810  143.1110 N   0  0  0  0  0  0  0  0  0  0  0  0
  162.6800  212.5860  143.3090 O   0  0  0  0  0  0  0  0  0  0  0  0
  161.7110  213.1750  143.8580 C   0  0  0  0  0  0  0  0  0  0  0  0
  159.6660  214.3080  143.7070 N   0  0  0  0  0  0  0  0  0  0  0  0
  160.6520  213.9380  145.8240 C   0  0  0  0  0  0  0  0  0  0  0  0
  159.6160  214.4530  145.0550 C   0  0  0  0  0  3  0  0  0  0  0  0
  161.6860  213.3090  145.2080 N   0  0  0  0  0  0  0  0  0  0  0  0
  159.7540  212.4520  141.2240 C   0  0  0  0  0  1  0  0  0  0  0  0
  160.6850  213.5680  141.6590 C   0  0  0  0  0  2  0  0  0  0  0  0
  161.0190  208.2660  151.3080 O   0  0  0  0  0  0  0  0  0  0  0  0
  161.5940  208.6340  152.4810 N   0  0  0  0  0  2  0  0  0  0  0  0
  161.2170  206.6590  153.9130 C   0  0  0  0  0  1  0  0  0  0  0  0
  160.8050  208.0890  153.5850 C   0  0  1  0  0  3  0  0  0  0  0  0
  159.6300  209.6700  154.9660 F   0  0  0  0  0  0  0  0  0  0  0  0
  160.8340  209.0050  154.8090 C   0  0  2  0  0  3  0  0  0  0  0  0
  161.8680  209.9340  154.6850 O   0  0  0  0  0  1  0  0  0  0  0  0
  1 14  1  6  0  0  0
  1 29  1  0  0  0  0
  3  2  2  0  0  0  0
  4 11  1  0  0  0  0
  4  3  1  0  0  0  0
  5  7  1  0  0  0  0
  6  1  1  1  0  0  0
  6  2  1  0  0  0  0
  7  9  1  0  0  0  0
  7  8  2  0  0  0  0
  8  6  1  0  0  0  0
  9  4  2  0  0  0  0
 11 10  3  0  0  0  0
 12 14  2  0  0  0  0
 14 13  1  0  0  0  0
 15 16  1  0  0  0  0
 15 17  1  0  0  0  0
 16 17  1  0  0  0  0
 16 13  1  1  0  0  0
 17 18  1  6  0  0  0
 19 18  1  0  0  0  0
 20 23  1  0  0  0  0
 20 22  1  0  0  0  0
 21 22  2  0  0  0  0
 22 26  1  0  0  0  0
 23 25  2  0  0  0  0
 24 19  1  0  0  0  0
 25 24  1  0  0  0  0
 26 24  2  0  0  0  0
 27 28  1  0  0  0  0
 28 20  1  0  0  0  0
 29 30  1  0  0  0  0
 30 32  1  0  0  0  0
 32 31  1  1  0  0  0
 32 34  1  0  0  0  0
 34 35  1  6  0  0  0
 34 33  1  0  0  0  0
M  END
>  <MODEL>
4

>  <REMARK>
 VINA RESULT:      -7.0      1.973      2.669
  Name = 
  11 active torsions:
  status: ('A' for Active; 'I' for Inactive)
    1  A    between atoms: C_1  and  N_4
    2  A    between atoms: C_1  and  C_22
    3  A    between atoms: N_7  and  C_32
    4  A    between atoms: N_11  and  C_16
    5  A    between atoms: C_12  and  C_25
    6  A    between atoms: C_20  and  C_24
    7  A    between atoms: C_23  and  C_26
    8  A    between atoms: C_24  and  O_30
    9  A    between atoms: C_24  and  C_34
   10  A    between atoms: C_26  and  N_31
   11  A    between atoms: O_30  and  N_31
                            x       y       z     vdW  Elec       q    Type
                         _______ _______ _______ _____ _____    ______ ____

>  <TORSDO>
F 11

$$$$
=
 OpenBabel11052410293D

 35 37  0  0  1  0  0  0  0  0999 V2000
  161.5260  207.0500  150.0970 C   0  0  1  0  0  3  0  0  0  0  0  0
  160.5010  204.7870  149.8800 C   0  0  0  0  0  3  0  0  0  0  0  0
  160.3740  203.5270  149.4670 C   0  0  0  0  0  3  0  0  0  0  0  0
  161.1580  202.9070  148.3810 C   0  0  0  0  0  0  0  0  0  0  0  0
  161.2580  205.3700  145.5250 C   0  0  0  0  0  1  0  0  0  0  0  0
  161.5390  205.7190  149.3370 C   0  0  1  0  0  3  0  0  0  0  0  0
  161.3600  204.9810  146.9560 C   0  0  0  0  0  0  0  0  0  0  0  0
  161.3290  205.9500  147.8720 C   0  0  0  0  0  3  0  0  0  0  0  0
  161.5470  203.5490  147.2700 C   0  0  0  0  0  3  0  0  0  0  0  0
  161.5460  200.3460  148.4910 N   0  0  0  0  0  0  0  0  0  0  0  0
  161.3730  201.4890  148.4420 C   0  0  0  0  0  0  0  0  0  0  0  0
  162.6490  206.1850  152.0270 O   0  0  0  0  0  0  0  0  0  0  0  0
  160.6860  207.3760  152.4550 N   0  0  0  0  0  2  0  0  0  0  0  0
  161.6700  206.8370  151.5720 C   0  0  0  0  0  0  0  0  0  0  0  0
  161.9080  207.8800  154.3750 O   0  0  0  0  0  0  0  0  0  0  0  0
  160.7700  207.2070  153.8960 C   0  0  1  0  0  3  0  0  0  0  0  0
  160.6720  208.5260  154.5580 C   0  0  1  0  0  3  0  0  0  0  0  0
  160.2230  208.3430  155.9950 C   0  0  0  0  0  2  0  0  0  0  0  0
  160.2710  209.6140  156.7000 N   0  0  0  0  0  2  0  0  0  0  0  0
  157.3910  212.5770  156.2610 N   0  0  0  0  0  0  0  0  0  0  0  0
  156.3250  211.2300  154.7540 O   0  0  0  0  0  0  0  0  0  0  0  0
  157.2860  211.4160  155.5460 C   0  0  0  0  0  0  0  0  0  0  0  0
  158.4190  212.7620  157.0930 N   0  0  0  0  0  0  0  0  0  0  0  0
  159.2750  210.6280  156.5430 C   0  0  0  0  0  0  0  0  0  0  0  0
  159.3740  211.8130  157.2610 C   0  0  0  0  0  3  0  0  0  0  0  0
  158.2300  210.4520  155.6930 N   0  0  0  0  0  0  0  0  0  0  0  0
  155.2620  213.4210  157.0920 C   0  0  0  0  0  1  0  0  0  0  0  0
  156.4040  213.6380  156.1170 C   0  0  0  0  0  2  0  0  0  0  0  0
  162.5600  207.8780  149.6510 O   0  0  0  0  0  0  0  0  0  0  0  0
  161.9340  208.9020  149.0170 N   0  0  0  0  0  2  0  0  0  0  0  0
  162.0650  211.3520  148.7440 C   0  0  0  0  0  1  0  0  0  0  0  0
  162.3160  210.1590  149.6590 C   0  0  1  0  0  3  0  0  0  0  0  0
  161.0300  211.5470  151.1450 F   0  0  0  0  0  0  0  0  0  0  0  0
  161.6580  210.3190  151.0290 C   0  0  2  0  0  3  0  0  0  0  0  0
  162.6150  210.1860  152.0350 O   0  0  0  0  0  1  0  0  0  0  0  0
  1 29  1  6  0  0  0
  1 14  1  0  0  0  0
  3  2  2  0  0  0  0
  4 11  1  0  0  0  0
  4  3  1  0  0  0  0
  5  7  1  0  0  0  0
  6  2  1  0  0  0  0
  6  1  1  1  0  0  0
  7  9  1  0  0  0  0
  7  8  2  0  0  0  0
  8  6  1  0  0  0  0
  9  4  2  0  0  0  0
 11 10  3  0  0  0  0
 14 12  2  0  0  0  0
 14 13  1  0  0  0  0
 15 17  1  0  0  0  0
 16 13  1  6  0  0  0
 16 15  1  0  0  0  0
 16 17  1  0  0  0  0
 17 18  1  1  0  0  0
 18 19  1  0  0  0  0
 20 23  1  0  0  0  0
 21 22  2  0  0  0  0
 22 26  1  0  0  0  0
 22 20  1  0  0  0  0
 23 25  2  0  0  0  0
 24 19  1  0  0  0  0
 24 25  1  0  0  0  0
 26 24  2  0  0  0  0
 28 20  1  0  0  0  0
 28 27  1  0  0  0  0
 30 29  1  0  0  0  0
 30 32  1  0  0  0  0
 32 31  1  6  0  0  0
 32 34  1  0  0  0  0
 34 33  1  6  0  0  0
 34 35  1  0  0  0  0
M  END
>  <MODEL>
5

>  <REMARK>
 VINA RESULT:      -7.0      4.067      8.627
  Name = 
  11 active torsions:
  status: ('A' for Active; 'I' for Inactive)
    1  A    between atoms: C_1  and  N_4
    2  A    between atoms: C_1  and  C_22
    3  A    between atoms: N_7  and  C_32
    4  A    between atoms: N_11  and  C_16
    5  A    between atoms: C_12  and  C_25
    6  A    between atoms: C_20  and  C_24
    7  A    between atoms: C_23  and  C_26
    8  A    between atoms: C_24  and  O_30
    9  A    between atoms: C_24  and  C_34
   10  A    between atoms: C_26  and  N_31
   11  A    between atoms: O_30  and  N_31
                            x       y       z     vdW  Elec       q    Type
                         _______ _______ _______ _____ _____    ______ ____

>  <TORSDO>
F 11

$$$$
=
 OpenBabel11052410293D

 35 37  0  0  1  0  0  0  0  0999 V2000
  160.9550  206.9300  148.1990 C   0  0  1  0  0  3  0  0  0  0  0  0
  161.5580  204.5180  148.3840 C   0  0  0  0  0  3  0  0  0  0  0  0
  161.4880  203.2610  148.8190 C   0  0  0  0  0  3  0  0  0  0  0  0
  160.7140  202.8110  149.9930 C   0  0  0  0  0  0  0  0  0  0  0  0
  161.3570  205.2790  152.7720 C   0  0  0  0  0  1  0  0  0  0  0  0
  160.7700  205.6340  148.9950 C   0  0  1  0  0  3  0  0  0  0  0  0
  161.0430  204.9010  151.3690 C   0  0  0  0  0  0  0  0  0  0  0  0
  161.1630  205.8370  150.4270 C   0  0  0  0  0  3  0  0  0  0  0  0
  160.5630  203.5260  151.1160 C   0  0  0  0  0  3  0  0  0  0  0  0
  159.8480  200.3670  149.9930 N   0  0  0  0  0  0  0  0  0  0  0  0
  160.2350  201.4580  149.9930 C   0  0  0  0  0  0  0  0  0  0  0  0
  162.8010  208.4310  148.4660 O   0  0  0  0  0  0  0  0  0  0  0  0
  161.3290  208.3160  150.2760 N   0  0  0  0  0  2  0  0  0  0  0  0
  161.7570  207.9330  148.9690 C   0  0  0  0  0  0  0  0  0  0  0  0
  161.4260  210.5370  150.9760 O   0  0  0  0  0  0  0  0  0  0  0  0
  162.0610  209.2870  151.0720 C   0  0  1  0  0  3  0  0  0  0  0  0
  161.1920  209.8010  152.1520 C   0  0  1  0  0  3  0  0  0  0  0  0
  162.0480  210.3650  153.2700 C   0  0  0  0  0  2  0  0  0  0  0  0
  161.3780  210.1920  154.5490 N   0  0  0  0  0  2  0  0  0  0  0  0
  158.4630  212.7930  155.9660 N   0  0  0  0  0  0  0  0  0  0  0  0
  158.7440  214.0400  154.0720 O   0  0  0  0  0  0  0  0  0  0  0  0
  159.0640  213.0360  154.7620 C   0  0  0  0  0  0  0  0  0  0  0  0
  158.8170  211.7270  156.6890 N   0  0  0  0  0  0  0  0  0  0  0  0
  160.3750  211.0930  155.0280 C   0  0  0  0  0  0  0  0  0  0  0  0
  159.7630  210.8580  156.2530 C   0  0  0  0  0  3  0  0  0  0  0  0
  160.0140  212.1830  154.3040 N   0  0  0  0  0  0  0  0  0  0  0  0
  156.1510  212.9430  156.7160 C   0  0  0  0  0  1  0  0  0  0  0  0
  157.4490  213.6950  156.4950 C   0  0  0  0  0  2  0  0  0  0  0  0
  161.5930  206.6700  146.9830 O   0  0  0  0  0  0  0  0  0  0  0  0
  160.5850  206.3950  146.1160 N   0  0  0  0  0  2  0  0  0  0  0  0
  162.6150  205.5770  144.9740 C   0  0  0  0  0  1  0  0  0  0  0  0
  161.0940  205.5200  145.0610 C   0  0  1  0  0  3  0  0  0  0  0  0
  161.6020  203.1800  145.3020 F   0  0  0  0  0  0  0  0  0  0  0  0
  160.5650  204.0930  145.2040 C   0  0  2  0  0  3  0  0  0  0  0  0
  159.7610  203.7720  144.1100 O   0  0  0  0  0  1  0  0  0  0  0  0
  1 29  1  6  0  0  0
  1 14  1  0  0  0  0
  2  3  2  0  0  0  0
  2  6  1  0  0  0  0
  3  4  1  0  0  0  0
  4  9  2  0  0  0  0
  6  1  1  6  0  0  0
  6  8  1  0  0  0  0
  7  5  1  0  0  0  0
  8  7  2  0  0  0  0
  9  7  1  0  0  0  0
 11  4  1  0  0  0  0
 11 10  3  0  0  0  0
 12 14  2  0  0  0  0
 14 13  1  0  0  0  0
 15 16  1  0  0  0  0
 15 17  1  0  0  0  0
 16 13  1  6  0  0  0
 16 17  1  0  0  0  0
 17 18  1  1  0  0  0
 18 19  1  0  0  0  0
 19 24  1  0  0  0  0
 20 28  1  0  0  0  0
 20 23  1  0  0  0  0
 21 22  2  0  0  0  0
 22 20  1  0  0  0  0
 24 25  1  0  0  0  0
 25 23  2  0  0  0  0
 26 22  1  0  0  0  0
 26 24  2  0  0  0  0
 28 27  1  0  0  0  0
 30 29  1  0  0  0  0
 32 31  1  1  0  0  0
 32 34  1  0  0  0  0
 32 30  1  0  0  0  0
 34 35  1  6  0  0  0
 34 33  1  0  0  0  0
M  END
>  <MODEL>
6

>  <REMARK>
 VINA RESULT:      -6.8      4.797      8.696
  Name = 
  11 active torsions:
  status: ('A' for Active; 'I' for Inactive)
    1  A    between atoms: C_1  and  N_4
    2  A    between atoms: C_1  and  C_22
    3  A    between atoms: N_7  and  C_32
    4  A    between atoms: N_11  and  C_16
    5  A    between atoms: C_12  and  C_25
    6  A    between atoms: C_20  and  C_24
    7  A    between atoms: C_23  and  C_26
    8  A    between atoms: C_24  and  O_30
    9  A    between atoms: C_24  and  C_34
   10  A    between atoms: C_26  and  N_31
   11  A    between atoms: O_30  and  N_31
                            x       y       z     vdW  Elec       q    Type
                         _______ _______ _______ _____ _____    ______ ____

>  <TORSDO>
F 11

$$$$
=
 OpenBabel11052410293D

 35 37  0  0  1  0  0  0  0  0999 V2000
  161.3150  208.5190  149.5000 C   0  0  1  0  0  3  0  0  0  0  0  0
  162.3220  206.8310  147.9660 C   0  0  0  0  0  3  0  0  0  0  0  0
  162.4030  205.7100  147.2500 C   0  0  0  0  0  3  0  0  0  0  0  0
  161.4820  204.5620  147.3640 C   0  0  0  0  0  0  0  0  0  0  0  0
  160.9630  203.9040  151.0420 C   0  0  0  0  0  1  0  0  0  0  0  0
  161.2090  207.1000  148.9310 C   0  0  1  0  0  3  0  0  0  0  0  0
  161.0640  204.7790  149.8440 C   0  0  0  0  0  0  0  0  0  0  0  0
  161.2120  206.0900  150.0360 C   0  0  0  0  0  3  0  0  0  0  0  0
  160.9370  204.1440  148.5150 C   0  0  0  0  0  3  0  0  0  0  0  0
  161.1390  203.0860  145.2610 N   0  0  0  0  0  0  0  0  0  0  0  0
  161.2920  203.7450  146.2000 C   0  0  0  0  0  0  0  0  0  0  0  0
  162.7080  207.8940  151.3440 O   0  0  0  0  0  0  0  0  0  0  0  0
  160.8260  209.1660  151.8900 N   0  0  0  0  0  2  0  0  0  0  0  0
  161.6720  208.4990  150.9530 C   0  0  0  0  0  0  0  0  0  0  0  0
  161.9530  210.2820  153.5980 O   0  0  0  0  0  0  0  0  0  0  0  0
  161.1200  209.1860  153.3140 C   0  0  1  0  0  3  0  0  0  0  0  0
  160.5900  210.4290  153.9130 C   0  0  1  0  0  3  0  0  0  0  0  0
  160.4000  210.2350  155.4050 C   0  0  0  0  0  2  0  0  0  0  0  0
  158.9820  210.2140  155.7310 N   0  0  0  0  0  2  0  0  0  0  0  0
  156.3830  213.3200  154.8030 N   0  0  0  0  0  0  0  0  0  0  0  0
  158.1550  214.4520  153.9070 O   0  0  0  0  0  0  0  0  0  0  0  0
  157.7080  213.4240  154.4830 C   0  0  0  0  0  0  0  0  0  0  0  0
  155.9250  212.2270  155.4180 N   0  0  0  0  0  0  0  0  0  0  0  0
  158.0950  211.2880  155.4070 C   0  0  0  0  0  0  0  0  0  0  0  0
  156.7480  211.1940  155.7330 C   0  0  0  0  0  3  0  0  0  0  0  0
  158.5520  212.4070  154.7880 N   0  0  0  0  0  0  0  0  0  0  0  0
  154.6020  214.0320  153.3010 C   0  0  0  0  0  1  0  0  0  0  0  0
  155.4510  214.3990  154.5030 C   0  0  0  0  0  2  0  0  0  0  0  0
  162.2760  209.2550  148.8020 O   0  0  0  0  0  0  0  0  0  0  0  0
  161.5930  210.3020  148.2720 N   0  0  0  0  0  2  0  0  0  0  0  0
  163.4450  211.8890  147.8890 C   0  0  0  0  0  1  0  0  0  0  0  0
  162.2140  211.5480  148.7200 C   0  0  1  0  0  3  0  0  0  0  0  0
  161.7780  213.8870  148.3690 F   0  0  0  0  0  0  0  0  0  0  0  0
  161.2060  212.6950  148.7780 C   0  0  2  0  0  3  0  0  0  0  0  0
  160.7160  212.8330  150.0770 O   0  0  0  0  0  1  0  0  0  0  0  0
  1 29  1  6  0  0  0
  1 14  1  0  0  0  0
  2  6  1  0  0  0  0
  3  4  1  0  0  0  0
  3  2  2  0  0  0  0
  4  9  2  0  0  0  0
  6  1  1  1  0  0  0
  6  8  1  0  0  0  0
  7  8  2  0  0  0  0
  7  5  1  0  0  0  0
  9  7  1  0  0  0  0
 10 11  3  0  0  0  0
 11  4  1  0  0  0  0
 14 12  2  0  0  0  0
 14 13  1  0  0  0  0
 15 17  1  0  0  0  0
 16 13  1  6  0  0  0
 16 15  1  0  0  0  0
 16 17  1  0  0  0  0
 17 18  1  1  0  0  0
 18 19  1  0  0  0  0
 20 23  1  0  0  0  0
 21 22  2  0  0  0  0
 22 26  1  0  0  0  0
 22 20  1  0  0  0  0
 23 25  2  0  0  0  0
 24 19  1  0  0  0  0
 24 25  1  0  0  0  0
 26 24  2  0  0  0  0
 27 28  1  0  0  0  0
 28 20  1  0  0  0  0
 30 32  1  0  0  0  0
 30 29  1  0  0  0  0
 32 31  1  6  0  0  0
 32 34  1  0  0  0  0
 34 33  1  1  0  0  0
 34 35  1  0  0  0  0
M  END
>  <MODEL>
7

>  <REMARK>
 VINA RESULT:      -6.8      4.093      8.015
  Name = 
  11 active torsions:
  status: ('A' for Active; 'I' for Inactive)
    1  A    between atoms: C_1  and  N_4
    2  A    between atoms: C_1  and  C_22
    3  A    between atoms: N_7  and  C_32
    4  A    between atoms: N_11  and  C_16
    5  A    between atoms: C_12  and  C_25
    6  A    between atoms: C_20  and  C_24
    7  A    between atoms: C_23  and  C_26
    8  A    between atoms: C_24  and  O_30
    9  A    between atoms: C_24  and  C_34
   10  A    between atoms: C_26  and  N_31
   11  A    between atoms: O_30  and  N_31
                            x       y       z     vdW  Elec       q    Type
                         _______ _______ _______ _____ _____    ______ ____

>  <TORSDO>
F 11

$$$$
=
 OpenBabel11052410293D

 35 37  0  0  1  0  0  0  0  0999 V2000
  161.4090  205.2300  151.3230 C   0  0  1  0  0  3  0  0  0  0  0  0
  162.5230  207.4230  150.9150 C   0  0  0  0  0  3  0  0  0  0  0  0
  162.7060  208.6310  150.3850 C   0  0  0  0  0  3  0  0  0  0  0  0
  161.9700  209.1700  149.2250 C   0  0  0  0  0  0  0  0  0  0  0  0
  161.8400  206.4460  146.6190 C   0  0  0  0  0  1  0  0  0  0  0  0
  161.4630  206.4790  150.4380 C   0  0  1  0  0  3  0  0  0  0  0  0
  161.7220  206.9750  148.0030 C   0  0  0  0  0  0  0  0  0  0  0  0
  161.6960  206.1000  149.0080 C   0  0  0  0  0  3  0  0  0  0  0  0
  161.5820  208.4370  148.1720 C   0  0  0  0  0  3  0  0  0  0  0  0
  161.6770  211.7420  149.0780 N   0  0  0  0  0  0  0  0  0  0  0  0
  161.8080  210.5930  149.1430 C   0  0  0  0  0  0  0  0  0  0  0  0
  161.2050  204.7030  153.6500 O   0  0  0  0  0  0  0  0  0  0  0  0
  160.7540  206.9220  153.0770 N   0  0  0  0  0  2  0  0  0  0  0  0
  161.1240  205.5830  152.7500 C   0  0  0  0  0  0  0  0  0  0  0  0
  161.6770  207.5930  155.1100 O   0  0  0  0  0  0  0  0  0  0  0  0
  160.4680  207.3300  154.4430 C   0  0  1  0  0  3  0  0  0  0  0  0
  160.9490  208.7100  154.6610 C   0  0  1  0  0  3  0  0  0  0  0  0
  160.2120  209.3270  155.8340 C   0  0  0  0  0  2  0  0  0  0  0  0
  160.1800  210.7760  155.7000 N   0  0  0  0  0  2  0  0  0  0  0  0
  156.7160  212.9130  154.8610 N   0  0  0  0  0  0  0  0  0  0  0  0
  155.5850  210.9280  154.7840 O   0  0  0  0  0  0  0  0  0  0  0  0
  156.6690  211.5490  154.9510 C   0  0  0  0  0  0  0  0  0  0  0  0
  157.8730  213.5560  155.0360 N   0  0  0  0  0  0  0  0  0  0  0  0
  158.9820  211.5020  155.4110 C   0  0  0  0  0  0  0  0  0  0  0  0
  159.0210  212.8880  155.3130 C   0  0  0  0  0  3  0  0  0  0  0  0
  157.8020  210.8560  155.2250 N   0  0  0  0  0  0  0  0  0  0  0  0
  155.5210  214.0840  153.0910 C   0  0  0  0  0  1  0  0  0  0  0  0
  155.5210  213.6860  154.5550 C   0  0  0  0  0  2  0  0  0  0  0  0
  160.4260  204.3480  150.8640 O   0  0  0  0  0  0  0  0  0  0  0  0
  161.0930  203.1950  150.5980 N   0  0  0  0  0  2  0  0  0  0  0  0
  161.2050  203.1700  148.1320 C   0  0  0  0  0  1  0  0  0  0  0  0
  160.5420  202.6020  149.3800 C   0  0  1  0  0  3  0  0  0  0  0  0
  161.2540  200.6230  150.5490 F   0  0  0  0  0  0  0  0  0  0  0  0
  160.5830  201.0740  149.4250 C   0  0  2  0  0  3  0  0  0  0  0  0
  161.2060  200.5800  148.2790 O   0  0  0  0  0  1  0  0  0  0  0  0
  1 29  1  6  0  0  0
  1 14  1  0  0  0  0
  3  2  2  0  0  0  0
  4  3  1  0  0  0  0
  5  7  1  0  0  0  0
  6  2  1  0  0  0  0
  6  1  1  1  0  0  0
  7  9  1  0  0  0  0
  7  8  2  0  0  0  0
  8  6  1  0  0  0  0
  9  4  2  0  0  0  0
 10 11  3  0  0  0  0
 11  4  1  0  0  0  0
 14 13  1  0  0  0  0
 14 12  2  0  0  0  0
 16 13  1  6  0  0  0
 16 17  1  0  0  0  0
 16 15  1  0  0  0  0
 17 15  1  0  0  0  0
 17 18  1  1  0  0  0
 19 18  1  0  0  0  0
 20 22  1  0  0  0  0
 20 23  1  0  0  0  0
 21 22  2  0  0  0  0
 22 26  1  0  0  0  0
 23 25  2  0  0  0  0
 24 19  1  0  0  0  0
 25 24  1  0  0  0  0
 26 24  2  0  0  0  0
 27 28  1  0  0  0  0
 28 20  1  0  0  0  0
 30 29  1  0  0  0  0
 32 31  1  6  0  0  0
 32 34  1  0  0  0  0
 32 30  1  0  0  0  0
 34 35  1  6  0  0  0
 34 33  1  0  0  0  0
M  END
>  <MODEL>
8

>  <REMARK>
 VINA RESULT:      -6.6      4.538      8.482
  Name = 
  11 active torsions:
  status: ('A' for Active; 'I' for Inactive)
    1  A    between atoms: C_1  and  N_4
    2  A    between atoms: C_1  and  C_22
    3  A    between atoms: N_7  and  C_32
    4  A    between atoms: N_11  and  C_16
    5  A    between atoms: C_12  and  C_25
    6  A    between atoms: C_20  and  C_24
    7  A    between atoms: C_23  and  C_26
    8  A    between atoms: C_24  and  O_30
    9  A    between atoms: C_24  and  C_34
   10  A    between atoms: C_26  and  N_31
   11  A    between atoms: O_30  and  N_31
                            x       y       z     vdW  Elec       q    Type
                         _______ _______ _______ _____ _____    ______ ____

>  <TORSDO>
F 11

$$$$
=
 OpenBabel11052410293D

 35 37  0  0  1  0  0  0  0  0999 V2000
  161.4530  208.0670  149.4060 C   0  0  1  0  0  3  0  0  0  0  0  0
  160.4560  205.7860  149.5410 C   0  0  0  0  0  3  0  0  0  0  0  0
  160.3540  204.4730  149.3410 C   0  0  0  0  0  3  0  0  0  0  0  0
  161.1760  203.6920  148.3970 C   0  0  0  0  0  0  0  0  0  0  0  0
  161.3410  205.6440  145.1740 C   0  0  0  0  0  1  0  0  0  0  0  0
  161.5020  206.6290  148.8800 C   0  0  1  0  0  3  0  0  0  0  0  0
  161.4030  205.5010  146.6520 C   0  0  0  0  0  0  0  0  0  0  0  0
  161.3340  206.6090  147.3920 C   0  0  0  0  0  3  0  0  0  0  0  0
  161.5930  204.1450  147.2060 C   0  0  0  0  0  3  0  0  0  0  0  0
  161.5830  201.1910  148.9450 N   0  0  0  0  0  0  0  0  0  0  0  0
  161.4020  202.3070  148.7000 C   0  0  0  0  0  0  0  0  0  0  0  0
  162.7080  207.4000  151.3320 O   0  0  0  0  0  0  0  0  0  0  0  0
  161.0610  209.0120  151.7140 N   0  0  0  0  0  2  0  0  0  0  0  0
  161.7910  208.1270  150.8630 C   0  0  0  0  0  0  0  0  0  0  0  0
  161.9560  210.3570  153.3930 O   0  0  0  0  0  0  0  0  0  0  0  0
  161.3430  209.1190  153.1360 C   0  0  1  0  0  3  0  0  0  0  0  0
  160.5880  210.2540  153.7080 C   0  0  1  0  0  3  0  0  0  0  0  0
  160.4360  210.0610  155.2050 C   0  0  0  0  0  2  0  0  0  0  0  0
  159.0260  210.0310  155.5640 N   0  0  0  0  0  2  0  0  0  0  0  0
  156.3950  213.1390  154.7400 N   0  0  0  0  0  0  0  0  0  0  0  0
  158.1400  214.2890  153.8160 O   0  0  0  0  0  0  0  0  0  0  0  0
  157.7110  213.2520  154.3890 C   0  0  0  0  0  0  0  0  0  0  0  0
  155.9560  212.0360  155.3520 N   0  0  0  0  0  0  0  0  0  0  0  0
  158.1280  211.1060  155.2760 C   0  0  0  0  0  0  0  0  0  0  0  0
  156.7890  211.0030  155.6330 C   0  0  0  0  0  3  0  0  0  0  0  0
  158.5660  212.2340  154.6610 N   0  0  0  0  0  0  0  0  0  0  0  0
  154.8840  214.0810  153.0770 C   0  0  0  0  0  1  0  0  0  0  0  0
  155.4520  214.2180  154.4770 C   0  0  0  0  0  2  0  0  0  0  0  0
  162.3430  208.8780  148.6960 O   0  0  0  0  0  0  0  0  0  0  0  0
  161.5870  209.9160  148.2530 N   0  0  0  0  0  2  0  0  0  0  0  0
  163.4640  211.4800  147.9010 C   0  0  0  0  0  1  0  0  0  0  0  0
  162.2010  211.1680  148.6940 C   0  0  1  0  0  3  0  0  0  0  0  0
  160.3340  212.2300  147.6090 F   0  0  0  0  0  0  0  0  0  0  0  0
  161.1990  212.3230  148.6850 C   0  0  2  0  0  3  0  0  0  0  0  0
  161.8780  213.5410  148.6350 O   0  0  0  0  0  1  0  0  0  0  0  0
  1 29  1  6  0  0  0
  1 14  1  0  0  0  0
  3  2  2  0  0  0  0
  4 11  1  0  0  0  0
  4  3  1  0  0  0  0
  5  7  1  0  0  0  0
  6  1  1  1  0  0  0
  6  2  1  0  0  0  0
  7  9  1  0  0  0  0
  7  8  2  0  0  0  0
  8  6  1  0  0  0  0
  9  4  2  0  0  0  0
 11 10  3  0  0  0  0
 14 12  2  0  0  0  0
 14 13  1  0  0  0  0
 15 17  1  0  0  0  0
 16 13  1  6  0  0  0
 16 15  1  0  0  0  0
 16 17  1  0  0  0  0
 17 18  1  1  0  0  0
 18 19  1  0  0  0  0
 20 23  1  0  0  0  0
 21 22  2  0  0  0  0
 22 26  1  0  0  0  0
 22 20  1  0  0  0  0
 23 25  2  0  0  0  0
 24 19  1  0  0  0  0
 24 25  1  0  0  0  0
 26 24  2  0  0  0  0
 27 28  1  0  0  0  0
 28 20  1  0  0  0  0
 30 32  1  0  0  0  0
 30 29  1  0  0  0  0
 32 31  1  6  0  0  0
 34 33  1  6  0  0  0
 34 32  1  0  0  0  0
 35 34  1  0  0  0  0
M  END
>  <MODEL>
9

>  <REMARK>
 VINA RESULT:      -6.5      4.079      8.179
  Name = 
  11 active torsions:
  status: ('A' for Active; 'I' for Inactive)
    1  A    between atoms: C_1  and  N_4
    2  A    between atoms: C_1  and  C_22
    3  A    between atoms: N_7  and  C_32
    4  A    between atoms: N_11  and  C_16
    5  A    between atoms: C_12  and  C_25
    6  A    between atoms: C_20  and  C_24
    7  A    between atoms: C_23  and  C_26
    8  A    between atoms: C_24  and  O_30
    9  A    between atoms: C_24  and  C_34
   10  A    between atoms: C_26  and  N_31
   11  A    between atoms: O_30  and  N_31
                            x       y       z     vdW  Elec       q    Type
                         _______ _______ _______ _____ _____    ______ ____

>  <TORSDO>
F 11

$$$$
