=
 OpenBabel11052409313D

 38 44  0  0  1  0  0  0  0  0999 V2000
  160.5800  207.2480  156.9390 O   0  0  0  0  0  0  0  0  0  0  0  0
  161.0940  209.6710  153.4060 C   0  0  0  0  0  2  0  0  0  0  0  0
  161.1830  207.3500  152.4610 C   0  0  0  0  0  0  0  0  0  0  0  0
  159.4780  211.5150  155.9500 O   0  0  0  0  0  0  0  0  0  0  0  0
  159.7780  210.2400  153.9310 C   0  0  1  0  0  3  0  0  0  0  0  0
  159.6250  210.2010  155.4610 C   0  0  1  0  0  3  0  0  0  0  0  0
  161.0880  208.2160  153.4910 N   0  0  0  0  0  0  0  0  0  0  0  0
  159.7000  211.6950  153.6060 C   0  0  2  0  0  3  0  0  0  0  0  0
  160.7520  208.0260  155.9630 C   0  0  0  0  0  0  0  0  0  0  0  0
  160.7630  209.5010  156.2090 C   0  0  0  0  0  2  0  0  0  0  0  0
  160.9480  207.4750  154.6080 C   0  0  0  0  0  0  0  0  0  0  0  0
  159.0930  212.3100  154.8570 C   0  0  1  0  0  3  0  0  0  0  0  0
  161.1230  206.0460  152.9260 C   0  0  0  0  0  3  0  0  0  0  0  0
  160.9650  206.1250  154.3020 C   0  0  0  0  0  3  0  0  0  0  0  0
  161.8330  204.7030  148.9060 C   0  0  1  0  0  3  0  0  0  0  0  0
  161.0940  205.5060  149.9260 C   0  0  0  0  0  0  0  0  0  0  0  0
  161.0020  202.7950  147.8620 N   0  0  0  0  0  0  0  0  0  0  0  0
  161.3010  206.1580  146.9540 N   0  0  0  0  0  0  0  0  0  0  0  0
  161.9570  209.0940  149.3260 C   0  0  0  0  0  0  0  0  0  0  0  0
  160.8530  203.8190  146.9260 N   0  0  0  0  0  2  0  0  0  0  0  0
  161.6680  207.4390  147.5030 C   0  0  0  0  0  2  0  0  0  0  0  0
  161.3630  206.9480  149.9700 C   0  0  0  0  0  0  0  0  0  0  0  0
  161.7550  209.1070  150.6350 C   0  0  0  0  0  2  0  0  0  0  0  0
  161.7170  207.7570  148.8060 C   0  0  0  0  0  0  0  0  0  0  0  0
  161.5250  203.2320  148.9650 C   0  0  0  0  0  3  0  0  0  0  0  0
  160.2420  204.9780  150.6930 O   0  0  0  0  0  0  0  0  0  0  0  0
  162.3290  210.2940  148.5270 C   0  0  0  0  0  1  0  0  0  0  0  0
  161.3820  207.7460  151.0470 C   0  0  0  0  0  0  0  0  0  0  0  0
  161.3180  205.0020  147.5470 C   0  0  0  0  0  0  0  0  0  0  0  0
  157.6940  212.3580  154.7870 O   0  0  0  0  0  0  0  0  0  0  0  0
  157.3020  213.0060  155.9580 C   0  0  0  0  0  1  0  0  0  0  0  0
  158.8960  211.9340  152.3300 C   0  0  0  0  0  2  0  0  0  0  0  0
  159.6140  212.9080  151.4120 C   0  0  0  0  0  2  0  0  0  0  0  0
  158.6370  213.9450  150.8800 C   0  0  0  0  0  2  0  0  0  0  0  0
  159.4960  213.3650  148.4560 C   0  0  0  0  0  1  0  0  0  0  0  0
  157.1870  214.4450  148.8060 C   0  0  0  0  0  2  0  0  0  0  0  0
  158.3650  213.7120  149.4050 C   0  0  0  0  0  0  0  0  0  0  0  0
  157.0860  212.9580  149.1310 C   0  0  0  0  0  2  0  0  0  0  0  0
  2  7  1  0  0  0  0
  3 13  2  0  0  0  0
  3  7  1  0  0  0  0
  5  2  1  1  0  0  0
  5  6  1  0  0  0  0
  6  4  1  0  0  0  0
  6 10  1  1  0  0  0
  7 11  1  0  0  0  0
  8 32  1  6  0  0  0
  8  5  1  0  0  0  0
  8 12  1  0  0  0  0
  9 10  1  0  0  0  0
  9  1  2  0  0  0  0
 11  9  1  0  0  0  0
 12 30  1  6  0  0  0
 12  4  1  0  0  0  0
 13 14  1  0  0  0  0
 14 11  2  0  0  0  0
 15 25  1  1  0  0  0
 15 16  1  0  0  0  0
 16 22  1  0  0  0  0
 16 26  2  0  0  0  0
 17 25  2  0  0  0  0
 18 21  1  0  0  0  0
 18 29  2  0  0  0  0
 19 23  1  0  0  0  0
 20 29  1  0  0  0  0
 20 17  1  0  0  0  0
 21 24  1  0  0  0  0
 22 28  2  0  0  0  0
 23 28  1  0  0  0  0
 24 19  2  0  0  0  0
 24 22  1  0  0  0  0
 27 19  1  0  0  0  0
 28  3  1  0  0  0  0
 29 15  1  0  0  0  0
 30 31  1  0  0  0  0
 33 32  1  0  0  0  0
 34 33  1  0  0  0  0
 35 37  1  0  0  0  0
 36 38  1  0  0  0  0
 36 37  1  0  0  0  0
 37 34  1  0  0  0  0
 38 37  1  0  0  0  0
M  END
>  <MODEL>
1

>  <REMARK>
 VINA RESULT:      -8.2      0.000      0.000
  Name = 
  6 active torsions:
  status: ('A' for Active; 'I' for Inactive)
    1  A    between atoms: C_5  and  C_35
    2  A    between atoms: O_7  and  C_30
    3  A    between atoms: C_16  and  C_19
    4  A    between atoms: C_16  and  C_23
    5  A    between atoms: C_23  and  C_34
    6  A    between atoms: C_25  and  C_34
                            x       y       z     vdW  Elec       q    Type
                         _______ _______ _______ _____ _____    ______ ____

>  <TORSDO>
F 6

$$$$
=
 OpenBabel11052409313D

 38 44  0  0  1  0  0  0  0  0999 V2000
  160.2920  214.3200  150.1150 O   0  0  0  0  0  0  0  0  0  0  0  0
  159.0450  211.0080  152.5820 C   0  0  0  0  0  2  0  0  0  0  0  0
  161.1540  210.1240  151.5540 C   0  0  0  0  0  0  0  0  0  0  0  0
  157.6550  214.0310  153.7700 O   0  0  0  0  0  0  0  0  0  0  0  0
  159.1050  212.1150  153.6310 C   0  0  1  0  0  3  0  0  0  0  0  0
  158.7860  213.5220  153.1000 C   0  0  1  0  0  3  0  0  0  0  0  0
  160.2100  211.0730  151.7080 N   0  0  0  0  0  0  0  0  0  0  0  0
  158.0510  211.8800  154.6620 C   0  0  2  0  0  3  0  0  0  0  0  0
  159.8440  213.3910  150.8380 C   0  0  0  0  0  0  0  0  0  0  0  0
  158.5680  213.6110  151.5880 C   0  0  0  0  0  2  0  0  0  0  0  0
  160.5720  212.1110  150.9260 C   0  0  0  0  0  0  0  0  0  0  0  0
  157.5090  213.2730  154.9440 C   0  0  1  0  0  3  0  0  0  0  0  0
  162.1170  210.5480  150.6520 C   0  0  0  0  0  3  0  0  0  0  0  0
  161.7480  211.8250  150.2550 C   0  0  0  0  0  3  0  0  0  0  0  0
  160.4570  206.1130  149.6840 C   0  0  1  0  0  3  0  0  0  0  0  0
  161.2080  207.3040  150.1840 C   0  0  0  0  0  0  0  0  0  0  0  0
  161.1120  204.7870  147.8850 N   0  0  0  0  0  0  0  0  0  0  0  0
  161.3340  204.4940  151.3620 N   0  0  0  0  0  0  0  0  0  0  0  0
  160.8780  207.3210  153.9070 C   0  0  0  0  0  0  0  0  0  0  0  0
  161.4710  204.0650  149.0240 N   0  0  0  0  0  2  0  0  0  0  0  0
  161.0960  205.2450  152.5680 C   0  0  0  0  0  2  0  0  0  0  0  0
  161.1290  207.5950  151.6190 C   0  0  0  0  0  0  0  0  0  0  0  0
  160.9720  208.6190  153.6640 C   0  0  0  0  0  2  0  0  0  0  0  0
  160.9820  206.5790  152.6600 C   0  0  0  0  0  0  0  0  0  0  0  0
  160.5620  205.9200  148.1960 C   0  0  0  0  0  3  0  0  0  0  0  0
  161.9170  208.0080  149.4130 O   0  0  0  0  0  0  0  0  0  0  0  0
  160.7350  206.7340  155.2680 C   0  0  0  0  0  1  0  0  0  0  0  0
  161.1260  208.7960  152.2130 C   0  0  0  0  0  0  0  0  0  0  0  0
  161.1160  204.8630  150.1360 C   0  0  0  0  0  0  0  0  0  0  0  0
  158.2010  213.8990  155.9900 O   0  0  0  0  0  0  0  0  0  0  0  0
  157.2220  214.1870  156.9410 C   0  0  0  0  0  1  0  0  0  0  0  0
  158.6220  211.1660  155.8850 C   0  0  0  0  0  2  0  0  0  0  0  0
  160.1390  211.2230  155.8870 C   0  0  0  0  0  2  0  0  0  0  0  0
  160.6840  210.6840  157.2010 C   0  0  0  0  0  2  0  0  0  0  0  0
  162.4070  208.6900  157.2600 C   0  0  0  0  0  1  0  0  0  0  0  0
  163.2230  211.1300  157.2440 C   0  0  0  0  0  2  0  0  0  0  0  0
  162.0930  210.1530  157.0140 C   0  0  0  0  0  0  0  0  0  0  0  0
  162.8160  210.7410  155.8260 C   0  0  0  0  0  2  0  0  0  0  0  0
  1  9  2  0  0  0  0
  3  7  1  0  0  0  0
  3 28  1  0  0  0  0
  4 12  1  0  0  0  0
  5  2  1  6  0  0  0
  5  8  1  0  0  0  0
  6 10  1  6  0  0  0
  6  5  1  0  0  0  0
  6  4  1  0  0  0  0
  7  2  1  0  0  0  0
  8 12  1  0  0  0  0
  8 32  1  1  0  0  0
  9 11  1  0  0  0  0
  9 10  1  0  0  0  0
 11  7  1  0  0  0  0
 12 30  1  1  0  0  0
 13  3  2  0  0  0  0
 14 13  1  0  0  0  0
 14 11  2  0  0  0  0
 15 25  1  6  0  0  0
 15 29  1  0  0  0  0
 15 16  1  0  0  0  0
 16 22  1  0  0  0  0
 17 25  2  0  0  0  0
 17 20  1  0  0  0  0
 18 21  1  0  0  0  0
 19 27  1  0  0  0  0
 20 29  1  0  0  0  0
 21 24  1  0  0  0  0
 22 28  2  0  0  0  0
 22 24  1  0  0  0  0
 23 19  1  0  0  0  0
 24 19  2  0  0  0  0
 26 16  2  0  0  0  0
 28 23  1  0  0  0  0
 29 18  2  0  0  0  0
 30 31  1  0  0  0  0
 32 33  1  0  0  0  0
 33 34  1  0  0  0  0
 37 34  1  0  0  0  0
 37 36  1  0  0  0  0
 37 35  1  0  0  0  0
 38 37  1  0  0  0  0
 38 36  1  0  0  0  0
M  END
>  <MODEL>
2

>  <REMARK>
 VINA RESULT:      -8.1      2.110      5.345
  Name = 
  6 active torsions:
  status: ('A' for Active; 'I' for Inactive)
    1  A    between atoms: C_5  and  C_35
    2  A    between atoms: O_7  and  C_30
    3  A    between atoms: C_16  and  C_19
    4  A    between atoms: C_16  and  C_23
    5  A    between atoms: C_23  and  C_34
    6  A    between atoms: C_25  and  C_34
                            x       y       z     vdW  Elec       q    Type
                         _______ _______ _______ _____ _____    ______ ____

>  <TORSDO>
F 6

$$$$
=
 OpenBabel11052409313D

 38 44  0  0  1  0  0  0  0  0999 V2000
  161.5810  207.3160  156.8620 O   0  0  0  0  0  0  0  0  0  0  0  0
  160.5220  207.9800  152.7320 C   0  0  0  0  0  2  0  0  0  0  0  0
  161.6840  210.1230  153.3210 C   0  0  0  0  0  0  0  0  0  0  0  0
  160.6720  204.5210  153.4330 O   0  0  0  0  0  0  0  0  0  0  0  0
  161.3180  206.6840  152.6000 C   0  0  1  0  0  3  0  0  0  0  0  0
  161.2380  205.7520  153.8200 C   0  0  1  0  0  3  0  0  0  0  0  0
  161.2020  208.9030  153.6340 N   0  0  0  0  0  0  0  0  0  0  0  0
  160.7470  205.8620  151.4910 C   0  0  2  0  0  3  0  0  0  0  0  0
  161.2110  207.4410  155.6640 C   0  0  0  0  0  0  0  0  0  0  0  0
  160.4680  206.3160  155.0170 C   0  0  0  0  0  2  0  0  0  0  0  0
  161.5050  208.6860  154.9290 C   0  0  0  0  0  0  0  0  0  0  0  0
  160.7960  204.4430  152.0350 C   0  0  1  0  0  3  0  0  0  0  0  0
  162.2810  210.6990  154.4310 C   0  0  0  0  0  3  0  0  0  0  0  0
  162.1740  209.7750  155.4600 C   0  0  0  0  0  3  0  0  0  0  0  0
  158.1370  212.3170  151.6850 C   0  0  1  0  0  3  0  0  0  0  0  0
  159.4330  212.1000  152.3950 C   0  0  0  0  0  0  0  0  0  0  0  0
  156.5750  213.9530  152.2380 N   0  0  0  0  0  0  0  0  0  0  0  0
  159.0630  213.6570  149.7990 N   0  0  0  0  0  0  0  0  0  0  0  0
  161.9530  211.1420  149.8060 C   0  0  0  0  0  0  0  0  0  0  0  0
  157.2520  214.4530  151.1250 N   0  0  0  0  0  2  0  0  0  0  0  0
  160.1520  212.7980  149.4070 C   0  0  0  0  0  2  0  0  0  0  0  0
  160.5600  211.5990  151.6010 C   0  0  0  0  0  0  0  0  0  0  0  0
  162.4210  210.4860  150.8570 C   0  0  0  0  0  2  0  0  0  0  0  0
  160.7690  211.8970  150.1860 C   0  0  0  0  0  0  0  0  0  0  0  0
  157.0310  212.7900  152.5870 C   0  0  0  0  0  3  0  0  0  0  0  0
  159.5690  212.3770  153.6190 O   0  0  0  0  0  0  0  0  0  0  0  0
  162.5920  211.1280  148.4610 C   0  0  0  0  0  1  0  0  0  0  0  0
  161.5370  210.7700  151.9960 C   0  0  0  0  0  0  0  0  0  0  0  0
  158.2350  213.4940  150.7860 C   0  0  0  0  0  0  0  0  0  0  0  0
  161.9980  203.8020  151.7100 O   0  0  0  0  0  0  0  0  0  0  0  0
  161.6350  202.4830  151.4350 C   0  0  0  0  0  1  0  0  0  0  0  0
  161.5250  206.0670  150.1930 C   0  0  0  0  0  2  0  0  0  0  0  0
  160.7220  205.5840  148.9980 C   0  0  0  0  0  2  0  0  0  0  0  0
  161.5240  204.5640  148.2050 C   0  0  0  0  0  2  0  0  0  0  0  0
  160.8410  206.1820  146.2390 C   0  0  0  0  0  1  0  0  0  0  0  0
  161.7110  203.8110  145.7450 C   0  0  0  0  0  2  0  0  0  0  0  0
  161.5610  204.9430  146.7360 C   0  0  0  0  0  0  0  0  0  0  0  0
  162.8990  204.7090  146.0770 C   0  0  0  0  0  2  0  0  0  0  0  0
  2  7  1  0  0  0  0
  3  7  1  0  0  0  0
  3 13  2  0  0  0  0
  4  6  1  0  0  0  0
  5  2  1  1  0  0  0
  5  6  1  0  0  0  0
  6 10  1  1  0  0  0
  7 11  1  0  0  0  0
  8 32  1  6  0  0  0
  8 12  1  0  0  0  0
  8  5  1  0  0  0  0
  9  1  2  0  0  0  0
 10  9  1  0  0  0  0
 11 14  2  0  0  0  0
 11  9  1  0  0  0  0
 12 30  1  1  0  0  0
 12  4  1  0  0  0  0
 13 14  1  0  0  0  0
 15 16  1  0  0  0  0
 15 25  1  1  0  0  0
 16 26  2  0  0  0  0
 17 25  2  0  0  0  0
 18 29  2  0  0  0  0
 19 24  2  0  0  0  0
 19 23  1  0  0  0  0
 20 17  1  0  0  0  0
 21 18  1  0  0  0  0
 21 24  1  0  0  0  0
 22 28  2  0  0  0  0
 22 16  1  0  0  0  0
 23 28  1  0  0  0  0
 24 22  1  0  0  0  0
 27 19  1  0  0  0  0
 28  3  1  0  0  0  0
 29 20  1  0  0  0  0
 29 15  1  0  0  0  0
 31 30  1  0  0  0  0
 33 32  1  0  0  0  0
 34 33  1  0  0  0  0
 35 37  1  0  0  0  0
 36 38  1  0  0  0  0
 36 37  1  0  0  0  0
 37 34  1  0  0  0  0
 38 37  1  0  0  0  0
M  END
>  <MODEL>
3

>  <REMARK>
 VINA RESULT:      -7.2      2.758      7.316
  Name = 
  6 active torsions:
  status: ('A' for Active; 'I' for Inactive)
    1  A    between atoms: C_5  and  C_35
    2  A    between atoms: O_7  and  C_30
    3  A    between atoms: C_16  and  C_19
    4  A    between atoms: C_16  and  C_23
    5  A    between atoms: C_23  and  C_34
    6  A    between atoms: C_25  and  C_34
                            x       y       z     vdW  Elec       q    Type
                         _______ _______ _______ _____ _____    ______ ____

>  <TORSDO>
F 6

$$$$
=
 OpenBabel11052409313D

 38 44  0  0  1  0  0  0  0  0999 V2000
  161.6270  212.8750  147.6590 O   0  0  0  0  0  0  0  0  0  0  0  0
  161.9190  210.3210  151.1240 C   0  0  0  0  0  2  0  0  0  0  0  0
  160.3820  212.1260  151.9380 C   0  0  0  0  0  0  0  0  0  0  0  0
  162.6820  208.5150  148.1840 O   0  0  0  0  0  0  0  0  0  0  0  0
  161.4390  209.3100  150.0860 C   0  0  1  0  0  3  0  0  0  0  0  0
  161.9020  209.5940  148.6480 C   0  0  1  0  0  3  0  0  0  0  0  0
  161.1740  211.5680  151.0010 N   0  0  0  0  0  0  0  0  0  0  0  0
  162.0270  207.9710  150.3870 C   0  0  2  0  0  3  0  0  0  0  0  0
  161.7880  212.0920  148.6330 C   0  0  0  0  0  0  0  0  0  0  0  0
  162.6770  210.9020  148.4630 C   0  0  0  0  0  2  0  0  0  0  0  0
  161.1120  212.3650  149.9160 C   0  0  0  0  0  0  0  0  0  0  0  0
  162.3870  207.4210  149.0160 C   0  0  1  0  0  3  0  0  0  0  0  0
  159.8250  213.3000  151.4560 C   0  0  0  0  0  3  0  0  0  0  0  0
  160.2870  213.4500  150.1560 C   0  0  0  0  0  3  0  0  0  0  0  0
  157.5310  213.5300  155.0970 C   0  0  1  0  0  3  0  0  0  0  0  0
  158.0410  212.7490  153.9290 C   0  0  0  0  0  0  0  0  0  0  0  0
  155.3060  214.1300  155.4250 N   0  0  0  0  0  0  0  0  0  0  0  0
  157.3830  211.6140  156.6820 N   0  0  0  0  0  0  0  0  0  0  0  0
  160.7410  210.5040  155.2100 C   0  0  0  0  0  0  0  0  0  0  0  0
  155.5190  213.0380  156.2670 N   0  0  0  0  0  2  0  0  0  0  0  0
  158.6970  211.0520  156.5030 C   0  0  0  0  0  3  0  0  0  0  0  0
  159.1950  211.8730  154.1580 C   0  0  0  0  0  0  0  0  0  0  0  0
  161.1650  210.7140  153.9740 C   0  0  0  0  0  3  0  0  0  0  0  0
  159.4780  211.1950  155.4210 C   0  0  0  0  0  0  0  0  0  0  0  0
  156.3750  214.4300  154.7560 C   0  0  0  0  0  3  0  0  0  0  0  0
  157.4780  212.8050  152.8010 O   0  0  0  0  0  0  0  0  0  0  0  0
  161.4490  209.6460  156.2010 C   0  0  0  0  0  1  0  0  0  0  0  0
  160.1880  211.5870  153.3050 C   0  0  0  0  0  0  0  0  0  0  0  0
  156.8580  212.6280  156.0630 C   0  0  0  0  0  0  0  0  0  0  0  0
  161.3350  206.6820  148.4580 O   0  0  0  0  0  0  0  0  0  0  0  0
  161.8260  206.2360  147.2310 C   0  0  0  0  0  1  0  0  0  0  0  0
  161.0510  207.1030  151.1790 C   0  0  0  0  0  2  0  0  0  0  0  0
  161.7910  206.2220  152.1700 C   0  0  0  0  0  2  0  0  0  0  0  0
  162.4180  205.0360  151.4530 C   0  0  0  0  0  2  0  0  0  0  0  0
  160.8200  203.7830  149.7720 C   0  0  0  0  0  1  0  0  0  0  0  0
  160.4520  203.6040  152.3120 C   0  0  0  0  0  2  0  0  0  0  0  0
  161.3730  203.9720  151.1720 C   0  0  0  0  0  0  0  0  0  0  0  0
  161.6000  202.6800  151.9180 C   0  0  0  0  0  2  0  0  0  0  0  0
  1  9  2  0  0  0  0
  3 28  1  0  0  0  0
  4  6  1  0  0  0  0
  4 12  1  0  0  0  0
  5  8  1  0  0  0  0
  5  2  1  1  0  0  0
  6 10  1  1  0  0  0
  6  5  1  0  0  0  0
  7  2  1  0  0  0  0
  7  3  1  0  0  0  0
  8 32  1  6  0  0  0
  9 11  1  0  0  0  0
 10  9  1  0  0  0  0
 11 14  2  0  0  0  0
 11  7  1  0  0  0  0
 12 30  1  6  0  0  0
 12  8  1  0  0  0  0
 13  3  2  0  0  0  0
 14 13  1  0  0  0  0
 15 25  1  6  0  0  0
 15 29  1  0  0  0  0
 16 22  1  0  0  0  0
 16 15  1  0  0  0  0
 17 20  1  0  0  0  0
 19 24  1  0  0  0  0
 19 27  1  0  0  0  0
 21 18  1  0  0  0  0
 22 24  1  0  0  0  0
 23 19  2  0  0  0  0
 24 21  2  0  0  0  0
 25 17  2  0  0  0  0
 26 16  2  0  0  0  0
 28 23  1  0  0  0  0
 28 22  2  0  0  0  0
 29 20  1  0  0  0  0
 29 18  2  0  0  0  0
 31 30  1  0  0  0  0
 32 33  1  0  0  0  0
 34 33  1  0  0  0  0
 35 37  1  0  0  0  0
 37 34  1  0  0  0  0
 37 38  1  0  0  0  0
 37 36  1  0  0  0  0
 38 36  1  0  0  0  0
M  END
>  <MODEL>
4

>  <REMARK>
 VINA RESULT:      -7.2      3.203      9.072
  Name = 
  6 active torsions:
  status: ('A' for Active; 'I' for Inactive)
    1  A    between atoms: C_5  and  C_35
    2  A    between atoms: O_7  and  C_30
    3  A    between atoms: C_16  and  C_19
    4  A    between atoms: C_16  and  C_23
    5  A    between atoms: C_23  and  C_34
    6  A    between atoms: C_25  and  C_34
                            x       y       z     vdW  Elec       q    Type
                         _______ _______ _______ _____ _____    ______ ____

>  <TORSDO>
F 6

$$$$
=
 OpenBabel11052409313D

 38 44  0  0  1  0  0  0  0  0999 V2000
  161.1670  212.1180  147.8130 O   0  0  0  0  0  0  0  0  0  0  0  0
  161.9160  210.1300  151.5690 C   0  0  0  0  0  2  0  0  0  0  0  0
  160.4550  212.0420  152.2760 C   0  0  0  0  0  0  0  0  0  0  0  0
  162.3520  207.8910  148.8710 O   0  0  0  0  0  0  0  0  0  0  0  0
  161.3320  208.9710  150.7640 C   0  0  1  0  0  3  0  0  0  0  0  0
  161.6150  209.0290  149.2540 C   0  0  1  0  0  3  0  0  0  0  0  0
  161.1390  211.3440  151.3470 N   0  0  0  0  0  0  0  0  0  0  0  0
  161.9750  207.6940  151.1940 C   0  0  2  0  0  3  0  0  0  0  0  0
  161.4570  211.4950  148.8690 C   0  0  0  0  0  0  0  0  0  0  0  0
  162.3400  210.2910  148.7780 C   0  0  0  0  0  2  0  0  0  0  0  0
  160.9340  211.9640  150.1670 C   0  0  0  0  0  0  0  0  0  0  0  0
  162.1790  206.9390  149.8910 C   0  0  1  0  0  3  0  0  0  0  0  0
  159.8250  213.1280  151.6900 C   0  0  0  0  0  3  0  0  0  0  0  0
  160.1250  213.0740  150.3360 C   0  0  0  0  0  3  0  0  0  0  0  0
  157.5220  213.3980  155.3790 C   0  0  1  0  0  3  0  0  0  0  0  0
  158.1270  212.5390  154.3170 C   0  0  0  0  0  0  0  0  0  0  0  0
  155.2380  213.6070  155.7800 N   0  0  0  0  0  0  0  0  0  0  0  0
  157.8350  211.7930  157.2600 N   0  0  0  0  0  0  0  0  0  0  0  0
  161.2800  211.1110  155.7280 C   0  0  0  0  0  0  0  0  0  0  0  0
  155.7060  212.7390  156.7670 N   0  0  0  0  0  2  0  0  0  0  0  0
  159.2270  211.4710  157.0710 C   0  0  0  0  0  3  0  0  0  0  0  0
  159.4440  211.9540  154.5930 C   0  0  0  0  0  0  0  0  0  0  0  0
  161.5970  211.1810  154.4440 C   0  0  0  0  0  3  0  0  0  0  0  0
  159.9140  211.5720  155.9230 C   0  0  0  0  0  0  0  0  0  0  0  0
  156.1940  213.9860  154.9900 C   0  0  0  0  0  3  0  0  0  0  0  0
  157.5150  212.2890  153.2420 O   0  0  0  0  0  0  0  0  0  0  0  0
  162.1900  210.5900  156.7860 C   0  0  0  0  0  1  0  0  0  0  0  0
  160.4360  211.7200  153.7220 C   0  0  0  0  0  0  0  0  0  0  0  0
  157.0890  212.5640  156.5280 C   0  0  0  0  0  0  0  0  0  0  0  0
  161.0800  206.1240  149.5840 O   0  0  0  0  0  0  0  0  0  0  0  0
  161.3860  205.5670  148.3420 C   0  0  0  0  0  1  0  0  0  0  0  0
  161.1160  206.9610  152.2220 C   0  0  0  0  0  2  0  0  0  0  0  0
  161.1970  207.6380  153.5790 C   0  0  0  0  0  2  0  0  0  0  0  0
  160.8240  206.6560  154.6790 C   0  0  0  0  0  2  0  0  0  0  0  0
  158.9640  208.2570  155.6420 C   0  0  0  0  0  1  0  0  0  0  0  0
  161.1000  207.7680  156.9900 C   0  0  0  0  0  2  0  0  0  0  0  0
  160.1870  207.3850  155.8480 C   0  0  0  0  0  0  0  0  0  0  0  0
  160.1540  206.5800  157.1250 C   0  0  0  0  0  2  0  0  0  0  0  0
  1  9  2  0  0  0  0
  3 28  1  0  0  0  0
  4  6  1  0  0  0  0
  4 12  1  0  0  0  0
  5  8  1  0  0  0  0
  5  2  1  1  0  0  0
  6 10  1  1  0  0  0
  6  5  1  0  0  0  0
  7  2  1  0  0  0  0
  7  3  1  0  0  0  0
  8 32  1  1  0  0  0
  9 11  1  0  0  0  0
 10  9  1  0  0  0  0
 11 14  2  0  0  0  0
 11  7  1  0  0  0  0
 12 30  1  6  0  0  0
 12  8  1  0  0  0  0
 13  3  2  0  0  0  0
 14 13  1  0  0  0  0
 15 25  1  6  0  0  0
 15 29  1  0  0  0  0
 16 22  1  0  0  0  0
 16 15  1  0  0  0  0
 17 20  1  0  0  0  0
 19 24  1  0  0  0  0
 19 27  1  0  0  0  0
 21 18  1  0  0  0  0
 22 24  1  0  0  0  0
 23 19  2  0  0  0  0
 24 21  2  0  0  0  0
 25 17  2  0  0  0  0
 26 16  2  0  0  0  0
 28 23  1  0  0  0  0
 28 22  2  0  0  0  0
 29 20  1  0  0  0  0
 29 18  2  0  0  0  0
 31 30  1  0  0  0  0
 32 33  1  0  0  0  0
 33 34  1  0  0  0  0
 34 37  1  0  0  0  0
 35 37  1  0  0  0  0
 36 38  1  0  0  0  0
 37 36  1  0  0  0  0
 37 38  1  0  0  0  0
M  END
>  <MODEL>
5

>  <REMARK>
 VINA RESULT:      -6.3      3.078      8.836
  Name = 
  6 active torsions:
  status: ('A' for Active; 'I' for Inactive)
    1  A    between atoms: C_5  and  C_35
    2  A    between atoms: O_7  and  C_30
    3  A    between atoms: C_16  and  C_19
    4  A    between atoms: C_16  and  C_23
    5  A    between atoms: C_23  and  C_34
    6  A    between atoms: C_25  and  C_34
                            x       y       z     vdW  Elec       q    Type
                         _______ _______ _______ _____ _____    ______ ____

>  <TORSDO>
F 6

$$$$
=
 OpenBabel11052409313D

 38 44  0  0  1  0  0  0  0  0999 V2000
  161.2340  213.4650  149.0600 O   0  0  0  0  0  0  0  0  0  0  0  0
  159.6890  210.8960  152.1640 C   0  0  0  0  0  2  0  0  0  0  0  0
  161.5630  209.5150  151.2320 C   0  0  0  0  0  0  0  0  0  0  0  0
  158.8550  214.2670  152.8140 O   0  0  0  0  0  0  0  0  0  0  0  0
  159.9890  212.1510  152.9790 C   0  0  1  0  0  3  0  0  0  0  0  0
  159.8460  213.4720  152.2050 C   0  0  1  0  0  3  0  0  0  0  0  0
  160.7850  210.6160  151.2430 N   0  0  0  0  0  0  0  0  0  0  0  0
  158.9890  212.2780  154.0810 C   0  0  2  0  0  3  0  0  0  0  0  0
  160.7060  212.7660  149.9660 C   0  0  0  0  0  0  0  0  0  0  0  0
  159.5350  213.3190  150.7140 C   0  0  0  0  0  2  0  0  0  0  0  0
  161.2390  211.4230  150.2640 C   0  0  0  0  0  0  0  0  0  0  0  0
  158.6830  213.7680  154.1160 C   0  0  1  0  0  3  0  0  0  0  0  0
  162.5100  209.6100  150.2240 C   0  0  0  0  0  3  0  0  0  0  0  0
  162.3080  210.8360  149.6080 C   0  0  0  0  0  3  0  0  0  0  0  0
  160.5870  205.2830  150.1310 C   0  0  1  0  0  3  0  0  0  0  0  0
  161.4200  206.4850  150.4370 C   0  0  0  0  0  0  0  0  0  0  0  0
  161.1980  203.5800  148.6660 N   0  0  0  0  0  0  0  0  0  0  0  0
  161.2390  203.9620  152.1410 N   0  0  0  0  0  0  0  0  0  0  0  0
  160.9290  207.2640  154.0600 C   0  0  0  0  0  0  0  0  0  0  0  0
  161.4400  203.0700  149.9430 N   0  0  0  0  0  2  0  0  0  0  0  0
  161.0160  204.9540  153.1620 C   0  0  0  0  0  2  0  0  0  0  0  0
  161.3050  207.0600  151.7820 C   0  0  0  0  0  0  0  0  0  0  0  0
  161.1510  208.4770  153.5770 C   0  0  0  0  0  2  0  0  0  0  0  0
  161.0200  206.2850  152.9870 C   0  0  0  0  0  0  0  0  0  0  0  0
  160.7400  204.7920  148.7180 C   0  0  0  0  0  3  0  0  0  0  0  0
  162.2240  206.9640  149.5900 O   0  0  0  0  0  0  0  0  0  0  0  0
  160.6730  206.9710  155.4970 C   0  0  0  0  0  1  0  0  0  0  0  0
  161.3850  208.3510  152.1310 C   0  0  0  0  0  0  0  0  0  0  0  0
  161.1100  204.0980  150.8560 C   0  0  0  0  0  0  0  0  0  0  0  0
  159.5340  214.4530  154.9930 O   0  0  0  0  0  0  0  0  0  0  0  0
  158.8660  214.4430  156.2180 C   0  0  0  0  0  1  0  0  0  0  0  0
  159.5340  211.7150  155.3910 C   0  0  0  0  0  2  0  0  0  0  0  0
  158.4050  211.2170  156.2770 C   0  0  0  0  0  2  0  0  0  0  0  0
  157.3840  210.4530  155.4480 C   0  0  0  0  0  2  0  0  0  0  0  0
  154.7750  210.0830  155.4380 C   0  0  0  0  0  1  0  0  0  0  0  0
  155.7630  212.4440  155.6990 C   0  0  0  0  0  2  0  0  0  0  0  0
  155.9810  210.9490  155.7450 C   0  0  0  0  0  0  0  0  0  0  0  0
  155.8660  211.7200  157.0380 C   0  0  0  0  0  2  0  0  0  0  0  0
  1  9  2  0  0  0  0
  3  7  1  0  0  0  0
  3 28  1  0  0  0  0
  4 12  1  0  0  0  0
  5  2  1  6  0  0  0
  5  8  1  0  0  0  0
  6 10  1  6  0  0  0
  6  4  1  0  0  0  0
  6  5  1  0  0  0  0
  7  2  1  0  0  0  0
  8 12  1  0  0  0  0
  8 32  1  1  0  0  0
  9 11  1  0  0  0  0
  9 10  1  0  0  0  0
 11  7  1  0  0  0  0
 12 30  1  1  0  0  0
 13  3  2  0  0  0  0
 14 13  1  0  0  0  0
 14 11  2  0  0  0  0
 15 25  1  6  0  0  0
 15 16  1  0  0  0  0
 15 29  1  0  0  0  0
 16 22  1  0  0  0  0
 17 25  2  0  0  0  0
 17 20  1  0  0  0  0
 18 21  1  0  0  0  0
 19 27  1  0  0  0  0
 20 29  1  0  0  0  0
 22 28  2  0  0  0  0
 22 24  1  0  0  0  0
 23 19  1  0  0  0  0
 24 21  1  0  0  0  0
 24 19  2  0  0  0  0
 26 16  2  0  0  0  0
 28 23  1  0  0  0  0
 29 18  2  0  0  0  0
 30 31  1  0  0  0  0
 32 33  1  0  0  0  0
 34 37  1  0  0  0  0
 34 33  1  0  0  0  0
 35 37  1  0  0  0  0
 36 37  1  0  0  0  0
 36 38  1  0  0  0  0
 37 38  1  0  0  0  0
M  END
>  <MODEL>
6

>  <REMARK>
 VINA RESULT:      -6.0      2.207      5.004
  Name = 
  6 active torsions:
  status: ('A' for Active; 'I' for Inactive)
    1  A    between atoms: C_5  and  C_35
    2  A    between atoms: O_7  and  C_30
    3  A    between atoms: C_16  and  C_19
    4  A    between atoms: C_16  and  C_23
    5  A    between atoms: C_23  and  C_34
    6  A    between atoms: C_25  and  C_34
                            x       y       z     vdW  Elec       q    Type
                         _______ _______ _______ _____ _____    ______ ____

>  <TORSDO>
F 6

$$$$
=
 OpenBabel11052409313D

 38 44  0  0  1  0  0  0  0  0999 V2000
  162.0550  208.4180  147.4510 O   0  0  0  0  0  0  0  0  0  0  0  0
  162.3460  208.0060  151.7360 C   0  0  0  0  0  2  0  0  0  0  0  0
  161.5580  210.3740  151.4950 C   0  0  0  0  0  0  0  0  0  0  0  0
  161.9700  204.8430  150.2090 O   0  0  0  0  0  0  0  0  0  0  0  0
  161.4070  206.8450  151.4190 C   0  0  1  0  0  3  0  0  0  0  0  0
  161.6250  206.1990  150.0410 C   0  0  1  0  0  3  0  0  0  0  0  0
  161.9590  209.1930  150.9830 N   0  0  0  0  0  0  0  0  0  0  0  0
  161.6570  205.7270  152.3760 C   0  0  2  0  0  3  0  0  0  0  0  0
  162.1940  208.2240  148.6880 C   0  0  0  0  0  0  0  0  0  0  0  0
  162.6710  206.8870  149.1600 C   0  0  0  0  0  2  0  0  0  0  0  0
  161.8950  209.3100  149.6410 C   0  0  0  0  0  0  0  0  0  0  0  0
  161.5660  204.4830  151.5060 C   0  0  1  0  0  3  0  0  0  0  0  0
  161.2550  211.2600  150.4730 C   0  0  0  0  0  3  0  0  0  0  0  0
  161.4640  210.5750  149.2840 C   0  0  0  0  0  3  0  0  0  0  0  0
  158.9300  213.3270  153.6030 C   0  0  1  0  0  3  0  0  0  0  0  0
  159.3720  212.0230  153.0230 C   0  0  0  0  0  0  0  0  0  0  0  0
  156.7160  214.0290  153.7600 N   0  0  0  0  0  0  0  0  0  0  0  0
  159.0100  212.6210  155.9910 N   0  0  0  0  0  0  0  0  0  0  0  0
  162.2760  210.8480  155.0620 C   0  0  0  0  0  0  0  0  0  0  0  0
  157.0530  213.5900  155.0410 N   0  0  0  0  0  2  0  0  0  0  0  0
  160.3280  212.0420  156.0260 C   0  0  0  0  0  3  0  0  0  0  0  0
  160.5820  211.4130  153.5850 C   0  0  0  0  0  0  0  0  0  0  0  0
  162.5800  210.3290  153.8830 C   0  0  0  0  0  3  0  0  0  0  0  0
  161.0050  211.5500  154.9770 C   0  0  0  0  0  0  0  0  0  0  0  0
  157.7080  213.8960  152.9360 C   0  0  0  0  0  3  0  0  0  0  0  0
  158.7110  211.4460  152.1160 O   0  0  0  0  0  0  0  0  0  0  0  0
  163.1070  210.6810  156.2870 C   0  0  0  0  0  1  0  0  0  0  0  0
  161.5100  210.6900  152.9420 C   0  0  0  0  0  0  0  0  0  0  0  0
  158.3860  213.1230  154.9680 C   0  0  0  0  0  0  0  0  0  0  0  0
  160.2620  203.9730  151.4630 O   0  0  0  0  0  0  0  0  0  0  0  0
  160.3700  202.6780  151.9690 C   0  0  0  0  0  1  0  0  0  0  0  0
  160.6660  205.7600  153.5370 C   0  0  0  0  0  2  0  0  0  0  0  0
  161.1840  206.6330  154.6670 C   0  0  0  0  0  2  0  0  0  0  0  0
  160.2440  207.8070  154.8950 C   0  0  0  0  0  2  0  0  0  0  0  0
  159.2780  209.2730  156.8620 C   0  0  0  0  0  1  0  0  0  0  0  0
  161.3350  207.7730  157.2320 C   0  0  0  0  0  2  0  0  0  0  0  0
  160.1400  208.1250  156.3760 C   0  0  0  0  0  0  0  0  0  0  0  0
  160.0830  206.9030  157.2610 C   0  0  0  0  0  2  0  0  0  0  0  0
  1  9  2  0  0  0  0
  3 28  1  0  0  0  0
  4 12  1  0  0  0  0
  5  2  1  1  0  0  0
  5  8  1  0  0  0  0
  6 10  1  1  0  0  0
  6  4  1  0  0  0  0
  6  5  1  0  0  0  0
  7  3  1  0  0  0  0
  7  2  1  0  0  0  0
  8 32  1  1  0  0  0
  9 10  1  0  0  0  0
  9 11  1  0  0  0  0
 11  7  1  0  0  0  0
 12 30  1  6  0  0  0
 12  8  1  0  0  0  0
 13  3  2  0  0  0  0
 14 11  2  0  0  0  0
 14 13  1  0  0  0  0
 15 25  1  6  0  0  0
 15 29  1  0  0  0  0
 16 22  1  0  0  0  0
 16 15  1  0  0  0  0
 17 20  1  0  0  0  0
 18 21  1  0  0  0  0
 19 27  1  0  0  0  0
 22 24  1  0  0  0  0
 23 19  2  0  0  0  0
 24 19  1  0  0  0  0
 24 21  2  0  0  0  0
 25 17  2  0  0  0  0
 26 16  2  0  0  0  0
 28 22  2  0  0  0  0
 28 23  1  0  0  0  0
 29 20  1  0  0  0  0
 29 18  2  0  0  0  0
 30 31  1  0  0  0  0
 32 33  1  0  0  0  0
 33 34  1  0  0  0  0
 34 37  1  0  0  0  0
 36 38  1  0  0  0  0
 37 35  1  0  0  0  0
 37 36  1  0  0  0  0
 37 38  1  0  0  0  0
M  END
>  <MODEL>
7

>  <REMARK>
 VINA RESULT:      -5.8      2.854      8.381
  Name = 
  6 active torsions:
  status: ('A' for Active; 'I' for Inactive)
    1  A    between atoms: C_5  and  C_35
    2  A    between atoms: O_7  and  C_30
    3  A    between atoms: C_16  and  C_19
    4  A    between atoms: C_16  and  C_23
    5  A    between atoms: C_23  and  C_34
    6  A    between atoms: C_25  and  C_34
                            x       y       z     vdW  Elec       q    Type
                         _______ _______ _______ _____ _____    ______ ____

>  <TORSDO>
F 6

$$$$
=
 OpenBabel11052409313D

 38 44  0  0  1  0  0  0  0  0999 V2000
  162.3630  211.6830  147.6200 O   0  0  0  0  0  0  0  0  0  0  0  0
  162.0940  208.6770  150.7030 C   0  0  0  0  0  2  0  0  0  0  0  0
  161.0120  210.6510  151.8070 C   0  0  0  0  0  0  0  0  0  0  0  0
  162.4050  207.1680  147.5230 O   0  0  0  0  0  0  0  0  0  0  0  0
  161.3890  207.9510  149.5590 C   0  0  1  0  0  3  0  0  0  0  0  0
  161.8940  208.3200  148.1550 C   0  0  1  0  0  3  0  0  0  0  0  0
  161.6490  210.0640  150.7750 N   0  0  0  0  0  0  0  0  0  0  0  0
  161.6600  206.4860  149.6580 C   0  0  2  0  0  3  0  0  0  0  0  0
  162.3500  210.7580  148.4750 C   0  0  0  0  0  0  0  0  0  0  0  0
  162.9440  209.4340  148.1150 C   0  0  0  0  0  2  0  0  0  0  0  0
  161.7620  210.9960  149.8080 C   0  0  0  0  0  0  0  0  0  0  0  0
  161.8760  206.0640  148.2130 C   0  0  1  0  0  3  0  0  0  0  0  0
  160.7330  211.9740  151.5060 C   0  0  0  0  0  3  0  0  0  0  0  0
  161.2070  212.1940  150.2210 C   0  0  0  0  0  3  0  0  0  0  0  0
  159.9120  212.5450  155.7160 C   0  0  1  0  0  3  0  0  0  0  0  0
  159.7280  211.9280  154.3680 C   0  0  0  0  0  0  0  0  0  0  0  0
  158.5050  214.1490  156.6460 N   0  0  0  0  0  0  0  0  0  0  0  0
  158.8780  210.6930  157.0240 N   0  0  0  0  0  0  0  0  0  0  0  0
  160.7640  208.3470  154.6530 C   0  0  0  0  0  0  0  0  0  0  0  0
  158.1490  212.9480  157.2610 N   0  0  0  0  0  2  0  0  0  0  0  0
  159.5910  209.5750  156.4600 C   0  0  0  0  0  3  0  0  0  0  0  0
  160.1810  210.5430  154.1940 C   0  0  0  0  0  0  0  0  0  0  0  0
  161.0750  208.5910  153.3900 C   0  0  0  0  0  3  0  0  0  0  0  0
  160.1710  209.5340  155.2510 C   0  0  0  0  0  0  0  0  0  0  0  0
  159.4590  213.9770  155.7850 C   0  0  0  0  0  3  0  0  0  0  0  0
  159.1680  212.5530  153.4260 O   0  0  0  0  0  0  0  0  0  0  0  0
  160.9590  207.0310  155.3220 C   0  0  0  0  0  1  0  0  0  0  0  0
  160.7110  209.9850  153.0970 C   0  0  0  0  0  0  0  0  0  0  0  0
  158.9660  211.9450  156.6880 C   0  0  0  0  0  0  0  0  0  0  0  0
  160.6800  205.6630  147.6030 O   0  0  0  0  0  0  0  0  0  0  0  0
  160.8920  205.8650  146.2390 C   0  0  0  0  0  1  0  0  0  0  0  0
  160.5180  205.7580  150.3640 C   0  0  0  0  0  2  0  0  0  0  0  0
  161.0210  204.5010  151.0520 C   0  0  0  0  0  2  0  0  0  0  0  0
  160.0710  203.3430  150.7870 C   0  0  0  0  0  2  0  0  0  0  0  0
  161.7180  202.9280  148.7720 C   0  0  0  0  0  1  0  0  0  0  0  0
  159.6850  201.3960  149.1400 C   0  0  0  0  0  2  0  0  0  0  0  0
  160.6240  202.4390  149.7000 C   0  0  0  0  0  0  0  0  0  0  0  0
  160.7810  200.9990  150.1240 C   0  0  0  0  0  2  0  0  0  0  0  0
  1  9  2  0  0  0  0
  2  7  1  0  0  0  0
  3 28  1  0  0  0  0
  4  6  1  0  0  0  0
  4 12  1  0  0  0  0
  5  8  1  0  0  0  0
  5  2  1  1  0  0  0
  6 10  1  1  0  0  0
  6  5  1  0  0  0  0
  7  3  1  0  0  0  0
  8 32  1  6  0  0  0
  9 11  1  0  0  0  0
 10  9  1  0  0  0  0
 11 14  2  0  0  0  0
 11  7  1  0  0  0  0
 12 30  1  6  0  0  0
 12  8  1  0  0  0  0
 13  3  2  0  0  0  0
 14 13  1  0  0  0  0
 15 25  1  6  0  0  0
 15 29  1  0  0  0  0
 16 15  1  0  0  0  0
 17 20  1  0  0  0  0
 19 24  1  0  0  0  0
 19 27  1  0  0  0  0
 21 18  1  0  0  0  0
 22 16  1  0  0  0  0
 22 24  1  0  0  0  0
 23 19  2  0  0  0  0
 24 21  2  0  0  0  0
 25 17  2  0  0  0  0
 26 16  2  0  0  0  0
 28 23  1  0  0  0  0
 28 22  2  0  0  0  0
 29 18  2  0  0  0  0
 29 20  1  0  0  0  0
 31 30  1  0  0  0  0
 32 33  1  0  0  0  0
 34 33  1  0  0  0  0
 35 37  1  0  0  0  0
 36 37  1  0  0  0  0
 36 38  1  0  0  0  0
 37 38  1  0  0  0  0
 37 34  1  0  0  0  0
M  END
>  <MODEL>
8

>  <REMARK>
 VINA RESULT:      -5.8      2.941      9.123
  Name = 
  6 active torsions:
  status: ('A' for Active; 'I' for Inactive)
    1  A    between atoms: C_5  and  C_35
    2  A    between atoms: O_7  and  C_30
    3  A    between atoms: C_16  and  C_19
    4  A    between atoms: C_16  and  C_23
    5  A    between atoms: C_23  and  C_34
    6  A    between atoms: C_25  and  C_34
                            x       y       z     vdW  Elec       q    Type
                         _______ _______ _______ _____ _____    ______ ____

>  <TORSDO>
F 6

$$$$
=
 OpenBabel11052409313D

 38 44  0  0  1  0  0  0  0  0999 V2000
  161.0480  204.3110  153.8860 O   0  0  0  0  0  0  0  0  0  0  0  0
  160.4860  206.9530  150.5210 C   0  0  0  0  0  2  0  0  0  0  0  0
  161.5130  208.4860  152.2190 C   0  0  0  0  0  0  0  0  0  0  0  0
  160.6350  203.5910  149.4470 O   0  0  0  0  0  0  0  0  0  0  0  0
  161.3240  205.8590  149.8650 C   0  0  1  0  0  3  0  0  0  0  0  0
  161.1190  204.4520  150.4520 C   0  0  1  0  0  3  0  0  0  0  0  0
  161.0280  207.2890  151.8330 N   0  0  0  0  0  0  0  0  0  0  0  0
  160.9140  205.7080  148.4370 C   0  0  2  0  0  3  0  0  0  0  0  0
  160.8240  205.0210  152.8690 C   0  0  0  0  0  0  0  0  0  0  0  0
  160.1940  204.3870  151.6700 C   0  0  0  0  0  2  0  0  0  0  0  0
  161.1750  206.4540  152.8800 C   0  0  0  0  0  0  0  0  0  0  0  0
  160.9310  204.2030  148.2160 C   0  0  1  0  0  3  0  0  0  0  0  0
  161.9560  208.4220  153.5310 C   0  0  0  0  0  3  0  0  0  0  0  0
  161.7470  207.1170  153.9530 C   0  0  0  0  0  3  0  0  0  0  0  0
  158.7000  211.9700  152.3790 C   0  0  1  0  0  3  0  0  0  0  0  0
  159.9030  211.1360  152.6830 C   0  0  0  0  0  0  0  0  0  0  0  0
  157.7020  213.4560  153.8670 N   0  0  0  0  0  0  0  0  0  0  0  0
  159.9080  213.7870  151.1740 N   0  0  0  0  0  0  0  0  0  0  0  0
  161.9410  210.9720  149.5540 C   0  0  0  0  0  0  0  0  0  0  0  0
  158.4560  214.2520  153.0030 N   0  0  0  0  0  2  0  0  0  0  0  0
  160.6850  212.9910  150.2580 C   0  0  0  0  0  3  0  0  0  0  0  0
  160.8060  210.8260  151.5700 C   0  0  0  0  0  0  0  0  0  0  0  0
  162.2360  209.8020  150.0990 C   0  0  0  0  0  3  0  0  0  0  0  0
  161.0410  211.7090  150.4290 C   0  0  0  0  0  0  0  0  0  0  0  0
  157.8130  212.1980  153.5710 C   0  0  0  0  0  3  0  0  0  0  0  0
  160.1570  210.7480  153.8570 O   0  0  0  0  0  0  0  0  0  0  0  0
  162.4990  211.4560  148.2610 C   0  0  0  0  0  1  0  0  0  0  0  0
  161.5130  209.7050  151.3750 C   0  0  0  0  0  0  0  0  0  0  0  0
  159.1040  213.3720  152.1060 C   0  0  0  0  0  0  0  0  0  0  0  0
  162.1800  203.7580  147.7630 O   0  0  0  0  0  0  0  0  0  0  0  0
  161.9560  202.4490  147.3360 C   0  0  0  0  0  1  0  0  0  0  0  0
  161.8390  206.4920  147.5100 C   0  0  0  0  0  2  0  0  0  0  0  0
  161.0850  206.9950  146.2910 C   0  0  0  0  0  2  0  0  0  0  0  0
  160.0780  205.9520  145.8300 C   0  0  0  0  0  2  0  0  0  0  0  0
  160.0820  203.6700  144.5110 C   0  0  0  0  0  1  0  0  0  0  0  0
  162.2060  205.1160  144.6360 C   0  0  0  0  0  2  0  0  0  0  0  0
  160.7080  205.0170  144.8140 C   0  0  0  0  0  0  0  0  0  0  0  0
  161.2640  205.7190  143.5990 C   0  0  0  0  0  2  0  0  0  0  0  0
  2  7  1  0  0  0  0
  3 13  2  0  0  0  0
  4  6  1  0  0  0  0
  5  6  1  0  0  0  0
  5  2  1  1  0  0  0
  6 10  1  1  0  0  0
  7  3  1  0  0  0  0
  7 11  1  0  0  0  0
  8 32  1  6  0  0  0
  8  5  1  0  0  0  0
  9 11  1  0  0  0  0
  9  1  2  0  0  0  0
 10  9  1  0  0  0  0
 11 14  2  0  0  0  0
 12 30  1  1  0  0  0
 12  8  1  0  0  0  0
 12  4  1  0  0  0  0
 13 14  1  0  0  0  0
 15 16  1  0  0  0  0
 15 25  1  1  0  0  0
 16 26  2  0  0  0  0
 18 29  2  0  0  0  0
 19 23  2  0  0  0  0
 19 24  1  0  0  0  0
 20 17  1  0  0  0  0
 21 24  2  0  0  0  0
 21 18  1  0  0  0  0
 22 16  1  0  0  0  0
 23 28  1  0  0  0  0
 24 22  1  0  0  0  0
 25 17  2  0  0  0  0
 27 19  1  0  0  0  0
 28 22  2  0  0  0  0
 28  3  1  0  0  0  0
 29 15  1  0  0  0  0
 29 20  1  0  0  0  0
 31 30  1  0  0  0  0
 33 32  1  0  0  0  0
 34 33  1  0  0  0  0
 35 37  1  0  0  0  0
 36 37  1  0  0  0  0
 37 34  1  0  0  0  0
 38 36  1  0  0  0  0
 38 37  1  0  0  0  0
M  END
>  <MODEL>
9

>  <REMARK>
 VINA RESULT:      -5.6      2.587      7.872
  Name = 
  6 active torsions:
  status: ('A' for Active; 'I' for Inactive)
    1  A    between atoms: C_5  and  C_35
    2  A    between atoms: O_7  and  C_30
    3  A    between atoms: C_16  and  C_19
    4  A    between atoms: C_16  and  C_23
    5  A    between atoms: C_23  and  C_34
    6  A    between atoms: C_25  and  C_34
                            x       y       z     vdW  Elec       q    Type
                         _______ _______ _______ _____ _____    ______ ____

>  <TORSDO>
F 6

$$$$
