=
 OpenBabel11052411123D

 60 71  0  0  1  0  0  0  0  0999 V2000
  162.3660  206.6670  148.5990 N   0  0  0  0  0  0  0  0  0  0  0  0
  161.2950  204.3920  147.9190 C   0  0  1  0  0  3  0  0  0  0  0  0
  163.7620  204.9220  147.5930 C   0  0  0  0  0  1  0  0  0  0  0  0
  162.3540  205.5000  147.6860 C   0  0  2  0  0  0  0  0  0  0  0  0
  160.8190  202.4010  149.0840 C   0  0  2  0  0  3  0  0  0  0  0  0
  160.8830  208.4360  147.4790 C   0  0  0  0  0  1  0  0  0  0  0  0
  160.4970  203.4520  145.8070 C   0  0  1  0  0  3  0  0  0  0  0  0
  161.3510  204.7430  143.7430 N   0  0  0  0  0  0  0  0  0  0  0  0
  161.2160  202.0630  147.6680 C   0  0  0  0  0  2  0  0  0  0  0  0
  162.0700  206.3660  146.4580 C   0  0  1  0  0  3  0  0  0  0  0  0
  161.4630  203.3110  146.9300 N   0  0  2  0  0  0  0  0  0  0  0  0
  160.6840  206.1370  145.8360 C   0  0  0  0  0  2  0  0  0  0  0  0
  161.3810  203.7710  149.2950 C   0  0  0  0  0  2  0  0  0  0  0  0
  160.6530  204.8170  145.0540 C   0  0  2  0  0  0  0  0  0  0  0  0
  162.1360  207.5420  147.4300 C   0  0  2  0  0  3  0  0  0  0  0  0
  159.8900  204.9470  143.8200 C   0  0  0  0  0  2  0  0  0  0  0  0
  161.1320  201.9900  151.4790 C   0  0  0  0  0  2  0  0  0  0  0  0
  161.3880  201.4490  150.1270 C   0  0  1  0  0  3  0  0  0  0  0  0
  160.3720  200.9350  150.9560 O   0  0  0  0  0  0  0  0  0  0  0  0
  159.7430  201.2720  144.8510 C   0  0  0  0  0  2  0  0  0  0  0  0
  160.6010  202.2880  144.8380 C   0  0  0  0  0  3  0  0  0  0  0  0
  161.2850  206.7120  149.5910 C   0  0  0  0  0  2  0  0  0  0  0  0
  160.9140  209.5560  152.2520 C   0  0  2  0  0  0  0  0  0  0  0  0
  161.8760  207.3280  152.9880 C   0  0  0  0  0  2  0  0  0  0  0  0
  160.8210  207.4450  151.8990 C   0  0  1  0  0  0  0  0  0  0  0  0
  160.8740  208.7350  150.9930 C   0  0  2  0  0  0  0  0  0  0  0  0
  161.9300  209.7390  151.2340 N   0  0  0  0  0  2  0  0  0  0  0  0
  161.7620  207.5590  150.7550 C   0  0  2  0  0  3  0  0  0  0  0  0
  160.8030  208.3460  153.1310 C   0  0  2  0  0  3  0  0  0  0  0  0
  159.8100  210.5030  152.2350 N   0  0  0  0  0  2  0  0  0  0  0  0
  160.1070  211.4880  153.2730 C   0  0  2  0  0  3  0  0  0  0  0  0
  156.7910  210.8350  155.2580 C   0  0  0  0  0  2  0  0  0  0  0  0
  159.2420  212.2740  155.4510 C   0  0  0  0  0  3  0  0  0  0  0  0
  157.7100  210.9090  154.0390 C   0  0  0  0  0  2  0  0  0  0  0  0
  159.0540  211.5160  154.3500 C   0  0  0  0  0  0  0  0  0  0  0  0
  155.8790  212.1240  157.0400 O   0  0  0  0  0  1  0  0  0  0  0  0
  158.1960  212.4330  156.5260 C   0  0  1  0  0  3  0  0  0  0  0  0
  158.2740  213.7060  157.0540 F   0  0  0  0  0  0  0  0  0  0  0  0
  156.7930  212.1680  155.9870 C   0  0  1  0  0  3  0  0  0  0  0  0
  160.3950  212.8040  152.6980 N   0  0  0  0  0  2  0  0  0  0  0  0
  158.6800  213.6900  151.5060 N   0  0  0  0  0  2  0  0  0  0  0  0
  159.8910  214.2620  151.0320 C   0  0  1  0  0  3  0  0  0  0  0  0
  159.8660  212.8880  151.3950 N   0  0  0  0  0  0  0  0  0  0  0  0
  159.7980  214.4110  149.5850 N   0  0  0  0  0  2  0  0  0  0  0  0
  162.2400  214.4530  147.5440 C   0  0  0  0  0  2  0  0  0  0  0  0
  161.9940  213.5590  148.7520 C   0  0  0  0  0  2  0  0  0  0  0  0
  160.7510  212.6540  146.4600 C   0  0  0  0  0  2  0  0  0  0  0  0
  159.7750  212.9910  147.5920 C   0  0  0  0  0  2  0  0  0  0  0  0
  161.7750  213.7790  146.2380 C   0  0  0  0  0  2  0  0  0  0  0  0
  160.4850  213.2900  148.9310 C   0  0  0  0  0  3  0  0  0  0  0  0
  161.9300  206.0210  143.3310 C   0  0  0  0  0  2  0  0  0  0  0  0
  161.6970  206.2140  141.8420 C   0  0  0  0  0  2  0  0  0  0  0  0
  162.8330  207.0020  141.1870 C   0  0  0  0  0  2  0  0  0  0  0  0
  162.3750  207.7920  139.9580 C   0  0  1  0  0  3  0  0  0  0  0  0
  161.6970  207.5200  137.6500 O   0  0  0  0  0  1  0  0  0  0  0  0
  162.7710  205.7900  138.6930 O   0  0  0  0  0  1  0  0  0  0  0  0
  161.8730  206.8450  138.8610 C   0  0  0  0  0  3  0  0  0  0  0  0
  161.3420  208.8630  140.3190 C   0  0  0  0  0  2  0  0  0  0  0  0
  162.2740  210.8520  140.5800 C   0  0  0  0  0  1  0  0  0  0  0  0
  161.6070  210.0590  139.6450 O   0  0  0  0  0  0  0  0  0  0  0  0
  1 22  1  0  0  0  0
  2 13  1  1  0  0  0
  4  3  1  6  0  0  0
  4  2  1  0  0  0  0
  4  1  1  0  0  0  0
  5  9  1  6  0  0  0
  5 13  1  0  0  0  0
  5 18  1  0  0  0  0
  7 21  1  6  0  0  0
  7 11  1  0  0  0  0
  8 16  1  0  0  0  0
  8 14  1  0  0  0  0
 10 12  1  1  0  0  0
 10 15  1  0  0  0  0
 10  4  1  0  0  0  0
 11  9  1  1  0  0  0
 11  2  1  0  0  0  0
 14 16  1  6  0  0  0
 14  7  1  0  0  0  0
 14 12  1  0  0  0  0
 15  6  1  1  0  0  0
 15  1  1  0  0  0  0
 18 19  1  0  0  0  0
 18 17  1  1  0  0  0
 19 17  1  0  0  0  0
 21 20  2  0  0  0  0
 23 30  1  1  0  0  0
 23 29  1  0  0  0  0
 25 24  1  1  0  0  0
 25 29  1  0  0  0  0
 26 27  1  1  0  0  0
 26 25  1  0  0  0  0
 26 23  1  0  0  0  0
 27 23  1  0  0  0  0
 28 22  1  6  0  0  0
 28 26  1  0  0  0  0
 28 25  1  0  0  0  0
 29 24  1  1  0  0  0
 31 30  1  6  0  0  0
 31 35  1  0  0  0  0
 32 39  1  0  0  0  0
 33 37  1  0  0  0  0
 34 35  1  0  0  0  0
 34 32  1  0  0  0  0
 35 33  2  0  0  0  0
 37 38  1  6  0  0  0
 39 37  1  0  0  0  0
 39 36  1  1  0  0  0
 40 31  1  0  0  0  0
 42 44  1  6  0  0  0
 42 43  1  0  0  0  0
 42 41  1  0  0  0  0
 43 41  1  0  0  0  0
 43 40  1  0  0  0  0
 45 46  1  0  0  0  0
 46 50  1  0  0  0  0
 47 48  1  0  0  0  0
 48 50  1  0  0  0  0
 49 47  1  0  0  0  0
 49 45  1  0  0  0  0
 50 44  1  0  0  0  0
 51  8  1  0  0  0  0
 52 51  1  0  0  0  0
 53 52  1  0  0  0  0
 54 58  1  1  0  0  0
 54 53  1  0  0  0  0
 55 57  1  0  0  0  0
 56 57  1  0  0  0  0
 57 54  1  0  0  0  0
 60 58  1  0  0  0  0
 60 59  1  0  0  0  0
M  END
>  <MODEL>
1

>  <REMARK>
 VINA RESULT:      -1.9      0.000      0.000
  Name = 
  18 active torsions:
  status: ('A' for Active; 'I' for Inactive)
    1  A    between atoms: N_1  and  C_28
    2  A    between atoms: C_3  and  C_29
    3  A    between atoms: C_3  and  C_38
    4  A    between atoms: C_3  and  C_47
    5  A    between atoms: N_7  and  C_36
    6  A    between atoms: N_7  and  C_53
    7  A    between atoms: C_10  and  C_11
    8  A    between atoms: C_10  and  C_47
    9  A    between atoms: C_11  and  N_25
   10  A    between atoms: C_15  and  N_30
   11  A    between atoms: C_17  and  C_58
   12  A    between atoms: C_20  and  C_35
   13  A    between atoms: C_21  and  C_39
   14  A    between atoms: C_28  and  C_56
   15  A    between atoms: C_29  and  O_51
   16  A    between atoms: N_30  and  C_35
   17  A    between atoms: C_35  and  N_42
   18  A    between atoms: N_42  and  N_55
                            x       y       z     vdW  Elec       q    Type
                         _______ _______ _______ _____ _____    ______ ____

>  <TORSDO>
F 18

$$$$
=
 OpenBabel11052411123D

 60 71  0  0  1  0  0  0  0  0999 V2000
  162.1950  206.8230  148.6770 N   0  0  0  0  0  0  0  0  0  0  0  0
  161.1820  204.5190  148.0080 C   0  0  1  0  0  3  0  0  0  0  0  0
  163.6410  205.0970  147.7110 C   0  0  0  0  0  1  0  0  0  0  0  0
  162.2210  205.6470  147.7780 C   0  0  2  0  0  0  0  0  0  0  0  0
  160.7310  202.5310  149.1880 C   0  0  2  0  0  3  0  0  0  0  0  0
  160.6920  208.5480  147.5160 C   0  0  0  0  0  1  0  0  0  0  0  0
  160.4350  203.5390  145.8950 C   0  0  1  0  0  3  0  0  0  0  0  0
  161.2910  204.8250  143.8290 N   0  0  0  0  0  0  0  0  0  0  0  0
  161.1550  202.1870  147.7820 C   0  0  0  0  0  2  0  0  0  0  0  0
  161.9360  206.4920  146.5350 C   0  0  1  0  0  3  0  0  0  0  0  0
  161.3860  203.4310  147.0340 N   0  0  2  0  0  0  0  0  0  0  0  0
  160.5650  206.2280  145.8960 C   0  0  0  0  0  2  0  0  0  0  0  0
  161.2600  203.9150  149.3920 C   0  0  0  0  0  2  0  0  0  0  0  0
  160.5730  204.8980  145.1290 C   0  0  2  0  0  0  0  0  0  0  0  0
  161.9640  207.6810  147.4950 C   0  0  2  0  0  3  0  0  0  0  0  0
  159.8260  204.9990  143.8830 C   0  0  0  0  0  2  0  0  0  0  0  0
  160.8430  202.0400  151.5860 C   0  0  0  0  0  2  0  0  0  0  0  0
  161.3040  201.6040  150.2500 C   0  0  1  0  0  3  0  0  0  0  0  0
  160.2800  200.9280  150.9430 O   0  0  0  0  0  0  0  0  0  0  0  0
  160.0390  201.1770  145.1900 C   0  0  0  0  0  2  0  0  0  0  0  0
  160.5770  202.3670  144.9410 C   0  0  0  0  0  3  0  0  0  0  0  0
  161.0990  206.8570  149.6520 C   0  0  0  0  0  2  0  0  0  0  0  0
  161.7770  209.7160  152.2360 C   0  0  2  0  0  0  0  0  0  0  0  0
  161.0080  207.4600  153.1020 C   0  0  0  0  0  2  0  0  0  0  0  0
  160.5600  208.0180  151.7600 C   0  0  1  0  0  0  0  0  0  0  0  0
  161.5990  208.9110  150.9780 C   0  0  2  0  0  0  0  0  0  0  0  0
  162.9320  209.1470  151.5690 N   0  0  0  0  0  2  0  0  0  0  0  0
  161.6510  207.4200  150.9480 C   0  0  2  0  0  3  0  0  0  0  0  0
  160.7480  208.9170  152.9790 C   0  0  2  0  0  3  0  0  0  0  0  0
  161.4940  211.1130  151.9480 N   0  0  0  0  0  2  0  0  0  0  0  0
  160.2640  211.4330  152.6690 C   0  0  2  0  0  3  0  0  0  0  0  0
  157.1420  213.4960  151.5040 C   0  0  0  0  0  2  0  0  0  0  0  0
  159.8490  212.9760  150.7830 C   0  0  0  0  0  3  0  0  0  0  0  0
  157.9050  212.3870  152.2260 C   0  0  0  0  0  2  0  0  0  0  0  0
  159.3750  212.3690  151.8920 C   0  0  0  0  0  0  0  0  0  0  0  0
  156.7420  214.4530  149.3600 O   0  0  0  0  0  1  0  0  0  0  0  0
  158.9940  213.8490  149.8980 C   0  0  1  0  0  3  0  0  0  0  0  0
  159.4040  213.7080  148.5870 F   0  0  0  0  0  0  0  0  0  0  0  0
  157.5140  213.5040  150.0300 C   0  0  1  0  0  3  0  0  0  0  0  0
  160.5430  211.8850  154.0340 N   0  0  0  0  0  2  0  0  0  0  0  0
  160.6540  210.6770  155.9510 N   0  0  0  0  0  2  0  0  0  0  0  0
  159.8710  211.8350  156.2020 C   0  0  1  0  0  3  0  0  0  0  0  0
  159.7490  211.1710  154.9510 N   0  0  0  0  0  0  0  0  0  0  0  0
  158.7720  211.4700  157.0860 N   0  0  0  0  0  2  0  0  0  0  0  0
  155.8410  211.7450  155.8750 C   0  0  0  0  0  2  0  0  0  0  0  0
  156.3620  212.1060  157.2590 C   0  0  0  0  0  2  0  0  0  0  0  0
  156.7710  214.0960  155.3920 C   0  0  0  0  0  2  0  0  0  0  0  0
  158.0690  213.5430  155.9920 C   0  0  0  0  0  2  0  0  0  0  0  0
  155.8300  212.9690  154.9390 C   0  0  0  0  0  2  0  0  0  0  0  0
  157.8250  212.5900  157.1820 C   0  0  0  0  0  3  0  0  0  0  0  0
  161.8500  206.1090  143.4100 C   0  0  0  0  0  2  0  0  0  0  0  0
  162.2780  206.0140  141.9560 C   0  0  0  0  0  2  0  0  0  0  0  0
  161.4360  206.9200  141.0560 C   0  0  0  0  0  2  0  0  0  0  0  0
  162.2880  207.7840  140.1210 C   0  0  1  0  0  3  0  0  0  0  0  0
  162.4040  205.7640  138.7930 O   0  0  0  0  0  1  0  0  0  0  0  0
  161.2670  207.5660  137.9590 O   0  0  0  0  0  1  0  0  0  0  0  0
  162.3620  207.1590  138.7230 C   0  0  0  0  0  3  0  0  0  0  0  0
  161.8020  209.2350  140.0840 C   0  0  0  0  0  2  0  0  0  0  0  0
  162.3990  211.3600  139.9380 C   0  0  0  0  0  1  0  0  0  0  0  0
  162.8410  210.1180  140.3950 O   0  0  0  0  0  0  0  0  0  0  0  0
  1 22  1  0  0  0  0
  2 13  1  1  0  0  0
  4  3  1  6  0  0  0
  4  2  1  0  0  0  0
  4  1  1  0  0  0  0
  5  9  1  6  0  0  0
  5 13  1  0  0  0  0
  5 18  1  0  0  0  0
  7 21  1  6  0  0  0
  7 11  1  0  0  0  0
  8 16  1  0  0  0  0
  8 14  1  0  0  0  0
 10 12  1  1  0  0  0
 10 15  1  0  0  0  0
 10  4  1  0  0  0  0
 11  9  1  1  0  0  0
 11  2  1  0  0  0  0
 14 16  1  6  0  0  0
 14  7  1  0  0  0  0
 14 12  1  0  0  0  0
 15  6  1  1  0  0  0
 15  1  1  0  0  0  0
 18 19  1  0  0  0  0
 18 17  1  1  0  0  0
 19 17  1  0  0  0  0
 21 20  2  0  0  0  0
 23 30  1  6  0  0  0
 23 29  1  0  0  0  0
 25 29  1  0  0  0  0
 25 24  1  1  0  0  0
 26 27  1  1  0  0  0
 26 25  1  0  0  0  0
 26 23  1  0  0  0  0
 27 23  1  0  0  0  0
 28 22  1  6  0  0  0
 28 26  1  0  0  0  0
 28 25  1  0  0  0  0
 29 24  1  1  0  0  0
 31 30  1  6  0  0  0
 31 40  1  0  0  0  0
 32 34  1  0  0  0  0
 33 35  2  0  0  0  0
 35 34  1  0  0  0  0
 35 31  1  0  0  0  0
 37 38  1  6  0  0  0
 37 39  1  0  0  0  0
 37 33  1  0  0  0  0
 39 36  1  6  0  0  0
 39 32  1  0  0  0  0
 40 43  1  0  0  0  0
 41 42  1  0  0  0  0
 42 44  1  1  0  0  0
 43 41  1  0  0  0  0
 43 42  1  0  0  0  0
 44 50  1  0  0  0  0
 45 46  1  0  0  0  0
 47 48  1  0  0  0  0
 48 50  1  0  0  0  0
 49 47  1  0  0  0  0
 49 45  1  0  0  0  0
 50 46  1  0  0  0  0
 51  8  1  0  0  0  0
 52 51  1  0  0  0  0
 53 52  1  0  0  0  0
 54 58  1  6  0  0  0
 54 53  1  0  0  0  0
 56 57  1  0  0  0  0
 57 55  1  0  0  0  0
 57 54  1  0  0  0  0
 58 60  1  0  0  0  0
 59 60  1  0  0  0  0
M  END
>  <MODEL>
2

>  <REMARK>
 VINA RESULT:      -1.2      2.176      4.157
  Name = 
  18 active torsions:
  status: ('A' for Active; 'I' for Inactive)
    1  A    between atoms: N_1  and  C_28
    2  A    between atoms: C_3  and  C_29
    3  A    between atoms: C_3  and  C_38
    4  A    between atoms: C_3  and  C_47
    5  A    between atoms: N_7  and  C_36
    6  A    between atoms: N_7  and  C_53
    7  A    between atoms: C_10  and  C_11
    8  A    between atoms: C_10  and  C_47
    9  A    between atoms: C_11  and  N_25
   10  A    between atoms: C_15  and  N_30
   11  A    between atoms: C_17  and  C_58
   12  A    between atoms: C_20  and  C_35
   13  A    between atoms: C_21  and  C_39
   14  A    between atoms: C_28  and  C_56
   15  A    between atoms: C_29  and  O_51
   16  A    between atoms: N_30  and  C_35
   17  A    between atoms: C_35  and  N_42
   18  A    between atoms: N_42  and  N_55
                            x       y       z     vdW  Elec       q    Type
                         _______ _______ _______ _____ _____    ______ ____

>  <TORSDO>
F 18

$$$$
=
 OpenBabel11052411123D

 60 71  0  0  1  0  0  0  0  0999 V2000
  161.5860  209.0880  150.9500 N   0  0  0  0  0  0  0  0  0  0  0  0
  161.5580  207.4290  152.9570 C   0  0  1  0  0  3  0  0  0  0  0  0
  159.4820  208.6420  152.1240 C   0  0  0  0  0  1  0  0  0  0  0  0
  161.0000  208.6930  152.2510 C   0  0  2  0  0  0  0  0  0  0  0  0
  161.3750  205.0870  153.1350 C   0  0  2  0  0  3  0  0  0  0  0  0
  163.4630  210.7450  151.5100 C   0  0  0  0  0  1  0  0  0  0  0  0
  161.5970  207.7000  155.3870 C   0  0  1  0  0  3  0  0  0  0  0  0
  161.0280  210.1000  156.1430 N   0  0  0  0  0  0  0  0  0  0  0  0
  160.6730  205.7290  154.3060 C   0  0  0  0  0  2  0  0  0  0  0  0
  161.4190  210.0010  152.9250 C   0  0  1  0  0  3  0  0  0  0  0  0
  160.8320  207.1880  154.2190 N   0  0  2  0  0  0  0  0  0  0  0  0
  162.4930  209.8320  154.0100 C   0  0  0  0  0  2  0  0  0  0  0  0
  161.4380  206.1790  152.1150 C   0  0  0  0  0  2  0  0  0  0  0  0
  161.8830  209.2370  155.2870 C   0  0  2  0  0  0  0  0  0  0  0  0
  161.9660  210.3840  151.5520 C   0  0  2  0  0  3  0  0  0  0  0  0
  162.4430  209.8540  156.4810 C   0  0  0  0  0  2  0  0  0  0  0  0
  160.9300  203.7830  151.1100 C   0  0  0  0  0  2  0  0  0  0  0  0
  160.6380  203.8890  152.5560 C   0  0  1  0  0  3  0  0  0  0  0  0
  161.5400  202.9350  152.0440 O   0  0  0  0  0  0  0  0  0  0  0  0
  159.5760  207.2880  156.7960 C   0  0  0  0  0  2  0  0  0  0  0  0
  160.9000  207.3670  156.6940 C   0  0  0  0  0  3  0  0  0  0  0  0
  162.7310  208.2900  150.4950 C   0  0  0  0  0  2  0  0  0  0  0  0
  161.8820  206.0050  147.4360 C   0  0  2  0  0  0  0  0  0  0  0  0
  160.9160  208.3490  147.4990 C   0  0  0  0  0  2  0  0  0  0  0  0
  161.1570  207.5280  148.7570 C   0  0  1  0  0  0  0  0  0  0  0  0
  162.3940  206.5490  148.7410 C   0  0  2  0  0  0  0  0  0  0  0  0
  163.2460  206.4870  147.5350 N   0  0  0  0  0  2  0  0  0  0  0  0
  162.5390  208.0080  149.0180 C   0  0  2  0  0  3  0  0  0  0  0  0
  160.6680  206.8850  147.4620 C   0  0  2  0  0  3  0  0  0  0  0  0
  161.6990  204.5680  147.5610 N   0  0  0  0  0  2  0  0  0  0  0  0
  161.1950  204.1110  146.2680 C   0  0  2  0  0  3  0  0  0  0  0  0
  161.3770  200.3020  147.1720 C   0  0  0  0  0  2  0  0  0  0  0  0
  160.2720  202.0670  145.2280 C   0  0  0  0  0  3  0  0  0  0  0  0
  161.8030  201.7690  147.1700 C   0  0  0  0  0  2  0  0  0  0  0  0
  160.9850  202.6190  146.2330 C   0  0  0  0  0  0  0  0  0  0  0  0
  160.9360  198.4420  145.7510 O   0  0  0  0  0  1  0  0  0  0  0  0
  160.0990  200.5770  145.0670 C   0  0  1  0  0  3  0  0  0  0  0  0
  160.0430  200.2670  143.7240 F   0  0  0  0  0  0  0  0  0  0  0  0
  161.2290  199.8060  145.7420 C   0  0  1  0  0  3  0  0  0  0  0  0
  162.0150  204.6150  145.1630 N   0  0  0  0  0  2  0  0  0  0  0  0
  161.0560  206.4360  144.2080 N   0  0  0  0  0  2  0  0  0  0  0  0
  161.9690  205.8760  143.2750 C   0  0  1  0  0  3  0  0  0  0  0  0
  161.1910  205.0100  144.0920 N   0  0  0  0  0  0  0  0  0  0  0  0
  161.3910  205.9780  141.9410 N   0  0  0  0  0  2  0  0  0  0  0  0
  160.9730  208.2540  139.7560 C   0  0  0  0  0  2  0  0  0  0  0  0
  162.0840  208.0800  140.7820 C   0  0  0  0  0  2  0  0  0  0  0  0
  162.5100  206.6410  138.4660 C   0  0  0  0  0  2  0  0  0  0  0  0
  162.3930  205.7650  139.7180 C   0  0  0  0  0  2  0  0  0  0  0  0
  161.3740  207.6730  138.3860 C   0  0  0  0  0  2  0  0  0  0  0  0
  162.3690  206.5840  141.0270 C   0  0  0  0  0  3  0  0  0  0  0  0
  160.9450  211.4790  155.6650 C   0  0  0  0  0  2  0  0  0  0  0  0
  159.5140  211.9680  155.8040 C   0  0  0  0  0  2  0  0  0  0  0  0
  158.5210  211.0210  155.1300 C   0  0  0  0  0  2  0  0  0  0  0  0
  157.6940  211.7060  154.0390 C   0  0  1  0  0  3  0  0  0  0  0  0
  156.0860  211.5380  155.8410 O   0  0  0  0  0  1  0  0  0  0  0  0
  156.1110  213.4340  154.5620 O   0  0  0  0  0  1  0  0  0  0  0  0
  156.2920  212.0500  154.5580 C   0  0  0  0  0  3  0  0  0  0  0  0
  158.4130  212.9260  153.4570 C   0  0  0  0  0  2  0  0  0  0  0  0
  159.2040  213.0240  151.3930 C   0  0  0  0  0  1  0  0  0  0  0  0
  158.0260  213.1480  152.1320 O   0  0  0  0  0  0  0  0  0  0  0  0
  1 15  1  0  0  0  0
  1  4  1  0  0  0  0
  2 13  1  6  0  0  0
  2 11  1  0  0  0  0
  4  3  1  6  0  0  0
  4 10  1  0  0  0  0
  4  2  1  0  0  0  0
  5 13  1  6  0  0  0
  5  9  1  0  0  0  0
  7 21  1  1  0  0  0
  8 16  1  0  0  0  0
 10 12  1  1  0  0  0
 11  9  1  1  0  0  0
 11  7  1  0  0  0  0
 14 12  1  6  0  0  0
 14  7  1  0  0  0  0
 14  8  1  0  0  0  0
 14 16  1  0  0  0  0
 15  6  1  1  0  0  0
 15 10  1  0  0  0  0
 17 19  1  0  0  0  0
 18 17  1  6  0  0  0
 18  5  1  0  0  0  0
 19 18  1  0  0  0  0
 21 20  2  0  0  0  0
 22  1  1  0  0  0  0
 23 29  1  0  0  0  0
 23 27  1  0  0  0  0
 23 30  1  6  0  0  0
 23 26  1  0  0  0  0
 25 24  1  6  0  0  0
 25 28  1  0  0  0  0
 26 27  1  6  0  0  0
 26 25  1  0  0  0  0
 26 28  1  0  0  0  0
 28 22  1  1  0  0  0
 29 24  1  6  0  0  0
 29 25  1  0  0  0  0
 31 40  1  6  0  0  0
 31 30  1  0  0  0  0
 33 35  2  0  0  0  0
 34 32  1  0  0  0  0
 35 31  1  0  0  0  0
 35 34  1  0  0  0  0
 37 38  1  6  0  0  0
 37 33  1  0  0  0  0
 37 39  1  0  0  0  0
 39 36  1  1  0  0  0
 39 32  1  0  0  0  0
 42 44  1  6  0  0  0
 42 43  1  0  0  0  0
 42 41  1  0  0  0  0
 43 41  1  0  0  0  0
 43 40  1  0  0  0  0
 45 46  1  0  0  0  0
 46 50  1  0  0  0  0
 47 48  1  0  0  0  0
 48 50  1  0  0  0  0
 49 47  1  0  0  0  0
 49 45  1  0  0  0  0
 50 44  1  0  0  0  0
 51 52  1  0  0  0  0
 51  8  1  0  0  0  0
 53 52  1  0  0  0  0
 54 58  1  1  0  0  0
 54 57  1  0  0  0  0
 54 53  1  0  0  0  0
 57 56  1  0  0  0  0
 57 55  1  0  0  0  0
 59 60  1  0  0  0  0
 60 58  1  0  0  0  0
M  END
>  <MODEL>
3

>  <REMARK>
 VINA RESULT:      -0.4      4.287     11.125
  Name = 
  18 active torsions:
  status: ('A' for Active; 'I' for Inactive)
    1  A    between atoms: N_1  and  C_28
    2  A    between atoms: C_3  and  C_29
    3  A    between atoms: C_3  and  C_38
    4  A    between atoms: C_3  and  C_47
    5  A    between atoms: N_7  and  C_36
    6  A    between atoms: N_7  and  C_53
    7  A    between atoms: C_10  and  C_11
    8  A    between atoms: C_10  and  C_47
    9  A    between atoms: C_11  and  N_25
   10  A    between atoms: C_15  and  N_30
   11  A    between atoms: C_17  and  C_58
   12  A    between atoms: C_20  and  C_35
   13  A    between atoms: C_21  and  C_39
   14  A    between atoms: C_28  and  C_56
   15  A    between atoms: C_29  and  O_51
   16  A    between atoms: N_30  and  C_35
   17  A    between atoms: C_35  and  N_42
   18  A    between atoms: N_42  and  N_55
                            x       y       z     vdW  Elec       q    Type
                         _______ _______ _______ _____ _____    ______ ____

>  <TORSDO>
F 18

$$$$
=
 OpenBabel11052411123D

 60 71  0  0  1  0  0  0  0  0999 V2000
  162.2180  206.9590  148.6410 N   0  0  0  0  0  0  0  0  0  0  0  0
  161.1420  204.6560  148.0760 C   0  0  1  0  0  3  0  0  0  0  0  0
  163.6360  205.1140  147.8730 C   0  0  0  0  0  1  0  0  0  0  0  0
  162.2390  205.7230  147.8260 C   0  0  2  0  0  0  0  0  0  0  0  0
  160.5450  202.7750  149.3620 C   0  0  2  0  0  3  0  0  0  0  0  0
  160.8520  208.6570  147.2870 C   0  0  0  0  0  1  0  0  0  0  0  0
  160.4620  203.5620  145.9970 C   0  0  1  0  0  3  0  0  0  0  0  0
  161.4770  204.6650  143.8980 N   0  0  0  0  0  0  0  0  0  0  0  0
  161.0250  202.3160  148.0070 C   0  0  0  0  0  2  0  0  0  0  0  0
  162.0550  206.4900  146.5160 C   0  0  1  0  0  3  0  0  0  0  0  0
  161.3480  203.4950  147.1900 N   0  0  2  0  0  0  0  0  0  0  0  0
  160.7070  206.2360  145.8230 C   0  0  0  0  0  2  0  0  0  0  0  0
  161.1230  204.1470  149.4990 C   0  0  0  0  0  2  0  0  0  0  0  0
  160.6980  204.8570  145.1490 C   0  0  2  0  0  0  0  0  0  0  0  0
  162.0850  207.7400  147.3930 C   0  0  2  0  0  3  0  0  0  0  0  0
  160.0200  204.9000  143.8610 C   0  0  0  0  0  2  0  0  0  0  0  0
  160.1970  200.6760  150.5760 C   0  0  0  0  0  2  0  0  0  0  0  0
  161.0230  201.9010  150.5130 C   0  0  1  0  0  3  0  0  0  0  0  0
  161.4950  200.6590  150.0470 O   0  0  0  0  0  0  0  0  0  0  0  0
  159.6040  201.4600  144.9560 C   0  0  0  0  0  2  0  0  0  0  0  0
  160.6020  202.3210  145.1330 C   0  0  0  0  0  3  0  0  0  0  0  0
  161.0750  207.1040  149.5520 C   0  0  0  0  0  2  0  0  0  0  0  0
  161.8510  209.9810  152.0870 C   0  0  2  0  0  0  0  0  0  0  0  0
  160.8340  207.8320  152.9700 C   0  0  0  0  0  2  0  0  0  0  0  0
  160.5180  208.3800  151.5870 C   0  0  1  0  0  0  0  0  0  0  0  0
  161.6780  209.1510  150.8450 C   0  0  2  0  0  0  0  0  0  0  0  0
  162.9880  209.2900  151.5110 N   0  0  0  0  0  2  0  0  0  0  0  0
  161.5980  207.6610  150.8620 C   0  0  2  0  0  3  0  0  0  0  0  0
  160.7130  209.3010  152.7880 C   0  0  2  0  0  3  0  0  0  0  0  0
  161.7110  211.3860  151.7410 N   0  0  0  0  0  2  0  0  0  0  0  0
  160.6610  211.4500  150.7280 C   0  0  2  0  0  3  0  0  0  0  0  0
  160.6670  213.5710  147.4320 C   0  0  0  0  0  2  0  0  0  0  0  0
  162.4010  212.0060  149.0630 C   0  0  0  0  0  3  0  0  0  0  0  0
  160.0730  212.7450  148.5720 C   0  0  0  0  0  2  0  0  0  0  0  0
  161.1220  212.1430  149.4720 C   0  0  0  0  0  0  0  0  0  0  0  0
  162.2590  213.5120  145.6620 O   0  0  0  0  0  1  0  0  0  0  0  0
  162.9150  212.5860  147.7690 C   0  0  1  0  0  3  0  0  0  0  0  0
  163.8780  211.7480  147.2440 F   0  0  0  0  0  0  0  0  0  0  0  0
  161.7880  212.7940  146.7610 C   0  0  1  0  0  3  0  0  0  0  0  0
  159.4170  211.9950  151.2770 N   0  0  0  0  0  2  0  0  0  0  0  0
  158.7880  214.0860  151.8960 N   0  0  0  0  0  2  0  0  0  0  0  0
  158.5320  213.2060  152.9820 C   0  0  1  0  0  3  0  0  0  0  0  0
  159.7040  213.0200  152.1980 N   0  0  0  0  0  0  0  0  0  0  0  0
  158.8510  213.8980  154.2240 N   0  0  0  0  0  2  0  0  0  0  0  0
  158.0890  211.2820  155.8700 C   0  0  0  0  0  2  0  0  0  0  0  0
  158.1830  212.7300  156.3300 C   0  0  0  0  0  2  0  0  0  0  0  0
  155.7480  212.1070  155.1900 C   0  0  0  0  0  2  0  0  0  0  0  0
  156.5150  213.1990  154.4360 C   0  0  0  0  0  2  0  0  0  0  0  0
  156.6430  210.8970  155.5040 C   0  0  0  0  0  2  0  0  0  0  0  0
  157.7670  213.6890  155.1940 C   0  0  0  0  0  3  0  0  0  0  0  0
  162.1120  205.8940  143.4240 C   0  0  0  0  0  2  0  0  0  0  0  0
  161.4520  206.3250  142.1260 C   0  0  0  0  0  2  0  0  0  0  0  0
  162.4000  206.1880  140.9330 C   0  0  0  0  0  2  0  0  0  0  0  0
  162.5040  207.4720  140.1060 C   0  0  1  0  0  3  0  0  0  0  0  0
  162.4330  205.8220  138.3360 O   0  0  0  0  0  1  0  0  0  0  0  0
  160.9800  207.5880  138.2540 O   0  0  0  0  0  1  0  0  0  0  0  0
  162.2650  207.1800  138.6200 C   0  0  0  0  0  3  0  0  0  0  0  0
  161.5800  208.5710  140.6390 C   0  0  0  0  0  2  0  0  0  0  0  0
  160.8710  210.6360  140.2850 C   0  0  0  0  0  1  0  0  0  0  0  0
  162.0110  209.8330  140.2160 O   0  0  0  0  0  0  0  0  0  0  0  0
  1 22  1  0  0  0  0
  2 13  1  1  0  0  0
  4  3  1  1  0  0  0
  4  2  1  0  0  0  0
  4  1  1  0  0  0  0
  5  9  1  6  0  0  0
  5 13  1  0  0  0  0
  5 18  1  0  0  0  0
  7 21  1  6  0  0  0
  7 11  1  0  0  0  0
  8 14  1  0  0  0  0
 10 12  1  1  0  0  0
 10 15  1  0  0  0  0
 10  4  1  0  0  0  0
 11  9  1  1  0  0  0
 11  2  1  0  0  0  0
 14 16  1  6  0  0  0
 14 12  1  0  0  0  0
 14  7  1  0  0  0  0
 15  6  1  1  0  0  0
 15  1  1  0  0  0  0
 16  8  1  0  0  0  0
 18 17  1  1  0  0  0
 19 18  1  0  0  0  0
 19 17  1  0  0  0  0
 20 21  2  0  0  0  0
 23 30  1  6  0  0  0
 23 29  1  0  0  0  0
 25 29  1  0  0  0  0
 25 24  1  1  0  0  0
 26 28  1  0  0  0  0
 26 27  1  1  0  0  0
 26 25  1  0  0  0  0
 26 23  1  0  0  0  0
 27 23  1  0  0  0  0
 28 22  1  6  0  0  0
 28 25  1  0  0  0  0
 29 24  1  1  0  0  0
 31 40  1  1  0  0  0
 31 30  1  0  0  0  0
 32 34  1  0  0  0  0
 33 35  2  0  0  0  0
 34 35  1  0  0  0  0
 35 31  1  0  0  0  0
 37 38  1  6  0  0  0
 37 33  1  0  0  0  0
 39 36  1  6  0  0  0
 39 32  1  0  0  0  0
 39 37  1  0  0  0  0
 40 43  1  0  0  0  0
 41 43  1  0  0  0  0
 41 42  1  0  0  0  0
 42 44  1  1  0  0  0
 43 42  1  0  0  0  0
 44 50  1  0  0  0  0
 45 46  1  0  0  0  0
 47 49  1  0  0  0  0
 48 47  1  0  0  0  0
 48 50  1  0  0  0  0
 49 45  1  0  0  0  0
 50 46  1  0  0  0  0
 51  8  1  0  0  0  0
 52 51  1  0  0  0  0
 53 52  1  0  0  0  0
 54 58  1  1  0  0  0
 54 53  1  0  0  0  0
 55 57  1  0  0  0  0
 56 57  1  0  0  0  0
 57 54  1  0  0  0  0
 60 59  1  0  0  0  0
 60 58  1  0  0  0  0
M  END
>  <MODEL>
4

>  <REMARK>
 VINA RESULT:      -0.3      2.464      4.629
  Name = 
  18 active torsions:
  status: ('A' for Active; 'I' for Inactive)
    1  A    between atoms: N_1  and  C_28
    2  A    between atoms: C_3  and  C_29
    3  A    between atoms: C_3  and  C_38
    4  A    between atoms: C_3  and  C_47
    5  A    between atoms: N_7  and  C_36
    6  A    between atoms: N_7  and  C_53
    7  A    between atoms: C_10  and  C_11
    8  A    between atoms: C_10  and  C_47
    9  A    between atoms: C_11  and  N_25
   10  A    between atoms: C_15  and  N_30
   11  A    between atoms: C_17  and  C_58
   12  A    between atoms: C_20  and  C_35
   13  A    between atoms: C_21  and  C_39
   14  A    between atoms: C_28  and  C_56
   15  A    between atoms: C_29  and  O_51
   16  A    between atoms: N_30  and  C_35
   17  A    between atoms: C_35  and  N_42
   18  A    between atoms: N_42  and  N_55
                            x       y       z     vdW  Elec       q    Type
                         _______ _______ _______ _____ _____    ______ ____

>  <TORSDO>
F 18

$$$$
=
 OpenBabel11052411123D

 60 71  0  0  1  0  0  0  0  0999 V2000
  162.3470  207.7890  149.4980 N   0  0  0  0  0  0  0  0  0  0  0  0
  161.2480  206.3810  151.3940 C   0  0  1  0  0  3  0  0  0  0  0  0
  163.7280  206.2730  150.8400 C   0  0  0  0  0  1  0  0  0  0  0  0
  162.3300  206.5400  150.2950 C   0  0  2  0  0  0  0  0  0  0  0  0
  160.7170  206.8130  153.6480 C   0  0  2  0  0  3  0  0  0  0  0  0
  160.9150  207.3070  147.4250 C   0  0  0  0  0  1  0  0  0  0  0  0
  160.4680  204.0690  151.5600 C   0  0  1  0  0  3  0  0  0  0  0  0
  161.3780  202.5600  149.6760 N   0  0  0  0  0  0  0  0  0  0  0  0
  161.1310  205.3690  153.5040 C   0  0  0  0  0  2  0  0  0  0  0  0
  162.0810  205.6670  149.0640 C   0  0  1  0  0  3  0  0  0  0  0  0
  161.4120  205.0900  152.0880 N   0  0  2  0  0  0  0  0  0  0  0  0
  160.7020  204.9910  149.0420 C   0  0  0  0  0  2  0  0  0  0  0  0
  161.2990  207.4730  152.4380 C   0  0  0  0  0  2  0  0  0  0  0  0
  160.6600  203.8140  150.0270 C   0  0  2  0  0  0  0  0  0  0  0  0
  162.1520  206.9750  148.2790 C   0  0  2  0  0  3  0  0  0  0  0  0
  159.9210  202.6860  149.4770 C   0  0  0  0  0  2  0  0  0  0  0  0
  160.3260  208.5620  155.3180 C   0  0  0  0  0  2  0  0  0  0  0  0
  161.2520  207.4850  154.9040 C   0  0  1  0  0  3  0  0  0  0  0  0
  160.3610  207.3290  155.9840 O   0  0  0  0  0  0  0  0  0  0  0  0
  161.4220  201.8050  152.0090 C   0  0  0  0  0  2  0  0  0  0  0  0
  160.5670  202.7690  152.3380 C   0  0  0  0  0  3  0  0  0  0  0  0
  161.2510  208.7290  149.7610 C   0  0  0  0  0  2  0  0  0  0  0  0
  161.5290  212.6180  149.4410 C   0  0  2  0  0  0  0  0  0  0  0  0
  161.7380  211.5750  151.7440 C   0  0  0  0  0  2  0  0  0  0  0  0
  160.8480  210.9900  150.6580 C   0  0  1  0  0  0  0  0  0  0  0  0
  161.3450  211.1510  149.1690 C   0  0  2  0  0  0  0  0  0  0  0  0
  162.6270  211.8360  148.9090 N   0  0  0  0  0  2  0  0  0  0  0  0
  161.8660  210.0800  150.0690 C   0  0  2  0  0  3  0  0  0  0  0  0
  161.0030  212.4970  150.8410 C   0  0  2  0  0  3  0  0  0  0  0  0
  160.7550  213.3800  148.4740 N   0  0  0  0  0  2  0  0  0  0  0  0
  159.4080  213.4890  149.0300 C   0  0  2  0  0  3  0  0  0  0  0  0
  156.0210  214.4400  147.3040 C   0  0  0  0  0  2  0  0  0  0  0  0
  158.7920  214.1250  146.7220 C   0  0  0  0  0  3  0  0  0  0  0  0
  156.9370  213.8200  148.3570 C   0  0  0  0  0  2  0  0  0  0  0  0
  158.3970  213.9110  147.9960 C   0  0  0  0  0  0  0  0  0  0  0  0
  155.5200  214.4440  144.9750 O   0  0  0  0  0  1  0  0  0  0  0  0
  157.8280  214.4530  145.6090 C   0  0  1  0  0  3  0  0  0  0  0  0
  158.2840  213.8970  144.4310 F   0  0  0  0  0  0  0  0  0  0  0  0
  156.4200  213.9520  145.9210 C   0  0  1  0  0  3  0  0  0  0  0  0
  159.3920  214.3160  150.2390 N   0  0  0  0  0  2  0  0  0  0  0  0
  159.1120  214.3630  152.4900 N   0  0  0  0  0  2  0  0  0  0  0  0
  157.8290  214.4300  151.8830 C   0  0  1  0  0  3  0  0  0  0  0  0
  158.8280  213.5960  151.3090 N   0  0  0  0  0  0  0  0  0  0  0  0
  156.8980  213.6410  152.6780 N   0  0  0  0  0  2  0  0  0  0  0  0
  155.9770  211.3780  154.7190 C   0  0  0  0  0  2  0  0  0  0  0  0
  157.3370  211.6180  154.0770 C   0  0  0  0  0  2  0  0  0  0  0  0
  156.9290  213.1250  156.3520 C   0  0  0  0  0  2  0  0  0  0  0  0
  157.1460  213.9680  155.0910 C   0  0  0  0  0  2  0  0  0  0  0  0
  155.8950  212.0120  156.1210 C   0  0  0  0  0  2  0  0  0  0  0  0
  157.5830  213.1280  153.8720 C   0  0  0  0  0  3  0  0  0  0  0  0
  161.9870  202.6010  148.3470 C   0  0  0  0  0  2  0  0  0  0  0  0
  161.1250  201.8080  147.3810 C   0  0  0  0  0  2  0  0  0  0  0  0
  161.3050  202.2820  145.9380 C   0  0  0  0  0  2  0  0  0  0  0  0
  161.1000  203.7910  145.7790 C   0  0  1  0  0  3  0  0  0  0  0  0
  161.7050  205.2610  143.9540 O   0  0  0  0  0  1  0  0  0  0  0  0
  163.1140  205.0970  145.7490 O   0  0  0  0  0  1  0  0  0  0  0  0
  162.2200  204.4040  144.9310 C   0  0  0  0  0  3  0  0  0  0  0  0
  159.7080  204.1250  145.2350 C   0  0  0  0  0  2  0  0  0  0  0  0
  158.1700  203.7970  143.6790 C   0  0  0  0  0  1  0  0  0  0  0  0
  159.3870  203.3030  144.1500 O   0  0  0  0  0  0  0  0  0  0  0  0
  1 22  1  0  0  0  0
  1  4  1  0  0  0  0
  2 11  1  0  0  0  0
  2 13  1  1  0  0  0
  4  3  1  1  0  0  0
  4  2  1  0  0  0  0
  5 13  1  6  0  0  0
  5 18  1  0  0  0  0
  7 11  1  0  0  0  0
  7 21  1  1  0  0  0
  8 14  1  0  0  0  0
  9  5  1  0  0  0  0
 10 12  1  1  0  0  0
 10  4  1  0  0  0  0
 11  9  1  1  0  0  0
 14 12  1  6  0  0  0
 14  7  1  0  0  0  0
 15  6  1  1  0  0  0
 15 10  1  0  0  0  0
 15  1  1  0  0  0  0
 16  8  1  0  0  0  0
 16 14  1  0  0  0  0
 17 19  1  0  0  0  0
 18 17  1  6  0  0  0
 18 19  1  0  0  0  0
 20 21  2  0  0  0  0
 23 30  1  6  0  0  0
 23 29  1  0  0  0  0
 25 29  1  0  0  0  0
 25 24  1  6  0  0  0
 26 27  1  1  0  0  0
 26 23  1  0  0  0  0
 26 28  1  0  0  0  0
 26 25  1  0  0  0  0
 27 23  1  0  0  0  0
 28 22  1  6  0  0  0
 28 25  1  0  0  0  0
 29 24  1  1  0  0  0
 31 30  1  6  0  0  0
 31 40  1  0  0  0  0
 32 34  1  0  0  0  0
 33 35  2  0  0  0  0
 35 34  1  0  0  0  0
 35 31  1  0  0  0  0
 37 38  1  6  0  0  0
 37 39  1  0  0  0  0
 37 33  1  0  0  0  0
 39 36  1  6  0  0  0
 39 32  1  0  0  0  0
 40 43  1  0  0  0  0
 42 41  1  0  0  0  0
 42 44  1  1  0  0  0
 43 42  1  0  0  0  0
 43 41  1  0  0  0  0
 44 50  1  0  0  0  0
 45 49  1  0  0  0  0
 46 45  1  0  0  0  0
 48 47  1  0  0  0  0
 49 47  1  0  0  0  0
 50 46  1  0  0  0  0
 50 48  1  0  0  0  0
 51  8  1  0  0  0  0
 52 51  1  0  0  0  0
 53 52  1  0  0  0  0
 54 58  1  6  0  0  0
 54 53  1  0  0  0  0
 55 57  1  0  0  0  0
 57 56  1  0  0  0  0
 57 54  1  0  0  0  0
 59 60  1  0  0  0  0
 60 58  1  0  0  0  0
M  END
>  <MODEL>
5

>  <REMARK>
 VINA RESULT:       0.2      3.568      6.606
  Name = 
  18 active torsions:
  status: ('A' for Active; 'I' for Inactive)
    1  A    between atoms: N_1  and  C_28
    2  A    between atoms: C_3  and  C_29
    3  A    between atoms: C_3  and  C_38
    4  A    between atoms: C_3  and  C_47
    5  A    between atoms: N_7  and  C_36
    6  A    between atoms: N_7  and  C_53
    7  A    between atoms: C_10  and  C_11
    8  A    between atoms: C_10  and  C_47
    9  A    between atoms: C_11  and  N_25
   10  A    between atoms: C_15  and  N_30
   11  A    between atoms: C_17  and  C_58
   12  A    between atoms: C_20  and  C_35
   13  A    between atoms: C_21  and  C_39
   14  A    between atoms: C_28  and  C_56
   15  A    between atoms: C_29  and  O_51
   16  A    between atoms: N_30  and  C_35
   17  A    between atoms: C_35  and  N_42
   18  A    between atoms: N_42  and  N_55
                            x       y       z     vdW  Elec       q    Type
                         _______ _______ _______ _____ _____    ______ ____

>  <TORSDO>
F 18

$$$$
=
 OpenBabel11052411123D

 60 71  0  0  1  0  0  0  0  0999 V2000
  161.5850  209.0970  151.0070 N   0  0  0  0  0  0  0  0  0  0  0  0
  161.4600  207.3960  152.9750 C   0  0  1  0  0  3  0  0  0  0  0  0
  159.4380  208.6740  152.1090 C   0  0  0  0  0  1  0  0  0  0  0  0
  160.9530  208.6870  152.2820 C   0  0  2  0  0  0  0  0  0  0  0  0
  161.2200  205.0560  153.0960 C   0  0  2  0  0  3  0  0  0  0  0  0
  163.4820  210.6970  151.6590 C   0  0  0  0  0  1  0  0  0  0  0  0
  161.4330  207.6130  155.4110 C   0  0  1  0  0  3  0  0  0  0  0  0
  160.8950  210.0090  156.2030 N   0  0  0  0  0  0  0  0  0  0  0  0
  160.4980  205.6880  154.2590 C   0  0  0  0  0  2  0  0  0  0  0  0
  161.3800  209.9700  152.9970 C   0  0  1  0  0  3  0  0  0  0  0  0
  160.6920  207.1440  154.2090 N   0  0  2  0  0  0  0  0  0  0  0  0
  162.4170  209.7530  154.1090 C   0  0  0  0  0  2  0  0  0  0  0  0
  161.3380  206.1670  152.1020 C   0  0  0  0  0  2  0  0  0  0  0  0
  161.7560  209.1440  155.3530 C   0  0  2  0  0  0  0  0  0  0  0  0
  161.9770  210.3700  151.6490 C   0  0  2  0  0  3  0  0  0  0  0  0
  162.2940  209.7220  156.5770 C   0  0  0  0  0  2  0  0  0  0  0  0
  160.9000  203.7290  151.0610 C   0  0  0  0  0  2  0  0  0  0  0  0
  160.4740  203.8870  152.4680 C   0  0  1  0  0  3  0  0  0  0  0  0
  161.3640  202.8710  152.0680 O   0  0  0  0  0  0  0  0  0  0  0  0
  159.4050  206.9260  156.6960 C   0  0  0  0  0  2  0  0  0  0  0  0
  160.6900  207.2680  156.6890 C   0  0  0  0  0  3  0  0  0  0  0  0
  162.7250  208.2820  150.5690 C   0  0  0  0  0  2  0  0  0  0  0  0
  161.9020  206.1070  147.4240 C   0  0  2  0  0  0  0  0  0  0  0  0
  161.0220  208.4840  147.5140 C   0  0  0  0  0  2  0  0  0  0  0  0
  161.1870  207.6240  148.7580 C   0  0  1  0  0  0  0  0  0  0  0  0
  162.3870  206.5980  148.7590 C   0  0  2  0  0  0  0  0  0  0  0  0
  163.2780  206.5340  147.5830 N   0  0  0  0  0  2  0  0  0  0  0  0
  162.5760  208.0440  149.0790 C   0  0  2  0  0  3  0  0  0  0  0  0
  160.7210  207.0320  147.4310 C   0  0  2  0  0  3  0  0  0  0  0  0
  161.6600  204.6750  147.5050 N   0  0  0  0  0  2  0  0  0  0  0  0
  161.2370  204.2600  146.1700 C   0  0  2  0  0  3  0  0  0  0  0  0
  160.4640  200.6720  144.7950 C   0  0  0  0  0  2  0  0  0  0  0  0
  161.7410  201.9800  146.9810 C   0  0  0  0  0  3  0  0  0  0  0  0
  160.2930  202.1810  144.9640 C   0  0  0  0  0  2  0  0  0  0  0  0
  161.1890  202.7610  146.0270 C   0  0  0  0  0  0  0  0  0  0  0  0
  160.5030  198.6120  145.9900 O   0  0  0  0  0  1  0  0  0  0  0  0
  161.6500  200.4740  146.9620 C   0  0  1  0  0  3  0  0  0  0  0  0
  161.5770  200.0050  148.2580 F   0  0  0  0  0  0  0  0  0  0  0  0
  160.4450  199.9960  146.1570 C   0  0  1  0  0  3  0  0  0  0  0  0
  162.0230  204.9240  145.1270 N   0  0  0  0  0  2  0  0  0  0  0  0
  160.7380  206.4240  144.0100 N   0  0  0  0  0  2  0  0  0  0  0  0
  161.8600  206.1090  143.1960 C   0  0  1  0  0  3  0  0  0  0  0  0
  161.2460  205.0810  143.9630 N   0  0  0  0  0  0  0  0  0  0  0  0
  161.4230  206.0440  141.8080 N   0  0  0  0  0  2  0  0  0  0  0  0
  161.1870  208.3680  139.6460 C   0  0  0  0  0  2  0  0  0  0  0  0
  162.2510  208.1280  140.7080 C   0  0  0  0  0  2  0  0  0  0  0  0
  162.6950  206.7050  138.3860 C   0  0  0  0  0  2  0  0  0  0  0  0
  162.4930  205.8170  139.6190 C   0  0  0  0  0  2  0  0  0  0  0  0
  161.6100  207.7880  138.2820 C   0  0  0  0  0  2  0  0  0  0  0  0
  162.4600  206.6170  140.9390 C   0  0  0  0  0  3  0  0  0  0  0  0
  160.8580  211.3990  155.7540 C   0  0  0  0  0  2  0  0  0  0  0  0
  159.5340  212.0190  156.1660 C   0  0  0  0  0  2  0  0  0  0  0  0
  158.4750  211.8760  155.0730 C   0  0  0  0  0  2  0  0  0  0  0  0
  157.2420  212.7500  155.3220 C   0  0  1  0  0  3  0  0  0  0  0  0
  157.5700  213.2150  152.9690 O   0  0  0  0  0  1  0  0  0  0  0  0
  155.6470  213.9370  153.9770 O   0  0  0  0  0  1  0  0  0  0  0  0
  157.0140  213.7130  154.1510 C   0  0  0  0  0  3  0  0  0  0  0  0
  156.0010  211.9110  155.6360 C   0  0  0  0  0  2  0  0  0  0  0  0
  155.0230  209.9570  155.2910 C   0  0  0  0  0  1  0  0  0  0  0  0
  155.8030  210.9290  154.6610 O   0  0  0  0  0  0  0  0  0  0  0  0
  1 15  1  0  0  0  0
  1  4  1  0  0  0  0
  2 13  1  6  0  0  0
  2 11  1  0  0  0  0
  4  3  1  6  0  0  0
  4  2  1  0  0  0  0
  4 10  1  0  0  0  0
  5 13  1  6  0  0  0
  5  9  1  0  0  0  0
  7 21  1  1  0  0  0
  8 16  1  0  0  0  0
 10 12  1  1  0  0  0
 11  9  1  1  0  0  0
 11  7  1  0  0  0  0
 14 12  1  6  0  0  0
 14  7  1  0  0  0  0
 14  8  1  0  0  0  0
 14 16  1  0  0  0  0
 15  6  1  1  0  0  0
 15 10  1  0  0  0  0
 17 19  1  0  0  0  0
 18 17  1  6  0  0  0
 18  5  1  0  0  0  0
 19 18  1  0  0  0  0
 21 20  2  0  0  0  0
 22  1  1  0  0  0  0
 23 29  1  0  0  0  0
 23 30  1  6  0  0  0
 23 27  1  0  0  0  0
 23 26  1  0  0  0  0
 25 24  1  6  0  0  0
 25 26  1  0  0  0  0
 25 28  1  0  0  0  0
 26 27  1  6  0  0  0
 26 28  1  0  0  0  0
 28 22  1  1  0  0  0
 29 24  1  6  0  0  0
 29 25  1  0  0  0  0
 31 40  1  6  0  0  0
 31 30  1  0  0  0  0
 32 34  1  0  0  0  0
 32 39  1  0  0  0  0
 34 35  1  0  0  0  0
 35 31  1  0  0  0  0
 35 33  2  0  0  0  0
 37 33  1  0  0  0  0
 37 38  1  1  0  0  0
 39 36  1  6  0  0  0
 39 37  1  0  0  0  0
 42 44  1  6  0  0  0
 42 43  1  0  0  0  0
 42 41  1  0  0  0  0
 43 41  1  0  0  0  0
 43 40  1  0  0  0  0
 45 46  1  0  0  0  0
 46 50  1  0  0  0  0
 47 48  1  0  0  0  0
 48 50  1  0  0  0  0
 49 47  1  0  0  0  0
 49 45  1  0  0  0  0
 50 44  1  0  0  0  0
 51 52  1  0  0  0  0
 51  8  1  0  0  0  0
 53 52  1  0  0  0  0
 54 53  1  6  0  0  0
 54 58  1  0  0  0  0
 55 57  1  0  0  0  0
 56 57  1  0  0  0  0
 57 54  1  0  0  0  0
 60 59  1  0  0  0  0
 60 58  1  0  0  0  0
M  END
>  <MODEL>
6

>  <REMARK>
 VINA RESULT:       0.9      4.217     11.225
  Name = 
  18 active torsions:
  status: ('A' for Active; 'I' for Inactive)
    1  A    between atoms: N_1  and  C_28
    2  A    between atoms: C_3  and  C_29
    3  A    between atoms: C_3  and  C_38
    4  A    between atoms: C_3  and  C_47
    5  A    between atoms: N_7  and  C_36
    6  A    between atoms: N_7  and  C_53
    7  A    between atoms: C_10  and  C_11
    8  A    between atoms: C_10  and  C_47
    9  A    between atoms: C_11  and  N_25
   10  A    between atoms: C_15  and  N_30
   11  A    between atoms: C_17  and  C_58
   12  A    between atoms: C_20  and  C_35
   13  A    between atoms: C_21  and  C_39
   14  A    between atoms: C_28  and  C_56
   15  A    between atoms: C_29  and  O_51
   16  A    between atoms: N_30  and  C_35
   17  A    between atoms: C_35  and  N_42
   18  A    between atoms: N_42  and  N_55
                            x       y       z     vdW  Elec       q    Type
                         _______ _______ _______ _____ _____    ______ ____

>  <TORSDO>
F 18

$$$$
