=
 OpenBabel11042421543D

 47 52  0  0  1  0  0  0  0  0999 V2000
  161.3220  208.3210  149.2470 C   0  0  0  0  0  3  0  0  0  0  0  0
  161.1640  205.2870  149.6480 C   0  0  0  0  0  0  0  0  0  0  0  0
  161.5250  207.7820  152.9360 C   0  0  1  0  0  3  0  0  0  0  0  0
  161.5600  205.5760  148.3940 C   0  0  0  0  0  3  0  0  0  0  0  0
  160.7090  203.5800  151.2960 N   0  0  0  0  0  0  0  0  0  0  0  0
  162.5480  209.6050  151.4730 C   0  0  0  0  0  2  0  0  0  0  0  0
  161.4500  203.2650  145.5660 C   0  0  2  0  0  3  0  0  0  0  0  0
  161.0090  205.8600  152.0020 N   0  0  1  0  0  0  0  0  0  0  0  0
  160.6780  206.3310  150.6400 C   0  0  1  0  0  3  0  0  0  0  0  0
  161.8320  209.7010  149.1090 C   0  0  0  0  0  0  0  0  0  0  0  0
  162.3840  210.3230  150.1590 C   0  0  0  0  0  3  0  0  0  0  0  0
  160.5520  206.7650  152.9110 O   0  0  0  0  0  0  0  0  0  0  0  0
  161.2050  207.7500  150.4550 C   0  0  0  0  0  0  0  0  0  0  0  0
  161.0810  203.8670  150.0860 C   0  0  0  0  0  0  0  0  0  0  0  0
  161.2310  202.5050  146.7830 N   0  0  0  0  0  0  0  0  0  0  0  0
  161.7150  204.7030  146.0300 C   0  0  0  0  0  2  0  0  0  0  0  0
  162.1390  204.5350  147.4780 C   0  0  2  0  0  3  0  0  0  0  0  0
  161.6240  203.1860  147.8000 C   0  0  0  0  0  0  0  0  0  0  0  0
  161.2990  202.8170  149.1410 N   0  0  0  0  0  2  0  0  0  0  0  0
  161.3800  208.6340  151.6750 C   0  0  1  0  0  3  0  0  0  0  0  0
  160.2910  204.6090  152.2500 C   0  0  0  0  0  2  0  0  0  0  0  0
  160.1260  208.4420  156.2410 C   0  0  0  0  0  2  0  0  0  0  0  0
  160.2290  209.5680  154.1810 C   0  0  0  0  0  2  0  0  0  0  0  0
  159.6440  209.6150  155.5160 N   0  0  0  0  0  0  0  0  0  0  0  0
  161.1750  207.7370  155.4090 C   0  0  0  0  0  2  0  0  0  0  0  0
  161.4090  208.6180  154.2120 C   0  0  1  0  0  3  0  0  0  0  0  0
  161.3640  210.6700  157.2600 O   0  0  0  0  0  0  0  0  0  0  0  0
  160.7370  212.0230  155.3130 O   0  0  0  0  0  0  0  0  0  0  0  0
  160.2400  211.0320  156.3290 S   0  0  0  0  0  0  0  0  0  0  0  0
  158.9160  211.7710  157.2600 C   0  0  0  0  0  2  0  0  0  0  0  0
  158.2260  212.7550  156.4430 N   0  0  0  0  0  1  0  0  0  0  0  0
  160.2110  203.2020  144.6860 C   0  0  0  0  0  2  0  0  0  0  0  0
  159.3940  201.9570  144.9960 C   0  0  0  0  0  2  0  0  0  0  0  0
  160.0800  200.8230  144.5580 O   0  0  0  0  0  1  0  0  0  0  0  0
  161.7480  210.3820  147.7830 C   0  0  0  0  0  2  0  0  0  0  0  0
  161.5500  211.8830  147.9450 C   0  0  0  0  0  2  0  0  0  0  0  0
  160.8080  212.4840  146.7570 C   0  0  1  0  0  3  0  0  0  0  0  0
  159.8500  213.3950  147.2080 O   0  0  0  0  0  1  0  0  0  0  0  0
  162.6030  213.3840  143.4380 C   0  0  0  0  0  0  0  0  0  0  0  0
  161.7190  212.8620  144.4370 N   0  0  0  0  0  2  0  0  0  0  0  0
  163.5070  214.2040  143.7440 O   0  0  0  0  0  0  0  0  0  0  0  0
  162.6520  213.9390  146.2940 O   0  0  0  0  0  0  0  0  0  0  0  0
  161.7840  213.1460  145.8380 C   0  0  0  0  0  0  0  0  0  0  0  0
  162.4860  212.9720  142.1140 O   0  0  0  0  0  0  0  0  0  0  0  0
  162.7320  213.8600  141.0330 C   0  0  0  0  0  2  0  0  0  0  0  0
  161.4360  214.1610  140.3080 C   0  0  0  0  0  2  0  0  0  0  0  0
  160.5990  213.0480  140.3560 O   0  0  0  0  0  1  0  0  0  0  0  0
  1 13  2  0  0  0  0
  2 14  1  0  0  0  0
  3 12  1  1  0  0  0
  3 26  1  0  0  0  0
  4  2  2  0  0  0  0
  5 21  1  0  0  0  0
  7 32  1  6  0  0  0
  7 16  1  0  0  0  0
  7 15  1  0  0  0  0
  8 21  1  1  0  0  0
  8 12  1  0  0  0  0
  9  2  1  6  0  0  0
  9  8  1  0  0  0  0
 10  1  1  0  0  0  0
 10 11  2  0  0  0  0
 11  6  1  0  0  0  0
 13  9  1  0  0  0  0
 13 20  1  0  0  0  0
 14  5  2  0  0  0  0
 15 18  2  0  0  0  0
 17 16  1  6  0  0  0
 17 18  1  0  0  0  0
 17  4  1  0  0  0  0
 18 19  1  0  0  0  0
 19 14  1  0  0  0  0
 20  6  1  6  0  0  0
 20  3  1  0  0  0  0
 23 24  1  0  0  0  0
 24 22  1  0  0  0  0
 24 29  1  0  0  0  0
 25 22  1  0  0  0  0
 26 23  1  6  0  0  0
 26 25  1  0  0  0  0
 28 29  2  0  0  0  0
 29 30  1  0  0  0  0
 29 27  2  0  0  0  0
 31 30  1  0  0  0  0
 32 33  1  0  0  0  0
 34 33  1  0  0  0  0
 35 36  1  0  0  0  0
 35 10  1  0  0  0  0
 37 38  1  1  0  0  0
 37 36  1  0  0  0  0
 39 41  2  0  0  0  0
 39 40  1  0  0  0  0
 40 43  1  0  0  0  0
 43 42  2  0  0  0  0
 43 37  1  0  0  0  0
 44 39  1  0  0  0  0
 45 44  1  0  0  0  0
 46 47  1  0  0  0  0
 46 45  1  0  0  0  0
M  END
>  <MODEL>
1

>  <REMARK>
 VINA RESULT:      -7.1      0.000      0.000
  Name = 
  12 active torsions:
  status: ('A' for Active; 'I' for Inactive)
    1  A    between atoms: C_1  and  O_14
    2  A    between atoms: C_4  and  C_28
    3  A    between atoms: C_4  and  C_35
    4  A    between atoms: C_6  and  C_39
    5  A    between atoms: C_8  and  C_30
    6  A    between atoms: C_12  and  C_16
    7  A    between atoms: O_14  and  C_30
    8  A    between atoms: C_16  and  C_19
    9  A    between atoms: C_23  and  C_33
   10  A    between atoms: C_28  and  C_33
   11  A    between atoms: N_31  and  S_32
   12  A    between atoms: S_32  and  C_43
                            x       y       z     vdW  Elec       q    Type
                         _______ _______ _______ _____ _____    ______ ____

>  <TORSDO>
F 12

$$$$
=
 OpenBabel11042421543D

 47 52  0  0  1  0  0  0  0  0999 V2000
  161.4580  208.8500  149.0710 C   0  0  0  0  0  3  0  0  0  0  0  0
  161.3200  205.7890  149.1450 C   0  0  0  0  0  0  0  0  0  0  0  0
  161.5690  207.9250  152.6860 C   0  0  1  0  0  3  0  0  0  0  0  0
  161.7460  206.2120  147.9390 C   0  0  0  0  0  3  0  0  0  0  0  0
  160.8380  203.9150  150.5900 N   0  0  0  0  0  0  0  0  0  0  0  0
  162.6120  209.9000  151.4520 C   0  0  0  0  0  2  0  0  0  0  0  0
  161.7340  204.2130  144.8820 C   0  0  2  0  0  3  0  0  0  0  0  0
  161.0960  206.1090  151.5400 N   0  0  1  0  0  0  0  0  0  0  0  0
  160.7970  206.7200  150.2270 C   0  0  1  0  0  3  0  0  0  0  0  0
  161.9580  210.2400  149.0930 C   0  0  0  0  0  0  0  0  0  0  0  0
  162.4760  210.7520  150.2180 C   0  0  0  0  0  3  0  0  0  0  0  0
  160.6070  206.9100  152.5270 O   0  0  0  0  0  0  0  0  0  0  0  0
  161.3150  208.1540  150.2070 C   0  0  0  0  0  0  0  0  0  0  0  0
  161.2390  204.3300  149.4280 C   0  0  0  0  0  0  0  0  0  0  0  0
  161.4900  203.3270  146.0050 N   0  0  0  0  0  0  0  0  0  0  0  0
  161.9730  205.5950  145.5010 C   0  0  0  0  0  2  0  0  0  0  0  0
  162.3590  205.2780  146.9350 C   0  0  2  0  0  3  0  0  0  0  0  0
  161.8490  203.8990  147.0990 C   0  0  0  0  0  0  0  0  0  0  0  0
  161.4920  203.3880  148.3840 N   0  0  0  0  0  2  0  0  0  0  0  0
  161.4490  208.9050  151.5180 C   0  0  1  0  0  3  0  0  0  0  0  0
  160.3850  204.8340  151.6360 C   0  0  0  0  0  2  0  0  0  0  0  0
  159.8760  208.4110  155.8820 C   0  0  0  0  0  2  0  0  0  0  0  0
  160.3820  209.7330  154.0060 C   0  0  0  0  0  2  0  0  0  0  0  0
  159.6500  209.7160  155.2670 N   0  0  0  0  0  0  0  0  0  0  0  0
  160.9150  207.6560  155.0820 C   0  0  0  0  0  2  0  0  0  0  0  0
  161.4110  208.6210  154.0390 C   0  0  1  0  0  3  0  0  0  0  0  0
  160.8570  212.0820  155.5090 O   0  0  0  0  0  0  0  0  0  0  0  0
  159.2660  211.4280  157.2570 O   0  0  0  0  0  0  0  0  0  0  0  0
  160.3270  210.9280  156.3140 S   0  0  0  0  0  0  0  0  0  0  0  0
  161.6510  210.2090  157.2610 C   0  0  0  0  0  2  0  0  0  0  0  0
  162.9310  210.5730  156.6760 N   0  0  0  0  0  1  0  0  0  0  0  0
  160.5190  204.2350  143.9660 C   0  0  0  0  0  2  0  0  0  0  0  0
  159.5550  203.1140  144.3240 C   0  0  0  0  0  2  0  0  0  0  0  0
  158.2430  203.5280  144.0920 O   0  0  0  0  0  1  0  0  0  0  0  0
  161.9030  211.0570  147.8450 C   0  0  0  0  0  2  0  0  0  0  0  0
  161.2910  212.4270  148.1070 C   0  0  0  0  0  2  0  0  0  0  0  0
  161.5820  213.4000  146.9710 C   0  0  1  0  0  3  0  0  0  0  0  0
  162.7900  213.0660  146.3570 O   0  0  0  0  0  1  0  0  0  0  0  0
  159.7000  212.6660  143.6590 C   0  0  0  0  0  0  0  0  0  0  0  0
  160.6610  212.7420  144.7180 N   0  0  0  0  0  2  0  0  0  0  0  0
  158.5400  213.1320  143.8090 O   0  0  0  0  0  0  0  0  0  0  0  0
  159.3460  213.8980  146.2720 O   0  0  0  0  0  0  0  0  0  0  0  0
  160.4560  213.3720  145.9870 C   0  0  0  0  0  0  0  0  0  0  0  0
  160.0440  212.0930  142.4390 O   0  0  0  0  0  0  0  0  0  0  0  0
  161.3960  211.8120  142.1030 C   0  0  0  0  0  2  0  0  0  0  0  0
  161.5460  211.7280  140.5980 C   0  0  0  0  0  2  0  0  0  0  0  0
  160.5860  210.8620  140.0760 O   0  0  0  0  0  1  0  0  0  0  0  0
  1 10  1  0  0  0  0
  1 13  2  0  0  0  0
  2 14  1  0  0  0  0
  3 12  1  6  0  0  0
  3 26  1  0  0  0  0
  4  2  2  0  0  0  0
  5 21  1  0  0  0  0
  7 32  1  6  0  0  0
  7 16  1  0  0  0  0
  7 15  1  0  0  0  0
  8 21  1  6  0  0  0
  8 12  1  0  0  0  0
  9  2  1  6  0  0  0
  9  8  1  0  0  0  0
 10 11  2  0  0  0  0
 11  6  1  0  0  0  0
 13  9  1  0  0  0  0
 13 20  1  0  0  0  0
 14  5  2  0  0  0  0
 15 18  2  0  0  0  0
 17 16  1  6  0  0  0
 17 18  1  0  0  0  0
 17  4  1  0  0  0  0
 18 19  1  0  0  0  0
 19 14  1  0  0  0  0
 20  6  1  6  0  0  0
 20  3  1  0  0  0  0
 23 24  1  0  0  0  0
 24 22  1  0  0  0  0
 24 29  1  0  0  0  0
 25 22  1  0  0  0  0
 26 23  1  6  0  0  0
 26 25  1  0  0  0  0
 27 29  2  0  0  0  0
 29 28  2  0  0  0  0
 29 30  1  0  0  0  0
 31 30  1  0  0  0  0
 32 33  1  0  0  0  0
 34 33  1  0  0  0  0
 35 36  1  0  0  0  0
 35 10  1  0  0  0  0
 37 38  1  6  0  0  0
 37 36  1  0  0  0  0
 39 41  2  0  0  0  0
 39 40  1  0  0  0  0
 40 43  1  0  0  0  0
 43 42  2  0  0  0  0
 43 37  1  0  0  0  0
 44 39  1  0  0  0  0
 45 44  1  0  0  0  0
 46 45  1  0  0  0  0
 47 46  1  0  0  0  0
M  END
>  <MODEL>
2

>  <REMARK>
 VINA RESULT:      -6.8      1.469      1.850
  Name = 
  12 active torsions:
  status: ('A' for Active; 'I' for Inactive)
    1  A    between atoms: C_1  and  O_14
    2  A    between atoms: C_4  and  C_28
    3  A    between atoms: C_4  and  C_35
    4  A    between atoms: C_6  and  C_39
    5  A    between atoms: C_8  and  C_30
    6  A    between atoms: C_12  and  C_16
    7  A    between atoms: O_14  and  C_30
    8  A    between atoms: C_16  and  C_19
    9  A    between atoms: C_23  and  C_33
   10  A    between atoms: C_28  and  C_33
   11  A    between atoms: N_31  and  S_32
   12  A    between atoms: S_32  and  C_43
                            x       y       z     vdW  Elec       q    Type
                         _______ _______ _______ _____ _____    ______ ____

>  <TORSDO>
F 12

$$$$
=
 OpenBabel11042421543D

 47 52  0  0  1  0  0  0  0  0999 V2000
  161.5110  208.8490  149.1300 C   0  0  0  0  0  3  0  0  0  0  0  0
  161.3190  205.7930  149.2470 C   0  0  0  0  0  0  0  0  0  0  0  0
  161.4980  207.9800  152.7600 C   0  0  1  0  0  3  0  0  0  0  0  0
  161.7880  206.1890  148.0480 C   0  0  0  0  0  3  0  0  0  0  0  0
  160.7630  203.9490  150.7060 N   0  0  0  0  0  0  0  0  0  0  0  0
  162.6100  209.9180  151.5280 C   0  0  0  0  0  2  0  0  0  0  0  0
  161.8340  204.1420  145.0230 C   0  0  2  0  0  3  0  0  0  0  0  0
  161.0300  206.1550  151.6290 N   0  0  1  0  0  0  0  0  0  0  0  0
  160.7800  206.7490  150.2990 C   0  0  1  0  0  3  0  0  0  0  0  0
  162.0330  210.2310  149.1460 C   0  0  0  0  0  0  0  0  0  0  0  0
  162.5260  210.7520  150.2770 C   0  0  0  0  0  3  0  0  0  0  0  0
  160.5250  206.9790  152.5890 O   0  0  0  0  0  0  0  0  0  0  0  0
  161.3220  208.1730  150.2720 C   0  0  0  0  0  0  0  0  0  0  0  0
  161.2060  204.3400  149.5500 C   0  0  0  0  0  0  0  0  0  0  0  0
  161.5420  203.2780  146.1520 N   0  0  0  0  0  0  0  0  0  0  0  0
  162.0770  205.5300  145.6280 C   0  0  0  0  0  2  0  0  0  0  0  0
  162.4150  205.2290  147.0770 C   0  0  2  0  0  3  0  0  0  0  0  0
  161.8770  203.8620  147.2470 C   0  0  0  0  0  0  0  0  0  0  0  0
  161.4740  203.3770  148.5290 N   0  0  0  0  0  2  0  0  0  0  0  0
  161.4290  208.9430  151.5740 C   0  0  1  0  0  3  0  0  0  0  0  0
  160.2940  204.8930  151.7230 C   0  0  0  0  0  2  0  0  0  0  0  0
  160.0420  208.2600  156.0950 C   0  0  0  0  0  2  0  0  0  0  0  0
  160.0580  209.5510  154.1310 C   0  0  0  0  0  2  0  0  0  0  0  0
  159.4690  209.4430  155.4610 N   0  0  0  0  0  0  0  0  0  0  0  0
  161.1480  207.7110  155.2190 C   0  0  0  0  0  2  0  0  0  0  0  0
  161.3110  208.7000  154.0970 C   0  0  1  0  0  3  0  0  0  0  0  0
  158.8110  211.2990  157.2600 O   0  0  0  0  0  0  0  0  0  0  0  0
  161.1240  210.4830  157.2550 O   0  0  0  0  0  0  0  0  0  0  0  0
  159.9450  210.8350  156.3890 S   0  0  0  0  0  0  0  0  0  0  0  0
  160.4120  212.1450  155.2790 C   0  0  0  0  0  2  0  0  0  0  0  0
  159.6080  213.3260  155.5420 N   0  0  0  0  0  1  0  0  0  0  0  0
  160.6470  204.1690  144.0710 C   0  0  0  0  0  2  0  0  0  0  0  0
  159.6790  203.0390  144.3870 C   0  0  0  0  0  2  0  0  0  0  0  0
  158.3690  203.4630  144.1560 O   0  0  0  0  0  1  0  0  0  0  0  0
  162.0290  211.0290  147.8830 C   0  0  0  0  0  2  0  0  0  0  0  0
  160.8940  212.0450  147.8750 C   0  0  0  0  0  2  0  0  0  0  0  0
  161.0850  213.1100  148.9480 C   0  0  1  0  0  3  0  0  0  0  0  0
  161.9090  214.1290  148.4650 O   0  0  0  0  0  1  0  0  0  0  0  0
  157.9310  213.6510  151.1410 C   0  0  0  0  0  0  0  0  0  0  0  0
  159.2060  213.2530  150.6220 N   0  0  0  0  0  2  0  0  0  0  0  0
  157.2000  214.4530  150.5040 O   0  0  0  0  0  0  0  0  0  0  0  0
  159.1240  214.4400  148.6060 O   0  0  0  0  0  0  0  0  0  0  0  0
  159.7530  213.6500  149.3610 C   0  0  0  0  0  0  0  0  0  0  0  0
  157.4740  213.1350  152.3490 O   0  0  0  0  0  0  0  0  0  0  0  0
  157.0620  213.9820  153.4130 C   0  0  0  0  0  2  0  0  0  0  0  0
  155.6860  213.5720  153.8960 C   0  0  0  0  0  2  0  0  0  0  0  0
  155.7520  212.3150  154.4950 O   0  0  0  0  0  1  0  0  0  0  0  0
  1 10  1  0  0  0  0
  1 13  2  0  0  0  0
  2 14  1  0  0  0  0
  3 12  1  6  0  0  0
  3 26  1  0  0  0  0
  4  2  2  0  0  0  0
  5 21  1  0  0  0  0
  7 32  1  6  0  0  0
  7 16  1  0  0  0  0
  7 15  1  0  0  0  0
  8 21  1  6  0  0  0
  8 12  1  0  0  0  0
  9  2  1  6  0  0  0
  9  8  1  0  0  0  0
 10 11  2  0  0  0  0
 11  6  1  0  0  0  0
 13  9  1  0  0  0  0
 13 20  1  0  0  0  0
 14  5  2  0  0  0  0
 15 18  2  0  0  0  0
 17 16  1  6  0  0  0
 17 18  1  0  0  0  0
 17  4  1  0  0  0  0
 18 19  1  0  0  0  0
 19 14  1  0  0  0  0
 20  6  1  6  0  0  0
 20  3  1  0  0  0  0
 23 24  1  0  0  0  0
 24 22  1  0  0  0  0
 24 29  1  0  0  0  0
 25 22  1  0  0  0  0
 26 23  1  6  0  0  0
 26 25  1  0  0  0  0
 29 28  2  0  0  0  0
 29 27  2  0  0  0  0
 30 31  1  0  0  0  0
 30 29  1  0  0  0  0
 32 33  1  0  0  0  0
 34 33  1  0  0  0  0
 35 10  1  0  0  0  0
 36 35  1  0  0  0  0
 36 37  1  0  0  0  0
 37 38  1  6  0  0  0
 37 43  1  0  0  0  0
 39 44  1  0  0  0  0
 40 39  1  0  0  0  0
 41 39  2  0  0  0  0
 42 43  2  0  0  0  0
 43 40  1  0  0  0  0
 44 45  1  0  0  0  0
 45 46  1  0  0  0  0
 46 47  1  0  0  0  0
M  END
>  <MODEL>
3

>  <REMARK>
 VINA RESULT:      -6.5      2.827      4.754
  Name = 
  12 active torsions:
  status: ('A' for Active; 'I' for Inactive)
    1  A    between atoms: C_1  and  O_14
    2  A    between atoms: C_4  and  C_28
    3  A    between atoms: C_4  and  C_35
    4  A    between atoms: C_6  and  C_39
    5  A    between atoms: C_8  and  C_30
    6  A    between atoms: C_12  and  C_16
    7  A    between atoms: O_14  and  C_30
    8  A    between atoms: C_16  and  C_19
    9  A    between atoms: C_23  and  C_33
   10  A    between atoms: C_28  and  C_33
   11  A    between atoms: N_31  and  S_32
   12  A    between atoms: S_32  and  C_43
                            x       y       z     vdW  Elec       q    Type
                         _______ _______ _______ _____ _____    ______ ____

>  <TORSDO>
F 12

$$$$
=
 OpenBabel11042421543D

 47 52  0  0  1  0  0  0  0  0999 V2000
  162.1440  209.7070  150.6280 C   0  0  0  0  0  3  0  0  0  0  0  0
  161.2140  208.2010  153.1300 C   0  0  0  0  0  0  0  0  0  0  0  0
  161.4780  206.2100  149.5060 C   0  0  1  0  0  3  0  0  0  0  0  0
  161.0420  209.5270  153.2880 C   0  0  0  0  0  3  0  0  0  0  0  0
  160.9220  205.9870  154.0510 N   0  0  0  0  0  0  0  0  0  0  0  0
  161.2650  208.4190  148.2470 C   0  0  0  0  0  2  0  0  0  0  0  0
  160.5710  211.2220  156.4890 C   0  0  2  0  0  3  0  0  0  0  0  0
  161.3720  206.2450  151.7020 N   0  0  1  0  0  0  0  0  0  0  0  0
  161.9510  207.5820  151.9530 C   0  0  1  0  0  3  0  0  0  0  0  0
  162.1540  210.4450  149.3480 C   0  0  0  0  0  0  0  0  0  0  0  0
  161.7690  209.8370  148.2170 C   0  0  0  0  0  3  0  0  0  0  0  0
  162.0390  205.6550  150.6710 O   0  0  0  0  0  0  0  0  0  0  0  0
  161.9620  208.3800  150.6540 C   0  0  0  0  0  0  0  0  0  0  0  0
  160.7680  207.2670  154.1990 C   0  0  0  0  0  0  0  0  0  0  0  0
  160.4180  209.7950  156.7040 N   0  0  0  0  0  0  0  0  0  0  0  0
  160.7820  211.3840  154.9790 C   0  0  0  0  0  2  0  0  0  0  0  0
  160.2140  210.0990  154.4040 C   0  0  2  0  0  3  0  0  0  0  0  0
  160.2060  209.2050  155.5820 C   0  0  0  0  0  0  0  0  0  0  0  0
  160.2770  207.7860  155.4370 N   0  0  0  0  0  2  0  0  0  0  0  0
  162.0070  207.6340  149.3340 C   0  0  1  0  0  3  0  0  0  0  0  0
  161.5920  205.4100  152.8840 C   0  0  0  0  0  2  0  0  0  0  0  0
  162.1930  205.7660  145.9560 C   0  0  0  0  0  2  0  0  0  0  0  0
  160.5370  205.0470  147.4610 C   0  0  0  0  0  2  0  0  0  0  0  0
  160.9130  205.0700  146.0510 N   0  0  0  0  0  0  0  0  0  0  0  0
  162.7230  206.0310  147.3480 C   0  0  0  0  0  2  0  0  0  0  0  0
  161.7740  205.3350  148.2870 C   0  0  1  0  0  3  0  0  0  0  0  0
  160.1050  203.0530  144.5060 O   0  0  0  0  0  0  0  0  0  0  0  0
  162.5130  203.2970  144.8970 O   0  0  0  0  0  0  0  0  0  0  0  0
  161.1500  203.4320  145.5180 S   0  0  0  0  0  0  0  0  0  0  0  0
  161.0410  202.3400  146.9190 C   0  0  0  0  0  2  0  0  0  0  0  0
  160.8360  200.9740  146.4670 N   0  0  0  0  0  1  0  0  0  0  0  0
  161.7780  211.7360  157.2610 C   0  0  0  0  0  2  0  0  0  0  0  0
  162.8950  210.7030  157.2610 C   0  0  0  0  0  2  0  0  0  0  0  0
  164.1270  211.3410  157.1140 O   0  0  0  0  0  1  0  0  0  0  0  0
  162.5710  211.8790  149.3330 C   0  0  0  0  0  2  0  0  0  0  0  0
  161.8180  212.6620  148.2660 C   0  0  0  0  0  2  0  0  0  0  0  0
  160.5220  213.2510  148.8090 C   0  0  1  0  0  3  0  0  0  0  0  0
  160.7860  214.4530  149.4690 O   0  0  0  0  0  1  0  0  0  0  0  0
  159.2280  213.5100  145.1610 C   0  0  0  0  0  0  0  0  0  0  0  0
  160.0170  213.3090  146.3400 N   0  0  0  0  0  2  0  0  0  0  0  0
  158.0060  213.8000  145.2470 O   0  0  0  0  0  0  0  0  0  0  0  0
  158.3560  213.7630  147.9260 O   0  0  0  0  0  0  0  0  0  0  0  0
  159.5560  213.4580  147.6870 C   0  0  0  0  0  0  0  0  0  0  0  0
  159.8120  213.4100  143.9020 O   0  0  0  0  0  0  0  0  0  0  0  0
  159.0660  213.6420  142.7150 C   0  0  0  0  0  2  0  0  0  0  0  0
  159.8910  213.2570  141.5040 C   0  0  0  0  0  2  0  0  0  0  0  0
  161.1870  212.9320  141.9000 O   0  0  0  0  0  1  0  0  0  0  0  0
  1 13  2  0  0  0  0
  2  4  2  0  0  0  0
  2 14  1  0  0  0  0
  3 12  1  1  0  0  0
  5 14  2  0  0  0  0
  7 15  1  0  0  0  0
  7 32  1  1  0  0  0
  8  9  1  0  0  0  0
  8 21  1  1  0  0  0
  9 13  1  6  0  0  0
  9  2  1  0  0  0  0
 10  1  1  0  0  0  0
 11  6  1  0  0  0  0
 11 10  2  0  0  0  0
 12  8  1  0  0  0  0
 14 19  1  0  0  0  0
 16  7  1  0  0  0  0
 17  4  1  6  0  0  0
 17 16  1  0  0  0  0
 17 18  1  0  0  0  0
 18 15  2  0  0  0  0
 19 18  1  0  0  0  0
 20  6  1  6  0  0  0
 20  3  1  0  0  0  0
 20 13  1  0  0  0  0
 21  5  1  0  0  0  0
 22 24  1  0  0  0  0
 22 25  1  0  0  0  0
 23 26  1  0  0  0  0
 24 23  1  0  0  0  0
 26 25  1  6  0  0  0
 26  3  1  0  0  0  0
 27 29  2  0  0  0  0
 28 29  2  0  0  0  0
 29 24  1  0  0  0  0
 29 30  1  0  0  0  0
 31 30  1  0  0  0  0
 33 32  1  0  0  0  0
 34 33  1  0  0  0  0
 35 10  1  0  0  0  0
 36 37  1  0  0  0  0
 36 35  1  0  0  0  0
 37 38  1  6  0  0  0
 39 41  2  0  0  0  0
 39 40  1  0  0  0  0
 40 43  1  0  0  0  0
 43 42  2  0  0  0  0
 43 37  1  0  0  0  0
 44 39  1  0  0  0  0
 45 44  1  0  0  0  0
 46 47  1  0  0  0  0
 46 45  1  0  0  0  0
M  END
>  <MODEL>
4

>  <REMARK>
 VINA RESULT:      -5.7      2.802      8.261
  Name = 
  12 active torsions:
  status: ('A' for Active; 'I' for Inactive)
    1  A    between atoms: C_1  and  O_14
    2  A    between atoms: C_4  and  C_28
    3  A    between atoms: C_4  and  C_35
    4  A    between atoms: C_6  and  C_39
    5  A    between atoms: C_8  and  C_30
    6  A    between atoms: C_12  and  C_16
    7  A    between atoms: O_14  and  C_30
    8  A    between atoms: C_16  and  C_19
    9  A    between atoms: C_23  and  C_33
   10  A    between atoms: C_28  and  C_33
   11  A    between atoms: N_31  and  S_32
   12  A    between atoms: S_32  and  C_43
                            x       y       z     vdW  Elec       q    Type
                         _______ _______ _______ _____ _____    ______ ____

>  <TORSDO>
F 12

$$$$
=
 OpenBabel11042421543D

 47 52  0  0  1  0  0  0  0  0999 V2000
  161.8430  209.7090  148.7690 C   0  0  0  0  0  3  0  0  0  0  0  0
  160.5880  212.4560  148.2510 C   0  0  0  0  0  0  0  0  0  0  0  0
  160.3840  210.7790  152.0340 C   0  0  1  0  0  3  0  0  0  0  0  0
  160.7290  211.7780  147.0970 C   0  0  0  0  0  3  0  0  0  0  0  0
  159.7900  214.4510  149.3560 N   0  0  0  0  0  0  0  0  0  0  0  0
  160.6900  208.4460  151.0450 C   0  0  0  0  0  2  0  0  0  0  0  0
  160.6630  213.2650  143.7600 C   0  0  2  0  0  3  0  0  0  0  0  0
  160.2890  212.4920  150.6600 N   0  0  1  0  0  0  0  0  0  0  0  0
  161.1620  211.9870  149.5790 C   0  0  1  0  0  3  0  0  0  0  0  0
  162.0240  208.2560  148.9730 C   0  0  0  0  0  0  0  0  0  0  0  0
  161.5090  207.6590  150.0570 C   0  0  0  0  0  3  0  0  0  0  0  0
  160.8010  212.1120  151.8630 O   0  0  0  0  0  0  0  0  0  0  0  0
  161.3580  210.4850  149.7480 C   0  0  0  0  0  0  0  0  0  0  0  0
  159.9380  213.7940  148.2460 C   0  0  0  0  0  0  0  0  0  0  0  0
  160.1830  214.2530  144.7080 N   0  0  0  0  0  0  0  0  0  0  0  0
  160.9060  211.9960  144.5870 C   0  0  0  0  0  2  0  0  0  0  0  0
  160.0560  212.2140  145.8260 C   0  0  2  0  0  3  0  0  0  0  0  0
  159.8400  213.6770  145.8050 C   0  0  0  0  0  0  0  0  0  0  0  0
  159.5800  214.4060  147.0050 N   0  0  0  0  0  2  0  0  0  0  0  0
  161.2290  209.8780  151.1320 C   0  0  1  0  0  3  0  0  0  0  0  0
  160.3090  213.9550  150.6320 C   0  0  0  0  0  2  0  0  0  0  0  0
  161.0640  211.4870  155.5490 C   0  0  0  0  0  2  0  0  0  0  0  0
  161.8780  209.9950  153.9250 C   0  0  0  0  0  2  0  0  0  0  0  0
  162.0920  210.4850  155.2820 N   0  0  0  0  0  0  0  0  0  0  0  0
  160.0740  211.5020  154.4050 C   0  0  0  0  0  2  0  0  0  0  0  0
  160.4700  210.3640  153.5040 C   0  0  1  0  0  3  0  0  0  0  0  0
  163.0700  208.9790  157.2540 O   0  0  0  0  0  0  0  0  0  0  0  0
  160.6620  209.4450  157.2600 O   0  0  0  0  0  0  0  0  0  0  0  0
  161.8550  209.1640  156.3880 S   0  0  0  0  0  0  0  0  0  0  0  0
  161.5570  207.6730  155.4620 C   0  0  0  0  0  2  0  0  0  0  0  0
  160.2550  207.1280  155.8080 N   0  0  0  0  0  1  0  0  0  0  0  0
  161.9560  213.7470  143.1190 C   0  0  0  0  0  2  0  0  0  0  0  0
  162.0230  213.3220  141.6600 C   0  0  0  0  0  2  0  0  0  0  0  0
  162.6090  214.3370  140.9010 O   0  0  0  0  0  1  0  0  0  0  0  0
  162.7620  207.4600  147.9490 C   0  0  0  0  0  2  0  0  0  0  0  0
  162.3080  206.0060  147.9460 C   0  0  0  0  0  2  0  0  0  0  0  0
  161.8860  205.5500  146.5550 C   0  0  1  0  0  3  0  0  0  0  0  0
  162.9050  205.8180  145.6380 O   0  0  0  0  0  1  0  0  0  0  0  0
  161.0820  202.0580  148.0410 C   0  0  0  0  0  0  0  0  0  0  0  0
  161.3590  203.4500  147.8460 N   0  0  0  0  0  2  0  0  0  0  0  0
  160.9470  201.2860  147.0560 O   0  0  0  0  0  0  0  0  0  0  0  0
  161.4740  203.4370  145.5080 O   0  0  0  0  0  0  0  0  0  0  0  0
  161.5630  204.0910  146.5830 C   0  0  0  0  0  0  0  0  0  0  0  0
  160.9810  201.5360  149.3260 O   0  0  0  0  0  0  0  0  0  0  0  0
  160.4030  202.2810  150.3890 C   0  0  0  0  0  2  0  0  0  0  0  0
  161.4360  202.5220  151.4710 C   0  0  0  0  0  2  0  0  0  0  0  0
  161.5830  203.8910  151.6870 O   0  0  0  0  0  1  0  0  0  0  0  0
  1 10  1  0  0  0  0
  1 13  2  0  0  0  0
  3 12  1  1  0  0  0
  3 26  1  0  0  0  0
  4  2  2  0  0  0  0
  5 21  1  0  0  0  0
  7 32  1  1  0  0  0
  7 16  1  0  0  0  0
  7 15  1  0  0  0  0
  8 21  1  1  0  0  0
  8 12  1  0  0  0  0
  9  2  1  6  0  0  0
  9 13  1  0  0  0  0
  9  8  1  0  0  0  0
 10 11  2  0  0  0  0
 11  6  1  0  0  0  0
 13 20  1  0  0  0  0
 14  2  1  0  0  0  0
 14  5  2  0  0  0  0
 15 18  2  0  0  0  0
 17 16  1  6  0  0  0
 17  4  1  0  0  0  0
 18 17  1  0  0  0  0
 18 19  1  0  0  0  0
 19 14  1  0  0  0  0
 20  6  1  6  0  0  0
 20  3  1  0  0  0  0
 23 24  1  0  0  0  0
 24 22  1  0  0  0  0
 24 29  1  0  0  0  0
 25 22  1  0  0  0  0
 26 23  1  1  0  0  0
 26 25  1  0  0  0  0
 29 27  2  0  0  0  0
 29 28  2  0  0  0  0
 30 31  1  0  0  0  0
 30 29  1  0  0  0  0
 33 32  1  0  0  0  0
 34 33  1  0  0  0  0
 35 10  1  0  0  0  0
 36 35  1  0  0  0  0
 37 38  1  6  0  0  0
 37 43  1  0  0  0  0
 37 36  1  0  0  0  0
 39 44  1  0  0  0  0
 40 39  1  0  0  0  0
 41 39  2  0  0  0  0
 42 43  2  0  0  0  0
 43 40  1  0  0  0  0
 44 45  1  0  0  0  0
 45 46  1  0  0  0  0
 46 47  1  0  0  0  0
M  END
>  <MODEL>
5

>  <REMARK>
 VINA RESULT:      -5.5      2.474      8.580
  Name = 
  12 active torsions:
  status: ('A' for Active; 'I' for Inactive)
    1  A    between atoms: C_1  and  O_14
    2  A    between atoms: C_4  and  C_28
    3  A    between atoms: C_4  and  C_35
    4  A    between atoms: C_6  and  C_39
    5  A    between atoms: C_8  and  C_30
    6  A    between atoms: C_12  and  C_16
    7  A    between atoms: O_14  and  C_30
    8  A    between atoms: C_16  and  C_19
    9  A    between atoms: C_23  and  C_33
   10  A    between atoms: C_28  and  C_33
   11  A    between atoms: N_31  and  S_32
   12  A    between atoms: S_32  and  C_43
                            x       y       z     vdW  Elec       q    Type
                         _______ _______ _______ _____ _____    ______ ____

>  <TORSDO>
F 12

$$$$
=
 OpenBabel11042421543D

 47 52  0  0  1  0  0  0  0  0999 V2000
  161.1630  208.1550  149.1770 C   0  0  0  0  0  3  0  0  0  0  0  0
  161.0630  205.0970  149.3450 C   0  0  0  0  0  0  0  0  0  0  0  0
  161.3130  207.3420  152.8180 C   0  0  1  0  0  3  0  0  0  0  0  0
  161.4740  205.4880  148.1240 C   0  0  0  0  0  3  0  0  0  0  0  0
  160.6150  203.2610  150.8510 N   0  0  0  0  0  0  0  0  0  0  0  0
  162.3220  209.2910  151.5160 C   0  0  0  0  0  2  0  0  0  0  0  0
  161.4630  203.3970  145.1280 C   0  0  2  0  0  3  0  0  0  0  0  0
  160.8540  205.4870  151.7310 N   0  0  1  0  0  0  0  0  0  0  0  0
  160.5370  206.0530  150.4030 C   0  0  1  0  0  3  0  0  0  0  0  0
  161.6460  209.5510  149.1530 C   0  0  0  0  0  0  0  0  0  0  0  0
  162.1660  210.1030  150.2570 C   0  0  0  0  0  3  0  0  0  0  0  0
  160.3630  206.3110  152.6980 O   0  0  0  0  0  0  0  0  0  0  0  0
  161.0370  207.4920  150.3350 C   0  0  0  0  0  0  0  0  0  0  0  0
  161.0020  203.6460  149.6730 C   0  0  0  0  0  0  0  0  0  0  0  0
  161.2390  202.5430  146.2800 N   0  0  0  0  0  0  0  0  0  0  0  0
  161.6890  204.8000  145.7040 C   0  0  0  0  0  2  0  0  0  0  0  0
  162.0910  204.5310  147.1430 C   0  0  2  0  0  3  0  0  0  0  0  0
  161.5990  203.1520  147.3530 C   0  0  0  0  0  0  0  0  0  0  0  0
  161.2590  202.6760  148.6560 N   0  0  0  0  0  2  0  0  0  0  0  0
  161.1720  208.2840  151.6220 C   0  0  1  0  0  3  0  0  0  0  0  0
  160.1590  204.2070  151.8710 C   0  0  0  0  0  2  0  0  0  0  0  0
  159.6560  207.8880  156.0230 C   0  0  0  0  0  2  0  0  0  0  0  0
  160.1000  209.1610  154.0980 C   0  0  0  0  0  2  0  0  0  0  0  0
  159.3870  209.1660  155.3700 N   0  0  0  0  0  0  0  0  0  0  0  0
  160.7020  207.1340  155.2310 C   0  0  0  0  0  2  0  0  0  0  0  0
  161.1570  208.0770  154.1500 C   0  0  1  0  0  3  0  0  0  0  0  0
  158.9830  211.0030  157.2610 O   0  0  0  0  0  0  0  0  0  0  0  0
  161.1580  209.8710  157.2150 O   0  0  0  0  0  0  0  0  0  0  0  0
  160.0470  210.4280  156.3670 S   0  0  0  0  0  0  0  0  0  0  0  0
  160.7020  211.7130  155.3250 C   0  0  0  0  0  2  0  0  0  0  0  0
  159.6130  212.4560  154.7120 N   0  0  0  0  0  1  0  0  0  0  0  0
  160.2400  203.3760  144.2220 C   0  0  0  0  0  2  0  0  0  0  0  0
  159.2380  202.3340  144.6950 C   0  0  0  0  0  2  0  0  0  0  0  0
  159.8680  201.0940  144.8110 O   0  0  0  0  0  1  0  0  0  0  0  0
  161.5710  210.3290  147.8810 C   0  0  0  0  0  2  0  0  0  0  0  0
  161.3950  211.8180  148.1520 C   0  0  0  0  0  2  0  0  0  0  0  0
  162.5620  212.6310  147.6090 C   0  0  1  0  0  3  0  0  0  0  0  0
  163.7690  212.0230  147.9600 O   0  0  0  0  0  1  0  0  0  0  0  0
  160.9350  213.4060  144.1740 C   0  0  0  0  0  0  0  0  0  0  0  0
  161.2210  213.2640  145.5700 N   0  0  0  0  0  2  0  0  0  0  0  0
  161.8030  213.1210  143.3070 O   0  0  0  0  0  0  0  0  0  0  0  0
  163.3930  212.4130  145.3740 O   0  0  0  0  0  0  0  0  0  0  0  0
  162.4390  212.7550  146.1240 C   0  0  0  0  0  0  0  0  0  0  0  0
  159.6820  213.8410  143.7550 O   0  0  0  0  0  0  0  0  0  0  0  0
  158.5140  213.0580  143.9600 C   0  0  0  0  0  2  0  0  0  0  0  0
  158.1900  212.9920  145.4390 C   0  0  0  0  0  2  0  0  0  0  0  0
  158.1160  214.2820  145.9630 O   0  0  0  0  0  1  0  0  0  0  0  0
  1 13  2  0  0  0  0
  2 14  1  0  0  0  0
  3 12  1  6  0  0  0
  3 26  1  0  0  0  0
  4  2  2  0  0  0  0
  5 21  1  0  0  0  0
  7 32  1  6  0  0  0
  7 16  1  0  0  0  0
  7 15  1  0  0  0  0
  8 21  1  6  0  0  0
  8 12  1  0  0  0  0
  9  2  1  6  0  0  0
  9  8  1  0  0  0  0
 10  1  1  0  0  0  0
 10 11  2  0  0  0  0
 11  6  1  0  0  0  0
 13  9  1  0  0  0  0
 13 20  1  0  0  0  0
 14  5  2  0  0  0  0
 15 18  2  0  0  0  0
 17 16  1  6  0  0  0
 17 18  1  0  0  0  0
 17  4  1  0  0  0  0
 18 19  1  0  0  0  0
 19 14  1  0  0  0  0
 20  6  1  6  0  0  0
 20  3  1  0  0  0  0
 23 24  1  0  0  0  0
 24 22  1  0  0  0  0
 24 29  1  0  0  0  0
 25 22  1  0  0  0  0
 26 23  1  6  0  0  0
 26 25  1  0  0  0  0
 29 28  2  0  0  0  0
 29 27  2  0  0  0  0
 30 29  1  0  0  0  0
 31 30  1  0  0  0  0
 32 33  1  0  0  0  0
 33 34  1  0  0  0  0
 35 36  1  0  0  0  0
 35 10  1  0  0  0  0
 37 38  1  6  0  0  0
 37 36  1  0  0  0  0
 39 40  1  0  0  0  0
 40 43  1  0  0  0  0
 41 39  2  0  0  0  0
 42 43  2  0  0  0  0
 43 37  1  0  0  0  0
 44 45  1  0  0  0  0
 44 39  1  0  0  0  0
 45 46  1  0  0  0  0
 46 47  1  0  0  0  0
M  END
>  <MODEL>
6

>  <REMARK>
 VINA RESULT:      -5.1      1.388      1.980
  Name = 
  12 active torsions:
  status: ('A' for Active; 'I' for Inactive)
    1  A    between atoms: C_1  and  O_14
    2  A    between atoms: C_4  and  C_28
    3  A    between atoms: C_4  and  C_35
    4  A    between atoms: C_6  and  C_39
    5  A    between atoms: C_8  and  C_30
    6  A    between atoms: C_12  and  C_16
    7  A    between atoms: O_14  and  C_30
    8  A    between atoms: C_16  and  C_19
    9  A    between atoms: C_23  and  C_33
   10  A    between atoms: C_28  and  C_33
   11  A    between atoms: N_31  and  S_32
   12  A    between atoms: S_32  and  C_43
                            x       y       z     vdW  Elec       q    Type
                         _______ _______ _______ _____ _____    ______ ____

>  <TORSDO>
F 12

$$$$
=
 OpenBabel11042421543D

 47 52  0  0  1  0  0  0  0  0999 V2000
  161.9230  209.3100  150.8020 C   0  0  0  0  0  3  0  0  0  0  0  0
  160.9820  207.9820  153.3980 C   0  0  0  0  0  0  0  0  0  0  0  0
  161.3490  205.7220  149.9450 C   0  0  1  0  0  3  0  0  0  0  0  0
  160.7800  209.3120  153.4500 C   0  0  0  0  0  3  0  0  0  0  0  0
  160.7190  205.8400  154.4840 N   0  0  0  0  0  0  0  0  0  0  0  0
  161.1130  207.8220  148.5140 C   0  0  0  0  0  2  0  0  0  0  0  0
  160.2190  211.2400  156.5020 C   0  0  2  0  0  3  0  0  0  0  0  0
  161.2040  205.9250  152.1290 N   0  0  1  0  0  0  0  0  0  0  0  0
  161.7520  207.2890  152.2850 C   0  0  1  0  0  3  0  0  0  0  0  0
  161.9400  209.9460  149.4680 C   0  0  0  0  0  0  0  0  0  0  0  0
  161.5870  209.2440  148.3830 C   0  0  0  0  0  3  0  0  0  0  0  0
  161.9010  205.2720  151.1580 O   0  0  0  0  0  0  0  0  0  0  0  0
  161.7680  207.9850  150.9280 C   0  0  0  0  0  0  0  0  0  0  0  0
  160.5360  207.1240  154.5300 C   0  0  0  0  0  0  0  0  0  0  0  0
  160.0920  209.8310  156.8240 N   0  0  0  0  0  0  0  0  0  0  0  0
  160.4520  211.2890  154.9870 C   0  0  0  0  0  2  0  0  0  0  0  0
  159.9210  209.9510  154.5050 C   0  0  2  0  0  3  0  0  0  0  0  0
  159.9100  209.1510  155.7490 C   0  0  0  0  0  0  0  0  0  0  0  0
  160.0130  207.7270  155.7150 N   0  0  0  0  0  2  0  0  0  0  0  0
  161.8510  207.1400  149.6710 C   0  0  1  0  0  3  0  0  0  0  0  0
  161.4210  205.1900  153.3760 C   0  0  0  0  0  2  0  0  0  0  0  0
  162.0660  205.0120  146.4380 C   0  0  0  0  0  2  0  0  0  0  0  0
  160.4590  204.3400  148.0160 C   0  0  0  0  0  2  0  0  0  0  0  0
  160.8250  204.2610  146.6070 N   0  0  0  0  0  0  0  0  0  0  0  0
  162.5890  205.4230  147.7980 C   0  0  0  0  0  2  0  0  0  0  0  0
  161.6840  204.7620  148.8020 C   0  0  1  0  0  3  0  0  0  0  0  0
  160.4930  202.2310  144.9100 O   0  0  0  0  0  0  0  0  0  0  0  0
  162.6310  202.3840  146.1020 O   0  0  0  0  0  0  0  0  0  0  0  0
  161.1460  202.5980  146.2130 S   0  0  0  0  0  0  0  0  0  0  0  0
  160.5070  201.5580  147.5080 C   0  0  0  0  0  2  0  0  0  0  0  0
  161.6040  200.9340  148.2290 N   0  0  0  0  0  1  0  0  0  0  0  0
  161.4020  211.8380  157.2500 C   0  0  0  0  0  2  0  0  0  0  0  0
  162.7050  211.5220  156.5320 C   0  0  0  0  0  2  0  0  0  0  0  0
  163.4260  210.5740  157.2600 O   0  0  0  0  0  1  0  0  0  0  0  0
  162.3280  211.3830  149.3480 C   0  0  0  0  0  2  0  0  0  0  0  0
  162.5410  211.7780  147.8930 C   0  0  0  0  0  2  0  0  0  0  0  0
  162.0680  213.2010  147.6200 C   0  0  1  0  0  3  0  0  0  0  0  0
  162.6950  213.6990  146.4770 O   0  0  0  0  0  1  0  0  0  0  0  0
  158.3290  213.3110  148.6500 C   0  0  0  0  0  0  0  0  0  0  0  0
  159.7610  213.3240  148.6310 N   0  0  0  0  0  2  0  0  0  0  0  0
  157.6730  213.2460  147.5780 O   0  0  0  0  0  0  0  0  0  0  0  0
  160.0600  213.1230  146.3180 O   0  0  0  0  0  0  0  0  0  0  0  0
  160.5810  213.2130  147.4630 C   0  0  0  0  0  0  0  0  0  0  0  0
  157.6430  213.3490  149.8600 O   0  0  0  0  0  0  0  0  0  0  0  0
  158.0930  214.1470  150.9460 C   0  0  0  0  0  2  0  0  0  0  0  0
  158.4480  213.2620  152.1240 C   0  0  0  0  0  2  0  0  0  0  0  0
  159.7570  212.8030  151.9900 O   0  0  0  0  0  1  0  0  0  0  0  0
  1 13  2  0  0  0  0
  2  4  2  0  0  0  0
  2 14  1  0  0  0  0
  3 12  1  1  0  0  0
  5 14  2  0  0  0  0
  7 15  1  0  0  0  0
  7 32  1  1  0  0  0
  8  9  1  0  0  0  0
  8 21  1  1  0  0  0
  9 13  1  6  0  0  0
  9  2  1  0  0  0  0
 10  1  1  0  0  0  0
 11  6  1  0  0  0  0
 11 10  2  0  0  0  0
 12  8  1  0  0  0  0
 14 19  1  0  0  0  0
 16  7  1  0  0  0  0
 17  4  1  6  0  0  0
 17 16  1  0  0  0  0
 17 18  1  0  0  0  0
 18 15  2  0  0  0  0
 19 18  1  0  0  0  0
 20  6  1  6  0  0  0
 20  3  1  0  0  0  0
 20 13  1  0  0  0  0
 21  5  1  0  0  0  0
 22 24  1  0  0  0  0
 22 25  1  0  0  0  0
 23 26  1  0  0  0  0
 24 23  1  0  0  0  0
 26 25  1  6  0  0  0
 26  3  1  0  0  0  0
 27 29  2  0  0  0  0
 28 29  2  0  0  0  0
 29 24  1  0  0  0  0
 29 30  1  0  0  0  0
 30 31  1  0  0  0  0
 33 32  1  0  0  0  0
 33 34  1  0  0  0  0
 35 10  1  0  0  0  0
 36 35  1  0  0  0  0
 37 38  1  6  0  0  0
 37 36  1  0  0  0  0
 39 44  1  0  0  0  0
 40 39  1  0  0  0  0
 41 39  2  0  0  0  0
 42 43  2  0  0  0  0
 43 37  1  0  0  0  0
 43 40  1  0  0  0  0
 44 45  1  0  0  0  0
 45 46  1  0  0  0  0
 47 46  1  0  0  0  0
M  END
>  <MODEL>
7

>  <REMARK>
 VINA RESULT:      -4.8      3.205      8.816
  Name = 
  12 active torsions:
  status: ('A' for Active; 'I' for Inactive)
    1  A    between atoms: C_1  and  O_14
    2  A    between atoms: C_4  and  C_28
    3  A    between atoms: C_4  and  C_35
    4  A    between atoms: C_6  and  C_39
    5  A    between atoms: C_8  and  C_30
    6  A    between atoms: C_12  and  C_16
    7  A    between atoms: O_14  and  C_30
    8  A    between atoms: C_16  and  C_19
    9  A    between atoms: C_23  and  C_33
   10  A    between atoms: C_28  and  C_33
   11  A    between atoms: N_31  and  S_32
   12  A    between atoms: S_32  and  C_43
                            x       y       z     vdW  Elec       q    Type
                         _______ _______ _______ _____ _____    ______ ____

>  <TORSDO>
F 12

$$$$
=
 OpenBabel11042421543D

 47 52  0  0  1  0  0  0  0  0999 V2000
  162.0560  208.0150  150.3080 C   0  0  0  0  0  3  0  0  0  0  0  0
  161.3920  207.2490  153.2000 C   0  0  0  0  0  0  0  0  0  0  0  0
  160.4240  204.6630  150.1120 C   0  0  1  0  0  3  0  0  0  0  0  0
  161.5480  208.5820  153.0900 C   0  0  0  0  0  3  0  0  0  0  0  0
  160.8370  205.3750  154.6210 N   0  0  0  0  0  0  0  0  0  0  0  0
  160.4230  206.6020  148.4530 C   0  0  0  0  0  2  0  0  0  0  0  0
  162.1630  210.8670  155.8740 C   0  0  2  0  0  3  0  0  0  0  0  0
  160.8090  205.1020  152.2310 N   0  0  1  0  0  0  0  0  0  0  0  0
  161.7040  206.2690  152.0800 C   0  0  1  0  0  3  0  0  0  0  0  0
  161.9450  208.4940  148.9150 C   0  0  0  0  0  0  0  0  0  0  0  0
  161.2020  207.8190  148.0280 C   0  0  0  0  0  3  0  0  0  0  0  0
  161.0930  204.1930  151.2570 O   0  0  0  0  0  0  0  0  0  0  0  0
  161.6020  206.8020  150.6550 C   0  0  0  0  0  0  0  0  0  0  0  0
  160.9990  206.6580  154.5080 C   0  0  0  0  0  0  0  0  0  0  0  0
  161.7570  209.5840  156.4190 N   0  0  0  0  0  0  0  0  0  0  0  0
  162.0690  210.7070  154.3520 C   0  0  0  0  0  2  0  0  0  0  0  0
  161.1260  209.5300  154.1780 C   0  0  2  0  0  3  0  0  0  0  0  0
  161.1820  208.8840  155.5070 C   0  0  0  0  0  0  0  0  0  0  0  0
  160.9130  207.4900  155.6670 N   0  0  0  0  0  2  0  0  0  0  0  0
  161.1970  205.8540  149.5430 C   0  0  1  0  0  3  0  0  0  0  0  0
  161.0970  204.4550  153.5120 C   0  0  0  0  0  2  0  0  0  0  0  0
  161.1670  201.3340  148.8140 C   0  0  0  0  0  2  0  0  0  0  0  0
  161.3470  203.5440  148.0340 C   0  0  0  0  0  2  0  0  0  0  0  0
  161.6820  202.1590  147.7240 N   0  0  0  0  0  0  0  0  0  0  0  0
  160.3350  202.1940  149.7400 C   0  0  0  0  0  2  0  0  0  0  0  0
  160.2520  203.5450  149.0820 C   0  0  1  0  0  3  0  0  0  0  0  0
  161.2960  200.3420  145.8100 O   0  0  0  0  0  0  0  0  0  0  0  0
  159.3670  201.6810  146.5180 O   0  0  0  0  0  0  0  0  0  0  0  0
  160.8500  201.7030  146.2660 S   0  0  0  0  0  0  0  0  0  0  0  0
  161.2040  202.8970  144.9950 C   0  0  0  0  0  2  0  0  0  0  0  0
  159.9660  203.4900  144.5150 N   0  0  0  0  0  1  0  0  0  0  0  0
  163.5900  211.1800  156.2970 C   0  0  0  0  0  2  0  0  0  0  0  0
  164.5350  211.0890  155.1080 C   0  0  0  0  0  2  0  0  0  0  0  0
  165.6890  211.8310  155.3660 O   0  0  0  0  0  1  0  0  0  0  0  0
  162.6480  209.7490  148.5150 C   0  0  0  0  0  2  0  0  0  0  0  0
  162.1000  210.9530  149.2700 C   0  0  0  0  0  2  0  0  0  0  0  0
  162.3770  212.2560  148.5290 C   0  0  1  0  0  3  0  0  0  0  0  0
  163.6300  212.1950  147.9140 O   0  0  0  0  0  1  0  0  0  0  0  0
  160.7500  212.9170  145.0710 C   0  0  0  0  0  0  0  0  0  0  0  0
  161.6570  212.6430  146.1450 N   0  0  0  0  0  2  0  0  0  0  0  0
  159.5120  213.0050  145.2810 O   0  0  0  0  0  0  0  0  0  0  0  0
  160.0940  212.5790  147.8860 O   0  0  0  0  0  0  0  0  0  0  0  0
  161.2990  212.5000  147.5230 C   0  0  0  0  0  0  0  0  0  0  0  0
  161.2310  213.1130  143.7800 O   0  0  0  0  0  0  0  0  0  0  0  0
  162.6160  213.2910  143.5190 C   0  0  0  0  0  2  0  0  0  0  0  0
  162.8430  213.4600  142.0310 C   0  0  0  0  0  2  0  0  0  0  0  0
  161.6270  213.3680  141.3550 O   0  0  0  0  0  1  0  0  0  0  0  0
  1 13  2  0  0  0  0
  2 14  1  0  0  0  0
  3 12  1  1  0  0  0
  4  2  2  0  0  0  0
  7 32  1  6  0  0  0
  7 15  1  0  0  0  0
  8 21  1  1  0  0  0
  9 13  1  6  0  0  0
  9  8  1  0  0  0  0
  9  2  1  0  0  0  0
 10  1  1  0  0  0  0
 11  6  1  0  0  0  0
 11 10  2  0  0  0  0
 12  8  1  0  0  0  0
 14  5  2  0  0  0  0
 14 19  1  0  0  0  0
 16  7  1  0  0  0  0
 17  4  1  6  0  0  0
 17 16  1  0  0  0  0
 17 18  1  0  0  0  0
 18 19  1  0  0  0  0
 18 15  2  0  0  0  0
 20  6  1  6  0  0  0
 20  3  1  0  0  0  0
 20 13  1  0  0  0  0
 21  5  1  0  0  0  0
 22 25  1  0  0  0  0
 24 23  1  0  0  0  0
 24 22  1  0  0  0  0
 26 23  1  6  0  0  0
 26 25  1  0  0  0  0
 26  3  1  0  0  0  0
 27 29  2  0  0  0  0
 29 28  2  0  0  0  0
 29 24  1  0  0  0  0
 30 29  1  0  0  0  0
 31 30  1  0  0  0  0
 33 34  1  0  0  0  0
 33 32  1  0  0  0  0
 35 10  1  0  0  0  0
 35 36  1  0  0  0  0
 37 38  1  6  0  0  0
 37 36  1  0  0  0  0
 39 41  2  0  0  0  0
 39 40  1  0  0  0  0
 40 43  1  0  0  0  0
 43 42  2  0  0  0  0
 43 37  1  0  0  0  0
 44 39  1  0  0  0  0
 45 44  1  0  0  0  0
 46 45  1  0  0  0  0
 47 46  1  0  0  0  0
M  END
>  <MODEL>
8

>  <REMARK>
 VINA RESULT:      -4.6      2.786      8.113
  Name = 
  12 active torsions:
  status: ('A' for Active; 'I' for Inactive)
    1  A    between atoms: C_1  and  O_14
    2  A    between atoms: C_4  and  C_28
    3  A    between atoms: C_4  and  C_35
    4  A    between atoms: C_6  and  C_39
    5  A    between atoms: C_8  and  C_30
    6  A    between atoms: C_12  and  C_16
    7  A    between atoms: O_14  and  C_30
    8  A    between atoms: C_16  and  C_19
    9  A    between atoms: C_23  and  C_33
   10  A    between atoms: C_28  and  C_33
   11  A    between atoms: N_31  and  S_32
   12  A    between atoms: S_32  and  C_43
                            x       y       z     vdW  Elec       q    Type
                         _______ _______ _______ _____ _____    ______ ____

>  <TORSDO>
F 12

$$$$
=
 OpenBabel11042421543D

 47 52  0  0  1  0  0  0  0  0999 V2000
  161.2260  206.9820  149.2870 C   0  0  0  0  0  3  0  0  0  0  0  0
  160.9330  203.9660  149.7410 C   0  0  0  0  0  0  0  0  0  0  0  0
  161.5310  206.4850  152.9750 C   0  0  1  0  0  3  0  0  0  0  0  0
  161.2990  204.2170  148.4690 C   0  0  0  0  0  3  0  0  0  0  0  0
  160.4520  202.3070  151.4300 N   0  0  0  0  0  0  0  0  0  0  0  0
  162.5900  208.2350  151.4490 C   0  0  0  0  0  2  0  0  0  0  0  0
  160.9780  201.8760  145.6830 C   0  0  2  0  0  3  0  0  0  0  0  0
  160.8880  204.5790  152.0880 N   0  0  1  0  0  0  0  0  0  0  0  0
  160.5340  205.0470  150.7320 C   0  0  1  0  0  3  0  0  0  0  0  0
  161.7990  208.3330  149.1100 C   0  0  0  0  0  0  0  0  0  0  0  0
  162.4170  208.9420  150.1310 C   0  0  0  0  0  3  0  0  0  0  0  0
  160.5090  205.5180  152.9990 O   0  0  0  0  0  0  0  0  0  0  0  0
  161.1230  206.4350  150.5060 C   0  0  0  0  0  0  0  0  0  0  0  0
  160.7960  202.5580  150.2030 C   0  0  0  0  0  0  0  0  0  0  0  0
  160.7640  201.1450  146.9190 N   0  0  0  0  0  0  0  0  0  0  0  0
  161.3290  203.3050  146.1150 C   0  0  0  0  0  2  0  0  0  0  0  0
  161.7940  203.1360  147.5500 C   0  0  2  0  0  3  0  0  0  0  0  0
  161.2240  201.8190  147.9110 C   0  0  0  0  0  0  0  0  0  0  0  0
  160.9290  201.4860  149.2680 N   0  0  0  0  0  2  0  0  0  0  0  0
  161.3840  207.3260  151.7060 C   0  0  1  0  0  3  0  0  0  0  0  0
  160.1190  203.3690  152.3810 C   0  0  0  0  0  2  0  0  0  0  0  0
  160.0450  207.4920  156.1520 C   0  0  0  0  0  2  0  0  0  0  0  0
  160.5740  208.5370  154.1140 C   0  0  0  0  0  2  0  0  0  0  0  0
  159.9040  208.7330  155.3950 N   0  0  0  0  0  0  0  0  0  0  0  0
  160.9730  206.5560  155.4080 C   0  0  0  0  0  2  0  0  0  0  0  0
  161.5010  207.3440  154.2400 C   0  0  1  0  0  3  0  0  0  0  0  0
  159.8140  210.6360  157.2600 O   0  0  0  0  0  0  0  0  0  0  0  0
  161.9170  209.4040  156.9870 O   0  0  0  0  0  0  0  0  0  0  0  0
  160.7350  209.9900  156.2630 S   0  0  0  0  0  0  0  0  0  0  0  0
  161.3110  211.2150  155.1090 C   0  0  0  0  0  2  0  0  0  0  0  0
  160.1810  211.8170  154.4220 N   0  0  0  0  0  1  0  0  0  0  0  0
  159.7060  201.8620  144.8470 C   0  0  0  0  0  2  0  0  0  0  0  0
  159.5280  203.1860  144.1190 C   0  0  0  0  0  2  0  0  0  0  0  0
  158.2020  203.6080  144.2280 O   0  0  0  0  0  1  0  0  0  0  0  0
  161.7030  208.9990  147.7770 C   0  0  0  0  0  2  0  0  0  0  0  0
  161.1380  210.4080  147.9020 C   0  0  0  0  0  2  0  0  0  0  0  0
  161.8930  211.2270  148.9410 C   0  0  1  0  0  3  0  0  0  0  0  0
  162.9170  211.9490  148.3230 O   0  0  0  0  0  1  0  0  0  0  0  0
  158.8260  213.5440  149.4560 C   0  0  0  0  0  0  0  0  0  0  0  0
  159.8020  212.6340  148.9360 N   0  0  0  0  0  2  0  0  0  0  0  0
  158.8930  213.9490  150.6460 O   0  0  0  0  0  0  0  0  0  0  0  0
  161.1500  212.4760  150.8430 O   0  0  0  0  0  0  0  0  0  0  0  0
  160.9440  212.1430  149.6450 C   0  0  0  0  0  0  0  0  0  0  0  0
  157.7990  214.0120  148.6420 O   0  0  0  0  0  0  0  0  0  0  0  0
  158.0390  214.4270  147.3040 C   0  0  0  0  0  2  0  0  0  0  0  0
  157.5570  213.3630  146.3400 C   0  0  0  0  0  2  0  0  0  0  0  0
  157.1900  212.2180  147.0460 O   0  0  0  0  0  1  0  0  0  0  0  0
  1 13  2  0  0  0  0
  2 14  1  0  0  0  0
  3 12  1  1  0  0  0
  3 26  1  0  0  0  0
  4  2  2  0  0  0  0
  5 21  1  0  0  0  0
  7 32  1  6  0  0  0
  7 16  1  0  0  0  0
  7 15  1  0  0  0  0
  8 21  1  1  0  0  0
  8 12  1  0  0  0  0
  9  2  1  6  0  0  0
  9  8  1  0  0  0  0
 10  1  1  0  0  0  0
 10 11  2  0  0  0  0
 11  6  1  0  0  0  0
 13  9  1  0  0  0  0
 13 20  1  0  0  0  0
 14  5  2  0  0  0  0
 15 18  2  0  0  0  0
 17 16  1  6  0  0  0
 17 18  1  0  0  0  0
 17  4  1  0  0  0  0
 18 19  1  0  0  0  0
 19 14  1  0  0  0  0
 20  6  1  6  0  0  0
 20  3  1  0  0  0  0
 23 24  1  0  0  0  0
 24 22  1  0  0  0  0
 24 29  1  0  0  0  0
 25 22  1  0  0  0  0
 26 23  1  6  0  0  0
 26 25  1  0  0  0  0
 29 28  2  0  0  0  0
 29 27  2  0  0  0  0
 30 29  1  0  0  0  0
 31 30  1  0  0  0  0
 33 34  1  0  0  0  0
 33 32  1  0  0  0  0
 35 36  1  0  0  0  0
 35 10  1  0  0  0  0
 36 37  1  0  0  0  0
 37 38  1  6  0  0  0
 37 43  1  0  0  0  0
 39 41  2  0  0  0  0
 40 39  1  0  0  0  0
 40 43  1  0  0  0  0
 43 42  2  0  0  0  0
 44 39  1  0  0  0  0
 45 44  1  0  0  0  0
 46 47  1  0  0  0  0
 46 45  1  0  0  0  0
M  END
>  <MODEL>
9

>  <REMARK>
 VINA RESULT:      -4.3      2.905      3.391
  Name = 
  12 active torsions:
  status: ('A' for Active; 'I' for Inactive)
    1  A    between atoms: C_1  and  O_14
    2  A    between atoms: C_4  and  C_28
    3  A    between atoms: C_4  and  C_35
    4  A    between atoms: C_6  and  C_39
    5  A    between atoms: C_8  and  C_30
    6  A    between atoms: C_12  and  C_16
    7  A    between atoms: O_14  and  C_30
    8  A    between atoms: C_16  and  C_19
    9  A    between atoms: C_23  and  C_33
   10  A    between atoms: C_28  and  C_33
   11  A    between atoms: N_31  and  S_32
   12  A    between atoms: S_32  and  C_43
                            x       y       z     vdW  Elec       q    Type
                         _______ _______ _______ _____ _____    ______ ____

>  <TORSDO>
F 12

$$$$
