=
 OpenBabel11042421583D

 39 43  0  0  1  0  0  0  0  0999 V2000
  162.2250  209.4250  151.1380 C   0  0  0  0  0  0  0  0  0  0  0  0
  162.3910  208.0490  150.8510 C   0  0  0  0  0  0  0  0  0  0  0  0
  161.9870  208.4980  148.4940 C   0  0  0  0  0  3  0  0  0  0  0  0
  161.9600  210.3130  150.0880 C   0  0  0  0  0  3  0  0  0  0  0  0
  162.2600  207.5990  149.5270 C   0  0  0  0  0  3  0  0  0  0  0  0
  161.8430  209.8560  148.7730 C   0  0  0  0  0  3  0  0  0  0  0  0
  163.3350  210.5430  152.9290 O   0  0  0  0  0  0  0  0  0  0  0  0
  162.2960  209.9610  152.5180 C   0  0  0  0  0  0  0  0  0  0  0  0
  161.1870  209.8100  153.4020 N   0  0  0  0  0  2  0  0  0  0  0  0
  160.5390  211.3750  155.2500 C   0  0  0  0  0  0  0  0  0  0  0  0
  158.8410  214.4530  152.7050 C   0  0  0  0  0  2  0  0  0  0  0  0
  161.2580  210.2440  154.7330 N   0  0  0  0  0  2  0  0  0  0  0  0
  159.7610  212.2630  154.4160 N   0  0  0  0  0  0  0  0  0  0  0  0
  159.7080  213.2950  152.1970 C   0  0  1  0  0  3  0  0  0  0  0  0
  159.2150  213.4870  155.0200 C   0  0  0  0  0  2  0  0  0  0  0  0
  158.2340  214.1980  154.0880 C   0  0  0  0  0  2  0  0  0  0  0  0
  159.5440  211.9930  152.9930 C   0  0  2  0  0  3  0  0  0  0  0  0
  160.6320  211.6190  156.4830 O   0  0  0  0  0  0  0  0  0  0  0  0
  159.5180  213.0920  150.8300 O   0  0  0  0  0  1  0  0  0  0  0  0
  157.5650  211.0980  154.0120 O   0  0  0  0  0  1  0  0  0  0  0  0
  158.1840  211.3270  152.7830 C   0  0  0  0  0  2  0  0  0  0  0  0
  162.7020  207.1510  151.8800 O   0  0  0  0  0  0  0  0  0  0  0  0
  161.0650  205.7880  153.0760 C   0  0  0  0  0  2  0  0  0  0  0  0
  162.1240  205.8560  152.0060 C   0  0  1  0  0  0  0  0  0  0  0  0
  160.6730  205.6810  151.6020 C   0  0  1  0  0  3  0  0  0  0  0  0
  162.9830  204.7520  152.0160 O   0  0  0  0  0  1  0  0  0  0  0  0
  160.8340  203.7140  150.0230 C   0  0  0  0  0  0  0  0  0  0  0  0
  161.4530  204.3380  146.5750 C   0  0  0  0  0  0  0  0  0  0  0  0
  160.4010  204.2940  151.2530 N   0  0  0  0  0  2  0  0  0  0  0  0
  161.6710  205.7060  146.4790 O   0  0  0  0  0  1  0  0  0  0  0  0
  161.5800  203.6300  147.8900 C   0  0  2  0  0  3  0  0  0  0  0  0
  160.5780  201.9720  149.6700 S   0  0  0  0  0  0  0  0  0  0  0  0
  161.0290  201.4720  146.9090 C   0  0  0  0  0  2  0  0  0  0  0  0
  160.5910  202.4960  147.9380 C   0  0  2  0  0  3  0  0  0  0  0  0
  161.3000  204.4360  149.0560 N   0  0  0  0  0  0  0  0  0  0  0  0
  161.2040  203.6170  145.4710 C   0  0  0  0  0  3  0  0  0  0  0  0
  160.9610  202.1090  145.5000 C   0  0  2  0  0  3  0  0  0  0  0  0
  159.7450  200.4370  144.6900 C   0  0  0  0  0  1  0  0  0  0  0  0
  159.7270  201.8160  144.9130 O   0  0  0  0  0  0  0  0  0  0  0  0
  1  8  1  0  0  0  0
  2  1  1  0  0  0  0
  2 22  1  0  0  0  0
  3  6  2  0  0  0  0
  3  5  1  0  0  0  0
  4  1  2  0  0  0  0
  5  2  2  0  0  0  0
  6  4  1  0  0  0  0
  8  7  2  0  0  0  0
  8  9  1  0  0  0  0
  9 12  1  0  0  0  0
 10 18  2  0  0  0  0
 11 16  1  0  0  0  0
 12 10  1  0  0  0  0
 13 15  1  0  0  0  0
 13 10  1  0  0  0  0
 14 19  1  6  0  0  0
 14 11  1  0  0  0  0
 14 17  1  0  0  0  0
 16 15  1  0  0  0  0
 17 21  1  1  0  0  0
 17 13  1  0  0  0  0
 21 20  1  0  0  0  0
 22 24  1  0  0  0  0
 24 26  1  6  0  0  0
 24 23  1  0  0  0  0
 25 29  1  1  0  0  0
 25 24  1  0  0  0  0
 25 23  1  0  0  0  0
 27 29  1  0  0  0  0
 30 28  1  0  0  0  0
 31 28  1  6  0  0  0
 31 34  1  0  0  0  0
 31 35  1  0  0  0  0
 32 27  1  0  0  0  0
 34 33  1  6  0  0  0
 34 32  1  0  0  0  0
 35 27  2  0  0  0  0
 36 37  1  0  0  0  0
 36 28  2  0  0  0  0
 37 39  1  1  0  0  0
 37 33  1  0  0  0  0
 38 39  1  0  0  0  0
M  END
>  <MODEL>
1

>  <REMARK>
 VINA RESULT:      -7.1      0.000      0.000
  Name = 
  7 active torsions:
  status: ('A' for Active; 'I' for Inactive)
    1  A    between atoms: N_3  and  C_19
    2  A    between atoms: C_5  and  C_9
    3  A    between atoms: O_8  and  C_13
    4  A    between atoms: O_8  and  C_15
    5  A    between atoms: N_12  and  N_26
    6  A    between atoms: C_31  and  C_33
    7  A    between atoms: C_38  and  O_39
                            x       y       z     vdW  Elec       q    Type
                         _______ _______ _______ _____ _____    ______ ____

>  <TORSDO>
F 7

$$$$
=
 OpenBabel11042421583D

 39 43  0  0  1  0  0  0  0  0999 V2000
  161.3290  210.4190  151.3440 C   0  0  0  0  0  0  0  0  0  0  0  0
  161.6710  209.3200  152.1670 C   0  0  0  0  0  0  0  0  0  0  0  0
  160.4620  210.3370  154.0180 C   0  0  0  0  0  3  0  0  0  0  0  0
  160.5420  211.4490  151.8750 C   0  0  0  0  0  3  0  0  0  0  0  0
  161.2390  209.2980  153.5040 C   0  0  0  0  0  3  0  0  0  0  0  0
  160.1070  211.4110  153.2020 C   0  0  0  0  0  3  0  0  0  0  0  0
  162.3360  209.5550  149.3620 O   0  0  0  0  0  0  0  0  0  0  0  0
  161.7960  210.5340  149.9430 C   0  0  0  0  0  0  0  0  0  0  0  0
  161.6480  211.7660  149.2380 N   0  0  0  0  0  2  0  0  0  0  0  0
  161.4630  212.6280  146.8910 C   0  0  0  0  0  0  0  0  0  0  0  0
  157.2200  213.5280  147.0390 C   0  0  0  0  0  2  0  0  0  0  0  0
  162.1470  211.9200  147.9370 N   0  0  0  0  0  2  0  0  0  0  0  0
  160.1230  213.1500  147.0390 N   0  0  0  0  0  0  0  0  0  0  0  0
  157.9580  212.6800  148.0810 C   0  0  1  0  0  3  0  0  0  0  0  0
  159.4530  213.6980  145.8500 C   0  0  0  0  0  2  0  0  0  0  0  0
  158.1500  214.4130  146.2040 C   0  0  0  0  0  2  0  0  0  0  0  0
  159.4140  213.1060  148.3190 C   0  0  2  0  0  3  0  0  0  0  0  0
  162.0520  212.7580  145.7840 O   0  0  0  0  0  0  0  0  0  0  0  0
  157.2380  212.6150  149.2740 O   0  0  0  0  0  1  0  0  0  0  0  0
  160.0290  214.2630  150.3290 O   0  0  0  0  0  1  0  0  0  0  0  0
  159.5360  214.4510  149.0380 C   0  0  0  0  0  2  0  0  0  0  0  0
  162.4190  208.2580  151.6440 O   0  0  0  0  0  0  0  0  0  0  0  0
  160.8470  206.6800  152.6470 C   0  0  0  0  0  2  0  0  0  0  0  0
  162.0420  206.8900  151.7530 C   0  0  1  0  0  0  0  0  0  0  0  0
  160.7230  206.4640  151.1380 C   0  0  1  0  0  3  0  0  0  0  0  0
  163.0520  205.9440  151.9600 O   0  0  0  0  0  1  0  0  0  0  0  0
  161.1050  204.5370  149.5480 C   0  0  0  0  0  0  0  0  0  0  0  0
  161.0420  205.1730  146.0470 C   0  0  0  0  0  0  0  0  0  0  0  0
  160.7360  205.0410  150.8310 N   0  0  0  0  0  2  0  0  0  0  0  0
  160.9160  206.5500  145.9230 O   0  0  0  0  0  1  0  0  0  0  0  0
  161.5240  204.5580  147.3260 C   0  0  2  0  0  3  0  0  0  0  0  0
  161.2150  202.7730  149.2330 S   0  0  0  0  0  0  0  0  0  0  0  0
  161.3560  202.3000  146.4340 C   0  0  0  0  0  2  0  0  0  0  0  0
  160.8480  203.2280  147.5200 C   0  0  2  0  0  3  0  0  0  0  0  0
  161.2400  205.3140  148.5230 N   0  0  0  0  0  0  0  0  0  0  0  0
  160.8080  204.3780  144.9920 C   0  0  0  0  0  3  0  0  0  0  0  0
  160.9330  202.8570  145.0540 C   0  0  2  0  0  3  0  0  0  0  0  0
  159.8610  200.9120  144.9810 C   0  0  0  0  0  1  0  0  0  0  0  0
  159.7280  202.2650  144.6600 O   0  0  0  0  0  0  0  0  0  0  0  0
  1  4  2  0  0  0  0
  1  2  1  0  0  0  0
  2  5  2  0  0  0  0
  4  6  1  0  0  0  0
  5  3  1  0  0  0  0
  6  3  2  0  0  0  0
  7  8  2  0  0  0  0
  8  1  1  0  0  0  0
  9  8  1  0  0  0  0
 10 13  1  0  0  0  0
 10 12  1  0  0  0  0
 11 14  1  0  0  0  0
 12  9  1  0  0  0  0
 13 17  1  0  0  0  0
 14 17  1  0  0  0  0
 14 19  1  1  0  0  0
 15 16  1  0  0  0  0
 15 13  1  0  0  0  0
 16 11  1  0  0  0  0
 17 21  1  6  0  0  0
 18 10  2  0  0  0  0
 21 20  1  0  0  0  0
 22 24  1  0  0  0  0
 22  2  1  0  0  0  0
 24 26  1  1  0  0  0
 24 23  1  0  0  0  0
 25 29  1  1  0  0  0
 25 24  1  0  0  0  0
 25 23  1  0  0  0  0
 27 29  1  0  0  0  0
 30 28  1  0  0  0  0
 31 28  1  6  0  0  0
 31 34  1  0  0  0  0
 31 35  1  0  0  0  0
 32 27  1  0  0  0  0
 34 33  1  6  0  0  0
 34 32  1  0  0  0  0
 35 27  2  0  0  0  0
 36 37  1  0  0  0  0
 36 28  2  0  0  0  0
 37 39  1  1  0  0  0
 37 33  1  0  0  0  0
 39 38  1  0  0  0  0
M  END
>  <MODEL>
2

>  <REMARK>
 VINA RESULT:      -7.0      3.003      4.351
  Name = 
  7 active torsions:
  status: ('A' for Active; 'I' for Inactive)
    1  A    between atoms: N_3  and  C_19
    2  A    between atoms: C_5  and  C_9
    3  A    between atoms: O_8  and  C_13
    4  A    between atoms: O_8  and  C_15
    5  A    between atoms: N_12  and  N_26
    6  A    between atoms: C_31  and  C_33
    7  A    between atoms: C_38  and  O_39
                            x       y       z     vdW  Elec       q    Type
                         _______ _______ _______ _____ _____    ______ ____

>  <TORSDO>
F 7

$$$$
=
 OpenBabel11042421583D

 39 43  0  0  1  0  0  0  0  0999 V2000
  158.8540  213.2990  151.0600 C   0  0  0  0  0  0  0  0  0  0  0  0
  159.4600  213.5470  149.8060 C   0  0  0  0  0  0  0  0  0  0  0  0
  157.3500  214.4260  148.9690 C   0  0  0  0  0  3  0  0  0  0  0  0
  157.5080  213.6380  151.2470 C   0  0  0  0  0  3  0  0  0  0  0  0
  158.6930  214.1020  148.7670 C   0  0  0  0  0  3  0  0  0  0  0  0
  156.7590  214.2010  150.2100 C   0  0  0  0  0  3  0  0  0  0  0  0
  160.3150  211.6570  151.9870 O   0  0  0  0  0  0  0  0  0  0  0  0
  159.5870  212.6660  152.1820 C   0  0  0  0  0  0  0  0  0  0  0  0
  159.4640  213.1920  153.5030 N   0  0  0  0  0  2  0  0  0  0  0  0
  159.3910  212.0470  155.7330 C   0  0  0  0  0  0  0  0  0  0  0  0
  155.3330  213.2120  156.7410 C   0  0  0  0  0  2  0  0  0  0  0  0
  160.0900  212.5670  154.5910 N   0  0  0  0  0  2  0  0  0  0  0  0
  157.9710  212.2300  155.9370 N   0  0  0  0  0  0  0  0  0  0  0  0
  156.1490  213.8280  155.5980 C   0  0  1  0  0  3  0  0  0  0  0  0
  157.3930  211.8130  157.2230 C   0  0  0  0  0  2  0  0  0  0  0  0
  155.8650  211.8520  157.2050 C   0  0  0  0  0  2  0  0  0  0  0  0
  157.1180  212.8490  154.9210 C   0  0  2  0  0  3  0  0  0  0  0  0
  160.0630  211.4430  156.6110 O   0  0  0  0  0  0  0  0  0  0  0  0
  155.3150  214.4530  154.6710 O   0  0  0  0  0  1  0  0  0  0  0  0
  157.2210  210.6450  153.9800 O   0  0  0  0  0  1  0  0  0  0  0  0
  156.4090  211.7730  154.0990 C   0  0  0  0  0  2  0  0  0  0  0  0
  160.8160  213.2570  149.6120 O   0  0  0  0  0  0  0  0  0  0  0  0
  162.7500  212.3600  148.4200 C   0  0  0  0  0  2  0  0  0  0  0  0
  161.2930  212.2100  148.7740 C   0  0  1  0  0  0  0  0  0  0  0  0
  162.3000  211.2360  149.3540 C   0  0  1  0  0  3  0  0  0  0  0  0
  160.5030  211.8280  147.6840 O   0  0  0  0  0  1  0  0  0  0  0  0
  161.6710  208.7940  149.1870 C   0  0  0  0  0  0  0  0  0  0  0  0
  161.0640  206.9780  152.1860 C   0  0  0  0  0  0  0  0  0  0  0  0
  162.2630  209.9700  148.6360 N   0  0  0  0  0  2  0  0  0  0  0  0
  161.1330  207.9150  153.2080 O   0  0  0  0  0  1  0  0  0  0  0  0
  160.8430  207.4030  150.7660 C   0  0  2  0  0  3  0  0  0  0  0  0
  161.5440  207.2770  148.2340 S   0  0  0  0  0  0  0  0  0  0  0  0
  160.8930  205.1100  149.9530 C   0  0  0  0  0  2  0  0  0  0  0  0
  161.5740  206.4610  149.8480 C   0  0  2  0  0  3  0  0  0  0  0  0
  161.3300  208.7220  150.4320 N   0  0  0  0  0  0  0  0  0  0  0  0
  161.1150  205.6670  152.4710 C   0  0  0  0  0  3  0  0  0  0  0  0
  161.0380  204.5810  151.4000 C   0  0  2  0  0  3  0  0  0  0  0  0
  161.6530  202.4630  151.6660 C   0  0  0  0  0  1  0  0  0  0  0  0
  162.1610  203.7510  151.4840 O   0  0  0  0  0  0  0  0  0  0  0  0
  1  4  1  0  0  0  0
  1  8  1  0  0  0  0
  2  1  2  0  0  0  0
  3  6  1  0  0  0  0
  5  3  2  0  0  0  0
  5  2  1  0  0  0  0
  6  4  2  0  0  0  0
  7  8  2  0  0  0  0
  8  9  1  0  0  0  0
  9 12  1  0  0  0  0
 10 13  1  0  0  0  0
 10 18  2  0  0  0  0
 11 16  1  0  0  0  0
 12 10  1  0  0  0  0
 13 15  1  0  0  0  0
 14 19  1  6  0  0  0
 14 11  1  0  0  0  0
 16 15  1  0  0  0  0
 17 21  1  1  0  0  0
 17 14  1  0  0  0  0
 17 13  1  0  0  0  0
 20 21  1  0  0  0  0
 22  2  1  0  0  0  0
 23 24  1  0  0  0  0
 23 25  1  0  0  0  0
 24 26  1  6  0  0  0
 24 25  1  0  0  0  0
 24 22  1  0  0  0  0
 25 29  1  6  0  0  0
 27 35  2  0  0  0  0
 28 36  2  0  0  0  0
 28 30  1  0  0  0  0
 29 27  1  0  0  0  0
 31 35  1  1  0  0  0
 31 28  1  0  0  0  0
 32 27  1  0  0  0  0
 32 34  1  0  0  0  0
 33 37  1  0  0  0  0
 34 33  1  6  0  0  0
 34 31  1  0  0  0  0
 37 39  1  6  0  0  0
 37 36  1  0  0  0  0
 39 38  1  0  0  0  0
M  END
>  <MODEL>
3

>  <REMARK>
 VINA RESULT:      -6.6      3.179      5.564
  Name = 
  7 active torsions:
  status: ('A' for Active; 'I' for Inactive)
    1  A    between atoms: N_3  and  C_19
    2  A    between atoms: C_5  and  C_9
    3  A    between atoms: O_8  and  C_13
    4  A    between atoms: O_8  and  C_15
    5  A    between atoms: N_12  and  N_26
    6  A    between atoms: C_31  and  C_33
    7  A    between atoms: C_38  and  O_39
                            x       y       z     vdW  Elec       q    Type
                         _______ _______ _______ _____ _____    ______ ____

>  <TORSDO>
F 7

$$$$
=
 OpenBabel11042421583D

 39 43  0  0  1  0  0  0  0  0999 V2000
  160.7970  209.1070  154.9460 C   0  0  0  0  0  0  0  0  0  0  0  0
  161.2050  207.7540  154.8610 C   0  0  0  0  0  0  0  0  0  0  0  0
  160.5550  207.4190  157.1820 C   0  0  0  0  0  3  0  0  0  0  0  0
  160.2580  209.5830  156.1480 C   0  0  0  0  0  3  0  0  0  0  0  0
  161.0870  206.9260  155.9890 C   0  0  0  0  0  3  0  0  0  0  0  0
  160.1340  208.7460  157.2600 C   0  0  0  0  0  3  0  0  0  0  0  0
  162.0740  210.5070  153.4970 O   0  0  0  0  0  0  0  0  0  0  0  0
  160.9430  210.0510  153.8130 C   0  0  0  0  0  0  0  0  0  0  0  0
  159.7950  210.4630  153.0720 N   0  0  0  0  0  2  0  0  0  0  0  0
  159.1240  212.6170  151.9790 C   0  0  0  0  0  0  0  0  0  0  0  0
  155.4740  213.1970  154.2530 C   0  0  0  0  0  2  0  0  0  0  0  0
  159.9000  211.4100  152.0430 N   0  0  0  0  0  2  0  0  0  0  0  0
  158.0590  212.9200  152.9080 N   0  0  0  0  0  0  0  0  0  0  0  0
  156.2640  211.8840  154.2110 C   0  0  1  0  0  3  0  0  0  0  0  0
  157.2150  214.0940  152.6420 C   0  0  0  0  0  2  0  0  0  0  0  0
  156.2930  214.4160  153.8180 C   0  0  0  0  0  2  0  0  0  0  0  0
  157.7810  212.0700  154.0680 C   0  0  2  0  0  3  0  0  0  0  0  0
  159.3640  213.4220  151.0390 O   0  0  0  0  0  0  0  0  0  0  0  0
  155.9440  211.0740  155.3000 O   0  0  0  0  0  1  0  0  0  0  0  0
  159.7110  213.1320  155.0170 O   0  0  0  0  0  1  0  0  0  0  0  0
  158.4360  212.6540  155.3200 C   0  0  0  0  0  2  0  0  0  0  0  0
  161.7040  207.2470  153.6550 O   0  0  0  0  0  0  0  0  0  0  0  0
  160.5250  206.8820  151.5480 C   0  0  0  0  0  2  0  0  0  0  0  0
  161.0170  206.2980  152.8460 C   0  0  1  0  0  0  0  0  0  0  0  0
  161.6680  205.8670  151.5470 C   0  0  1  0  0  3  0  0  0  0  0  0
  160.0760  205.4670  153.4630 O   0  0  0  0  0  1  0  0  0  0  0  0
  161.4230  204.0230  149.8360 C   0  0  0  0  0  0  0  0  0  0  0  0
  161.8310  204.8220  146.3930 C   0  0  0  0  0  0  0  0  0  0  0  0
  161.1790  204.5580  151.1360 N   0  0  0  0  0  2  0  0  0  0  0  0
  162.2270  206.1520  146.3650 O   0  0  0  0  0  1  0  0  0  0  0  0
  161.9680  204.0050  147.6420 C   0  0  2  0  0  3  0  0  0  0  0  0
  160.9000  202.3620  149.3970 S   0  0  0  0  0  0  0  0  0  0  0  0
  161.0440  202.0200  146.5790 C   0  0  0  0  0  2  0  0  0  0  0  0
  160.8400  203.0110  147.7090 C   0  0  2  0  0  3  0  0  0  0  0  0
  161.9010  204.7480  148.8790 N   0  0  0  0  0  0  0  0  0  0  0  0
  161.3930  204.2270  145.2730 C   0  0  0  0  0  3  0  0  0  0  0  0
  160.9480  202.7660  145.2270 C   0  0  2  0  0  3  0  0  0  0  0  0
  159.2770  201.3430  144.8860 C   0  0  0  0  0  1  0  0  0  0  0  0
  159.6400  202.6840  144.7400 O   0  0  0  0  0  0  0  0  0  0  0  0
  1  4  1  0  0  0  0
  2  1  2  0  0  0  0
  2  5  1  0  0  0  0
  3  6  1  0  0  0  0
  4  6  2  0  0  0  0
  5  3  2  0  0  0  0
  7  8  2  0  0  0  0
  8  1  1  0  0  0  0
  9  8  1  0  0  0  0
 10 12  1  0  0  0  0
 10 13  1  0  0  0  0
 12  9  1  0  0  0  0
 13 17  1  0  0  0  0
 14 11  1  0  0  0  0
 14 19  1  1  0  0  0
 15 13  1  0  0  0  0
 15 16  1  0  0  0  0
 16 11  1  0  0  0  0
 17 14  1  0  0  0  0
 17 21  1  1  0  0  0
 18 10  2  0  0  0  0
 20 21  1  0  0  0  0
 22  2  1  0  0  0  0
 23 24  1  0  0  0  0
 24 26  1  1  0  0  0
 24 22  1  0  0  0  0
 25 29  1  6  0  0  0
 25 23  1  0  0  0  0
 25 24  1  0  0  0  0
 27 29  1  0  0  0  0
 30 28  1  0  0  0  0
 31 28  1  6  0  0  0
 31 34  1  0  0  0  0
 31 35  1  0  0  0  0
 32 27  1  0  0  0  0
 34 33  1  6  0  0  0
 34 32  1  0  0  0  0
 35 27  2  0  0  0  0
 36 28  2  0  0  0  0
 37 39  1  1  0  0  0
 37 36  1  0  0  0  0
 37 33  1  0  0  0  0
 39 38  1  0  0  0  0
M  END
>  <MODEL>
4

>  <REMARK>
 VINA RESULT:      -6.3      1.870      3.511
  Name = 
  7 active torsions:
  status: ('A' for Active; 'I' for Inactive)
    1  A    between atoms: N_3  and  C_19
    2  A    between atoms: C_5  and  C_9
    3  A    between atoms: O_8  and  C_13
    4  A    between atoms: O_8  and  C_15
    5  A    between atoms: N_12  and  N_26
    6  A    between atoms: C_31  and  C_33
    7  A    between atoms: C_38  and  O_39
                            x       y       z     vdW  Elec       q    Type
                         _______ _______ _______ _____ _____    ______ ____

>  <TORSDO>
F 7

$$$$
=
 OpenBabel11042421583D

 39 43  0  0  1  0  0  0  0  0999 V2000
  161.7990  208.9270  149.9440 C   0  0  0  0  0  0  0  0  0  0  0  0
  161.9750  210.3280  150.0410 C   0  0  0  0  0  0  0  0  0  0  0  0
  161.4140  210.2270  152.4080 C   0  0  0  0  0  3  0  0  0  0  0  0
  161.4500  208.2020  151.0910 C   0  0  0  0  0  3  0  0  0  0  0  0
  161.7700  210.9650  151.2770 C   0  0  0  0  0  3  0  0  0  0  0  0
  161.2610  208.8450  152.3170 C   0  0  0  0  0  3  0  0  0  0  0  0
  161.4330  208.6490  147.6030 O   0  0  0  0  0  0  0  0  0  0  0  0
  161.9450  208.1980  148.6620 C   0  0  0  0  0  0  0  0  0  0  0  0
  162.6600  206.9640  148.6190 N   0  0  0  0  0  2  0  0  0  0  0  0
  162.1910  204.9090  147.2610 C   0  0  0  0  0  0  0  0  0  0  0  0
  161.0640  202.3720  150.5970 C   0  0  0  0  0  2  0  0  0  0  0  0
  162.7500  206.2210  147.4330 N   0  0  0  0  0  2  0  0  0  0  0  0
  161.5850  204.1630  148.3410 N   0  0  0  0  0  0  0  0  0  0  0  0
  161.7650  203.7280  150.7430 C   0  0  1  0  0  3  0  0  0  0  0  0
  161.2080  202.7630  148.0960 C   0  0  0  0  0  2  0  0  0  0  0  0
  160.3780  202.1830  149.2400 C   0  0  0  0  0  2  0  0  0  0  0  0
  161.3800  204.7520  149.6660 C   0  0  2  0  0  3  0  0  0  0  0  0
  162.2770  204.3770  146.1220 O   0  0  0  0  0  0  0  0  0  0  0  0
  161.5940  204.2420  152.0280 O   0  0  0  0  0  1  0  0  0  0  0  0
  159.6610  206.1850  148.8000 O   0  0  0  0  0  1  0  0  0  0  0  0
  159.9430  205.2570  149.8030 C   0  0  0  0  0  2  0  0  0  0  0  0
  162.3660  211.0650  148.9180 O   0  0  0  0  0  0  0  0  0  0  0  0
  162.5170  213.3560  148.0830 C   0  0  0  0  0  2  0  0  0  0  0  0
  161.6380  212.1740  148.4000 C   0  0  1  0  0  0  0  0  0  0  0  0
  161.8650  212.5610  146.9520 C   0  0  1  0  0  3  0  0  0  0  0  0
  160.4470  212.5340  149.0390 O   0  0  0  0  0  1  0  0  0  0  0  0
  160.1670  213.0180  145.1370 C   0  0  0  0  0  0  0  0  0  0  0  0
  160.9290  212.0400  141.8010 C   0  0  0  0  0  0  0  0  0  0  0  0
  160.7150  213.2830  146.4270 N   0  0  0  0  0  2  0  0  0  0  0  0
  162.1310  211.3520  141.8810 O   0  0  0  0  0  1  0  0  0  0  0  0
  160.0740  212.2390  143.0160 C   0  0  2  0  0  3  0  0  0  0  0  0
  158.6830  213.8500  144.5620 S   0  0  0  0  0  0  0  0  0  0  0  0
  158.3810  213.4600  141.7630 C   0  0  0  0  0  2  0  0  0  0  0  0
  159.3660  213.5630  142.9110 C   0  0  2  0  0  3  0  0  0  0  0  0
  160.7840  212.2790  144.2730 N   0  0  0  0  0  0  0  0  0  0  0  0
  160.4770  212.4690  140.6120 C   0  0  0  0  0  3  0  0  0  0  0  0
  159.1610  213.2260  140.4470 C   0  0  2  0  0  3  0  0  0  0  0  0
  159.9810  214.1310  138.5920 C   0  0  0  0  0  1  0  0  0  0  0  0
  159.3940  214.4520  139.8180 O   0  0  0  0  0  0  0  0  0  0  0  0
  1  2  2  0  0  0  0
  1  4  1  0  0  0  0
  2  5  1  0  0  0  0
  4  6  2  0  0  0  0
  5  3  2  0  0  0  0
  6  3  1  0  0  0  0
  7  8  2  0  0  0  0
  8  1  1  0  0  0  0
  9  8  1  0  0  0  0
 10 12  1  0  0  0  0
 10 13  1  0  0  0  0
 11 14  1  0  0  0  0
 12  9  1  0  0  0  0
 13 17  1  0  0  0  0
 14 19  1  1  0  0  0
 15 13  1  0  0  0  0
 15 16  1  0  0  0  0
 16 11  1  0  0  0  0
 17 21  1  1  0  0  0
 17 14  1  0  0  0  0
 18 10  2  0  0  0  0
 20 21  1  0  0  0  0
 22  2  1  0  0  0  0
 23 24  1  0  0  0  0
 24 22  1  0  0  0  0
 24 26  1  1  0  0  0
 25 29  1  1  0  0  0
 25 23  1  0  0  0  0
 25 24  1  0  0  0  0
 27 29  1  0  0  0  0
 28 30  1  0  0  0  0
 31 28  1  6  0  0  0
 31 35  1  0  0  0  0
 32 27  1  0  0  0  0
 34 33  1  6  0  0  0
 34 31  1  0  0  0  0
 34 32  1  0  0  0  0
 35 27  2  0  0  0  0
 36 28  2  0  0  0  0
 37 39  1  1  0  0  0
 37 36  1  0  0  0  0
 37 33  1  0  0  0  0
 38 39  1  0  0  0  0
M  END
>  <MODEL>
5

>  <REMARK>
 VINA RESULT:      -6.2      5.412      9.405
  Name = 
  7 active torsions:
  status: ('A' for Active; 'I' for Inactive)
    1  A    between atoms: N_3  and  C_19
    2  A    between atoms: C_5  and  C_9
    3  A    between atoms: O_8  and  C_13
    4  A    between atoms: O_8  and  C_15
    5  A    between atoms: N_12  and  N_26
    6  A    between atoms: C_31  and  C_33
    7  A    between atoms: C_38  and  O_39
                            x       y       z     vdW  Elec       q    Type
                         _______ _______ _______ _____ _____    ______ ____

>  <TORSDO>
F 7

$$$$
=
 OpenBabel11042421583D

 39 43  0  0  1  0  0  0  0  0999 V2000
  160.8250  208.8900  152.9230 C   0  0  0  0  0  0  0  0  0  0  0  0
  161.6280  207.9860  152.1880 C   0  0  0  0  0  0  0  0  0  0  0  0
  161.1970  206.2620  153.8510 C   0  0  0  0  0  3  0  0  0  0  0  0
  160.2090  208.4520  154.1020 C   0  0  0  0  0  3  0  0  0  0  0  0
  161.8130  206.6790  152.6690 C   0  0  0  0  0  3  0  0  0  0  0  0
  160.3900  207.1460  154.5650 C   0  0  0  0  0  3  0  0  0  0  0  0
  161.5390  210.9170  151.8880 O   0  0  0  0  0  0  0  0  0  0  0  0
  160.6300  210.2980  152.5030 C   0  0  0  0  0  0  0  0  0  0  0  0
  159.4100  210.9730  152.8040 N   0  0  0  0  0  2  0  0  0  0  0  0
  158.4560  213.2450  153.2650 C   0  0  0  0  0  0  0  0  0  0  0  0
  155.5250  211.9540  156.1950 C   0  0  0  0  0  2  0  0  0  0  0  0
  159.2320  212.3250  152.4810 N   0  0  0  0  0  2  0  0  0  0  0  0
  157.6690  212.8370  154.4080 N   0  0  0  0  0  0  0  0  0  0  0  0
  156.2890  211.0060  155.2630 C   0  0  1  0  0  3  0  0  0  0  0  0
  156.7740  213.8260  155.0270 C   0  0  0  0  0  2  0  0  0  0  0  0
  156.1900  213.3250  156.3470 C   0  0  0  0  0  2  0  0  0  0  0  0
  157.7130  211.4690  154.9270 C   0  0  2  0  0  3  0  0  0  0  0  0
  158.4330  214.4530  152.9070 O   0  0  0  0  0  0  0  0  0  0  0  0
  156.2730  209.7010  155.7570 O   0  0  0  0  0  1  0  0  0  0  0  0
  159.8730  212.0220  155.8140 O   0  0  0  0  0  1  0  0  0  0  0  0
  158.6690  211.3870  156.1190 C   0  0  0  0  0  2  0  0  0  0  0  0
  162.2160  208.3900  150.9830 O   0  0  0  0  0  0  0  0  0  0  0  0
  161.9870  208.9990  148.6290 C   0  0  0  0  0  2  0  0  0  0  0  0
  161.7750  207.9600  149.6990 C   0  0  1  0  0  0  0  0  0  0  0  0
  162.8230  207.7190  148.6310 C   0  0  1  0  0  3  0  0  0  0  0  0
  160.5300  207.3280  149.6090 O   0  0  0  0  0  1  0  0  0  0  0  0
  161.6470  205.5850  147.9640 C   0  0  0  0  0  0  0  0  0  0  0  0
  161.4270  202.9430  150.3380 C   0  0  0  0  0  0  0  0  0  0  0  0
  162.3270  206.7930  147.6240 N   0  0  0  0  0  2  0  0  0  0  0  0
  161.9560  203.4550  151.5130 O   0  0  0  0  0  1  0  0  0  0  0  0
  160.9560  203.8540  149.2450 C   0  0  2  0  0  3  0  0  0  0  0  0
  160.9510  204.5170  146.6990 S   0  0  0  0  0  0  0  0  0  0  0  0
  160.2890  201.9930  147.8260 C   0  0  0  0  0  2  0  0  0  0  0  0
  161.2040  203.1990  147.9130 C   0  0  2  0  0  3  0  0  0  0  0  0
  161.6230  205.1340  149.1760 N   0  0  0  0  0  0  0  0  0  0  0  0
  161.2550  201.6190  150.1980 C   0  0  0  0  0  3  0  0  0  0  0  0
  160.6720  200.9850  148.9360 C   0  0  2  0  0  3  0  0  0  0  0  0
  161.3310  200.0230  147.0460 C   0  0  0  0  0  1  0  0  0  0  0  0
  161.5660  200.0410  148.4220 O   0  0  0  0  0  0  0  0  0  0  0  0
  1  4  1  0  0  0  0
  2  5  1  0  0  0  0
  2  1  2  0  0  0  0
  3  6  1  0  0  0  0
  4  6  2  0  0  0  0
  5  3  2  0  0  0  0
  7  8  2  0  0  0  0
  8  9  1  0  0  0  0
  8  1  1  0  0  0  0
 10 13  1  0  0  0  0
 11 16  1  0  0  0  0
 12  9  1  0  0  0  0
 12 10  1  0  0  0  0
 13 17  1  0  0  0  0
 13 15  1  0  0  0  0
 14 19  1  1  0  0  0
 14 11  1  0  0  0  0
 15 16  1  0  0  0  0
 17 14  1  0  0  0  0
 17 21  1  1  0  0  0
 18 10  2  0  0  0  0
 20 21  1  0  0  0  0
 22  2  1  0  0  0  0
 23 25  1  0  0  0  0
 23 24  1  0  0  0  0
 24 26  1  6  0  0  0
 24 22  1  0  0  0  0
 25 29  1  6  0  0  0
 25 24  1  0  0  0  0
 27 35  2  0  0  0  0
 28 30  1  0  0  0  0
 29 27  1  0  0  0  0
 31 35  1  6  0  0  0
 31 28  1  0  0  0  0
 32 34  1  0  0  0  0
 32 27  1  0  0  0  0
 33 37  1  0  0  0  0
 34 33  1  6  0  0  0
 34 31  1  0  0  0  0
 36 28  2  0  0  0  0
 37 39  1  6  0  0  0
 37 36  1  0  0  0  0
 38 39  1  0  0  0  0
M  END
>  <MODEL>
6

>  <REMARK>
 VINA RESULT:      -6.2      2.174      3.849
  Name = 
  7 active torsions:
  status: ('A' for Active; 'I' for Inactive)
    1  A    between atoms: N_3  and  C_19
    2  A    between atoms: C_5  and  C_9
    3  A    between atoms: O_8  and  C_13
    4  A    between atoms: O_8  and  C_15
    5  A    between atoms: N_12  and  N_26
    6  A    between atoms: C_31  and  C_33
    7  A    between atoms: C_38  and  O_39
                            x       y       z     vdW  Elec       q    Type
                         _______ _______ _______ _____ _____    ______ ____

>  <TORSDO>
F 7

$$$$
=
 OpenBabel11042421583D

 39 43  0  0  1  0  0  0  0  0999 V2000
  160.1950  209.3180  156.1420 C   0  0  0  0  0  0  0  0  0  0  0  0
  160.5490  209.1460  154.7830 C   0  0  0  0  0  0  0  0  0  0  0  0
  160.9320  206.7770  155.1890 C   0  0  0  0  0  3  0  0  0  0  0  0
  160.2010  208.2060  156.9950 C   0  0  0  0  0  3  0  0  0  0  0  0
  160.9240  207.8730  154.3240 C   0  0  0  0  0  3  0  0  0  0  0  0
  160.5650  206.9420  156.5240 C   0  0  0  0  0  3  0  0  0  0  0  0
  160.7200  211.3660  157.2470 O   0  0  0  0  0  0  0  0  0  0  0  0
  159.8420  210.6410  156.7080 C   0  0  0  0  0  0  0  0  0  0  0  0
  158.4930  211.1050  156.6560 N   0  0  0  0  0  2  0  0  0  0  0  0
  157.3640  213.3410  156.5810 C   0  0  0  0  0  0  0  0  0  0  0  0
  156.9440  213.5280  152.2660 C   0  0  0  0  0  2  0  0  0  0  0  0
  158.1230  212.3200  157.2480 N   0  0  0  0  0  2  0  0  0  0  0  0
  157.0100  213.2730  155.1810 N   0  0  0  0  0  0  0  0  0  0  0  0
  157.8360  212.5220  153.0030 C   0  0  1  0  0  3  0  0  0  0  0  0
  156.3890  214.4530  154.5610 C   0  0  0  0  0  2  0  0  0  0  0  0
  155.8660  214.1540  153.1560 C   0  0  0  0  0  2  0  0  0  0  0  0
  157.2910  212.0870  154.3710 C   0  0  2  0  0  3  0  0  0  0  0  0
  157.0320  214.3590  157.2470 O   0  0  0  0  0  0  0  0  0  0  0  0
  158.1280  211.4260  152.1910 O   0  0  0  0  0  1  0  0  0  0  0  0
  155.6270  210.8170  155.5420 O   0  0  0  0  0  1  0  0  0  0  0  0
  156.0440  211.2080  154.2690 C   0  0  0  0  0  2  0  0  0  0  0  0
  160.5060  210.2350  153.9050 O   0  0  0  0  0  0  0  0  0  0  0  0
  162.7830  210.3600  153.0270 C   0  0  0  0  0  2  0  0  0  0  0  0
  161.3050  210.3420  152.7310 C   0  0  1  0  0  0  0  0  0  0  0  0
  162.1540  209.1490  152.3360 C   0  0  1  0  0  3  0  0  0  0  0  0
  160.9310  211.2810  151.7640 O   0  0  0  0  0  1  0  0  0  0  0  0
  161.9010  208.2220  149.9990 C   0  0  0  0  0  0  0  0  0  0  0  0
  160.8620  204.8420  149.6050 C   0  0  0  0  0  0  0  0  0  0  0  0
  162.4460  209.1760  150.9100 N   0  0  0  0  0  2  0  0  0  0  0  0
  160.5730  204.3910  150.8860 O   0  0  0  0  0  1  0  0  0  0  0  0
  160.9190  206.3090  149.3010 C   0  0  2  0  0  3  0  0  0  0  0  0
  162.1920  208.3470  148.2310 S   0  0  0  0  0  0  0  0  0  0  0  0
  161.4490  205.9170  146.9580 C   0  0  0  0  0  2  0  0  0  0  0  0
  161.9560  206.5530  148.2380 C   0  0  2  0  0  3  0  0  0  0  0  0
  161.2950  207.1560  150.4090 N   0  0  0  0  0  0  0  0  0  0  0  0
  161.0140  203.9650  148.6010 C   0  0  0  0  0  3  0  0  0  0  0  0
  161.3260  204.3890  147.1670 C   0  0  2  0  0  3  0  0  0  0  0  0
  162.9130  204.4940  145.6170 C   0  0  0  0  0  1  0  0  0  0  0  0
  162.4960  203.7610  146.7300 O   0  0  0  0  0  0  0  0  0  0  0  0
  1  8  1  0  0  0  0
  1  4  1  0  0  0  0
  2  1  2  0  0  0  0
  3  6  1  0  0  0  0
  5  2  1  0  0  0  0
  5  3  2  0  0  0  0
  6  4  2  0  0  0  0
  8  7  2  0  0  0  0
  9  8  1  0  0  0  0
  9 12  1  0  0  0  0
 10 18  2  0  0  0  0
 10 12  1  0  0  0  0
 11 14  1  0  0  0  0
 11 16  1  0  0  0  0
 13 10  1  0  0  0  0
 14 19  1  6  0  0  0
 14 17  1  0  0  0  0
 15 13  1  0  0  0  0
 16 15  1  0  0  0  0
 17 21  1  6  0  0  0
 17 13  1  0  0  0  0
 21 20  1  0  0  0  0
 22  2  1  0  0  0  0
 24 26  1  6  0  0  0
 24 23  1  0  0  0  0
 24 22  1  0  0  0  0
 25 29  1  6  0  0  0
 25 24  1  0  0  0  0
 25 23  1  0  0  0  0
 27 35  2  0  0  0  0
 27 29  1  0  0  0  0
 28 30  1  0  0  0  0
 31 28  1  1  0  0  0
 31 35  1  0  0  0  0
 32 34  1  0  0  0  0
 32 27  1  0  0  0  0
 33 37  1  0  0  0  0
 34 33  1  6  0  0  0
 34 31  1  0  0  0  0
 36 28  2  0  0  0  0
 37 39  1  1  0  0  0
 37 36  1  0  0  0  0
 38 39  1  0  0  0  0
M  END
>  <MODEL>
7

>  <REMARK>
 VINA RESULT:      -6.0      2.585      4.545
  Name = 
  7 active torsions:
  status: ('A' for Active; 'I' for Inactive)
    1  A    between atoms: N_3  and  C_19
    2  A    between atoms: C_5  and  C_9
    3  A    between atoms: O_8  and  C_13
    4  A    between atoms: O_8  and  C_15
    5  A    between atoms: N_12  and  N_26
    6  A    between atoms: C_31  and  C_33
    7  A    between atoms: C_38  and  O_39
                            x       y       z     vdW  Elec       q    Type
                         _______ _______ _______ _____ _____    ______ ____

>  <TORSDO>
F 7

$$$$
=
 OpenBabel11042421583D

 39 43  0  0  1  0  0  0  0  0999 V2000
  161.2300  205.3980  150.6540 C   0  0  0  0  0  0  0  0  0  0  0  0
  161.6850  206.3350  151.6130 C   0  0  0  0  0  0  0  0  0  0  0  0
  161.2080  204.7410  153.3880 C   0  0  0  0  0  3  0  0  0  0  0  0
  160.7890  204.1400  151.0860 C   0  0  0  0  0  3  0  0  0  0  0  0
  161.6590  205.9960  152.9760 C   0  0  0  0  0  3  0  0  0  0  0  0
  160.7790  203.8100  152.4440 C   0  0  0  0  0  3  0  0  0  0  0  0
  160.6970  206.7970  148.7980 O   0  0  0  0  0  0  0  0  0  0  0  0
  161.1790  205.7080  149.2060 C   0  0  0  0  0  0  0  0  0  0  0  0
  161.6680  204.7630  148.2550 N   0  0  0  0  0  2  0  0  0  0  0  0
  161.1920  204.0070  145.9130 C   0  0  0  0  0  0  0  0  0  0  0  0
  161.3740  199.7490  146.7320 C   0  0  0  0  0  2  0  0  0  0  0  0
  161.5630  205.0030  146.8780 N   0  0  0  0  0  2  0  0  0  0  0  0
  161.0090  202.6130  146.2500 N   0  0  0  0  0  0  0  0  0  0  0  0
  161.8680  200.8340  147.6950 C   0  0  1  0  0  3  0  0  0  0  0  0
  160.8050  201.6520  145.1560 C   0  0  0  0  0  2  0  0  0  0  0  0
  160.4000  200.2720  145.6720 C   0  0  0  0  0  2  0  0  0  0  0  0
  161.0630  202.1400  147.6340 C   0  0  2  0  0  3  0  0  0  0  0  0
  161.0630  204.3680  144.7120 O   0  0  0  0  0  0  0  0  0  0  0  0
  161.9560  200.3430  148.9980 O   0  0  0  0  0  1  0  0  0  0  0  0
  159.6980  201.8620  149.5880 O   0  0  0  0  0  1  0  0  0  0  0  0
  159.6490  202.0020  148.2010 C   0  0  0  0  0  2  0  0  0  0  0  0
  162.1720  207.5800  151.1990 O   0  0  0  0  0  0  0  0  0  0  0  0
  160.5020  209.2380  151.8530 C   0  0  0  0  0  2  0  0  0  0  0  0
  161.9420  208.7980  151.9000 C   0  0  1  0  0  0  0  0  0  0  0  0
  161.1090  208.7430  153.1660 C   0  0  1  0  0  3  0  0  0  0  0  0
  162.8420  209.8510  151.7030 O   0  0  0  0  0  1  0  0  0  0  0  0
  160.4720  210.4120  154.9540 C   0  0  0  0  0  0  0  0  0  0  0  0
  157.0210  211.0700  155.5230 C   0  0  0  0  0  0  0  0  0  0  0  0
  161.4190  209.8710  154.0340 N   0  0  0  0  0  2  0  0  0  0  0  0
  156.3350  210.1790  154.7100 O   0  0  0  0  0  1  0  0  0  0  0  0
  158.4550  210.8300  155.8880 C   0  0  2  0  0  3  0  0  0  0  0  0
  160.9180  211.7320  156.0870 S   0  0  0  0  0  0  0  0  0  0  0  0
  158.5710  212.8590  157.2270 C   0  0  0  0  0  2  0  0  0  0  0  0
  159.1590  212.1530  156.0200 C   0  0  2  0  0  3  0  0  0  0  0  0
  159.2220  210.0790  154.9210 N   0  0  0  0  0  0  0  0  0  0  0  0
  156.3820  212.1200  156.0600 C   0  0  0  0  0  3  0  0  0  0  0  0
  157.0710  213.1370  156.9690 C   0  0  2  0  0  3  0  0  0  0  0  0
  155.6700  214.4180  155.8160 C   0  0  0  0  0  1  0  0  0  0  0  0
  156.9180  214.4240  156.4440 O   0  0  0  0  0  0  0  0  0  0  0  0
  1  4  2  0  0  0  0
  1  2  1  0  0  0  0
  2  5  2  0  0  0  0
  4  6  1  0  0  0  0
  5  3  1  0  0  0  0
  6  3  2  0  0  0  0
  7  8  2  0  0  0  0
  8  1  1  0  0  0  0
  9  8  1  0  0  0  0
 10 13  1  0  0  0  0
 10 12  1  0  0  0  0
 11 14  1  0  0  0  0
 12  9  1  0  0  0  0
 13 17  1  0  0  0  0
 14 19  1  1  0  0  0
 15 16  1  0  0  0  0
 15 13  1  0  0  0  0
 16 11  1  0  0  0  0
 17 14  1  0  0  0  0
 17 21  1  6  0  0  0
 18 10  2  0  0  0  0
 21 20  1  0  0  0  0
 22  2  1  0  0  0  0
 22 24  1  0  0  0  0
 23 24  1  0  0  0  0
 23 25  1  0  0  0  0
 24 26  1  6  0  0  0
 24 25  1  0  0  0  0
 25 29  1  1  0  0  0
 27 32  1  0  0  0  0
 28 31  1  0  0  0  0
 28 36  2  0  0  0  0
 29 27  1  0  0  0  0
 30 28  1  0  0  0  0
 31 35  1  6  0  0  0
 31 34  1  0  0  0  0
 34 32  1  0  0  0  0
 34 33  1  1  0  0  0
 35 27  2  0  0  0  0
 36 37  1  0  0  0  0
 37 39  1  6  0  0  0
 37 33  1  0  0  0  0
 38 39  1  0  0  0  0
M  END
>  <MODEL>
8

>  <REMARK>
 VINA RESULT:      -5.9      2.928     10.881
  Name = 
  7 active torsions:
  status: ('A' for Active; 'I' for Inactive)
    1  A    between atoms: N_3  and  C_19
    2  A    between atoms: C_5  and  C_9
    3  A    between atoms: O_8  and  C_13
    4  A    between atoms: O_8  and  C_15
    5  A    between atoms: N_12  and  N_26
    6  A    between atoms: C_31  and  C_33
    7  A    between atoms: C_38  and  O_39
                            x       y       z     vdW  Elec       q    Type
                         _______ _______ _______ _____ _____    ______ ____

>  <TORSDO>
F 7

$$$$
=
 OpenBabel11042421583D

 39 43  0  0  1  0  0  0  0  0999 V2000
  161.1680  208.8210  155.1460 C   0  0  0  0  0  0  0  0  0  0  0  0
  161.0930  208.4470  153.7830 C   0  0  0  0  0  0  0  0  0  0  0  0
  160.8740  206.1140  154.4420 C   0  0  0  0  0  3  0  0  0  0  0  0
  161.0760  207.8290  156.1310 C   0  0  0  0  0  3  0  0  0  0  0  0
  160.9560  207.0900  153.4460 C   0  0  0  0  0  3  0  0  0  0  0  0
  160.9270  206.4840  155.7840 C   0  0  0  0  0  3  0  0  0  0  0  0
  162.2520  210.9420  155.0340 O   0  0  0  0  0  0  0  0  0  0  0  0
  161.3670  210.2260  155.5720 C   0  0  0  0  0  0  0  0  0  0  0  0
  160.5600  210.7800  156.6110 N   0  0  0  0  0  2  0  0  0  0  0  0
  160.0500  213.2340  156.6270 C   0  0  0  0  0  0  0  0  0  0  0  0
  157.7750  213.2790  152.9310 C   0  0  0  0  0  2  0  0  0  0  0  0
  160.7790  212.0830  157.0800 N   0  0  0  0  0  2  0  0  0  0  0  0
  159.0950  213.1860  155.5420 N   0  0  0  0  0  0  0  0  0  0  0  0
  158.6540  212.1090  153.3880 C   0  0  1  0  0  3  0  0  0  0  0  0
  158.5410  214.4530  155.0440 C   0  0  0  0  0  2  0  0  0  0  0  0
  157.3870  214.2300  154.0670 C   0  0  0  0  0  2  0  0  0  0  0  0
  158.7070  211.9230  154.9110 C   0  0  2  0  0  3  0  0  0  0  0  0
  160.2910  214.3410  157.1800 O   0  0  0  0  0  0  0  0  0  0  0  0
  158.2950  210.9300  152.7360 O   0  0  0  0  0  1  0  0  0  0  0  0
  157.2890  211.7920  156.8420 O   0  0  0  0  0  1  0  0  0  0  0  0
  157.3880  211.4200  155.5010 C   0  0  0  0  0  2  0  0  0  0  0  0
  161.1380  209.4270  152.7840 O   0  0  0  0  0  0  0  0  0  0  0  0
  162.7260  209.7030  150.9480 C   0  0  0  0  0  2  0  0  0  0  0  0
  161.4020  209.1530  151.4120 C   0  0  1  0  0  0  0  0  0  0  0  0
  162.5280  208.1930  151.0820 C   0  0  1  0  0  3  0  0  0  0  0  0
  160.3710  209.3600  150.4900 O   0  0  0  0  0  1  0  0  0  0  0  0
  161.6220  206.3650  149.5910 C   0  0  0  0  0  0  0  0  0  0  0  0
  160.9110  203.1860  151.0230 C   0  0  0  0  0  0  0  0  0  0  0  0
  162.3250  207.5940  149.7710 N   0  0  0  0  0  2  0  0  0  0  0  0
  161.1180  203.3390  152.3870 O   0  0  0  0  0  1  0  0  0  0  0  0
  160.6940  204.3780  150.1400 C   0  0  2  0  0  3  0  0  0  0  0  0
  161.2940  205.7080  147.9520 S   0  0  0  0  0  0  0  0  0  0  0  0
  160.4580  202.9990  148.1480 C   0  0  0  0  0  2  0  0  0  0  0  0
  161.2830  204.1010  148.7830 C   0  0  2  0  0  3  0  0  0  0  0  0
  161.3150  205.6020  150.5890 N   0  0  0  0  0  0  0  0  0  0  0  0
  160.8220  201.9580  150.4900 C   0  0  0  0  0  3  0  0  0  0  0  0
  160.5890  201.7140  149.0000 C   0  0  2  0  0  3  0  0  0  0  0  0
  161.2230  200.6170  147.1760 C   0  0  0  0  0  1  0  0  0  0  0  0
  161.6120  200.9130  148.4840 O   0  0  0  0  0  0  0  0  0  0  0  0
  1  8  1  0  0  0  0
  1  4  1  0  0  0  0
  2  1  2  0  0  0  0
  3  6  1  0  0  0  0
  5  2  1  0  0  0  0
  5  3  2  0  0  0  0
  6  4  2  0  0  0  0
  7  8  2  0  0  0  0
  8  9  1  0  0  0  0
  9 12  1  0  0  0  0
 10 12  1  0  0  0  0
 10 18  2  0  0  0  0
 11 14  1  0  0  0  0
 11 16  1  0  0  0  0
 13 10  1  0  0  0  0
 14 19  1  6  0  0  0
 14 17  1  0  0  0  0
 15 13  1  0  0  0  0
 16 15  1  0  0  0  0
 17 21  1  1  0  0  0
 17 13  1  0  0  0  0
 21 20  1  0  0  0  0
 22  2  1  0  0  0  0
 23 25  1  0  0  0  0
 23 24  1  0  0  0  0
 24 26  1  6  0  0  0
 24 22  1  0  0  0  0
 25 29  1  6  0  0  0
 25 24  1  0  0  0  0
 27 29  1  0  0  0  0
 27 35  2  0  0  0  0
 28 30  1  0  0  0  0
 31 35  1  1  0  0  0
 31 28  1  0  0  0  0
 32 34  1  0  0  0  0
 32 27  1  0  0  0  0
 33 37  1  0  0  0  0
 34 33  1  6  0  0  0
 34 31  1  0  0  0  0
 36 28  2  0  0  0  0
 37 39  1  6  0  0  0
 37 36  1  0  0  0  0
 38 39  1  0  0  0  0
M  END
>  <MODEL>
9

>  <REMARK>
 VINA RESULT:      -5.6      2.235      3.777
  Name = 
  7 active torsions:
  status: ('A' for Active; 'I' for Inactive)
    1  A    between atoms: N_3  and  C_19
    2  A    between atoms: C_5  and  C_9
    3  A    between atoms: O_8  and  C_13
    4  A    between atoms: O_8  and  C_15
    5  A    between atoms: N_12  and  N_26
    6  A    between atoms: C_31  and  C_33
    7  A    between atoms: C_38  and  O_39
                            x       y       z     vdW  Elec       q    Type
                         _______ _______ _______ _____ _____    ______ ____

>  <TORSDO>
F 7

$$$$
