=
 OpenBabel11052411183D

 31 36  0  0  1  0  0  0  0  0999 V2000
  160.9530  204.1640  147.9610 C   0  0  0  0  0  3  0  0  0  0  0  0
  161.2450  204.3560  144.4110 O   0  0  0  0  0  0  0  0  0  0  0  0
  160.8080  208.4800  153.9490 C   0  0  0  0  0  0  0  0  0  0  0  0
  161.5480  208.1880  150.1630 C   0  0  1  0  0  3  0  0  0  0  0  0
  160.9200  208.9400  155.3500 C   0  0  0  0  0  0  0  0  0  0  0  0
  162.0800  205.9180  145.9830 C   0  0  0  0  0  3  0  0  0  0  0  0
  160.2110  211.6410  151.9910 C   0  0  2  0  0  3  0  0  0  0  0  0
  160.9590  211.2730  154.4500 C   0  0  0  0  0  2  0  0  0  0  0  0
  162.2240  207.6100  151.3970 C   0  0  1  0  0  3  0  0  0  0  0  0
  160.6730  211.0300  150.6600 C   0  0  2  0  0  3  0  0  0  0  0  0
  162.0230  210.5220  150.7830 N   0  0  2  0  0  0  0  0  0  0  0  0
  162.2160  206.2610  147.2670 C   0  0  0  0  0  3  0  0  0  0  0  0
  160.8180  203.8210  146.6780 C   0  0  0  0  0  3  0  0  0  0  0  0
  161.1730  207.2820  153.5980 N   0  0  0  0  0  0  0  0  0  0  0  0
  160.9370  210.2620  155.5710 C   0  0  0  0  0  3  0  0  0  0  0  0
  160.4140  209.4270  152.9500 N   0  0  0  0  0  0  0  0  0  0  0  0
  161.7290  211.7200  150.1520 O   0  0  0  0  0  0  0  0  0  0  0  0
  161.2220  204.8600  150.7230 C   0  0  0  0  0  2  0  0  0  0  0  0
  162.2060  209.5060  149.7520 C   0  0  0  0  0  2  0  0  0  0  0  0
  161.3730  204.6790  145.6200 C   0  0  0  0  0  0  0  0  0  0  0  0
  161.1790  206.8350  152.2060 C   0  0  2  0  0  3  0  0  0  0  0  0
  162.5290  207.0400  150.0060 C   0  0  1  0  0  3  0  0  0  0  0  0
  160.4430  210.7100  153.1510 C   0  0  0  0  0  0  0  0  0  0  0  0
  161.7970  205.7580  149.6470 C   0  0  0  0  0  0  0  0  0  0  0  0
  161.6620  205.4100  148.3500 C   0  0  0  0  0  0  0  0  0  0  0  0
  161.4940  205.3570  152.1360 C   0  0  0  0  0  2  0  0  0  0  0  0
  160.9570  208.0060  156.4970 C   0  0  0  0  0  0  0  0  0  0  0  0
  159.8580  207.1410  156.7710 N   0  0  0  0  0  1  0  0  0  0  0  0
  161.9610  207.9730  157.2580 O   0  0  0  0  0  0  0  0  0  0  0  0
  158.8530  211.9530  151.9080 O   0  0  0  0  0  0  0  0  0  0  0  0
  158.7760  213.3110  152.2240 C   0  0  0  0  0  1  0  0  0  0  0  0
  1 25  1  0  0  0  0
  2 20  2  0  0  0  0
  3  5  1  0  0  0  0
  4 19  1  6  0  0  0
  4  9  1  0  0  0  0
  5 15  2  0  0  0  0
  5 27  1  0  0  0  0
  6 12  2  0  0  0  0
  7 30  1  6  0  0  0
  7 23  1  0  0  0  0
  8 15  1  0  0  0  0
  9 21  1  0  0  0  0
 10 11  1  0  0  0  0
 10  7  1  0  0  0  0
 12 25  1  0  0  0  0
 13  1  2  0  0  0  0
 14  3  2  0  0  0  0
 16 23  2  0  0  0  0
 16  3  1  0  0  0  0
 17 10  1  0  0  0  0
 17 11  1  0  0  0  0
 18 26  1  0  0  0  0
 19 11  1  0  0  0  0
 20  6  1  0  0  0  0
 20 13  1  0  0  0  0
 21 14  1  0  0  0  0
 22  4  1  0  0  0  0
 22  9  1  0  0  0  0
 23  8  1  0  0  0  0
 24 22  1  0  0  0  0
 24 18  1  0  0  0  0
 25 24  2  0  0  0  0
 26 21  1  0  0  0  0
 27 28  1  0  0  0  0
 27 29  2  0  0  0  0
 30 31  1  0  0  0  0
M  END
>  <MODEL>
1

>  <REMARK>
 VINA RESULT:      -7.7      0.000      0.000
  Name = 
  2 active torsions:
  status: ('A' for Active; 'I' for Inactive)
    1  A    between atoms: O_3  and  C_11
    2  A    between atoms: C_6  and  C_7
                            x       y       z     vdW  Elec       q    Type
                         _______ _______ _______ _____ _____    ______ ____

>  <TORSDO>
F 2

$$$$
=
 OpenBabel11052411183D

 31 36  0  0  1  0  0  0  0  0999 V2000
  160.2630  209.8790  153.4630 C   0  0  0  0  0  3  0  0  0  0  0  0
  159.8950  209.8750  157.0110 O   0  0  0  0  0  0  0  0  0  0  0  0
  161.2820  205.2610  147.7940 C   0  0  0  0  0  0  0  0  0  0  0  0
  161.3050  205.7620  151.6290 C   0  0  1  0  0  3  0  0  0  0  0  0
  161.6580  204.7320  146.4640 C   0  0  0  0  0  0  0  0  0  0  0  0
  161.0260  208.2540  155.7060 C   0  0  0  0  0  3  0  0  0  0  0  0
  160.3720  202.1920  149.7770 C   0  0  2  0  0  3  0  0  0  0  0  0
  161.5580  202.4500  147.4820 C   0  0  0  0  0  2  0  0  0  0  0  0
  162.1910  206.2910  150.5120 C   0  0  1  0  0  3  0  0  0  0  0  0
  160.5720  202.8800  151.1350 C   0  0  2  0  0  3  0  0  0  0  0  0
  161.9150  203.4110  151.2350 N   0  0  2  0  0  0  0  0  0  0  0  0
  161.4020  207.8490  154.4900 C   0  0  0  0  0  3  0  0  0  0  0  0
  159.8890  210.2850  154.6780 C   0  0  0  0  0  3  0  0  0  0  0  0
  161.5610  206.4830  148.1410 N   0  0  0  0  0  0  0  0  0  0  0  0
  161.7310  203.4020  146.3230 C   0  0  0  0  0  3  0  0  0  0  0  0
  160.7210  204.3580  148.7530 N   0  0  0  0  0  0  0  0  0  0  0  0
  161.5240  202.2400  151.8650 O   0  0  0  0  0  0  0  0  0  0  0  0
  161.0480  209.0500  150.8390 C   0  0  0  0  0  2  0  0  0  0  0  0
  161.8910  204.4810  152.2250 C   0  0  0  0  0  2  0  0  0  0  0  0
  160.2490  209.4930  155.8660 C   0  0  0  0  0  0  0  0  0  0  0  0
  161.3040  207.0010  149.4830 C   0  0  2  0  0  3  0  0  0  0  0  0
  162.2260  206.9380  151.9020 C   0  0  1  0  0  3  0  0  0  0  0  0
  160.8040  203.0670  148.6310 C   0  0  0  0  0  0  0  0  0  0  0  0
  161.4240  208.2200  152.0500 C   0  0  0  0  0  0  0  0  0  0  0  0
  161.0470  208.6310  153.2790 C   0  0  0  0  0  0  0  0  0  0  0  0
  161.5830  208.4870  149.5300 C   0  0  0  0  0  2  0  0  0  0  0  0
  161.8950  205.6070  145.2940 C   0  0  0  0  0  0  0  0  0  0  0  0
  160.8040  206.1580  144.5600 N   0  0  0  0  0  1  0  0  0  0  0  0
  163.0710  205.8670  144.9230 O   0  0  0  0  0  0  0  0  0  0  0  0
  159.0260  201.8540  149.6250 O   0  0  0  0  0  0  0  0  0  0  0  0
  158.9410  200.5220  150.0330 C   0  0  0  0  0  1  0  0  0  0  0  0
  1 13  2  0  0  0  0
  3 14  2  0  0  0  0
  3 16  1  0  0  0  0
  4 22  1  0  0  0  0
  4 19  1  1  0  0  0
  5  3  1  0  0  0  0
  6 20  1  0  0  0  0
  7 30  1  6  0  0  0
  7 10  1  0  0  0  0
  8 23  1  0  0  0  0
  9  4  1  0  0  0  0
  9 22  1  0  0  0  0
 10 11  1  0  0  0  0
 10 17  1  0  0  0  0
 11 17  1  0  0  0  0
 11 19  1  0  0  0  0
 12  6  2  0  0  0  0
 13 20  1  0  0  0  0
 14 21  1  0  0  0  0
 15  5  2  0  0  0  0
 15  8  1  0  0  0  0
 18 24  1  0  0  0  0
 20  2  2  0  0  0  0
 21 26  1  0  0  0  0
 21  9  1  0  0  0  0
 22 24  1  0  0  0  0
 23 16  2  0  0  0  0
 23  7  1  0  0  0  0
 24 25  2  0  0  0  0
 25  1  1  0  0  0  0
 25 12  1  0  0  0  0
 26 18  1  0  0  0  0
 27  5  1  0  0  0  0
 28 27  1  0  0  0  0
 29 27  2  0  0  0  0
 30 31  1  0  0  0  0
M  END
>  <MODEL>
2

>  <REMARK>
 VINA RESULT:      -7.4      3.131      8.727
  Name = 
  2 active torsions:
  status: ('A' for Active; 'I' for Inactive)
    1  A    between atoms: O_3  and  C_11
    2  A    between atoms: C_6  and  C_7
                            x       y       z     vdW  Elec       q    Type
                         _______ _______ _______ _____ _____    ______ ____

>  <TORSDO>
F 2

$$$$
=
 OpenBabel11052411183D

 31 36  0  0  1  0  0  0  0  0999 V2000
  159.8050  213.3960  146.5480 C   0  0  0  0  0  3  0  0  0  0  0  0
  162.3110  212.7230  148.9970 O   0  0  0  0  0  0  0  0  0  0  0  0
  158.3660  212.3700  139.3800 C   0  0  0  0  0  0  0  0  0  0  0  0
  160.9890  212.2650  142.2220 C   0  0  1  0  0  3  0  0  0  0  0  0
  157.8000  212.5390  138.0240 C   0  0  0  0  0  0  0  0  0  0  0  0
  162.6410  212.9420  146.6630 C   0  0  0  0  0  3  0  0  0  0  0  0
  161.0530  209.7690  138.9330 C   0  0  2  0  0  3  0  0  0  0  0  0
  159.6960  211.1370  137.1930 C   0  0  0  0  0  2  0  0  0  0  0  0
  160.2500  213.4050  141.5380 C   0  0  1  0  0  3  0  0  0  0  0  0
  161.7990  210.1650  140.2160 C   0  0  2  0  0  3  0  0  0  0  0  0
  162.1600  211.5660  140.1740 N   0  0  2  0  0  0  0  0  0  0  0  0
  162.0960  213.1660  145.4640 C   0  0  0  0  0  3  0  0  0  0  0  0
  160.3500  213.1730  147.7460 C   0  0  0  0  0  3  0  0  0  0  0  0
  158.1130  213.2200  140.3320 N   0  0  0  0  0  0  0  0  0  0  0  0
  158.4100  211.9070  137.0130 C   0  0  0  0  0  3  0  0  0  0  0  0
  159.3160  211.3210  139.5960 N   0  0  0  0  0  0  0  0  0  0  0  0
  163.0720  210.5500  139.9360 O   0  0  0  0  0  0  0  0  0  0  0  0
  158.5960  213.8800  144.0010 C   0  0  0  0  0  2  0  0  0  0  0  0
  162.3400  212.0160  141.5490 C   0  0  0  0  0  2  0  0  0  0  0  0
  161.7970  212.9330  147.8690 C   0  0  0  0  0  0  0  0  0  0  0  0
  158.7440  213.1430  141.6480 C   0  0  2  0  0  3  0  0  0  0  0  0
  160.9710  213.6380  142.8720 C   0  0  1  0  0  3  0  0  0  0  0  0
  159.9240  210.7150  138.6210 C   0  0  0  0  0  0  0  0  0  0  0  0
  160.0870  213.6310  144.1070 C   0  0  0  0  0  0  0  0  0  0  0  0
  160.6380  213.4090  145.3180 C   0  0  0  0  0  0  0  0  0  0  0  0
  158.1300  214.1640  142.5800 C   0  0  0  0  0  2  0  0  0  0  0  0
  156.5730  213.3240  137.7630 C   0  0  0  0  0  0  0  0  0  0  0  0
  155.2900  212.8140  138.1180 N   0  0  0  0  0  1  0  0  0  0  0  0
  156.6460  214.4530  137.2090 O   0  0  0  0  0  0  0  0  0  0  0  0
  160.5520  208.4740  139.0730 O   0  0  0  0  0  0  0  0  0  0  0  0
  161.5950  207.6390  138.6690 C   0  0  0  0  0  1  0  0  0  0  0  0
  1 13  2  0  0  0  0
  3 16  1  0  0  0  0
  3 14  2  0  0  0  0
  4 19  1  6  0  0  0
  4 22  1  0  0  0  0
  5  3  1  0  0  0  0
  6 20  1  0  0  0  0
  7 30  1  1  0  0  0
  7 10  1  0  0  0  0
  8 23  1  0  0  0  0
  9 21  1  0  0  0  0
  9  4  1  0  0  0  0
  9 22  1  0  0  0  0
 11 10  1  0  0  0  0
 11 19  1  0  0  0  0
 12  6  2  0  0  0  0
 13 20  1  0  0  0  0
 14 21  1  0  0  0  0
 15  8  1  0  0  0  0
 15  5  2  0  0  0  0
 17 11  1  0  0  0  0
 17 10  1  0  0  0  0
 18 24  1  0  0  0  0
 20  2  2  0  0  0  0
 21 26  1  0  0  0  0
 22 24  1  0  0  0  0
 23  7  1  0  0  0  0
 23 16  2  0  0  0  0
 24 25  2  0  0  0  0
 25 12  1  0  0  0  0
 25  1  1  0  0  0  0
 26 18  1  0  0  0  0
 27  5  1  0  0  0  0
 27 28  1  0  0  0  0
 29 27  2  0  0  0  0
 31 30  1  0  0  0  0
M  END
>  <MODEL>
3

>  <REMARK>
 VINA RESULT:      -5.2      8.822     13.291
  Name = 
  2 active torsions:
  status: ('A' for Active; 'I' for Inactive)
    1  A    between atoms: O_3  and  C_11
    2  A    between atoms: C_6  and  C_7
                            x       y       z     vdW  Elec       q    Type
                         _______ _______ _______ _____ _____    ______ ____

>  <TORSDO>
F 2

$$$$
