=
 OpenBabel11052410463D

 37 40  0  0  1  0  0  0  0  0999 V2000
  161.7960  208.0360  149.0330 C   0  0  0  0  0  0  0  0  0  0  0  0
  161.2190  208.8020  151.2190 N   0  0  0  0  0  0  0  0  0  0  0  0
  161.9790  210.3910  149.5960 C   0  0  0  0  0  0  0  0  0  0  0  0
  162.1130  209.3470  148.6810 C   0  0  0  0  0  3  0  0  0  0  0  0
  161.5140  210.0930  150.8980 C   0  0  0  0  0  0  0  0  0  0  0  0
  161.3450  207.7690  150.3420 C   0  0  0  0  0  0  0  0  0  0  0  0
  161.8940  206.7760  147.7590 S   0  0  0  0  0  1  0  0  0  0  0  0
  161.1260  203.3460  150.8350 C   0  0  0  0  0  3  0  0  0  0  0  0
  160.7940  207.1190  153.1600 O   0  0  0  0  0  1  0  0  0  0  0  0
  161.3870  204.8990  152.7620 C   0  0  0  0  0  3  0  0  0  0  0  0
  161.0020  206.4070  150.8030 C   0  0  0  0  0  0  0  0  0  0  0  0
  160.0570  204.1710  150.2040 C   0  0  0  0  0  2  0  0  0  0  0  0
  160.5530  205.5410  149.8860 C   0  0  0  0  0  3  0  0  0  0  0  0
  161.6850  203.6690  152.0010 C   0  0  0  0  0  3  0  0  0  0  0  0
  161.0470  206.0930  152.2580 C   0  0  0  0  0  0  0  0  0  0  0  0
  159.2120  210.9770  153.0280 C   0  0  0  0  0  2  0  0  0  0  0  0
  161.7920  210.4250  153.5980 S   0  0  0  0  0  0  0  0  0  0  0  0
  160.1150  210.7680  154.2180 C   0  0  2  0  0  3  0  0  0  0  0  0
  160.0130  211.7500  152.0090 C   0  0  0  0  0  2  0  0  0  0  0  0
  161.4040  211.1410  151.9660 C   0  0  2  0  0  3  0  0  0  0  0  0
  159.6080  209.6030  155.0470 C   0  0  0  0  0  2  0  0  0  0  0  0
  159.6670  209.9380  156.4580 N   0  0  0  0  0  2  0  0  0  0  0  0
  160.1810  208.7680  157.1450 C   0  0  0  0  0  2  0  0  0  0  0  0
  161.6470  208.6540  156.9160 C   0  0  0  0  0  0  0  0  0  0  0  0
  162.1310  207.5950  156.4390 O   0  0  0  0  0  0  0  0  0  0  0  0
  162.4860  209.7070  157.2570 O   0  0  0  0  0  1  0  0  0  0  0  0
  162.3360  211.7110  149.1570 N   0  0  0  0  0  2  0  0  0  0  0  0
  160.5890  213.2500  149.1490 O   0  0  0  0  0  1  0  0  0  0  0  0
  161.5140  212.5900  148.3390 C   0  0  2  0  0  3  0  0  0  0  0  0
  160.8360  211.8330  147.3830 O   0  0  0  0  0  0  0  0  0  0  0  0
  160.7610  212.6640  146.2620 C   0  0  0  0  0  2  0  0  0  0  0  0
  162.1150  213.2990  145.9930 C   0  0  0  0  0  2  0  0  0  0  0  0
  163.2660  213.3990  143.9400 C   0  0  0  0  0  2  0  0  0  0  0  0
  162.4100  213.1930  141.6310 C   0  0  0  0  0  1  0  0  0  0  0  0
  162.4060  212.5720  143.0130 C   0  0  2  0  0  3  0  0  0  0  0  0
  161.2530  213.1330  143.8170 C   0  0  0  0  0  2  0  0  0  0  0  0
  162.1230  213.9270  144.6760 N   0  0  0  0  0  0  0  0  0  0  0  0
  1  6  1  0  0  0  0
  3  5  2  0  0  0  0
  4  1  2  0  0  0  0
  4  3  1  0  0  0  0
  5  2  1  0  0  0  0
  6 11  1  0  0  0  0
  6  2  2  0  0  0  0
  7  1  1  0  0  0  0
  8 14  2  0  0  0  0
 11 15  1  0  0  0  0
 12  8  1  0  0  0  0
 13 12  1  0  0  0  0
 13 11  2  0  0  0  0
 14 10  1  0  0  0  0
 15 10  2  0  0  0  0
 15  9  1  0  0  0  0
 16 18  1  0  0  0  0
 17 18  1  0  0  0  0
 18 21  1  6  0  0  0
 19 16  1  0  0  0  0
 20  5  1  6  0  0  0
 20 19  1  0  0  0  0
 20 17  1  0  0  0  0
 21 22  1  0  0  0  0
 22 23  1  0  0  0  0
 24 23  1  0  0  0  0
 24 26  1  0  0  0  0
 25 24  2  0  0  0  0
 27  3  1  0  0  0  0
 29 28  1  1  0  0  0
 29 27  1  0  0  0  0
 30 29  1  0  0  0  0
 31 30  1  0  0  0  0
 32 31  1  0  0  0  0
 33 37  1  0  0  0  0
 35 34  1  6  0  0  0
 35 36  1  0  0  0  0
 35 33  1  0  0  0  0
 36 37  1  0  0  0  0
 37 32  1  0  0  0  0
M  END
>  <MODEL>
1

>  <REMARK>
 VINA RESULT:      -6.7      0.000      0.000
  Name = 
  12 active torsions:
  status: ('A' for Active; 'I' for Inactive)
    1  A    between atoms: C_1  and  C_9
    2  A    between atoms: C_1  and  N_13
    3  A    between atoms: C_5  and  N_29
    4  A    between atoms: C_11  and  C_35
    5  A    between atoms: C_12  and  C_20
    6  A    between atoms: N_13  and  C_17
    7  A    between atoms: C_15  and  N_32
    8  A    between atoms: C_15  and  C_37
    9  A    between atoms: C_17  and  C_18
   10  A    between atoms: N_29  and  C_31
   11  A    between atoms: C_31  and  O_34
   12  A    between atoms: O_34  and  C_37
                            x       y       z     vdW  Elec       q    Type
                         _______ _______ _______ _____ _____    ______ ____

>  <TORSDO>
F 12

$$$$
=
 OpenBabel11052410463D

 37 40  0  0  1  0  0  0  0  0999 V2000
  161.6990  208.0020  148.9830 C   0  0  0  0  0  0  0  0  0  0  0  0
  161.2490  208.7320  151.2110 N   0  0  0  0  0  0  0  0  0  0  0  0
  161.9090  210.3490  149.5720 C   0  0  0  0  0  0  0  0  0  0  0  0
  161.9910  209.3190  148.6340 C   0  0  0  0  0  3  0  0  0  0  0  0
  161.5220  210.0290  150.8930 C   0  0  0  0  0  0  0  0  0  0  0  0
  161.3260  207.7130  150.3120 C   0  0  0  0  0  0  0  0  0  0  0  0
  161.7240  206.7620  147.6850 S   0  0  0  0  0  1  0  0  0  0  0  0
  161.1660  203.2830  150.7620 C   0  0  0  0  0  3  0  0  0  0  0  0
  160.8970  207.0270  153.1430 O   0  0  0  0  0  1  0  0  0  0  0  0
  161.4930  204.8160  152.6950 C   0  0  0  0  0  3  0  0  0  0  0  0
  161.0140  206.3430  150.7710 C   0  0  0  0  0  0  0  0  0  0  0  0
  160.0640  204.1050  150.1850 C   0  0  0  0  0  2  0  0  0  0  0  0
  160.5350  205.4830  149.8630 C   0  0  0  0  0  3  0  0  0  0  0  0
  161.7690  203.5980  151.9080 C   0  0  0  0  0  3  0  0  0  0  0  0
  161.1220  206.0120  152.2190 C   0  0  0  0  0  0  0  0  0  0  0  0
  159.2860  210.9800  153.0640 C   0  0  0  0  0  2  0  0  0  0  0  0
  161.8420  210.2940  153.5970 S   0  0  0  0  0  0  0  0  0  0  0  0
  160.1890  210.7040  154.2410 C   0  0  2  0  0  3  0  0  0  0  0  0
  160.1140  211.7330  152.0520 C   0  0  0  0  0  2  0  0  0  0  0  0
  161.4730  211.0590  151.9830 C   0  0  2  0  0  3  0  0  0  0  0  0
  159.6350  209.5480  155.0520 C   0  0  0  0  0  2  0  0  0  0  0  0
  159.3060  210.0000  156.3930 N   0  0  0  0  0  2  0  0  0  0  0  0
  160.3790  209.5490  157.2600 C   0  0  0  0  0  2  0  0  0  0  0  0
  160.7810  208.1660  156.8870 C   0  0  0  0  0  0  0  0  0  0  0  0
  161.9130  207.9510  156.3840 O   0  0  0  0  0  0  0  0  0  0  0  0
  159.8930  207.1140  157.0690 O   0  0  0  0  0  1  0  0  0  0  0  0
  162.2360  211.6760  149.1330 N   0  0  0  0  0  2  0  0  0  0  0  0
  163.9670  212.3840  147.7470 O   0  0  0  0  0  1  0  0  0  0  0  0
  162.6100  212.0600  147.7810 C   0  0  2  0  0  3  0  0  0  0  0  0
  161.8600  213.1700  147.3900 O   0  0  0  0  0  0  0  0  0  0  0  0
  160.6530  213.0440  148.0840 C   0  0  0  0  0  2  0  0  0  0  0  0
  159.4920  213.0030  147.1050 C   0  0  0  0  0  2  0  0  0  0  0  0
  157.1730  213.1640  147.4830 C   0  0  0  0  0  2  0  0  0  0  0  0
  155.9430  213.9660  149.4710 C   0  0  0  0  0  1  0  0  0  0  0  0
  157.0530  213.0560  148.9860 C   0  0  2  0  0  3  0  0  0  0  0  0
  158.3660  213.8060  149.0000 C   0  0  0  0  0  2  0  0  0  0  0  0
  158.4300  213.9010  147.5460 N   0  0  0  0  0  0  0  0  0  0  0  0
  1  6  1  0  0  0  0
  3  5  2  0  0  0  0
  4  1  2  0  0  0  0
  4  3  1  0  0  0  0
  5  2  1  0  0  0  0
  6 11  1  0  0  0  0
  6  2  2  0  0  0  0
  7  1  1  0  0  0  0
  8 14  2  0  0  0  0
 11 15  1  0  0  0  0
 12  8  1  0  0  0  0
 13 12  1  0  0  0  0
 13 11  2  0  0  0  0
 14 10  1  0  0  0  0
 15 10  2  0  0  0  0
 15  9  1  0  0  0  0
 16 18  1  0  0  0  0
 17 18  1  0  0  0  0
 18 21  1  6  0  0  0
 19 16  1  0  0  0  0
 20  5  1  6  0  0  0
 20 19  1  0  0  0  0
 20 17  1  0  0  0  0
 21 22  1  0  0  0  0
 22 23  1  0  0  0  0
 24 26  1  0  0  0  0
 24 23  1  0  0  0  0
 25 24  2  0  0  0  0
 27  3  1  0  0  0  0
 29 28  1  1  0  0  0
 29 27  1  0  0  0  0
 30 29  1  0  0  0  0
 30 31  1  0  0  0  0
 32 37  1  0  0  0  0
 32 31  1  0  0  0  0
 33 37  1  0  0  0  0
 33 35  1  0  0  0  0
 35 36  1  0  0  0  0
 35 34  1  1  0  0  0
 37 36  1  0  0  0  0
M  END
>  <MODEL>
2

>  <REMARK>
 VINA RESULT:      -6.6      1.922      2.949
  Name = 
  12 active torsions:
  status: ('A' for Active; 'I' for Inactive)
    1  A    between atoms: C_1  and  C_9
    2  A    between atoms: C_1  and  N_13
    3  A    between atoms: C_5  and  N_29
    4  A    between atoms: C_11  and  C_35
    5  A    between atoms: C_12  and  C_20
    6  A    between atoms: N_13  and  C_17
    7  A    between atoms: C_15  and  N_32
    8  A    between atoms: C_15  and  C_37
    9  A    between atoms: C_17  and  C_18
   10  A    between atoms: N_29  and  C_31
   11  A    between atoms: C_31  and  O_34
   12  A    between atoms: O_34  and  C_37
                            x       y       z     vdW  Elec       q    Type
                         _______ _______ _______ _____ _____    ______ ____

>  <TORSDO>
F 12

$$$$
=
 OpenBabel11052410463D

 37 40  0  0  1  0  0  0  0  0999 V2000
  161.3230  212.0820  149.6180 C   0  0  0  0  0  0  0  0  0  0  0  0
  161.7800  210.1280  148.3260 N   0  0  0  0  0  0  0  0  0  0  0  0
  161.7550  209.9580  150.7140 C   0  0  0  0  0  0  0  0  0  0  0  0
  161.4610  211.3210  150.7770 C   0  0  0  0  0  3  0  0  0  0  0  0
  161.9120  209.3600  149.4430 C   0  0  0  0  0  0  0  0  0  0  0  0
  161.4970  211.4580  148.3650 C   0  0  0  0  0  0  0  0  0  0  0  0
  160.8360  213.8000  149.7930 S   0  0  0  0  0  1  0  0  0  0  0  0
  162.1190  212.9370  144.2080 C   0  0  0  0  0  3  0  0  0  0  0  0
  158.9180  212.3090  147.2270 O   0  0  0  0  0  1  0  0  0  0  0  0
  159.8720  212.3450  145.0980 C   0  0  0  0  0  3  0  0  0  0  0  0
  161.3820  212.1930  147.0880 C   0  0  0  0  0  0  0  0  0  0  0  0
  162.4990  213.6980  145.4320 C   0  0  0  0  0  2  0  0  0  0  0  0
  162.4760  212.8220  146.6390 C   0  0  0  0  0  3  0  0  0  0  0  0
  160.9230  212.3680  144.0620 C   0  0  0  0  0  3  0  0  0  0  0  0
  160.0530  212.3110  146.4260 C   0  0  0  0  0  0  0  0  0  0  0  0
  160.3490  206.6490  148.5330 C   0  0  0  0  0  2  0  0  0  0  0  0
  162.6880  207.5580  147.5370 S   0  0  0  0  0  0  0  0  0  0  0  0
  161.3140  206.3710  147.4070 C   0  0  2  0  0  3  0  0  0  0  0  0
  161.1850  206.9910  149.7430 C   0  0  0  0  0  2  0  0  0  0  0  0
  162.2960  207.9180  149.2820 C   0  0  2  0  0  3  0  0  0  0  0  0
  160.6050  206.5250  146.0750 C   0  0  0  0  0  2  0  0  0  0  0  0
  161.2050  205.6430  145.0910 N   0  0  0  0  0  2  0  0  0  0  0  0
  161.7350  204.5040  145.8180 C   0  0  0  0  0  2  0  0  0  0  0  0
  160.9520  203.2840  145.4830 C   0  0  0  0  0  0  0  0  0  0  0  0
  161.1210  202.2250  146.1420 O   0  0  0  0  0  1  0  0  0  0  0  0
  160.0560  203.3050  144.4230 O   0  0  0  0  0  0  0  0  0  0  0  0
  161.8910  209.2490  151.9550 N   0  0  0  0  0  2  0  0  0  0  0  0
  161.2150  209.2660  154.1830 O   0  0  0  0  0  1  0  0  0  0  0  0
  160.8150  208.9430  152.8860 C   0  0  2  0  0  3  0  0  0  0  0  0
  160.5170  207.5820  152.8190 O   0  0  0  0  0  0  0  0  0  0  0  0
  161.6990  206.9410  153.2010 C   0  0  0  0  0  2  0  0  0  0  0  0
  161.4460  205.4550  153.3920 C   0  0  0  0  0  2  0  0  0  0  0  0
  161.9100  204.3070  151.3880 C   0  0  0  0  0  2  0  0  0  0  0  0
  160.8730  202.2680  150.4530 C   0  0  0  0  0  1  0  0  0  0  0  0
  161.4910  202.8870  151.6910 C   0  0  2  0  0  3  0  0  0  0  0  0
  160.4100  203.5370  152.5250 C   0  0  0  0  0  2  0  0  0  0  0  0
  160.8410  204.8890  152.1910 N   0  0  0  0  0  0  0  0  0  0  0  0
  1  7  1  0  0  0  0
  1  4  1  0  0  0  0
  2  6  1  0  0  0  0
  2  5  2  0  0  0  0
  3  4  2  0  0  0  0
  3 27  1  0  0  0  0
  5  3  1  0  0  0  0
  6  1  2  0  0  0  0
  8 12  1  0  0  0  0
 10 15  2  0  0  0  0
 11  6  1  0  0  0  0
 12 13  1  0  0  0  0
 13 11  2  0  0  0  0
 14  8  2  0  0  0  0
 14 10  1  0  0  0  0
 15 11  1  0  0  0  0
 15  9  1  0  0  0  0
 16 19  1  0  0  0  0
 17 20  1  0  0  0  0
 18 21  1  6  0  0  0
 18 17  1  0  0  0  0
 18 16  1  0  0  0  0
 20  5  1  6  0  0  0
 20 19  1  0  0  0  0
 22 23  1  0  0  0  0
 22 21  1  0  0  0  0
 24 23  1  0  0  0  0
 24 25  1  0  0  0  0
 26 24  2  0  0  0  0
 27 29  1  0  0  0  0
 29 28  1  1  0  0  0
 30 29  1  0  0  0  0
 30 31  1  0  0  0  0
 31 32  1  0  0  0  0
 33 35  1  0  0  0  0
 33 37  1  0  0  0  0
 35 34  1  6  0  0  0
 35 36  1  0  0  0  0
 37 36  1  0  0  0  0
 37 32  1  0  0  0  0
M  END
>  <MODEL>
3

>  <REMARK>
 VINA RESULT:      -6.4      3.091      9.199
  Name = 
  12 active torsions:
  status: ('A' for Active; 'I' for Inactive)
    1  A    between atoms: C_1  and  C_9
    2  A    between atoms: C_1  and  N_13
    3  A    between atoms: C_5  and  N_29
    4  A    between atoms: C_11  and  C_35
    5  A    between atoms: C_12  and  C_20
    6  A    between atoms: N_13  and  C_17
    7  A    between atoms: C_15  and  N_32
    8  A    between atoms: C_15  and  C_37
    9  A    between atoms: C_17  and  C_18
   10  A    between atoms: N_29  and  C_31
   11  A    between atoms: C_31  and  O_34
   12  A    between atoms: O_34  and  C_37
                            x       y       z     vdW  Elec       q    Type
                         _______ _______ _______ _____ _____    ______ ____

>  <TORSDO>
F 12

$$$$
=
 OpenBabel11052410463D

 37 40  0  0  1  0  0  0  0  0999 V2000
  161.8220  207.9330  148.9610 C   0  0  0  0  0  0  0  0  0  0  0  0
  161.2830  208.6810  151.1630 N   0  0  0  0  0  0  0  0  0  0  0  0
  162.0510  210.2770  149.5510 C   0  0  0  0  0  0  0  0  0  0  0  0
  162.1560  209.2420  148.6220 C   0  0  0  0  0  3  0  0  0  0  0  0
  161.5950  209.9700  150.8540 C   0  0  0  0  0  0  0  0  0  0  0  0
  161.3810  207.6570  150.2720 C   0  0  0  0  0  0  0  0  0  0  0  0
  161.8840  206.6880  147.6700 S   0  0  0  0  0  1  0  0  0  0  0  0
  161.1100  203.2320  150.7270 C   0  0  0  0  0  3  0  0  0  0  0  0
  160.8090  206.9900  153.0810 O   0  0  0  0  0  1  0  0  0  0  0  0
  161.3790  204.7660  152.6680 C   0  0  0  0  0  3  0  0  0  0  0  0
  161.0210  206.2950  150.7200 C   0  0  0  0  0  0  0  0  0  0  0  0
  160.0530  204.0750  150.0970 C   0  0  0  0  0  2  0  0  0  0  0  0
  160.5660  205.4420  149.7930 C   0  0  0  0  0  3  0  0  0  0  0  0
  161.6670  203.5400  151.8980 C   0  0  0  0  0  3  0  0  0  0  0  0
  161.0550  205.9680  152.1720 C   0  0  0  0  0  0  0  0  0  0  0  0
  159.3870  210.7790  153.1100 C   0  0  0  0  0  2  0  0  0  0  0  0
  162.0060  210.2870  153.5400 S   0  0  0  0  0  0  0  0  0  0  0  0
  160.3560  210.5820  154.2490 C   0  0  2  0  0  3  0  0  0  0  0  0
  160.1150  211.5800  152.0570 C   0  0  0  0  0  2  0  0  0  0  0  0
  161.5160  211.0060  151.9370 C   0  0  2  0  0  3  0  0  0  0  0  0
  159.9210  209.3980  155.0920 C   0  0  0  0  0  2  0  0  0  0  0  0
  158.9560  209.8280  156.0870 N   0  0  0  0  0  2  0  0  0  0  0  0
  159.5210  210.9930  156.7420 C   0  0  0  0  0  2  0  0  0  0  0  0
  158.4520  211.9950  156.9990 C   0  0  0  0  0  0  0  0  0  0  0  0
  157.2420  211.6520  156.9580 O   0  0  0  0  0  0  0  0  0  0  0  0
  158.7880  213.3170  157.2570 O   0  0  0  0  0  1  0  0  0  0  0  0
  162.4250  211.5960  149.1250 N   0  0  0  0  0  2  0  0  0  0  0  0
  160.6610  213.1140  149.1930 O   0  0  0  0  0  1  0  0  0  0  0  0
  161.5970  212.5100  148.3530 C   0  0  2  0  0  3  0  0  0  0  0  0
  160.9320  211.8010  147.3530 O   0  0  0  0  0  0  0  0  0  0  0  0
  160.7230  212.7350  146.3340 C   0  0  0  0  0  2  0  0  0  0  0  0
  162.0560  213.2190  145.7910 C   0  0  0  0  0  2  0  0  0  0  0  0
  163.0640  213.4400  143.6730 C   0  0  0  0  0  2  0  0  0  0  0  0
  162.1440  212.9820  141.4250 C   0  0  0  0  0  1  0  0  0  0  0  0
  162.3260  212.4300  142.8250 C   0  0  2  0  0  3  0  0  0  0  0  0
  161.1310  212.8040  143.6750 C   0  0  0  0  0  2  0  0  0  0  0  0
  161.8820  213.7810  144.4560 N   0  0  0  0  0  0  0  0  0  0  0  0
  1  6  1  0  0  0  0
  3  5  2  0  0  0  0
  4  1  2  0  0  0  0
  4  3  1  0  0  0  0
  5  2  1  0  0  0  0
  6 11  1  0  0  0  0
  6  2  2  0  0  0  0
  7  1  1  0  0  0  0
  8 14  2  0  0  0  0
 11 15  1  0  0  0  0
 12  8  1  0  0  0  0
 13 12  1  0  0  0  0
 13 11  2  0  0  0  0
 14 10  1  0  0  0  0
 15 10  2  0  0  0  0
 15  9  1  0  0  0  0
 16 18  1  0  0  0  0
 17 18  1  0  0  0  0
 18 21  1  6  0  0  0
 19 16  1  0  0  0  0
 20  5  1  6  0  0  0
 20 19  1  0  0  0  0
 20 17  1  0  0  0  0
 21 22  1  0  0  0  0
 22 23  1  0  0  0  0
 23 24  1  0  0  0  0
 24 26  1  0  0  0  0
 25 24  2  0  0  0  0
 27  3  1  0  0  0  0
 29 27  1  0  0  0  0
 29 28  1  1  0  0  0
 30 29  1  0  0  0  0
 31 30  1  0  0  0  0
 32 31  1  0  0  0  0
 33 37  1  0  0  0  0
 35 34  1  6  0  0  0
 35 33  1  0  0  0  0
 35 36  1  0  0  0  0
 36 37  1  0  0  0  0
 37 32  1  0  0  0  0
M  END
>  <MODEL>
4

>  <REMARK>
 VINA RESULT:      -6.4      1.433      1.614
  Name = 
  12 active torsions:
  status: ('A' for Active; 'I' for Inactive)
    1  A    between atoms: C_1  and  C_9
    2  A    between atoms: C_1  and  N_13
    3  A    between atoms: C_5  and  N_29
    4  A    between atoms: C_11  and  C_35
    5  A    between atoms: C_12  and  C_20
    6  A    between atoms: N_13  and  C_17
    7  A    between atoms: C_15  and  N_32
    8  A    between atoms: C_15  and  C_37
    9  A    between atoms: C_17  and  C_18
   10  A    between atoms: N_29  and  C_31
   11  A    between atoms: C_31  and  O_34
   12  A    between atoms: O_34  and  C_37
                            x       y       z     vdW  Elec       q    Type
                         _______ _______ _______ _____ _____    ______ ____

>  <TORSDO>
F 12

$$$$
=
 OpenBabel11052410463D

 37 40  0  0  1  0  0  0  0  0999 V2000
  160.6050  210.9490  152.2790 C   0  0  0  0  0  0  0  0  0  0  0  0
  161.1460  209.2370  153.8520 N   0  0  0  0  0  0  0  0  0  0  0  0
  161.6910  208.9050  151.5440 C   0  0  0  0  0  0  0  0  0  0  0  0
  161.1450  210.1580  151.2660 C   0  0  0  0  0  3  0  0  0  0  0  0
  161.6870  208.4480  152.8820 C   0  0  0  0  0  0  0  0  0  0  0  0
  160.6060  210.4610  153.6010 C   0  0  0  0  0  0  0  0  0  0  0  0
  160.0260  212.5910  151.8440 S   0  0  0  0  0  1  0  0  0  0  0  0
  159.9290  213.4670  156.8210 C   0  0  0  0  0  3  0  0  0  0  0  0
  157.7140  210.8470  153.9940 O   0  0  0  0  0  1  0  0  0  0  0  0
  158.1420  212.7780  155.2320 C   0  0  0  0  0  3  0  0  0  0  0  0
  160.0410  211.2270  154.7320 C   0  0  0  0  0  0  0  0  0  0  0  0
  160.3710  212.0640  157.0660 C   0  0  0  0  0  2  0  0  0  0  0  0
  160.8250  211.4150  155.8010 C   0  0  0  0  0  3  0  0  0  0  0  0
  158.9030  213.7640  156.0230 C   0  0  0  0  0  3  0  0  0  0  0  0
  158.6120  211.6440  154.6950 C   0  0  0  0  0  0  0  0  0  0  0  0
  160.3270  205.5090  153.2450 C   0  0  0  0  0  2  0  0  0  0  0  0
  162.5120  206.0890  151.7710 S   0  0  0  0  0  0  0  0  0  0  0  0
  161.2460  204.8660  152.2370 C   0  0  2  0  0  3  0  0  0  0  0  0
  161.1960  206.3530  154.1470 C   0  0  0  0  0  2  0  0  0  0  0  0
  162.1900  207.0870  153.2630 C   0  0  2  0  0  3  0  0  0  0  0  0
  160.4500  204.4370  151.0190 C   0  0  0  0  0  2  0  0  0  0  0  0
  161.2760  203.6110  150.1560 N   0  0  0  0  0  2  0  0  0  0  0  0
  161.0470  202.2340  150.5530 C   0  0  0  0  0  2  0  0  0  0  0  0
  160.5810  201.4430  149.3830 C   0  0  0  0  0  0  0  0  0  0  0  0
  159.3520  201.3670  149.1210 O   0  0  0  0  0  1  0  0  0  0  0  0
  161.5000  200.7630  148.5940 O   0  0  0  0  0  0  0  0  0  0  0  0
  162.2170  208.1490  150.4420 N   0  0  0  0  0  2  0  0  0  0  0  0
  160.6020  207.1890  149.0680 O   0  0  0  0  0  1  0  0  0  0  0  0
  161.6610  208.0970  149.0990 C   0  0  2  0  0  3  0  0  0  0  0  0
  162.6480  207.6870  148.2040 O   0  0  0  0  0  0  0  0  0  0  0  0
  162.3140  206.3670  147.8870 C   0  0  0  0  0  2  0  0  0  0  0  0
  162.0650  206.2380  146.3930 C   0  0  0  0  0  2  0  0  0  0  0  0
  161.2270  204.6480  144.8710 C   0  0  0  0  0  2  0  0  0  0  0  0
  160.4510  202.3340  145.2620 C   0  0  0  0  0  1  0  0  0  0  0  0
  161.5680  203.3260  145.5190 C   0  0  2  0  0  3  0  0  0  0  0  0
  161.3050  204.0590  146.8160 C   0  0  0  0  0  2  0  0  0  0  0  0
  160.9680  205.3090  146.1450 N   0  0  0  0  0  0  0  0  0  0  0  0
  1  6  1  0  0  0  0
  3  5  2  0  0  0  0
  4  3  1  0  0  0  0
  4  1  2  0  0  0  0
  5  2  1  0  0  0  0
  6  2  2  0  0  0  0
  6 11  1  0  0  0  0
  7  1  1  0  0  0  0
  8 12  1  0  0  0  0
  9 15  1  0  0  0  0
 10 14  1  0  0  0  0
 11 13  2  0  0  0  0
 13 12  1  0  0  0  0
 14  8  2  0  0  0  0
 15 11  1  0  0  0  0
 15 10  2  0  0  0  0
 16 19  1  0  0  0  0
 17 18  1  0  0  0  0
 17 20  1  0  0  0  0
 18 21  1  6  0  0  0
 18 16  1  0  0  0  0
 20  5  1  6  0  0  0
 20 19  1  0  0  0  0
 22 23  1  0  0  0  0
 22 21  1  0  0  0  0
 24 23  1  0  0  0  0
 25 24  1  0  0  0  0
 26 24  2  0  0  0  0
 27  3  1  0  0  0  0
 29 28  1  1  0  0  0
 29 27  1  0  0  0  0
 30 29  1  0  0  0  0
 31 30  1  0  0  0  0
 32 31  1  0  0  0  0
 33 35  1  0  0  0  0
 33 37  1  0  0  0  0
 35 34  1  6  0  0  0
 35 36  1  0  0  0  0
 37 32  1  0  0  0  0
 37 36  1  0  0  0  0
M  END
>  <MODEL>
5

>  <REMARK>
 VINA RESULT:      -6.1      4.115      7.610
  Name = 
  12 active torsions:
  status: ('A' for Active; 'I' for Inactive)
    1  A    between atoms: C_1  and  C_9
    2  A    between atoms: C_1  and  N_13
    3  A    between atoms: C_5  and  N_29
    4  A    between atoms: C_11  and  C_35
    5  A    between atoms: C_12  and  C_20
    6  A    between atoms: N_13  and  C_17
    7  A    between atoms: C_15  and  N_32
    8  A    between atoms: C_15  and  C_37
    9  A    between atoms: C_17  and  C_18
   10  A    between atoms: N_29  and  C_31
   11  A    between atoms: C_31  and  O_34
   12  A    between atoms: O_34  and  C_37
                            x       y       z     vdW  Elec       q    Type
                         _______ _______ _______ _____ _____    ______ ____

>  <TORSDO>
F 12

$$$$
=
 OpenBabel11052410463D

 37 40  0  0  1  0  0  0  0  0999 V2000
  160.4980  212.5330  150.7960 C   0  0  0  0  0  0  0  0  0  0  0  0
  161.6800  210.7600  149.7200 N   0  0  0  0  0  0  0  0  0  0  0  0
  161.0070  210.4880  152.0030 C   0  0  0  0  0  0  0  0  0  0  0  0
  160.4460  211.7640  151.9570 C   0  0  0  0  0  3  0  0  0  0  0  0
  161.6360  209.9850  150.8400 C   0  0  0  0  0  0  0  0  0  0  0  0
  161.1410  212.0080  149.6560 C   0  0  0  0  0  0  0  0  0  0  0  0
  159.6530  214.1160  150.7970 S   0  0  0  0  0  1  0  0  0  0  0  0
  162.5880  213.6860  145.7900 C   0  0  0  0  0  3  0  0  0  0  0  0
  158.8440  212.5410  147.8940 O   0  0  0  0  0  1  0  0  0  0  0  0
  160.2920  212.7720  146.0790 C   0  0  0  0  0  3  0  0  0  0  0  0
  161.2550  212.7610  148.3890 C   0  0  0  0  0  0  0  0  0  0  0  0
  162.5370  214.4530  147.0680 C   0  0  0  0  0  2  0  0  0  0  0  0
  162.3300  213.5440  148.2320 C   0  0  0  0  0  3  0  0  0  0  0  0
  161.5580  212.9680  145.3460 C   0  0  0  0  0  3  0  0  0  0  0  0
  160.1340  212.7200  147.4090 C   0  0  0  0  0  0  0  0  0  0  0  0
  160.6490  206.8850  150.6570 C   0  0  0  0  0  2  0  0  0  0  0  0
  162.5150  208.0650  149.1020 S   0  0  0  0  0  0  0  0  0  0  0  0
  161.4640  206.6110  149.4160 C   0  0  2  0  0  3  0  0  0  0  0  0
  161.5570  207.6140  151.6170 C   0  0  0  0  0  2  0  0  0  0  0  0
  162.3250  208.6530  150.8180 C   0  0  2  0  0  3  0  0  0  0  0  0
  160.5390  206.3620  148.2410 C   0  0  0  0  0  2  0  0  0  0  0  0
  161.1560  206.8410  147.0160 N   0  0  0  0  0  2  0  0  0  0  0  0
  160.4550  206.2030  145.9180 C   0  0  0  0  0  2  0  0  0  0  0  0
  161.3360  205.1880  145.2800 C   0  0  0  0  0  0  0  0  0  0  0  0
  160.8480  204.3280  144.5010 O   0  0  0  0  0  0  0  0  0  0  0  0
  162.6950  205.1710  145.5660 O   0  0  0  0  0  1  0  0  0  0  0  0
  160.9190  209.7660  153.2400 N   0  0  0  0  0  2  0  0  0  0  0  0
  161.8250  209.6810  155.3830 O   0  0  0  0  0  1  0  0  0  0  0  0
  160.9090  210.3520  154.5720 C   0  0  2  0  0  3  0  0  0  0  0  0
  159.6320  210.2340  155.1210 O   0  0  0  0  0  0  0  0  0  0  0  0
  159.3500  211.5010  155.6390 C   0  0  0  0  0  2  0  0  0  0  0  0
  157.8470  211.7070  155.7200 C   0  0  0  0  0  2  0  0  0  0  0  0
  155.9400  212.4550  154.5580 C   0  0  0  0  0  2  0  0  0  0  0  0
  155.7340  214.1610  152.7810 C   0  0  0  0  0  1  0  0  0  0  0  0
  156.3040  213.8650  154.1540 C   0  0  2  0  0  3  0  0  0  0  0  0
  157.7030  213.3090  154.0120 C   0  0  0  0  0  2  0  0  0  0  0  0
  157.3010  211.9590  154.3910 N   0  0  0  0  0  0  0  0  0  0  0  0
  1  7  1  0  0  0  0
  1  4  1  0  0  0  0
  2  5  2  0  0  0  0
  3 27  1  0  0  0  0
  4  3  2  0  0  0  0
  5  3  1  0  0  0  0
  6  2  1  0  0  0  0
  6  1  2  0  0  0  0
  8 12  1  0  0  0  0
 10 15  2  0  0  0  0
 11  6  1  0  0  0  0
 12 13  1  0  0  0  0
 13 11  2  0  0  0  0
 14  8  2  0  0  0  0
 14 10  1  0  0  0  0
 15  9  1  0  0  0  0
 15 11  1  0  0  0  0
 16 19  1  0  0  0  0
 17 18  1  0  0  0  0
 17 20  1  0  0  0  0
 18 21  1  6  0  0  0
 18 16  1  0  0  0  0
 20  5  1  6  0  0  0
 20 19  1  0  0  0  0
 22 21  1  0  0  0  0
 23 22  1  0  0  0  0
 24 26  1  0  0  0  0
 24 23  1  0  0  0  0
 25 24  2  0  0  0  0
 27 29  1  0  0  0  0
 29 30  1  0  0  0  0
 29 28  1  1  0  0  0
 30 31  1  0  0  0  0
 31 32  1  0  0  0  0
 35 34  1  6  0  0  0
 35 33  1  0  0  0  0
 36 35  1  0  0  0  0
 36 37  1  0  0  0  0
 37 33  1  0  0  0  0
 37 32  1  0  0  0  0
M  END
>  <MODEL>
6

>  <REMARK>
 VINA RESULT:      -6.1      3.055      8.830
  Name = 
  12 active torsions:
  status: ('A' for Active; 'I' for Inactive)
    1  A    between atoms: C_1  and  C_9
    2  A    between atoms: C_1  and  N_13
    3  A    between atoms: C_5  and  N_29
    4  A    between atoms: C_11  and  C_35
    5  A    between atoms: C_12  and  C_20
    6  A    between atoms: N_13  and  C_17
    7  A    between atoms: C_15  and  N_32
    8  A    between atoms: C_15  and  C_37
    9  A    between atoms: C_17  and  C_18
   10  A    between atoms: N_29  and  C_31
   11  A    between atoms: C_31  and  O_34
   12  A    between atoms: O_34  and  C_37
                            x       y       z     vdW  Elec       q    Type
                         _______ _______ _______ _____ _____    ______ ____

>  <TORSDO>
F 12

$$$$
=
 OpenBabel11052410463D

 37 40  0  0  1  0  0  0  0  0999 V2000
  160.5370  207.5600  154.4200 C   0  0  0  0  0  0  0  0  0  0  0  0
  161.4020  208.4120  152.3650 N   0  0  0  0  0  0  0  0  0  0  0  0
  161.4240  206.0470  152.7400 C   0  0  0  0  0  0  0  0  0  0  0  0
  160.8410  206.2710  153.9880 C   0  0  0  0  0  3  0  0  0  0  0  0
  161.7020  207.1610  151.9160 C   0  0  0  0  0  0  0  0  0  0  0  0
  160.8370  208.6520  153.5800 C   0  0  0  0  0  0  0  0  0  0  0  0
  159.6890  207.7420  155.9910 S   0  0  0  0  0  1  0  0  0  0  0  0
  158.8320  212.4380  154.8040 C   0  0  0  0  0  3  0  0  0  0  0  0
  162.6870  210.2630  155.2080 O   0  0  0  0  0  1  0  0  0  0  0  0
  160.9080  211.6070  155.8950 C   0  0  0  0  0  3  0  0  0  0  0  0
  160.5610  210.0520  153.9650 C   0  0  0  0  0  0  0  0  0  0  0  0
  159.3430  212.1690  153.4290 C   0  0  0  0  0  2  0  0  0  0  0  0
  159.6530  210.7220  153.2450 C   0  0  0  0  0  3  0  0  0  0  0  0
  159.5620  212.2140  155.8950 C   0  0  0  0  0  3  0  0  0  0  0  0
  161.3760  210.6920  155.0350 C   0  0  0  0  0  0  0  0  0  0  0  0
  160.8580  207.7090  148.8170 C   0  0  0  0  0  2  0  0  0  0  0  0
  163.0730  208.6260  150.0570 S   0  0  0  0  0  0  0  0  0  0  0  0
  161.9990  208.6690  148.5880 C   0  0  2  0  0  3  0  0  0  0  0  0
  161.4390  206.5070  149.5210 C   0  0  0  0  0  2  0  0  0  0  0  0
  162.3890  207.0220  150.5900 C   0  0  2  0  0  3  0  0  0  0  0  0
  161.4550  210.0680  148.3700 C   0  0  0  0  0  2  0  0  0  0  0  0
  162.2770  211.0330  149.0780 N   0  0  0  0  0  2  0  0  0  0  0  0
  162.5280  212.1250  148.1550 C   0  0  0  0  0  2  0  0  0  0  0  0
  161.4380  213.1320  148.2580 C   0  0  0  0  0  0  0  0  0  0  0  0
  161.0660  213.5470  149.3870 O   0  0  0  0  0  1  0  0  0  0  0  0
  160.8100  213.5950  147.1090 O   0  0  0  0  0  0  0  0  0  0  0  0
  161.7150  204.6890  152.3750 N   0  0  0  0  0  2  0  0  0  0  0  0
  161.2410  202.4100  152.3700 O   0  0  0  0  0  1  0  0  0  0  0  0
  160.7360  203.6670  152.0370 C   0  0  2  0  0  3  0  0  0  0  0  0
  160.4730  203.7120  150.6680 O   0  0  0  0  0  0  0  0  0  0  0  0
  160.9270  202.4850  150.1790 C   0  0  0  0  0  2  0  0  0  0  0  0
  160.3760  202.2440  148.7840 C   0  0  0  0  0  2  0  0  0  0  0  0
  160.8360  202.3930  146.4780 C   0  0  0  0  0  2  0  0  0  0  0  0
  162.3100  203.9540  145.2540 C   0  0  0  0  0  1  0  0  0  0  0  0
  161.2060  203.8460  146.2860 C   0  0  2  0  0  3  0  0  0  0  0  0
  161.8140  203.7240  147.6660 C   0  0  0  0  0  2  0  0  0  0  0  0
  161.4500  202.3180  147.7990 N   0  0  0  0  0  0  0  0  0  0  0  0
  1  7  1  0  0  0  0
  2  6  1  0  0  0  0
  3  4  2  0  0  0  0
  4  1  1  0  0  0  0
  5  2  2  0  0  0  0
  5  3  1  0  0  0  0
  6 11  1  0  0  0  0
  6  1  2  0  0  0  0
  8 14  2  0  0  0  0
 10 14  1  0  0  0  0
 11 15  1  0  0  0  0
 12  8  1  0  0  0  0
 13 12  1  0  0  0  0
 13 11  2  0  0  0  0
 15  9  1  0  0  0  0
 15 10  2  0  0  0  0
 16 19  1  0  0  0  0
 17 20  1  0  0  0  0
 18 21  1  1  0  0  0
 18 16  1  0  0  0  0
 18 17  1  0  0  0  0
 19 20  1  0  0  0  0
 20  5  1  1  0  0  0
 21 22  1  0  0  0  0
 23 24  1  0  0  0  0
 23 22  1  0  0  0  0
 24 25  1  0  0  0  0
 26 24  2  0  0  0  0
 27  3  1  0  0  0  0
 29 28  1  6  0  0  0
 29 27  1  0  0  0  0
 30 29  1  0  0  0  0
 31 30  1  0  0  0  0
 32 31  1  0  0  0  0
 33 37  1  0  0  0  0
 35 34  1  6  0  0  0
 35 33  1  0  0  0  0
 35 36  1  0  0  0  0
 36 37  1  0  0  0  0
 37 32  1  0  0  0  0
M  END
>  <MODEL>
7

>  <REMARK>
 VINA RESULT:      -6.1      2.773      8.162
  Name = 
  12 active torsions:
  status: ('A' for Active; 'I' for Inactive)
    1  A    between atoms: C_1  and  C_9
    2  A    between atoms: C_1  and  N_13
    3  A    between atoms: C_5  and  N_29
    4  A    between atoms: C_11  and  C_35
    5  A    between atoms: C_12  and  C_20
    6  A    between atoms: N_13  and  C_17
    7  A    between atoms: C_15  and  N_32
    8  A    between atoms: C_15  and  C_37
    9  A    between atoms: C_17  and  C_18
   10  A    between atoms: N_29  and  C_31
   11  A    between atoms: C_31  and  O_34
   12  A    between atoms: O_34  and  C_37
                            x       y       z     vdW  Elec       q    Type
                         _______ _______ _______ _____ _____    ______ ____

>  <TORSDO>
F 12

$$$$
=
 OpenBabel11052410463D

 37 40  0  0  1  0  0  0  0  0999 V2000
  161.0390  209.1910  152.3730 C   0  0  0  0  0  0  0  0  0  0  0  0
  161.2010  211.3270  151.3210 N   0  0  0  0  0  0  0  0  0  0  0  0
  161.8350  209.3750  150.0860 C   0  0  0  0  0  0  0  0  0  0  0  0
  161.5170  208.6030  151.2040 C   0  0  0  0  0  3  0  0  0  0  0  0
  161.6620  210.7760  150.1630 C   0  0  0  0  0  0  0  0  0  0  0  0
  160.8890  210.5910  152.4230 C   0  0  0  0  0  0  0  0  0  0  0  0
  160.5520  208.1090  153.7200 S   0  0  0  0  0  1  0  0  0  0  0  0
  158.3310  212.2310  155.6820 C   0  0  0  0  0  3  0  0  0  0  0  0
  162.4760  210.8370  154.8900 O   0  0  0  0  0  1  0  0  0  0  0  0
  160.5150  211.1230  156.1210 C   0  0  0  0  0  3  0  0  0  0  0  0
  160.4030  211.2970  153.6270 C   0  0  0  0  0  0  0  0  0  0  0  0
  158.8710  213.0430  154.5540 C   0  0  0  0  0  2  0  0  0  0  0  0
  159.3980  212.1690  153.4670 C   0  0  0  0  0  3  0  0  0  0  0  0
  159.0920  211.4030  156.3960 C   0  0  0  0  0  3  0  0  0  0  0  0
  161.1140  211.1130  154.9230 C   0  0  0  0  0  0  0  0  0  0  0  0
  160.0860  212.0920  147.6330 C   0  0  0  0  0  2  0  0  0  0  0  0
  161.5970  213.4130  149.4380 S   0  0  0  0  0  0  0  0  0  0  0  0
  160.4270  213.5020  148.0470 C   0  0  2  0  0  3  0  0  0  0  0  0
  161.3600  211.2910  147.7390 C   0  0  0  0  0  2  0  0  0  0  0  0
  162.0430  211.6910  149.0360 C   0  0  2  0  0  3  0  0  0  0  0  0
  159.1640  214.2330  148.4620 C   0  0  0  0  0  2  0  0  0  0  0  0
  158.0810  213.2830  148.6440 N   0  0  0  0  0  2  0  0  0  0  0  0
  156.8590  214.0580  148.7540 C   0  0  0  0  0  2  0  0  0  0  0  0
  156.2770  213.8890  150.1130 C   0  0  0  0  0  0  0  0  0  0  0  0
  155.0580  214.1290  150.3120 O   0  0  0  0  0  0  0  0  0  0  0  0
  157.0860  213.4930  151.1700 O   0  0  0  0  0  1  0  0  0  0  0  0
  162.3300  208.6930  148.9240 N   0  0  0  0  0  2  0  0  0  0  0  0
  162.7930  206.9700  147.4280 O   0  0  0  0  0  1  0  0  0  0  0  0
  162.0650  207.3070  148.5700 C   0  0  2  0  0  3  0  0  0  0  0  0
  160.7030  207.1460  148.3150 O   0  0  0  0  0  0  0  0  0  0  0  0
  160.4980  205.7640  148.3410 C   0  0  0  0  0  2  0  0  0  0  0  0
  160.7380  205.2290  149.7420 C   0  0  0  0  0  2  0  0  0  0  0  0
  160.7490  202.9530  150.3480 C   0  0  0  0  0  2  0  0  0  0  0  0
  161.2090  200.9500  148.9750 C   0  0  0  0  0  1  0  0  0  0  0  0
  160.4220  202.2430  149.0540 C   0  0  2  0  0  3  0  0  0  0  0  0
  161.2160  203.3580  148.4100 C   0  0  0  0  0  2  0  0  0  0  0  0
  161.5190  203.9980  149.6840 N   0  0  0  0  0  0  0  0  0  0  0  0
  1  6  1  0  0  0  0
  1  7  1  0  0  0  0
  2  6  2  0  0  0  0
  3  5  2  0  0  0  0
  3  4  1  0  0  0  0
  4  1  2  0  0  0  0
  5  2  1  0  0  0  0
  6 11  1  0  0  0  0
  8 14  2  0  0  0  0
  9 15  1  0  0  0  0
 10 14  1  0  0  0  0
 11 15  1  0  0  0  0
 12  8  1  0  0  0  0
 13 11  2  0  0  0  0
 13 12  1  0  0  0  0
 15 10  2  0  0  0  0
 16 19  1  0  0  0  0
 16 18  1  0  0  0  0
 18 21  1  1  0  0  0
 18 17  1  0  0  0  0
 19 20  1  0  0  0  0
 20 17  1  0  0  0  0
 20  5  1  1  0  0  0
 21 22  1  0  0  0  0
 22 23  1  0  0  0  0
 23 24  1  0  0  0  0
 24 25  2  0  0  0  0
 24 26  1  0  0  0  0
 27  3  1  0  0  0  0
 29 28  1  6  0  0  0
 29 27  1  0  0  0  0
 30 31  1  0  0  0  0
 30 29  1  0  0  0  0
 31 32  1  0  0  0  0
 35 34  1  1  0  0  0
 35 33  1  0  0  0  0
 36 35  1  0  0  0  0
 36 37  1  0  0  0  0
 37 32  1  0  0  0  0
 37 33  1  0  0  0  0
M  END
>  <MODEL>
8

>  <REMARK>
 VINA RESULT:      -6.0      3.183      7.805
  Name = 
  12 active torsions:
  status: ('A' for Active; 'I' for Inactive)
    1  A    between atoms: C_1  and  C_9
    2  A    between atoms: C_1  and  N_13
    3  A    between atoms: C_5  and  N_29
    4  A    between atoms: C_11  and  C_35
    5  A    between atoms: C_12  and  C_20
    6  A    between atoms: N_13  and  C_17
    7  A    between atoms: C_15  and  N_32
    8  A    between atoms: C_15  and  C_37
    9  A    between atoms: C_17  and  C_18
   10  A    between atoms: N_29  and  C_31
   11  A    between atoms: C_31  and  O_34
   12  A    between atoms: O_34  and  C_37
                            x       y       z     vdW  Elec       q    Type
                         _______ _______ _______ _____ _____    ______ ____

>  <TORSDO>
F 12

$$$$
=
 OpenBabel11052410463D

 37 40  0  0  1  0  0  0  0  0999 V2000
  161.3170  206.8410  147.8260 C   0  0  0  0  0  0  0  0  0  0  0  0
  161.7930  206.5970  150.1530 N   0  0  0  0  0  0  0  0  0  0  0  0
  161.7690  208.7930  149.1980 C   0  0  0  0  0  0  0  0  0  0  0  0
  161.4620  208.2200  147.9630 C   0  0  0  0  0  3  0  0  0  0  0  0
  161.9320  207.9430  150.3150 C   0  0  0  0  0  0  0  0  0  0  0  0
  161.4970  206.0180  148.9570 C   0  0  0  0  0  0  0  0  0  0  0  0
  160.8140  206.2030  146.2260 S   0  0  0  0  0  1  0  0  0  0  0  0
  159.9330  201.8460  149.0130 C   0  0  0  0  0  3  0  0  0  0  0  0
  163.0710  204.3520  147.1090 O   0  0  0  0  0  1  0  0  0  0  0  0
  161.4380  202.6890  147.2200 C   0  0  0  0  0  3  0  0  0  0  0  0
  161.3770  204.5460  148.8970 C   0  0  0  0  0  0  0  0  0  0  0  0
  160.7530  202.4470  150.1040 C   0  0  0  0  0  2  0  0  0  0  0  0
  160.8400  203.9280  149.9570 C   0  0  0  0  0  3  0  0  0  0  0  0
  160.2760  201.9350  147.7290 C   0  0  0  0  0  3  0  0  0  0  0  0
  161.9590  203.8090  147.7410 C   0  0  0  0  0  0  0  0  0  0  0  0
  161.3700  210.6880  151.9790 C   0  0  0  0  0  2  0  0  0  0  0  0
  161.0000  208.1690  152.8770 S   0  0  0  0  0  0  0  0  0  0  0  0
  160.7630  209.9530  153.1490 C   0  0  2  0  0  3  0  0  0  0  0  0
  162.6380  209.9520  151.6180 C   0  0  0  0  0  2  0  0  0  0  0  0
  162.3300  208.4650  151.6640 C   0  0  2  0  0  3  0  0  0  0  0  0
  159.2860  210.2830  153.2490 C   0  0  0  0  0  2  0  0  0  0  0  0
  159.0750  211.3010  154.2630 N   0  0  0  0  0  2  0  0  0  0  0  0
  157.7880  211.9100  153.9820 C   0  0  0  0  0  2  0  0  0  0  0  0
  156.7960  211.4880  155.0070 C   0  0  0  0  0  0  0  0  0  0  0  0
  155.7020  210.9770  154.6540 O   0  0  0  0  0  0  0  0  0  0  0  0
  157.0660  211.6840  156.3550 O   0  0  0  0  0  1  0  0  0  0  0  0
  161.9100  210.2210  149.2510 N   0  0  0  0  0  2  0  0  0  0  0  0
  162.9330  212.2040  148.5870 O   0  0  0  0  0  1  0  0  0  0  0  0
  162.2270  211.0910  148.1290 C   0  0  2  0  0  3  0  0  0  0  0  0
  161.0450  211.5110  147.5200 O   0  0  0  0  0  0  0  0  0  0  0  0
  160.8090  212.7850  148.0450 C   0  0  0  0  0  2  0  0  0  0  0  0
  159.8820  213.5630  147.1260 C   0  0  0  0  0  2  0  0  0  0  0  0
  157.6100  214.1460  147.3410 C   0  0  0  0  0  2  0  0  0  0  0  0
  156.1390  214.0850  149.3270 C   0  0  0  0  0  1  0  0  0  0  0  0
  157.1380  213.2990  148.5000 C   0  0  2  0  0  3  0  0  0  0  0  0
  158.5310  213.5220  149.0440 C   0  0  0  0  0  2  0  0  0  0  0  0
  158.9360  214.3480  147.9120 N   0  0  0  0  0  0  0  0  0  0  0  0
  1  4  2  0  0  0  0
  1  6  1  0  0  0  0
  2  5  1  0  0  0  0
  3 27  1  0  0  0  0
  3  5  2  0  0  0  0
  4  3  1  0  0  0  0
  6  2  2  0  0  0  0
  7  1  1  0  0  0  0
  8 12  1  0  0  0  0
  9 15  1  0  0  0  0
 10 14  1  0  0  0  0
 10 15  2  0  0  0  0
 11  6  1  0  0  0  0
 11 13  2  0  0  0  0
 13 12  1  0  0  0  0
 14  8  2  0  0  0  0
 15 11  1  0  0  0  0
 16 18  1  0  0  0  0
 17 18  1  0  0  0  0
 18 21  1  6  0  0  0
 19 20  1  0  0  0  0
 19 16  1  0  0  0  0
 20  5  1  6  0  0  0
 20 17  1  0  0  0  0
 21 22  1  0  0  0  0
 23 22  1  0  0  0  0
 23 24  1  0  0  0  0
 24 26  1  0  0  0  0
 25 24  2  0  0  0  0
 29 28  1  1  0  0  0
 29 27  1  0  0  0  0
 30 31  1  0  0  0  0
 30 29  1  0  0  0  0
 32 37  1  0  0  0  0
 32 31  1  0  0  0  0
 33 37  1  0  0  0  0
 33 35  1  0  0  0  0
 35 36  1  0  0  0  0
 35 34  1  1  0  0  0
 37 36  1  0  0  0  0
M  END
>  <MODEL>
9

>  <REMARK>
 VINA RESULT:      -5.9      3.101      4.215
  Name = 
  12 active torsions:
  status: ('A' for Active; 'I' for Inactive)
    1  A    between atoms: C_1  and  C_9
    2  A    between atoms: C_1  and  N_13
    3  A    between atoms: C_5  and  N_29
    4  A    between atoms: C_11  and  C_35
    5  A    between atoms: C_12  and  C_20
    6  A    between atoms: N_13  and  C_17
    7  A    between atoms: C_15  and  N_32
    8  A    between atoms: C_15  and  C_37
    9  A    between atoms: C_17  and  C_18
   10  A    between atoms: N_29  and  C_31
   11  A    between atoms: C_31  and  O_34
   12  A    between atoms: O_34  and  C_37
                            x       y       z     vdW  Elec       q    Type
                         _______ _______ _______ _____ _____    ______ ____

>  <TORSDO>
F 12

$$$$
