=
 OpenBabel11042420033D

 42 48  0  0  1  0  0  0  0  0999 V2000
  161.0900  206.2040  149.1040 C   0  0  0  0  0  0  0  0  0  0  0  0
  161.0630  204.8400  148.7700 C   0  0  0  0  0  3  0  0  0  0  0  0
  161.2180  206.5890  150.4610 C   0  0  0  0  0  0  0  0  0  0  0  0
  161.1380  203.8600  149.7610 C   0  0  0  0  0  3  0  0  0  0  0  0
  161.2780  205.5880  151.4470 C   0  0  0  0  0  3  0  0  0  0  0  0
  161.2300  204.2320  151.1080 C   0  0  0  0  0  0  0  0  0  0  0  0
  160.4130  210.4860  153.2190 C   0  0  1  0  0  0  0  0  0  0  0  0
  158.6750  212.0020  153.9480 C   0  0  1  0  0  0  0  0  0  0  0  0
  161.3220  208.0160  150.8740 C   0  0  0  0  0  0  0  0  0  0  0  0
  161.8970  211.2060  151.2620 C   0  0  0  0  0  2  0  0  0  0  0  0
  160.5600  211.3980  151.9770 C   0  0  0  0  0  2  0  0  0  0  0  0
  157.3670  211.2840  154.4350 C   0  0  1  0  0  3  0  0  0  0  0  0
  157.6070  212.4310  156.0610 C   0  0  2  0  0  3  0  0  0  0  0  0
  160.2120  209.0080  153.0080 C   0  0  0  0  0  3  0  0  0  0  0  0
  161.2780  210.9350  154.3420 C   0  0  1  0  0  3  0  0  0  0  0  0
  159.0860  212.6300  156.3090 C   0  0  0  0  0  2  0  0  0  0  0  0
  157.3780  211.0650  155.8310 O   0  0  0  0  0  0  0  0  0  0  0  0
  161.7350  210.3540  150.0060 C   0  0  0  0  0  2  0  0  0  0  0  0
  159.7320  212.4550  154.9330 C   0  0  1  0  0  3  0  0  0  0  0  0
  160.7440  208.4420  151.9650 C   0  0  0  0  0  0  0  0  0  0  0  0
  162.3020  208.9460  150.2120 C   0  0  0  0  0  2  0  0  0  0  0  0
  159.7480  211.0060  154.5340 C   0  0  1  0  0  0  0  0  0  0  0  0
  157.5010  212.7320  154.6070 C   0  0  1  0  0  3  0  0  0  0  0  0
  162.4880  210.3860  156.4390 C   0  0  0  0  0  1  0  0  0  0  0  0
  161.8460  209.8070  155.1950 C   0  0  0  0  0  2  0  0  0  0  0  0
  161.3270  203.2030  152.1990 C   0  0  1  0  0  3  0  0  0  0  0  0
  159.9710  202.9180  152.8400 C   0  0  0  0  0  1  0  0  0  0  0  0
  161.3640  201.2410  150.9910 O   0  0  0  0  0  0  0  0  0  0  0  0
  161.9440  201.9830  151.7270 N   0  0  0  0  0  0  0  0  0  0  0  0
  160.9470  207.1920  148.0780 N   0  0  0  0  0  2  0  0  0  0  0  0
  161.5560  207.0810  146.7600 C   0  0  0  0  0  2  0  0  0  0  0  0
  160.6880  206.2090  145.8660 C   0  0  0  0  0  2  0  0  0  0  0  0
  161.5220  205.5070  144.8020 C   0  0  0  0  0  2  0  0  0  0  0  0
  162.0960  204.1960  145.3240 C   0  0  0  0  0  2  0  0  0  0  0  0
  161.0870  203.4640  146.2020 C   0  0  0  0  0  2  0  0  0  0  0  0
  161.0760  201.9680  145.9030 C   0  0  0  0  0  3  0  0  0  0  0  0
  160.8820  201.1640  147.1510 C   0  0  0  0  0  0  0  0  0  0  0  0
  160.0500  201.5460  148.0130 O   0  0  0  0  0  1  0  0  0  0  0  0
  161.6130  200.0010  147.3640 O   0  0  0  0  0  0  0  0  0  0  0  0
  159.8530  200.4470  144.5390 O   0  0  0  0  0  1  0  0  0  0  0  0
  159.2220  202.6430  144.3630 O   0  0  0  0  0  0  0  0  0  0  0  0
  160.0250  201.6420  144.8950 C   0  0  0  0  0  0  0  0  0  0  0  0
  1  3  1  0  0  0  0
  2  1  2  0  0  0  0
  2  4  1  0  0  0  0
  3  9  1  0  0  0  0
  3  5  2  0  0  0  0
  4  6  2  0  0  0  0
  6  5  1  0  0  0  0
  6 26  1  0  0  0  0
  7 11  1  6  0  0  0
  7 15  1  0  0  0  0
  7 22  1  0  0  0  0
  8 12  1  0  0  0  0
  8 22  1  0  0  0  0
  8 23  1  0  0  0  0
  8 19  1  0  0  0  0
  9 20  2  0  0  0  0
 10 11  1  0  0  0  0
 12 23  1  0  0  0  0
 12 17  1  0  0  0  0
 13 16  1  0  0  0  0
 14  7  1  0  0  0  0
 15 22  1  0  0  0  0
 15 25  1  0  0  0  0
 17 13  1  0  0  0  0
 18 21  1  0  0  0  0
 18 10  1  0  0  0  0
 19 16  1  0  0  0  0
 20 14  2  0  0  0  0
 21  9  1  0  0  0  0
 22 19  1  0  0  0  0
 23 13  1  0  0  0  0
 25 24  1  0  0  0  0
 26 27  1  0  0  0  0
 28 29  2  0  0  0  0
 29 26  1  0  0  0  0
 30  1  1  0  0  0  0
 31 30  1  0  0  0  0
 32 31  1  0  0  0  0
 33 34  1  0  0  0  0
 33 32  1  0  0  0  0
 34 35  1  0  0  0  0
 36 35  1  0  0  0  0
 36 37  1  0  0  0  0
 37 39  2  0  0  0  0
 37 38  1  0  0  0  0
 40 42  1  0  0  0  0
 41 42  2  0  0  0  0
 42 36  1  0  0  0  0
M  END
>  <MODEL>
1

>  <REMARK>
 VINA RESULT:      -6.1      0.000      0.000
  Name = 
  13 active torsions:
  status: ('A' for Active; 'I' for Inactive)
    1  A    between atoms: C_1  and  C_18
    2  A    between atoms: C_1  and  C_21
    3  A    between atoms: C_3  and  C_5
    4  A    between atoms: C_3  and  C_16
    5  A    between atoms: C_3  and  C_34
    6  A    between atoms: C_6  and  N_24
    7  A    between atoms: C_8  and  C_23
    8  A    between atoms: C_15  and  C_29
    9  A    between atoms: C_16  and  C_41
   10  A    between atoms: C_18  and  C_41
   11  A    between atoms: C_21  and  N_24
   12  A    between atoms: N_25  and  C_31
   13  A    between atoms: C_31  and  C_38
                            x       y       z     vdW  Elec       q    Type
                         _______ _______ _______ _____ _____    ______ ____

>  <TORSDO>
F 13

$$$$
=
 OpenBabel11042420033D

 42 48  0  0  1  0  0  0  0  0999 V2000
  161.1810  207.3100  149.2210 C   0  0  0  0  0  0  0  0  0  0  0  0
  161.0830  206.2230  148.3370 C   0  0  0  0  0  3  0  0  0  0  0  0
  161.2830  207.0730  150.6130 C   0  0  0  0  0  0  0  0  0  0  0  0
  161.0620  204.9120  148.8180 C   0  0  0  0  0  3  0  0  0  0  0  0
  161.2460  205.7460  151.0790 C   0  0  0  0  0  3  0  0  0  0  0  0
  161.1270  204.6690  150.1950 C   0  0  0  0  0  0  0  0  0  0  0  0
  160.0520  210.0210  154.2510 C   0  0  1  0  0  0  0  0  0  0  0  0
  158.5170  211.7880  154.8610 C   0  0  1  0  0  0  0  0  0  0  0  0
  161.4580  208.1780  151.5940 C   0  0  0  0  0  0  0  0  0  0  0  0
  162.3980  210.6790  153.4700 C   0  0  0  0  0  2  0  0  0  0  0  0
  160.9510  211.1320  153.6570 C   0  0  0  0  0  2  0  0  0  0  0  0
  157.0220  211.4900  154.4850 C   0  0  1  0  0  3  0  0  0  0  0  0
  156.6800  211.9490  156.4050 C   0  0  2  0  0  3  0  0  0  0  0  0
  159.6870  208.8470  153.3790 C   0  0  0  0  0  3  0  0  0  0  0  0
  160.3460  209.7790  155.6880 C   0  0  1  0  0  3  0  0  0  0  0  0
  157.8660  211.5140  157.2350 C   0  0  0  0  0  2  0  0  0  0  0  0
  156.3220  210.8910  155.5560 O   0  0  0  0  0  0  0  0  0  0  0  0
  162.6890  210.3470  152.0100 C   0  0  0  0  0  2  0  0  0  0  0  0
  159.0410  211.5190  156.2550 C   0  0  1  0  0  3  0  0  0  0  0  0
  160.5270  208.4530  152.4690 C   0  0  0  0  0  0  0  0  0  0  0  0
  162.7980  208.8340  151.7950 C   0  0  0  0  0  2  0  0  0  0  0  0
  158.9580  210.3450  155.3190 C   0  0  1  0  0  0  0  0  0  0  0  0
  157.3420  212.6730  155.2870 C   0  0  1  0  0  3  0  0  0  0  0  0
  161.5640  207.7630  156.4710 C   0  0  0  0  0  1  0  0  0  0  0  0
  160.2010  208.3270  156.1280 C   0  0  0  0  0  2  0  0  0  0  0  0
  161.1210  203.2710  150.7450 C   0  0  1  0  0  3  0  0  0  0  0  0
  160.7420  203.2390  152.2230 C   0  0  0  0  0  1  0  0  0  0  0  0
  160.5880  201.2730  149.7280 O   0  0  0  0  0  0  0  0  0  0  0  0
  160.2650  202.3980  149.9710 N   0  0  0  0  0  0  0  0  0  0  0  0
  161.1360  208.6480  148.7110 N   0  0  0  0  0  2  0  0  0  0  0  0
  162.3170  209.4780  148.5210 C   0  0  0  0  0  2  0  0  0  0  0  0
  161.9520  210.9410  148.7170 C   0  0  0  0  0  2  0  0  0  0  0  0
  162.8900  211.8540  147.9380 C   0  0  0  0  0  2  0  0  0  0  0  0
  162.1250  212.9710  147.2410 C   0  0  0  0  0  2  0  0  0  0  0  0
  160.6420  212.6380  147.1330 C   0  0  0  0  0  2  0  0  0  0  0  0
  159.9650  213.4710  146.0480 C   0  0  0  0  0  3  0  0  0  0  0  0
  160.4260  213.0660  144.6830 C   0  0  0  0  0  0  0  0  0  0  0  0
  161.2460  213.7920  144.0640 O   0  0  0  0  0  0  0  0  0  0  0  0
  159.9560  211.8980  144.0940 O   0  0  0  0  0  1  0  0  0  0  0  0
  157.7510  213.9800  145.3350 O   0  0  0  0  0  0  0  0  0  0  0  0
  157.8970  212.5840  147.1460 O   0  0  0  0  0  1  0  0  0  0  0  0
  158.4800  213.3670  146.1570 C   0  0  0  0  0  0  0  0  0  0  0  0
  1  3  1  0  0  0  0
  2  4  1  0  0  0  0
  2  1  2  0  0  0  0
  3  5  2  0  0  0  0
  3  9  1  0  0  0  0
  4  6  2  0  0  0  0
  6 26  1  0  0  0  0
  6  5  1  0  0  0  0
  7 14  1  6  0  0  0
  7 22  1  0  0  0  0
  7 15  1  0  0  0  0
  8 23  1  0  0  0  0
  8 22  1  0  0  0  0
  8 19  1  0  0  0  0
  9 21  1  0  0  0  0
  9 20  2  0  0  0  0
 10 11  1  0  0  0  0
 11  7  1  0  0  0  0
 12  8  1  0  0  0  0
 12 23  1  0  0  0  0
 12 17  1  0  0  0  0
 13 16  1  0  0  0  0
 15 25  1  0  0  0  0
 17 13  1  0  0  0  0
 18 10  1  0  0  0  0
 19 16  1  0  0  0  0
 20 14  2  0  0  0  0
 21 18  1  0  0  0  0
 22 15  1  0  0  0  0
 22 19  1  0  0  0  0
 23 13  1  0  0  0  0
 25 24  1  0  0  0  0
 26 27  1  0  0  0  0
 28 29  2  0  0  0  0
 29 26  1  0  0  0  0
 30  1  1  0  0  0  0
 31 30  1  0  0  0  0
 31 32  1  0  0  0  0
 33 32  1  0  0  0  0
 34 33  1  0  0  0  0
 35 34  1  0  0  0  0
 36 42  1  0  0  0  0
 36 35  1  0  0  0  0
 37 36  1  0  0  0  0
 38 37  2  0  0  0  0
 39 37  1  0  0  0  0
 40 42  2  0  0  0  0
 42 41  1  0  0  0  0
M  END
>  <MODEL>
2

>  <REMARK>
 VINA RESULT:      -5.9      3.789      5.712
  Name = 
  13 active torsions:
  status: ('A' for Active; 'I' for Inactive)
    1  A    between atoms: C_1  and  C_18
    2  A    between atoms: C_1  and  C_21
    3  A    between atoms: C_3  and  C_5
    4  A    between atoms: C_3  and  C_16
    5  A    between atoms: C_3  and  C_34
    6  A    between atoms: C_6  and  N_24
    7  A    between atoms: C_8  and  C_23
    8  A    between atoms: C_15  and  C_29
    9  A    between atoms: C_16  and  C_41
   10  A    between atoms: C_18  and  C_41
   11  A    between atoms: C_21  and  N_24
   12  A    between atoms: N_25  and  C_31
   13  A    between atoms: C_31  and  C_38
                            x       y       z     vdW  Elec       q    Type
                         _______ _______ _______ _____ _____    ______ ____

>  <TORSDO>
F 13

$$$$
=
 OpenBabel11042420033D

 42 48  0  0  1  0  0  0  0  0999 V2000
  157.5320  213.1100  153.3320 C   0  0  0  0  0  0  0  0  0  0  0  0
  156.3100  213.7800  153.5080 C   0  0  0  0  0  3  0  0  0  0  0  0
  158.0280  212.2760  154.3640 C   0  0  0  0  0  0  0  0  0  0  0  0
  155.5920  213.6520  154.6990 C   0  0  0  0  0  3  0  0  0  0  0  0
  157.2960  212.1710  155.5600 C   0  0  0  0  0  3  0  0  0  0  0  0
  156.0920  212.8580  155.7370 C   0  0  0  0  0  0  0  0  0  0  0  0
  161.1960  209.3570  152.1550 C   0  0  1  0  0  0  0  0  0  0  0  0
  161.4940  207.0950  151.3530 C   0  0  1  0  0  0  0  0  0  0  0  0
  159.2800  211.4860  154.2100 C   0  0  0  0  0  0  0  0  0  0  0  0
  162.1550  209.9570  154.4510 C   0  0  0  0  0  2  0  0  0  0  0  0
  161.6780  208.8350  153.5300 C   0  0  0  0  0  2  0  0  0  0  0  0
  160.2820  206.5520  150.5150 C   0  0  1  0  0  3  0  0  0  0  0  0
  161.6990  206.1080  149.1680 C   0  0  2  0  0  3  0  0  0  0  0  0
  159.8960  210.1150  152.0860 C   0  0  0  0  0  3  0  0  0  0  0  0
  162.3300  209.8090  151.3060 C   0  0  1  0  0  3  0  0  0  0  0  0
  162.7950  207.1460  149.2450 C   0  0  0  0  0  2  0  0  0  0  0  0
  160.4630  206.7710  149.1300 O   0  0  0  0  0  0  0  0  0  0  0  0
  161.1010  210.2980  155.5000 C   0  0  0  0  0  2  0  0  0  0  0  0
  162.7120  207.6860  150.6750 C   0  0  1  0  0  3  0  0  0  0  0  0
  159.5270  210.8270  153.1090 C   0  0  0  0  0  0  0  0  0  0  0  0
  160.4150  211.6320  155.1880 C   0  0  0  0  0  2  0  0  0  0  0  0
  161.5170  208.5840  150.8350 C   0  0  1  0  0  0  0  0  0  0  0  0
  161.5100  205.7600  150.6030 C   0  0  1  0  0  3  0  0  0  0  0  0
  162.2600  210.6290  148.9640 C   0  0  0  0  0  1  0  0  0  0  0  0
  162.0170  211.0020  150.4110 C   0  0  0  0  0  2  0  0  0  0  0  0
  155.3360  212.6860  157.0250 C   0  0  1  0  0  3  0  0  0  0  0  0
  154.0990  213.5770  157.0870 C   0  0  0  0  0  1  0  0  0  0  0  0
  154.7620  210.5590  156.3490 O   0  0  0  0  0  0  0  0  0  0  0  0
  154.9900  211.3010  157.2580 N   0  0  0  0  0  0  0  0  0  0  0  0
  158.2840  213.3060  152.1290 N   0  0  0  0  0  2  0  0  0  0  0  0
  157.8680  214.1930  151.0530 C   0  0  0  0  0  2  0  0  0  0  0  0
  158.5860  213.8130  149.7670 C   0  0  0  0  0  2  0  0  0  0  0  0
  160.0500  214.2330  149.8070 C   0  0  0  0  0  2  0  0  0  0  0  0
  160.6030  214.4480  148.4050 C   0  0  0  0  0  2  0  0  0  0  0  0
  160.0900  213.3850  147.4410 C   0  0  0  0  0  2  0  0  0  0  0  0
  160.3610  213.7750  145.9910 C   0  0  0  0  0  3  0  0  0  0  0  0
  161.7940  213.5480  145.6240 C   0  0  0  0  0  0  0  0  0  0  0  0
  162.2380  214.0060  144.5400 O   0  0  0  0  0  0  0  0  0  0  0  0
  162.6370  212.8360  146.4700 O   0  0  0  0  0  1  0  0  0  0  0  0
  158.2850  213.4510  144.8720 O   0  0  0  0  0  1  0  0  0  0  0  0
  159.8960  211.8890  144.4120 O   0  0  0  0  0  0  0  0  0  0  0  0
  159.4540  213.0300  145.0690 C   0  0  0  0  0  0  0  0  0  0  0  0
  1  2  2  0  0  0  0
  1  3  1  0  0  0  0
  2  4  1  0  0  0  0
  3  5  2  0  0  0  0
  4  6  2  0  0  0  0
  5  6  1  0  0  0  0
  6 26  1  0  0  0  0
  7 14  1  6  0  0  0
  7 11  1  0  0  0  0
  9  3  1  0  0  0  0
  9 21  1  0  0  0  0
 10 18  1  0  0  0  0
 11 10  1  0  0  0  0
 12 23  1  0  0  0  0
 12  8  1  0  0  0  0
 13 16  1  0  0  0  0
 13 23  1  0  0  0  0
 14 20  2  0  0  0  0
 15  7  1  0  0  0  0
 16 19  1  0  0  0  0
 17 13  1  0  0  0  0
 17 12  1  0  0  0  0
 19 22  1  0  0  0  0
 19  8  1  0  0  0  0
 20  9  2  0  0  0  0
 21 18  1  0  0  0  0
 22 15  1  0  0  0  0
 22  8  1  0  0  0  0
 22  7  1  0  0  0  0
 23  8  1  0  0  0  0
 24 25  1  0  0  0  0
 25 15  1  0  0  0  0
 26 27  1  0  0  0  0
 26 29  1  0  0  0  0
 28 29  2  0  0  0  0
 30  1  1  0  0  0  0
 31 30  1  0  0  0  0
 32 33  1  0  0  0  0
 32 31  1  0  0  0  0
 34 33  1  0  0  0  0
 35 34  1  0  0  0  0
 36 35  1  0  0  0  0
 37 36  1  0  0  0  0
 37 39  1  0  0  0  0
 38 37  2  0  0  0  0
 40 42  1  0  0  0  0
 41 42  2  0  0  0  0
 42 36  1  0  0  0  0
M  END
>  <MODEL>
3

>  <REMARK>
 VINA RESULT:      -4.9      4.699      9.188
  Name = 
  13 active torsions:
  status: ('A' for Active; 'I' for Inactive)
    1  A    between atoms: C_1  and  C_18
    2  A    between atoms: C_1  and  C_21
    3  A    between atoms: C_3  and  C_5
    4  A    between atoms: C_3  and  C_16
    5  A    between atoms: C_3  and  C_34
    6  A    between atoms: C_6  and  N_24
    7  A    between atoms: C_8  and  C_23
    8  A    between atoms: C_15  and  C_29
    9  A    between atoms: C_16  and  C_41
   10  A    between atoms: C_18  and  C_41
   11  A    between atoms: C_21  and  N_24
   12  A    between atoms: N_25  and  C_31
   13  A    between atoms: C_31  and  C_38
                            x       y       z     vdW  Elec       q    Type
                         _______ _______ _______ _____ _____    ______ ____

>  <TORSDO>
F 13

$$$$
=
 OpenBabel11042420033D

 42 48  0  0  1  0  0  0  0  0999 V2000
  161.0160  205.6010  150.2440 C   0  0  0  0  0  0  0  0  0  0  0  0
  160.7310  204.6150  149.2850 C   0  0  0  0  0  3  0  0  0  0  0  0
  161.3790  206.9030  149.8220 C   0  0  0  0  0  0  0  0  0  0  0  0
  160.8240  204.8980  147.9210 C   0  0  0  0  0  3  0  0  0  0  0  0
  161.4810  207.1650  148.4440 C   0  0  0  0  0  3  0  0  0  0  0  0
  161.2160  206.1720  147.4950 C   0  0  0  0  0  0  0  0  0  0  0  0
  160.4960  209.7470  153.6390 C   0  0  1  0  0  0  0  0  0  0  0  0
  158.9650  211.4200  154.4790 C   0  0  1  0  0  0  0  0  0  0  0  0
  161.6260  208.0090  150.7870 C   0  0  0  0  0  0  0  0  0  0  0  0
  162.6760  210.5430  152.5580 C   0  0  0  0  0  2  0  0  0  0  0  0
  161.2450  210.9120  152.9470 C   0  0  0  0  0  2  0  0  0  0  0  0
  157.4510  211.0420  154.3050 C   0  0  1  0  0  3  0  0  0  0  0  0
  157.3490  211.4650  156.2610 C   0  0  2  0  0  3  0  0  0  0  0  0
  160.0810  208.5620  152.8060 C   0  0  0  0  0  3  0  0  0  0  0  0
  160.9960  209.5100  155.0190 C   0  0  1  0  0  3  0  0  0  0  0  0
  158.6600  211.0900  156.9150 C   0  0  0  0  0  2  0  0  0  0  0  0
  156.9380  210.3950  155.4510 O   0  0  0  0  0  0  0  0  0  0  0  0
  162.7830  210.2390  151.0670 C   0  0  0  0  0  2  0  0  0  0  0  0
  159.6890  211.1690  155.7850 C   0  0  1  0  0  3  0  0  0  0  0  0
  160.8100  208.2230  151.7840 C   0  0  0  0  0  0  0  0  0  0  0  0
  162.9430  208.7370  150.8150 C   0  0  0  0  0  2  0  0  0  0  0  0
  159.5420  210.0000  154.8500 C   0  0  1  0  0  0  0  0  0  0  0  0
  157.8130  212.2340  155.0750 C   0  0  1  0  0  3  0  0  0  0  0  0
  159.6750  207.7210  156.1230 C   0  0  0  0  0  1  0  0  0  0  0  0
  160.9920  208.0480  155.4520 C   0  0  0  0  0  2  0  0  0  0  0  0
  161.3120  206.5150  146.0350 C   0  0  1  0  0  3  0  0  0  0  0  0
  162.5130  205.8510  145.3680 C   0  0  0  0  0  1  0  0  0  0  0  0
  160.0550  205.3340  144.5060 O   0  0  0  0  0  0  0  0  0  0  0  0
  160.0870  206.1970  145.3320 N   0  0  0  0  0  0  0  0  0  0  0  0
  160.9780  205.2710  151.6370 N   0  0  0  0  0  2  0  0  0  0  0  0
  161.2420  203.9380  152.1590 C   0  0  0  0  0  2  0  0  0  0  0  0
  160.3610  202.9240  151.4470 C   0  0  0  0  0  2  0  0  0  0  0  0
  161.1960  201.9300  150.6490 C   0  0  0  0  0  2  0  0  0  0  0  0
  160.4470  201.4400  149.4170 C   0  0  0  0  0  2  0  0  0  0  0  0
  161.3640  201.3870  148.2010 C   0  0  0  0  0  2  0  0  0  0  0  0
  160.6120  200.9090  146.9620 C   0  0  0  0  0  3  0  0  0  0  0  0
  160.5990  201.9580  145.8940 C   0  0  0  0  0  0  0  0  0  0  0  0
  161.5770  202.7390  145.7780 O   0  0  0  0  0  1  0  0  0  0  0  0
  159.5150  202.0750  145.0310 O   0  0  0  0  0  0  0  0  0  0  0  0
  162.1020  199.0580  147.1100 O   0  0  0  0  0  1  0  0  0  0  0  0
  160.7540  199.0810  145.2570 O   0  0  0  0  0  0  0  0  0  0  0  0
  161.2030  199.6380  146.4480 C   0  0  0  0  0  0  0  0  0  0  0  0
  1 30  1  0  0  0  0
  2  1  2  0  0  0  0
  3  1  1  0  0  0  0
  3  9  1  0  0  0  0
  4  2  1  0  0  0  0
  5  3  2  0  0  0  0
  6  4  2  0  0  0  0
  6  5  1  0  0  0  0
  7 14  1  6  0  0  0
  7 22  1  0  0  0  0
  7 15  1  0  0  0  0
  8 22  1  0  0  0  0
  8 23  1  0  0  0  0
  8 19  1  0  0  0  0
  9 21  1  0  0  0  0
  9 20  2  0  0  0  0
 10 11  1  0  0  0  0
 11  7  1  0  0  0  0
 12  8  1  0  0  0  0
 12 23  1  0  0  0  0
 12 17  1  0  0  0  0
 13 16  1  0  0  0  0
 15 25  1  0  0  0  0
 17 13  1  0  0  0  0
 18 10  1  0  0  0  0
 19 16  1  0  0  0  0
 20 14  2  0  0  0  0
 21 18  1  0  0  0  0
 22 15  1  0  0  0  0
 22 19  1  0  0  0  0
 23 13  1  0  0  0  0
 25 24  1  0  0  0  0
 26  6  1  0  0  0  0
 27 26  1  0  0  0  0
 28 29  2  0  0  0  0
 29 26  1  0  0  0  0
 30 31  1  0  0  0  0
 32 31  1  0  0  0  0
 33 32  1  0  0  0  0
 34 33  1  0  0  0  0
 35 34  1  0  0  0  0
 36 35  1  0  0  0  0
 37 36  1  0  0  0  0
 38 37  1  0  0  0  0
 39 37  2  0  0  0  0
 41 42  2  0  0  0  0
 42 36  1  0  0  0  0
 42 40  1  0  0  0  0
M  END
>  <MODEL>
4

>  <REMARK>
 VINA RESULT:      -4.9      1.526      3.661
  Name = 
  13 active torsions:
  status: ('A' for Active; 'I' for Inactive)
    1  A    between atoms: C_1  and  C_18
    2  A    between atoms: C_1  and  C_21
    3  A    between atoms: C_3  and  C_5
    4  A    between atoms: C_3  and  C_16
    5  A    between atoms: C_3  and  C_34
    6  A    between atoms: C_6  and  N_24
    7  A    between atoms: C_8  and  C_23
    8  A    between atoms: C_15  and  C_29
    9  A    between atoms: C_16  and  C_41
   10  A    between atoms: C_18  and  C_41
   11  A    between atoms: C_21  and  N_24
   12  A    between atoms: N_25  and  C_31
   13  A    between atoms: C_31  and  C_38
                            x       y       z     vdW  Elec       q    Type
                         _______ _______ _______ _____ _____    ______ ____

>  <TORSDO>
F 13

$$$$
=
 OpenBabel11042420033D

 42 48  0  0  1  0  0  0  0  0999 V2000
  161.0760  206.2000  150.1890 C   0  0  0  0  0  0  0  0  0  0  0  0
  161.0190  204.9560  149.5400 C   0  0  0  0  0  3  0  0  0  0  0  0
  161.4150  207.3610  149.4500 C   0  0  0  0  0  0  0  0  0  0  0  0
  161.3160  204.8470  148.1800 C   0  0  0  0  0  3  0  0  0  0  0  0
  161.7230  207.2280  148.0850 C   0  0  0  0  0  3  0  0  0  0  0  0
  161.6860  205.9830  147.4500 C   0  0  0  0  0  0  0  0  0  0  0  0
  160.4120  210.7410  152.7670 C   0  0  1  0  0  0  0  0  0  0  0  0
  158.5900  211.9930  153.7500 C   0  0  1  0  0  0  0  0  0  0  0  0
  161.4240  208.7160  150.0650 C   0  0  0  0  0  0  0  0  0  0  0  0
  161.7700  211.8520  150.9040 C   0  0  0  0  0  2  0  0  0  0  0  0
  160.4480  211.8320  151.6700 C   0  0  0  0  0  2  0  0  0  0  0  0
  157.3570  211.1100  154.1550 C   0  0  1  0  0  3  0  0  0  0  0  0
  157.5650  212.0250  155.9260 C   0  0  2  0  0  3  0  0  0  0  0  0
  160.3160  209.2980  152.3460 C   0  0  0  0  0  3  0  0  0  0  0  0
  161.2770  211.0910  153.9240 C   0  0  1  0  0  3  0  0  0  0  0  0
  159.0310  212.3040  156.1680 C   0  0  0  0  0  2  0  0  0  0  0  0
  157.4310  210.6930  155.5040 O   0  0  0  0  0  0  0  0  0  0  0  0
  161.6300  211.1800  149.5410 C   0  0  0  0  0  2  0  0  0  0  0  0
  159.6420  212.3810  154.7670 C   0  0  1  0  0  3  0  0  0  0  0  0
  160.8530  208.9330  151.2200 C   0  0  0  0  0  0  0  0  0  0  0  0
  162.3090  209.8070  149.5250 C   0  0  0  0  0  2  0  0  0  0  0  0
  159.7540  211.0110  154.1590 C   0  0  1  0  0  0  0  0  0  0  0  0
  157.3870  212.5240  154.5350 C   0  0  1  0  0  3  0  0  0  0  0  0
  162.3330  210.2600  156.0120 C   0  0  0  0  0  1  0  0  0  0  0  0
  161.9580  209.9000  154.5900 C   0  0  0  0  0  2  0  0  0  0  0  0
  161.9970  205.9030  145.9810 C   0  0  1  0  0  3  0  0  0  0  0  0
  162.9000  204.7180  145.6510 C   0  0  0  0  0  1  0  0  0  0  0  0
  160.4950  204.9100  144.5420 O   0  0  0  0  0  0  0  0  0  0  0  0
  160.7910  205.8750  145.1830 N   0  0  0  0  0  0  0  0  0  0  0  0
  160.8310  206.2800  151.5980 N   0  0  0  0  0  2  0  0  0  0  0  0
  161.6140  205.5650  152.5950 C   0  0  0  0  0  2  0  0  0  0  0  0
  161.0260  204.1790  152.8110 C   0  0  0  0  0  2  0  0  0  0  0  0
  161.7780  203.1280  152.0040 C   0  0  0  0  0  2  0  0  0  0  0  0
  160.8410  202.0330  151.5120 C   0  0  0  0  0  2  0  0  0  0  0  0
  161.3520  201.4130  150.2170 C   0  0  0  0  0  2  0  0  0  0  0  0
  160.3690  201.6340  149.0710 C   0  0  0  0  0  3  0  0  0  0  0  0
  160.9110  201.1090  147.7790 C   0  0  0  0  0  0  0  0  0  0  0  0
  161.5810  200.0440  147.7720 O   0  0  0  0  0  1  0  0  0  0  0  0
  160.6820  201.7880  146.5870 O   0  0  0  0  0  0  0  0  0  0  0  0
  158.9550  200.2030  150.3450 O   0  0  0  0  0  1  0  0  0  0  0  0
  157.9230  201.3280  148.6370 O   0  0  0  0  0  0  0  0  0  0  0  0
  159.0500  201.0100  149.3840 C   0  0  0  0  0  0  0  0  0  0  0  0
  1 30  1  0  0  0  0
  2  1  1  0  0  0  0
  3  9  1  0  0  0  0
  3  1  2  0  0  0  0
  4  2  2  0  0  0  0
  5  3  1  0  0  0  0
  6  5  2  0  0  0  0
  6  4  1  0  0  0  0
  7 11  1  6  0  0  0
  7 15  1  0  0  0  0
  7 22  1  0  0  0  0
  8 12  1  0  0  0  0
  8 22  1  0  0  0  0
  8 23  1  0  0  0  0
  8 19  1  0  0  0  0
  9 20  2  0  0  0  0
 10 11  1  0  0  0  0
 12 23  1  0  0  0  0
 12 17  1  0  0  0  0
 13 16  1  0  0  0  0
 14  7  1  0  0  0  0
 15 22  1  0  0  0  0
 15 25  1  0  0  0  0
 17 13  1  0  0  0  0
 18 10  1  0  0  0  0
 19 16  1  0  0  0  0
 20 14  2  0  0  0  0
 21 18  1  0  0  0  0
 21  9  1  0  0  0  0
 22 19  1  0  0  0  0
 23 13  1  0  0  0  0
 25 24  1  0  0  0  0
 26  6  1  0  0  0  0
 27 26  1  0  0  0  0
 28 29  2  0  0  0  0
 29 26  1  0  0  0  0
 30 31  1  0  0  0  0
 31 32  1  0  0  0  0
 33 32  1  0  0  0  0
 34 33  1  0  0  0  0
 35 34  1  0  0  0  0
 36 42  1  0  0  0  0
 36 35  1  0  0  0  0
 37 36  1  0  0  0  0
 38 37  1  0  0  0  0
 39 37  2  0  0  0  0
 41 42  2  0  0  0  0
 42 40  1  0  0  0  0
M  END
>  <MODEL>
5

>  <REMARK>
 VINA RESULT:      -4.8      1.510      3.758
  Name = 
  13 active torsions:
  status: ('A' for Active; 'I' for Inactive)
    1  A    between atoms: C_1  and  C_18
    2  A    between atoms: C_1  and  C_21
    3  A    between atoms: C_3  and  C_5
    4  A    between atoms: C_3  and  C_16
    5  A    between atoms: C_3  and  C_34
    6  A    between atoms: C_6  and  N_24
    7  A    between atoms: C_8  and  C_23
    8  A    between atoms: C_15  and  C_29
    9  A    between atoms: C_16  and  C_41
   10  A    between atoms: C_18  and  C_41
   11  A    between atoms: C_21  and  N_24
   12  A    between atoms: N_25  and  C_31
   13  A    between atoms: C_31  and  C_38
                            x       y       z     vdW  Elec       q    Type
                         _______ _______ _______ _____ _____    ______ ____

>  <TORSDO>
F 13

$$$$
=
 OpenBabel11042420033D

 42 48  0  0  1  0  0  0  0  0999 V2000
  161.4170  208.6590  153.5580 C   0  0  0  0  0  0  0  0  0  0  0  0
  161.1950  208.7270  154.9430 C   0  0  0  0  0  3  0  0  0  0  0  0
  161.1680  209.7980  152.7530 C   0  0  0  0  0  0  0  0  0  0  0  0
  160.7110  209.8970  155.5320 C   0  0  0  0  0  3  0  0  0  0  0  0
  160.6680  210.9620  153.3630 C   0  0  0  0  0  3  0  0  0  0  0  0
  160.4290  211.0160  154.7400 C   0  0  0  0  0  0  0  0  0  0  0  0
  161.1950  211.5780  148.2510 C   0  0  1  0  0  0  0  0  0  0  0  0
  159.7440  212.1950  146.4170 C   0  0  1  0  0  0  0  0  0  0  0  0
  161.4480  209.8110  151.2910 C   0  0  0  0  0  0  0  0  0  0  0  0
  162.3030  209.2720  148.1870 C   0  0  0  0  0  2  0  0  0  0  0  0
  161.1530  210.1400  147.6800 C   0  0  0  0  0  2  0  0  0  0  0  0
  158.5140  213.0710  146.8450 C   0  0  1  0  0  3  0  0  0  0  0  0
  159.1500  214.2850  145.3840 C   0  0  2  0  0  3  0  0  0  0  0  0
  160.8570  211.7860  149.7040 C   0  0  0  0  0  3  0  0  0  0  0  0
  162.2940  212.3790  147.6530 C   0  0  1  0  0  3  0  0  0  0  0  0
  160.6580  214.2100  145.3020 C   0  0  0  0  0  2  0  0  0  0  0  0
  158.7880  214.4520  146.7290 O   0  0  0  0  0  0  0  0  0  0  0  0
  161.8370  208.3220  149.2860 C   0  0  0  0  0  2  0  0  0  0  0  0
  161.0040  212.8310  145.8690 C   0  0  1  0  0  3  0  0  0  0  0  0
  161.1300  210.8430  150.5570 C   0  0  0  0  0  0  0  0  0  0  0  0
  162.3380  208.7730  150.6610 C   0  0  0  0  0  2  0  0  0  0  0  0
  160.8420  212.8150  147.3640 C   0  0  1  0  0  0  0  0  0  0  0  0
  158.7770  212.8450  145.4230 C   0  0  1  0  0  3  0  0  0  0  0  0
  163.9590  214.2110  147.8530 C   0  0  0  0  0  1  0  0  0  0  0  0
  162.9440  213.3760  148.6060 C   0  0  0  0  0  2  0  0  0  0  0  0
  159.9210  212.2950  155.3430 C   0  0  1  0  0  3  0  0  0  0  0  0
  158.9020  212.9870  154.4420 C   0  0  0  0  0  1  0  0  0  0  0  0
  158.8300  212.9600  157.2610 O   0  0  0  0  0  0  0  0  0  0  0  0
  159.3820  212.0810  156.6680 N   0  0  0  0  0  0  0  0  0  0  0  0
  161.8520  207.4300  152.9660 N   0  0  0  0  0  2  0  0  0  0  0  0
  161.0760  206.1990  152.9990 C   0  0  0  0  0  2  0  0  0  0  0  0
  161.6180  205.2220  151.9670 C   0  0  0  0  0  2  0  0  0  0  0  0
  160.7190  205.1600  150.7400 C   0  0  0  0  0  2  0  0  0  0  0  0
  161.5210  204.8670  149.4790 C   0  0  0  0  0  2  0  0  0  0  0  0
  160.8440  203.7990  148.6300 C   0  0  0  0  0  2  0  0  0  0  0  0
  161.7320  203.3700  147.4650 C   0  0  0  0  0  3  0  0  0  0  0  0
  161.1910  202.1510  146.7860 C   0  0  0  0  0  0  0  0  0  0  0  0
  160.8160  202.2220  145.5880 O   0  0  0  0  0  0  0  0  0  0  0  0
  161.0980  200.9430  147.4690 O   0  0  0  0  0  1  0  0  0  0  0  0
  163.0370  204.9810  146.2950 O   0  0  0  0  0  1  0  0  0  0  0  0
  160.8020  204.9790  145.7870 O   0  0  0  0  0  0  0  0  0  0  0  0
  161.8950  204.4900  146.4910 C   0  0  0  0  0  0  0  0  0  0  0  0
  1  2  1  0  0  0  0
  2  4  2  0  0  0  0
  3  5  1  0  0  0  0
  3  1  2  0  0  0  0
  5  6  2  0  0  0  0
  6 26  1  0  0  0  0
  6  4  1  0  0  0  0
  7 11  1  6  0  0  0
  7 14  1  0  0  0  0
  8 12  1  0  0  0  0
  8 22  1  0  0  0  0
  9  3  1  0  0  0  0
 10 18  1  0  0  0  0
 11 10  1  0  0  0  0
 13 23  1  0  0  0  0
 13 17  1  0  0  0  0
 14 20  2  0  0  0  0
 15  7  1  0  0  0  0
 15 25  1  0  0  0  0
 16 13  1  0  0  0  0
 16 19  1  0  0  0  0
 17 12  1  0  0  0  0
 18 21  1  0  0  0  0
 19  8  1  0  0  0  0
 19 22  1  0  0  0  0
 20  9  2  0  0  0  0
 21  9  1  0  0  0  0
 22 15  1  0  0  0  0
 22  7  1  0  0  0  0
 23  8  1  0  0  0  0
 23 12  1  0  0  0  0
 24 25  1  0  0  0  0
 26 29  1  0  0  0  0
 27 26  1  0  0  0  0
 29 28  2  0  0  0  0
 30 31  1  0  0  0  0
 30  1  1  0  0  0  0
 32 31  1  0  0  0  0
 33 32  1  0  0  0  0
 34 33  1  0  0  0  0
 35 34  1  0  0  0  0
 36 35  1  0  0  0  0
 37 36  1  0  0  0  0
 37 39  1  0  0  0  0
 38 37  2  0  0  0  0
 40 42  1  0  0  0  0
 41 42  2  0  0  0  0
 42 36  1  0  0  0  0
M  END
>  <MODEL>
6

>  <REMARK>
 VINA RESULT:      -4.2      3.650      6.881
  Name = 
  13 active torsions:
  status: ('A' for Active; 'I' for Inactive)
    1  A    between atoms: C_1  and  C_18
    2  A    between atoms: C_1  and  C_21
    3  A    between atoms: C_3  and  C_5
    4  A    between atoms: C_3  and  C_16
    5  A    between atoms: C_3  and  C_34
    6  A    between atoms: C_6  and  N_24
    7  A    between atoms: C_8  and  C_23
    8  A    between atoms: C_15  and  C_29
    9  A    between atoms: C_16  and  C_41
   10  A    between atoms: C_18  and  C_41
   11  A    between atoms: C_21  and  N_24
   12  A    between atoms: N_25  and  C_31
   13  A    between atoms: C_31  and  C_38
                            x       y       z     vdW  Elec       q    Type
                         _______ _______ _______ _____ _____    ______ ____

>  <TORSDO>
F 13

$$$$
=
 OpenBabel11042420033D

 42 48  0  0  1  0  0  0  0  0999 V2000
  158.9280  212.9230  151.8170 C   0  0  0  0  0  0  0  0  0  0  0  0
  157.9730  213.8810  151.4390 C   0  0  0  0  0  3  0  0  0  0  0  0
  158.8120  212.2750  153.0710 C   0  0  0  0  0  0  0  0  0  0  0  0
  156.9230  214.2180  152.2960 C   0  0  0  0  0  3  0  0  0  0  0  0
  157.7560  212.6380  153.9250 C   0  0  0  0  0  3  0  0  0  0  0  0
  156.8200  213.6080  153.5520 C   0  0  0  0  0  0  0  0  0  0  0  0
  161.1570  208.0490  152.7840 C   0  0  1  0  0  0  0  0  0  0  0  0
  160.8240  205.6550  152.8520 C   0  0  1  0  0  0  0  0  0  0  0  0
  159.7520  211.2030  153.4980 C   0  0  0  0  0  0  0  0  0  0  0  0
  161.9160  209.2210  154.9290 C   0  0  0  0  0  2  0  0  0  0  0  0
  161.2410  207.9890  154.3290 C   0  0  0  0  0  2  0  0  0  0  0  0
  159.6360  205.1520  151.9560 C   0  0  1  0  0  3  0  0  0  0  0  0
  161.0130  203.8930  151.2250 C   0  0  2  0  0  3  0  0  0  0  0  0
  160.1940  209.0200  152.1530 C   0  0  0  0  0  3  0  0  0  0  0  0
  162.4860  207.8480  152.1490 C   0  0  1  0  0  3  0  0  0  0  0  0
  162.3620  204.5760  151.2370 C   0  0  0  0  0  2  0  0  0  0  0  0
  160.0750  204.7750  150.6670 O   0  0  0  0  0  0  0  0  0  0  0  0
  160.8870  210.1850  155.5140 C   0  0  0  0  0  2  0  0  0  0  0  0
  162.2510  205.6220  152.3490 C   0  0  1  0  0  3  0  0  0  0  0  0
  159.9300  210.1360  152.7660 C   0  0  0  0  0  0  0  0  0  0  0  0
  160.7200  211.4240  154.6290 C   0  0  0  0  0  2  0  0  0  0  0  0
  161.3990  206.7790  151.9070 C   0  0  1  0  0  0  0  0  0  0  0  0
  160.5180  204.1750  152.5990 C   0  0  1  0  0  3  0  0  0  0  0  0
  162.1000  207.9060  149.6970 C   0  0  0  0  0  1  0  0  0  0  0  0
  162.7050  208.6480  150.8700 C   0  0  0  0  0  2  0  0  0  0  0  0
  155.6950  213.9370  154.4930 C   0  0  1  0  0  3  0  0  0  0  0  0
  154.3670  214.1030  153.7600 C   0  0  0  0  0  1  0  0  0  0  0  0
  155.0840  213.2350  156.6010 O   0  0  0  0  0  0  0  0  0  0  0  0
  155.5840  212.9570  155.5520 N   0  0  0  0  0  0  0  0  0  0  0  0
  160.0330  212.6390  150.9500 N   0  0  0  0  0  2  0  0  0  0  0  0
  160.4260  213.4930  149.8390 C   0  0  0  0  0  2  0  0  0  0  0  0
  161.2050  212.6800  148.8170 C   0  0  0  0  0  2  0  0  0  0  0  0
  162.3500  213.4890  148.2230 C   0  0  0  0  0  2  0  0  0  0  0  0
  161.9640  214.0910  146.8780 C   0  0  0  0  0  2  0  0  0  0  0  0
  162.1010  213.0670  145.7570 C   0  0  0  0  0  2  0  0  0  0  0  0
  161.6080  213.6320  144.4280 C   0  0  0  0  0  3  0  0  0  0  0  0
  162.5910  213.3750  143.3290 C   0  0  0  0  0  0  0  0  0  0  0  0
  163.6570  214.0400  143.2810 O   0  0  0  0  0  1  0  0  0  0  0  0
  162.3340  212.4100  142.3610 O   0  0  0  0  0  0  0  0  0  0  0  0
  159.5020  213.7130  143.3210 O   0  0  0  0  0  0  0  0  0  0  0  0
  159.8720  211.8340  144.5800 O   0  0  0  0  0  1  0  0  0  0  0  0
  160.2690  213.0700  144.0830 C   0  0  0  0  0  0  0  0  0  0  0  0
  1  3  1  0  0  0  0
  2  1  2  0  0  0  0
  2  4  1  0  0  0  0
  3  9  1  0  0  0  0
  3  5  2  0  0  0  0
  4  6  2  0  0  0  0
  6  5  1  0  0  0  0
  6 26  1  0  0  0  0
  7 14  1  6  0  0  0
  7 11  1  0  0  0  0
  9 21  1  0  0  0  0
 10 18  1  0  0  0  0
 11 10  1  0  0  0  0
 12 23  1  0  0  0  0
 12  8  1  0  0  0  0
 13 16  1  0  0  0  0
 13 23  1  0  0  0  0
 14 20  2  0  0  0  0
 15  7  1  0  0  0  0
 16 19  1  0  0  0  0
 17 13  1  0  0  0  0
 17 12  1  0  0  0  0
 19  8  1  0  0  0  0
 20  9  2  0  0  0  0
 21 18  1  0  0  0  0
 22 15  1  0  0  0  0
 22 19  1  0  0  0  0
 22  7  1  0  0  0  0
 22  8  1  0  0  0  0
 23  8  1  0  0  0  0
 24 25  1  0  0  0  0
 25 15  1  0  0  0  0
 26 29  1  0  0  0  0
 27 26  1  0  0  0  0
 29 28  2  0  0  0  0
 30  1  1  0  0  0  0
 31 30  1  0  0  0  0
 32 31  1  0  0  0  0
 33 32  1  0  0  0  0
 34 33  1  0  0  0  0
 35 34  1  0  0  0  0
 36 35  1  0  0  0  0
 37 36  1  0  0  0  0
 38 37  1  0  0  0  0
 39 37  2  0  0  0  0
 40 42  2  0  0  0  0
 42 36  1  0  0  0  0
 42 41  1  0  0  0  0
M  END
>  <MODEL>
7

>  <REMARK>
 VINA RESULT:      -3.8      4.726      9.076
  Name = 
  13 active torsions:
  status: ('A' for Active; 'I' for Inactive)
    1  A    between atoms: C_1  and  C_18
    2  A    between atoms: C_1  and  C_21
    3  A    between atoms: C_3  and  C_5
    4  A    between atoms: C_3  and  C_16
    5  A    between atoms: C_3  and  C_34
    6  A    between atoms: C_6  and  N_24
    7  A    between atoms: C_8  and  C_23
    8  A    between atoms: C_15  and  C_29
    9  A    between atoms: C_16  and  C_41
   10  A    between atoms: C_18  and  C_41
   11  A    between atoms: C_21  and  N_24
   12  A    between atoms: N_25  and  C_31
   13  A    between atoms: C_31  and  C_38
                            x       y       z     vdW  Elec       q    Type
                         _______ _______ _______ _____ _____    ______ ____

>  <TORSDO>
F 13

$$$$
=
 OpenBabel11042420033D

 42 48  0  0  1  0  0  0  0  0999 V2000
  161.4630  205.4580  147.6010 C   0  0  0  0  0  0  0  0  0  0  0  0
  161.2920  204.1130  147.2330 C   0  0  0  0  0  3  0  0  0  0  0  0
  161.3430  205.8320  148.9610 C   0  0  0  0  0  0  0  0  0  0  0  0
  160.9820  203.1450  148.1900 C   0  0  0  0  0  3  0  0  0  0  0  0
  161.0170  204.8450  149.9090 C   0  0  0  0  0  3  0  0  0  0  0  0
  160.8270  203.5120  149.5320 C   0  0  0  0  0  0  0  0  0  0  0  0
  160.9330  209.6770  151.8740 C   0  0  1  0  0  0  0  0  0  0  0  0
  159.3490  211.3130  152.6910 C   0  0  1  0  0  0  0  0  0  0  0  0
  161.5810  207.2270  149.4230 C   0  0  0  0  0  0  0  0  0  0  0  0
  162.4450  210.3360  149.9170 C   0  0  0  0  0  2  0  0  0  0  0  0
  161.1420  210.6190  150.6640 C   0  0  0  0  0  2  0  0  0  0  0  0
  157.9900  210.6950  153.1760 C   0  0  1  0  0  3  0  0  0  0  0  0
  158.3570  211.7540  154.8380 C   0  0  2  0  0  3  0  0  0  0  0  0
  160.5980  208.2310  151.6130 C   0  0  0  0  0  3  0  0  0  0  0  0
  161.8520  210.0040  152.9960 C   0  0  1  0  0  3  0  0  0  0  0  0
  159.8510  211.8120  155.0650 C   0  0  0  0  0  2  0  0  0  0  0  0
  158.0030  210.4240  154.5620 O   0  0  0  0  0  0  0  0  0  0  0  0
  162.1870  209.5500  148.6340 C   0  0  0  0  0  2  0  0  0  0  0  0
  160.4570  211.6320  153.6720 C   0  0  1  0  0  3  0  0  0  0  0  0
  161.0600  207.6610  150.5400 C   0  0  0  0  0  0  0  0  0  0  0  0
  162.6300  208.0910  148.7780 C   0  0  0  0  0  2  0  0  0  0  0  0
  160.3380  210.2030  153.2200 C   0  0  1  0  0  0  0  0  0  0  0  0
  158.2560  212.1180  153.3980 C   0  0  1  0  0  3  0  0  0  0  0  0
  161.3310  208.4870  154.8910 C   0  0  0  0  0  1  0  0  0  0  0  0
  162.3300  208.7990  153.7970 C   0  0  0  0  0  2  0  0  0  0  0  0
  160.5090  202.4930  150.5910 C   0  0  1  0  0  3  0  0  0  0  0  0
  160.8480  201.0750  150.1410 C   0  0  0  0  0  1  0  0  0  0  0  0
  160.5360  203.2340  152.7730 O   0  0  0  0  0  0  0  0  0  0  0  0
  161.1580  202.8090  151.8450 N   0  0  0  0  0  0  0  0  0  0  0  0
  161.7170  206.4440  146.5940 N   0  0  0  0  0  2  0  0  0  0  0  0
  162.2390  206.1320  145.2710 C   0  0  0  0  0  2  0  0  0  0  0  0
  161.1170  206.1990  144.2470 C   0  0  0  0  0  2  0  0  0  0  0  0
  161.5920  205.7380  142.8760 C   0  0  0  0  0  2  0  0  0  0  0  0
  161.9170  206.9220  141.9750 C   0  0  0  0  0  2  0  0  0  0  0  0
  161.6600  206.5870  140.5110 C   0  0  0  0  0  2  0  0  0  0  0  0
  162.3260  207.6010  139.5850 C   0  0  0  0  0  3  0  0  0  0  0  0
  161.9550  207.3600  138.1550 C   0  0  0  0  0  0  0  0  0  0  0  0
  160.9440  207.9310  137.6710 O   0  0  0  0  0  1  0  0  0  0  0  0
  162.7160  206.5110  137.3590 O   0  0  0  0  0  0  0  0  0  0  0  0
  160.7740  209.3570  140.0030 O   0  0  0  0  0  0  0  0  0  0  0  0
  162.9710  209.8830  140.3870 O   0  0  0  0  0  1  0  0  0  0  0  0
  161.9790  208.9930  139.9950 C   0  0  0  0  0  0  0  0  0  0  0  0
  1  3  1  0  0  0  0
  2  1  2  0  0  0  0
  2  4  1  0  0  0  0
  3  9  1  0  0  0  0
  3  5  2  0  0  0  0
  4  6  2  0  0  0  0
  6  5  1  0  0  0  0
  6 26  1  0  0  0  0
  7 11  1  6  0  0  0
  7 15  1  0  0  0  0
  7 22  1  0  0  0  0
  8 12  1  0  0  0  0
  8 22  1  0  0  0  0
  8 23  1  0  0  0  0
  8 19  1  0  0  0  0
  9 20  2  0  0  0  0
 10 11  1  0  0  0  0
 12 23  1  0  0  0  0
 12 17  1  0  0  0  0
 13 16  1  0  0  0  0
 14  7  1  0  0  0  0
 15 22  1  0  0  0  0
 15 25  1  0  0  0  0
 17 13  1  0  0  0  0
 18 21  1  0  0  0  0
 18 10  1  0  0  0  0
 19 16  1  0  0  0  0
 20 14  2  0  0  0  0
 21  9  1  0  0  0  0
 22 19  1  0  0  0  0
 23 13  1  0  0  0  0
 25 24  1  0  0  0  0
 26 29  1  0  0  0  0
 27 26  1  0  0  0  0
 29 28  2  0  0  0  0
 30  1  1  0  0  0  0
 31 30  1  0  0  0  0
 32 31  1  0  0  0  0
 33 32  1  0  0  0  0
 34 33  1  0  0  0  0
 35 34  1  0  0  0  0
 36 42  1  0  0  0  0
 36 35  1  0  0  0  0
 37 36  1  0  0  0  0
 38 37  1  0  0  0  0
 39 37  2  0  0  0  0
 42 40  2  0  0  0  0
 42 41  1  0  0  0  0
M  END
>  <MODEL>
8

>  <REMARK>
 VINA RESULT:      -3.6      3.490      4.690
  Name = 
  13 active torsions:
  status: ('A' for Active; 'I' for Inactive)
    1  A    between atoms: C_1  and  C_18
    2  A    between atoms: C_1  and  C_21
    3  A    between atoms: C_3  and  C_5
    4  A    between atoms: C_3  and  C_16
    5  A    between atoms: C_3  and  C_34
    6  A    between atoms: C_6  and  N_24
    7  A    between atoms: C_8  and  C_23
    8  A    between atoms: C_15  and  C_29
    9  A    between atoms: C_16  and  C_41
   10  A    between atoms: C_18  and  C_41
   11  A    between atoms: C_21  and  N_24
   12  A    between atoms: N_25  and  C_31
   13  A    between atoms: C_31  and  C_38
                            x       y       z     vdW  Elec       q    Type
                         _______ _______ _______ _____ _____    ______ ____

>  <TORSDO>
F 13

$$$$
=
 OpenBabel11042420033D

 42 48  0  0  1  0  0  0  0  0999 V2000
  160.9010  209.1310  152.1950 C   0  0  0  0  0  0  0  0  0  0  0  0
  160.6210  210.2110  153.0480 C   0  0  0  0  0  3  0  0  0  0  0  0
  160.8890  207.8110  152.7100 C   0  0  0  0  0  0  0  0  0  0  0  0
  160.3540  210.0000  154.4030 C   0  0  0  0  0  3  0  0  0  0  0  0
  160.6320  207.6210  154.0790 C   0  0  0  0  0  3  0  0  0  0  0  0
  160.3750  208.7030  154.9270 C   0  0  0  0  0  0  0  0  0  0  0  0
  161.5310  205.3900  148.5670 C   0  0  1  0  0  0  0  0  0  0  0  0
  160.4180  204.7600  146.5140 C   0  0  1  0  0  0  0  0  0  0  0  0
  161.1100  206.6210  151.8440 C   0  0  0  0  0  0  0  0  0  0  0  0
  161.5800  203.6920  150.4810 C   0  0  0  0  0  2  0  0  0  0  0  0
  160.8800  204.1350  149.1970 C   0  0  0  0  0  2  0  0  0  0  0  0
  159.6740  205.9460  145.8030 C   0  0  1  0  0  3  0  0  0  0  0  0
  160.7170  205.3480  144.2000 C   0  0  2  0  0  3  0  0  0  0  0  0
  161.3490  206.7190  149.2540 C   0  0  0  0  0  3  0  0  0  0  0  0
  162.8470  205.0810  147.9490 C   0  0  1  0  0  3  0  0  0  0  0  0
  162.0550  204.8100  144.6550 C   0  0  0  0  0  2  0  0  0  0  0  0
  160.4930  206.5760  144.8400 O   0  0  0  0  0  0  0  0  0  0  0  0
  160.7910  204.1170  151.7160 C   0  0  0  0  0  2  0  0  0  0  0  0
  161.8120  204.3480  146.0940 C   0  0  1  0  0  3  0  0  0  0  0  0
  161.2290  206.7470  150.5490 C   0  0  0  0  0  0  0  0  0  0  0  0
  161.4710  205.2850  152.4360 C   0  0  0  0  0  2  0  0  0  0  0  0
  161.6990  205.5280  147.0190 C   0  0  1  0  0  0  0  0  0  0  0  0
  159.7810  204.6530  145.1250 C   0  0  1  0  0  3  0  0  0  0  0  0
  163.1960  207.5380  147.8670 C   0  0  0  0  0  1  0  0  0  0  0  0
  163.8770  206.1990  148.0590 C   0  0  0  0  0  2  0  0  0  0  0  0
  160.0780  208.4390  156.3770 C   0  0  1  0  0  3  0  0  0  0  0  0
  160.0600  206.9460  156.6950 C   0  0  0  0  0  1  0  0  0  0  0  0
  162.1760  208.9650  157.1720 O   0  0  0  0  0  0  0  0  0  0  0  0
  160.9970  209.1430  157.2450 N   0  0  0  0  0  0  0  0  0  0  0  0
  161.2350  209.3740  150.8240 N   0  0  0  0  0  2  0  0  0  0  0  0
  162.1540  210.4160  150.3900 C   0  0  0  0  0  2  0  0  0  0  0  0
  161.9370  210.7110  148.9150 C   0  0  0  0  0  2  0  0  0  0  0  0
  162.4940  212.0770  148.5370 C   0  0  0  0  0  2  0  0  0  0  0  0
  161.8620  212.5980  147.2530 C   0  0  0  0  0  2  0  0  0  0  0  0
  160.4820  211.9910  147.0330 C   0  0  0  0  0  2  0  0  0  0  0  0
  159.4890  213.0390  146.5360 C   0  0  0  0  0  3  0  0  0  0  0  0
  159.2970  212.9480  145.0550 C   0  0  0  0  0  0  0  0  0  0  0  0
  158.7280  213.8880  144.4430 O   0  0  0  0  0  1  0  0  0  0  0  0
  159.7400  211.8340  144.3500 O   0  0  0  0  0  0  0  0  0  0  0  0
  158.0610  213.3670  148.4120 O   0  0  0  0  0  1  0  0  0  0  0  0
  157.1010  212.2930  146.6300 O   0  0  0  0  0  0  0  0  0  0  0  0
  158.1840  212.9050  147.2490 C   0  0  0  0  0  0  0  0  0  0  0  0
  1  3  2  0  0  0  0
  1  2  1  0  0  0  0
  2  4  2  0  0  0  0
  3  5  1  0  0  0  0
  4  6  1  0  0  0  0
  5  6  2  0  0  0  0
  6 26  1  0  0  0  0
  7 11  1  1  0  0  0
  7 14  1  0  0  0  0
  8 22  1  0  0  0  0
  9 21  1  0  0  0  0
  9  3  1  0  0  0  0
 10 18  1  0  0  0  0
 11 10  1  0  0  0  0
 12  8  1  0  0  0  0
 13 16  1  0  0  0  0
 13 17  1  0  0  0  0
 13 23  1  0  0  0  0
 14 20  2  0  0  0  0
 15 25  1  0  0  0  0
 15  7  1  0  0  0  0
 16 19  1  0  0  0  0
 17 12  1  0  0  0  0
 18 21  1  0  0  0  0
 19  8  1  0  0  0  0
 19 22  1  0  0  0  0
 20  9  2  0  0  0  0
 22 15  1  0  0  0  0
 22  7  1  0  0  0  0
 23 12  1  0  0  0  0
 23  8  1  0  0  0  0
 24 25  1  0  0  0  0
 26 27  1  0  0  0  0
 26 29  1  0  0  0  0
 28 29  2  0  0  0  0
 30  1  1  0  0  0  0
 31 30  1  0  0  0  0
 32 31  1  0  0  0  0
 33 32  1  0  0  0  0
 34 33  1  0  0  0  0
 35 34  1  0  0  0  0
 36 35  1  0  0  0  0
 36 42  1  0  0  0  0
 37 36  1  0  0  0  0
 38 37  1  0  0  0  0
 39 37  2  0  0  0  0
 41 42  2  0  0  0  0
 42 40  1  0  0  0  0
M  END
>  <MODEL>
9

>  <REMARK>
 VINA RESULT:      -3.6      4.036      8.979
  Name = 
  13 active torsions:
  status: ('A' for Active; 'I' for Inactive)
    1  A    between atoms: C_1  and  C_18
    2  A    between atoms: C_1  and  C_21
    3  A    between atoms: C_3  and  C_5
    4  A    between atoms: C_3  and  C_16
    5  A    between atoms: C_3  and  C_34
    6  A    between atoms: C_6  and  N_24
    7  A    between atoms: C_8  and  C_23
    8  A    between atoms: C_15  and  C_29
    9  A    between atoms: C_16  and  C_41
   10  A    between atoms: C_18  and  C_41
   11  A    between atoms: C_21  and  N_24
   12  A    between atoms: N_25  and  C_31
   13  A    between atoms: C_31  and  C_38
                            x       y       z     vdW  Elec       q    Type
                         _______ _______ _______ _____ _____    ______ ____

>  <TORSDO>
F 13

$$$$
