=
 OpenBabel11042422143D

 50 53  0  0  1  0  0  0  0  0999 V2000
  161.6450  205.3430  144.8210 C   0  0  0  0  0  0  0  0  0  0  0  0
  162.8680  204.6860  145.0190 C   0  0  0  0  0  3  0  0  0  0  0  0
  161.4310  205.6650  147.2170 C   0  0  0  0  0  0  0  0  0  0  0  0
  163.3810  204.5360  146.3100 C   0  0  0  0  0  3  0  0  0  0  0  0
  162.6680  205.0250  147.4070 C   0  0  0  0  0  3  0  0  0  0  0  0
  160.9280  205.8210  145.9210 C   0  0  0  0  0  3  0  0  0  0  0  0
  160.6770  206.1540  148.2910 O   0  0  0  0  0  0  0  0  0  0  0  0
  160.9610  207.3660  148.9940 C   0  0  2  0  0  3  0  0  0  0  0  0
  162.2050  209.4590  148.9230 N   0  0  0  0  0  1  0  0  0  0  0  0
  161.7170  208.3560  148.1160 C   0  0  0  0  0  2  0  0  0  0  0  0
  161.7110  207.0910  150.2230 N   0  0  0  0  0  2  0  0  0  0  0  0
  160.7840  206.8250  151.3250 C   0  0  0  0  0  2  0  0  0  0  0  0
  161.5160  206.3490  152.5740 C   0  0  1  0  0  3  0  0  0  0  0  0
  161.0770  208.5150  153.9220 C   0  0  0  0  0  0  0  0  0  0  0  0
  160.7350  206.6100  155.0240 C   0  0  0  0  0  3  0  0  0  0  0  0
  160.4970  207.6360  155.8560 N   0  0  0  0  0  0  0  0  0  0  0  0
  160.0720  207.5060  157.2350 C   0  0  0  0  0  1  0  0  0  0  0  0
  160.6870  208.8060  155.2130 C   0  0  0  0  0  3  0  0  0  0  0  0
  161.1150  207.1340  153.7980 C   0  0  0  0  0  0  0  0  0  0  0  0
  161.4230  209.5170  152.8680 C   0  0  0  0  0  2  0  0  0  0  0  0
  160.2150  210.3640  152.5140 C   0  0  0  0  0  2  0  0  0  0  0  0
  160.3880  211.6960  153.0640 N   0  0  0  0  0  2  0  0  0  0  0  0
  159.2220  212.4160  152.7640 N   0  0  0  0  0  2  0  0  0  0  0  0
  158.5920  214.4100  152.1790 C   0  0  0  0  0  1  0  0  0  0  0  0
  159.5960  213.4590  151.9840 O   0  0  0  0  0  0  0  0  0  0  0  0
  161.3550  204.8410  152.7640 C   0  0  0  0  0  2  0  0  0  0  0  0
  161.3360  203.1570  150.9530 C   0  0  0  0  0  1  0  0  0  0  0  0
  160.5370  204.2510  151.6280 C   0  0  0  0  0  2  0  0  0  0  0  0
  161.0900  205.5270  143.4460 C   0  0  0  0  0  2  0  0  0  0  0  0
  162.1540  205.8640  142.5130 N   0  0  0  0  0  2  0  0  0  0  0  0
  161.5670  206.6670  141.4470 C   0  0  0  0  0  2  0  0  0  0  0  0
  162.4890  206.6770  140.2340 C   0  0  0  0  0  2  0  0  0  0  0  0
  162.5480  208.0100  139.6410 N   0  0  0  0  0  2  0  0  0  0  0  0
  161.2110  208.3470  139.1610 C   0  0  0  0  0  2  0  0  0  0  0  0
  162.7630  212.6560  140.8190 O   0  0  0  0  0  1  0  0  0  0  0  0
  159.5780  210.2530  139.3930 C   0  0  2  0  0  3  0  0  0  0  0  0
  159.3800  211.7710  139.5410 C   0  0  0  0  0  2  0  0  0  0  0  0
  161.0300  209.8640  139.0550 C   0  0  1  0  0  3  0  0  0  0  0  0
  162.0180  210.5520  139.9940 C   0  0  0  0  0  2  0  0  0  0  0  0
  161.8100  212.0610  139.9910 C   0  0  1  0  0  3  0  0  0  0  0  0
  160.4080  212.3790  140.4890 C   0  0  0  0  0  2  0  0  0  0  0  0
  158.5680  209.6710  138.3950 C   0  0  0  0  0  2  0  0  0  0  0  0
  157.4740  210.6560  137.9620 C   0  0  0  0  0  2  0  0  0  0  0  0
  155.6650  208.9590  138.3410 C   0  0  0  0  0  3  0  0  0  0  0  0
  153.6880  209.4980  139.6070 C   0  0  0  0  0  3  0  0  0  0  0  0
  156.1240  210.2690  138.4980 C   0  0  0  0  0  0  0  0  0  0  0  0
  155.7960  212.5710  139.4980 C   0  0  0  0  0  1  0  0  0  0  0  0
  154.4380  208.5690  138.8820 C   0  0  0  0  0  3  0  0  0  0  0  0
  154.1520  210.7670  139.7730 N   0  0  0  0  0  0  0  0  0  0  0  0
  155.3350  211.1750  139.2350 C   0  0  0  0  0  0  0  0  0  0  0  0
  1  2  2  0  0  0  0
  1  6  1  0  0  0  0
  2  4  1  0  0  0  0
  3  5  1  0  0  0  0
  3  7  1  0  0  0  0
  4  5  2  0  0  0  0
  6  3  2  0  0  0  0
  7  8  1  0  0  0  0
  8 10  1  6  0  0  0
  8 11  1  0  0  0  0
 10  9  1  0  0  0  0
 11 12  1  0  0  0  0
 13 12  1  6  0  0  0
 13 26  1  0  0  0  0
 13 19  1  0  0  0  0
 14 18  2  0  0  0  0
 15 16  1  0  0  0  0
 16 17  1  0  0  0  0
 18 16  1  0  0  0  0
 19 14  1  0  0  0  0
 19 15  2  0  0  0  0
 20 14  1  0  0  0  0
 21 20  1  0  0  0  0
 21 22  1  0  0  0  0
 23 22  1  0  0  0  0
 25 24  1  0  0  0  0
 25 23  1  0  0  0  0
 27 28  1  0  0  0  0
 28 26  1  0  0  0  0
 29  1  1  0  0  0  0
 30 29  1  0  0  0  0
 31 30  1  0  0  0  0
 32 31  1  0  0  0  0
 33 32  1  0  0  0  0
 34 33  1  0  0  0  0
 36 42  1  6  0  0  0
 36 37  1  0  0  0  0
 37 41  1  0  0  0  0
 38 34  1  1  0  0  0
 38 36  1  0  0  0  0
 38 39  1  0  0  0  0
 40 39  1  0  0  0  0
 40 41  1  0  0  0  0
 40 35  1  1  0  0  0
 43 42  1  0  0  0  0
 43 46  1  0  0  0  0
 44 46  2  0  0  0  0
 44 48  1  0  0  0  0
 45 49  1  0  0  0  0
 46 50  1  0  0  0  0
 48 45  2  0  0  0  0
 50 47  1  0  0  0  0
 50 49  2  0  0  0  0
M  END
>  <MODEL>
1

>  <REMARK>
 VINA RESULT:      -5.6      0.000      0.000
  Name = 
  24 active torsions:
  status: ('A' for Active; 'I' for Inactive)
    1  A    between atoms: N_1  and  N_20
    2  A    between atoms: N_1  and  C_41
    3  A    between atoms: C_2  and  N_6
    4  A    between atoms: C_2  and  C_23
    5  A    between atoms: C_2  and  O_49
    6  A    between atoms: C_3  and  C_9
    7  A    between atoms: C_3  and  C_27
    8  A    between atoms: N_6  and  C_32
    9  A    between atoms: N_10  and  C_45
   10  A    between atoms: N_10  and  C_50
   11  A    between atoms: C_11  and  C_37
   12  A    between atoms: C_12  and  C_26
   13  A    between atoms: C_14  and  C_16
   14  A    between atoms: C_14  and  C_32
   15  A    between atoms: C_14  and  C_46
   16  A    between atoms: C_16  and  C_19
   17  A    between atoms: N_20  and  O_21
   18  A    between atoms: C_22  and  O_49
   19  A    between atoms: C_25  and  C_27
   20  A    between atoms: C_26  and  C_41
   21  A    between atoms: C_29  and  C_50
   22  A    between atoms: N_35  and  C_37
   23  A    between atoms: N_35  and  C_42
   24  A    between atoms: C_42  and  C_45
                            x       y       z     vdW  Elec       q    Type
                         _______ _______ _______ _____ _____    ______ ____

>  <TORSDO>
F 24

$$$$
=
 OpenBabel11042422143D

 50 53  0  0  1  0  0  0  0  0999 V2000
  161.0820  205.4360  145.6640 C   0  0  0  0  0  0  0  0  0  0  0  0
  161.7320  204.1930  145.6780 C   0  0  0  0  0  3  0  0  0  0  0  0
  161.0890  205.4640  148.0910 C   0  0  0  0  0  0  0  0  0  0  0  0
  162.0760  203.5970  146.8930 C   0  0  0  0  0  3  0  0  0  0  0  0
  161.7590  204.2280  148.0970 C   0  0  0  0  0  3  0  0  0  0  0  0
  160.7560  206.0620  146.8710 C   0  0  0  0  0  3  0  0  0  0  0  0
  160.7380  206.1230  149.2760 O   0  0  0  0  0  0  0  0  0  0  0  0
  161.0810  207.4770  149.5820 C   0  0  2  0  0  3  0  0  0  0  0  0
  162.2270  209.4750  148.7890 N   0  0  0  0  0  1  0  0  0  0  0  0
  162.0440  208.0550  148.5510 C   0  0  0  0  0  2  0  0  0  0  0  0
  161.6480  207.5780  150.9290 N   0  0  0  0  0  2  0  0  0  0  0  0
  160.6610  208.1530  151.8460 C   0  0  0  0  0  2  0  0  0  0  0  0
  161.2820  209.2100  152.7510 C   0  0  1  0  0  3  0  0  0  0  0  0
  159.7800  211.2220  153.3790 C   0  0  0  0  0  0  0  0  0  0  0  0
  160.8650  211.4000  151.4420 C   0  0  0  0  0  3  0  0  0  0  0  0
  160.1120  212.4960  151.6140 N   0  0  0  0  0  0  0  0  0  0  0  0
  160.0420  213.6090  150.6890 C   0  0  0  0  0  1  0  0  0  0  0  0
  159.4470  212.4230  152.7860 C   0  0  0  0  0  3  0  0  0  0  0  0
  160.6680  210.5700  152.5360 C   0  0  0  0  0  0  0  0  0  0  0  0
  159.2480  210.7150  154.6810 C   0  0  0  0  0  2  0  0  0  0  0  0
  159.1120  211.8460  155.6830 C   0  0  0  0  0  2  0  0  0  0  0  0
  157.7530  211.8710  156.1950 N   0  0  0  0  0  2  0  0  0  0  0  0
  157.0280  210.9110  155.4740 N   0  0  0  0  0  2  0  0  0  0  0  0
  155.0660  210.0100  155.2470 C   0  0  0  0  0  1  0  0  0  0  0  0
  155.7160  211.1590  155.7040 O   0  0  0  0  0  0  0  0  0  0  0  0
  161.2410  208.7720  154.2160 C   0  0  0  0  0  2  0  0  0  0  0  0
  160.0700  207.1380  155.6550 C   0  0  0  0  0  1  0  0  0  0  0  0
  160.7580  207.3350  154.3230 C   0  0  0  0  0  2  0  0  0  0  0  0
  160.7220  206.0960  144.3730 C   0  0  0  0  0  2  0  0  0  0  0  0
  161.5860  205.6200  143.3040 N   0  0  0  0  0  2  0  0  0  0  0  0
  161.5610  206.6180  142.2410 C   0  0  0  0  0  2  0  0  0  0  0  0
  162.2900  206.0880  141.0130 C   0  0  0  0  0  2  0  0  0  0  0  0
  162.2990  207.0860  139.9460 N   0  0  0  0  0  2  0  0  0  0  0  0
  161.3780  208.1540  140.3240 C   0  0  0  0  0  2  0  0  0  0  0  0
  163.8520  212.2680  139.5010 O   0  0  0  0  0  1  0  0  0  0  0  0
  160.1930  210.1400  139.3210 C   0  0  2  0  0  3  0  0  0  0  0  0
  160.3260  211.4900  138.5960 C   0  0  0  0  0  2  0  0  0  0  0  0
  161.5200  209.3590  139.3910 C   0  0  1  0  0  3  0  0  0  0  0  0
  162.6560  210.2480  139.8910 C   0  0  0  0  0  2  0  0  0  0  0  0
  162.7730  211.5100  139.0450 C   0  0  1  0  0  3  0  0  0  0  0  0
  161.4840  212.3120  139.1520 C   0  0  0  0  0  2  0  0  0  0  0  0
  159.0560  209.3090  138.7120 C   0  0  0  0  0  2  0  0  0  0  0  0
  158.0670  210.1220  137.8660 C   0  0  0  0  0  2  0  0  0  0  0  0
  155.9760  208.7520  138.0770 C   0  0  0  0  0  3  0  0  0  0  0  0
  154.0740  209.5540  139.3180 C   0  0  0  0  0  3  0  0  0  0  0  0
  156.6500  209.9480  138.3340 C   0  0  0  0  0  0  0  0  0  0  0  0
  156.6890  212.2070  139.4760 C   0  0  0  0  0  1  0  0  0  0  0  0
  154.6790  208.5530  138.5550 C   0  0  0  0  0  3  0  0  0  0  0  0
  154.7450  210.7090  139.5810 N   0  0  0  0  0  0  0  0  0  0  0  0
  156.0020  210.9340  139.1070 C   0  0  0  0  0  0  0  0  0  0  0  0
  1  2  2  0  0  0  0
  1  6  1  0  0  0  0
  2  4  1  0  0  0  0
  3  5  1  0  0  0  0
  3  7  1  0  0  0  0
  4  5  2  0  0  0  0
  6  3  2  0  0  0  0
  7  8  1  0  0  0  0
  8 10  1  6  0  0  0
  8 11  1  0  0  0  0
 10  9  1  0  0  0  0
 11 12  1  0  0  0  0
 13 12  1  6  0  0  0
 13 26  1  0  0  0  0
 14 20  1  0  0  0  0
 15 16  1  0  0  0  0
 15 19  2  0  0  0  0
 16 18  1  0  0  0  0
 17 16  1  0  0  0  0
 18 14  2  0  0  0  0
 19 13  1  0  0  0  0
 19 14  1  0  0  0  0
 20 21  1  0  0  0  0
 21 22  1  0  0  0  0
 23 25  1  0  0  0  0
 23 22  1  0  0  0  0
 24 25  1  0  0  0  0
 26 28  1  0  0  0  0
 28 27  1  0  0  0  0
 29  1  1  0  0  0  0
 30 29  1  0  0  0  0
 31 30  1  0  0  0  0
 32 31  1  0  0  0  0
 33 34  1  0  0  0  0
 33 32  1  0  0  0  0
 36 42  1  6  0  0  0
 36 38  1  0  0  0  0
 37 41  1  0  0  0  0
 37 36  1  0  0  0  0
 38 39  1  0  0  0  0
 38 34  1  1  0  0  0
 40 41  1  0  0  0  0
 40 35  1  1  0  0  0
 40 39  1  0  0  0  0
 43 46  1  0  0  0  0
 43 42  1  0  0  0  0
 44 46  2  0  0  0  0
 44 48  1  0  0  0  0
 45 49  1  0  0  0  0
 46 50  1  0  0  0  0
 48 45  2  0  0  0  0
 50 47  1  0  0  0  0
 50 49  2  0  0  0  0
M  END
>  <MODEL>
2

>  <REMARK>
 VINA RESULT:      -4.8      1.816      2.997
  Name = 
  24 active torsions:
  status: ('A' for Active; 'I' for Inactive)
    1  A    between atoms: N_1  and  N_20
    2  A    between atoms: N_1  and  C_41
    3  A    between atoms: C_2  and  N_6
    4  A    between atoms: C_2  and  C_23
    5  A    between atoms: C_2  and  O_49
    6  A    between atoms: C_3  and  C_9
    7  A    between atoms: C_3  and  C_27
    8  A    between atoms: N_6  and  C_32
    9  A    between atoms: N_10  and  C_45
   10  A    between atoms: N_10  and  C_50
   11  A    between atoms: C_11  and  C_37
   12  A    between atoms: C_12  and  C_26
   13  A    between atoms: C_14  and  C_16
   14  A    between atoms: C_14  and  C_32
   15  A    between atoms: C_14  and  C_46
   16  A    between atoms: C_16  and  C_19
   17  A    between atoms: N_20  and  O_21
   18  A    between atoms: C_22  and  O_49
   19  A    between atoms: C_25  and  C_27
   20  A    between atoms: C_26  and  C_41
   21  A    between atoms: C_29  and  C_50
   22  A    between atoms: N_35  and  C_37
   23  A    between atoms: N_35  and  C_42
   24  A    between atoms: C_42  and  C_45
                            x       y       z     vdW  Elec       q    Type
                         _______ _______ _______ _____ _____    ______ ____

>  <TORSDO>
F 24

$$$$
=
 OpenBabel11042422143D

 50 53  0  0  1  0  0  0  0  0999 V2000
  160.8980  205.5510  145.9090 C   0  0  0  0  0  0  0  0  0  0  0  0
  161.6370  204.3640  146.0220 C   0  0  0  0  0  3  0  0  0  0  0  0
  160.7650  205.6950  148.3290 C   0  0  0  0  0  0  0  0  0  0  0  0
  161.9550  203.8550  147.2830 C   0  0  0  0  0  3  0  0  0  0  0  0
  161.5240  204.5160  148.4340 C   0  0  0  0  0  3  0  0  0  0  0  0
  160.4590  206.2060  147.0630 C   0  0  0  0  0  3  0  0  0  0  0  0
  160.2990  206.3800  149.4580 O   0  0  0  0  0  0  0  0  0  0  0  0
  161.0050  207.4390  150.1110 C   0  0  2  0  0  3  0  0  0  0  0  0
  162.3180  208.8880  148.6590 N   0  0  0  0  0  1  0  0  0  0  0  0
  162.3640  207.6840  149.4670 C   0  0  0  0  0  2  0  0  0  0  0  0
  161.1560  207.1580  151.5410 N   0  0  0  0  0  2  0  0  0  0  0  0
  161.0240  208.3970  152.3110 C   0  0  0  0  0  2  0  0  0  0  0  0
  161.3280  208.1760  153.7880 C   0  0  1  0  0  3  0  0  0  0  0  0
  160.4100  210.5410  154.3060 C   0  0  0  0  0  0  0  0  0  0  0  0
  161.9560  209.7790  155.7170 C   0  0  0  0  0  3  0  0  0  0  0  0
  161.6030  211.0170  156.0950 N   0  0  0  0  0  0  0  0  0  0  0  0
  162.1370  211.7180  157.2440 C   0  0  0  0  0  1  0  0  0  0  0  0
  160.6590  211.5030  155.2630 C   0  0  0  0  0  3  0  0  0  0  0  0
  161.2280  209.4550  154.5820 C   0  0  0  0  0  0  0  0  0  0  0  0
  159.4540  210.6720  153.1650 C   0  0  0  0  0  2  0  0  0  0  0  0
  158.8010  212.0420  153.1660 C   0  0  0  0  0  2  0  0  0  0  0  0
  159.4130  212.8630  152.1370 N   0  0  0  0  0  2  0  0  0  0  0  0
  158.4770  212.9820  151.0990 N   0  0  0  0  0  2  0  0  0  0  0  0
  158.8550  214.1970  149.3400 C   0  0  0  0  0  1  0  0  0  0  0  0
  158.5070  214.2730  150.6910 O   0  0  0  0  0  0  0  0  0  0  0  0
  160.4610  207.0570  154.3660 C   0  0  0  0  0  2  0  0  0  0  0  0
  160.3090  206.9080  156.8300 C   0  0  0  0  0  1  0  0  0  0  0  0
  159.7150  207.5500  155.5950 C   0  0  0  0  0  2  0  0  0  0  0  0
  160.5640  206.1200  144.5690 C   0  0  0  0  0  2  0  0  0  0  0  0
  161.5800  205.7500  143.5960 N   0  0  0  0  0  2  0  0  0  0  0  0
  161.4500  206.6540  142.4590 C   0  0  0  0  0  2  0  0  0  0  0  0
  162.2740  206.1380  141.2860 C   0  0  0  0  0  2  0  0  0  0  0  0
  162.5710  207.2170  140.3480 N   0  0  0  0  0  2  0  0  0  0  0  0
  161.4390  208.1400  140.3560 C   0  0  0  0  0  2  0  0  0  0  0  0
  164.2920  211.8580  139.0260 O   0  0  0  0  0  1  0  0  0  0  0  0
  160.4080  210.1900  139.3130 C   0  0  2  0  0  3  0  0  0  0  0  0
  160.6300  211.4660  138.4820 C   0  0  0  0  0  2  0  0  0  0  0  0
  161.6350  209.2580  139.3270 C   0  0  1  0  0  3  0  0  0  0  0  0
  162.9090  210.0300  139.6630 C   0  0  0  0  0  2  0  0  0  0  0  0
  163.0940  211.2120  138.7200 C   0  0  1  0  0  3  0  0  0  0  0  0
  161.9230  212.1720  138.8770 C   0  0  0  0  0  2  0  0  0  0  0  0
  159.1300  209.4690  138.8640 C   0  0  0  0  0  2  0  0  0  0  0  0
  158.2630  210.2760  137.8880 C   0  0  0  0  0  2  0  0  0  0  0  0
  156.9460  212.0280  139.1100 C   0  0  0  0  0  3  0  0  0  0  0  0
  154.6070  211.7230  139.5960 C   0  0  0  0  0  3  0  0  0  0  0  0
  156.9920  210.7580  138.5290 C   0  0  0  0  0  0  0  0  0  0  0  0
  155.7710  208.6570  137.8230 C   0  0  0  0  0  1  0  0  0  0  0  0
  155.7570  212.5120  139.6600 C   0  0  0  0  0  3  0  0  0  0  0  0
  154.6550  210.4950  139.0100 N   0  0  0  0  0  0  0  0  0  0  0  0
  155.8090  209.9930  138.4880 C   0  0  0  0  0  0  0  0  0  0  0  0
  1  2  2  0  0  0  0
  1  6  1  0  0  0  0
  2  4  1  0  0  0  0
  3  5  1  0  0  0  0
  3  7  1  0  0  0  0
  4  5  2  0  0  0  0
  6  3  2  0  0  0  0
  7  8  1  0  0  0  0
  8 10  1  6  0  0  0
  8 11  1  0  0  0  0
  9 10  1  0  0  0  0
 11 12  1  0  0  0  0
 13 12  1  6  0  0  0
 13 26  1  0  0  0  0
 13 19  1  0  0  0  0
 14 19  1  0  0  0  0
 14 18  2  0  0  0  0
 15 16  1  0  0  0  0
 16 17  1  0  0  0  0
 18 16  1  0  0  0  0
 19 15  2  0  0  0  0
 20 21  1  0  0  0  0
 20 14  1  0  0  0  0
 22 21  1  0  0  0  0
 23 22  1  0  0  0  0
 24 25  1  0  0  0  0
 25 23  1  0  0  0  0
 26 28  1  0  0  0  0
 28 27  1  0  0  0  0
 29  1  1  0  0  0  0
 30 29  1  0  0  0  0
 31 30  1  0  0  0  0
 32 31  1  0  0  0  0
 33 34  1  0  0  0  0
 33 32  1  0  0  0  0
 36 42  1  6  0  0  0
 36 38  1  0  0  0  0
 37 41  1  0  0  0  0
 37 36  1  0  0  0  0
 38 39  1  0  0  0  0
 38 34  1  1  0  0  0
 40 41  1  0  0  0  0
 40 35  1  1  0  0  0
 40 39  1  0  0  0  0
 43 46  1  0  0  0  0
 43 42  1  0  0  0  0
 44 48  1  0  0  0  0
 45 48  2  0  0  0  0
 46 44  2  0  0  0  0
 47 50  1  0  0  0  0
 49 45  1  0  0  0  0
 50 46  1  0  0  0  0
 50 49  2  0  0  0  0
M  END
>  <MODEL>
3

>  <REMARK>
 VINA RESULT:      -4.5      1.571      2.438
  Name = 
  24 active torsions:
  status: ('A' for Active; 'I' for Inactive)
    1  A    between atoms: N_1  and  N_20
    2  A    between atoms: N_1  and  C_41
    3  A    between atoms: C_2  and  N_6
    4  A    between atoms: C_2  and  C_23
    5  A    between atoms: C_2  and  O_49
    6  A    between atoms: C_3  and  C_9
    7  A    between atoms: C_3  and  C_27
    8  A    between atoms: N_6  and  C_32
    9  A    between atoms: N_10  and  C_45
   10  A    between atoms: N_10  and  C_50
   11  A    between atoms: C_11  and  C_37
   12  A    between atoms: C_12  and  C_26
   13  A    between atoms: C_14  and  C_16
   14  A    between atoms: C_14  and  C_32
   15  A    between atoms: C_14  and  C_46
   16  A    between atoms: C_16  and  C_19
   17  A    between atoms: N_20  and  O_21
   18  A    between atoms: C_22  and  O_49
   19  A    between atoms: C_25  and  C_27
   20  A    between atoms: C_26  and  C_41
   21  A    between atoms: C_29  and  C_50
   22  A    between atoms: N_35  and  C_37
   23  A    between atoms: N_35  and  C_42
   24  A    between atoms: C_42  and  C_45
                            x       y       z     vdW  Elec       q    Type
                         _______ _______ _______ _____ _____    ______ ____

>  <TORSDO>
F 24

$$$$
=
 OpenBabel11042422143D

 50 53  0  0  1  0  0  0  0  0999 V2000
  161.8370  209.6650  150.8300 C   0  0  0  0  0  0  0  0  0  0  0  0
  162.1330  210.8030  150.0650 C   0  0  0  0  0  3  0  0  0  0  0  0
  161.7120  208.3360  148.8030 C   0  0  0  0  0  0  0  0  0  0  0  0
  162.2370  210.7040  148.6750 C   0  0  0  0  0  3  0  0  0  0  0  0
  162.0300  209.4760  148.0440 C   0  0  0  0  0  3  0  0  0  0  0  0
  161.6200  208.4400  150.1950 C   0  0  0  0  0  3  0  0  0  0  0  0
  161.4810  207.0900  148.2080 O   0  0  0  0  0  0  0  0  0  0  0  0
  161.5650  206.8360  146.8030 C   0  0  2  0  0  3  0  0  0  0  0  0
  160.2870  206.1500  144.8460 N   0  0  0  0  0  1  0  0  0  0  0  0
  160.1820  206.7310  146.1710 C   0  0  0  0  0  2  0  0  0  0  0  0
  162.3440  205.6230  146.5400 N   0  0  0  0  0  2  0  0  0  0  0  0
  162.4530  204.8230  147.7620 C   0  0  0  0  0  2  0  0  0  0  0  0
  162.1010  203.3620  147.5110 C   0  0  1  0  0  3  0  0  0  0  0  0
  160.8950  203.3780  149.8020 C   0  0  0  0  0  0  0  0  0  0  0  0
  160.4280  201.6460  148.4810 C   0  0  0  0  0  3  0  0  0  0  0  0
  159.7570  201.5000  149.6340 N   0  0  0  0  0  0  0  0  0  0  0  0
  158.8670  200.4000  149.9430 C   0  0  0  0  0  1  0  0  0  0  0  0
  160.0130  202.5410  150.4530 C   0  0  0  0  0  3  0  0  0  0  0  0
  161.1660  202.8180  148.5620 C   0  0  0  0  0  0  0  0  0  0  0  0
  161.4710  204.6400  150.3570 C   0  0  0  0  0  2  0  0  0  0  0  0
  161.8910  204.4490  151.8030 C   0  0  0  0  0  2  0  0  0  0  0  0
  161.9170  205.7400  152.4680 N   0  0  0  0  0  2  0  0  0  0  0  0
  161.1570  205.6090  153.6390 N   0  0  0  0  0  2  0  0  0  0  0  0
  161.2570  207.4450  154.7950 C   0  0  0  0  0  1  0  0  0  0  0  0
  160.5080  206.7850  153.8170 O   0  0  0  0  0  0  0  0  0  0  0  0
  161.5710  203.1590  146.0920 C   0  0  0  0  0  2  0  0  0  0  0  0
  160.2320  201.3140  145.1330 C   0  0  0  0  0  1  0  0  0  0  0  0
  160.2260  202.4540  146.1270 C   0  0  0  0  0  2  0  0  0  0  0  0
  161.7390  209.7500  152.3180 C   0  0  0  0  0  2  0  0  0  0  0  0
  160.4650  210.3350  152.7080 N   0  0  0  0  0  2  0  0  0  0  0  0
  160.6670  211.0250  153.9760 C   0  0  0  0  0  2  0  0  0  0  0  0
  159.4020  210.9430  154.8210 C   0  0  0  0  0  2  0  0  0  0  0  0
  159.2020  212.1790  155.5740 N   0  0  0  0  0  2  0  0  0  0  0  0
  159.3990  213.2980  154.6570 C   0  0  0  0  0  2  0  0  0  0  0  0
  154.8220  213.9340  156.1940 O   0  0  0  0  0  1  0  0  0  0  0  0
  157.5590  213.6610  152.9730 C   0  0  2  0  0  3  0  0  0  0  0  0
  156.1260  214.1560  152.7150 C   0  0  0  0  0  2  0  0  0  0  0  0
  158.0780  214.0210  154.3790 C   0  0  1  0  0  3  0  0  0  0  0  0
  157.0640  213.6400  155.4540 C   0  0  0  0  0  2  0  0  0  0  0  0
  155.7030  214.2630  155.1650 C   0  0  1  0  0  3  0  0  0  0  0  0
  155.1800  213.7380  153.8350 C   0  0  0  0  0  2  0  0  0  0  0  0
  158.5040  214.1370  151.8610 C   0  0  0  0  0  2  0  0  0  0  0  0
  157.9180  214.0200  150.4470 C   0  0  0  0  0  2  0  0  0  0  0  0
  160.2720  214.4530  149.6930 C   0  0  0  0  0  3  0  0  0  0  0  0
  161.0270  213.7910  147.5040 C   0  0  0  0  0  3  0  0  0  0  0  0
  158.9900  213.9830  149.3950 C   0  0  0  0  0  0  0  0  0  0  0  0
  157.4370  212.8210  147.7690 C   0  0  0  0  0  1  0  0  0  0  0  0
  161.2940  214.3740  148.7440 C   0  0  0  0  0  3  0  0  0  0  0  0
  159.7810  213.3160  147.2290 N   0  0  0  0  0  0  0  0  0  0  0  0
  158.7630  213.4040  148.1300 C   0  0  0  0  0  0  0  0  0  0  0  0
  1 29  1  0  0  0  0
  2  1  2  0  0  0  0
  3  6  2  0  0  0  0
  4  2  1  0  0  0  0
  5  4  2  0  0  0  0
  5  3  1  0  0  0  0
  6  1  1  0  0  0  0
  7  3  1  0  0  0  0
  8 10  1  1  0  0  0
  8  7  1  0  0  0  0
  9 10  1  0  0  0  0
 11  8  1  0  0  0  0
 11 12  1  0  0  0  0
 13 26  1  6  0  0  0
 13 12  1  0  0  0  0
 13 19  1  0  0  0  0
 14 20  1  0  0  0  0
 14 18  2  0  0  0  0
 15 19  2  0  0  0  0
 15 16  1  0  0  0  0
 16 17  1  0  0  0  0
 16 18  1  0  0  0  0
 19 14  1  0  0  0  0
 20 21  1  0  0  0  0
 21 22  1  0  0  0  0
 22 23  1  0  0  0  0
 23 25  1  0  0  0  0
 25 24  1  0  0  0  0
 26 28  1  0  0  0  0
 27 28  1  0  0  0  0
 29 30  1  0  0  0  0
 30 31  1  0  0  0  0
 31 32  1  0  0  0  0
 32 33  1  0  0  0  0
 34 33  1  0  0  0  0
 36 42  1  6  0  0  0
 36 38  1  0  0  0  0
 37 36  1  0  0  0  0
 37 41  1  0  0  0  0
 38 34  1  1  0  0  0
 38 39  1  0  0  0  0
 40 39  1  0  0  0  0
 40 35  1  1  0  0  0
 41 40  1  0  0  0  0
 43 42  1  0  0  0  0
 45 48  1  0  0  0  0
 46 44  1  0  0  0  0
 46 43  1  0  0  0  0
 47 50  1  0  0  0  0
 48 44  2  0  0  0  0
 49 45  2  0  0  0  0
 49 50  1  0  0  0  0
 50 46  2  0  0  0  0
M  END
>  <MODEL>
4

>  <REMARK>
 VINA RESULT:      -4.4      5.487     10.281
  Name = 
  24 active torsions:
  status: ('A' for Active; 'I' for Inactive)
    1  A    between atoms: N_1  and  N_20
    2  A    between atoms: N_1  and  C_41
    3  A    between atoms: C_2  and  N_6
    4  A    between atoms: C_2  and  C_23
    5  A    between atoms: C_2  and  O_49
    6  A    between atoms: C_3  and  C_9
    7  A    between atoms: C_3  and  C_27
    8  A    between atoms: N_6  and  C_32
    9  A    between atoms: N_10  and  C_45
   10  A    between atoms: N_10  and  C_50
   11  A    between atoms: C_11  and  C_37
   12  A    between atoms: C_12  and  C_26
   13  A    between atoms: C_14  and  C_16
   14  A    between atoms: C_14  and  C_32
   15  A    between atoms: C_14  and  C_46
   16  A    between atoms: C_16  and  C_19
   17  A    between atoms: N_20  and  O_21
   18  A    between atoms: C_22  and  O_49
   19  A    between atoms: C_25  and  C_27
   20  A    between atoms: C_26  and  C_41
   21  A    between atoms: C_29  and  C_50
   22  A    between atoms: N_35  and  C_37
   23  A    between atoms: N_35  and  C_42
   24  A    between atoms: C_42  and  C_45
                            x       y       z     vdW  Elec       q    Type
                         _______ _______ _______ _____ _____    ______ ____

>  <TORSDO>
F 24

$$$$
=
 OpenBabel11042422143D

 50 53  0  0  1  0  0  0  0  0999 V2000
  161.0590  209.3170  153.9050 C   0  0  0  0  0  0  0  0  0  0  0  0
  160.0710  209.5590  154.8710 C   0  0  0  0  0  3  0  0  0  0  0  0
  160.7930  206.9270  154.2360 C   0  0  0  0  0  0  0  0  0  0  0  0
  159.4330  208.4900  155.5040 C   0  0  0  0  0  3  0  0  0  0  0  0
  159.7890  207.1770  155.1880 C   0  0  0  0  0  3  0  0  0  0  0  0
  161.4210  208.0020  153.5980 C   0  0  0  0  0  3  0  0  0  0  0  0
  161.1910  205.6260  153.9030 O   0  0  0  0  0  0  0  0  0  0  0  0
  161.7230  205.2430  152.6320 C   0  0  2  0  0  3  0  0  0  0  0  0
  163.7170  206.1600  151.5790 N   0  0  0  0  0  1  0  0  0  0  0  0
  162.3290  206.4330  151.8980 C   0  0  0  0  0  2  0  0  0  0  0  0
  160.6920  204.6020  151.8100 N   0  0  0  0  0  2  0  0  0  0  0  0
  161.3190  203.7670  150.7830 C   0  0  0  0  0  2  0  0  0  0  0  0
  160.6710  203.9720  149.4190 C   0  0  1  0  0  3  0  0  0  0  0  0
  161.9460  205.3310  147.6210 C   0  0  0  0  0  0  0  0  0  0  0  0
  160.8900  206.5360  149.1690 C   0  0  0  0  0  3  0  0  0  0  0  0
  161.5240  207.3720  148.3320 N   0  0  0  0  0  0  0  0  0  0  0  0
  161.4990  208.8170  148.4250 C   0  0  0  0  0  1  0  0  0  0  0  0
  162.1670  206.6700  147.3750 C   0  0  0  0  0  3  0  0  0  0  0  0
  161.1480  205.2380  148.7520 C   0  0  0  0  0  0  0  0  0  0  0  0
  162.4990  204.1950  146.8230 C   0  0  0  0  0  2  0  0  0  0  0  0
  162.1140  204.3270  145.3610 C   0  0  0  0  0  2  0  0  0  0  0  0
  160.9110  203.5530  145.1110 N   0  0  0  0  0  2  0  0  0  0  0  0
  161.0580  202.3390  145.7970 N   0  0  0  0  0  2  0  0  0  0  0  0
  159.5950  201.3700  144.5170 C   0  0  0  0  0  1  0  0  0  0  0  0
  159.8330  201.7620  145.8370 O   0  0  0  0  0  0  0  0  0  0  0  0
  160.8510  202.7390  148.5340 C   0  0  0  0  0  2  0  0  0  0  0  0
  161.3300  200.3130  148.5790 C   0  0  0  0  0  1  0  0  0  0  0  0
  160.7670  201.4730  149.3700 C   0  0  0  0  0  2  0  0  0  0  0  0
  161.7400  210.4480  153.2070 C   0  0  0  0  0  2  0  0  0  0  0  0
  160.7780  211.2130  152.4270 N   0  0  0  0  0  2  0  0  0  0  0  0
  161.3650  211.4500  151.1140 C   0  0  0  0  0  2  0  0  0  0  0  0
  160.3680  212.1790  150.2220 C   0  0  0  0  0  2  0  0  0  0  0  0
  160.4960  213.6260  150.3790 N   0  0  0  0  0  2  0  0  0  0  0  0
  159.4030  214.0820  151.2340 C   0  0  0  0  0  2  0  0  0  0  0  0
  156.6190  213.8760  147.2430 O   0  0  0  0  0  1  0  0  0  0  0  0
  156.9030  214.3250  151.4460 C   0  0  2  0  0  3  0  0  0  0  0  0
  155.5260  214.1120  150.7940 C   0  0  0  0  0  2  0  0  0  0  0  0
  158.0480  213.6340  150.6790 C   0  0  1  0  0  3  0  0  0  0  0  0
  157.9860  213.9580  149.1880 C   0  0  0  0  0  2  0  0  0  0  0  0
  156.6170  213.6150  148.6130 C   0  0  1  0  0  3  0  0  0  0  0  0
  155.5530  214.4530  149.3070 C   0  0  0  0  0  2  0  0  0  0  0  0
  156.8670  213.9270  152.9270 C   0  0  0  0  0  2  0  0  0  0  0  0
  157.4820  212.5540  153.2240 C   0  0  0  0  0  2  0  0  0  0  0  0
  159.2150  213.0860  154.9600 C   0  0  0  0  0  3  0  0  0  0  0  0
  158.9270  212.4290  157.2590 C   0  0  0  0  0  3  0  0  0  0  0  0
  158.0080  212.4640  154.6290 C   0  0  0  0  0  0  0  0  0  0  0  0
  155.9420  211.2120  155.3850 C   0  0  0  0  0  1  0  0  0  0  0  0
  159.6880  213.0600  156.2730 C   0  0  0  0  0  3  0  0  0  0  0  0
  157.7420  211.8440  156.9320 N   0  0  0  0  0  0  0  0  0  0  0  0
  157.2710  211.8370  155.6540 C   0  0  0  0  0  0  0  0  0  0  0  0
  1  2  1  0  0  0  0
  2  4  2  0  0  0  0
  3  5  2  0  0  0  0
  5  4  1  0  0  0  0
  6  1  2  0  0  0  0
  6  3  1  0  0  0  0
  7  3  1  0  0  0  0
  8 10  1  6  0  0  0
  8  7  1  0  0  0  0
  9 10  1  0  0  0  0
 11  8  1  0  0  0  0
 12 11  1  0  0  0  0
 13 26  1  6  0  0  0
 13 12  1  0  0  0  0
 14 19  1  0  0  0  0
 16 17  1  0  0  0  0
 16 15  1  0  0  0  0
 18 14  2  0  0  0  0
 18 16  1  0  0  0  0
 19 15  2  0  0  0  0
 19 13  1  0  0  0  0
 20 14  1  0  0  0  0
 21 20  1  0  0  0  0
 22 21  1  0  0  0  0
 22 23  1  0  0  0  0
 23 25  1  0  0  0  0
 24 25  1  0  0  0  0
 26 28  1  0  0  0  0
 27 28  1  0  0  0  0
 29  1  1  0  0  0  0
 30 29  1  0  0  0  0
 31 30  1  0  0  0  0
 32 33  1  0  0  0  0
 32 31  1  0  0  0  0
 33 34  1  0  0  0  0
 36 42  1  1  0  0  0
 37 36  1  0  0  0  0
 38 34  1  1  0  0  0
 38 36  1  0  0  0  0
 39 38  1  0  0  0  0
 40 35  1  6  0  0  0
 40 39  1  0  0  0  0
 40 41  1  0  0  0  0
 41 37  1  0  0  0  0
 42 43  1  0  0  0  0
 43 46  1  0  0  0  0
 44 48  1  0  0  0  0
 46 44  2  0  0  0  0
 46 50  1  0  0  0  0
 47 50  1  0  0  0  0
 48 45  2  0  0  0  0
 49 45  1  0  0  0  0
 50 49  2  0  0  0  0
M  END
>  <MODEL>
5

>  <REMARK>
 VINA RESULT:      -4.2      6.012     11.098
  Name = 
  24 active torsions:
  status: ('A' for Active; 'I' for Inactive)
    1  A    between atoms: N_1  and  N_20
    2  A    between atoms: N_1  and  C_41
    3  A    between atoms: C_2  and  N_6
    4  A    between atoms: C_2  and  C_23
    5  A    between atoms: C_2  and  O_49
    6  A    between atoms: C_3  and  C_9
    7  A    between atoms: C_3  and  C_27
    8  A    between atoms: N_6  and  C_32
    9  A    between atoms: N_10  and  C_45
   10  A    between atoms: N_10  and  C_50
   11  A    between atoms: C_11  and  C_37
   12  A    between atoms: C_12  and  C_26
   13  A    between atoms: C_14  and  C_16
   14  A    between atoms: C_14  and  C_32
   15  A    between atoms: C_14  and  C_46
   16  A    between atoms: C_16  and  C_19
   17  A    between atoms: N_20  and  O_21
   18  A    between atoms: C_22  and  O_49
   19  A    between atoms: C_25  and  C_27
   20  A    between atoms: C_26  and  C_41
   21  A    between atoms: C_29  and  C_50
   22  A    between atoms: N_35  and  C_37
   23  A    between atoms: N_35  and  C_42
   24  A    between atoms: C_42  and  C_45
                            x       y       z     vdW  Elec       q    Type
                         _______ _______ _______ _____ _____    ______ ____

>  <TORSDO>
F 24

$$$$
=
 OpenBabel11042422143D

 50 53  0  0  1  0  0  0  0  0999 V2000
  161.3040  206.6630  152.8320 C   0  0  0  0  0  0  0  0  0  0  0  0
  161.4460  206.7070  154.2270 C   0  0  0  0  0  3  0  0  0  0  0  0
  160.5380  208.9670  152.8390 C   0  0  0  0  0  0  0  0  0  0  0  0
  161.1540  207.8820  154.9230 C   0  0  0  0  0  3  0  0  0  0  0  0
  160.7040  209.0110  154.2350 C   0  0  0  0  0  3  0  0  0  0  0  0
  160.8430  207.7900  152.1460 C   0  0  0  0  0  3  0  0  0  0  0  0
  160.0740  210.0700  152.1130 O   0  0  0  0  0  0  0  0  0  0  0  0
  160.5480  211.4080  152.2810 C   0  0  2  0  0  3  0  0  0  0  0  0
  158.5930  211.4950  153.7300 N   0  0  0  0  0  1  0  0  0  0  0  0
  159.4920  212.2990  152.9240 C   0  0  0  0  0  2  0  0  0  0  0  0
  160.9850  211.9700  151.0000 N   0  0  0  0  0  2  0  0  0  0  0  0
  160.1700  213.1400  150.6630 C   0  0  0  0  0  2  0  0  0  0  0  0
  160.1280  213.3810  149.1590 C   0  0  1  0  0  3  0  0  0  0  0  0
  158.3280  213.8600  147.3600 C   0  0  0  0  0  0  0  0  0  0  0  0
  157.6090  213.8780  149.4680 C   0  0  0  0  0  3  0  0  0  0  0  0
  156.5780  214.1700  148.6600 N   0  0  0  0  0  0  0  0  0  0  0  0
  155.2250  214.4330  149.1040 C   0  0  0  0  0  1  0  0  0  0  0  0
  156.9810  214.1570  147.3730 C   0  0  0  0  0  3  0  0  0  0  0  0
  158.7320  213.6890  148.6760 C   0  0  0  0  0  0  0  0  0  0  0  0
  159.1910  213.7720  146.1430 C   0  0  0  0  0  2  0  0  0  0  0  0
  158.3780  213.3340  144.9390 C   0  0  0  0  0  2  0  0  0  0  0  0
  159.0610  212.2380  144.2740 N   0  0  0  0  0  2  0  0  0  0  0  0
  159.8550  212.8040  143.2660 N   0  0  0  0  0  2  0  0  0  0  0  0
  159.8050  213.2200  141.1350 C   0  0  0  0  0  1  0  0  0  0  0  0
  159.0120  213.2090  142.2850 O   0  0  0  0  0  0  0  0  0  0  0  0
  161.1410  214.4490  148.7450 C   0  0  0  0  0  2  0  0  0  0  0  0
  162.3040  212.6010  147.5850 C   0  0  0  0  0  1  0  0  0  0  0  0
  162.4930  213.8130  148.4700 C   0  0  0  0  0  2  0  0  0  0  0  0
  161.6270  205.4200  152.0700 C   0  0  0  0  0  2  0  0  0  0  0  0
  160.4450  204.5810  151.9460 N   0  0  0  0  0  2  0  0  0  0  0  0
  160.8860  203.1920  151.9800 C   0  0  0  0  0  2  0  0  0  0  0  0
  160.6380  202.5340  150.6280 C   0  0  0  0  0  2  0  0  0  0  0  0
  160.6210  203.5330  149.5620 N   0  0  0  0  0  2  0  0  0  0  0  0
  161.9190  203.4980  148.8940 C   0  0  0  0  0  2  0  0  0  0  0  0
  161.6960  208.2990  148.1020 O   0  0  0  0  0  1  0  0  0  0  0  0
  160.9710  204.3590  146.7230 C   0  0  2  0  0  3  0  0  0  0  0  0
  160.8500  205.5420  145.7480 C   0  0  0  0  0  2  0  0  0  0  0  0
  162.0190  204.5930  147.8290 C   0  0  1  0  0  3  0  0  0  0  0  0
  161.8250  205.9550  148.4920 C   0  0  0  0  0  2  0  0  0  0  0  0
  161.8230  207.0710  147.4540 C   0  0  1  0  0  3  0  0  0  0  0  0
  160.6640  206.8620  146.4900 C   0  0  0  0  0  2  0  0  0  0  0  0
  161.2090  203.0500  145.9580 C   0  0  0  0  0  2  0  0  0  0  0  0
  160.0650  202.0350  146.0790 C   0  0  0  0  0  2  0  0  0  0  0  0
  160.3420  200.0030  144.6340 C   0  0  0  0  0  3  0  0  0  0  0  0
  161.5370  198.0640  145.4170 C   0  0  0  0  0  3  0  0  0  0  0  0
  160.5390  200.6250  145.8690 C   0  0  0  0  0  0  0  0  0  0  0  0
  161.5640  200.5640  148.1830 C   0  0  0  0  0  1  0  0  0  0  0  0
  160.8270  198.7130  144.4050 C   0  0  0  0  0  3  0  0  0  0  0  0
  161.7420  198.6850  146.6110 N   0  0  0  0  0  0  0  0  0  0  0  0
  161.2590  199.9330  146.8640 C   0  0  0  0  0  0  0  0  0  0  0  0
  1  2  1  0  0  0  0
  2  4  2  0  0  0  0
  3  5  2  0  0  0  0
  5  4  1  0  0  0  0
  6  1  2  0  0  0  0
  6  3  1  0  0  0  0
  7  8  1  0  0  0  0
  7  3  1  0  0  0  0
  8 10  1  6  0  0  0
 10  9  1  0  0  0  0
 11  8  1  0  0  0  0
 12 11  1  0  0  0  0
 13 26  1  1  0  0  0
 13 12  1  0  0  0  0
 14 18  2  0  0  0  0
 14 19  1  0  0  0  0
 16 17  1  0  0  0  0
 16 15  1  0  0  0  0
 18 16  1  0  0  0  0
 19 13  1  0  0  0  0
 19 15  2  0  0  0  0
 20 14  1  0  0  0  0
 21 20  1  0  0  0  0
 22 21  1  0  0  0  0
 23 22  1  0  0  0  0
 24 25  1  0  0  0  0
 25 23  1  0  0  0  0
 27 28  1  0  0  0  0
 28 26  1  0  0  0  0
 29  1  1  0  0  0  0
 30 31  1  0  0  0  0
 30 29  1  0  0  0  0
 32 31  1  0  0  0  0
 33 32  1  0  0  0  0
 34 33  1  0  0  0  0
 36 42  1  6  0  0  0
 36 38  1  0  0  0  0
 37 41  1  0  0  0  0
 37 36  1  0  0  0  0
 38 39  1  0  0  0  0
 38 34  1  1  0  0  0
 40 35  1  1  0  0  0
 40 39  1  0  0  0  0
 41 40  1  0  0  0  0
 42 43  1  0  0  0  0
 44 46  1  0  0  0  0
 45 49  2  0  0  0  0
 46 43  1  0  0  0  0
 46 50  2  0  0  0  0
 48 44  2  0  0  0  0
 48 45  1  0  0  0  0
 49 50  1  0  0  0  0
 50 47  1  0  0  0  0
M  END
>  <MODEL>
6

>  <REMARK>
 VINA RESULT:      -3.7      3.764     10.043
  Name = 
  24 active torsions:
  status: ('A' for Active; 'I' for Inactive)
    1  A    between atoms: N_1  and  N_20
    2  A    between atoms: N_1  and  C_41
    3  A    between atoms: C_2  and  N_6
    4  A    between atoms: C_2  and  C_23
    5  A    between atoms: C_2  and  O_49
    6  A    between atoms: C_3  and  C_9
    7  A    between atoms: C_3  and  C_27
    8  A    between atoms: N_6  and  C_32
    9  A    between atoms: N_10  and  C_45
   10  A    between atoms: N_10  and  C_50
   11  A    between atoms: C_11  and  C_37
   12  A    between atoms: C_12  and  C_26
   13  A    between atoms: C_14  and  C_16
   14  A    between atoms: C_14  and  C_32
   15  A    between atoms: C_14  and  C_46
   16  A    between atoms: C_16  and  C_19
   17  A    between atoms: N_20  and  O_21
   18  A    between atoms: C_22  and  O_49
   19  A    between atoms: C_25  and  C_27
   20  A    between atoms: C_26  and  C_41
   21  A    between atoms: C_29  and  C_50
   22  A    between atoms: N_35  and  C_37
   23  A    between atoms: N_35  and  C_42
   24  A    between atoms: C_42  and  C_45
                            x       y       z     vdW  Elec       q    Type
                         _______ _______ _______ _____ _____    ______ ____

>  <TORSDO>
F 24

$$$$
=
 OpenBabel11042422143D

 50 53  0  0  1  0  0  0  0  0999 V2000
  161.5090  207.7920  153.9000 C   0  0  0  0  0  0  0  0  0  0  0  0
  161.4250  206.4200  154.1800 C   0  0  0  0  0  3  0  0  0  0  0  0
  162.2100  207.2850  151.6320 C   0  0  0  0  0  0  0  0  0  0  0  0
  161.7140  205.4840  153.1850 C   0  0  0  0  0  3  0  0  0  0  0  0
  162.1020  205.9110  151.9130 C   0  0  0  0  0  3  0  0  0  0  0  0
  161.9090  208.2180  152.6300 C   0  0  0  0  0  3  0  0  0  0  0  0
  162.6120  207.7550  150.3760 O   0  0  0  0  0  0  0  0  0  0  0  0
  162.3000  207.1170  149.1350 C   0  0  2  0  0  3  0  0  0  0  0  0
  161.2750  209.2890  148.7280 N   0  0  0  0  0  1  0  0  0  0  0  0
  161.2310  207.8850  148.3660 C   0  0  0  0  0  2  0  0  0  0  0  0
  161.8800  205.7300  149.3550 N   0  0  0  0  0  2  0  0  0  0  0  0
  161.2290  205.2080  148.1510 C   0  0  0  0  0  2  0  0  0  0  0  0
  162.1510  204.2770  147.3730 C   0  0  1  0  0  3  0  0  0  0  0  0
  161.1990  201.8730  147.4970 C   0  0  0  0  0  0  0  0  0  0  0  0
  160.8490  202.9480  145.5780 C   0  0  0  0  0  3  0  0  0  0  0  0
  160.3290  201.7150  145.4800 N   0  0  0  0  0  0  0  0  0  0  0  0
  159.6420  201.1930  144.3170 C   0  0  0  0  0  1  0  0  0  0  0  0
  160.5170  201.0410  146.6340 C   0  0  0  0  0  3  0  0  0  0  0  0
  161.4170  203.0740  146.8370 C   0  0  0  0  0  0  0  0  0  0  0  0
  161.6430  201.5210  148.8800 C   0  0  0  0  0  2  0  0  0  0  0  0
  160.6220  200.6290  149.5620 C   0  0  0  0  0  2  0  0  0  0  0  0
  160.0990  201.3090  150.7330 N   0  0  0  0  0  2  0  0  0  0  0  0
  161.1040  202.1770  151.1830 N   0  0  0  0  0  2  0  0  0  0  0  0
  159.5340  203.4690  151.9460 C   0  0  0  0  0  1  0  0  0  0  0  0
  160.6550  202.7310  152.3350 O   0  0  0  0  0  0  0  0  0  0  0  0
  162.9070  205.0370  146.2820 C   0  0  0  0  0  2  0  0  0  0  0  0
  160.8560  206.2470  145.6170 C   0  0  0  0  0  1  0  0  0  0  0  0
  161.9770  205.3600  145.1240 C   0  0  0  0  0  2  0  0  0  0  0  0
  161.1880  208.8070  154.9480 C   0  0  0  0  0  2  0  0  0  0  0  0
  159.7800  209.1690  154.8860 N   0  0  0  0  0  2  0  0  0  0  0  0
  159.7040  210.6150  154.7100 C   0  0  0  0  0  2  0  0  0  0  0  0
  160.1180  210.9880  153.2910 C   0  0  0  0  0  2  0  0  0  0  0  0
  159.0130  211.6310  152.5840 N   0  0  0  0  0  2  0  0  0  0  0  0
  159.3210  213.0540  152.4730 C   0  0  0  0  0  2  0  0  0  0  0  0
  155.0890  213.7220  154.7900 O   0  0  0  0  0  1  0  0  0  0  0  0
  157.2980  213.8140  151.1760 C   0  0  2  0  0  3  0  0  0  0  0  0
  155.8920  214.4380  151.2260 C   0  0  0  0  0  2  0  0  0  0  0  0
  158.0440  213.8980  152.5220 C   0  0  1  0  0  3  0  0  0  0  0  0
  157.1650  213.4090  153.6710 C   0  0  0  0  0  2  0  0  0  0  0  0
  155.8390  214.1600  153.6990 C   0  0  1  0  0  3  0  0  0  0  0  0
  155.0840  213.9010  152.4030 C   0  0  0  0  0  2  0  0  0  0  0  0
  158.1110  214.4060  150.0170 C   0  0  0  0  0  2  0  0  0  0  0  0
  158.1120  213.5450  148.7470 C   0  0  0  0  0  2  0  0  0  0  0  0
  160.5780  213.2680  149.1180 C   0  0  0  0  0  3  0  0  0  0  0  0
  162.0660  212.7370  147.3000 C   0  0  0  0  0  3  0  0  0  0  0  0
  159.5030  213.3110  148.2270 C   0  0  0  0  0  0  0  0  0  0  0  0
  158.6330  213.0090  145.8690 C   0  0  0  0  0  1  0  0  0  0  0  0
  161.8680  212.9950  148.6580 C   0  0  0  0  0  3  0  0  0  0  0  0
  161.0090  212.7600  146.4420 N   0  0  0  0  0  0  0  0  0  0  0  0
  159.7460  213.0460  146.8640 C   0  0  0  0  0  0  0  0  0  0  0  0
  1  2  1  0  0  0  0
  1 29  1  0  0  0  0
  3  5  2  0  0  0  0
  3  6  1  0  0  0  0
  4  2  2  0  0  0  0
  5  4  1  0  0  0  0
  6  1  2  0  0  0  0
  7  3  1  0  0  0  0
  8 10  1  1  0  0  0
  8 11  1  0  0  0  0
  8  7  1  0  0  0  0
 10  9  1  0  0  0  0
 12 11  1  0  0  0  0
 13 26  1  6  0  0  0
 13 12  1  0  0  0  0
 14 20  1  0  0  0  0
 15 19  2  0  0  0  0
 16 15  1  0  0  0  0
 16 18  1  0  0  0  0
 17 16  1  0  0  0  0
 18 14  2  0  0  0  0
 19 13  1  0  0  0  0
 19 14  1  0  0  0  0
 20 21  1  0  0  0  0
 21 22  1  0  0  0  0
 22 23  1  0  0  0  0
 23 25  1  0  0  0  0
 24 25  1  0  0  0  0
 28 27  1  0  0  0  0
 28 26  1  0  0  0  0
 30 29  1  0  0  0  0
 31 30  1  0  0  0  0
 32 31  1  0  0  0  0
 33 32  1  0  0  0  0
 34 33  1  0  0  0  0
 36 42  1  6  0  0  0
 36 37  1  0  0  0  0
 36 38  1  0  0  0  0
 37 41  1  0  0  0  0
 38 34  1  6  0  0  0
 38 39  1  0  0  0  0
 39 40  1  0  0  0  0
 40 35  1  1  0  0  0
 41 40  1  0  0  0  0
 43 42  1  0  0  0  0
 45 48  2  0  0  0  0
 46 43  1  0  0  0  0
 46 44  2  0  0  0  0
 47 50  1  0  0  0  0
 48 44  1  0  0  0  0
 49 50  2  0  0  0  0
 49 45  1  0  0  0  0
 50 46  1  0  0  0  0
M  END
>  <MODEL>
7

>  <REMARK>
 VINA RESULT:      -3.5      5.128     10.469
  Name = 
  24 active torsions:
  status: ('A' for Active; 'I' for Inactive)
    1  A    between atoms: N_1  and  N_20
    2  A    between atoms: N_1  and  C_41
    3  A    between atoms: C_2  and  N_6
    4  A    between atoms: C_2  and  C_23
    5  A    between atoms: C_2  and  O_49
    6  A    between atoms: C_3  and  C_9
    7  A    between atoms: C_3  and  C_27
    8  A    between atoms: N_6  and  C_32
    9  A    between atoms: N_10  and  C_45
   10  A    between atoms: N_10  and  C_50
   11  A    between atoms: C_11  and  C_37
   12  A    between atoms: C_12  and  C_26
   13  A    between atoms: C_14  and  C_16
   14  A    between atoms: C_14  and  C_32
   15  A    between atoms: C_14  and  C_46
   16  A    between atoms: C_16  and  C_19
   17  A    between atoms: N_20  and  O_21
   18  A    between atoms: C_22  and  O_49
   19  A    between atoms: C_25  and  C_27
   20  A    between atoms: C_26  and  C_41
   21  A    between atoms: C_29  and  C_50
   22  A    between atoms: N_35  and  C_37
   23  A    between atoms: N_35  and  C_42
   24  A    between atoms: C_42  and  C_45
                            x       y       z     vdW  Elec       q    Type
                         _______ _______ _______ _____ _____    ______ ____

>  <TORSDO>
F 24

$$$$
=
 OpenBabel11042422143D

 50 53  0  0  1  0  0  0  0  0999 V2000
  162.2490  205.1930  144.9330 C   0  0  0  0  0  0  0  0  0  0  0  0
  161.8370  203.8610  145.0840 C   0  0  0  0  0  3  0  0  0  0  0  0
  161.8640  205.5780  147.2990 C   0  0  0  0  0  0  0  0  0  0  0  0
  161.4580  203.3830  146.3410 C   0  0  0  0  0  3  0  0  0  0  0  0
  161.4730  204.2350  147.4470 C   0  0  0  0  0  3  0  0  0  0  0  0
  162.2530  206.0470  146.0400 C   0  0  0  0  0  3  0  0  0  0  0  0
  161.8770  206.4690  148.3790 O   0  0  0  0  0  0  0  0  0  0  0  0
  161.9520  206.0770  149.7510 C   0  0  2  0  0  3  0  0  0  0  0  0
  160.7650  204.3720  151.0230 N   0  0  0  0  0  1  0  0  0  0  0  0
  160.6000  205.6010  150.2710 C   0  0  0  0  0  2  0  0  0  0  0  0
  162.4630  207.1740  150.5790 N   0  0  0  0  0  2  0  0  0  0  0  0
  161.6950  207.2620  151.8220 C   0  0  0  0  0  2  0  0  0  0  0  0
  161.2350  208.6880  152.0990 C   0  0  1  0  0  3  0  0  0  0  0  0
  160.4050  210.0470  154.1410 C   0  0  0  0  0  0  0  0  0  0  0  0
  161.3460  208.0830  154.6100 C   0  0  0  0  0  3  0  0  0  0  0  0
  160.9970  208.6780  155.7610 N   0  0  0  0  0  0  0  0  0  0  0  0
  161.1930  208.1130  157.0800 C   0  0  0  0  0  1  0  0  0  0  0  0
  160.4150  209.8680  155.5090 C   0  0  0  0  0  3  0  0  0  0  0  0
  160.9950  208.9290  153.5690 C   0  0  0  0  0  0  0  0  0  0  0  0
  159.8790  211.2460  153.4210 C   0  0  0  0  0  2  0  0  0  0  0  0
  158.8510  211.9730  154.2680 C   0  0  0  0  0  2  0  0  0  0  0  0
  157.5920  212.0310  153.5470 N   0  0  0  0  0  2  0  0  0  0  0  0
  156.8270  213.0440  154.1430 N   0  0  0  0  0  2  0  0  0  0  0  0
  155.9880  213.7860  156.0030 C   0  0  0  0  0  1  0  0  0  0  0  0
  156.6880  212.7110  155.4490 O   0  0  0  0  0  0  0  0  0  0  0  0
  162.1980  209.7060  151.4870 C   0  0  0  0  0  2  0  0  0  0  0  0
  161.8630  210.0080  149.0550 C   0  0  0  0  0  1  0  0  0  0  0  0
  161.4890  210.5300  150.4250 C   0  0  0  0  0  2  0  0  0  0  0  0
  162.6740  205.7160  143.6000 C   0  0  0  0  0  2  0  0  0  0  0  0
  161.5180  205.8890  142.7340 N   0  0  0  0  0  2  0  0  0  0  0  0
  161.9960  205.8850  141.3560 C   0  0  0  0  0  2  0  0  0  0  0  0
  162.2750  207.3110  140.8990 C   0  0  0  0  0  2  0  0  0  0  0  0
  161.6800  207.5600  139.5880 N   0  0  0  0  0  2  0  0  0  0  0  0
  160.7030  208.6340  139.7360 C   0  0  0  0  0  2  0  0  0  0  0  0
  163.3820  212.5880  138.7780 O   0  0  0  0  0  1  0  0  0  0  0  0
  159.6700  210.5660  138.4880 C   0  0  2  0  0  3  0  0  0  0  0  0
  159.9060  211.8470  137.6690 C   0  0  0  0  0  2  0  0  0  0  0  0
  160.9580  209.7530  138.7220 C   0  0  1  0  0  3  0  0  0  0  0  0
  162.0870  210.6450  139.2360 C   0  0  0  0  0  2  0  0  0  0  0  0
  162.3130  211.8280  138.3030 C   0  0  1  0  0  3  0  0  0  0  0  0
  161.0490  212.6750  138.2450 C   0  0  0  0  0  2  0  0  0  0  0  0
  158.5520  209.7230  137.8610 C   0  0  0  0  0  2  0  0  0  0  0  0
  157.5600  210.5280  137.0110 C   0  0  0  0  0  2  0  0  0  0  0  0
  155.6020  209.6830  138.3350 C   0  0  0  0  0  3  0  0  0  0  0  0
  153.9230  211.1860  139.1840 C   0  0  0  0  0  3  0  0  0  0  0  0
  156.2590  210.7570  137.7290 C   0  0  0  0  0  0  0  0  0  0  0  0
  156.4060  213.2500  137.3200 C   0  0  0  0  0  1  0  0  0  0  0  0
  154.4230  209.8880  139.0540 C   0  0  0  0  0  3  0  0  0  0  0  0
  154.5810  212.2290  138.6080 N   0  0  0  0  0  0  0  0  0  0  0  0
  155.7200  212.0500  137.8830 C   0  0  0  0  0  0  0  0  0  0  0  0
  1  2  2  0  0  0  0
  1  6  1  0  0  0  0
  2  4  1  0  0  0  0
  3  5  1  0  0  0  0
  3  7  1  0  0  0  0
  4  5  2  0  0  0  0
  6  3  2  0  0  0  0
  7  8  1  0  0  0  0
  8 10  1  1  0  0  0
  8 11  1  0  0  0  0
 10  9  1  0  0  0  0
 11 12  1  0  0  0  0
 12 13  1  0  0  0  0
 13 26  1  1  0  0  0
 13 19  1  0  0  0  0
 14 18  2  0  0  0  0
 15 16  1  0  0  0  0
 16 17  1  0  0  0  0
 18 16  1  0  0  0  0
 19 14  1  0  0  0  0
 19 15  2  0  0  0  0
 20 14  1  0  0  0  0
 20 21  1  0  0  0  0
 22 23  1  0  0  0  0
 22 21  1  0  0  0  0
 23 25  1  0  0  0  0
 25 24  1  0  0  0  0
 27 28  1  0  0  0  0
 28 26  1  0  0  0  0
 29  1  1  0  0  0  0
 30 29  1  0  0  0  0
 31 30  1  0  0  0  0
 32 31  1  0  0  0  0
 33 34  1  0  0  0  0
 33 32  1  0  0  0  0
 36 42  1  6  0  0  0
 36 38  1  0  0  0  0
 37 41  1  0  0  0  0
 37 36  1  0  0  0  0
 38 39  1  0  0  0  0
 38 34  1  1  0  0  0
 40 35  1  1  0  0  0
 40 39  1  0  0  0  0
 41 40  1  0  0  0  0
 43 46  1  0  0  0  0
 43 42  1  0  0  0  0
 44 48  1  0  0  0  0
 46 50  1  0  0  0  0
 46 44  2  0  0  0  0
 47 50  1  0  0  0  0
 48 45  2  0  0  0  0
 49 45  1  0  0  0  0
 50 49  2  0  0  0  0
M  END
>  <MODEL>
8

>  <REMARK>
 VINA RESULT:      -3.5      1.765      2.522
  Name = 
  24 active torsions:
  status: ('A' for Active; 'I' for Inactive)
    1  A    between atoms: N_1  and  N_20
    2  A    between atoms: N_1  and  C_41
    3  A    between atoms: C_2  and  N_6
    4  A    between atoms: C_2  and  C_23
    5  A    between atoms: C_2  and  O_49
    6  A    between atoms: C_3  and  C_9
    7  A    between atoms: C_3  and  C_27
    8  A    between atoms: N_6  and  C_32
    9  A    between atoms: N_10  and  C_45
   10  A    between atoms: N_10  and  C_50
   11  A    between atoms: C_11  and  C_37
   12  A    between atoms: C_12  and  C_26
   13  A    between atoms: C_14  and  C_16
   14  A    between atoms: C_14  and  C_32
   15  A    between atoms: C_14  and  C_46
   16  A    between atoms: C_16  and  C_19
   17  A    between atoms: N_20  and  O_21
   18  A    between atoms: C_22  and  O_49
   19  A    between atoms: C_25  and  C_27
   20  A    between atoms: C_26  and  C_41
   21  A    between atoms: C_29  and  C_50
   22  A    between atoms: N_35  and  C_37
   23  A    between atoms: N_35  and  C_42
   24  A    between atoms: C_42  and  C_45
                            x       y       z     vdW  Elec       q    Type
                         _______ _______ _______ _____ _____    ______ ____

>  <TORSDO>
F 24

$$$$
=
 OpenBabel11042422143D

 50 53  0  0  1  0  0  0  0  0999 V2000
  161.3520  205.2150  152.6590 C   0  0  0  0  0  0  0  0  0  0  0  0
  162.4920  205.4070  151.8650 C   0  0  0  0  0  3  0  0  0  0  0  0
  161.3020  207.5900  153.1590 C   0  0  0  0  0  0  0  0  0  0  0  0
  163.0250  206.6880  151.7030 C   0  0  0  0  0  3  0  0  0  0  0  0
  162.4330  207.7780  152.3450 C   0  0  0  0  0  3  0  0  0  0  0  0
  160.7670  206.3050  153.3080 C   0  0  0  0  0  3  0  0  0  0  0  0
  160.6890  208.6520  153.8330 O   0  0  0  0  0  0  0  0  0  0  0  0
  161.3940  209.7170  154.4770 C   0  0  2  0  0  3  0  0  0  0  0  0
  162.1510  210.4180  156.6830 N   0  0  0  0  0  1  0  0  0  0  0  0
  161.0590  209.7930  155.9610 C   0  0  0  0  0  2  0  0  0  0  0  0
  161.1120  210.9980  153.8200 N   0  0  0  0  0  2  0  0  0  0  0  0
  159.6660  211.1830  153.6860 C   0  0  0  0  0  2  0  0  0  0  0  0
  159.2330  212.5740  154.1350 C   0  0  1  0  0  3  0  0  0  0  0  0
  158.4210  213.6710  151.9350 C   0  0  0  0  0  0  0  0  0  0  0  0
  156.8530  213.3440  153.4840 C   0  0  0  0  0  3  0  0  0  0  0  0
  156.2900  213.9420  152.4220 N   0  0  0  0  0  0  0  0  0  0  0  0
  154.8890  214.2940  152.3130 C   0  0  0  0  0  1  0  0  0  0  0  0
  157.2150  214.1460  151.4610 C   0  0  0  0  0  3  0  0  0  0  0  0
  158.2020  213.1700  153.2100 C   0  0  0  0  0  0  0  0  0  0  0  0
  159.7250  213.7230  151.2080 C   0  0  0  0  0  2  0  0  0  0  0  0
  159.5480  214.3310  149.8290 C   0  0  0  0  0  2  0  0  0  0  0  0
  160.1750  213.4700  148.8420 N   0  0  0  0  0  2  0  0  0  0  0  0
  161.5610  213.6010  149.0090 N   0  0  0  0  0  2  0  0  0  0  0  0
  162.4930  213.1700  147.0960 C   0  0  0  0  0  1  0  0  0  0  0  0
  162.1360  212.5900  148.3150 O   0  0  0  0  0  0  0  0  0  0  0  0
  158.7780  212.5650  155.5950 C   0  0  0  0  0  2  0  0  0  0  0  0
  156.9010  213.0290  157.1350 C   0  0  0  0  0  1  0  0  0  0  0  0
  157.4130  213.2190  155.7250 C   0  0  0  0  0  2  0  0  0  0  0  0
  160.7590  203.8540  152.8290 C   0  0  0  0  0  2  0  0  0  0  0  0
  161.0150  203.0410  151.6500 N   0  0  0  0  0  2  0  0  0  0  0  0
  159.7250  202.6990  151.0620 C   0  0  0  0  0  2  0  0  0  0  0  0
  159.9170  201.6940  149.9330 C   0  0  0  0  0  2  0  0  0  0  0  0
  161.2020  201.0120  150.0620 N   0  0  0  0  0  2  0  0  0  0  0  0
  161.8220  200.9720  148.7410 C   0  0  0  0  0  2  0  0  0  0  0  0
  159.4900  200.3710  144.5070 O   0  0  0  0  0  1  0  0  0  0  0  0
  161.6380  202.9060  147.1350 C   0  0  2  0  0  3  0  0  0  0  0  0
  160.9170  203.5070  145.9160 C   0  0  0  0  0  2  0  0  0  0  0  0
  160.9350  201.6550  147.6960 C   0  0  1  0  0  3  0  0  0  0  0  0
  160.6120  200.6590  146.5850 C   0  0  0  0  0  2  0  0  0  0  0  0
  159.8080  201.3240  145.4740 C   0  0  1  0  0  3  0  0  0  0  0  0
  160.6290  202.4470  144.8580 C   0  0  0  0  0  2  0  0  0  0  0  0
  161.8710  203.9790  148.2070 C   0  0  0  0  0  2  0  0  0  0  0  0
  160.7000  204.9540  148.3850 C   0  0  0  0  0  2  0  0  0  0  0  0
  160.7420  207.1990  149.5070 C   0  0  0  0  0  3  0  0  0  0  0  0
  162.1240  208.9880  148.6770 C   0  0  0  0  0  3  0  0  0  0  0  0
  161.1630  206.3830  148.4540 C   0  0  0  0  0  0  0  0  0  0  0  0
  162.6310  206.0670  146.4160 C   0  0  0  0  0  1  0  0  0  0  0  0
  161.2080  208.5100  149.6170 C   0  0  0  0  0  3  0  0  0  0  0  0
  162.5460  208.1790  147.6660 N   0  0  0  0  0  0  0  0  0  0  0  0
  162.0870  206.9040  147.5260 C   0  0  0  0  0  0  0  0  0  0  0  0
  1 29  1  0  0  0  0
  1  6  1  0  0  0  0
  2  1  2  0  0  0  0
  3  6  2  0  0  0  0
  3  7  1  0  0  0  0
  4  2  1  0  0  0  0
  4  5  2  0  0  0  0
  5  3  1  0  0  0  0
  7  8  1  0  0  0  0
  8 10  1  1  0  0  0
 10  9  1  0  0  0  0
 11  8  1  0  0  0  0
 12 11  1  0  0  0  0
 13 12  1  6  0  0  0
 13 26  1  0  0  0  0
 14 19  1  0  0  0  0
 16 15  1  0  0  0  0
 17 16  1  0  0  0  0
 18 14  2  0  0  0  0
 18 16  1  0  0  0  0
 19 15  2  0  0  0  0
 19 13  1  0  0  0  0
 20 14  1  0  0  0  0
 21 20  1  0  0  0  0
 22 23  1  0  0  0  0
 22 21  1  0  0  0  0
 24 25  1  0  0  0  0
 25 23  1  0  0  0  0
 26 28  1  0  0  0  0
 28 27  1  0  0  0  0
 30 29  1  0  0  0  0
 31 30  1  0  0  0  0
 32 33  1  0  0  0  0
 32 31  1  0  0  0  0
 34 33  1  0  0  0  0
 36 38  1  0  0  0  0
 36 42  1  1  0  0  0
 37 36  1  0  0  0  0
 38 34  1  1  0  0  0
 39 38  1  0  0  0  0
 40 35  1  6  0  0  0
 40 39  1  0  0  0  0
 41 40  1  0  0  0  0
 41 37  1  0  0  0  0
 42 43  1  0  0  0  0
 43 46  1  0  0  0  0
 44 48  1  0  0  0  0
 45 48  2  0  0  0  0
 46 44  2  0  0  0  0
 47 50  1  0  0  0  0
 49 45  1  0  0  0  0
 50 49  2  0  0  0  0
 50 46  1  0  0  0  0
M  END
>  <MODEL>
9

>  <REMARK>
 VINA RESULT:      -3.2      6.038      9.397
  Name = 
  24 active torsions:
  status: ('A' for Active; 'I' for Inactive)
    1  A    between atoms: N_1  and  N_20
    2  A    between atoms: N_1  and  C_41
    3  A    between atoms: C_2  and  N_6
    4  A    between atoms: C_2  and  C_23
    5  A    between atoms: C_2  and  O_49
    6  A    between atoms: C_3  and  C_9
    7  A    between atoms: C_3  and  C_27
    8  A    between atoms: N_6  and  C_32
    9  A    between atoms: N_10  and  C_45
   10  A    between atoms: N_10  and  C_50
   11  A    between atoms: C_11  and  C_37
   12  A    between atoms: C_12  and  C_26
   13  A    between atoms: C_14  and  C_16
   14  A    between atoms: C_14  and  C_32
   15  A    between atoms: C_14  and  C_46
   16  A    between atoms: C_16  and  C_19
   17  A    between atoms: N_20  and  O_21
   18  A    between atoms: C_22  and  O_49
   19  A    between atoms: C_25  and  C_27
   20  A    between atoms: C_26  and  C_41
   21  A    between atoms: C_29  and  C_50
   22  A    between atoms: N_35  and  C_37
   23  A    between atoms: N_35  and  C_42
   24  A    between atoms: C_42  and  C_45
                            x       y       z     vdW  Elec       q    Type
                         _______ _______ _______ _____ _____    ______ ____

>  <TORSDO>
F 24

$$$$
