=
 OpenBabel11042422143D

 50 53  0  0  1  0  0  0  0  0999 V2000
  160.8940  211.4620  151.0610 C   0  0  0  0  0  3  0  0  0  0  0  0
  158.4090  210.9020  154.4160 C   0  0  0  0  0  0  0  0  0  0  0  0
  158.6970  212.2760  153.9170 C   0  0  0  0  0  0  0  0  0  0  0  0
  162.2220  209.3570  148.2030 C   0  0  0  0  0  3  0  0  0  0  0  0
  161.4620  208.9980  150.8780 C   0  0  0  0  0  0  0  0  0  0  0  0
  159.3810  209.9100  154.2910 O   0  0  0  0  0  0  0  0  0  0  0  0
  159.1310  208.5310  154.5040 C   0  0  0  0  0  2  0  0  0  0  0  0
  160.0920  211.3480  152.1140 C   0  0  0  0  0  3  0  0  0  0  0  0
  159.5320  212.4860  152.8700 C   0  0  0  0  0  0  0  0  0  0  0  0
  161.2710  207.7460  155.3020 C   0  0  0  0  0  2  0  0  0  0  0  0
  160.8700  207.5580  152.8590 C   0  0  2  0  0  3  0  0  0  0  0  0
  161.8540  207.9080  150.0890 C   0  0  0  0  0  3  0  0  0  0  0  0
  159.8400  213.8790  152.4030 C   0  0  0  0  0  1  0  0  0  0  0  0
  161.1740  208.8140  152.2430 O   0  0  0  0  0  0  0  0  0  0  0  0
  161.3990  210.2960  150.2980 C   0  0  0  0  0  0  0  0  0  0  0  0
  160.4070  207.7840  154.2840 C   0  0  0  0  0  0  0  0  0  0  0  0
  157.3080  210.6430  154.9740 O   0  0  0  0  0  0  0  0  0  0  0  0
  162.2340  208.0840  148.7630 C   0  0  0  0  0  3  0  0  0  0  0  0
  161.8070  210.4720  148.9450 C   0  0  0  0  0  0  0  0  0  0  0  0
  161.8180  214.2500  146.8960 C   0  0  0  0  0  3  0  0  0  0  0  0
  162.9080  213.8730  147.6850 C   0  0  0  0  0  3  0  0  0  0  0  0
  160.7110  212.1720  147.4420 C   0  0  0  0  0  3  0  0  0  0  0  0
  161.7910  211.7880  148.2510 C   0  0  0  0  0  0  0  0  0  0  0  0
  160.7120  213.4000  146.7700 C   0  0  0  0  0  0  0  0  0  0  0  0
  162.8960  212.6480  148.3550 C   0  0  0  0  0  3  0  0  0  0  0  0
  158.3300  214.0500  146.5310 O   0  0  0  0  0  1  0  0  0  0  0  0
  159.6780  213.8870  144.6900 O   0  0  0  0  0  0  0  0  0  0  0  0
  159.5610  213.7870  145.9400 C   0  0  0  0  0  0  0  0  0  0  0  0
  155.8590  214.4520  154.8600 C   0  0  0  0  0  2  0  0  0  0  0  0
  156.8000  213.9140  153.8080 C   0  0  0  0  0  2  0  0  0  0  0  0
  156.1440  213.6430  156.1100 C   0  0  2  0  0  3  0  0  0  0  0  0
  156.0050  214.4500  157.2380 O   0  0  0  0  0  1  0  0  0  0  0  0
  157.5770  213.1550  155.9960 C   0  0  0  0  0  2  0  0  0  0  0  0
  158.0240  213.4570  154.5750 C   0  0  1  0  0  3  0  0  0  0  0  0
  161.9070  205.4630  152.1590 C   0  0  0  0  0  0  0  0  0  0  0  0
  162.0180  203.1420  152.2300 O   0  0  0  0  0  1  0  0  0  0  0  0
  162.0310  206.6060  152.7750 C   0  0  0  0  0  3  0  0  0  0  0  0
  161.7770  204.3220  151.5380 C   0  0  0  0  0  0  0  0  0  0  0  0
  162.0960  203.4340  149.2180 N   0  0  0  0  0  2  0  0  0  0  0  0
  160.4030  204.9630  149.7100 O   0  0  0  0  0  0  0  0  0  0  0  0
  161.3750  204.2710  150.1250 C   0  0  0  0  0  0  0  0  0  0  0  0
  161.7440  203.3090  147.8080 C   0  0  1  0  0  3  0  0  0  0  0  0
  160.5720  201.8600  146.1330 C   0  0  0  0  0  1  0  0  0  0  0  0
  160.9690  200.9720  148.4210 C   0  0  0  0  0  1  0  0  0  0  0  0
  160.6850  202.2210  147.6010 C   0  0  0  0  0  3  0  0  0  0  0  0
  161.2710  204.6530  147.2640 C   0  0  0  0  0  2  0  0  0  0  0  0
  162.5260  205.3710  146.1610 S   0  0  0  0  0  0  0  0  0  0  0  0
  161.4900  205.1090  143.7510 O   0  0  0  0  0  1  0  0  0  0  0  0
  159.9050  205.5890  145.4530 C   0  0  0  0  0  1  0  0  0  0  0  0
  161.2940  205.8530  144.9150 C   0  0  1  0  0  3  0  0  0  0  0  0
  1  8  2  0  0  0  0
  2 17  2  0  0  0  0
  3  2  1  0  0  0  0
  4 18  2  0  0  0  0
  4 19  1  0  0  0  0
  5 14  1  0  0  0  0
  6  2  1  0  0  0  0
  6  7  1  0  0  0  0
  8  9  1  0  0  0  0
  9  3  2  0  0  0  0
 11 37  1  1  0  0  0
 11 16  1  0  0  0  0
 12  5  2  0  0  0  0
 13  9  1  0  0  0  0
 14 11  1  0  0  0  0
 15  5  1  0  0  0  0
 15  1  1  0  0  0  0
 16  7  1  0  0  0  0
 16 10  2  0  0  0  0
 18 12  1  0  0  0  0
 19 15  2  0  0  0  0
 20 21  1  0  0  0  0
 21 25  2  0  0  0  0
 22 23  2  0  0  0  0
 23 25  1  0  0  0  0
 23 19  1  0  0  0  0
 24 20  2  0  0  0  0
 24 22  1  0  0  0  0
 27 28  2  0  0  0  0
 28 26  1  0  0  0  0
 28 24  1  0  0  0  0
 29 31  1  0  0  0  0
 30 34  1  0  0  0  0
 30 29  1  0  0  0  0
 31 32  1  1  0  0  0
 33 31  1  0  0  0  0
 34  3  1  6  0  0  0
 34 33  1  0  0  0  0
 35 37  2  0  0  0  0
 38 35  2  0  0  0  0
 38 36  1  0  0  0  0
 39 41  1  0  0  0  0
 40 41  2  0  0  0  0
 41 38  1  0  0  0  0
 42 46  1  1  0  0  0
 42 39  1  0  0  0  0
 43 45  1  0  0  0  0
 45 42  1  0  0  0  0
 45 44  1  0  0  0  0
 47 46  1  0  0  0  0
 48 50  1  0  0  0  0
 50 49  1  1  0  0  0
 50 47  1  0  0  0  0
M  END
>  <MODEL>
1

>  <REMARK>
 VINA RESULT:      -5.6      0.000      0.000
  Name = 
  10 active torsions:
  status: ('A' for Active; 'I' for Inactive)
    1  A    between atoms: N_3  and  C_13
    2  A    between atoms: C_9  and  C_50
    3  A    between atoms: C_13  and  C_27
    4  A    between atoms: C_13  and  C_45
    5  A    between atoms: C_20  and  C_24
    6  A    between atoms: C_27  and  S_39
    7  A    between atoms: C_30  and  C_49
    8  A    between atoms: C_35  and  C_40
    9  A    between atoms: C_36  and  C_37
   10  A    between atoms: S_39  and  C_48
                            x       y       z     vdW  Elec       q    Type
                         _______ _______ _______ _____ _____    ______ ____

>  <TORSDO>
F 10

$$$$
=
 OpenBabel11042422143D

 50 53  0  0  1  0  0  0  0  0999 V2000
  160.3880  210.8380  152.8650 C   0  0  0  0  0  3  0  0  0  0  0  0
  161.6700  207.7550  150.2970 C   0  0  0  0  0  0  0  0  0  0  0  0
  161.6430  207.5410  151.7710 C   0  0  0  0  0  0  0  0  0  0  0  0
  158.4440  214.0770  152.5650 C   0  0  0  0  0  3  0  0  0  0  0  0
  160.1530  212.5190  150.9810 C   0  0  0  0  0  0  0  0  0  0  0  0
  161.9430  209.0270  149.7940 O   0  0  0  0  0  0  0  0  0  0  0  0
  161.7560  209.3950  148.4380 C   0  0  0  0  0  2  0  0  0  0  0  0
  160.7880  209.8250  152.1050 C   0  0  0  0  0  3  0  0  0  0  0  0
  161.2810  208.5320  152.6220 C   0  0  0  0  0  0  0  0  0  0  0  0
  163.4630  211.0740  148.1290 C   0  0  0  0  0  2  0  0  0  0  0  0
  161.2130  211.8980  148.7810 C   0  0  2  0  0  3  0  0  0  0  0  0
  159.5480  213.6740  150.4660 C   0  0  0  0  0  3  0  0  0  0  0  0
  161.2950  208.3110  154.1060 C   0  0  0  0  0  1  0  0  0  0  0  0
  161.0810  211.8010  150.2040 O   0  0  0  0  0  0  0  0  0  0  0  0
  159.8540  212.1050  152.3090 C   0  0  0  0  0  0  0  0  0  0  0  0
  162.1590  210.8250  148.2810 C   0  0  0  0  0  0  0  0  0  0  0  0
  161.4760  206.7910  149.5070 O   0  0  0  0  0  0  0  0  0  0  0  0
  158.7010  214.4490  151.2500 C   0  0  0  0  0  3  0  0  0  0  0  0
  159.0020  212.9140  153.1130 C   0  0  0  0  0  0  0  0  0  0  0  0
  157.9810  212.0030  157.1870 C   0  0  0  0  0  3  0  0  0  0  0  0
  159.3210  212.0810  156.7970 C   0  0  0  0  0  3  0  0  0  0  0  0
  157.2970  212.5120  154.9250 C   0  0  0  0  0  3  0  0  0  0  0  0
  158.6380  212.5760  154.5150 C   0  0  0  0  0  0  0  0  0  0  0  0
  156.9610  212.2190  156.2530 C   0  0  0  0  0  0  0  0  0  0  0  0
  159.6470  212.3690  155.4700 C   0  0  0  0  0  3  0  0  0  0  0  0
  154.9580  210.9070  156.9030 O   0  0  0  0  0  1  0  0  0  0  0  0
  154.8600  213.1900  156.7790 O   0  0  0  0  0  0  0  0  0  0  0  0
  155.5480  212.1410  156.6540 C   0  0  0  0  0  0  0  0  0  0  0  0
  160.9930  204.2590  153.3500 C   0  0  0  0  0  2  0  0  0  0  0  0
  161.0720  205.7640  153.4490 C   0  0  0  0  0  2  0  0  0  0  0  0
  161.1630  203.9410  151.8780 C   0  0  2  0  0  3  0  0  0  0  0  0
  161.8730  202.7500  151.7300 O   0  0  0  0  0  1  0  0  0  0  0  0
  161.9490  205.0900  151.2710 C   0  0  0  0  0  2  0  0  0  0  0  0
  162.0000  206.1830  152.3270 C   0  0  1  0  0  3  0  0  0  0  0  0
  161.7190  213.5850  147.0930 C   0  0  0  0  0  0  0  0  0  0  0  0
  163.0120  214.3370  145.3130 O   0  0  0  0  0  1  0  0  0  0  0  0
  161.6310  213.2780  148.3570 C   0  0  0  0  0  3  0  0  0  0  0  0
  161.8020  213.8860  145.8260 C   0  0  0  0  0  0  0  0  0  0  0  0
  160.7800  213.0650  143.6910 N   0  0  0  0  0  2  0  0  0  0  0  0
  159.5200  214.2350  145.2680 O   0  0  0  0  0  0  0  0  0  0  0  0
  160.6370  213.7490  144.9380 C   0  0  0  0  0  0  0  0  0  0  0  0
  159.6680  212.8650  142.7680 C   0  0  1  0  0  3  0  0  0  0  0  0
  160.1700  214.4530  140.8970 C   0  0  0  0  0  1  0  0  0  0  0  0
  157.8170  214.1970  141.6570 C   0  0  0  0  0  1  0  0  0  0  0  0
  159.2750  214.1810  142.0900 C   0  0  0  0  0  3  0  0  0  0  0  0
  160.0260  211.7960  141.7410 C   0  0  0  0  0  2  0  0  0  0  0  0
  161.8310  211.6170  141.6090 S   0  0  0  0  0  0  0  0  0  0  0  0
  162.2000  209.3850  140.2550 O   0  0  0  0  0  1  0  0  0  0  0  0
  160.2780  210.6190  139.6070 C   0  0  0  0  0  1  0  0  0  0  0  0
  161.7210  210.6810  140.0560 C   0  0  1  0  0  3  0  0  0  0  0  0
  2  3  1  0  0  0  0
  3  9  2  0  0  0  0
  4 19  1  0  0  0  0
  5 15  1  0  0  0  0
  6  2  1  0  0  0  0
  7  6  1  0  0  0  0
  8  9  1  0  0  0  0
  8  1  2  0  0  0  0
  9 13  1  0  0  0  0
 10 16  2  0  0  0  0
 11 37  1  1  0  0  0
 11 14  1  0  0  0  0
 12  5  2  0  0  0  0
 12 18  1  0  0  0  0
 14  5  1  0  0  0  0
 15  1  1  0  0  0  0
 15 19  2  0  0  0  0
 16  7  1  0  0  0  0
 16 11  1  0  0  0  0
 17  2  2  0  0  0  0
 18  4  2  0  0  0  0
 19 23  1  0  0  0  0
 21 20  1  0  0  0  0
 22 24  1  0  0  0  0
 23 22  2  0  0  0  0
 23 25  1  0  0  0  0
 24 28  1  0  0  0  0
 24 20  2  0  0  0  0
 25 21  2  0  0  0  0
 28 27  2  0  0  0  0
 28 26  1  0  0  0  0
 29 30  1  0  0  0  0
 31 32  1  1  0  0  0
 31 29  1  0  0  0  0
 33 31  1  0  0  0  0
 33 34  1  0  0  0  0
 34  3  1  6  0  0  0
 34 30  1  0  0  0  0
 35 37  2  0  0  0  0
 36 38  1  0  0  0  0
 38 35  2  0  0  0  0
 39 41  1  0  0  0  0
 41 40  2  0  0  0  0
 41 38  1  0  0  0  0
 42 46  1  6  0  0  0
 42 39  1  0  0  0  0
 43 45  1  0  0  0  0
 44 45  1  0  0  0  0
 45 42  1  0  0  0  0
 47 46  1  0  0  0  0
 50 49  1  1  0  0  0
 50 48  1  0  0  0  0
 50 47  1  0  0  0  0
M  END
>  <MODEL>
2

>  <REMARK>
 VINA RESULT:      -5.5      3.204      9.074
  Name = 
  10 active torsions:
  status: ('A' for Active; 'I' for Inactive)
    1  A    between atoms: N_3  and  C_13
    2  A    between atoms: C_9  and  C_50
    3  A    between atoms: C_13  and  C_27
    4  A    between atoms: C_13  and  C_45
    5  A    between atoms: C_20  and  C_24
    6  A    between atoms: C_27  and  S_39
    7  A    between atoms: C_30  and  C_49
    8  A    between atoms: C_35  and  C_40
    9  A    between atoms: C_36  and  C_37
   10  A    between atoms: S_39  and  C_48
                            x       y       z     vdW  Elec       q    Type
                         _______ _______ _______ _____ _____    ______ ____

>  <TORSDO>
F 10

$$$$
=
 OpenBabel11042422143D

 50 53  0  0  1  0  0  0  0  0999 V2000
  160.2710  210.5560  153.0010 C   0  0  0  0  0  3  0  0  0  0  0  0
  161.9870  210.4780  149.1550 C   0  0  0  0  0  0  0  0  0  0  0  0
  161.2030  211.6640  149.6030 C   0  0  0  0  0  0  0  0  0  0  0  0
  160.6860  208.6810  156.2680 C   0  0  0  0  0  3  0  0  0  0  0  0
  160.9610  208.1730  153.5250 C   0  0  0  0  0  0  0  0  0  0  0  0
  161.6350  209.2100  149.6160 O   0  0  0  0  0  0  0  0  0  0  0  0
  162.4460  208.0590  149.4530 C   0  0  0  0  0  2  0  0  0  0  0  0
  160.8000  210.5950  151.7830 C   0  0  0  0  0  3  0  0  0  0  0  0
  160.6000  211.6930  150.8160 C   0  0  0  0  0  0  0  0  0  0  0  0
  160.8030  206.2950  149.3270 C   0  0  0  0  0  2  0  0  0  0  0  0
  161.7350  206.7720  151.5780 C   0  0  2  0  0  3  0  0  0  0  0  0
  161.2900  207.1950  154.4740 C   0  0  0  0  0  3  0  0  0  0  0  0
  159.7840  212.8800  151.2370 C   0  0  0  0  0  1  0  0  0  0  0  0
  161.0160  207.8700  152.1510 O   0  0  0  0  0  0  0  0  0  0  0  0
  160.5320  209.4570  153.9620 C   0  0  0  0  0  0  0  0  0  0  0  0
  161.7380  206.8960  150.0680 C   0  0  0  0  0  0  0  0  0  0  0  0
  162.9420  210.6130  148.3430 O   0  0  0  0  0  0  0  0  0  0  0  0
  161.1520  207.4440  155.8350 C   0  0  0  0  0  3  0  0  0  0  0  0
  160.3740  209.6990  155.3560 C   0  0  0  0  0  0  0  0  0  0  0  0
  159.1010  213.4960  156.9150 C   0  0  0  0  0  3  0  0  0  0  0  0
  160.4480  213.1310  156.9650 C   0  0  0  0  0  3  0  0  0  0  0  0
  158.5730  211.3880  155.8560 C   0  0  0  0  0  3  0  0  0  0  0  0
  159.9200  211.0010  155.9140 C   0  0  0  0  0  0  0  0  0  0  0  0
  158.1540  212.6260  156.3590 C   0  0  0  0  0  0  0  0  0  0  0  0
  160.8560  211.8920  156.4640 C   0  0  0  0  0  3  0  0  0  0  0  0
  156.2690  214.0940  157.0270 O   0  0  0  0  0  1  0  0  0  0  0  0
  155.9260  212.3440  155.5930 O   0  0  0  0  0  0  0  0  0  0  0  0
  156.7340  213.0040  156.3010 C   0  0  0  0  0  0  0  0  0  0  0  0
  162.2630  213.9570  146.9010 C   0  0  0  0  0  2  0  0  0  0  0  0
  162.4630  213.3870  148.2850 C   0  0  0  0  0  2  0  0  0  0  0  0
  161.1620  213.1230  146.2760 C   0  0  2  0  0  3  0  0  0  0  0  0
  160.3700  213.9240  145.4560 O   0  0  0  0  0  1  0  0  0  0  0  0
  160.3300  212.5710  147.4200 C   0  0  0  0  0  2  0  0  0  0  0  0
  161.1010  212.8670  148.6960 C   0  0  1  0  0  3  0  0  0  0  0  0
  160.7030  204.5950  151.1940 C   0  0  0  0  0  0  0  0  0  0  0  0
  158.9030  203.3120  150.4740 O   0  0  0  0  0  1  0  0  0  0  0  0
  161.1930  205.4510  152.0480 C   0  0  0  0  0  3  0  0  0  0  0  0
  160.2160  203.7420  150.3350 C   0  0  0  0  0  0  0  0  0  0  0  0
  160.3980  202.7780  148.0300 N   0  0  0  0  0  2  0  0  0  0  0  0
  162.2950  203.2030  149.3200 O   0  0  0  0  0  0  0  0  0  0  0  0
  161.0370  203.2370  149.2230 C   0  0  0  0  0  0  0  0  0  0  0  0
  161.1420  202.2870  146.8750 C   0  0  1  0  0  3  0  0  0  0  0  0
  160.0530  201.1260  144.9400 C   0  0  0  0  0  1  0  0  0  0  0  0
  161.5480  199.8210  146.4370 C   0  0  0  0  0  1  0  0  0  0  0  0
  160.5530  200.9690  146.3630 C   0  0  0  0  0  3  0  0  0  0  0  0
  161.1660  203.3470  145.7780 C   0  0  0  0  0  2  0  0  0  0  0  0
  162.5240  204.5230  146.0580 S   0  0  0  0  0  0  0  0  0  0  0  0
  161.5340  205.3410  143.7560 O   0  0  0  0  0  1  0  0  0  0  0  0
  160.4110  206.1940  145.6640 C   0  0  0  0  0  1  0  0  0  0  0  0
  161.7410  205.8160  145.0510 C   0  0  1  0  0  3  0  0  0  0  0  0
  1 15  1  0  0  0  0
  2  3  1  0  0  0  0
  2  6  1  0  0  0  0
  3  9  2  0  0  0  0
  5 15  2  0  0  0  0
  5 12  1  0  0  0  0
  7  6  1  0  0  0  0
  7 16  1  0  0  0  0
  8  1  2  0  0  0  0
  9 13  1  0  0  0  0
  9  8  1  0  0  0  0
 10 16  2  0  0  0  0
 11 37  1  6  0  0  0
 11 14  1  0  0  0  0
 12 18  2  0  0  0  0
 14  5  1  0  0  0  0
 15 19  1  0  0  0  0
 16 11  1  0  0  0  0
 17  2  2  0  0  0  0
 18  4  1  0  0  0  0
 19 23  1  0  0  0  0
 19  4  2  0  0  0  0
 20 21  1  0  0  0  0
 22 23  2  0  0  0  0
 22 24  1  0  0  0  0
 23 25  1  0  0  0  0
 24 20  2  0  0  0  0
 25 21  2  0  0  0  0
 27 28  2  0  0  0  0
 28 24  1  0  0  0  0
 28 26  1  0  0  0  0
 29 30  1  0  0  0  0
 30 34  1  0  0  0  0
 31 32  1  6  0  0  0
 31 29  1  0  0  0  0
 31 33  1  0  0  0  0
 33 34  1  0  0  0  0
 34  3  1  1  0  0  0
 35 37  2  0  0  0  0
 38 36  1  0  0  0  0
 38 35  2  0  0  0  0
 39 41  1  0  0  0  0
 41 40  2  0  0  0  0
 41 38  1  0  0  0  0
 42 46  1  6  0  0  0
 42 39  1  0  0  0  0
 43 45  1  0  0  0  0
 45 44  1  0  0  0  0
 45 42  1  0  0  0  0
 46 47  1  0  0  0  0
 48 50  1  0  0  0  0
 50 49  1  1  0  0  0
 50 47  1  0  0  0  0
M  END
>  <MODEL>
3

>  <REMARK>
 VINA RESULT:      -5.2      1.636      6.313
  Name = 
  10 active torsions:
  status: ('A' for Active; 'I' for Inactive)
    1  A    between atoms: N_3  and  C_13
    2  A    between atoms: C_9  and  C_50
    3  A    between atoms: C_13  and  C_27
    4  A    between atoms: C_13  and  C_45
    5  A    between atoms: C_20  and  C_24
    6  A    between atoms: C_27  and  S_39
    7  A    between atoms: C_30  and  C_49
    8  A    between atoms: C_35  and  C_40
    9  A    between atoms: C_36  and  C_37
   10  A    between atoms: S_39  and  C_48
                            x       y       z     vdW  Elec       q    Type
                         _______ _______ _______ _____ _____    ______ ____

>  <TORSDO>
F 10

$$$$
=
 OpenBabel11042422143D

 50 53  0  0  1  0  0  0  0  0999 V2000
  160.2900  210.7760  152.7380 C   0  0  0  0  0  3  0  0  0  0  0  0
  161.6620  207.7870  150.1070 C   0  0  0  0  0  0  0  0  0  0  0  0
  161.5770  207.5170  151.5700 C   0  0  0  0  0  0  0  0  0  0  0  0
  158.3690  214.0330  152.4850 C   0  0  0  0  0  3  0  0  0  0  0  0
  160.1340  212.5280  150.9110 C   0  0  0  0  0  0  0  0  0  0  0  0
  161.9590  209.0750  149.6640 O   0  0  0  0  0  0  0  0  0  0  0  0
  161.8270  209.4950  148.3170 C   0  0  0  0  0  2  0  0  0  0  0  0
  160.7170  209.7900  151.9570 C   0  0  0  0  0  3  0  0  0  0  0  0
  161.1860  208.4770  152.4430 C   0  0  0  0  0  0  0  0  0  0  0  0
  163.5490  211.1770  148.1390 C   0  0  0  0  0  2  0  0  0  0  0  0
  161.2780  211.9850  148.7330 C   0  0  2  0  0  3  0  0  0  0  0  0
  159.5530  213.7040  150.4170 C   0  0  0  0  0  3  0  0  0  0  0  0
  161.1400  208.2000  153.9170 C   0  0  0  0  0  1  0  0  0  0  0  0
  161.0900  211.8360  150.1440 O   0  0  0  0  0  0  0  0  0  0  0  0
  159.7820  212.0660  152.2100 C   0  0  0  0  0  0  0  0  0  0  0  0
  162.2400  210.9280  148.2300 C   0  0  0  0  0  0  0  0  0  0  0  0
  161.4970  206.8540  149.2750 O   0  0  0  0  0  0  0  0  0  0  0  0
  158.6790  214.4530  151.1970 C   0  0  0  0  0  3  0  0  0  0  0  0
  158.9020  212.8480  153.0110 C   0  0  0  0  0  0  0  0  0  0  0  0
  157.6890  211.7970  156.9970 C   0  0  0  0  0  3  0  0  0  0  0  0
  158.9360  212.3840  156.7730 C   0  0  0  0  0  3  0  0  0  0  0  0
  157.2250  211.8840  154.6270 C   0  0  0  0  0  3  0  0  0  0  0  0
  158.4820  212.4590  154.3840 C   0  0  0  0  0  0  0  0  0  0  0  0
  156.8250  211.5440  155.9250 C   0  0  0  0  0  0  0  0  0  0  0  0
  159.3290  212.7170  155.4740 C   0  0  0  0  0  3  0  0  0  0  0  0
  155.0880  209.8650  155.3610 O   0  0  0  0  0  0  0  0  0  0  0  0
  154.7530  211.3530  157.0660 O   0  0  0  0  0  1  0  0  0  0  0  0
  155.5090  210.9270  156.1520 C   0  0  0  0  0  0  0  0  0  0  0  0
  160.8480  204.1380  152.8860 C   0  0  0  0  0  2  0  0  0  0  0  0
  160.8740  205.6360  153.0750 C   0  0  0  0  0  2  0  0  0  0  0  0
  161.1880  203.9080  151.4270 C   0  0  2  0  0  3  0  0  0  0  0  0
  161.9420  202.7430  151.2950 O   0  0  0  0  0  1  0  0  0  0  0  0
  162.0040  205.1060  150.9750 C   0  0  0  0  0  2  0  0  0  0  0  0
  161.9090  206.1380  152.0880 C   0  0  1  0  0  3  0  0  0  0  0  0
  162.1040  213.6640  147.1660 C   0  0  0  0  0  0  0  0  0  0  0  0
  163.7630  214.4530  145.7410 O   0  0  0  0  0  1  0  0  0  0  0  0
  161.7160  213.3790  148.3780 C   0  0  0  0  0  3  0  0  0  0  0  0
  162.4880  213.9420  145.9500 C   0  0  0  0  0  0  0  0  0  0  0  0
  160.2860  214.2940  144.8090 N   0  0  0  0  0  2  0  0  0  0  0  0
  161.9720  213.0180  143.8240 O   0  0  0  0  0  0  0  0  0  0  0  0
  161.5940  213.7170  144.8040 C   0  0  0  0  0  0  0  0  0  0  0  0
  159.3500  214.1400  143.7010 C   0  0  1  0  0  3  0  0  0  0  0  0
  159.4980  211.9090  142.5710 C   0  0  0  0  0  1  0  0  0  0  0  0
  159.7090  213.9690  141.1950 C   0  0  0  0  0  1  0  0  0  0  0  0
  159.9830  213.3450  142.5550 C   0  0  0  0  0  3  0  0  0  0  0  0
  158.0640  213.4810  144.1880 C   0  0  0  0  0  2  0  0  0  0  0  0
  157.3390  214.4340  145.5580 S   0  0  0  0  0  0  0  0  0  0  0  0
  157.9300  211.9150  146.0640 O   0  0  0  0  0  1  0  0  0  0  0  0
  157.8600  213.3100  147.9830 C   0  0  0  0  0  1  0  0  0  0  0  0
  157.2400  212.9810  146.6440 C   0  0  1  0  0  3  0  0  0  0  0  0
  2  3  1  0  0  0  0
  3  9  2  0  0  0  0
  4 19  1  0  0  0  0
  5 15  1  0  0  0  0
  6  2  1  0  0  0  0
  7  6  1  0  0  0  0
  8  9  1  0  0  0  0
  8  1  2  0  0  0  0
  9 13  1  0  0  0  0
 10 16  2  0  0  0  0
 11 37  1  1  0  0  0
 11 14  1  0  0  0  0
 12  5  2  0  0  0  0
 12 18  1  0  0  0  0
 14  5  1  0  0  0  0
 15  1  1  0  0  0  0
 15 19  2  0  0  0  0
 16  7  1  0  0  0  0
 16 11  1  0  0  0  0
 17  2  2  0  0  0  0
 18  4  2  0  0  0  0
 19 23  1  0  0  0  0
 21 20  1  0  0  0  0
 22 24  1  0  0  0  0
 23 22  2  0  0  0  0
 23 25  1  0  0  0  0
 24 28  1  0  0  0  0
 24 20  2  0  0  0  0
 25 21  2  0  0  0  0
 26 28  2  0  0  0  0
 28 27  1  0  0  0  0
 29 30  1  0  0  0  0
 31 32  1  1  0  0  0
 31 29  1  0  0  0  0
 33 31  1  0  0  0  0
 33 34  1  0  0  0  0
 34  3  1  6  0  0  0
 34 30  1  0  0  0  0
 35 37  2  0  0  0  0
 36 38  1  0  0  0  0
 38 35  2  0  0  0  0
 40 41  2  0  0  0  0
 41 39  1  0  0  0  0
 41 38  1  0  0  0  0
 42 46  1  1  0  0  0
 42 39  1  0  0  0  0
 44 45  1  0  0  0  0
 45 43  1  0  0  0  0
 45 42  1  0  0  0  0
 46 47  1  0  0  0  0
 47 50  1  0  0  0  0
 48 50  1  0  0  0  0
 50 49  1  1  0  0  0
M  END
>  <MODEL>
4

>  <REMARK>
 VINA RESULT:      -3.9      3.338      9.149
  Name = 
  10 active torsions:
  status: ('A' for Active; 'I' for Inactive)
    1  A    between atoms: N_3  and  C_13
    2  A    between atoms: C_9  and  C_50
    3  A    between atoms: C_13  and  C_27
    4  A    between atoms: C_13  and  C_45
    5  A    between atoms: C_20  and  C_24
    6  A    between atoms: C_27  and  S_39
    7  A    between atoms: C_30  and  C_49
    8  A    between atoms: C_35  and  C_40
    9  A    between atoms: C_36  and  C_37
   10  A    between atoms: S_39  and  C_48
                            x       y       z     vdW  Elec       q    Type
                         _______ _______ _______ _____ _____    ______ ____

>  <TORSDO>
F 10

$$$$
=
 OpenBabel11042422143D

 50 53  0  0  1  0  0  0  0  0999 V2000
  160.8200  209.9050  152.5730 C   0  0  0  0  0  3  0  0  0  0  0  0
  161.4410  207.3540  149.2790 C   0  0  0  0  0  0  0  0  0  0  0  0
  161.5260  206.8200  150.6670 C   0  0  0  0  0  0  0  0  0  0  0  0
  159.2940  213.3170  153.1970 C   0  0  0  0  0  3  0  0  0  0  0  0
  160.6280  211.9780  151.1260 C   0  0  0  0  0  0  0  0  0  0  0  0
  161.8290  208.6690  149.0250 O   0  0  0  0  0  0  0  0  0  0  0  0
  161.5640  209.3480  147.8090 C   0  0  0  0  0  2  0  0  0  0  0  0
  161.0110  209.0490  151.5750 C   0  0  0  0  0  3  0  0  0  0  0  0
  161.3780  207.6290  151.7450 C   0  0  0  0  0  0  0  0  0  0  0  0
  163.4380  210.8630  147.6570 C   0  0  0  0  0  2  0  0  0  0  0  0
  161.3860  211.7540  148.7340 C   0  0  2  0  0  3  0  0  0  0  0  0
  160.1320  213.2770  150.9420 C   0  0  0  0  0  3  0  0  0  0  0  0
  161.5030  207.0820  153.1360 C   0  0  0  0  0  1  0  0  0  0  0  0
  161.3770  211.3570  150.1090 O   0  0  0  0  0  0  0  0  0  0  0  0
  160.4050  211.3130  152.3640 C   0  0  0  0  0  0  0  0  0  0  0  0
  162.1330  210.7260  147.9090 C   0  0  0  0  0  0  0  0  0  0  0  0
  161.0490  206.6160  148.3340 O   0  0  0  0  0  0  0  0  0  0  0  0
  159.4720  213.9430  151.9680 C   0  0  0  0  0  3  0  0  0  0  0  0
  159.7450  212.0080  153.4170 C   0  0  0  0  0  0  0  0  0  0  0  0
  158.8900  210.2740  157.2550 C   0  0  0  0  0  3  0  0  0  0  0  0
  158.4910  211.5820  156.9680 C   0  0  0  0  0  3  0  0  0  0  0  0
  159.8550  210.0890  155.0460 C   0  0  0  0  0  3  0  0  0  0  0  0
  159.4750  211.4070  154.7500 C   0  0  0  0  0  0  0  0  0  0  0  0
  159.5750  209.5190  156.2940 C   0  0  0  0  0  0  0  0  0  0  0  0
  158.7780  212.1430  155.7220 C   0  0  0  0  0  3  0  0  0  0  0  0
  161.1900  207.9030  157.2610 O   0  0  0  0  0  1  0  0  0  0  0  0
  159.2850  207.1640  156.2320 O   0  0  0  0  0  0  0  0  0  0  0  0
  159.9980  208.1410  156.5870 C   0  0  0  0  0  0  0  0  0  0  0  0
  160.7270  203.4170  151.8780 C   0  0  0  0  0  2  0  0  0  0  0  0
  161.1240  204.8460  152.1640 C   0  0  0  0  0  2  0  0  0  0  0  0
  160.4010  203.3760  150.3980 C   0  0  2  0  0  3  0  0  0  0  0  0
  160.7910  202.1490  149.8620 O   0  0  0  0  0  1  0  0  0  0  0  0
  161.1890  204.4980  149.7470 C   0  0  0  0  0  2  0  0  0  0  0  0
  161.7540  205.3420  150.8780 C   0  0  1  0  0  3  0  0  0  0  0  0
  162.2630  213.5850  147.3790 C   0  0  0  0  0  0  0  0  0  0  0  0
  163.8840  214.4440  145.9520 O   0  0  0  0  0  1  0  0  0  0  0  0
  161.9380  213.1420  148.5620 C   0  0  0  0  0  3  0  0  0  0  0  0
  162.5820  214.0220  146.1920 C   0  0  0  0  0  0  0  0  0  0  0  0
  160.2030  213.8960  145.4190 N   0  0  0  0  0  2  0  0  0  0  0  0
  161.9500  214.2550  143.9150 O   0  0  0  0  0  0  0  0  0  0  0  0
  161.5880  214.0690  145.1090 C   0  0  0  0  0  0  0  0  0  0  0  0
  159.1540  213.9550  144.4070 C   0  0  1  0  0  3  0  0  0  0  0  0
  158.8820  212.7900  142.2060 C   0  0  0  0  0  1  0  0  0  0  0  0
  160.1260  211.6420  144.0260 C   0  0  0  0  0  1  0  0  0  0  0  0
  158.9910  212.6020  143.7060 C   0  0  0  0  0  3  0  0  0  0  0  0
  157.8430  214.4140  145.0370 C   0  0  0  0  0  2  0  0  0  0  0  0
  157.2530  213.1900  146.2450 S   0  0  0  0  0  0  0  0  0  0  0  0
  155.9280  214.1920  148.2920 O   0  0  0  0  0  1  0  0  0  0  0  0
  158.2890  214.3300  148.4910 C   0  0  0  0  0  1  0  0  0  0  0  0
  157.0960  214.4270  147.5660 C   0  0  1  0  0  3  0  0  0  0  0  0
  2  3  1  0  0  0  0
  3  9  2  0  0  0  0
  4 19  1  0  0  0  0
  5 15  1  0  0  0  0
  6  2  1  0  0  0  0
  7 16  1  0  0  0  0
  7  6  1  0  0  0  0
  8  9  1  0  0  0  0
  8  1  2  0  0  0  0
  9 13  1  0  0  0  0
 10 16  2  0  0  0  0
 11 37  1  1  0  0  0
 11 14  1  0  0  0  0
 12  5  2  0  0  0  0
 12 18  1  0  0  0  0
 14  5  1  0  0  0  0
 15  1  1  0  0  0  0
 15 19  2  0  0  0  0
 16 11  1  0  0  0  0
 17  2  2  0  0  0  0
 18  4  2  0  0  0  0
 19 23  1  0  0  0  0
 21 20  1  0  0  0  0
 22 24  1  0  0  0  0
 23 22  2  0  0  0  0
 23 25  1  0  0  0  0
 24 28  1  0  0  0  0
 24 20  2  0  0  0  0
 25 21  2  0  0  0  0
 27 28  2  0  0  0  0
 28 26  1  0  0  0  0
 29 30  1  0  0  0  0
 31 32  1  6  0  0  0
 31 29  1  0  0  0  0
 33 31  1  0  0  0  0
 33 34  1  0  0  0  0
 34  3  1  6  0  0  0
 34 30  1  0  0  0  0
 35 37  2  0  0  0  0
 36 38  1  0  0  0  0
 38 35  2  0  0  0  0
 40 41  2  0  0  0  0
 41 39  1  0  0  0  0
 41 38  1  0  0  0  0
 42 46  1  1  0  0  0
 42 39  1  0  0  0  0
 43 45  1  0  0  0  0
 45 44  1  0  0  0  0
 45 42  1  0  0  0  0
 46 47  1  0  0  0  0
 47 50  1  0  0  0  0
 50 48  1  0  0  0  0
 50 49  1  1  0  0  0
M  END
>  <MODEL>
5

>  <REMARK>
 VINA RESULT:      -3.0      3.281      9.422
  Name = 
  10 active torsions:
  status: ('A' for Active; 'I' for Inactive)
    1  A    between atoms: N_3  and  C_13
    2  A    between atoms: C_9  and  C_50
    3  A    between atoms: C_13  and  C_27
    4  A    between atoms: C_13  and  C_45
    5  A    between atoms: C_20  and  C_24
    6  A    between atoms: C_27  and  S_39
    7  A    between atoms: C_30  and  C_49
    8  A    between atoms: C_35  and  C_40
    9  A    between atoms: C_36  and  C_37
   10  A    between atoms: S_39  and  C_48
                            x       y       z     vdW  Elec       q    Type
                         _______ _______ _______ _____ _____    ______ ____

>  <TORSDO>
F 10

$$$$
=
 OpenBabel11042422143D

 50 53  0  0  1  0  0  0  0  0999 V2000
  159.9550  211.0110  153.4410 C   0  0  0  0  0  3  0  0  0  0  0  0
  161.7730  211.0330  149.6410 C   0  0  0  0  0  0  0  0  0  0  0  0
  160.7570  212.0660  149.9930 C   0  0  0  0  0  0  0  0  0  0  0  0
  160.6290  209.4670  156.8350 C   0  0  0  0  0  3  0  0  0  0  0  0
  161.0860  208.8520  154.1390 C   0  0  0  0  0  0  0  0  0  0  0  0
  161.6630  209.7520  150.1810 O   0  0  0  0  0  0  0  0  0  0  0  0
  162.6910  208.7780  150.1120 C   0  0  0  0  0  2  0  0  0  0  0  0
  160.5040  211.0780  152.2330 C   0  0  0  0  0  3  0  0  0  0  0  0
  160.1220  212.0510  151.1900 C   0  0  0  0  0  0  0  0  0  0  0  0
  161.4320  206.7180  150.0770 C   0  0  0  0  0  2  0  0  0  0  0  0
  162.1810  207.5130  152.3060 C   0  0  2  0  0  3  0  0  0  0  0  0
  161.5700  208.0210  155.1590 C   0  0  0  0  0  3  0  0  0  0  0  0
  159.0760  213.0770  151.5140 C   0  0  0  0  0  1  0  0  0  0  0  0
  161.2420  208.4790  152.7900 O   0  0  0  0  0  0  0  0  0  0  0  0
  160.3980  210.0500  154.4790 C   0  0  0  0  0  0  0  0  0  0  0  0
  162.2070  207.5390  150.7910 C   0  0  0  0  0  0  0  0  0  0  0  0
  162.7080  211.3040  148.8390 O   0  0  0  0  0  0  0  0  0  0  0  0
  161.3440  208.3230  156.4960 C   0  0  0  0  0  3  0  0  0  0  0  0
  160.1520  210.3430  155.8510 C   0  0  0  0  0  0  0  0  0  0  0  0
  158.0950  213.8980  157.1160 C   0  0  0  0  0  3  0  0  0  0  0  0
  159.4870  213.8930  157.0020 C   0  0  0  0  0  3  0  0  0  0  0  0
  158.0330  211.5860  156.4130 C   0  0  0  0  0  3  0  0  0  0  0  0
  159.4330  211.5620  156.3100 C   0  0  0  0  0  0  0  0  0  0  0  0
  157.3590  212.7440  156.8210 C   0  0  0  0  0  0  0  0  0  0  0  0
  160.1510  212.7320  156.5980 C   0  0  0  0  0  3  0  0  0  0  0  0
  155.2180  211.5670  157.2550 O   0  0  0  0  0  1  0  0  0  0  0  0
  155.2340  213.7990  156.7500 O   0  0  0  0  0  0  0  0  0  0  0  0
  155.8930  212.7400  156.9360 C   0  0  0  0  0  0  0  0  0  0  0  0
  161.4780  214.4510  147.2590 C   0  0  0  0  0  2  0  0  0  0  0  0
  161.6680  214.0070  148.6900 C   0  0  0  0  0  2  0  0  0  0  0  0
  160.7020  213.3350  146.5890 C   0  0  2  0  0  3  0  0  0  0  0  0
  159.8230  213.8680  145.6480 O   0  0  0  0  0  1  0  0  0  0  0  0
  159.9210  212.6290  147.6830 C   0  0  0  0  0  2  0  0  0  0  0  0
  160.4480  213.1650  149.0050 C   0  0  1  0  0  3  0  0  0  0  0  0
  161.1760  205.2930  152.1760 C   0  0  0  0  0  0  0  0  0  0  0  0
  159.2960  203.9320  152.0490 O   0  0  0  0  0  1  0  0  0  0  0  0
  161.8960  206.1420  152.8550 C   0  0  0  0  0  3  0  0  0  0  0  0
  160.4580  204.4470  151.4890 C   0  0  0  0  0  0  0  0  0  0  0  0
  160.4720  204.8400  149.0150 N   0  0  0  0  0  2  0  0  0  0  0  0
  161.5360  202.9890  149.9560 O   0  0  0  0  0  0  0  0  0  0  0  0
  160.8590  204.0390  150.1340 C   0  0  0  0  0  0  0  0  0  0  0  0
  160.8520  204.5180  147.6440 C   0  0  1  0  0  3  0  0  0  0  0  0
  162.7090  205.5640  146.3280 C   0  0  0  0  0  1  0  0  0  0  0  0
  160.3610  206.1720  145.7840 C   0  0  0  0  0  1  0  0  0  0  0  0
  161.3180  205.7700  146.8950 C   0  0  0  0  0  3  0  0  0  0  0  0
  161.9270  203.4360  147.6380 C   0  0  0  0  0  2  0  0  0  0  0  0
  161.2080  201.8260  147.1920 S   0  0  0  0  0  0  0  0  0  0  0  0
  161.3690  203.0940  144.8860 O   0  0  0  0  0  1  0  0  0  0  0  0
  159.7510  201.3580  144.9390 C   0  0  0  0  0  1  0  0  0  0  0  0
  160.4110  202.4870  145.6990 C   0  0  1  0  0  3  0  0  0  0  0  0
  1 15  1  0  0  0  0
  2  3  1  0  0  0  0
  2  6  1  0  0  0  0
  3  9  2  0  0  0  0
  5 15  2  0  0  0  0
  5 12  1  0  0  0  0
  7  6  1  0  0  0  0
  7 16  1  0  0  0  0
  8  1  2  0  0  0  0
  9 13  1  0  0  0  0
  9  8  1  0  0  0  0
 10 16  2  0  0  0  0
 11 14  1  0  0  0  0
 11 37  1  6  0  0  0
 12 18  2  0  0  0  0
 14  5  1  0  0  0  0
 15 19  1  0  0  0  0
 16 11  1  0  0  0  0
 17  2  2  0  0  0  0
 18  4  1  0  0  0  0
 19 23  1  0  0  0  0
 19  4  2  0  0  0  0
 21 20  1  0  0  0  0
 22 24  1  0  0  0  0
 23 22  2  0  0  0  0
 23 25  1  0  0  0  0
 24 28  1  0  0  0  0
 24 20  2  0  0  0  0
 25 21  2  0  0  0  0
 27 28  2  0  0  0  0
 28 26  1  0  0  0  0
 29 30  1  0  0  0  0
 30 34  1  0  0  0  0
 31 32  1  6  0  0  0
 31 29  1  0  0  0  0
 31 33  1  0  0  0  0
 33 34  1  0  0  0  0
 34  3  1  1  0  0  0
 35 37  2  0  0  0  0
 38 36  1  0  0  0  0
 38 35  2  0  0  0  0
 39 41  1  0  0  0  0
 40 41  2  0  0  0  0
 41 38  1  0  0  0  0
 42 46  1  1  0  0  0
 42 39  1  0  0  0  0
 43 45  1  0  0  0  0
 44 45  1  0  0  0  0
 45 42  1  0  0  0  0
 47 46  1  0  0  0  0
 48 50  1  0  0  0  0
 50 49  1  6  0  0  0
 50 47  1  0  0  0  0
M  END
>  <MODEL>
6

>  <REMARK>
 VINA RESULT:      -2.7      1.735      6.523
  Name = 
  10 active torsions:
  status: ('A' for Active; 'I' for Inactive)
    1  A    between atoms: N_3  and  C_13
    2  A    between atoms: C_9  and  C_50
    3  A    between atoms: C_13  and  C_27
    4  A    between atoms: C_13  and  C_45
    5  A    between atoms: C_20  and  C_24
    6  A    between atoms: C_27  and  S_39
    7  A    between atoms: C_30  and  C_49
    8  A    between atoms: C_35  and  C_40
    9  A    between atoms: C_36  and  C_37
   10  A    between atoms: S_39  and  C_48
                            x       y       z     vdW  Elec       q    Type
                         _______ _______ _______ _____ _____    ______ ____

>  <TORSDO>
F 10

$$$$
