=
 OpenBabel11042420153D

 25 26  0  0  1  0  0  0  0  0999 V2000
  161.2420  206.7870  152.3850 C   0  0  2  0  0  0  0  0  0  0  0  0
  161.2470  205.8030  151.2180 C   0  0  1  0  0  3  0  0  0  0  0  0
  162.5390  206.4640  151.6750 C   0  0  0  0  0  2  0  0  0  0  0  0
  161.1850  206.2460  153.8180 C   0  0  0  0  0  2  0  0  0  0  0  0
  160.2520  207.0590  154.7040 C   0  0  0  0  0  2  0  0  0  0  0  0
  160.2810  207.2800  157.1680 C   0  0  0  0  0  1  0  0  0  0  0  0
  161.0040  207.6350  155.8870 C   0  0  0  0  0  2  0  0  0  0  0  0
  161.2270  204.4150  151.6790 N   0  0  0  0  0  2  0  0  0  0  0  0
  161.4140  203.4860  150.5610 C   0  0  2  0  0  3  0  0  0  0  0  0
  160.8890  204.0680  149.2530 C   0  0  0  0  0  2  0  0  0  0  0  0
  160.9530  202.0890  147.7300 C   0  0  0  0  0  3  0  0  0  0  0  0
  160.8670  201.0490  148.5630 C   0  0  0  0  0  3  0  0  0  0  0  0
  161.5810  203.4030  148.0770 C   0  0  1  0  0  3  0  0  0  0  0  0
  160.8060  202.1230  150.8670 C   0  0  0  0  0  2  0  0  0  0  0  0
  161.2680  201.1000  149.9360 N   0  0  0  0  0  2  0  0  0  0  0  0
  161.5180  204.2850  146.9250 N   0  0  0  0  0  2  0  0  0  0  0  0
  160.6810  206.4520  146.4520 N   0  0  0  0  0  1  0  0  0  0  0  0
  161.3760  205.6390  147.4320 C   0  0  0  0  0  2  0  0  0  0  0  0
  160.7540  208.2040  152.0750 C   0  0  0  0  0  2  0  0  0  0  0  0
  161.7730  209.3160  152.3650 C   0  0  2  0  0  3  0  0  0  0  0  0
  161.9950  210.7280  154.2720 O   0  0  0  0  0  1  0  0  0  0  0  0
  159.9690  210.8450  153.2100 O   0  0  0  0  0  0  0  0  0  0  0  0
  161.2600  210.3410  153.3270 C   0  0  0  0  0  0  0  0  0  0  0  0
  162.3380  209.9400  151.1270 C   0  0  0  0  0  3  0  0  0  0  0  0
  161.9960  209.5120  149.9680 N   0  0  0  0  0  2  0  0  0  0  0  0
  1 19  1  6  0  0  0
  1  4  1  0  0  0  0
  2  3  1  0  0  0  0
  2  8  1  1  0  0  0
  2  1  1  0  0  0  0
  3  1  1  0  0  0  0
  4  5  1  0  0  0  0
  5  7  1  0  0  0  0
  7  6  1  0  0  0  0
  9 14  1  0  0  0  0
  9  8  1  1  0  0  0
 10  9  1  0  0  0  0
 11 13  1  0  0  0  0
 11 12  2  0  0  0  0
 12 15  1  0  0  0  0
 13 16  1  6  0  0  0
 13 10  1  0  0  0  0
 15 14  1  0  0  0  0
 16 18  1  0  0  0  0
 17 18  1  0  0  0  0
 19 20  1  0  0  0  0
 20 24  1  6  0  0  0
 20 23  1  0  0  0  0
 22 23  2  0  0  0  0
 23 21  1  0  0  0  0
 25 24  2  0  0  0  0
M  END
>  <MODEL>
1

>  <REMARK>
 VINA RESULT:      -6.9      0.000      0.000
  Name = 
  11 active torsions:
  status: ('A' for Active; 'I' for Inactive)
    1  A    between atoms: C_2  and  C_4
    2  A    between atoms: C_2  and  C_24
    3  A    between atoms: C_4  and  C_19
    4  A    between atoms: C_6  and  C_10
    5  A    between atoms: C_7  and  N_14
    6  A    between atoms: C_8  and  N_14
    7  A    between atoms: C_9  and  C_10
    8  A    between atoms: C_10  and  C_19
    9  A    between atoms: N_13  and  C_17
   10  A    between atoms: N_13  and  C_25
   11  A    between atoms: C_18  and  C_24
                            x       y       z     vdW  Elec       q    Type
                         _______ _______ _______ _____ _____    ______ ____

>  <TORSDO>
F 11

$$$$
=
 OpenBabel11042420153D

 25 26  0  0  1  0  0  0  0  0999 V2000
  161.1160  204.9520  149.3600 C   0  0  2  0  0  0  0  0  0  0  0  0
  161.5120  206.1580  150.2080 C   0  0  1  0  0  3  0  0  0  0  0  0
  160.3000  206.2250  149.2910 C   0  0  0  0  0  2  0  0  0  0  0  0
  160.3680  203.7880  150.0200 C   0  0  0  0  0  2  0  0  0  0  0  0
  161.3160  202.7140  150.5350 C   0  0  0  0  0  2  0  0  0  0  0  0
  160.5490  201.4060  148.5800 C   0  0  0  0  0  1  0  0  0  0  0  0
  160.8820  201.3430  150.0550 C   0  0  0  0  0  2  0  0  0  0  0  0
  161.0610  206.0190  151.5930 N   0  0  0  0  0  2  0  0  0  0  0  0
  160.9470  207.3260  152.2440 C   0  0  2  0  0  3  0  0  0  0  0  0
  161.9110  208.3420  151.6390 C   0  0  0  0  0  2  0  0  0  0  0  0
  161.7620  210.2410  153.2560 C   0  0  0  0  0  3  0  0  0  0  0  0
  161.3810  209.6560  154.3930 C   0  0  0  0  0  3  0  0  0  0  0  0
  161.4020  209.7490  151.8880 C   0  0  1  0  0  3  0  0  0  0  0  0
  161.1110  207.2090  153.7540 C   0  0  0  0  0  2  0  0  0  0  0  0
  160.6690  208.4150  154.4450 N   0  0  0  0  0  2  0  0  0  0  0  0
  161.9660  210.6440  150.8920 N   0  0  0  0  0  2  0  0  0  0  0  0
  162.0500  210.8070  148.5290 N   0  0  0  0  0  1  0  0  0  0  0  0
  162.0700  209.8910  149.6540 C   0  0  0  0  0  2  0  0  0  0  0  0
  161.9310  204.7230  148.0860 C   0  0  0  0  0  2  0  0  0  0  0  0
  161.1140  204.7260  146.7860 C   0  0  2  0  0  3  0  0  0  0  0  0
  162.7920  204.0060  145.2550 O   0  0  0  0  0  0  0  0  0  0  0  0
  160.9100  202.7040  145.3110 O   0  0  0  0  0  1  0  0  0  0  0  0
  161.6570  203.7900  145.7530 C   0  0  0  0  0  0  0  0  0  0  0  0
  160.8810  206.0980  146.2340 C   0  0  0  0  0  3  0  0  0  0  0  0
  160.2040  206.2610  145.1580 N   0  0  0  0  0  2  0  0  0  0  0  0
  1 19  1  6  0  0  0
  1  4  1  0  0  0  0
  1  2  1  0  0  0  0
  2  8  1  1  0  0  0
  3  1  1  0  0  0  0
  3  2  1  0  0  0  0
  4  5  1  0  0  0  0
  6  7  1  0  0  0  0
  7  5  1  0  0  0  0
  9  8  1  6  0  0  0
  9 14  1  0  0  0  0
 10 13  1  0  0  0  0
 10  9  1  0  0  0  0
 11 12  2  0  0  0  0
 12 15  1  0  0  0  0
 13 16  1  6  0  0  0
 13 11  1  0  0  0  0
 14 15  1  0  0  0  0
 17 18  1  0  0  0  0
 18 16  1  0  0  0  0
 20 24  1  6  0  0  0
 20 19  1  0  0  0  0
 21 23  2  0  0  0  0
 22 23  1  0  0  0  0
 23 20  1  0  0  0  0
 25 24  2  0  0  0  0
M  END
>  <MODEL>
2

>  <REMARK>
 VINA RESULT:      -6.5      3.590      7.216
  Name = 
  11 active torsions:
  status: ('A' for Active; 'I' for Inactive)
    1  A    between atoms: C_2  and  C_4
    2  A    between atoms: C_2  and  C_24
    3  A    between atoms: C_4  and  C_19
    4  A    between atoms: C_6  and  C_10
    5  A    between atoms: C_7  and  N_14
    6  A    between atoms: C_8  and  N_14
    7  A    between atoms: C_9  and  C_10
    8  A    between atoms: C_10  and  C_19
    9  A    between atoms: N_13  and  C_17
   10  A    between atoms: N_13  and  C_25
   11  A    between atoms: C_18  and  C_24
                            x       y       z     vdW  Elec       q    Type
                         _______ _______ _______ _____ _____    ______ ____

>  <TORSDO>
F 11

$$$$
=
 OpenBabel11042420153D

 25 26  0  0  1  0  0  0  0  0999 V2000
  161.3800  208.0710  151.2060 C   0  0  2  0  0  0  0  0  0  0  0  0
  161.3320  207.6370  149.7430 C   0  0  1  0  0  3  0  0  0  0  0  0
  162.6040  207.4590  150.5590 C   0  0  0  0  0  2  0  0  0  0  0  0
  160.7450  207.1730  152.2730 C   0  0  0  0  0  2  0  0  0  0  0  0
  161.7660  206.2590  152.9370 C   0  0  0  0  0  2  0  0  0  0  0  0
  161.2840  204.0160  152.0120 C   0  0  0  0  0  1  0  0  0  0  0  0
  161.1570  204.9020  153.2320 C   0  0  0  0  0  2  0  0  0  0  0  0
  160.6760  206.3380  149.5850 N   0  0  0  0  0  2  0  0  0  0  0  0
  160.9250  205.7820  148.2520 C   0  0  2  0  0  3  0  0  0  0  0  0
  161.4070  204.3370  148.3270 C   0  0  0  0  0  2  0  0  0  0  0  0
  162.1460  203.9030  145.9800 C   0  0  0  0  0  3  0  0  0  0  0  0
  162.4400  205.1180  145.5140 C   0  0  0  0  0  3  0  0  0  0  0  0
  161.1070  203.6230  147.0220 C   0  0  1  0  0  3  0  0  0  0  0  0
  161.8780  206.6630  147.4530 C   0  0  0  0  0  2  0  0  0  0  0  0
  161.8730  206.3250  146.0350 N   0  0  0  0  0  2  0  0  0  0  0  0
  161.0420  202.1930  147.2630 N   0  0  0  0  0  2  0  0  0  0  0  0
  161.2250  200.7310  149.1210 N   0  0  0  0  0  1  0  0  0  0  0  0
  160.7180  202.0130  148.6680 C   0  0  0  0  0  2  0  0  0  0  0  0
  161.5540  209.5700  151.4620 C   0  0  0  0  0  2  0  0  0  0  0  0
  160.8320  210.1000  152.7080 C   0  0  2  0  0  3  0  0  0  0  0  0
  160.2870  212.2210  151.7670 O   0  0  0  0  0  0  0  0  0  0  0  0
  158.5610  211.1630  152.8360 O   0  0  0  0  0  1  0  0  0  0  0  0
  159.8800  211.2130  152.4010 C   0  0  0  0  0  0  0  0  0  0  0  0
  161.7610  210.4490  153.8300 C   0  0  0  0  0  3  0  0  0  0  0  0
  161.5770  209.9630  155.0020 N   0  0  0  0  0  2  0  0  0  0  0  0
  1 19  1  1  0  0  0
  1  4  1  0  0  0  0
  2  8  1  1  0  0  0
  2  3  1  0  0  0  0
  2  1  1  0  0  0  0
  3  1  1  0  0  0  0
  4  5  1  0  0  0  0
  5  7  1  0  0  0  0
  6  7  1  0  0  0  0
  9 10  1  0  0  0  0
  9  8  1  1  0  0  0
 11 13  1  0  0  0  0
 12 11  2  0  0  0  0
 12 15  1  0  0  0  0
 13 16  1  1  0  0  0
 13 10  1  0  0  0  0
 14  9  1  0  0  0  0
 15 14  1  0  0  0  0
 16 18  1  0  0  0  0
 18 17  1  0  0  0  0
 20 19  1  6  0  0  0
 20 24  1  0  0  0  0
 21 23  2  0  0  0  0
 23 20  1  0  0  0  0
 23 22  1  0  0  0  0
 24 25  2  0  0  0  0
M  END
>  <MODEL>
3

>  <REMARK>
 VINA RESULT:      -6.4      2.021      3.592
  Name = 
  11 active torsions:
  status: ('A' for Active; 'I' for Inactive)
    1  A    between atoms: C_2  and  C_4
    2  A    between atoms: C_2  and  C_24
    3  A    between atoms: C_4  and  C_19
    4  A    between atoms: C_6  and  C_10
    5  A    between atoms: C_7  and  N_14
    6  A    between atoms: C_8  and  N_14
    7  A    between atoms: C_9  and  C_10
    8  A    between atoms: C_10  and  C_19
    9  A    between atoms: N_13  and  C_17
   10  A    between atoms: N_13  and  C_25
   11  A    between atoms: C_18  and  C_24
                            x       y       z     vdW  Elec       q    Type
                         _______ _______ _______ _____ _____    ______ ____

>  <TORSDO>
F 11

$$$$
=
 OpenBabel11042420153D

 25 26  0  0  1  0  0  0  0  0999 V2000
  161.2630  206.5560  150.3480 C   0  0  2  0  0  0  0  0  0  0  0  0
  161.1480  207.4160  151.6040 C   0  0  1  0  0  3  0  0  0  0  0  0
  162.3800  206.5540  151.3690 C   0  0  0  0  0  2  0  0  0  0  0  0
  161.6550  207.2180  149.0230 C   0  0  0  0  0  2  0  0  0  0  0  0
  160.7880  206.7430  147.8640 C   0  0  0  0  0  2  0  0  0  0  0  0
  160.7630  205.9040  145.5370 C   0  0  0  0  0  1  0  0  0  0  0  0
  161.6500  206.3170  146.6920 C   0  0  0  0  0  2  0  0  0  0  0  0
  161.4810  208.8150  151.3350 N   0  0  0  0  0  2  0  0  0  0  0  0
  161.3550  209.6280  152.5470 C   0  0  2  0  0  3  0  0  0  0  0  0
  160.9710  208.7810  153.7560 C   0  0  0  0  0  2  0  0  0  0  0  0
  160.4130  210.5170  155.4640 C   0  0  0  0  0  3  0  0  0  0  0  0
  160.0640  211.5770  154.7310 C   0  0  0  0  0  3  0  0  0  0  0  0
  161.4010  209.4770  155.0330 C   0  0  1  0  0  3  0  0  0  0  0  0
  160.3950  210.7930  152.3350 C   0  0  0  0  0  2  0  0  0  0  0  0
  160.5120  211.7940  153.3890 N   0  0  0  0  0  2  0  0  0  0  0  0
  161.5510  208.4910  156.0890 N   0  0  0  0  0  2  0  0  0  0  0  0
  159.7950  207.0430  156.7520 N   0  0  0  0  0  1  0  0  0  0  0  0
  160.7570  207.3360  155.7060 C   0  0  0  0  0  2  0  0  0  0  0  0
  160.4780  205.2420  150.3530 C   0  0  0  0  0  2  0  0  0  0  0  0
  161.3410  203.9740  150.2830 C   0  0  2  0  0  3  0  0  0  0  0  0
  161.4230  203.2420  148.0160 O   0  0  0  0  0  0  0  0  0  0  0  0
  160.0320  202.0330  149.3750 O   0  0  0  0  0  1  0  0  0  0  0  0
  160.9450  203.0600  149.1660 C   0  0  0  0  0  0  0  0  0  0  0  0
  161.4420  203.2520  151.5910 C   0  0  0  0  0  3  0  0  0  0  0  0
  160.6590  203.5510  152.5610 N   0  0  0  0  0  2  0  0  0  0  0  0
  1  4  1  6  0  0  0
  1 19  1  0  0  0  0
  1  3  1  0  0  0  0
  1  2  1  0  0  0  0
  2  8  1  6  0  0  0
  3  2  1  0  0  0  0
  5  4  1  0  0  0  0
  6  7  1  0  0  0  0
  7  5  1  0  0  0  0
  9  8  1  6  0  0  0
  9 10  1  0  0  0  0
 10 13  1  0  0  0  0
 12 11  2  0  0  0  0
 13 11  1  0  0  0  0
 13 16  1  1  0  0  0
 14  9  1  0  0  0  0
 14 15  1  0  0  0  0
 15 12  1  0  0  0  0
 18 16  1  0  0  0  0
 18 17  1  0  0  0  0
 20 19  1  1  0  0  0
 20 24  1  0  0  0  0
 21 23  2  0  0  0  0
 23 22  1  0  0  0  0
 23 20  1  0  0  0  0
 24 25  2  0  0  0  0
M  END
>  <MODEL>
4

>  <REMARK>
 VINA RESULT:      -6.4      3.528      8.124
  Name = 
  11 active torsions:
  status: ('A' for Active; 'I' for Inactive)
    1  A    between atoms: C_2  and  C_4
    2  A    between atoms: C_2  and  C_24
    3  A    between atoms: C_4  and  C_19
    4  A    between atoms: C_6  and  C_10
    5  A    between atoms: C_7  and  N_14
    6  A    between atoms: C_8  and  N_14
    7  A    between atoms: C_9  and  C_10
    8  A    between atoms: C_10  and  C_19
    9  A    between atoms: N_13  and  C_17
   10  A    between atoms: N_13  and  C_25
   11  A    between atoms: C_18  and  C_24
                            x       y       z     vdW  Elec       q    Type
                         _______ _______ _______ _____ _____    ______ ____

>  <TORSDO>
F 11

$$$$
=
 OpenBabel11042420153D

 25 26  0  0  1  0  0  0  0  0999 V2000
  161.1210  205.3030  148.7640 C   0  0  2  0  0  0  0  0  0  0  0  0
  161.5040  206.7210  149.1810 C   0  0  1  0  0  3  0  0  0  0  0  0
  160.1220  206.1720  149.4970 C   0  0  0  0  0  2  0  0  0  0  0  0
  161.6210  204.1190  149.5980 C   0  0  0  0  0  2  0  0  0  0  0  0
  160.5170  203.5070  150.4490 C   0  0  0  0  0  2  0  0  0  0  0  0
  160.9390  201.4710  149.1090 C   0  0  0  0  0  1  0  0  0  0  0  0
  160.6530  201.9980  150.4980 C   0  0  0  0  0  2  0  0  0  0  0  0
  162.3110  206.7280  150.4010 N   0  0  0  0  0  2  0  0  0  0  0  0
  161.5690  207.3190  151.5180 C   0  0  2  0  0  3  0  0  0  0  0  0
  161.9190  208.7910  151.7090 C   0  0  0  0  0  2  0  0  0  0  0  0
  160.8540  209.3070  153.9100 C   0  0  0  0  0  3  0  0  0  0  0  0
  160.8010  208.1210  154.5180 C   0  0  0  0  0  3  0  0  0  0  0  0
  160.7870  209.5030  152.4270 C   0  0  1  0  0  3  0  0  0  0  0  0
  161.7620  206.5140  152.7980 C   0  0  0  0  0  2  0  0  0  0  0  0
  160.7850  206.8720  153.8190 N   0  0  0  0  0  2  0  0  0  0  0  0
  160.8480  210.9220  152.1260 N   0  0  0  0  0  2  0  0  0  0  0  0
  159.5090  212.8450  152.4830 N   0  0  0  0  0  1  0  0  0  0  0  0
  159.9590  211.5930  153.0590 C   0  0  0  0  0  2  0  0  0  0  0  0
  160.7430  205.1080  147.2940 C   0  0  0  0  0  2  0  0  0  0  0  0
  161.6870  204.1940  146.5000 C   0  0  2  0  0  3  0  0  0  0  0  0
  162.6830  205.9650  145.2540 O   0  0  0  0  0  0  0  0  0  0  0  0
  164.1570  204.4440  146.1230 O   0  0  0  0  0  1  0  0  0  0  0  0
  162.8660  204.9230  145.9350 C   0  0  0  0  0  0  0  0  0  0  0  0
  160.9850  203.3710  145.4640 C   0  0  0  0  0  3  0  0  0  0  0  0
  160.7900  202.1190  145.6520 N   0  0  0  0  0  2  0  0  0  0  0  0
  1 19  1  6  0  0  0
  1  2  1  0  0  0  0
  1  3  1  0  0  0  0
  1  4  1  0  0  0  0
  2  3  1  0  0  0  0
  2  8  1  1  0  0  0
  4  5  1  0  0  0  0
  5  7  1  0  0  0  0
  6  7  1  0  0  0  0
  9  8  1  6  0  0  0
  9 10  1  0  0  0  0
  9 14  1  0  0  0  0
 10 13  1  0  0  0  0
 11 12  2  0  0  0  0
 13 16  1  1  0  0  0
 13 11  1  0  0  0  0
 14 15  1  0  0  0  0
 15 12  1  0  0  0  0
 16 18  1  0  0  0  0
 17 18  1  0  0  0  0
 20 24  1  6  0  0  0
 20 19  1  0  0  0  0
 21 23  2  0  0  0  0
 23 22  1  0  0  0  0
 23 20  1  0  0  0  0
 24 25  2  0  0  0  0
M  END
>  <MODEL>
5

>  <REMARK>
 VINA RESULT:      -6.2      3.454      7.394
  Name = 
  11 active torsions:
  status: ('A' for Active; 'I' for Inactive)
    1  A    between atoms: C_2  and  C_4
    2  A    between atoms: C_2  and  C_24
    3  A    between atoms: C_4  and  C_19
    4  A    between atoms: C_6  and  C_10
    5  A    between atoms: C_7  and  N_14
    6  A    between atoms: C_8  and  N_14
    7  A    between atoms: C_9  and  C_10
    8  A    between atoms: C_10  and  C_19
    9  A    between atoms: N_13  and  C_17
   10  A    between atoms: N_13  and  C_25
   11  A    between atoms: C_18  and  C_24
                            x       y       z     vdW  Elec       q    Type
                         _______ _______ _______ _____ _____    ______ ____

>  <TORSDO>
F 11

$$$$
=
 OpenBabel11042420153D

 25 26  0  0  1  0  0  0  0  0999 V2000
  161.1640  205.0090  148.9510 C   0  0  2  0  0  0  0  0  0  0  0  0
  161.4800  206.3240  149.6590 C   0  0  1  0  0  3  0  0  0  0  0  0
  160.0820  205.7290  149.7270 C   0  0  0  0  0  2  0  0  0  0  0  0
  161.5970  203.6890  149.5980 C   0  0  0  0  0  2  0  0  0  0  0  0
  160.4090  202.8540  150.0540 C   0  0  0  0  0  2  0  0  0  0  0  0
  161.2080  200.9970  148.6270 C   0  0  0  0  0  1  0  0  0  0  0  0
  160.7490  201.3760  150.0180 C   0  0  0  0  0  2  0  0  0  0  0  0
  162.1610  206.1030  150.9350 N   0  0  0  0  0  2  0  0  0  0  0  0
  162.0790  207.2910  151.7880 C   0  0  2  0  0  3  0  0  0  0  0  0
  160.9360  207.1850  152.7920 C   0  0  0  0  0  2  0  0  0  0  0  0
  160.8260  209.5040  153.7150 C   0  0  0  0  0  3  0  0  0  0  0  0
  161.3430  210.2540  152.7410 C   0  0  0  0  0  3  0  0  0  0  0  0
  161.2100  208.0820  153.9850 C   0  0  1  0  0  3  0  0  0  0  0  0
  161.9950  208.5650  150.9560 C   0  0  0  0  0  2  0  0  0  0  0  0
  162.2550  209.7560  151.7560 N   0  0  0  0  0  2  0  0  0  0  0  0
  160.4660  207.5920  155.1320 N   0  0  0  0  0  2  0  0  0  0  0  0
  160.2060  208.7490  157.1850 N   0  0  0  0  0  1  0  0  0  0  0  0
  161.1530  208.0710  156.3190 C   0  0  0  0  0  2  0  0  0  0  0  0
  160.9370  205.0900  147.4400 C   0  0  0  0  0  2  0  0  0  0  0  0
  161.7660  204.1010  146.6080 C   0  0  2  0  0  3  0  0  0  0  0  0
  164.0820  204.3320  146.0960 O   0  0  0  0  0  1  0  0  0  0  0  0
  162.7060  205.8370  145.0560 O   0  0  0  0  0  0  0  0  0  0  0  0
  162.9130  204.7520  145.9000 C   0  0  0  0  0  0  0  0  0  0  0  0
  160.9380  203.2630  145.6840 C   0  0  0  0  0  3  0  0  0  0  0  0
  160.4800  203.7560  144.5930 N   0  0  0  0  0  2  0  0  0  0  0  0
  1 19  1  6  0  0  0
  1  4  1  0  0  0  0
  1  2  1  0  0  0  0
  1  3  1  0  0  0  0
  2  3  1  0  0  0  0
  2  8  1  1  0  0  0
  4  5  1  0  0  0  0
  6  7  1  0  0  0  0
  7  5  1  0  0  0  0
  9  8  1  6  0  0  0
  9 10  1  0  0  0  0
 10 13  1  0  0  0  0
 11 13  1  0  0  0  0
 12 11  2  0  0  0  0
 13 16  1  1  0  0  0
 14 15  1  0  0  0  0
 14  9  1  0  0  0  0
 15 12  1  0  0  0  0
 16 18  1  0  0  0  0
 18 17  1  0  0  0  0
 20 24  1  6  0  0  0
 20 19  1  0  0  0  0
 22 23  2  0  0  0  0
 23 21  1  0  0  0  0
 23 20  1  0  0  0  0
 25 24  2  0  0  0  0
M  END
>  <MODEL>
6

>  <REMARK>
 VINA RESULT:      -6.2      3.627      7.776
  Name = 
  11 active torsions:
  status: ('A' for Active; 'I' for Inactive)
    1  A    between atoms: C_2  and  C_4
    2  A    between atoms: C_2  and  C_24
    3  A    between atoms: C_4  and  C_19
    4  A    between atoms: C_6  and  C_10
    5  A    between atoms: C_7  and  N_14
    6  A    between atoms: C_8  and  N_14
    7  A    between atoms: C_9  and  C_10
    8  A    between atoms: C_10  and  C_19
    9  A    between atoms: N_13  and  C_17
   10  A    between atoms: N_13  and  C_25
   11  A    between atoms: C_18  and  C_24
                            x       y       z     vdW  Elec       q    Type
                         _______ _______ _______ _____ _____    ______ ____

>  <TORSDO>
F 11

$$$$
=
 OpenBabel11042420153D

 25 26  0  0  1  0  0  0  0  0999 V2000
  161.1820  204.2740  148.7330 C   0  0  2  0  0  0  0  0  0  0  0  0
  161.7260  205.5880  149.2890 C   0  0  1  0  0  3  0  0  0  0  0  0
  160.5450  205.5860  148.3300 C   0  0  0  0  0  2  0  0  0  0  0  0
  160.2770  203.4070  149.6160 C   0  0  0  0  0  2  0  0  0  0  0  0
  160.5330  201.9200  149.4160 C   0  0  0  0  0  2  0  0  0  0  0  0
  161.4930  202.4180  151.6410 C   0  0  0  0  0  1  0  0  0  0  0  0
  161.1980  201.3220  150.6410 C   0  0  0  0  0  2  0  0  0  0  0  0
  161.2430  205.8430  150.6460 N   0  0  0  0  0  2  0  0  0  0  0  0
  161.1920  207.2810  150.9250 C   0  0  2  0  0  3  0  0  0  0  0  0
  162.1950  208.0540  150.0750 C   0  0  0  0  0  2  0  0  0  0  0  0
  162.1440  210.3200  151.1270 C   0  0  0  0  0  3  0  0  0  0  0  0
  161.7480  210.0760  152.3780 C   0  0  0  0  0  3  0  0  0  0  0  0
  161.7510  209.4990  149.9380 C   0  0  1  0  0  3  0  0  0  0  0  0
  161.3640  207.5630  152.4130 C   0  0  0  0  0  2  0  0  0  0  0  0
  160.9820  208.9270  152.7570 N   0  0  0  0  0  2  0  0  0  0  0  0
  162.3440  210.0700  148.7430 N   0  0  0  0  0  2  0  0  0  0  0  0
  161.2500  211.8310  147.5940 N   0  0  0  0  0  1  0  0  0  0  0  0
  162.0470  211.4920  148.7580 C   0  0  0  0  0  2  0  0  0  0  0  0
  161.9760  203.6440  147.5860 C   0  0  0  0  0  2  0  0  0  0  0  0
  161.3750  203.8600  146.1900 C   0  0  2  0  0  3  0  0  0  0  0  0
  160.0830  202.6790  144.5720 O   0  0  0  0  0  0  0  0  0  0  0  0
  161.0340  201.3720  146.1940 O   0  0  0  0  0  1  0  0  0  0  0  0
  160.8040  202.6080  145.6010 C   0  0  0  0  0  0  0  0  0  0  0  0
  162.3060  204.5530  145.2440 C   0  0  0  0  0  3  0  0  0  0  0  0
  162.3010  205.8310  145.1460 N   0  0  0  0  0  2  0  0  0  0  0  0
  1 19  1  6  0  0  0
  1  2  1  0  0  0  0
  1  4  1  0  0  0  0
  2  8  1  1  0  0  0
  3  1  1  0  0  0  0
  3  2  1  0  0  0  0
  5  4  1  0  0  0  0
  5  7  1  0  0  0  0
  7  6  1  0  0  0  0
  9  8  1  1  0  0  0
  9 14  1  0  0  0  0
 10  9  1  0  0  0  0
 11 12  2  0  0  0  0
 12 15  1  0  0  0  0
 13 16  1  6  0  0  0
 13 10  1  0  0  0  0
 13 11  1  0  0  0  0
 14 15  1  0  0  0  0
 16 18  1  0  0  0  0
 17 18  1  0  0  0  0
 20 24  1  6  0  0  0
 20 19  1  0  0  0  0
 21 23  2  0  0  0  0
 23 20  1  0  0  0  0
 23 22  1  0  0  0  0
 25 24  2  0  0  0  0
M  END
>  <MODEL>
7

>  <REMARK>
 VINA RESULT:      -6.1      3.991      7.314
  Name = 
  11 active torsions:
  status: ('A' for Active; 'I' for Inactive)
    1  A    between atoms: C_2  and  C_4
    2  A    between atoms: C_2  and  C_24
    3  A    between atoms: C_4  and  C_19
    4  A    between atoms: C_6  and  C_10
    5  A    between atoms: C_7  and  N_14
    6  A    between atoms: C_8  and  N_14
    7  A    between atoms: C_9  and  C_10
    8  A    between atoms: C_10  and  C_19
    9  A    between atoms: N_13  and  C_17
   10  A    between atoms: N_13  and  C_25
   11  A    between atoms: C_18  and  C_24
                            x       y       z     vdW  Elec       q    Type
                         _______ _______ _______ _____ _____    ______ ____

>  <TORSDO>
F 11

$$$$
=
 OpenBabel11042420153D

 25 26  0  0  1  0  0  0  0  0999 V2000
  161.2290  204.5940  148.8920 C   0  0  2  0  0  0  0  0  0  0  0  0
  161.7540  205.9210  149.4330 C   0  0  1  0  0  3  0  0  0  0  0  0
  160.5120  205.8830  148.5550 C   0  0  0  0  0  2  0  0  0  0  0  0
  160.4230  203.6760  149.8170 C   0  0  0  0  0  2  0  0  0  0  0  0
  161.1520  202.3720  150.1120 C   0  0  0  0  0  2  0  0  0  0  0  0
  160.8130  203.3520  152.3580 C   0  0  0  0  0  1  0  0  0  0  0  0
  161.5760  202.3130  151.5670 C   0  0  0  0  0  2  0  0  0  0  0  0
  161.3540  206.1350  150.8240 N   0  0  0  0  0  2  0  0  0  0  0  0
  161.6710  207.4980  151.2590 C   0  0  2  0  0  3  0  0  0  0  0  0
  160.7390  207.9640  152.3730 C   0  0  0  0  0  2  0  0  0  0  0  0
  161.2660  210.4020  152.5180 C   0  0  0  0  0  3  0  0  0  0  0  0
  161.7290  210.6960  151.3020 C   0  0  0  0  0  3  0  0  0  0  0  0
  161.4050  209.0640  153.1780 C   0  0  1  0  0  3  0  0  0  0  0  0
  161.6850  208.4660  150.0820 C   0  0  0  0  0  2  0  0  0  0  0  0
  162.3220  209.7320  150.4250 N   0  0  0  0  0  2  0  0  0  0  0  0
  160.8100  209.1170  154.5010 N   0  0  0  0  0  2  0  0  0  0  0  0
  160.0410  207.4750  156.0280 N   0  0  0  0  0  1  0  0  0  0  0  0
  161.1390  207.8680  155.1650 C   0  0  0  0  0  2  0  0  0  0  0  0
  161.9680  204.0150  147.6830 C   0  0  0  0  0  2  0  0  0  0  0  0
  161.1180  203.8740  146.4120 C   0  0  2  0  0  3  0  0  0  0  0  0
  161.1750  201.5320  146.8490 O   0  0  0  0  0  1  0  0  0  0  0  0
  160.1770  202.1250  144.8760 O   0  0  0  0  0  0  0  0  0  0  0  0
  160.8170  202.4500  146.0670 C   0  0  0  0  0  0  0  0  0  0  0  0
  161.6670  204.6320  145.2440 C   0  0  0  0  0  3  0  0  0  0  0  0
  160.9130  205.4120  144.5610 N   0  0  0  0  0  2  0  0  0  0  0  0
  1 19  1  6  0  0  0
  1  2  1  0  0  0  0
  1  4  1  0  0  0  0
  2  8  1  1  0  0  0
  3  1  1  0  0  0  0
  3  2  1  0  0  0  0
  4  5  1  0  0  0  0
  5  7  1  0  0  0  0
  7  6  1  0  0  0  0
  9  8  1  6  0  0  0
  9 10  1  0  0  0  0
 10 13  1  0  0  0  0
 11 13  1  0  0  0  0
 12 11  2  0  0  0  0
 13 16  1  1  0  0  0
 14 15  1  0  0  0  0
 14  9  1  0  0  0  0
 15 12  1  0  0  0  0
 16 18  1  0  0  0  0
 18 17  1  0  0  0  0
 20 24  1  6  0  0  0
 20 19  1  0  0  0  0
 22 23  2  0  0  0  0
 23 20  1  0  0  0  0
 23 21  1  0  0  0  0
 25 24  2  0  0  0  0
M  END
>  <MODEL>
8

>  <REMARK>
 VINA RESULT:      -6.0      3.839      7.633
  Name = 
  11 active torsions:
  status: ('A' for Active; 'I' for Inactive)
    1  A    between atoms: C_2  and  C_4
    2  A    between atoms: C_2  and  C_24
    3  A    between atoms: C_4  and  C_19
    4  A    between atoms: C_6  and  C_10
    5  A    between atoms: C_7  and  N_14
    6  A    between atoms: C_8  and  N_14
    7  A    between atoms: C_9  and  C_10
    8  A    between atoms: C_10  and  C_19
    9  A    between atoms: N_13  and  C_17
   10  A    between atoms: N_13  and  C_25
   11  A    between atoms: C_18  and  C_24
                            x       y       z     vdW  Elec       q    Type
                         _______ _______ _______ _____ _____    ______ ____

>  <TORSDO>
F 11

$$$$
=
 OpenBabel11042420153D

 25 26  0  0  1  0  0  0  0  0999 V2000
  161.0620  206.3940  150.3500 C   0  0  2  0  0  0  0  0  0  0  0  0
  161.1260  206.9890  151.7540 C   0  0  1  0  0  3  0  0  0  0  0  0
  162.3310  206.2730  151.1650 C   0  0  0  0  0  2  0  0  0  0  0  0
  161.2060  207.3210  149.1380 C   0  0  0  0  0  2  0  0  0  0  0  0
  160.9990  206.5850  147.8220 C   0  0  0  0  0  2  0  0  0  0  0  0
  162.1120  205.7880  145.7610 C   0  0  0  0  0  1  0  0  0  0  0  0
  162.3310  206.2310  147.1910 C   0  0  0  0  0  2  0  0  0  0  0  0
  161.3600  208.4330  151.7210 N   0  0  0  0  0  2  0  0  0  0  0  0
  160.5700  209.1180  152.7480 C   0  0  2  0  0  3  0  0  0  0  0  0
  160.3590  210.5890  152.4060 C   0  0  0  0  0  2  0  0  0  0  0  0
  159.4120  211.4960  154.5330 C   0  0  0  0  0  3  0  0  0  0  0  0
  159.8720  210.6570  155.4630 C   0  0  0  0  0  3  0  0  0  0  0  0
  159.1230  211.1120  153.1140 C   0  0  1  0  0  3  0  0  0  0  0  0
  161.1820  208.9330  154.1310 C   0  0  0  0  0  2  0  0  0  0  0  0
  160.2530  209.3040  155.1920 N   0  0  0  0  0  2  0  0  0  0  0  0
  158.6150  212.2690  152.3980 N   0  0  0  0  0  2  0  0  0  0  0  0
  159.2020  213.6370  150.5530 N   0  0  0  0  0  1  0  0  0  0  0  0
  159.7210  212.8120  151.6280 C   0  0  0  0  0  2  0  0  0  0  0  0
  160.3360  205.0530  150.2140 C   0  0  0  0  0  2  0  0  0  0  0  0
  161.2560  203.8300  150.0910 C   0  0  2  0  0  3  0  0  0  0  0  0
  160.0180  201.9630  149.2790 O   0  0  0  0  0  1  0  0  0  0  0  0
  161.3450  202.9960  147.7250 O   0  0  0  0  0  0  0  0  0  0  0  0
  160.8290  202.8860  149.0110 C   0  0  0  0  0  0  0  0  0  0  0  0
  161.4860  203.1280  151.3930 C   0  0  0  0  0  3  0  0  0  0  0  0
  160.7220  203.3510  152.3970 N   0  0  0  0  0  2  0  0  0  0  0  0
  1  4  1  6  0  0  0
  1  3  1  0  0  0  0
  1  2  1  0  0  0  0
  2  8  1  6  0  0  0
  3  2  1  0  0  0  0
  5  4  1  0  0  0  0
  6  7  1  0  0  0  0
  7  5  1  0  0  0  0
  9  8  1  6  0  0  0
  9 14  1  0  0  0  0
 10  9  1  0  0  0  0
 10 13  1  0  0  0  0
 11 12  2  0  0  0  0
 13 16  1  6  0  0  0
 13 11  1  0  0  0  0
 14 15  1  0  0  0  0
 15 12  1  0  0  0  0
 17 18  1  0  0  0  0
 18 16  1  0  0  0  0
 19  1  1  0  0  0  0
 20 19  1  1  0  0  0
 20 24  1  0  0  0  0
 22 23  2  0  0  0  0
 23 21  1  0  0  0  0
 23 20  1  0  0  0  0
 24 25  2  0  0  0  0
M  END
>  <MODEL>
9

>  <REMARK>
 VINA RESULT:      -6.0      3.631      7.952
  Name = 
  11 active torsions:
  status: ('A' for Active; 'I' for Inactive)
    1  A    between atoms: C_2  and  C_4
    2  A    between atoms: C_2  and  C_24
    3  A    between atoms: C_4  and  C_19
    4  A    between atoms: C_6  and  C_10
    5  A    between atoms: C_7  and  N_14
    6  A    between atoms: C_8  and  N_14
    7  A    between atoms: C_9  and  C_10
    8  A    between atoms: C_10  and  C_19
    9  A    between atoms: N_13  and  C_17
   10  A    between atoms: N_13  and  C_25
   11  A    between atoms: C_18  and  C_24
                            x       y       z     vdW  Elec       q    Type
                         _______ _______ _______ _____ _____    ______ ____

>  <TORSDO>
F 11

$$$$
