=
 OpenBabel11052410463D

 37 40  0  0  1  0  0  0  0  0999 V2000
  159.6350  209.9480  155.6930 C   0  0  0  0  0  2  0  0  0  0  0  0
  160.4790  212.1560  155.3220 O   0  0  0  0  0  1  0  0  0  0  0  0
  161.2740  210.3380  153.9980 C   0  0  0  0  0  2  0  0  0  0  0  0
  160.0840  210.9780  154.6830 C   0  0  1  0  0  0  0  0  0  0  0  0
  160.0780  208.6300  155.1070 C   0  0  0  0  0  2  0  0  0  0  0  0
  161.2180  208.8940  154.2350 N   0  0  0  0  0  0  0  0  0  0  0  0
  161.0700  208.1610  152.9690 C   0  0  0  0  0  2  0  0  0  0  0  0
  161.9910  206.9730  152.8400 C   0  0  0  0  0  3  0  0  0  0  0  0
  162.3140  206.4070  151.7130 N   0  0  0  0  0  0  0  0  0  0  0  0
  161.8430  206.7460  150.3980 C   0  0  0  0  0  0  0  0  0  0  0  0
  162.5300  207.4750  149.6310 O   0  0  0  0  0  0  0  0  0  0  0  0
  162.7150  204.1900  146.8780 O   0  0  0  0  0  0  0  0  0  0  0  0
  160.2240  204.7630  150.4120 C   0  0  0  0  0  2  0  0  0  0  0  0
  160.9580  203.4960  148.3680 C   0  0  1  0  0  3  0  0  0  0  0  0
  161.1820  203.7110  149.8570 C   0  0  0  0  0  2  0  0  0  0  0  0
  160.2860  206.3620  148.4280 C   0  0  0  0  0  2  0  0  0  0  0  0
  161.7280  204.5280  147.5870 C   0  0  0  0  0  0  0  0  0  0  0  0
  161.3840  205.8790  147.6580 O   0  0  0  0  0  0  0  0  0  0  0  0
  160.5210  206.1900  149.9330 C   0  0  2  0  0  3  0  0  0  0  0  0
  160.9450  201.1810  148.9720 O   0  0  0  0  0  1  0  0  0  0  0  0
  161.3440  202.0740  147.9790 C   0  0  0  0  0  2  0  0  0  0  0  0
  159.0450  211.2530  153.6840 N   0  0  0  0  0  2  0  0  0  0  0  0
  159.6340  211.6020  152.3950 C   0  0  0  0  0  2  0  0  0  0  0  0
  159.5670  213.1070  152.2000 C   0  0  0  0  0  2  0  0  0  0  0  0
  158.8810  213.4340  150.9170 C   0  0  0  0  0  0  0  0  0  0  0  0
  159.4380  213.3790  149.7200 C   0  0  0  0  0  0  0  0  0  0  0  0
  158.5460  213.7070  148.7040 O   0  0  0  0  0  0  0  0  0  0  0  0
  156.5660  214.0640  151.5970 N   0  0  0  0  0  2  0  0  0  0  0  0
  157.2640  214.0060  149.2440 C   0  0  0  0  0  3  0  0  0  0  0  0
  157.4870  213.8360  150.7090 C   0  0  0  0  0  0  0  0  0  0  0  0
  156.3120  213.4060  154.1930 C   0  0  0  0  0  2  0  0  0  0  0  0
  156.7120  213.9500  153.0140 C   0  0  0  0  0  0  0  0  0  0  0  0
  157.3460  214.2920  154.2270 N   0  0  0  0  0  0  0  0  0  0  0  0
  160.8000  213.0140  149.4890 N   0  0  0  0  0  2  0  0  0  0  0  0
  161.6440  213.7880  148.5960 C   0  0  0  0  0  2  0  0  0  0  0  0
  162.4440  211.5570  148.3080 O   0  0  0  0  0  1  0  0  0  0  0  0
  162.6850  212.8860  147.9590 C   0  0  0  0  0  2  0  0  0  0  0  0
  3  6  1  0  0  0  0
  3  4  1  0  0  0  0
  4  2  1  1  0  0  0
  4  1  1  0  0  0  0
  5  1  1  0  0  0  0
  6  5  1  0  0  0  0
  7  6  1  0  0  0  0
  8  7  1  0  0  0  0
  9  8  2  0  0  0  0
 10  9  1  0  0  0  0
 11 10  2  0  0  0  0
 12 17  2  0  0  0  0
 14 21  1  6  0  0  0
 14 15  1  0  0  0  0
 15 13  1  0  0  0  0
 16 19  1  0  0  0  0
 17 18  1  0  0  0  0
 17 14  1  0  0  0  0
 18 16  1  0  0  0  0
 19 10  1  6  0  0  0
 19 13  1  0  0  0  0
 21 20  1  0  0  0  0
 22  4  1  0  0  0  0
 23 22  1  0  0  0  0
 24 23  1  0  0  0  0
 25 24  1  0  0  0  0
 26 25  2  0  0  0  0
 27 29  1  0  0  0  0
 27 26  1  0  0  0  0
 28 32  1  0  0  0  0
 29 30  2  0  0  0  0
 30 25  1  0  0  0  0
 30 28  1  0  0  0  0
 31 33  1  0  0  0  0
 32 31  1  0  0  0  0
 32 33  2  0  0  0  0
 34 26  1  0  0  0  0
 35 34  1  0  0  0  0
 37 36  1  0  0  0  0
 37 35  1  0  0  0  0
M  END
>  <MODEL>
1

>  <REMARK>
 VINA RESULT:      -6.5      0.000      0.000
  Name = 
  13 active torsions:
  status: ('A' for Active; 'I' for Inactive)
    1  A    between atoms: C_1  and  C_13
    2  A    between atoms: C_1  and  C_17
    3  A    between atoms: C_7  and  C_33
    4  A    between atoms: C_11  and  C_18
    5  A    between atoms: C_12  and  C_22
    6  A    between atoms: C_15  and  N_26
    7  A    between atoms: C_17  and  N_26
    8  A    between atoms: C_18  and  N_19
    9  A    between atoms: N_19  and  C_20
   10  A    between atoms: C_22  and  N_30
   11  A    between atoms: C_24  and  C_28
   12  A    between atoms: C_24  and  N_35
   13  A    between atoms: C_25  and  N_29
                            x       y       z     vdW  Elec       q    Type
                         _______ _______ _______ _____ _____    ______ ____

>  <TORSDO>
F 13

$$$$
=
 OpenBabel11052410463D

 37 40  0  0  1  0  0  0  0  0999 V2000
  161.6410  208.9100  149.5210 C   0  0  0  0  0  2  0  0  0  0  0  0
  162.9650  207.1200  148.6420 O   0  0  0  0  0  1  0  0  0  0  0  0
  162.3900  207.1520  150.9570 C   0  0  0  0  0  2  0  0  0  0  0  0
  161.9380  207.4280  149.5380 C   0  0  1  0  0  0  0  0  0  0  0  0
  161.2780  209.2360  150.9490 C   0  0  0  0  0  2  0  0  0  0  0  0
  161.9300  208.2530  151.8070 N   0  0  0  0  0  0  0  0  0  0  0  0
  160.9910  207.7680  152.8290 C   0  0  0  0  0  2  0  0  0  0  0  0
  161.6610  207.1280  154.0200 C   0  0  0  0  0  3  0  0  0  0  0  0
  161.4780  207.4920  155.2560 N   0  0  0  0  0  0  0  0  0  0  0  0
  160.6660  208.5760  155.7370 C   0  0  0  0  0  0  0  0  0  0  0  0
  159.4060  208.5130  155.6870 O   0  0  0  0  0  0  0  0  0  0  0  0
  159.9250  211.9430  152.9460 O   0  0  0  0  0  0  0  0  0  0  0  0
  160.4060  210.7230  157.1050 C   0  0  0  0  0  2  0  0  0  0  0  0
  159.9710  212.4220  155.3020 C   0  0  1  0  0  3  0  0  0  0  0  0
  159.3460  211.3950  156.2350 C   0  0  0  0  0  2  0  0  0  0  0  0
  162.2320  210.5350  155.3360 C   0  0  0  0  0  2  0  0  0  0  0  0
  160.4760  211.7360  154.0610 C   0  0  0  0  0  0  0  0  0  0  0  0
  161.5420  210.8350  154.1260 O   0  0  0  0  0  0  0  0  0  0  0  0
  161.3420  209.7840  156.3330 C   0  0  2  0  0  3  0  0  0  0  0  0
  158.5920  214.1820  156.1530 O   0  0  0  0  0  1  0  0  0  0  0  0
  158.9670  213.5220  154.9840 C   0  0  0  0  0  2  0  0  0  0  0  0
  160.7420  206.6280  149.2500 N   0  0  0  0  0  2  0  0  0  0  0  0
  160.9590  205.7500  148.1050 C   0  0  0  0  0  2  0  0  0  0  0  0
  161.8960  204.6220  148.5040 C   0  0  0  0  0  2  0  0  0  0  0  0
  161.3690  203.3140  148.0190 C   0  0  0  0  0  0  0  0  0  0  0  0
  161.3300  202.9300  146.7550 C   0  0  0  0  0  0  0  0  0  0  0  0
  160.8170  201.6460  146.6060 O   0  0  0  0  0  0  0  0  0  0  0  0
  160.6390  202.1340  150.0910 N   0  0  0  0  0  2  0  0  0  0  0  0
  160.4810  201.0930  147.8740 C   0  0  0  0  0  3  0  0  0  0  0  0
  160.8350  202.2000  148.8080 C   0  0  0  0  0  0  0  0  0  0  0  0
  160.4950  204.1650  151.8490 C   0  0  0  0  0  2  0  0  0  0  0  0
  160.9270  203.1600  151.0440 C   0  0  0  0  0  0  0  0  0  0  0  0
  161.8280  203.8900  151.8460 N   0  0  0  0  0  0  0  0  0  0  0  0
  161.7730  203.7360  145.6620 N   0  0  0  0  0  2  0  0  0  0  0  0
  160.8360  204.2420  144.6730 C   0  0  0  0  0  2  0  0  0  0  0  0
  160.1990  206.5180  145.0150 O   0  0  0  0  0  1  0  0  0  0  0  0
  161.1350  205.7010  144.3790 C   0  0  0  0  0  2  0  0  0  0  0  0
  1  4  1  0  0  0  0
  1  5  1  0  0  0  0
  3  6  1  0  0  0  0
  4  2  1  6  0  0  0
  4  3  1  0  0  0  0
  5  6  1  0  0  0  0
  6  7  1  0  0  0  0
  7  8  1  0  0  0  0
  8  9  2  0  0  0  0
  9 10  1  0  0  0  0
 11 10  2  0  0  0  0
 12 17  2  0  0  0  0
 14 21  1  6  0  0  0
 14 15  1  0  0  0  0
 15 13  1  0  0  0  0
 16 19  1  0  0  0  0
 17 18  1  0  0  0  0
 17 14  1  0  0  0  0
 18 16  1  0  0  0  0
 19 10  1  6  0  0  0
 19 13  1  0  0  0  0
 21 20  1  0  0  0  0
 22  4  1  0  0  0  0
 23 24  1  0  0  0  0
 23 22  1  0  0  0  0
 25 24  1  0  0  0  0
 25 30  1  0  0  0  0
 26 25  2  0  0  0  0
 27 26  1  0  0  0  0
 27 29  1  0  0  0  0
 28 32  1  0  0  0  0
 29 30  2  0  0  0  0
 30 28  1  0  0  0  0
 32 33  2  0  0  0  0
 32 31  1  0  0  0  0
 33 31  1  0  0  0  0
 34 26  1  0  0  0  0
 35 34  1  0  0  0  0
 37 35  1  0  0  0  0
 37 36  1  0  0  0  0
M  END
>  <MODEL>
2

>  <REMARK>
 VINA RESULT:      -6.5      3.438      9.286
  Name = 
  13 active torsions:
  status: ('A' for Active; 'I' for Inactive)
    1  A    between atoms: C_1  and  C_13
    2  A    between atoms: C_1  and  C_17
    3  A    between atoms: C_7  and  C_33
    4  A    between atoms: C_11  and  C_18
    5  A    between atoms: C_12  and  C_22
    6  A    between atoms: C_15  and  N_26
    7  A    between atoms: C_17  and  N_26
    8  A    between atoms: C_18  and  N_19
    9  A    between atoms: N_19  and  C_20
   10  A    between atoms: C_22  and  N_30
   11  A    between atoms: C_24  and  C_28
   12  A    between atoms: C_24  and  N_35
   13  A    between atoms: C_25  and  N_29
                            x       y       z     vdW  Elec       q    Type
                         _______ _______ _______ _____ _____    ______ ____

>  <TORSDO>
F 13

$$$$
=
 OpenBabel11052410463D

 37 40  0  0  1  0  0  0  0  0999 V2000
  160.4410  209.2660  155.3130 C   0  0  0  0  0  2  0  0  0  0  0  0
  160.7420  211.5920  155.7920 O   0  0  0  0  0  1  0  0  0  0  0  0
  161.2720  210.7420  153.6270 C   0  0  0  0  0  2  0  0  0  0  0  0
  160.3280  210.6870  154.8110 C   0  0  1  0  0  0  0  0  0  0  0  0
  160.8380  208.4680  154.0960 C   0  0  0  0  0  2  0  0  0  0  0  0
  161.5290  209.3710  153.1810 N   0  0  0  0  0  0  0  0  0  0  0  0
  161.0470  209.1680  151.8070 C   0  0  0  0  0  2  0  0  0  0  0  0
  162.1440  208.8880  150.8090 C   0  0  0  0  0  3  0  0  0  0  0  0
  162.5520  207.6980  150.4750 N   0  0  0  0  0  0  0  0  0  0  0  0
  162.0990  206.4390  150.9970 C   0  0  0  0  0  0  0  0  0  0  0  0
  162.8440  205.7380  151.7360 O   0  0  0  0  0  0  0  0  0  0  0  0
  162.3980  204.0400  147.2770 O   0  0  0  0  0  0  0  0  0  0  0  0
  160.3860  204.5410  151.1140 C   0  0  0  0  0  2  0  0  0  0  0  0
  160.7970  203.3530  148.9360 C   0  0  1  0  0  3  0  0  0  0  0  0
  161.2090  203.4750  150.3960 C   0  0  0  0  0  2  0  0  0  0  0  0
  160.2980  206.2410  149.2170 C   0  0  0  0  0  2  0  0  0  0  0  0
  161.5240  204.3870  148.1180 C   0  0  0  0  0  0  0  0  0  0  0  0
  161.2660  205.7480  148.2960 O   0  0  0  0  0  0  0  0  0  0  0  0
  160.7020  205.9760  150.6720 C   0  0  2  0  0  3  0  0  0  0  0  0
  161.2510  201.0750  149.5120 O   0  0  0  0  0  1  0  0  0  0  0  0
  161.0540  201.9370  148.4340 C   0  0  0  0  0  2  0  0  0  0  0  0
  158.9690  211.0000  154.3560 N   0  0  0  0  0  2  0  0  0  0  0  0
  158.9870  211.9970  153.2910 C   0  0  0  0  0  2  0  0  0  0  0  0
  158.5540  213.3420  153.8510 C   0  0  0  0  0  2  0  0  0  0  0  0
  157.1580  213.6550  153.4290 C   0  0  0  0  0  0  0  0  0  0  0  0
  156.7900  213.9880  152.2040 C   0  0  0  0  0  0  0  0  0  0  0  0
  155.4180  214.1900  152.1000 O   0  0  0  0  0  0  0  0  0  0  0  0
  155.8100  213.3920  155.5100 N   0  0  0  0  0  2  0  0  0  0  0  0
  154.7840  213.9700  153.3550 C   0  0  0  0  0  3  0  0  0  0  0  0
  155.9370  213.6260  154.2370 C   0  0  0  0  0  0  0  0  0  0  0  0
  157.5000  212.1850  157.2190 C   0  0  0  0  0  2  0  0  0  0  0  0
  156.8660  213.0840  156.4210 C   0  0  0  0  0  0  0  0  0  0  0  0
  158.0100  213.4470  157.1630 N   0  0  0  0  0  0  0  0  0  0  0  0
  157.6940  214.1190  151.1060 N   0  0  0  0  0  2  0  0  0  0  0  0
  157.4260  213.4770  149.8310 C   0  0  0  0  0  2  0  0  0  0  0  0
  159.6220  214.3000  149.3850 O   0  0  0  0  0  1  0  0  0  0  0  0
  158.4040  213.9780  148.7850 C   0  0  0  0  0  2  0  0  0  0  0  0
  3  4  1  0  0  0  0
  4  1  1  0  0  0  0
  4  2  1  1  0  0  0
  5  1  1  0  0  0  0
  6  3  1  0  0  0  0
  6  5  1  0  0  0  0
  7  6  1  0  0  0  0
  8  7  1  0  0  0  0
  9  8  2  0  0  0  0
  9 10  1  0  0  0  0
 10 11  2  0  0  0  0
 12 17  2  0  0  0  0
 14 21  1  6  0  0  0
 14 15  1  0  0  0  0
 15 13  1  0  0  0  0
 16 19  1  0  0  0  0
 17 18  1  0  0  0  0
 17 14  1  0  0  0  0
 18 16  1  0  0  0  0
 19 10  1  6  0  0  0
 19 13  1  0  0  0  0
 21 20  1  0  0  0  0
 22  4  1  0  0  0  0
 23 24  1  0  0  0  0
 23 22  1  0  0  0  0
 25 24  1  0  0  0  0
 25 30  1  0  0  0  0
 26 25  2  0  0  0  0
 27 26  1  0  0  0  0
 27 29  1  0  0  0  0
 28 32  1  0  0  0  0
 29 30  2  0  0  0  0
 30 28  1  0  0  0  0
 32 33  2  0  0  0  0
 32 31  1  0  0  0  0
 33 31  1  0  0  0  0
 34 26  1  0  0  0  0
 35 34  1  0  0  0  0
 37 36  1  0  0  0  0
 37 35  1  0  0  0  0
M  END
>  <MODEL>
3

>  <REMARK>
 VINA RESULT:      -6.5      1.689      2.545
  Name = 
  13 active torsions:
  status: ('A' for Active; 'I' for Inactive)
    1  A    between atoms: C_1  and  C_13
    2  A    between atoms: C_1  and  C_17
    3  A    between atoms: C_7  and  C_33
    4  A    between atoms: C_11  and  C_18
    5  A    between atoms: C_12  and  C_22
    6  A    between atoms: C_15  and  N_26
    7  A    between atoms: C_17  and  N_26
    8  A    between atoms: C_18  and  N_19
    9  A    between atoms: N_19  and  C_20
   10  A    between atoms: C_22  and  N_30
   11  A    between atoms: C_24  and  C_28
   12  A    between atoms: C_24  and  N_35
   13  A    between atoms: C_25  and  N_29
                            x       y       z     vdW  Elec       q    Type
                         _______ _______ _______ _____ _____    ______ ____

>  <TORSDO>
F 13

$$$$
=
 OpenBabel11052410463D

 37 40  0  0  1  0  0  0  0  0999 V2000
  161.8870  209.0960  148.8640 C   0  0  0  0  0  2  0  0  0  0  0  0
  162.9720  207.0600  148.2270 O   0  0  0  0  0  1  0  0  0  0  0  0
  162.6410  207.5620  150.5350 C   0  0  0  0  0  2  0  0  0  0  0  0
  162.0680  207.6200  149.1330 C   0  0  1  0  0  0  0  0  0  0  0  0
  161.6980  209.7060  150.2310 C   0  0  0  0  0  2  0  0  0  0  0  0
  162.3560  208.8360  151.1990 N   0  0  0  0  0  0  0  0  0  0  0  0
  161.4920  208.6340  152.3710 C   0  0  0  0  0  2  0  0  0  0  0  0
  160.4310  209.6940  152.5390 C   0  0  0  0  0  3  0  0  0  0  0  0
  160.3650  210.5220  153.5400 N   0  0  0  0  0  0  0  0  0  0  0  0
  161.2280  210.5760  154.6890 C   0  0  0  0  0  0  0  0  0  0  0  0
  162.4760  210.7000  154.5570 O   0  0  0  0  0  0  0  0  0  0  0  0
  158.7540  214.2310  155.1410 O   0  0  0  0  0  0  0  0  0  0  0  0
  159.1680  209.9950  156.0940 C   0  0  0  0  0  2  0  0  0  0  0  0
  157.9600  212.2000  156.1550 C   0  0  1  0  0  3  0  0  0  0  0  0
  158.1700  210.9060  155.3830 C   0  0  0  0  0  2  0  0  0  0  0  0
  160.7890  211.8040  156.8690 C   0  0  0  0  0  2  0  0  0  0  0  0
  159.0360  213.1870  155.7900 C   0  0  0  0  0  0  0  0  0  0  0  0
  160.3690  212.9510  156.1350 O   0  0  0  0  0  0  0  0  0  0  0  0
  160.6130  210.5110  156.0640 C   0  0  2  0  0  3  0  0  0  0  0  0
  156.0770  212.2590  154.6800 O   0  0  0  0  0  1  0  0  0  0  0  0
  156.5630  212.7480  155.8920 C   0  0  0  0  0  2  0  0  0  0  0  0
  160.7920  206.8980  149.1050 N   0  0  0  0  0  2  0  0  0  0  0  0
  160.7960  205.8610  148.0790 C   0  0  0  0  0  2  0  0  0  0  0  0
  161.8420  204.8150  148.4220 C   0  0  0  0  0  2  0  0  0  0  0  0
  161.3430  203.4510  148.0830 C   0  0  0  0  0  0  0  0  0  0  0  0
  161.2930  202.9390  146.8650 C   0  0  0  0  0  0  0  0  0  0  0  0
  160.8130  201.6340  146.8580 O   0  0  0  0  0  0  0  0  0  0  0  0
  160.6830  202.4700  150.2790 N   0  0  0  0  0  2  0  0  0  0  0  0
  160.5150  201.2050  148.1820 C   0  0  0  0  0  3  0  0  0  0  0  0
  160.8550  202.4100  148.9910 C   0  0  0  0  0  0  0  0  0  0  0  0
  160.5120  204.6550  151.8380 C   0  0  0  0  0  2  0  0  0  0  0  0
  160.9600  203.5950  151.1150 C   0  0  0  0  0  0  0  0  0  0  0  0
  161.8560  204.4370  151.8070 N   0  0  0  0  0  0  0  0  0  0  0  0
  161.6940  203.6410  145.6870 N   0  0  0  0  0  2  0  0  0  0  0  0
  160.7140  204.1280  144.7320 C   0  0  0  0  0  2  0  0  0  0  0  0
  160.2870  206.4670  144.9400 O   0  0  0  0  0  1  0  0  0  0  0  0
  161.0840  205.5290  144.2830 C   0  0  0  0  0  2  0  0  0  0  0  0
  1  4  1  0  0  0  0
  1  5  1  0  0  0  0
  3  6  1  0  0  0  0
  4  2  1  6  0  0  0
  4  3  1  0  0  0  0
  5  6  1  0  0  0  0
  6  7  1  0  0  0  0
  7  8  1  0  0  0  0
  8  9  2  0  0  0  0
  9 10  1  0  0  0  0
 11 10  2  0  0  0  0
 12 17  2  0  0  0  0
 14 21  1  6  0  0  0
 15 13  1  0  0  0  0
 15 14  1  0  0  0  0
 17 18  1  0  0  0  0
 17 14  1  0  0  0  0
 18 16  1  0  0  0  0
 19 10  1  6  0  0  0
 19 13  1  0  0  0  0
 19 16  1  0  0  0  0
 20 21  1  0  0  0  0
 22  4  1  0  0  0  0
 23 24  1  0  0  0  0
 23 22  1  0  0  0  0
 25 24  1  0  0  0  0
 25 30  1  0  0  0  0
 26 25  2  0  0  0  0
 27 26  1  0  0  0  0
 27 29  1  0  0  0  0
 28 32  1  0  0  0  0
 29 30  2  0  0  0  0
 30 28  1  0  0  0  0
 32 33  2  0  0  0  0
 32 31  1  0  0  0  0
 33 31  1  0  0  0  0
 34 26  1  0  0  0  0
 35 34  1  0  0  0  0
 37 35  1  0  0  0  0
 37 36  1  0  0  0  0
M  END
>  <MODEL>
4

>  <REMARK>
 VINA RESULT:      -6.4      3.141      9.525
  Name = 
  13 active torsions:
  status: ('A' for Active; 'I' for Inactive)
    1  A    between atoms: C_1  and  C_13
    2  A    between atoms: C_1  and  C_17
    3  A    between atoms: C_7  and  C_33
    4  A    between atoms: C_11  and  C_18
    5  A    between atoms: C_12  and  C_22
    6  A    between atoms: C_15  and  N_26
    7  A    between atoms: C_17  and  N_26
    8  A    between atoms: C_18  and  N_19
    9  A    between atoms: N_19  and  C_20
   10  A    between atoms: C_22  and  N_30
   11  A    between atoms: C_24  and  C_28
   12  A    between atoms: C_24  and  N_35
   13  A    between atoms: C_25  and  N_29
                            x       y       z     vdW  Elec       q    Type
                         _______ _______ _______ _____ _____    ______ ____

>  <TORSDO>
F 13

$$$$
=
 OpenBabel11052410463D

 37 40  0  0  1  0  0  0  0  0999 V2000
  161.1760  208.0700  153.1140 C   0  0  0  0  0  2  0  0  0  0  0  0
  162.4120  210.1190  153.1050 O   0  0  0  0  0  1  0  0  0  0  0  0
  162.3980  208.7280  151.1680 C   0  0  0  0  0  2  0  0  0  0  0  0
  161.6010  209.2890  152.3270 C   0  0  1  0  0  0  0  0  0  0  0  0
  161.1310  206.9610  152.0910 C   0  0  0  0  0  2  0  0  0  0  0  0
  162.0540  207.3120  151.0170 N   0  0  0  0  0  0  0  0  0  0  0  0
  161.4300  207.0610  149.7090 C   0  0  0  0  0  2  0  0  0  0  0  0
  161.8940  207.9980  148.6210 C   0  0  0  0  0  3  0  0  0  0  0  0
  161.7890  207.7600  147.3460 N   0  0  0  0  0  0  0  0  0  0  0  0
  161.2730  206.5750  146.7170 C   0  0  0  0  0  0  0  0  0  0  0  0
  160.0590  206.2540  146.8370 O   0  0  0  0  0  0  0  0  0  0  0  0
  160.8750  202.4130  148.2020 O   0  0  0  0  0  0  0  0  0  0  0  0
  161.5200  204.9770  144.7330 C   0  0  0  0  0  2  0  0  0  0  0  0
  161.2230  202.7410  145.8450 C   0  0  1  0  0  3  0  0  0  0  0  0
  160.5170  203.9210  145.1930 C   0  0  0  0  0  2  0  0  0  0  0  0
  163.1130  204.8230  146.7170 C   0  0  0  0  0  2  0  0  0  0  0  0
  161.4820  203.0460  147.2960 C   0  0  0  0  0  0  0  0  0  0  0  0
  162.3760  204.0540  147.6640 O   0  0  0  0  0  0  0  0  0  0  0  0
  162.2020  205.7300  145.8830 C   0  0  2  0  0  3  0  0  0  0  0  0
  159.7160  201.5140  144.4480 O   0  0  0  0  0  1  0  0  0  0  0  0
  160.4000  201.4710  145.6620 C   0  0  0  0  0  2  0  0  0  0  0  0
  160.4490  210.0310  151.8040 N   0  0  0  0  0  2  0  0  0  0  0  0
  160.2690  211.2930  152.5150 C   0  0  0  0  0  2  0  0  0  0  0  0
  158.8440  211.3790  153.0370 C   0  0  0  0  0  2  0  0  0  0  0  0
  158.8190  212.0560  154.3660 C   0  0  0  0  0  0  0  0  0  0  0  0
  159.0780  211.4710  155.5230 C   0  0  0  0  0  0  0  0  0  0  0  0
  159.0110  212.3590  156.5910 O   0  0  0  0  0  0  0  0  0  0  0  0
  158.2040  214.4160  153.8460 N   0  0  0  0  0  2  0  0  0  0  0  0
  158.6860  213.6670  156.1340 C   0  0  0  0  0  3  0  0  0  0  0  0
  158.5490  213.4650  154.6630 C   0  0  0  0  0  0  0  0  0  0  0  0
  157.1960  214.2040  151.3620 C   0  0  0  0  0  2  0  0  0  0  0  0
  158.0260  214.2930  152.4340 C   0  0  0  0  0  0  0  0  0  0  0  0
  158.5370  214.1750  151.1240 N   0  0  0  0  0  0  0  0  0  0  0  0
  159.4010  210.0870  155.6630 N   0  0  0  0  0  2  0  0  0  0  0  0
  160.1220  209.5970  156.8250 C   0  0  0  0  0  2  0  0  0  0  0  0
  162.0760  208.2270  156.7590 O   0  0  0  0  0  1  0  0  0  0  0  0
  161.6050  209.5180  156.5160 C   0  0  0  0  0  2  0  0  0  0  0  0
  3  4  1  0  0  0  0
  4  2  1  1  0  0  0
  4  1  1  0  0  0  0
  5  1  1  0  0  0  0
  6  3  1  0  0  0  0
  6  5  1  0  0  0  0
  7  6  1  0  0  0  0
  8  7  1  0  0  0  0
  9  8  2  0  0  0  0
 10 11  2  0  0  0  0
 10  9  1  0  0  0  0
 13 15  1  0  0  0  0
 13 19  1  0  0  0  0
 14 21  1  1  0  0  0
 14 17  1  0  0  0  0
 15 14  1  0  0  0  0
 16 18  1  0  0  0  0
 17 18  1  0  0  0  0
 17 12  2  0  0  0  0
 19 16  1  0  0  0  0
 19 10  1  1  0  0  0
 20 21  1  0  0  0  0
 22  4  1  0  0  0  0
 22 23  1  0  0  0  0
 23 24  1  0  0  0  0
 24 25  1  0  0  0  0
 25 30  1  0  0  0  0
 25 26  2  0  0  0  0
 26 34  1  0  0  0  0
 26 27  1  0  0  0  0
 28 30  1  0  0  0  0
 29 27  1  0  0  0  0
 30 29  2  0  0  0  0
 31 32  1  0  0  0  0
 32 28  1  0  0  0  0
 33 31  1  0  0  0  0
 33 32  2  0  0  0  0
 34 35  1  0  0  0  0
 37 36  1  0  0  0  0
 37 35  1  0  0  0  0
M  END
>  <MODEL>
5

>  <REMARK>
 VINA RESULT:      -6.3      2.549      4.720
  Name = 
  13 active torsions:
  status: ('A' for Active; 'I' for Inactive)
    1  A    between atoms: C_1  and  C_13
    2  A    between atoms: C_1  and  C_17
    3  A    between atoms: C_7  and  C_33
    4  A    between atoms: C_11  and  C_18
    5  A    between atoms: C_12  and  C_22
    6  A    between atoms: C_15  and  N_26
    7  A    between atoms: C_17  and  N_26
    8  A    between atoms: C_18  and  N_19
    9  A    between atoms: N_19  and  C_20
   10  A    between atoms: C_22  and  N_30
   11  A    between atoms: C_24  and  C_28
   12  A    between atoms: C_24  and  N_35
   13  A    between atoms: C_25  and  N_29
                            x       y       z     vdW  Elec       q    Type
                         _______ _______ _______ _____ _____    ______ ____

>  <TORSDO>
F 13

$$$$
=
 OpenBabel11052410463D

 37 40  0  0  1  0  0  0  0  0999 V2000
  162.8090  205.4000  151.8900 C   0  0  0  0  0  2  0  0  0  0  0  0
  161.5660  203.3940  151.4950 O   0  0  0  0  0  1  0  0  0  0  0  0
  160.7750  204.9940  153.0770 C   0  0  0  0  0  2  0  0  0  0  0  0
  161.4460  204.7640  151.7380 C   0  0  1  0  0  0  0  0  0  0  0  0
  162.6080  206.4770  152.9280 C   0  0  0  0  0  2  0  0  0  0  0  0
  161.4780  206.0810  153.7620 N   0  0  0  0  0  0  0  0  0  0  0  0
  160.5830  207.2260  153.9830 C   0  0  0  0  0  2  0  0  0  0  0  0
  159.7770  207.1360  155.2550 C   0  0  0  0  0  3  0  0  0  0  0  0
  160.0410  207.7950  156.3460 N   0  0  0  0  0  0  0  0  0  0  0  0
  161.1450  208.6830  156.5860 C   0  0  0  0  0  0  0  0  0  0  0  0
  162.3320  208.2560  156.5910 O   0  0  0  0  0  0  0  0  0  0  0  0
  161.0240  210.5590  152.5680 O   0  0  0  0  0  0  0  0  0  0  0  0
  159.3980  210.5540  156.6140 C   0  0  0  0  0  2  0  0  0  0  0  0
  159.5220  211.3970  154.2480 C   0  0  1  0  0  3  0  0  0  0  0  0
  158.8870  210.3810  155.1860 C   0  0  0  0  0  2  0  0  0  0  0  0
  161.8290  211.0700  156.0480 C   0  0  0  0  0  2  0  0  0  0  0  0
  160.8550  210.8840  153.7740 C   0  0  0  0  0  0  0  0  0  0  0  0
  161.9180  210.7290  154.6670 O   0  0  0  0  0  0  0  0  0  0  0  0
  160.8660  210.1490  156.8040 C   0  0  2  0  0  3  0  0  0  0  0  0
  157.7880  212.8110  153.3980 O   0  0  0  0  0  1  0  0  0  0  0  0
  158.5790  211.7040  153.0910 C   0  0  0  0  0  2  0  0  0  0  0  0
  160.6550  205.4110  150.6860 N   0  0  0  0  0  2  0  0  0  0  0  0
  160.4570  204.5150  149.5510 C   0  0  0  0  0  2  0  0  0  0  0  0
  161.7770  204.3190  148.8260 C   0  0  0  0  0  2  0  0  0  0  0  0
  161.6150  204.5930  147.3690 C   0  0  0  0  0  0  0  0  0  0  0  0
  161.8260  205.7610  146.7860 C   0  0  0  0  0  0  0  0  0  0  0  0
  161.6280  205.7090  145.4100 O   0  0  0  0  0  0  0  0  0  0  0  0
  160.8960  202.4080  146.4060 N   0  0  0  0  0  2  0  0  0  0  0  0
  161.2570  204.3940  145.0080 C   0  0  0  0  0  3  0  0  0  0  0  0
  161.2390  203.6590  146.3050 C   0  0  0  0  0  0  0  0  0  0  0  0
  161.4130  200.7950  148.4940 C   0  0  0  0  0  2  0  0  0  0  0  0
  160.8280  201.6460  147.6120 C   0  0  0  0  0  0  0  0  0  0  0  0
  160.1430  201.2040  148.7640 N   0  0  0  0  0  0  0  0  0  0  0  0
  162.2210  206.9420  147.4840 N   0  0  0  0  0  2  0  0  0  0  0  0
  161.2490  207.7620  148.1860 C   0  0  0  0  0  2  0  0  0  0  0  0
  162.3100  208.4460  150.2120 O   0  0  0  0  0  1  0  0  0  0  0  0
  161.9570  208.8760  148.9330 C   0  0  0  0  0  2  0  0  0  0  0  0
  1  5  1  0  0  0  0
  3  6  1  0  0  0  0
  4  2  1  6  0  0  0
  4  1  1  0  0  0  0
  4  3  1  0  0  0  0
  5  6  1  0  0  0  0
  6  7  1  0  0  0  0
  7  8  1  0  0  0  0
  8  9  2  0  0  0  0
  9 10  1  0  0  0  0
 10 11  2  0  0  0  0
 12 17  2  0  0  0  0
 13 19  1  0  0  0  0
 14 21  1  6  0  0  0
 14 15  1  0  0  0  0
 15 13  1  0  0  0  0
 16 19  1  0  0  0  0
 17 14  1  0  0  0  0
 17 18  1  0  0  0  0
 18 16  1  0  0  0  0
 19 10  1  6  0  0  0
 21 20  1  0  0  0  0
 22  4  1  0  0  0  0
 23 22  1  0  0  0  0
 24 23  1  0  0  0  0
 25 24  1  0  0  0  0
 26 25  2  0  0  0  0
 26 34  1  0  0  0  0
 27 26  1  0  0  0  0
 28 32  1  0  0  0  0
 29 27  1  0  0  0  0
 29 30  2  0  0  0  0
 30 28  1  0  0  0  0
 30 25  1  0  0  0  0
 31 33  1  0  0  0  0
 32 31  1  0  0  0  0
 32 33  2  0  0  0  0
 34 35  1  0  0  0  0
 35 37  1  0  0  0  0
 37 36  1  0  0  0  0
M  END
>  <MODEL>
6

>  <REMARK>
 VINA RESULT:      -6.0      3.334      8.885
  Name = 
  13 active torsions:
  status: ('A' for Active; 'I' for Inactive)
    1  A    between atoms: C_1  and  C_13
    2  A    between atoms: C_1  and  C_17
    3  A    between atoms: C_7  and  C_33
    4  A    between atoms: C_11  and  C_18
    5  A    between atoms: C_12  and  C_22
    6  A    between atoms: C_15  and  N_26
    7  A    between atoms: C_17  and  N_26
    8  A    between atoms: C_18  and  N_19
    9  A    between atoms: N_19  and  C_20
   10  A    between atoms: C_22  and  N_30
   11  A    between atoms: C_24  and  C_28
   12  A    between atoms: C_24  and  N_35
   13  A    between atoms: C_25  and  N_29
                            x       y       z     vdW  Elec       q    Type
                         _______ _______ _______ _____ _____    ______ ____

>  <TORSDO>
F 13

$$$$
=
 OpenBabel11052410463D

 37 40  0  0  1  0  0  0  0  0999 V2000
  161.9850  209.2240  148.7270 C   0  0  0  0  0  2  0  0  0  0  0  0
  162.9740  207.1000  148.2390 O   0  0  0  0  0  1  0  0  0  0  0  0
  162.7010  207.7950  150.5040 C   0  0  0  0  0  2  0  0  0  0  0  0
  162.1090  207.7670  149.1100 C   0  0  1  0  0  0  0  0  0  0  0  0
  161.8430  209.9470  150.0440 C   0  0  0  0  0  2  0  0  0  0  0  0
  162.4800  209.1280  151.0690 N   0  0  0  0  0  0  0  0  0  0  0  0
  161.6270  209.0560  152.2640 C   0  0  0  0  0  2  0  0  0  0  0  0
  160.7580  210.2720  152.4690 C   0  0  0  0  0  3  0  0  0  0  0  0
  160.7050  210.9660  153.5690 N   0  0  0  0  0  0  0  0  0  0  0  0
  161.4000  210.7080  154.8000 C   0  0  0  0  0  0  0  0  0  0  0  0
  162.6600  210.7070  154.8450 O   0  0  0  0  0  0  0  0  0  0  0  0
  158.9870  214.3680  155.4830 O   0  0  0  0  0  0  0  0  0  0  0  0
  159.1480  210.0210  155.8060 C   0  0  0  0  0  2  0  0  0  0  0  0
  158.0030  212.2470  156.0490 C   0  0  1  0  0  3  0  0  0  0  0  0
  158.2850  211.0770  155.1190 C   0  0  0  0  0  2  0  0  0  0  0  0
  160.6920  211.6100  157.0670 C   0  0  0  0  0  2  0  0  0  0  0  0
  159.1460  213.2250  155.9920 C   0  0  0  0  0  0  0  0  0  0  0  0
  160.4100  212.8740  156.4730 O   0  0  0  0  0  0  0  0  0  0  0  0
  160.5960  210.4650  156.0530 C   0  0  2  0  0  3  0  0  0  0  0  0
  156.4800  212.8600  154.3080 O   0  0  0  0  0  1  0  0  0  0  0  0
  156.6720  212.8960  155.6890 C   0  0  0  0  0  2  0  0  0  0  0  0
  160.8030  207.1000  149.1550 N   0  0  0  0  0  2  0  0  0  0  0  0
  160.6850  206.1020  148.0970 C   0  0  0  0  0  2  0  0  0  0  0  0
  161.8220  205.1010  148.2180 C   0  0  0  0  0  2  0  0  0  0  0  0
  161.3180  203.8050  148.7570 C   0  0  0  0  0  0  0  0  0  0  0  0
  161.1790  203.5170  150.0400 C   0  0  0  0  0  0  0  0  0  0  0  0
  160.6550  202.2450  150.2430 O   0  0  0  0  0  0  0  0  0  0  0  0
  160.8390  202.4360  146.7290 N   0  0  0  0  0  2  0  0  0  0  0  0
  160.4020  201.6040  148.9970 C   0  0  0  0  0  3  0  0  0  0  0  0
  160.8510  202.6320  148.0140 C   0  0  0  0  0  0  0  0  0  0  0  0
  160.9910  204.3500  144.8460 C   0  0  0  0  0  2  0  0  0  0  0  0
  161.2770  203.3590  145.7300 C   0  0  0  0  0  0  0  0  0  0  0  0
  162.2840  203.9330  144.9260 N   0  0  0  0  0  0  0  0  0  0  0  0
  161.5190  204.4100  151.1010 N   0  0  0  0  0  2  0  0  0  0  0  0
  160.8490  204.3400  152.3870 C   0  0  0  0  0  2  0  0  0  0  0  0
  162.5200  205.8320  153.2120 O   0  0  0  0  0  1  0  0  0  0  0  0
  161.1460  205.5910  153.1930 C   0  0  0  0  0  2  0  0  0  0  0  0
  1  4  1  0  0  0  0
  1  5  1  0  0  0  0
  3  6  1  0  0  0  0
  4  2  1  6  0  0  0
  4 22  1  0  0  0  0
  4  3  1  0  0  0  0
  5  6  1  0  0  0  0
  6  7  1  0  0  0  0
  7  8  1  0  0  0  0
  8  9  2  0  0  0  0
  9 10  1  0  0  0  0
 10 11  2  0  0  0  0
 12 17  2  0  0  0  0
 13 19  1  0  0  0  0
 14 21  1  6  0  0  0
 15 13  1  0  0  0  0
 15 14  1  0  0  0  0
 17 14  1  0  0  0  0
 17 18  1  0  0  0  0
 18 16  1  0  0  0  0
 19 10  1  6  0  0  0
 19 16  1  0  0  0  0
 20 21  1  0  0  0  0
 23 24  1  0  0  0  0
 23 22  1  0  0  0  0
 24 25  1  0  0  0  0
 25 26  2  0  0  0  0
 26 27  1  0  0  0  0
 26 34  1  0  0  0  0
 28 30  1  0  0  0  0
 29 27  1  0  0  0  0
 30 25  1  0  0  0  0
 30 29  2  0  0  0  0
 31 33  1  0  0  0  0
 31 32  1  0  0  0  0
 32 28  1  0  0  0  0
 33 32  2  0  0  0  0
 34 35  1  0  0  0  0
 35 37  1  0  0  0  0
 37 36  1  0  0  0  0
M  END
>  <MODEL>
7

>  <REMARK>
 VINA RESULT:      -5.9      3.013      9.842
  Name = 
  13 active torsions:
  status: ('A' for Active; 'I' for Inactive)
    1  A    between atoms: C_1  and  C_13
    2  A    between atoms: C_1  and  C_17
    3  A    between atoms: C_7  and  C_33
    4  A    between atoms: C_11  and  C_18
    5  A    between atoms: C_12  and  C_22
    6  A    between atoms: C_15  and  N_26
    7  A    between atoms: C_17  and  N_26
    8  A    between atoms: C_18  and  N_19
    9  A    between atoms: N_19  and  C_20
   10  A    between atoms: C_22  and  N_30
   11  A    between atoms: C_24  and  C_28
   12  A    between atoms: C_24  and  N_35
   13  A    between atoms: C_25  and  N_29
                            x       y       z     vdW  Elec       q    Type
                         _______ _______ _______ _____ _____    ______ ____

>  <TORSDO>
F 13

$$$$
=
 OpenBabel11052410463D

 37 40  0  0  1  0  0  0  0  0999 V2000
  161.8190  209.4300  148.6250 C   0  0  0  0  0  2  0  0  0  0  0  0
  162.8810  207.2920  148.4570 O   0  0  0  0  0  1  0  0  0  0  0  0
  162.5930  208.3150  150.5920 C   0  0  0  0  0  2  0  0  0  0  0  0
  161.9960  208.0540  149.2250 C   0  0  1  0  0  0  0  0  0  0  0  0
  161.6570  210.3410  149.8180 C   0  0  0  0  0  2  0  0  0  0  0  0
  162.3270  209.7100  150.9500 N   0  0  0  0  0  0  0  0  0  0  0  0
  161.4830  209.7920  152.1500 C   0  0  0  0  0  2  0  0  0  0  0  0
  162.2440  210.1200  153.4120 C   0  0  0  0  0  3  0  0  0  0  0  0
  161.7020  210.5730  154.5050 N   0  0  0  0  0  0  0  0  0  0  0  0
  160.3200  210.8960  154.7280 C   0  0  0  0  0  0  0  0  0  0  0  0
  159.5250  210.0430  155.2100 O   0  0  0  0  0  0  0  0  0  0  0  0
  155.8910  210.7720  154.9480 O   0  0  0  0  0  0  0  0  0  0  0  0
  159.4870  213.1440  155.6260 C   0  0  0  0  0  2  0  0  0  0  0  0
  157.0000  212.7790  155.6740 C   0  0  1  0  0  3  0  0  0  0  0  0
  158.3060  212.6170  156.4370 C   0  0  0  0  0  2  0  0  0  0  0  0
  158.7310  212.3090  153.3380 C   0  0  0  0  0  2  0  0  0  0  0  0
  156.8100  211.6110  154.7430 C   0  0  0  0  0  0  0  0  0  0  0  0
  157.6650  211.4180  153.6560 O   0  0  0  0  0  0  0  0  0  0  0  0
  159.8350  212.2850  154.4020 C   0  0  2  0  0  3  0  0  0  0  0  0
  155.5180  214.2810  156.8020 O   0  0  0  0  0  1  0  0  0  0  0  0
  155.8380  212.9330  156.6480 C   0  0  0  0  0  2  0  0  0  0  0  0
  160.7150  207.3570  149.3840 N   0  0  0  0  0  2  0  0  0  0  0  0
  160.6090  206.2330  148.4590 C   0  0  0  0  0  2  0  0  0  0  0  0
  161.6890  205.2130  148.7780 C   0  0  0  0  0  2  0  0  0  0  0  0
  161.1050  203.8420  148.8420 C   0  0  0  0  0  0  0  0  0  0  0  0
  160.5630  203.2960  149.9170 C   0  0  0  0  0  0  0  0  0  0  0  0
  160.0710  202.0190  149.6700 O   0  0  0  0  0  0  0  0  0  0  0  0
  161.4050  202.9330  146.5400 N   0  0  0  0  0  2  0  0  0  0  0  0
  160.2830  201.6560  148.3110 C   0  0  0  0  0  3  0  0  0  0  0  0
  160.9770  202.8580  147.7650 C   0  0  0  0  0  0  0  0  0  0  0  0
  162.1090  205.0980  145.1070 C   0  0  0  0  0  2  0  0  0  0  0  0
  162.1000  204.0360  145.9550 C   0  0  0  0  0  0  0  0  0  0  0  0
  163.2490  204.8410  145.8050 N   0  0  0  0  0  0  0  0  0  0  0  0
  160.4800  203.9430  151.1870 N   0  0  0  0  0  2  0  0  0  0  0  0
  161.6690  204.1820  151.9880 C   0  0  0  0  0  2  0  0  0  0  0  0
  161.1380  205.6710  153.7780 O   0  0  0  0  0  1  0  0  0  0  0  0
  161.6730  205.6140  152.4900 C   0  0  0  0  0  2  0  0  0  0  0  0
  1  4  1  0  0  0  0
  1  5  1  0  0  0  0
  3  6  1  0  0  0  0
  4  2  1  6  0  0  0
  4 22  1  0  0  0  0
  4  3  1  0  0  0  0
  5  6  1  0  0  0  0
  6  7  1  0  0  0  0
  7  8  1  0  0  0  0
  8  9  2  0  0  0  0
  9 10  1  0  0  0  0
 10 11  2  0  0  0  0
 13 15  1  0  0  0  0
 14 15  1  0  0  0  0
 14 21  1  1  0  0  0
 16 18  1  0  0  0  0
 16 19  1  0  0  0  0
 17 12  2  0  0  0  0
 17 14  1  0  0  0  0
 18 17  1  0  0  0  0
 19 10  1  1  0  0  0
 19 13  1  0  0  0  0
 21 20  1  0  0  0  0
 23 24  1  0  0  0  0
 23 22  1  0  0  0  0
 24 25  1  0  0  0  0
 25 26  2  0  0  0  0
 26 34  1  0  0  0  0
 27 26  1  0  0  0  0
 28 30  1  0  0  0  0
 29 27  1  0  0  0  0
 30 29  2  0  0  0  0
 30 25  1  0  0  0  0
 31 33  1  0  0  0  0
 31 32  1  0  0  0  0
 32 28  1  0  0  0  0
 33 32  2  0  0  0  0
 34 35  1  0  0  0  0
 35 37  1  0  0  0  0
 37 36  1  0  0  0  0
M  END
>  <MODEL>
8

>  <REMARK>
 VINA RESULT:      -5.8      2.892      9.837
  Name = 
  13 active torsions:
  status: ('A' for Active; 'I' for Inactive)
    1  A    between atoms: C_1  and  C_13
    2  A    between atoms: C_1  and  C_17
    3  A    between atoms: C_7  and  C_33
    4  A    between atoms: C_11  and  C_18
    5  A    between atoms: C_12  and  C_22
    6  A    between atoms: C_15  and  N_26
    7  A    between atoms: C_17  and  N_26
    8  A    between atoms: C_18  and  N_19
    9  A    between atoms: N_19  and  C_20
   10  A    between atoms: C_22  and  N_30
   11  A    between atoms: C_24  and  C_28
   12  A    between atoms: C_24  and  N_35
   13  A    between atoms: C_25  and  N_29
                            x       y       z     vdW  Elec       q    Type
                         _______ _______ _______ _____ _____    ______ ____

>  <TORSDO>
F 13

$$$$
=
 OpenBabel11052410463D

 37 40  0  0  1  0  0  0  0  0999 V2000
  160.7250  205.3660  152.5670 C   0  0  0  0  0  2  0  0  0  0  0  0
  162.4840  206.5630  153.6630 O   0  0  0  0  0  1  0  0  0  0  0  0
  162.2490  206.6950  151.2930 C   0  0  0  0  0  2  0  0  0  0  0  0
  161.5440  206.6350  152.6320 C   0  0  1  0  0  0  0  0  0  0  0  0
  160.4600  205.1660  151.0950 C   0  0  0  0  0  2  0  0  0  0  0  0
  161.5350  205.8230  150.3580 N   0  0  0  0  0  0  0  0  0  0  0  0
  160.9830  206.5970  149.2370 C   0  0  0  0  0  2  0  0  0  0  0  0
  162.0170  207.3870  148.4720 C   0  0  0  0  0  3  0  0  0  0  0  0
  162.1880  207.3280  147.1840 N   0  0  0  0  0  0  0  0  0  0  0  0
  161.4900  206.4930  146.2460 C   0  0  0  0  0  0  0  0  0  0  0  0
  160.2410  206.5930  146.0930 O   0  0  0  0  0  0  0  0  0  0  0  0
  160.9880  202.5310  148.1770 O   0  0  0  0  0  0  0  0  0  0  0  0
  161.4410  204.6990  144.4200 C   0  0  0  0  0  2  0  0  0  0  0  0
  161.1200  202.6060  145.7770 C   0  0  1  0  0  3  0  0  0  0  0  0
  160.4270  203.7650  145.0760 C   0  0  0  0  0  2  0  0  0  0  0  0
  163.2100  204.6240  146.2540 C   0  0  0  0  0  2  0  0  0  0  0  0
  161.5400  203.0300  147.1590 C   0  0  0  0  0  0  0  0  0  0  0  0
  162.5260  204.0030  147.3380 O   0  0  0  0  0  0  0  0  0  0  0  0
  162.2780  205.5090  145.4190 C   0  0  2  0  0  3  0  0  0  0  0  0
  160.0790  200.8580  144.5170 O   0  0  0  0  0  1  0  0  0  0  0  0
  160.2070  201.3860  145.8010 C   0  0  0  0  0  2  0  0  0  0  0  0
  160.6980  207.8240  152.7840 N   0  0  0  0  0  2  0  0  0  0  0  0
  160.7640  208.3470  154.1440 C   0  0  0  0  0  2  0  0  0  0  0  0
  161.0750  209.8340  154.0990 C   0  0  0  0  0  2  0  0  0  0  0  0
  159.9160  210.6210  154.6120 C   0  0  0  0  0  0  0  0  0  0  0  0
  159.1390  211.3980  153.8760 C   0  0  0  0  0  0  0  0  0  0  0  0
  158.1180  211.9810  154.6190 O   0  0  0  0  0  0  0  0  0  0  0  0
  159.8480  210.1060  157.0500 N   0  0  0  0  0  2  0  0  0  0  0  0
  158.1900  211.5660  155.9790 C   0  0  0  0  0  3  0  0  0  0  0  0
  159.3860  210.6750  155.9760 C   0  0  0  0  0  0  0  0  0  0  0  0
  161.5360  208.0230  157.2610 C   0  0  0  0  0  2  0  0  0  0  0  0
  161.0000  209.2650  157.1320 C   0  0  0  0  0  0  0  0  0  0  0  0
  162.3970  209.0720  157.1410 N   0  0  0  0  0  0  0  0  0  0  0  0
  159.3190  211.6110  152.4760 N   0  0  0  0  0  2  0  0  0  0  0  0
  159.2300  212.9420  151.9000 C   0  0  0  0  0  2  0  0  0  0  0  0
  158.8020  213.2530  149.5720 O   0  0  0  0  0  1  0  0  0  0  0  0
  158.1940  212.9570  150.7920 C   0  0  0  0  0  2  0  0  0  0  0  0
  1  4  1  0  0  0  0
  3  4  1  0  0  0  0
  4 22  1  0  0  0  0
  4  2  1  1  0  0  0
  5  1  1  0  0  0  0
  6  5  1  0  0  0  0
  6  3  1  0  0  0  0
  7  6  1  0  0  0  0
  8  7  1  0  0  0  0
  9  8  2  0  0  0  0
 10  9  1  0  0  0  0
 11 10  2  0  0  0  0
 13 15  1  0  0  0  0
 13 19  1  0  0  0  0
 14 21  1  1  0  0  0
 14 17  1  0  0  0  0
 15 14  1  0  0  0  0
 16 18  1  0  0  0  0
 17 18  1  0  0  0  0
 17 12  2  0  0  0  0
 19 10  1  1  0  0  0
 19 16  1  0  0  0  0
 20 21  1  0  0  0  0
 22 23  1  0  0  0  0
 24 23  1  0  0  0  0
 24 25  1  0  0  0  0
 25 30  1  0  0  0  0
 26 25  2  0  0  0  0
 26 27  1  0  0  0  0
 27 29  1  0  0  0  0
 28 32  1  0  0  0  0
 30 29  2  0  0  0  0
 30 28  1  0  0  0  0
 32 33  2  0  0  0  0
 32 31  1  0  0  0  0
 33 31  1  0  0  0  0
 34 26  1  0  0  0  0
 35 34  1  0  0  0  0
 36 37  1  0  0  0  0
 37 35  1  0  0  0  0
M  END
>  <MODEL>
9

>  <REMARK>
 VINA RESULT:      -5.7      2.276      5.074
  Name = 
  13 active torsions:
  status: ('A' for Active; 'I' for Inactive)
    1  A    between atoms: C_1  and  C_13
    2  A    between atoms: C_1  and  C_17
    3  A    between atoms: C_7  and  C_33
    4  A    between atoms: C_11  and  C_18
    5  A    between atoms: C_12  and  C_22
    6  A    between atoms: C_15  and  N_26
    7  A    between atoms: C_17  and  N_26
    8  A    between atoms: C_18  and  N_19
    9  A    between atoms: N_19  and  C_20
   10  A    between atoms: C_22  and  N_30
   11  A    between atoms: C_24  and  C_28
   12  A    between atoms: C_24  and  N_35
   13  A    between atoms: C_25  and  N_29
                            x       y       z     vdW  Elec       q    Type
                         _______ _______ _______ _____ _____    ______ ____

>  <TORSDO>
F 13

$$$$
