=
 OpenBabel11042422223D

 43 46  0  0  1  0  0  0  0  0999 V2000
  161.7930  207.8090  150.8150 C   0  0  2  0  0  3  0  0  0  0  0  0
  161.4310  206.6640  153.8910 O   0  0  0  0  0  1  0  0  0  0  0  0
  159.5700  210.9690  154.2860 N   0  0  0  0  0  0  0  0  0  0  0  0
  159.4960  209.5120  154.2760 C   0  0  0  0  0  2  0  0  0  0  0  0
  162.1320  209.7860  152.3600 C   0  0  0  0  0  2  0  0  0  0  0  0
  162.0540  208.2830  152.2540 C   0  0  1  0  0  3  0  0  0  0  0  0
  160.9020  208.9590  154.2830 C   0  0  2  0  0  3  0  0  0  0  0  0
  161.7760  210.0900  153.7990 C   0  0  2  0  0  3  0  0  0  0  0  0
  161.0110  207.8360  153.2640 C   0  0  2  0  0  3  0  0  0  0  0  0
  160.9190  211.3350  153.8640 C   0  0  0  0  0  2  0  0  0  0  0  0
  158.7280  211.4100  153.3200 O   0  0  0  0  0  0  0  0  0  0  0  0
  158.7100  212.8030  153.4520 C   0  0  0  0  0  2  0  0  0  0  0  0
  157.6340  213.2080  154.4400 C   0  0  0  0  0  2  0  0  0  0  0  0
  156.4370  212.5660  154.1280 O   0  0  0  0  0  0  0  0  0  0  0  0
  155.9350  212.1410  155.3570 C   0  0  0  0  0  2  0  0  0  0  0  0
  155.7420  210.6380  155.3300 C   0  0  0  0  0  1  0  0  0  0  0  0
  161.1920  208.8690  149.8890 C   0  0  0  0  0  2  0  0  0  0  0  0
  162.1400  209.2950  148.8130 C   0  0  0  0  0  0  0  0  0  0  0  0
  162.8470  208.4260  148.2400 O   0  0  0  0  0  0  0  0  0  0  0  0
  162.2630  210.6650  148.4240 N   0  0  0  0  0  2  0  0  0  0  0  0
  161.6040  211.6960  149.1100 N   0  0  0  0  0  2  0  0  0  0  0  0
  161.9050  212.9440  148.4180 C   0  0  0  0  0  2  0  0  0  0  0  0
  159.5960  213.9120  149.6150 S   0  0  0  0  0  0  0  0  0  0  0  0
  158.1730  213.3830  148.6860 C   0  0  0  0  0  0  0  0  0  0  0  0
  156.8120  213.3790  149.3000 C   0  0  0  0  0  1  0  0  0  0  0  0
  159.8280  213.0950  146.9920 C   0  0  0  0  0  2  0  0  0  0  0  0
  158.4130  213.0040  147.4360 C   0  0  0  0  0  0  0  0  0  0  0  0
  160.6320  213.7350  148.1200 C   0  0  2  0  0  3  0  0  0  0  0  0
  157.3580  212.4780  146.5250 C   0  0  0  0  0  1  0  0  0  0  0  0
  160.9190  206.6460  150.8340 N   0  0  0  0  0  2  0  0  0  0  0  0
  160.9970  203.1480  149.5050 C   0  0  0  0  0  0  0  0  0  0  0  0
  161.3110  203.3840  148.1640 C   0  0  0  0  0  3  0  0  0  0  0  0
  161.0540  205.5450  149.9290 C   0  0  0  0  0  0  0  0  0  0  0  0
  160.5450  204.0020  151.7650 N   0  0  0  0  0  1  0  0  0  0  0  0
  160.8630  204.2310  150.3940 C   0  0  0  0  0  0  0  0  0  0  0  0
  161.3780  205.7630  148.5830 C   0  0  0  0  0  3  0  0  0  0  0  0
  161.5050  204.6900  147.6930 C   0  0  0  0  0  0  0  0  0  0  0  0
  163.1390  204.4960  146.0030 F   0  0  0  0  0  0  0  0  0  0  0  0
  161.7470  206.2680  145.9590 F   0  0  0  0  0  0  0  0  0  0  0  0
  161.8440  204.9190  146.2460 C   0  0  0  0  0  0  0  0  0  0  0  0
  160.9830  204.2220  145.4160 F   0  0  0  0  0  0  0  0  0  0  0  0
  161.1580  200.7670  148.8530 C   0  0  0  0  0  1  0  0  0  0  0  0
  160.7880  201.7400  149.9600 C   0  0  0  0  0  2  0  0  0  0  0  0
  1 17  1  6  0  0  0
  1 30  1  0  0  0  0
  4  3  1  0  0  0  0
  6  1  1  6  0  0  0
  6  5  1  0  0  0  0
  6  9  1  0  0  0  0
  7  4  1  6  0  0  0
  8  5  1  6  0  0  0
  8 10  1  0  0  0  0
  8  7  1  0  0  0  0
  9  2  1  1  0  0  0
  9  7  1  0  0  0  0
 10  3  1  0  0  0  0
 11 12  1  0  0  0  0
 11  3  1  0  0  0  0
 12 13  1  0  0  0  0
 14 13  1  0  0  0  0
 14 15  1  0  0  0  0
 16 15  1  0  0  0  0
 18 17  1  0  0  0  0
 19 18  2  0  0  0  0
 20 18  1  0  0  0  0
 20 21  1  0  0  0  0
 22 21  1  0  0  0  0
 24 25  1  0  0  0  0
 24 23  1  0  0  0  0
 26 27  1  0  0  0  0
 26 28  1  0  0  0  0
 27 24  2  0  0  0  0
 28 22  1  1  0  0  0
 28 23  1  0  0  0  0
 29 27  1  0  0  0  0
 31 43  1  0  0  0  0
 31 35  1  0  0  0  0
 32 31  2  0  0  0  0
 33 35  2  0  0  0  0
 33 30  1  0  0  0  0
 35 34  1  0  0  0  0
 36 33  1  0  0  0  0
 37 32  1  0  0  0  0
 37 36  2  0  0  0  0
 38 40  1  0  0  0  0
 39 40  1  0  0  0  0
 40 37  1  0  0  0  0
 41 40  1  0  0  0  0
 42 43  1  0  0  0  0
M  END
>  <MODEL>
1

>  <REMARK>
 VINA RESULT:      -7.8      0.000      0.000
  Name = 
  15 active torsions:
  status: ('A' for Active; 'I' for Inactive)
    1  A    between atoms: O_3  and  C_7
    2  A    between atoms: O_3  and  C_29
    3  A    between atoms: C_4  and  C_30
    4  A    between atoms: C_7  and  C_31
    5  A    between atoms: N_8  and  O_20
    6  A    between atoms: C_11  and  C_19
    7  A    between atoms: C_11  and  C_38
    8  A    between atoms: C_11  and  N_41
    9  A    between atoms: C_12  and  N_41
   10  A    between atoms: C_14  and  C_38
   11  A    between atoms: C_16  and  C_24
   12  A    between atoms: C_16  and  N_28
   13  A    between atoms: O_20  and  C_31
   14  A    between atoms: N_28  and  N_42
   15  A    between atoms: C_39  and  C_43
                            x       y       z     vdW  Elec       q    Type
                         _______ _______ _______ _____ _____    ______ ____

>  <TORSDO>
F 15

$$$$
=
 OpenBabel11042422223D

 43 46  0  0  1  0  0  0  0  0999 V2000
  161.9910  209.7670  149.9290 C   0  0  2  0  0  3  0  0  0  0  0  0
  160.6120  212.5710  150.9990 O   0  0  0  0  0  1  0  0  0  0  0  0
  160.8980  213.3930  146.3740 N   0  0  0  0  0  0  0  0  0  0  0  0
  160.1670  213.1530  147.6120 C   0  0  0  0  0  2  0  0  0  0  0  0
  162.9240  211.6230  148.4810 C   0  0  0  0  0  2  0  0  0  0  0  0
  162.1840  211.2830  149.7510 C   0  0  1  0  0  3  0  0  0  0  0  0
  161.1360  213.2420  148.7680 C   0  0  2  0  0  3  0  0  0  0  0  0
  162.5010  213.0410  148.1570 C   0  0  2  0  0  3  0  0  0  0  0  0
  160.8940  212.0840  149.7230 C   0  0  2  0  0  3  0  0  0  0  0  0
  162.3150  213.1930  146.6630 C   0  0  0  0  0  2  0  0  0  0  0  0
  160.5370  212.4120  145.5090 O   0  0  0  0  0  0  0  0  0  0  0  0
  159.3550  212.8650  144.9100 C   0  0  0  0  0  2  0  0  0  0  0  0
  159.4220  212.6320  143.4130 C   0  0  0  0  0  2  0  0  0  0  0  0
  160.1360  211.4650  143.1450 O   0  0  0  0  0  0  0  0  0  0  0  0
  160.8620  211.7550  141.9900 C   0  0  0  0  0  2  0  0  0  0  0  0
  162.2060  212.3400  142.3740 C   0  0  0  0  0  1  0  0  0  0  0  0
  161.6430  209.0100  148.6460 C   0  0  0  0  0  2  0  0  0  0  0  0
  162.3850  207.7160  148.5240 C   0  0  0  0  0  0  0  0  0  0  0  0
  163.4420  207.5520  149.1860 O   0  0  0  0  0  0  0  0  0  0  0  0
  161.9230  206.6670  147.6710 N   0  0  0  0  0  2  0  0  0  0  0  0
  160.8300  206.8340  146.8080 N   0  0  0  0  0  2  0  0  0  0  0  0
  160.5180  205.5280  146.2390 C   0  0  0  0  0  2  0  0  0  0  0  0
  161.4570  202.9710  145.7100 S   0  0  0  0  0  0  0  0  0  0  0  0
  161.2080  201.9350  147.1360 C   0  0  0  0  0  0  0  0  0  0  0  0
  161.2130  200.4470  147.0160 C   0  0  0  0  0  1  0  0  0  0  0  0
  161.0740  204.0590  148.2140 C   0  0  0  0  0  2  0  0  0  0  0  0
  161.0250  202.5760  148.2850 C   0  0  0  0  0  0  0  0  0  0  0  0
  161.4480  204.4470  146.7860 C   0  0  2  0  0  3  0  0  0  0  0  0
  160.7470  201.8810  149.5730 C   0  0  0  0  0  1  0  0  0  0  0  0
  160.9570  209.5200  150.9210 N   0  0  0  0  0  2  0  0  0  0  0  0
  161.1680  207.7570  154.2160 C   0  0  0  0  0  0  0  0  0  0  0  0
  161.1770  206.4230  153.8000 C   0  0  0  0  0  3  0  0  0  0  0  0
  161.0340  208.4700  151.8920 C   0  0  0  0  0  0  0  0  0  0  0  0
  161.0850  210.1530  153.6740 N   0  0  0  0  0  1  0  0  0  0  0  0
  161.0920  208.7880  153.2610 C   0  0  0  0  0  0  0  0  0  0  0  0
  161.0520  207.1270  151.4920 C   0  0  0  0  0  3  0  0  0  0  0  0
  161.1210  206.0980  152.4380 C   0  0  0  0  0  0  0  0  0  0  0  0
  160.0680  204.4150  151.1640 F   0  0  0  0  0  0  0  0  0  0  0  0
  161.0160  203.8460  153.1280 F   0  0  0  0  0  0  0  0  0  0  0  0
  161.1330  204.6550  152.0130 C   0  0  0  0  0  0  0  0  0  0  0  0
  162.3100  204.3400  151.3530 F   0  0  0  0  0  0  0  0  0  0  0  0
  160.1230  207.3020  156.4110 C   0  0  0  0  0  1  0  0  0  0  0  0
  161.2200  208.0560  155.6790 C   0  0  0  0  0  2  0  0  0  0  0  0
  1 17  1  6  0  0  0
  1 30  1  0  0  0  0
  3 10  1  0  0  0  0
  3  4  1  0  0  0  0
  5  6  1  0  0  0  0
  6  1  1  6  0  0  0
  7  4  1  6  0  0  0
  7  9  1  0  0  0  0
  8 10  1  6  0  0  0
  8  5  1  0  0  0  0
  8  7  1  0  0  0  0
  9  6  1  0  0  0  0
  9  2  1  1  0  0  0
 11  3  1  0  0  0  0
 12 11  1  0  0  0  0
 13 12  1  0  0  0  0
 14 13  1  0  0  0  0
 15 16  1  0  0  0  0
 15 14  1  0  0  0  0
 18 17  1  0  0  0  0
 18 19  2  0  0  0  0
 20 18  1  0  0  0  0
 21 20  1  0  0  0  0
 22 21  1  0  0  0  0
 23 28  1  0  0  0  0
 23 24  1  0  0  0  0
 24 27  2  0  0  0  0
 25 24  1  0  0  0  0
 26 27  1  0  0  0  0
 27 29  1  0  0  0  0
 28 22  1  6  0  0  0
 28 26  1  0  0  0  0
 30 33  1  0  0  0  0
 31 43  1  0  0  0  0
 32 31  1  0  0  0  0
 33 35  1  0  0  0  0
 35 34  1  0  0  0  0
 35 31  2  0  0  0  0
 36 33  2  0  0  0  0
 36 37  1  0  0  0  0
 37 32  2  0  0  0  0
 38 40  1  0  0  0  0
 40 37  1  0  0  0  0
 40 39  1  0  0  0  0
 41 40  1  0  0  0  0
 43 42  1  0  0  0  0
M  END
>  <MODEL>
2

>  <REMARK>
 VINA RESULT:      -7.1      3.585      8.016
  Name = 
  15 active torsions:
  status: ('A' for Active; 'I' for Inactive)
    1  A    between atoms: O_3  and  C_7
    2  A    between atoms: O_3  and  C_29
    3  A    between atoms: C_4  and  C_30
    4  A    between atoms: C_7  and  C_31
    5  A    between atoms: N_8  and  O_20
    6  A    between atoms: C_11  and  C_19
    7  A    between atoms: C_11  and  C_38
    8  A    between atoms: C_11  and  N_41
    9  A    between atoms: C_12  and  N_41
   10  A    between atoms: C_14  and  C_38
   11  A    between atoms: C_16  and  C_24
   12  A    between atoms: C_16  and  N_28
   13  A    between atoms: O_20  and  C_31
   14  A    between atoms: N_28  and  N_42
   15  A    between atoms: C_39  and  C_43
                            x       y       z     vdW  Elec       q    Type
                         _______ _______ _______ _____ _____    ______ ____

>  <TORSDO>
F 15

$$$$
=
 OpenBabel11042422223D

 43 46  0  0  1  0  0  0  0  0999 V2000
  161.6890  208.2150  150.6820 C   0  0  2  0  0  3  0  0  0  0  0  0
  161.3850  206.5130  153.4960 O   0  0  0  0  0  1  0  0  0  0  0  0
  159.8350  210.7560  154.8150 N   0  0  0  0  0  0  0  0  0  0  0  0
  159.6640  209.3370  154.5290 C   0  0  0  0  0  2  0  0  0  0  0  0
  162.2260  209.8290  152.5580 C   0  0  0  0  0  2  0  0  0  0  0  0
  162.0430  208.3820  152.1690 C   0  0  1  0  0  3  0  0  0  0  0  0
  161.0280  208.7130  154.3510 C   0  0  2  0  0  3  0  0  0  0  0  0
  161.9540  209.8650  154.0460 C   0  0  2  0  0  3  0  0  0  0  0  0
  161.0170  207.8070  153.1310 C   0  0  2  0  0  3  0  0  0  0  0  0
  161.1860  211.1210  154.3970 C   0  0  0  0  0  2  0  0  0  0  0  0
  158.9830  211.4260  154.0000 O   0  0  0  0  0  0  0  0  0  0  0  0
  159.0910  212.7700  154.3750 C   0  0  0  0  0  2  0  0  0  0  0  0
  157.8190  213.2080  155.0760 C   0  0  0  0  0  2  0  0  0  0  0  0
  156.8580  212.2020  154.9870 O   0  0  0  0  0  0  0  0  0  0  0  0
  155.6970  212.8610  154.5840 C   0  0  0  0  0  2  0  0  0  0  0  0
  155.7480  214.3010  155.0520 C   0  0  0  0  0  1  0  0  0  0  0  0
  161.2790  209.5060  149.9700 C   0  0  0  0  0  2  0  0  0  0  0  0
  162.1920  209.8500  148.8360 C   0  0  0  0  0  0  0  0  0  0  0  0
  162.8900  208.9430  148.3150 O   0  0  0  0  0  0  0  0  0  0  0  0
  162.2900  211.1850  148.3350 N   0  0  0  0  0  2  0  0  0  0  0  0
  161.6420  212.2640  148.9540 N   0  0  0  0  0  2  0  0  0  0  0  0
  160.8710  212.9580  147.9290 C   0  0  0  0  0  2  0  0  0  0  0  0
  159.8720  213.8760  150.3500 S   0  0  0  0  0  0  0  0  0  0  0  0
  158.1060  214.0640  150.2360 C   0  0  0  0  0  0  0  0  0  0  0  0
  157.2580  214.1230  151.4640 C   0  0  0  0  0  1  0  0  0  0  0  0
  158.6150  214.0880  147.9060 C   0  0  0  0  0  2  0  0  0  0  0  0
  157.6160  214.1460  149.0040 C   0  0  0  0  0  0  0  0  0  0  0  0
  160.0040  214.0590  148.5370 C   0  0  2  0  0  3  0  0  0  0  0  0
  156.1600  214.2500  148.7090 C   0  0  0  0  0  1  0  0  0  0  0  0
  160.6200  207.2370  150.5420 N   0  0  0  0  0  2  0  0  0  0  0  0
  161.1820  204.3720  148.2000 C   0  0  0  0  0  0  0  0  0  0  0  0
  161.2520  203.3060  149.1000 C   0  0  0  0  0  3  0  0  0  0  0  0
  160.8320  205.9060  150.0580 C   0  0  0  0  0  0  0  0  0  0  0  0
  160.9000  206.7750  147.7670 N   0  0  0  0  0  1  0  0  0  0  0  0
  160.9750  205.6800  148.6770 C   0  0  0  0  0  0  0  0  0  0  0  0
  160.8960  204.8240  150.9470 C   0  0  0  0  0  3  0  0  0  0  0  0
  161.1080  203.5220  150.4780 C   0  0  0  0  0  0  0  0  0  0  0  0
  160.6660  201.2310  150.8190 F   0  0  0  0  0  0  0  0  0  0  0  0
  160.4470  202.6430  152.5620 F   0  0  0  0  0  0  0  0  0  0  0  0
  161.1850  202.3600  151.4280 C   0  0  0  0  0  0  0  0  0  0  0  0
  162.4950  202.1050  151.7990 F   0  0  0  0  0  0  0  0  0  0  0  0
  161.1890  202.6120  146.4620 C   0  0  0  0  0  1  0  0  0  0  0  0
  161.3510  204.0960  146.7410 C   0  0  0  0  0  2  0  0  0  0  0  0
  1 17  1  1  0  0  0
  4  3  1  0  0  0  0
  6  1  1  6  0  0  0
  6  5  1  0  0  0  0
  6  9  1  0  0  0  0
  7  4  1  6  0  0  0
  8  5  1  6  0  0  0
  8  7  1  0  0  0  0
  8 10  1  0  0  0  0
  9  2  1  1  0  0  0
  9  7  1  0  0  0  0
 10  3  1  0  0  0  0
 11 12  1  0  0  0  0
 11  3  1  0  0  0  0
 12 13  1  0  0  0  0
 14 13  1  0  0  0  0
 15 14  1  0  0  0  0
 15 16  1  0  0  0  0
 18 17  1  0  0  0  0
 19 18  2  0  0  0  0
 20 18  1  0  0  0  0
 20 21  1  0  0  0  0
 22 21  1  0  0  0  0
 24 23  1  0  0  0  0
 24 25  1  0  0  0  0
 26 28  1  0  0  0  0
 26 27  1  0  0  0  0
 27 24  2  0  0  0  0
 28 22  1  6  0  0  0
 28 23  1  0  0  0  0
 29 27  1  0  0  0  0
 30  1  1  0  0  0  0
 31 35  2  0  0  0  0
 31 32  1  0  0  0  0
 32 37  2  0  0  0  0
 33 30  1  0  0  0  0
 33 36  2  0  0  0  0
 34 35  1  0  0  0  0
 35 33  1  0  0  0  0
 37 36  1  0  0  0  0
 37 40  1  0  0  0  0
 38 40  1  0  0  0  0
 40 41  1  0  0  0  0
 40 39  1  0  0  0  0
 42 43  1  0  0  0  0
 43 31  1  0  0  0  0
M  END
>  <MODEL>
3

>  <REMARK>
 VINA RESULT:      -6.5      2.051      2.657
  Name = 
  15 active torsions:
  status: ('A' for Active; 'I' for Inactive)
    1  A    between atoms: O_3  and  C_7
    2  A    between atoms: O_3  and  C_29
    3  A    between atoms: C_4  and  C_30
    4  A    between atoms: C_7  and  C_31
    5  A    between atoms: N_8  and  O_20
    6  A    between atoms: C_11  and  C_19
    7  A    between atoms: C_11  and  C_38
    8  A    between atoms: C_11  and  N_41
    9  A    between atoms: C_12  and  N_41
   10  A    between atoms: C_14  and  C_38
   11  A    between atoms: C_16  and  C_24
   12  A    between atoms: C_16  and  N_28
   13  A    between atoms: O_20  and  C_31
   14  A    between atoms: N_28  and  N_42
   15  A    between atoms: C_39  and  C_43
                            x       y       z     vdW  Elec       q    Type
                         _______ _______ _______ _____ _____    ______ ____

>  <TORSDO>
F 15

$$$$
=
 OpenBabel11042422223D

 43 46  0  0  1  0  0  0  0  0999 V2000
  160.8570  208.7740  153.3880 C   0  0  2  0  0  3  0  0  0  0  0  0
  159.6720  207.7850  156.3070 O   0  0  0  0  0  1  0  0  0  0  0  0
  159.6140  212.4620  156.8270 N   0  0  0  0  0  0  0  0  0  0  0  0
  158.9770  211.1570  156.6950 C   0  0  0  0  0  2  0  0  0  0  0  0
  161.7370  210.4080  155.1090 C   0  0  0  0  0  2  0  0  0  0  0  0
  161.0900  209.0650  154.8800 C   0  0  1  0  0  3  0  0  0  0  0  0
  160.0380  210.0890  156.8150 C   0  0  2  0  0  3  0  0  0  0  0  0
  161.3410  210.7900  156.5200 C   0  0  2  0  0  3  0  0  0  0  0  0
  159.8320  209.0440  155.7310 C   0  0  2  0  0  3  0  0  0  0  0  0
  161.0410  212.2710  156.5860 C   0  0  0  0  0  2  0  0  0  0  0  0
  159.1480  213.2290  155.8110 O   0  0  0  0  0  0  0  0  0  0  0  0
  158.0300  212.5480  155.3160 C   0  0  0  0  0  2  0  0  0  0  0  0
  157.0060  213.5480  154.8110 C   0  0  0  0  0  2  0  0  0  0  0  0
  156.7200  213.2980  153.4700 O   0  0  0  0  0  0  0  0  0  0  0  0
  157.6930  214.0050  152.7660 C   0  0  0  0  0  2  0  0  0  0  0  0
  158.2040  213.1540  151.6210 C   0  0  0  0  0  1  0  0  0  0  0  0
  160.4410  207.3360  153.0700 C   0  0  0  0  0  2  0  0  0  0  0  0
  161.3280  206.3250  153.7250 C   0  0  0  0  0  0  0  0  0  0  0  0
  162.1460  206.7040  154.6020 O   0  0  0  0  0  0  0  0  0  0  0  0
  161.2680  204.9400  153.3750 N   0  0  0  0  0  2  0  0  0  0  0  0
  160.4760  204.4720  152.3160 N   0  0  0  0  0  2  0  0  0  0  0  0
  161.3150  203.6130  151.4890 C   0  0  0  0  0  2  0  0  0  0  0  0
  160.8160  201.3210  150.0040 S   0  0  0  0  0  0  0  0  0  0  0  0
  161.1880  201.6260  148.2900 C   0  0  0  0  0  0  0  0  0  0  0  0
  161.4270  200.4970  147.3430 C   0  0  0  0  0  1  0  0  0  0  0  0
  160.9460  203.8890  149.0080 C   0  0  0  0  0  2  0  0  0  0  0  0
  161.2310  202.9040  147.9320 C   0  0  0  0  0  0  0  0  0  0  0  0
  160.5550  203.1110  150.2610 C   0  0  2  0  0  3  0  0  0  0  0  0
  161.5810  203.3550  146.5560 C   0  0  0  0  0  1  0  0  0  0  0  0
  162.0590  209.0970  152.6340 N   0  0  0  0  0  2  0  0  0  0  0  0
  162.2970  208.4680  148.9520 C   0  0  0  0  0  0  0  0  0  0  0  0
  162.0690  209.7530  148.4510 C   0  0  0  0  0  3  0  0  0  0  0  0
  162.0640  209.3230  151.2200 C   0  0  0  0  0  0  0  0  0  0  0  0
  162.5250  206.9420  150.8650 N   0  0  0  0  0  1  0  0  0  0  0  0
  162.2910  208.2480  150.3420 C   0  0  0  0  0  0  0  0  0  0  0  0
  161.8450  210.6070  150.7010 C   0  0  0  0  0  3  0  0  0  0  0  0
  161.8430  210.8300  149.3190 C   0  0  0  0  0  0  0  0  0  0  0  0
  162.8150  212.8200  148.5090 F   0  0  0  0  0  0  0  0  0  0  0  0
  160.8890  212.9560  149.6720 F   0  0  0  0  0  0  0  0  0  0  0  0
  161.6020  212.2030  148.7570 C   0  0  0  0  0  0  0  0  0  0  0  0
  160.8830  212.1390  147.5750 F   0  0  0  0  0  0  0  0  0  0  0  0
  161.2120  206.9400  147.3380 C   0  0  0  0  0  1  0  0  0  0  0  0
  162.5230  207.3480  147.9900 C   0  0  0  0  0  2  0  0  0  0  0  0
  1 17  1  1  0  0  0
  4  3  1  0  0  0  0
  6  1  1  6  0  0  0
  6  5  1  0  0  0  0
  6  9  1  0  0  0  0
  7  4  1  6  0  0  0
  8  5  1  6  0  0  0
  8 10  1  0  0  0  0
  8  7  1  0  0  0  0
  9  2  1  1  0  0  0
  9  7  1  0  0  0  0
 10  3  1  0  0  0  0
 11  3  1  0  0  0  0
 12 11  1  0  0  0  0
 13 12  1  0  0  0  0
 14 13  1  0  0  0  0
 15 14  1  0  0  0  0
 16 15  1  0  0  0  0
 17 18  1  0  0  0  0
 18 19  2  0  0  0  0
 20 18  1  0  0  0  0
 21 20  1  0  0  0  0
 22 21  1  0  0  0  0
 23 28  1  0  0  0  0
 24 23  1  0  0  0  0
 25 24  1  0  0  0  0
 26 28  1  0  0  0  0
 27 24  2  0  0  0  0
 27 26  1  0  0  0  0
 28 22  1  1  0  0  0
 29 27  1  0  0  0  0
 30  1  1  0  0  0  0
 31 35  1  0  0  0  0
 32 31  2  0  0  0  0
 32 37  1  0  0  0  0
 33 30  1  0  0  0  0
 35 34  1  0  0  0  0
 35 33  2  0  0  0  0
 36 33  1  0  0  0  0
 37 36  2  0  0  0  0
 38 40  1  0  0  0  0
 40 37  1  0  0  0  0
 40 39  1  0  0  0  0
 41 40  1  0  0  0  0
 42 43  1  0  0  0  0
 43 31  1  0  0  0  0
M  END
>  <MODEL>
4

>  <REMARK>
 VINA RESULT:      -6.1      3.568      6.661
  Name = 
  15 active torsions:
  status: ('A' for Active; 'I' for Inactive)
    1  A    between atoms: O_3  and  C_7
    2  A    between atoms: O_3  and  C_29
    3  A    between atoms: C_4  and  C_30
    4  A    between atoms: C_7  and  C_31
    5  A    between atoms: N_8  and  O_20
    6  A    between atoms: C_11  and  C_19
    7  A    between atoms: C_11  and  C_38
    8  A    between atoms: C_11  and  N_41
    9  A    between atoms: C_12  and  N_41
   10  A    between atoms: C_14  and  C_38
   11  A    between atoms: C_16  and  C_24
   12  A    between atoms: C_16  and  N_28
   13  A    between atoms: O_20  and  C_31
   14  A    between atoms: N_28  and  N_42
   15  A    between atoms: C_39  and  C_43
                            x       y       z     vdW  Elec       q    Type
                         _______ _______ _______ _____ _____    ______ ____

>  <TORSDO>
F 15

$$$$
=
 OpenBabel11042422223D

 43 46  0  0  1  0  0  0  0  0999 V2000
  160.5450  213.4190  149.3540 C   0  0  2  0  0  3  0  0  0  0  0  0
  157.2890  213.4180  148.8030 O   0  0  0  0  0  1  0  0  0  0  0  0
  158.9550  212.6110  144.4760 N   0  0  0  0  0  0  0  0  0  0  0  0
  158.2400  212.2330  145.6890 C   0  0  0  0  0  2  0  0  0  0  0  0
  160.2050  214.4530  147.0680 C   0  0  0  0  0  2  0  0  0  0  0  0
  159.5480  214.0430  148.3630 C   0  0  1  0  0  3  0  0  0  0  0  0
  158.0500  213.4660  146.5400 C   0  0  2  0  0  3  0  0  0  0  0  0
  159.0840  214.4490  146.0500 C   0  0  2  0  0  3  0  0  0  0  0  0
  158.3850  213.1410  147.9870 C   0  0  2  0  0  3  0  0  0  0  0  0
  159.5890  213.9010  144.7330 C   0  0  0  0  0  2  0  0  0  0  0  0
  159.9570  211.7120  144.3160 O   0  0  0  0  0  0  0  0  0  0  0  0
  160.8540  212.3120  143.4240 C   0  0  0  0  0  2  0  0  0  0  0  0
  160.5660  211.8340  142.0140 C   0  0  0  0  0  2  0  0  0  0  0  0
  160.8040  212.8650  141.1060 O   0  0  0  0  0  0  0  0  0  0  0  0
  161.1900  212.2170  139.9330 C   0  0  0  0  0  2  0  0  0  0  0  0
  160.4550  210.8960  139.8220 C   0  0  0  0  0  1  0  0  0  0  0  0
  160.6590  211.8940  149.2770 C   0  0  0  0  0  2  0  0  0  0  0  0
  161.8950  211.4470  148.5620 C   0  0  0  0  0  0  0  0  0  0  0  0
  162.5450  212.2810  147.8810 O   0  0  0  0  0  0  0  0  0  0  0  0
  162.3510  210.0940  148.6330 N   0  0  0  0  0  2  0  0  0  0  0  0
  161.6050  209.0880  149.2630 N   0  0  0  0  0  2  0  0  0  0  0  0
  161.4050  208.0190  148.2920 C   0  0  0  0  0  2  0  0  0  0  0  0
  161.6580  205.3350  147.6300 S   0  0  0  0  0  0  0  0  0  0  0  0
  161.2030  204.3290  149.0270 C   0  0  0  0  0  0  0  0  0  0  0  0
  160.8310  202.8940  148.8510 C   0  0  0  0  0  1  0  0  0  0  0  0
  161.6380  206.3680  150.1870 C   0  0  0  0  0  2  0  0  0  0  0  0
  161.2230  204.9410  150.2050 C   0  0  0  0  0  0  0  0  0  0  0  0
  162.0530  206.7160  148.7600 C   0  0  2  0  0  3  0  0  0  0  0  0
  160.8200  204.2790  151.4770 C   0  0  0  0  0  1  0  0  0  0  0  0
  160.1870  213.7990  150.7120 N   0  0  0  0  0  2  0  0  0  0  0  0
  158.0750  212.2210  153.3680 C   0  0  0  0  0  0  0  0  0  0  0  0
  158.7900  211.0450  153.6080 C   0  0  0  0  0  3  0  0  0  0  0  0
  159.7190  212.8660  151.6920 C   0  0  0  0  0  0  0  0  0  0  0  0
  157.8150  214.3410  152.1520 N   0  0  0  0  0  1  0  0  0  0  0  0
  158.5360  213.1370  152.4040 C   0  0  0  0  0  0  0  0  0  0  0  0
  160.4290  211.6860  151.9520 C   0  0  0  0  0  3  0  0  0  0  0  0
  159.9720  210.7690  152.9050 C   0  0  0  0  0  0  0  0  0  0  0  0
  162.0830  209.7630  153.2030 F   0  0  0  0  0  0  0  0  0  0  0  0
  160.4580  208.5780  152.1850 F   0  0  0  0  0  0  0  0  0  0  0  0
  160.7260  209.4980  153.1810 C   0  0  0  0  0  0  0  0  0  0  0  0
  160.3580  208.9550  154.4020 F   0  0  0  0  0  0  0  0  0  0  0  0
  157.0020  212.0860  155.5930 C   0  0  0  0  0  1  0  0  0  0  0  0
  156.8170  212.4680  154.1340 C   0  0  0  0  0  2  0  0  0  0  0  0
  1 17  1  1  0  0  0
  1 30  1  0  0  0  0
  3 10  1  0  0  0  0
  3  4  1  0  0  0  0
  5  6  1  0  0  0  0
  6  1  1  1  0  0  0
  7  4  1  6  0  0  0
  7  9  1  0  0  0  0
  8 10  1  6  0  0  0
  8  7  1  0  0  0  0
  8  5  1  0  0  0  0
  9  6  1  0  0  0  0
  9  2  1  1  0  0  0
 11  3  1  0  0  0  0
 12 11  1  0  0  0  0
 13 12  1  0  0  0  0
 14 13  1  0  0  0  0
 15 14  1  0  0  0  0
 16 15  1  0  0  0  0
 18 20  1  0  0  0  0
 18 17  1  0  0  0  0
 19 18  2  0  0  0  0
 20 21  1  0  0  0  0
 22 21  1  0  0  0  0
 23 28  1  0  0  0  0
 23 24  1  0  0  0  0
 24 27  2  0  0  0  0
 25 24  1  0  0  0  0
 26 27  1  0  0  0  0
 27 29  1  0  0  0  0
 28 22  1  6  0  0  0
 28 26  1  0  0  0  0
 30 33  1  0  0  0  0
 31 32  1  0  0  0  0
 31 43  1  0  0  0  0
 33 36  2  0  0  0  0
 33 35  1  0  0  0  0
 34 35  1  0  0  0  0
 35 31  2  0  0  0  0
 36 37  1  0  0  0  0
 37 40  1  0  0  0  0
 37 32  2  0  0  0  0
 39 40  1  0  0  0  0
 40 38  1  0  0  0  0
 40 41  1  0  0  0  0
 43 42  1  0  0  0  0
M  END
>  <MODEL>
5

>  <REMARK>
 VINA RESULT:      -5.7      3.994      9.321
  Name = 
  15 active torsions:
  status: ('A' for Active; 'I' for Inactive)
    1  A    between atoms: O_3  and  C_7
    2  A    between atoms: O_3  and  C_29
    3  A    between atoms: C_4  and  C_30
    4  A    between atoms: C_7  and  C_31
    5  A    between atoms: N_8  and  O_20
    6  A    between atoms: C_11  and  C_19
    7  A    between atoms: C_11  and  C_38
    8  A    between atoms: C_11  and  N_41
    9  A    between atoms: C_12  and  N_41
   10  A    between atoms: C_14  and  C_38
   11  A    between atoms: C_16  and  C_24
   12  A    between atoms: C_16  and  N_28
   13  A    between atoms: O_20  and  C_31
   14  A    between atoms: N_28  and  N_42
   15  A    between atoms: C_39  and  C_43
                            x       y       z     vdW  Elec       q    Type
                         _______ _______ _______ _____ _____    ______ ____

>  <TORSDO>
F 15

$$$$
=
 OpenBabel11042422223D

 43 46  0  0  1  0  0  0  0  0999 V2000
  161.7220  210.5310  150.3040 C   0  0  2  0  0  3  0  0  0  0  0  0
  160.6660  213.6530  150.5230 O   0  0  0  0  0  1  0  0  0  0  0  0
  160.7060  213.0190  145.8600 N   0  0  0  0  0  0  0  0  0  0  0  0
  160.0430  213.2380  147.1410 C   0  0  0  0  0  2  0  0  0  0  0  0
  162.7100  211.7630  148.3250 C   0  0  0  0  0  2  0  0  0  0  0  0
  162.0320  211.8960  149.6670 C   0  0  1  0  0  3  0  0  0  0  0  0
  161.0920  213.5680  148.1760 C   0  0  2  0  0  3  0  0  0  0  0  0
  162.3900  213.0540  147.6020 C   0  0  2  0  0  3  0  0  0  0  0  0
  160.8170  212.7810  149.4470 C   0  0  2  0  0  3  0  0  0  0  0  0
  162.1160  212.7700  146.1410 C   0  0  0  0  0  2  0  0  0  0  0  0
  160.2020  211.8680  145.3500 O   0  0  0  0  0  0  0  0  0  0  0  0
  159.2540  212.2660  144.4010 C   0  0  0  0  0  2  0  0  0  0  0  0
  159.9520  212.6200  143.1010 C   0  0  0  0  0  2  0  0  0  0  0  0
  160.2830  211.4570  142.4090 O   0  0  0  0  0  0  0  0  0  0  0  0
  161.3840  211.8140  141.6310 C   0  0  0  0  0  2  0  0  0  0  0  0
  162.3750  212.5810  142.4840 C   0  0  0  0  0  1  0  0  0  0  0  0
  161.6010  209.3720  149.3130 C   0  0  0  0  0  2  0  0  0  0  0  0
  162.0900  208.0770  149.8830 C   0  0  0  0  0  0  0  0  0  0  0  0
  163.0730  208.0850  150.6670 O   0  0  0  0  0  0  0  0  0  0  0  0
  161.4660  206.8340  149.5550 N   0  0  0  0  0  2  0  0  0  0  0  0
  160.4540  206.7390  148.5890 N   0  0  0  0  0  2  0  0  0  0  0  0
  161.0660  206.2500  147.3600 C   0  0  0  0  0  2  0  0  0  0  0  0
  161.6420  203.8600  146.0720 S   0  0  0  0  0  0  0  0  0  0  0  0
  161.0580  202.4950  147.0550 C   0  0  0  0  0  0  0  0  0  0  0  0
  160.8390  201.1490  146.4470 C   0  0  0  0  0  1  0  0  0  0  0  0
  161.1340  204.1560  148.7660 C   0  0  0  0  0  2  0  0  0  0  0  0
  160.8400  202.7640  148.3370 C   0  0  0  0  0  0  0  0  0  0  0  0
  161.7380  204.8940  147.5750 C   0  0  2  0  0  3  0  0  0  0  0  0
  160.2980  201.7650  149.3010 C   0  0  0  0  0  1  0  0  0  0  0  0
  160.4930  210.6230  151.0790 N   0  0  0  0  0  2  0  0  0  0  0  0
  159.8550  210.9470  154.7530 C   0  0  0  0  0  0  0  0  0  0  0  0
  160.2570  209.6870  155.2020 C   0  0  0  0  0  3  0  0  0  0  0  0
  160.4170  210.3030  152.4730 C   0  0  0  0  0  0  0  0  0  0  0  0
  159.5260  212.5440  152.9130 N   0  0  0  0  0  1  0  0  0  0  0  0
  159.9310  211.2600  153.3820 C   0  0  0  0  0  0  0  0  0  0  0  0
  160.8230  209.0460  152.9410 C   0  0  0  0  0  3  0  0  0  0  0  0
  160.7450  208.7290  154.3020 C   0  0  0  0  0  0  0  0  0  0  0  0
  161.9510  207.5360  155.9410 F   0  0  0  0  0  0  0  0  0  0  0  0
  161.9150  206.7370  153.8340 F   0  0  0  0  0  0  0  0  0  0  0  0
  161.1730  207.3790  154.8080 C   0  0  0  0  0  0  0  0  0  0  0  0
  160.0760  206.5950  155.1250 F   0  0  0  0  0  0  0  0  0  0  0  0
  160.4680  212.4810  156.5940 C   0  0  0  0  0  1  0  0  0  0  0  0
  159.3330  211.9340  155.7460 C   0  0  0  0  0  2  0  0  0  0  0  0
  1 17  1  6  0  0  0
  1 30  1  0  0  0  0
  3 10  1  0  0  0  0
  3  4  1  0  0  0  0
  5  6  1  0  0  0  0
  6  1  1  6  0  0  0
  7  4  1  6  0  0  0
  7  9  1  0  0  0  0
  8 10  1  6  0  0  0
  8  7  1  0  0  0  0
  8  5  1  0  0  0  0
  9  6  1  0  0  0  0
  9  2  1  1  0  0  0
 11  3  1  0  0  0  0
 12 11  1  0  0  0  0
 13 12  1  0  0  0  0
 14 13  1  0  0  0  0
 15 14  1  0  0  0  0
 15 16  1  0  0  0  0
 17 18  1  0  0  0  0
 18 19  2  0  0  0  0
 20 18  1  0  0  0  0
 21 20  1  0  0  0  0
 22 21  1  0  0  0  0
 23 24  1  0  0  0  0
 23 28  1  0  0  0  0
 24 27  2  0  0  0  0
 25 24  1  0  0  0  0
 27 26  1  0  0  0  0
 27 29  1  0  0  0  0
 28 22  1  6  0  0  0
 28 26  1  0  0  0  0
 30 33  1  0  0  0  0
 31 32  1  0  0  0  0
 31 43  1  0  0  0  0
 33 36  2  0  0  0  0
 33 35  1  0  0  0  0
 34 35  1  0  0  0  0
 35 31  2  0  0  0  0
 36 37  1  0  0  0  0
 37 40  1  0  0  0  0
 37 32  2  0  0  0  0
 39 40  1  0  0  0  0
 40 41  1  0  0  0  0
 40 38  1  0  0  0  0
 43 42  1  0  0  0  0
M  END
>  <MODEL>
6

>  <REMARK>
 VINA RESULT:      -5.7      3.858      8.883
  Name = 
  15 active torsions:
  status: ('A' for Active; 'I' for Inactive)
    1  A    between atoms: O_3  and  C_7
    2  A    between atoms: O_3  and  C_29
    3  A    between atoms: C_4  and  C_30
    4  A    between atoms: C_7  and  C_31
    5  A    between atoms: N_8  and  O_20
    6  A    between atoms: C_11  and  C_19
    7  A    between atoms: C_11  and  C_38
    8  A    between atoms: C_11  and  N_41
    9  A    between atoms: C_12  and  N_41
   10  A    between atoms: C_14  and  C_38
   11  A    between atoms: C_16  and  C_24
   12  A    between atoms: C_16  and  N_28
   13  A    between atoms: O_20  and  C_31
   14  A    between atoms: N_28  and  N_42
   15  A    between atoms: C_39  and  C_43
                            x       y       z     vdW  Elec       q    Type
                         _______ _______ _______ _____ _____    ______ ____

>  <TORSDO>
F 15

$$$$
=
 OpenBabel11042422223D

 43 46  0  0  1  0  0  0  0  0999 V2000
  160.4850  211.7950  151.6690 C   0  0  2  0  0  3  0  0  0  0  0  0
  157.5610  213.3310  151.6790 O   0  0  0  0  0  1  0  0  0  0  0  0
  158.6930  213.5380  147.1150 N   0  0  0  0  0  0  0  0  0  0  0  0
  157.8870  213.0760  148.2390 C   0  0  0  0  0  2  0  0  0  0  0  0
  160.6320  213.6280  149.9280 C   0  0  0  0  0  2  0  0  0  0  0  0
  159.8630  213.0860  151.1080 C   0  0  1  0  0  3  0  0  0  0  0  0
  158.2610  213.8780  149.4630 C   0  0  2  0  0  3  0  0  0  0  0  0
  159.6230  214.4530  149.1580 C   0  0  2  0  0  3  0  0  0  0  0  0
  158.4210  212.9450  150.6520 C   0  0  2  0  0  3  0  0  0  0  0  0
  159.8310  214.2640  147.6710 C   0  0  0  0  0  2  0  0  0  0  0  0
  159.1960  212.4310  146.5140 O   0  0  0  0  0  0  0  0  0  0  0  0
  160.3130  212.8750  145.7960 C   0  0  0  0  0  2  0  0  0  0  0  0
  159.9790  212.9340  144.3180 C   0  0  0  0  0  2  0  0  0  0  0  0
  160.9090  212.1940  143.5910 O   0  0  0  0  0  0  0  0  0  0  0  0
  160.2770  211.9330  142.3760 C   0  0  0  0  0  2  0  0  0  0  0  0
  161.3140  211.8770  141.2710 C   0  0  0  0  0  1  0  0  0  0  0  0
  161.0440  210.8400  150.6120 C   0  0  0  0  0  2  0  0  0  0  0  0
  162.0170  209.8580  151.1850 C   0  0  0  0  0  0  0  0  0  0  0  0
  162.5550  210.1050  152.2940 O   0  0  0  0  0  0  0  0  0  0  0  0
  162.3520  208.6500  150.4970 N   0  0  0  0  0  2  0  0  0  0  0  0
  161.8920  208.3780  149.2000 N   0  0  0  0  0  2  0  0  0  0  0  0
  162.3020  207.0200  148.8670 C   0  0  0  0  0  2  0  0  0  0  0  0
  161.3480  205.4350  150.9360 S   0  0  0  0  0  0  0  0  0  0  0  0
  161.2060  203.7490  150.3810 C   0  0  0  0  0  0  0  0  0  0  0  0
  161.1360  202.6220  151.3580 C   0  0  0  0  0  1  0  0  0  0  0  0
  161.2270  204.8210  148.2500 C   0  0  0  0  0  2  0  0  0  0  0  0
  161.1660  203.5800  149.0640 C   0  0  0  0  0  0  0  0  0  0  0  0
  161.2070  206.0100  149.2070 C   0  0  2  0  0  3  0  0  0  0  0  0
  161.1050  202.2410  148.4140 C   0  0  0  0  0  1  0  0  0  0  0  0
  159.5000  211.0890  152.4740 N   0  0  0  0  0  2  0  0  0  0  0  0
  159.5760  211.4700  156.1960 C   0  0  0  0  0  0  0  0  0  0  0  0
  160.0440  210.2110  156.5800 C   0  0  0  0  0  3  0  0  0  0  0  0
  159.6870  210.7890  153.8610 C   0  0  0  0  0  0  0  0  0  0  0  0
  158.9170  213.0460  154.4290 N   0  0  0  0  0  1  0  0  0  0  0  0
  159.3920  211.7630  154.8320 C   0  0  0  0  0  0  0  0  0  0  0  0
  160.1640  209.5340  154.2630 C   0  0  0  0  0  3  0  0  0  0  0  0
  160.3430  209.2350  155.6190 C   0  0  0  0  0  0  0  0  0  0  0  0
  161.1220  207.1150  154.9400 F   0  0  0  0  0  0  0  0  0  0  0  0
  159.8790  207.2580  156.8150 F   0  0  0  0  0  0  0  0  0  0  0  0
  160.8470  207.8870  156.0540 C   0  0  0  0  0  0  0  0  0  0  0  0
  162.0010  208.0070  156.8100 F   0  0  0  0  0  0  0  0  0  0  0  0
  160.2700  213.6110  157.2220 C   0  0  0  0  0  1  0  0  0  0  0  0
  159.2610  212.4760  157.2550 C   0  0  0  0  0  2  0  0  0  0  0  0
  1 17  1  6  0  0  0
  1 30  1  0  0  0  0
  3 10  1  0  0  0  0
  3  4  1  0  0  0  0
  5  6  1  0  0  0  0
  6  1  1  6  0  0  0
  7  4  1  6  0  0  0
  7  9  1  0  0  0  0
  8 10  1  6  0  0  0
  8  7  1  0  0  0  0
  8  5  1  0  0  0  0
  9  6  1  0  0  0  0
  9  2  1  1  0  0  0
 11  3  1  0  0  0  0
 12 11  1  0  0  0  0
 13 12  1  0  0  0  0
 14 13  1  0  0  0  0
 15 14  1  0  0  0  0
 16 15  1  0  0  0  0
 17 18  1  0  0  0  0
 18 19  2  0  0  0  0
 20 18  1  0  0  0  0
 21 20  1  0  0  0  0
 22 21  1  0  0  0  0
 24 23  1  0  0  0  0
 24 25  1  0  0  0  0
 26 27  1  0  0  0  0
 26 28  1  0  0  0  0
 27 24  2  0  0  0  0
 28 22  1  6  0  0  0
 28 23  1  0  0  0  0
 29 27  1  0  0  0  0
 30 33  1  0  0  0  0
 31 32  1  0  0  0  0
 31 43  1  0  0  0  0
 33 36  2  0  0  0  0
 33 35  1  0  0  0  0
 34 35  1  0  0  0  0
 35 31  2  0  0  0  0
 36 37  1  0  0  0  0
 37 40  1  0  0  0  0
 37 32  2  0  0  0  0
 38 40  1  0  0  0  0
 40 41  1  0  0  0  0
 40 39  1  0  0  0  0
 42 43  1  0  0  0  0
M  END
>  <MODEL>
7

>  <REMARK>
 VINA RESULT:      -5.6      4.010      8.939
  Name = 
  15 active torsions:
  status: ('A' for Active; 'I' for Inactive)
    1  A    between atoms: O_3  and  C_7
    2  A    between atoms: O_3  and  C_29
    3  A    between atoms: C_4  and  C_30
    4  A    between atoms: C_7  and  C_31
    5  A    between atoms: N_8  and  O_20
    6  A    between atoms: C_11  and  C_19
    7  A    between atoms: C_11  and  C_38
    8  A    between atoms: C_11  and  N_41
    9  A    between atoms: C_12  and  N_41
   10  A    between atoms: C_14  and  C_38
   11  A    between atoms: C_16  and  C_24
   12  A    between atoms: C_16  and  N_28
   13  A    between atoms: O_20  and  C_31
   14  A    between atoms: N_28  and  N_42
   15  A    between atoms: C_39  and  C_43
                            x       y       z     vdW  Elec       q    Type
                         _______ _______ _______ _____ _____    ______ ____

>  <TORSDO>
F 15

$$$$
=
 OpenBabel11042422223D

 43 46  0  0  1  0  0  0  0  0999 V2000
  161.7390  209.2130  151.6110 C   0  0  2  0  0  3  0  0  0  0  0  0
  160.7930  207.0910  153.9580 O   0  0  0  0  0  1  0  0  0  0  0  0
  160.0730  211.2170  156.1040 N   0  0  0  0  0  0  0  0  0  0  0  0
  159.6290  209.9660  155.5010 C   0  0  0  0  0  2  0  0  0  0  0  0
  162.4220  210.2390  153.8220 C   0  0  0  0  0  2  0  0  0  0  0  0
  161.9700  208.9850  153.1140 C   0  0  1  0  0  3  0  0  0  0  0  0
  160.8360  209.0910  155.2600 C   0  0  2  0  0  3  0  0  0  0  0  0
  162.0150  210.0330  155.2660 C   0  0  2  0  0  3  0  0  0  0  0  0
  160.7530  208.4810  153.8700 C   0  0  2  0  0  3  0  0  0  0  0  0
  161.5060  211.3340  155.8470 C   0  0  0  0  0  2  0  0  0  0  0  0
  159.4730  212.2190  155.4140 O   0  0  0  0  0  0  0  0  0  0  0  0
  158.5680  212.7960  156.3130 C   0  0  0  0  0  2  0  0  0  0  0  0
  157.2840  213.1490  155.5870 C   0  0  0  0  0  2  0  0  0  0  0  0
  156.8430  212.0550  154.8430 O   0  0  0  0  0  0  0  0  0  0  0  0
  156.1760  211.2500  155.7650 C   0  0  0  0  0  2  0  0  0  0  0  0
  155.2520  210.3010  155.0280 C   0  0  0  0  0  1  0  0  0  0  0  0
  162.3190  208.1280  150.7000 C   0  0  0  0  0  2  0  0  0  0  0  0
  161.2870  207.1430  150.2520 C   0  0  0  0  0  0  0  0  0  0  0  0
  160.3950  206.7800  151.0610 O   0  0  0  0  0  0  0  0  0  0  0  0
  161.2940  206.6030  148.9280 N   0  0  0  0  0  2  0  0  0  0  0  0
  162.3330  206.8630  148.0230 N   0  0  0  0  0  2  0  0  0  0  0  0
  161.9740  206.2390  146.7550 C   0  0  0  0  0  2  0  0  0  0  0  0
  161.7240  203.9280  145.2380 S   0  0  0  0  0  0  0  0  0  0  0  0
  161.0820  202.6130  146.2520 C   0  0  0  0  0  0  0  0  0  0  0  0
  160.4490  201.4080  145.6380 C   0  0  0  0  0  1  0  0  0  0  0  0
  161.8840  204.0390  147.9880 C   0  0  0  0  0  2  0  0  0  0  0  0
  161.2090  202.7860  147.5630 C   0  0  0  0  0  0  0  0  0  0  0  0
  162.3640  204.7620  146.7330 C   0  0  2  0  0  3  0  0  0  0  0  0
  160.6830  201.8210  148.5690 C   0  0  0  0  0  1  0  0  0  0  0  0
  162.2890  210.5030  151.2220 N   0  0  0  0  0  2  0  0  0  0  0  0
  159.7280  213.0450  150.2280 C   0  0  0  0  0  0  0  0  0  0  0  0
  160.1510  213.3500  148.9320 C   0  0  0  0  0  3  0  0  0  0  0  0
  161.5670  211.4640  150.4440 C   0  0  0  0  0  0  0  0  0  0  0  0
  160.0160  211.7800  152.3160 N   0  0  0  0  0  1  0  0  0  0  0  0
  160.4390  212.1010  150.9930 C   0  0  0  0  0  0  0  0  0  0  0  0
  161.9720  211.7750  149.1390 C   0  0  0  0  0  3  0  0  0  0  0  0
  161.2720  212.7180  148.3770 C   0  0  0  0  0  0  0  0  0  0  0  0
  161.6150  214.4280  146.7900 F   0  0  0  0  0  0  0  0  0  0  0  0
  160.8840  212.4210  146.0710 F   0  0  0  0  0  0  0  0  0  0  0  0
  161.7070  213.0610  146.9790 C   0  0  0  0  0  0  0  0  0  0  0  0
  163.0150  212.6660  146.7530 F   0  0  0  0  0  0  0  0  0  0  0  0
  157.3460  213.5910  149.8480 C   0  0  0  0  0  1  0  0  0  0  0  0
  158.5340  213.7500  150.7830 C   0  0  0  0  0  2  0  0  0  0  0  0
  1 17  1  6  0  0  0
  4  3  1  0  0  0  0
  6  1  1  6  0  0  0
  6  5  1  0  0  0  0
  6  9  1  0  0  0  0
  7  8  1  0  0  0  0
  7  4  1  6  0  0  0
  8  5  1  6  0  0  0
  8 10  1  0  0  0  0
  9  2  1  1  0  0  0
  9  7  1  0  0  0  0
 10  3  1  0  0  0  0
 11  3  1  0  0  0  0
 11 12  1  0  0  0  0
 13 12  1  0  0  0  0
 14 13  1  0  0  0  0
 14 15  1  0  0  0  0
 16 15  1  0  0  0  0
 18 17  1  0  0  0  0
 18 19  2  0  0  0  0
 20 18  1  0  0  0  0
 21 20  1  0  0  0  0
 22 21  1  0  0  0  0
 23 24  1  0  0  0  0
 23 28  1  0  0  0  0
 24 27  2  0  0  0  0
 25 24  1  0  0  0  0
 27 26  1  0  0  0  0
 27 29  1  0  0  0  0
 28 22  1  1  0  0  0
 28 26  1  0  0  0  0
 30  1  1  0  0  0  0
 31 43  1  0  0  0  0
 31 35  1  0  0  0  0
 32 31  2  0  0  0  0
 33 35  2  0  0  0  0
 33 30  1  0  0  0  0
 35 34  1  0  0  0  0
 36 33  1  0  0  0  0
 37 32  1  0  0  0  0
 37 36  2  0  0  0  0
 38 40  1  0  0  0  0
 39 40  1  0  0  0  0
 40 37  1  0  0  0  0
 41 40  1  0  0  0  0
 42 43  1  0  0  0  0
M  END
>  <MODEL>
8

>  <REMARK>
 VINA RESULT:      -5.5      3.166      6.965
  Name = 
  15 active torsions:
  status: ('A' for Active; 'I' for Inactive)
    1  A    between atoms: O_3  and  C_7
    2  A    between atoms: O_3  and  C_29
    3  A    between atoms: C_4  and  C_30
    4  A    between atoms: C_7  and  C_31
    5  A    between atoms: N_8  and  O_20
    6  A    between atoms: C_11  and  C_19
    7  A    between atoms: C_11  and  C_38
    8  A    between atoms: C_11  and  N_41
    9  A    between atoms: C_12  and  N_41
   10  A    between atoms: C_14  and  C_38
   11  A    between atoms: C_16  and  C_24
   12  A    between atoms: C_16  and  N_28
   13  A    between atoms: O_20  and  C_31
   14  A    between atoms: N_28  and  N_42
   15  A    between atoms: C_39  and  C_43
                            x       y       z     vdW  Elec       q    Type
                         _______ _______ _______ _____ _____    ______ ____

>  <TORSDO>
F 15

$$$$
=
 OpenBabel11042422223D

 43 46  0  0  1  0  0  0  0  0999 V2000
  160.2020  212.0710  151.3490 C   0  0  2  0  0  3  0  0  0  0  0  0
  162.3220  212.1650  148.8190 O   0  0  0  0  0  1  0  0  0  0  0  0
  161.7310  207.5270  149.3520 N   0  0  0  0  0  0  0  0  0  0  0  0
  161.5920  208.7840  148.6260 C   0  0  0  0  0  2  0  0  0  0  0  0
  161.7370  210.0780  151.6260 C   0  0  0  0  0  2  0  0  0  0  0  0
  161.5190  211.3980  150.9290 C   0  0  1  0  0  3  0  0  0  0  0  0
  162.4350  209.8320  149.3130 C   0  0  2  0  0  3  0  0  0  0  0  0
  162.6620  209.3060  150.7090 C   0  0  2  0  0  3  0  0  0  0  0  0
  161.6390  211.1210  149.4400 C   0  0  2  0  0  3  0  0  0  0  0  0
  162.2560  207.8490  150.6760 C   0  0  0  0  0  2  0  0  0  0  0  0
  160.4780  207.0430  149.5390 O   0  0  0  0  0  0  0  0  0  0  0  0
  160.6260  205.6530  149.6150 C   0  0  0  0  0  2  0  0  0  0  0  0
  161.1630  205.1250  148.2980 C   0  0  0  0  0  2  0  0  0  0  0  0
  161.4570  203.7680  148.4150 O   0  0  0  0  0  0  0  0  0  0  0  0
  160.7150  203.3420  149.5160 C   0  0  0  0  0  2  0  0  0  0  0  0
  160.8400  201.8380  149.6550 C   0  0  0  0  0  1  0  0  0  0  0  0
  159.8330  213.3190  150.5430 C   0  0  0  0  0  2  0  0  0  0  0  0
  158.4800  213.2140  149.9130 C   0  0  0  0  0  0  0  0  0  0  0  0
  157.4760  213.0170  150.6450 O   0  0  0  0  0  0  0  0  0  0  0  0
  158.3030  213.3310  148.4990 N   0  0  0  0  0  2  0  0  0  0  0  0
  159.3890  213.4180  147.6170 N   0  0  0  0  0  2  0  0  0  0  0  0
  158.9360  212.9390  146.3160 C   0  0  0  0  0  2  0  0  0  0  0  0
  159.5210  212.6770  143.6160 S   0  0  0  0  0  0  0  0  0  0  0  0
  161.2840  212.7260  143.3780 C   0  0  0  0  0  0  0  0  0  0  0  0
  161.9070  212.1930  142.1300 C   0  0  0  0  0  1  0  0  0  0  0  0
  161.1880  213.7590  145.5260 C   0  0  0  0  0  2  0  0  0  0  0  0
  161.9820  213.2630  144.3720 C   0  0  0  0  0  0  0  0  0  0  0  0
  159.7110  213.6030  145.1790 C   0  0  2  0  0  3  0  0  0  0  0  0
  163.4700  213.3400  144.3780 C   0  0  0  0  0  1  0  0  0  0  0  0
  160.2610  212.4190  152.7610 N   0  0  0  0  0  2  0  0  0  0  0  0
  159.4190  210.2520  155.6950 C   0  0  0  0  0  0  0  0  0  0  0  0
  158.0320  210.4150  155.7520 C   0  0  0  0  0  3  0  0  0  0  0  0
  159.5040  211.7410  153.7700 C   0  0  0  0  0  0  0  0  0  0  0  0
  161.5770  210.7590  154.6330 N   0  0  0  0  0  1  0  0  0  0  0  0
  160.1620  210.9200  154.7030 C   0  0  0  0  0  0  0  0  0  0  0  0
  158.1110  211.8860  153.8370 C   0  0  0  0  0  3  0  0  0  0  0  0
  157.3680  211.2300  154.8250 C   0  0  0  0  0  0  0  0  0  0  0  0
  155.2630  210.3070  154.2980 F   0  0  0  0  0  0  0  0  0  0  0  0
  155.5000  212.5480  154.2520 F   0  0  0  0  0  0  0  0  0  0  0  0
  155.8760  211.3890  154.9050 C   0  0  0  0  0  0  0  0  0  0  0  0
  155.4520  211.4600  156.2220 F   0  0  0  0  0  0  0  0  0  0  0  0
  160.0540  207.9300  156.2630 C   0  0  0  0  0  1  0  0  0  0  0  0
  160.0860  209.3820  156.7090 C   0  0  0  0  0  2  0  0  0  0  0  0
  1 17  1  6  0  0  0
  1 30  1  0  0  0  0
  3 11  1  0  0  0  0
  3 10  1  0  0  0  0
  4  3  1  0  0  0  0
  6  1  1  6  0  0  0
  6  5  1  0  0  0  0
  7  4  1  6  0  0  0
  7  9  1  0  0  0  0
  7  8  1  0  0  0  0
  8 10  1  6  0  0  0
  8  5  1  0  0  0  0
  9  2  1  6  0  0  0
  9  6  1  0  0  0  0
 11 12  1  0  0  0  0
 13 14  1  0  0  0  0
 13 12  1  0  0  0  0
 14 15  1  0  0  0  0
 15 16  1  0  0  0  0
 18 17  1  0  0  0  0
 18 19  2  0  0  0  0
 20 18  1  0  0  0  0
 21 20  1  0  0  0  0
 22 21  1  0  0  0  0
 23 28  1  0  0  0  0
 24 23  1  0  0  0  0
 24 27  2  0  0  0  0
 25 24  1  0  0  0  0
 27 29  1  0  0  0  0
 27 26  1  0  0  0  0
 28 26  1  0  0  0  0
 28 22  1  1  0  0  0
 30 33  1  0  0  0  0
 31 32  1  0  0  0  0
 31 43  1  0  0  0  0
 33 36  2  0  0  0  0
 33 35  1  0  0  0  0
 34 35  1  0  0  0  0
 35 31  2  0  0  0  0
 36 37  1  0  0  0  0
 37 40  1  0  0  0  0
 37 32  2  0  0  0  0
 38 40  1  0  0  0  0
 39 40  1  0  0  0  0
 40 41  1  0  0  0  0
 42 43  1  0  0  0  0
M  END
>  <MODEL>
9

>  <REMARK>
 VINA RESULT:      -5.5      4.099      8.003
  Name = 
  15 active torsions:
  status: ('A' for Active; 'I' for Inactive)
    1  A    between atoms: O_3  and  C_7
    2  A    between atoms: O_3  and  C_29
    3  A    between atoms: C_4  and  C_30
    4  A    between atoms: C_7  and  C_31
    5  A    between atoms: N_8  and  O_20
    6  A    between atoms: C_11  and  C_19
    7  A    between atoms: C_11  and  C_38
    8  A    between atoms: C_11  and  N_41
    9  A    between atoms: C_12  and  N_41
   10  A    between atoms: C_14  and  C_38
   11  A    between atoms: C_16  and  C_24
   12  A    between atoms: C_16  and  N_28
   13  A    between atoms: O_20  and  C_31
   14  A    between atoms: N_28  and  N_42
   15  A    between atoms: C_39  and  C_43
                            x       y       z     vdW  Elec       q    Type
                         _______ _______ _______ _____ _____    ______ ____

>  <TORSDO>
F 15

$$$$
