=
 OpenBabel11052411333D

 66 71  0  0  1  0  0  0  0  0999 V2000
  161.1300  208.0400  152.8400 C   0  0  1  0  0  3  0  0  0  0  0  0
  161.4550  206.5900  153.0870 C   0  0  0  0  0  0  0  0  0  0  0  0
  160.7200  205.8880  153.7610 O   0  0  0  0  0  0  0  0  0  0  0  0
  162.7260  206.0100  152.5500 C   0  0  0  0  0  2  0  0  0  0  0  0
  162.4400  204.7710  151.8450 N   0  0  0  0  0  2  0  0  0  0  0  0
  162.7280  204.9830  150.4290 C   0  0  0  0  0  2  0  0  0  0  0  0
  161.6390  203.1800  148.2020 N   0  0  0  0  0  0  0  0  0  0  0  0
  161.2940  203.2490  145.8490 C   0  0  0  0  0  3  0  0  0  0  0  0
  160.1710  203.3820  151.0140 C   0  0  0  0  0  2  0  0  0  0  0  0
  161.1740  204.6450  145.9090 C   0  0  0  0  0  0  0  0  0  0  0  0
  160.1740  204.8040  150.4520 C   0  0  0  0  0  2  0  0  0  0  0  0
  161.4590  204.5210  148.3040 C   0  0  0  0  0  0  0  0  0  0  0  0
  161.4270  205.1770  149.6460 C   0  0  2  0  0  3  0  0  0  0  0  0
  161.6030  200.1990  148.0530 N   0  0  0  0  0  2  0  0  0  0  0  0
  161.6230  201.0950  146.9620 N   0  0  0  0  0  2  0  0  0  0  0  0
  161.5110  202.5210  147.0250 C   0  0  0  0  0  0  0  0  0  0  0  0
  161.2310  205.2820  147.1550 C   0  0  0  0  0  3  0  0  0  0  0  0
  160.9140  200.3320  149.3100 C   0  0  0  0  0  3  0  0  0  0  0  0
  159.5350  202.4150  150.0730 C   0  0  0  0  0  3  0  0  0  0  0  0
  160.2060  201.3700  149.6720 C   0  0  0  0  0  0  0  0  0  0  0  0
  160.0020  206.4500  144.9020 F   0  0  0  0  0  0  0  0  0  0  0  0
  162.1240  206.0550  144.2780 F   0  0  0  0  0  0  0  0  0  0  0  0
  160.4810  204.6400  143.6500 F   0  0  0  0  0  0  0  0  0  0  0  0
  160.9400  205.4600  144.6710 C   0  0  0  0  0  0  0  0  0  0  0  0
  160.4960  208.7430  154.0480 C   0  0  1  0  0  3  0  0  0  0  0  0
  160.8010  208.0470  155.3620 C   0  0  0  0  0  1  0  0  0  0  0  0
  160.8940  210.2130  154.1090 C   0  0  0  0  0  2  0  0  0  0  0  0
  159.7120  211.0590  153.9880 N   0  0  0  0  0  2  0  0  0  0  0  0
  160.0100  212.3450  154.6080 C   0  0  1  0  0  3  0  0  0  0  0  0
  158.9240  213.3840  154.2850 C   0  0  2  0  0  3  0  0  0  0  0  0
  156.8600  213.9750  152.8700 C   0  0  1  0  0  3  0  0  0  0  0  0
  154.9500  214.2110  155.6670 O   0  0  0  0  0  0  0  0  0  0  0  0
  158.8960  213.1320  151.8950 O   0  0  0  0  0  1  0  0  0  0  0  0
  156.9230  212.9440  155.8150 C   0  0  0  0  0  2  0  0  0  0  0  0
  155.6590  213.3710  153.5890 C   0  0  0  0  0  2  0  0  0  0  0  0
  158.1590  213.7910  155.5540 C   0  0  0  0  0  2  0  0  0  0  0  0
  158.0800  213.0590  153.0300 C   0  0  1  0  0  3  0  0  0  0  0  0
  155.7690  213.5340  155.0700 C   0  0  0  0  0  0  0  0  0  0  0  0
  156.5330  214.1260  151.5200 O   0  0  0  0  0  1  0  0  0  0  0  0
  160.2840  212.1870  156.1030 C   0  0  0  0  0  2  0  0  0  0  0  0
  160.4070  213.4290  156.7260 O   0  0  0  0  0  1  0  0  0  0  0  0
  162.2190  208.8470  152.1190 C   0  0  0  0  0  2  0  0  0  0  0  0
  162.5110  208.2850  150.8100 N   0  0  0  0  0  2  0  0  0  0  0  0
  162.4180  209.0470  149.6090 C   0  0  0  0  0  0  0  0  0  0  0  0
  162.6290  208.4830  148.5010 O   0  0  0  0  0  0  0  0  0  0  0  0
  162.1100  210.5140  149.6400 C   0  0  0  0  0  2  0  0  0  0  0  0
  161.6560  211.0030  148.3000 C   0  0  0  0  0  0  0  0  0  0  0  0
  160.9560  210.2550  147.5640 O   0  0  0  0  0  0  0  0  0  0  0  0
  163.0500  212.9240  148.1620 O   0  0  0  0  0  0  0  0  0  0  0  0
  161.9400  212.3910  147.8820 C   0  0  0  0  0  0  0  0  0  0  0  0
  160.9120  213.1760  147.1170 C   0  0  2  0  0  3  0  0  0  0  0  0
  161.2490  213.2830  145.6650 C   0  0  0  0  0  0  0  0  0  0  0  0
  161.7640  213.5090  142.9120 C   0  0  0  0  0  0  0  0  0  0  0  0
  162.3950  214.3680  143.8230 C   0  0  0  0  0  3  0  0  0  0  0  0
  160.6260  212.4160  144.7590 C   0  0  0  0  0  3  0  0  0  0  0  0
  162.1380  214.2580  145.1930 C   0  0  0  0  0  3  0  0  0  0  0  0
  160.8780  212.5290  143.3890 C   0  0  0  0  0  3  0  0  0  0  0  0
  162.0190  213.6730  141.4420 C   0  0  1  0  0  0  0  0  0  0  0  0
  161.4340  212.6890  140.5300 C   0  0  2  0  0  3  0  0  0  0  0  0
  161.8340  212.9090  139.0870 C   0  0  0  0  0  2  0  0  0  0  0  0
  160.8320  214.0420  140.6430 N   0  0  2  0  0  0  0  0  0  0  0  0
  161.2060  214.2740  139.2500 C   0  0  0  0  0  2  0  0  0  0  0  0
  163.2120  214.3050  141.0500 O   0  0  0  0  0  1  0  0  0  0  0  0
  160.7310  214.4490  147.6730 O   0  0  0  0  0  0  0  0  0  0  0  0
  160.0630  214.2370  148.7900 O   0  0  0  0  0  0  0  0  0  0  0  0
  158.9730  213.4490  148.4060 C   0  0  0  0  0  1  0  0  0  0  0  0
  1 42  1  1  0  0  0
  1  2  1  0  0  0  0
  1 25  1  0  0  0  0
  2  3  2  0  0  0  0
  4  2  1  0  0  0  0
  5  4  1  0  0  0  0
  6  5  1  0  0  0  0
  7 12  1  0  0  0  0
  8 10  2  0  0  0  0
  8 16  1  0  0  0  0
 10 17  1  0  0  0  0
 11  9  1  0  0  0  0
 12 13  1  0  0  0  0
 13  6  1  1  0  0  0
 13 11  1  0  0  0  0
 14 18  1  0  0  0  0
 15 16  1  0  0  0  0
 15 14  1  0  0  0  0
 16  7  2  0  0  0  0
 17 12  2  0  0  0  0
 18 20  2  0  0  0  0
 19  9  1  0  0  0  0
 20 19  2  0  0  0  0
 22 24  1  0  0  0  0
 23 24  1  0  0  0  0
 24 21  1  0  0  0  0
 24 10  1  0  0  0  0
 25 27  1  0  0  0  0
 25 26  1  1  0  0  0
 28 27  1  0  0  0  0
 28 29  1  0  0  0  0
 29 40  1  1  0  0  0
 30 29  1  1  0  0  0
 30 36  1  0  0  0  0
 31 39  1  6  0  0  0
 31 37  1  0  0  0  0
 31 35  1  0  0  0  0
 35 38  1  0  0  0  0
 36 34  1  0  0  0  0
 37 33  1  6  0  0  0
 37 30  1  0  0  0  0
 38 32  2  0  0  0  0
 38 34  1  0  0  0  0
 40 41  1  0  0  0  0
 43 42  1  0  0  0  0
 44 46  1  0  0  0  0
 44 43  1  0  0  0  0
 45 44  2  0  0  0  0
 47 46  1  0  0  0  0
 48 47  2  0  0  0  0
 50 49  2  0  0  0  0
 50 47  1  0  0  0  0
 51 64  1  1  0  0  0
 51 50  1  0  0  0  0
 52 51  1  0  0  0  0
 53 57  2  0  0  0  0
 53 54  1  0  0  0  0
 54 56  2  0  0  0  0
 55 52  2  0  0  0  0
 56 52  1  0  0  0  0
 57 55  1  0  0  0  0
 58 63  1  6  0  0  0
 58 53  1  0  0  0  0
 59 60  1  6  0  0  0
 59 61  1  0  0  0  0
 59 58  1  0  0  0  0
 60 62  1  0  0  0  0
 61 62  1  6  0  0  0
 61 58  1  0  0  0  0
 64 65  1  0  0  0  0
 66 65  1  0  0  0  0
M  END
>  <MODEL>
1

>  <REMARK>
 VINA RESULT:      -5.2      0.000      0.000
  Name = 
  22 active torsions:
  status: ('A' for Active; 'I' for Inactive)
    1  A    between atoms: C_1  and  C_34
    2  A    between atoms: N_3  and  C_36
    3  A    between atoms: C_4  and  C_6
    4  A    between atoms: O_5  and  C_34
    5  A    between atoms: O_5  and  O_41
    6  A    between atoms: C_9  and  C_26
    7  A    between atoms: C_9  and  N_60
    8  A    between atoms: CA_10  and  C_14
    9  A    between atoms: CA_10  and  C_15
   10  A    between atoms: CA_10  and  N_64
   11  A    between atoms: C_11  and  C_25
   12  A    between atoms: C_11  and  N_64
   13  A    between atoms: C_13  and  C_58
   14  A    between atoms: C_17  and  C_30
   15  A    between atoms: C_17  and  C_53
   16  A    between atoms: C_21  and  C_24
   17  A    between atoms: C_21  and  C_34
   18  A    between atoms: C_24  and  C_47
   19  A    between atoms: C_25  and  C_30
   20  A    between atoms: C_30  and  C_36
   21  A    between atoms: C_31  and  C_47
   22  A    between atoms: C_53  and  N_60
                            x       y       z     vdW  Elec       q    Type
                         _______ _______ _______ _____ _____    ______ ____

>  <TORSDO>
F 22

$$$$
=
 OpenBabel11052411333D

 66 71  0  0  1  0  0  0  0  0999 V2000
  161.1740  206.8420  151.7590 C   0  0  1  0  0  3  0  0  0  0  0  0
  161.2730  205.3390  151.7970 C   0  0  0  0  0  0  0  0  0  0  0  0
  161.3370  204.7420  152.8590 O   0  0  0  0  0  0  0  0  0  0  0  0
  161.3560  204.5660  150.5180 C   0  0  0  0  0  2  0  0  0  0  0  0
  160.5250  203.3750  150.6120 N   0  0  0  0  0  2  0  0  0  0  0  0
  160.1210  203.0030  149.2590 C   0  0  0  0  0  2  0  0  0  0  0  0
  160.2540  202.3820  146.2600 N   0  0  0  0  0  0  0  0  0  0  0  0
  160.3060  200.4860  144.8230 C   0  0  0  0  0  3  0  0  0  0  0  0
  162.0440  204.6750  147.5420 C   0  0  0  0  0  2  0  0  0  0  0  0
  160.8940  199.7290  145.8470 C   0  0  0  0  0  0  0  0  0  0  0  0
  162.4480  203.3900  148.2650 C   0  0  0  0  0  2  0  0  0  0  0  0
  160.8850  201.6960  147.2470 C   0  0  0  0  0  0  0  0  0  0  0  0
  161.3030  202.3940  148.5010 C   0  0  2  0  0  3  0  0  0  0  0  0
  159.2700  204.0140  143.9620 N   0  0  0  0  0  2  0  0  0  0  0  0
  159.4150  202.6090  143.9960 N   0  0  0  0  0  2  0  0  0  0  0  0
  160.0060  201.8350  145.0450 C   0  0  0  0  0  0  0  0  0  0  0  0
  161.2100  200.3510  147.0610 C   0  0  0  0  0  3  0  0  0  0  0  0
  160.1150  205.0160  144.5560 C   0  0  0  0  0  3  0  0  0  0  0  0
  162.1960  204.5510  146.0640 C   0  0  0  0  0  3  0  0  0  0  0  0
  161.1690  204.7720  145.2900 C   0  0  0  0  0  0  0  0  0  0  0  0
  161.7970  197.7430  146.7910 F   0  0  0  0  0  0  0  0  0  0  0  0
  160.0830  197.5740  145.3470 F   0  0  0  0  0  0  0  0  0  0  0  0
  162.1340  198.1490  144.6010 F   0  0  0  0  0  0  0  0  0  0  0  0
  161.2320  198.2800  145.6480 C   0  0  0  0  0  0  0  0  0  0  0  0
  160.6590  207.4580  153.0670 C   0  0  1  0  0  3  0  0  0  0  0  0
  160.8660  206.5520  154.2670 C   0  0  0  0  0  1  0  0  0  0  0  0
  161.2710  208.8320  153.3130 C   0  0  0  0  0  2  0  0  0  0  0  0
  160.9250  209.3040  154.6500 N   0  0  0  0  0  2  0  0  0  0  0  0
  161.6080  210.5730  154.8730 C   0  0  1  0  0  3  0  0  0  0  0  0
  160.6100  211.7410  154.9110 C   0  0  2  0  0  3  0  0  0  0  0  0
  158.4960  212.8050  153.9030 C   0  0  1  0  0  3  0  0  0  0  0  0
  156.8880  212.5470  156.8820 O   0  0  0  0  0  0  0  0  0  0  0  0
  160.3340  212.0460  152.5430 O   0  0  0  0  0  1  0  0  0  0  0  0
  158.7240  211.1260  156.5240 C   0  0  0  0  0  2  0  0  0  0  0  0
  157.3110  212.1510  154.6040 C   0  0  0  0  0  2  0  0  0  0  0  0
  160.0130  211.9080  156.3170 C   0  0  0  0  0  2  0  0  0  0  0  0
  159.6240  211.7810  153.7190 C   0  0  1  0  0  3  0  0  0  0  0  0
  157.5740  211.9610  156.0620 C   0  0  0  0  0  0  0  0  0  0  0  0
  158.0630  213.2860  152.6650 O   0  0  0  0  0  1  0  0  0  0  0  0
  162.5190  210.5030  156.0980 C   0  0  0  0  0  2  0  0  0  0  0  0
  163.7570  211.0910  155.8380 O   0  0  0  0  0  1  0  0  0  0  0  0
  162.3720  207.5660  151.1290 C   0  0  0  0  0  2  0  0  0  0  0  0
  162.4330  207.3320  149.6950 N   0  0  0  0  0  2  0  0  0  0  0  0
  162.3910  208.3920  148.7410 C   0  0  0  0  0  0  0  0  0  0  0  0
  162.3900  208.1160  147.5110 O   0  0  0  0  0  0  0  0  0  0  0  0
  162.3840  209.8270  149.1730 C   0  0  0  0  0  2  0  0  0  0  0  0
  161.7570  210.7050  148.1350 C   0  0  0  0  0  0  0  0  0  0  0  0
  160.6860  210.3450  147.5740 O   0  0  0  0  0  0  0  0  0  0  0  0
  163.5450  212.2710  148.1050 O   0  0  0  0  0  0  0  0  0  0  0  0
  162.3340  212.0320  147.8390 C   0  0  0  0  0  0  0  0  0  0  0  0
  161.4860  213.1030  147.2140 C   0  0  2  0  0  3  0  0  0  0  0  0
  161.6010  213.1180  145.7240 C   0  0  0  0  0  0  0  0  0  0  0  0
  161.7150  213.2130  142.9180 C   0  0  0  0  0  0  0  0  0  0  0  0
  162.7600  213.7450  143.6880 C   0  0  0  0  0  3  0  0  0  0  0  0
  160.5620  212.5760  144.9580 C   0  0  0  0  0  3  0  0  0  0  0  0
  162.7040  213.7000  145.0840 C   0  0  0  0  0  3  0  0  0  0  0  0
  160.6150  212.6260  143.5630 C   0  0  0  0  0  3  0  0  0  0  0  0
  161.7740  213.3120  141.4220 C   0  0  1  0  0  0  0  0  0  0  0  0
  162.8810  212.6470  140.7330 C   0  0  2  0  0  3  0  0  0  0  0  0
  162.8800  212.8920  139.2390 C   0  0  0  0  0  2  0  0  0  0  0  0
  161.5230  212.0450  140.7050 N   0  0  2  0  0  0  0  0  0  0  0  0
  161.5030  212.2700  139.2610 C   0  0  0  0  0  2  0  0  0  0  0  0
  161.2130  214.4520  140.8180 O   0  0  0  0  0  1  0  0  0  0  0  0
  161.7940  214.3640  147.7420 O   0  0  0  0  0  0  0  0  0  0  0  0
  161.0940  214.4430  148.8560 O   0  0  0  0  0  0  0  0  0  0  0  0
  159.7620  214.3180  148.4470 C   0  0  0  0  0  1  0  0  0  0  0  0
  1 42  1  1  0  0  0
  1  2  1  0  0  0  0
  1 25  1  0  0  0  0
  2  3  2  0  0  0  0
  4  5  1  0  0  0  0
  4  2  1  0  0  0  0
  6  5  1  0  0  0  0
  7 12  1  0  0  0  0
  8 16  1  0  0  0  0
  8 10  2  0  0  0  0
  9 11  1  0  0  0  0
 10 17  1  0  0  0  0
 11 13  1  0  0  0  0
 12 13  1  0  0  0  0
 13  6  1  6  0  0  0
 14 15  1  0  0  0  0
 14 18  1  0  0  0  0
 15 16  1  0  0  0  0
 16  7  2  0  0  0  0
 17 12  2  0  0  0  0
 18 20  2  0  0  0  0
 19  9  1  0  0  0  0
 20 19  2  0  0  0  0
 22 24  1  0  0  0  0
 23 24  1  0  0  0  0
 24 10  1  0  0  0  0
 24 21  1  0  0  0  0
 25 27  1  0  0  0  0
 25 26  1  1  0  0  0
 27 28  1  0  0  0  0
 28 29  1  0  0  0  0
 29 40  1  1  0  0  0
 30 29  1  1  0  0  0
 30 36  1  0  0  0  0
 31 39  1  6  0  0  0
 31 35  1  0  0  0  0
 35 38  1  0  0  0  0
 36 34  1  0  0  0  0
 37 33  1  6  0  0  0
 37 31  1  0  0  0  0
 37 30  1  0  0  0  0
 38 34  1  0  0  0  0
 38 32  2  0  0  0  0
 41 40  1  0  0  0  0
 43 42  1  0  0  0  0
 44 46  1  0  0  0  0
 44 43  1  0  0  0  0
 45 44  2  0  0  0  0
 47 46  1  0  0  0  0
 48 47  2  0  0  0  0
 50 49  2  0  0  0  0
 50 47  1  0  0  0  0
 51 64  1  1  0  0  0
 51 50  1  0  0  0  0
 52 51  1  0  0  0  0
 53 57  2  0  0  0  0
 53 54  1  0  0  0  0
 54 56  2  0  0  0  0
 55 52  2  0  0  0  0
 56 52  1  0  0  0  0
 57 55  1  0  0  0  0
 58 63  1  6  0  0  0
 58 53  1  0  0  0  0
 59 60  1  6  0  0  0
 59 58  1  0  0  0  0
 60 62  1  0  0  0  0
 61 62  1  6  0  0  0
 61 59  1  0  0  0  0
 61 58  1  0  0  0  0
 64 65  1  0  0  0  0
 66 65  1  0  0  0  0
M  END
>  <MODEL>
2

>  <REMARK>
 VINA RESULT:      -5.0      2.326      3.266
  Name = 
  22 active torsions:
  status: ('A' for Active; 'I' for Inactive)
    1  A    between atoms: C_1  and  C_34
    2  A    between atoms: N_3  and  C_36
    3  A    between atoms: C_4  and  C_6
    4  A    between atoms: O_5  and  C_34
    5  A    between atoms: O_5  and  O_41
    6  A    between atoms: C_9  and  C_26
    7  A    between atoms: C_9  and  N_60
    8  A    between atoms: CA_10  and  C_14
    9  A    between atoms: CA_10  and  C_15
   10  A    between atoms: CA_10  and  N_64
   11  A    between atoms: C_11  and  C_25
   12  A    between atoms: C_11  and  N_64
   13  A    between atoms: C_13  and  C_58
   14  A    between atoms: C_17  and  C_30
   15  A    between atoms: C_17  and  C_53
   16  A    between atoms: C_21  and  C_24
   17  A    between atoms: C_21  and  C_34
   18  A    between atoms: C_24  and  C_47
   19  A    between atoms: C_25  and  C_30
   20  A    between atoms: C_30  and  C_36
   21  A    between atoms: C_31  and  C_47
   22  A    between atoms: C_53  and  N_60
                            x       y       z     vdW  Elec       q    Type
                         _______ _______ _______ _____ _____    ______ ____

>  <TORSDO>
F 22

$$$$
=
 OpenBabel11052411333D

 66 71  0  0  1  0  0  0  0  0999 V2000
  160.8120  209.1000  152.8860 C   0  0  1  0  0  3  0  0  0  0  0  0
  161.2840  207.6970  152.6090 C   0  0  0  0  0  0  0  0  0  0  0  0
  161.1930  206.8260  153.4580 O   0  0  0  0  0  0  0  0  0  0  0  0
  161.9310  207.3740  151.2980 C   0  0  0  0  0  2  0  0  0  0  0  0
  163.0080  206.4190  151.5070 N   0  0  0  0  0  2  0  0  0  0  0  0
  162.6530  205.1820  150.8150 C   0  0  0  0  0  2  0  0  0  0  0  0
  161.6460  203.3870  148.5440 N   0  0  0  0  0  0  0  0  0  0  0  0
  161.4100  203.4550  146.1770 C   0  0  0  0  0  3  0  0  0  0  0  0
  160.0530  203.6130  151.2850 C   0  0  0  0  0  2  0  0  0  0  0  0
  161.3040  204.8520  146.2300 C   0  0  0  0  0  0  0  0  0  0  0  0
  160.0980  205.0340  150.7220 C   0  0  0  0  0  2  0  0  0  0  0  0
  161.4770  204.7310  148.6350 C   0  0  0  0  0  0  0  0  0  0  0  0
  161.3910  205.3900  149.9730 C   0  0  2  0  0  3  0  0  0  0  0  0
  161.5800  200.4060  148.3990 N   0  0  0  0  0  2  0  0  0  0  0  0
  161.6620  201.3000  147.3080 N   0  0  0  0  0  2  0  0  0  0  0  0
  161.5640  202.7270  147.3630 C   0  0  0  0  0  0  0  0  0  0  0  0
  161.3110  205.4920  147.4750 C   0  0  0  0  0  3  0  0  0  0  0  0
  160.8360  200.5510  149.6220 C   0  0  0  0  0  3  0  0  0  0  0  0
  159.4490  202.6520  150.3170 C   0  0  0  0  0  3  0  0  0  0  0  0
  160.1250  201.5980  149.9500 C   0  0  0  0  0  0  0  0  0  0  0  0
  160.1350  206.6100  145.1360 F   0  0  0  0  0  0  0  0  0  0  0  0
  162.3200  206.3230  144.6940 F   0  0  0  0  0  0  0  0  0  0  0  0
  160.8070  204.8370  143.9190 F   0  0  0  0  0  0  0  0  0  0  0  0
  161.1370  205.6680  144.9800 C   0  0  0  0  0  0  0  0  0  0  0  0
  161.2990  209.6620  154.2280 C   0  0  1  0  0  3  0  0  0  0  0  0
  162.5880  210.4540  154.1020 C   0  0  0  0  0  1  0  0  0  0  0  0
  160.2180  210.4910  154.9110 C   0  0  0  0  0  2  0  0  0  0  0  0
  160.5310  211.9110  154.8030 N   0  0  0  0  0  2  0  0  0  0  0  0
  160.1640  212.5520  156.0600 C   0  0  1  0  0  3  0  0  0  0  0  0
  158.6670  212.9000  156.0910 C   0  0  2  0  0  3  0  0  0  0  0  0
  156.5330  213.3600  154.7330 C   0  0  1  0  0  3  0  0  0  0  0  0
  154.9950  210.6860  156.1500 O   0  0  0  0  0  0  0  0  0  0  0  0
  158.6280  214.4510  154.2560 O   0  0  0  0  0  1  0  0  0  0  0  0
  157.3450  210.7130  156.1720 C   0  0  0  0  0  2  0  0  0  0  0  0
  155.9140  212.0000  154.4310 C   0  0  0  0  0  2  0  0  0  0  0  0
  157.8890  211.8970  156.9570 C   0  0  0  0  0  2  0  0  0  0  0  0
  158.0640  213.2540  154.7120 C   0  0  1  0  0  3  0  0  0  0  0  0
  156.0110  211.0830  155.6060 C   0  0  0  0  0  0  0  0  0  0  0  0
  156.0910  214.2670  153.7670 O   0  0  0  0  0  1  0  0  0  0  0  0
  160.6280  211.7240  157.2580 C   0  0  0  0  0  2  0  0  0  0  0  0
  162.0000  211.4800  157.2000 O   0  0  0  0  0  1  0  0  0  0  0  0
  160.9100  210.0740  151.7020 C   0  0  0  0  0  2  0  0  0  0  0  0
  160.0320  211.2190  151.8880 N   0  0  0  0  0  2  0  0  0  0  0  0
  160.0960  212.3780  151.0600 C   0  0  0  0  0  0  0  0  0  0  0  0
  159.3440  213.3590  151.3130 O   0  0  0  0  0  0  0  0  0  0  0  0
  161.0130  212.4390  149.8770 C   0  0  0  0  0  2  0  0  0  0  0  0
  160.4360  213.2840  148.7840 C   0  0  0  0  0  0  0  0  0  0  0  0
  159.9220  214.4020  149.0620 O   0  0  0  0  0  0  0  0  0  0  0  0
  160.1620  211.7120  147.0220 O   0  0  0  0  0  0  0  0  0  0  0  0
  160.5570  212.8580  147.3750 C   0  0  0  0  0  0  0  0  0  0  0  0
  161.1450  213.7870  146.3510 C   0  0  2  0  0  3  0  0  0  0  0  0
  160.7910  213.3870  144.9550 C   0  0  0  0  0  0  0  0  0  0  0  0
  160.0770  212.7440  142.3140 C   0  0  0  0  0  0  0  0  0  0  0  0
  161.4240  212.7310  142.7070 C   0  0  0  0  0  3  0  0  0  0  0  0
  159.4460  213.3890  144.5690 C   0  0  0  0  0  3  0  0  0  0  0  0
  161.7800  213.0520  144.0200 C   0  0  0  0  0  3  0  0  0  0  0  0
  159.0890  213.0740  143.2560 C   0  0  0  0  0  3  0  0  0  0  0  0
  159.7190  212.4410  140.8890 C   0  0  1  0  0  0  0  0  0  0  0  0
  158.4390  212.9370  140.3820 C   0  0  2  0  0  3  0  0  0  0  0  0
  158.1520  212.4920  138.9640 C   0  0  0  0  0  2  0  0  0  0  0  0
  159.7020  213.6130  139.9890 N   0  0  2  0  0  0  0  0  0  0  0  0
  159.4430  213.1970  138.6130 C   0  0  0  0  0  2  0  0  0  0  0  0
  160.2430  211.2670  140.3170 O   0  0  0  0  0  1  0  0  0  0  0  0
  162.5350  213.8840  146.4960 O   0  0  0  0  0  0  0  0  0  0  0  0
  162.7830  213.4080  147.7000 O   0  0  0  0  0  0  0  0  0  0  0  0
  163.8460  212.5180  147.5180 C   0  0  0  0  0  1  0  0  0  0  0  0
  1 42  1  6  0  0  0
  1 25  1  0  0  0  0
  2  1  1  0  0  0  0
  2  3  2  0  0  0  0
  4  5  1  0  0  0  0
  4  2  1  0  0  0  0
  6  5  1  0  0  0  0
  7 12  1  0  0  0  0
  8 10  2  0  0  0  0
  8 16  1  0  0  0  0
 10 17  1  0  0  0  0
 11  9  1  0  0  0  0
 12 13  1  0  0  0  0
 13 11  1  0  0  0  0
 13  6  1  1  0  0  0
 14 18  1  0  0  0  0
 15 16  1  0  0  0  0
 15 14  1  0  0  0  0
 16  7  2  0  0  0  0
 17 12  2  0  0  0  0
 18 20  2  0  0  0  0
 19  9  1  0  0  0  0
 20 19  2  0  0  0  0
 22 24  1  0  0  0  0
 23 24  1  0  0  0  0
 24 21  1  0  0  0  0
 24 10  1  0  0  0  0
 25 26  1  6  0  0  0
 25 27  1  0  0  0  0
 28 27  1  0  0  0  0
 28 29  1  0  0  0  0
 29 40  1  1  0  0  0
 30 29  1  6  0  0  0
 30 36  1  0  0  0  0
 31 39  1  6  0  0  0
 34 36  1  0  0  0  0
 35 31  1  0  0  0  0
 35 38  1  0  0  0  0
 37 33  1  1  0  0  0
 37 31  1  0  0  0  0
 37 30  1  0  0  0  0
 38 32  2  0  0  0  0
 38 34  1  0  0  0  0
 41 40  1  0  0  0  0
 42 43  1  0  0  0  0
 44 45  2  0  0  0  0
 44 43  1  0  0  0  0
 46 44  1  0  0  0  0
 47 48  2  0  0  0  0
 47 46  1  0  0  0  0
 49 50  2  0  0  0  0
 50 47  1  0  0  0  0
 51 64  1  6  0  0  0
 51 50  1  0  0  0  0
 52 51  1  0  0  0  0
 53 54  2  0  0  0  0
 53 57  1  0  0  0  0
 54 56  1  0  0  0  0
 55 52  1  0  0  0  0
 56 52  2  0  0  0  0
 57 55  2  0  0  0  0
 58 63  1  6  0  0  0
 58 53  1  0  0  0  0
 59 60  1  6  0  0  0
 59 58  1  0  0  0  0
 61 62  1  6  0  0  0
 61 59  1  0  0  0  0
 61 58  1  0  0  0  0
 62 60  1  0  0  0  0
 64 65  1  0  0  0  0
 66 65  1  0  0  0  0
M  END
>  <MODEL>
3

>  <REMARK>
 VINA RESULT:      -5.0      1.593      2.256
  Name = 
  22 active torsions:
  status: ('A' for Active; 'I' for Inactive)
    1  A    between atoms: C_1  and  C_34
    2  A    between atoms: N_3  and  C_36
    3  A    between atoms: C_4  and  C_6
    4  A    between atoms: O_5  and  C_34
    5  A    between atoms: O_5  and  O_41
    6  A    between atoms: C_9  and  C_26
    7  A    between atoms: C_9  and  N_60
    8  A    between atoms: CA_10  and  C_14
    9  A    between atoms: CA_10  and  C_15
   10  A    between atoms: CA_10  and  N_64
   11  A    between atoms: C_11  and  C_25
   12  A    between atoms: C_11  and  N_64
   13  A    between atoms: C_13  and  C_58
   14  A    between atoms: C_17  and  C_30
   15  A    between atoms: C_17  and  C_53
   16  A    between atoms: C_21  and  C_24
   17  A    between atoms: C_21  and  C_34
   18  A    between atoms: C_24  and  C_47
   19  A    between atoms: C_25  and  C_30
   20  A    between atoms: C_30  and  C_36
   21  A    between atoms: C_31  and  C_47
   22  A    between atoms: C_53  and  N_60
                            x       y       z     vdW  Elec       q    Type
                         _______ _______ _______ _____ _____    ______ ____

>  <TORSDO>
F 22

$$$$
=
 OpenBabel11052411333D

 66 71  0  0  1  0  0  0  0  0999 V2000
  161.5710  206.5470  152.4290 C   0  0  1  0  0  3  0  0  0  0  0  0
  160.7560  207.1270  153.5560 C   0  0  0  0  0  0  0  0  0  0  0  0
  160.1420  206.4040  154.3220 O   0  0  0  0  0  0  0  0  0  0  0  0
  160.6460  208.6120  153.7070 C   0  0  0  0  0  2  0  0  0  0  0  0
  159.4820  208.9360  154.5180 N   0  0  0  0  0  2  0  0  0  0  0  0
  159.9150  209.8320  155.5870 C   0  0  0  0  0  2  0  0  0  0  0  0
  158.0640  212.1330  154.7650 N   0  0  0  0  0  0  0  0  0  0  0  0
  157.3230  213.2140  152.7790 C   0  0  0  0  0  3  0  0  0  0  0  0
  160.0170  212.4100  157.2580 C   0  0  0  0  0  2  0  0  0  0  0  0
  158.5160  212.8490  152.1380 C   0  0  0  0  0  0  0  0  0  0  0  0
  160.9250  212.1380  156.0570 C   0  0  0  0  0  2  0  0  0  0  0  0
  159.2560  211.8240  154.1950 C   0  0  0  0  0  0  0  0  0  0  0  0
  160.3360  211.1850  155.0060 C   0  0  2  0  0  3  0  0  0  0  0  0
  155.6410  213.1790  156.1600 N   0  0  0  0  0  2  0  0  0  0  0  0
  155.9070  213.2420  154.7740 N   0  0  0  0  0  2  0  0  0  0  0  0
  157.1200  212.8590  154.1180 C   0  0  0  0  0  0  0  0  0  0  0  0
  159.5010  212.1700  152.8640 C   0  0  0  0  0  3  0  0  0  0  0  0
  156.5640  213.3180  157.2560 C   0  0  0  0  0  3  0  0  0  0  0  0
  159.1510  213.6040  157.0390 C   0  0  0  0  0  3  0  0  0  0  0  0
  157.8550  213.4840  157.1360 C   0  0  0  0  0  0  0  0  0  0  0  0
  158.4320  212.1690  149.8620 F   0  0  0  0  0  0  0  0  0  0  0  0
  158.0160  214.3190  150.3650 F   0  0  0  0  0  0  0  0  0  0  0  0
  160.1160  213.5080  150.5280 F   0  0  0  0  0  0  0  0  0  0  0  0
  158.7720  213.2130  150.7040 C   0  0  0  0  0  0  0  0  0  0  0  0
  161.2310  205.0850  152.1110 C   0  0  1  0  0  3  0  0  0  0  0  0
  160.4550  204.4060  153.2260 C   0  0  0  0  0  1  0  0  0  0  0  0
  160.4930  204.9610  150.7840 C   0  0  0  0  0  2  0  0  0  0  0  0
  161.3990  204.4710  149.7500 N   0  0  0  0  0  2  0  0  0  0  0  0
  160.8890  203.1920  149.2710 C   0  0  1  0  0  3  0  0  0  0  0  0
  161.3500  202.9140  147.8310 C   0  0  2  0  0  3  0  0  0  0  0  0
  160.6600  202.3910  145.4090 C   0  0  1  0  0  3  0  0  0  0  0  0
  162.0950  205.2710  144.3280 O   0  0  0  0  0  0  0  0  0  0  0  0
  159.7900  201.1660  147.2930 O   0  0  0  0  0  1  0  0  0  0  0  0
  161.5070  205.1490  146.5990 C   0  0  0  0  0  2  0  0  0  0  0  0
  160.3680  203.7320  144.7470 C   0  0  0  0  0  2  0  0  0  0  0  0
  162.2610  204.0400  147.3190 C   0  0  0  0  0  2  0  0  0  0  0  0
  160.2290  202.4300  146.8820 C   0  0  1  0  0  3  0  0  0  0  0  0
  161.3570  204.7730  145.1600 C   0  0  0  0  0  0  0  0  0  0  0  0
  159.9600  201.3990  144.7190 O   0  0  0  0  0  1  0  0  0  0  0  0
  161.2180  202.0650  150.2500 C   0  0  0  0  0  2  0  0  0  0  0  0
  161.1360  200.8190  149.6280 O   0  0  0  0  0  1  0  0  0  0  0  0
  161.7390  207.4550  151.2020 C   0  0  0  0  0  2  0  0  0  0  0  0
  162.4570  208.6730  151.5420 N   0  0  0  0  0  2  0  0  0  0  0  0
  162.4500  209.8280  150.7050 C   0  0  0  0  0  0  0  0  0  0  0  0
  163.1410  210.8310  151.0320 O   0  0  0  0  0  0  0  0  0  0  0  0
  161.6110  209.8850  149.4640 C   0  0  0  0  0  2  0  0  0  0  0  0
  161.6860  211.2330  148.8180 C   0  0  0  0  0  0  0  0  0  0  0  0
  162.2480  212.1870  149.4230 O   0  0  0  0  0  0  0  0  0  0  0  0
  160.5170  210.5180  146.8760 O   0  0  0  0  0  0  0  0  0  0  0  0
  161.1950  211.4220  147.4380 C   0  0  0  0  0  0  0  0  0  0  0  0
  161.4950  212.6940  146.6960 C   0  0  2  0  0  3  0  0  0  0  0  0
  161.2180  212.5730  145.2320 C   0  0  0  0  0  0  0  0  0  0  0  0
  160.7770  212.2530  142.4760 C   0  0  0  0  0  0  0  0  0  0  0  0
  159.7220  212.0870  143.3850 C   0  0  0  0  0  3  0  0  0  0  0  0
  162.2700  212.7500  144.3260 C   0  0  0  0  0  3  0  0  0  0  0  0
  159.9410  212.2440  144.7570 C   0  0  0  0  0  3  0  0  0  0  0  0
  162.0540  212.5880  142.9550 C   0  0  0  0  0  3  0  0  0  0  0  0
  160.5330  212.0350  141.0110 C   0  0  1  0  0  0  0  0  0  0  0  0
  161.4520  212.6640  140.0610 C   0  0  2  0  0  3  0  0  0  0  0  0
  161.0500  212.4460  138.6180 C   0  0  0  0  0  2  0  0  0  0  0  0
  161.5470  211.2060  140.3280 N   0  0  2  0  0  0  0  0  0  0  0  0
  161.1630  210.9730  138.9370 C   0  0  0  0  0  2  0  0  0  0  0  0
  159.2090  211.8090  140.5940 O   0  0  0  0  0  1  0  0  0  0  0  0
  162.8150  213.1060  146.9120 O   0  0  0  0  0  0  0  0  0  0  0  0
  162.7310  214.0260  147.8530 O   0  0  0  0  0  0  0  0  0  0  0  0
  161.3930  214.4330  147.8320 C   0  0  0  0  0  1  0  0  0  0  0  0
  1 42  1  6  0  0  0
  1  2  1  0  0  0  0
  2  4  1  0  0  0  0
  2  3  2  0  0  0  0
  4  5  1  0  0  0  0
  5  6  1  0  0  0  0
  8 16  1  0  0  0  0
 10  8  2  0  0  0  0
 10 17  1  0  0  0  0
 11  9  1  0  0  0  0
 12  7  1  0  0  0  0
 12 13  1  0  0  0  0
 13  6  1  1  0  0  0
 13 11  1  0  0  0  0
 14 18  1  0  0  0  0
 15 14  1  0  0  0  0
 16  7  2  0  0  0  0
 16 15  1  0  0  0  0
 17 12  2  0  0  0  0
 19 20  2  0  0  0  0
 19  9  1  0  0  0  0
 20 18  2  0  0  0  0
 21 24  1  0  0  0  0
 22 24  1  0  0  0  0
 23 24  1  0  0  0  0
 24 10  1  0  0  0  0
 25  1  1  0  0  0  0
 25 26  1  1  0  0  0
 27 25  1  0  0  0  0
 28 27  1  0  0  0  0
 29 28  1  0  0  0  0
 29 40  1  1  0  0  0
 30 29  1  1  0  0  0
 31 39  1  6  0  0  0
 31 37  1  0  0  0  0
 32 38  2  0  0  0  0
 34 36  1  0  0  0  0
 35 38  1  0  0  0  0
 35 31  1  0  0  0  0
 36 30  1  0  0  0  0
 37 33  1  1  0  0  0
 37 30  1  0  0  0  0
 38 34  1  0  0  0  0
 41 40  1  0  0  0  0
 42 43  1  0  0  0  0
 44 45  2  0  0  0  0
 44 43  1  0  0  0  0
 46 44  1  0  0  0  0
 47 48  2  0  0  0  0
 47 46  1  0  0  0  0
 49 50  2  0  0  0  0
 50 47  1  0  0  0  0
 51 64  1  6  0  0  0
 51 50  1  0  0  0  0
 52 51  1  0  0  0  0
 53 57  2  0  0  0  0
 53 54  1  0  0  0  0
 54 56  2  0  0  0  0
 55 52  2  0  0  0  0
 56 52  1  0  0  0  0
 57 55  1  0  0  0  0
 58 63  1  6  0  0  0
 58 53  1  0  0  0  0
 59 60  1  6  0  0  0
 59 61  1  0  0  0  0
 59 58  1  0  0  0  0
 60 62  1  0  0  0  0
 61 62  1  6  0  0  0
 61 58  1  0  0  0  0
 64 65  1  0  0  0  0
 66 65  1  0  0  0  0
M  END
>  <MODEL>
4

>  <REMARK>
 VINA RESULT:      -2.7      3.090      9.002
  Name = 
  22 active torsions:
  status: ('A' for Active; 'I' for Inactive)
    1  A    between atoms: C_1  and  C_34
    2  A    between atoms: N_3  and  C_36
    3  A    between atoms: C_4  and  C_6
    4  A    between atoms: O_5  and  C_34
    5  A    between atoms: O_5  and  O_41
    6  A    between atoms: C_9  and  C_26
    7  A    between atoms: C_9  and  N_60
    8  A    between atoms: CA_10  and  C_14
    9  A    between atoms: CA_10  and  C_15
   10  A    between atoms: CA_10  and  N_64
   11  A    between atoms: C_11  and  C_25
   12  A    between atoms: C_11  and  N_64
   13  A    between atoms: C_13  and  C_58
   14  A    between atoms: C_17  and  C_30
   15  A    between atoms: C_17  and  C_53
   16  A    between atoms: C_21  and  C_24
   17  A    between atoms: C_21  and  C_34
   18  A    between atoms: C_24  and  C_47
   19  A    between atoms: C_25  and  C_30
   20  A    between atoms: C_30  and  C_36
   21  A    between atoms: C_31  and  C_47
   22  A    between atoms: C_53  and  N_60
                            x       y       z     vdW  Elec       q    Type
                         _______ _______ _______ _____ _____    ______ ____

>  <TORSDO>
F 22

$$$$
=
 OpenBabel11052411333D

 66 71  0  0  1  0  0  0  0  0999 V2000
  161.6660  205.6320  145.0160 C   0  0  1  0  0  3  0  0  0  0  0  0
  161.3820  205.7530  143.5420 C   0  0  0  0  0  0  0  0  0  0  0  0
  160.5740  205.0190  142.9970 O   0  0  0  0  0  0  0  0  0  0  0  0
  162.1420  206.7430  142.7160 C   0  0  0  0  0  2  0  0  0  0  0  0
  161.7900  206.5830  141.3130 N   0  0  0  0  0  2  0  0  0  0  0  0
  162.2310  207.7790  140.6000 C   0  0  0  0  0  2  0  0  0  0  0  0
  162.3280  210.8260  140.2790 N   0  0  0  0  0  0  0  0  0  0  0  0
  161.6640  212.7750  141.4710 C   0  0  0  0  0  3  0  0  0  0  0  0
  161.5810  208.9410  137.8310 C   0  0  0  0  0  2  0  0  0  0  0  0
  160.6380  212.0460  142.0890 C   0  0  0  0  0  0  0  0  0  0  0  0
  160.5270  208.6550  138.9010 C   0  0  0  0  0  2  0  0  0  0  0  0
  161.3020  210.1100  140.8070 C   0  0  0  0  0  0  0  0  0  0  0  0
  161.0440  208.7120  140.3460 C   0  0  2  0  0  3  0  0  0  0  0  0
  164.3060  212.4910  138.7880 N   0  0  0  0  0  2  0  0  0  0  0  0
  163.5400  212.8930  139.9040 N   0  0  0  0  0  2  0  0  0  0  0  0
  162.5000  212.1440  140.5410 C   0  0  0  0  0  0  0  0  0  0  0  0
  160.4410  210.7060  141.7310 C   0  0  0  0  0  3  0  0  0  0  0  0
  163.9190  211.6370  137.6960 C   0  0  0  0  0  3  0  0  0  0  0  0
  161.6350  210.3890  137.4780 C   0  0  0  0  0  3  0  0  0  0  0  0
  162.7630  211.0360  137.5850 C   0  0  0  0  0  0  0  0  0  0  0  0
  159.4320  211.8140  144.1230 F   0  0  0  0  0  0  0  0  0  0  0  0
  160.3250  213.8130  143.6160 F   0  0  0  0  0  0  0  0  0  0  0  0
  158.5350  213.0530  142.4710 F   0  0  0  0  0  0  0  0  0  0  0  0
  159.7210  212.6860  143.0900 C   0  0  0  0  0  0  0  0  0  0  0  0
  162.9200  204.8080  145.3370 C   0  0  1  0  0  3  0  0  0  0  0  0
  163.6010  205.2470  146.6210 C   0  0  0  0  0  1  0  0  0  0  0  0
  162.6120  203.3150  145.3700 C   0  0  0  0  0  2  0  0  0  0  0  0
  161.2330  203.0960  145.7950 N   0  0  0  0  0  2  0  0  0  0  0  0
  161.1460  201.7620  146.3770 C   0  0  1  0  0  3  0  0  0  0  0  0
  160.5460  201.8100  147.7910 C   0  0  2  0  0  3  0  0  0  0  0  0
  160.8290  201.2050  150.2740 C   0  0  1  0  0  3  0  0  0  0  0  0
  160.7550  204.4890  151.1330 O   0  0  0  0  0  0  0  0  0  0  0  0
  161.1570  199.5990  148.5080 O   0  0  0  0  0  1  0  0  0  0  0  0
  161.3300  203.9690  148.9150 C   0  0  0  0  0  2  0  0  0  0  0  0
  161.6500  202.3270  150.8990 C   0  0  0  0  0  2  0  0  0  0  0  0
  160.1990  203.2530  148.1910 C   0  0  0  0  0  2  0  0  0  0  0  0
  161.2990  200.9530  148.8360 C   0  0  1  0  0  3  0  0  0  0  0  0
  161.2360  203.6640  150.3750 C   0  0  0  0  0  0  0  0  0  0  0  0
  160.9920  200.0560  151.0530 O   0  0  0  0  0  1  0  0  0  0  0  0
  160.4260  200.7960  145.4360 C   0  0  0  0  0  2  0  0  0  0  0  0
  159.5410  201.4750  144.5990 O   0  0  0  0  0  1  0  0  0  0  0  0
  161.5200  206.9300  145.8240 C   0  0  0  0  0  2  0  0  0  0  0  0
  160.7270  206.7170  147.0250 N   0  0  0  0  0  2  0  0  0  0  0  0
  161.0970  207.2510  148.2940 C   0  0  0  0  0  0  0  0  0  0  0  0
  160.3950  206.9800  149.3060 O   0  0  0  0  0  0  0  0  0  0  0  0
  162.2820  208.1570  148.4420 C   0  0  0  0  0  2  0  0  0  0  0  0
  161.8580  209.5740  148.6750 C   0  0  0  0  0  0  0  0  0  0  0  0
  161.2580  210.2060  147.7630 O   0  0  0  0  0  0  0  0  0  0  0  0
  162.5230  209.5220  150.9560 O   0  0  0  0  0  0  0  0  0  0  0  0
  162.0510  210.1970  150.0000 C   0  0  0  0  0  0  0  0  0  0  0  0
  161.6920  211.6400  150.2170 C   0  0  2  0  0  3  0  0  0  0  0  0
  160.6200  211.8070  151.2450 C   0  0  0  0  0  0  0  0  0  0  0  0
  158.6900  212.1210  153.2630 C   0  0  0  0  0  0  0  0  0  0  0  0
  158.8330  213.0940  152.2620 C   0  0  0  0  0  3  0  0  0  0  0  0
  160.4720  210.8290  152.2360 C   0  0  0  0  0  3  0  0  0  0  0  0
  159.7930  212.9390  151.2580 C   0  0  0  0  0  3  0  0  0  0  0  0
  159.5160  210.9850  153.2430 C   0  0  0  0  0  3  0  0  0  0  0  0
  157.6830  212.3280  154.3570 C   0  0  1  0  0  0  0  0  0  0  0  0
  156.8980  211.1720  154.7940 C   0  0  2  0  0  3  0  0  0  0  0  0
  155.8590  211.5240  155.8360 C   0  0  0  0  0  2  0  0  0  0  0  0
  158.0150  211.6700  155.6380 N   0  0  2  0  0  0  0  0  0  0  0  0
  157.0280  212.0150  156.6590 C   0  0  0  0  0  2  0  0  0  0  0  0
  157.1040  213.6030  154.4820 O   0  0  0  0  0  1  0  0  0  0  0  0
  161.3180  212.2540  149.0150 O   0  0  0  0  0  0  0  0  0  0  0  0
  162.1060  213.3070  148.9160 O   0  0  0  0  0  0  0  0  0  0  0  0
  162.7930  213.1230  147.7110 C   0  0  0  0  0  1  0  0  0  0  0  0
  1 25  1  0  0  0  0
  1 42  1  6  0  0  0
  2  1  1  0  0  0  0
  3  2  2  0  0  0  0
  4  2  1  0  0  0  0
  5  4  1  0  0  0  0
  6  5  1  0  0  0  0
  7 16  2  0  0  0  0
  7 12  1  0  0  0  0
  8 10  2  0  0  0  0
  9 11  1  0  0  0  0
 10 24  1  0  0  0  0
 11 13  1  0  0  0  0
 12 17  2  0  0  0  0
 13  6  1  6  0  0  0
 13 12  1  0  0  0  0
 14 15  1  0  0  0  0
 15 16  1  0  0  0  0
 16  8  1  0  0  0  0
 17 10  1  0  0  0  0
 18 14  1  0  0  0  0
 19 20  2  0  0  0  0
 19  9  1  0  0  0  0
 20 18  2  0  0  0  0
 23 24  1  0  0  0  0
 24 22  1  0  0  0  0
 24 21  1  0  0  0  0
 25 27  1  0  0  0  0
 25 26  1  1  0  0  0
 27 28  1  0  0  0  0
 28 29  1  0  0  0  0
 29 40  1  6  0  0  0
 30 29  1  6  0  0  0
 30 36  1  0  0  0  0
 30 37  1  0  0  0  0
 31 35  1  0  0  0  0
 31 39  1  1  0  0  0
 34 38  1  0  0  0  0
 36 34  1  0  0  0  0
 37 33  1  6  0  0  0
 37 31  1  0  0  0  0
 38 35  1  0  0  0  0
 38 32  2  0  0  0  0
 41 40  1  0  0  0  0
 42 43  1  0  0  0  0
 43 44  1  0  0  0  0
 44 46  1  0  0  0  0
 44 45  2  0  0  0  0
 46 47  1  0  0  0  0
 47 50  1  0  0  0  0
 48 47  2  0  0  0  0
 50 51  1  0  0  0  0
 50 49  2  0  0  0  0
 51 64  1  6  0  0  0
 51 52  1  0  0  0  0
 52 56  2  0  0  0  0
 52 55  1  0  0  0  0
 53 58  1  0  0  0  0
 54 53  2  0  0  0  0
 55 57  2  0  0  0  0
 56 54  1  0  0  0  0
 57 53  1  0  0  0  0
 58 63  1  1  0  0  0
 58 59  1  0  0  0  0
 58 61  1  0  0  0  0
 59 61  1  0  0  0  0
 59 60  1  1  0  0  0
 60 62  1  0  0  0  0
 61 62  1  1  0  0  0
 65 64  1  0  0  0  0
 66 65  1  0  0  0  0
M  END
>  <MODEL>
5

>  <REMARK>
 VINA RESULT:      -2.3      3.337     11.045
  Name = 
  22 active torsions:
  status: ('A' for Active; 'I' for Inactive)
    1  A    between atoms: C_1  and  C_34
    2  A    between atoms: N_3  and  C_36
    3  A    between atoms: C_4  and  C_6
    4  A    between atoms: O_5  and  C_34
    5  A    between atoms: O_5  and  O_41
    6  A    between atoms: C_9  and  C_26
    7  A    between atoms: C_9  and  N_60
    8  A    between atoms: CA_10  and  C_14
    9  A    between atoms: CA_10  and  C_15
   10  A    between atoms: CA_10  and  N_64
   11  A    between atoms: C_11  and  C_25
   12  A    between atoms: C_11  and  N_64
   13  A    between atoms: C_13  and  C_58
   14  A    between atoms: C_17  and  C_30
   15  A    between atoms: C_17  and  C_53
   16  A    between atoms: C_21  and  C_24
   17  A    between atoms: C_21  and  C_34
   18  A    between atoms: C_24  and  C_47
   19  A    between atoms: C_25  and  C_30
   20  A    between atoms: C_30  and  C_36
   21  A    between atoms: C_31  and  C_47
   22  A    between atoms: C_53  and  N_60
                            x       y       z     vdW  Elec       q    Type
                         _______ _______ _______ _____ _____    ______ ____

>  <TORSDO>
F 22

$$$$
