=
 OpenBabel11052410183D

 57 63  0  0  1  0  0  0  0  0999 V2000
  157.9730  213.6930  145.5420 C   0  0  0  0  0  0  0  0  0  0  0  0
  162.8510  211.6400  147.9140 N   0  0  0  0  0  2  0  0  0  0  0  0
  163.6940  213.3820  146.6080 C   0  0  0  0  0  2  0  0  0  0  0  0
  161.2380  213.6130  144.6120 C   0  0  0  0  0  2  0  0  0  0  0  0
  162.2840  213.7240  146.9720 C   0  0  1  0  0  3  0  0  0  0  0  0
  158.2160  213.1780  147.8550 C   0  0  0  0  0  0  0  0  0  0  0  0
  161.5150  214.4530  145.8610 C   0  0  0  0  0  2  0  0  0  0  0  0
  159.6050  212.7550  150.5510 C   0  0  0  0  0  3  0  0  0  0  0  0
  160.0050  214.1470  143.8720 C   0  0  2  0  0  3  0  0  0  0  0  0
  159.2810  212.4830  147.5800 N   0  0  0  0  0  0  0  0  0  0  0  0
  160.5470  212.4710  148.2450 C   0  0  0  0  0  0  0  0  0  0  0  0
  158.8140  213.9300  144.7130 C   0  0  0  0  0  0  0  0  0  0  0  0
  164.0340  212.1630  147.3440 N   0  0  0  0  0  2  0  0  0  0  0  0
  157.2030  213.3150  146.7390 C   0  0  1  0  0  3  0  0  0  0  0  0
  158.1890  214.1000  149.0370 C   0  0  0  0  0  2  0  0  0  0  0  0
  158.4410  213.3620  150.3080 C   0  0  0  0  0  0  0  0  0  0  0  0
  161.7370  212.3770  147.3370 C   0  0  2  0  0  3  0  0  0  0  0  0
  160.6930  212.5830  149.5730 C   0  0  0  0  0  3  0  0  0  0  0  0
  161.1010  212.7040  140.4240 C   0  0  2  0  0  3  0  0  0  0  0  0
  158.6810  212.7880  142.1650 C   0  0  0  0  0  2  0  0  0  0  0  0
  159.2550  214.1950  139.5560 N   0  0  0  0  0  2  0  0  0  0  0  0
  160.1890  213.0880  139.3250 C   0  0  1  0  0  0  0  0  0  0  0  0
  157.7280  213.7160  141.4210 C   0  0  0  0  0  2  0  0  0  0  0  0
  161.0300  213.5620  141.6630 C   0  0  0  0  0  0  0  0  0  0  0  0
  162.0350  214.2620  141.9760 O   0  0  0  0  0  0  0  0  0  0  0  0
  156.8640  214.4530  139.2230 C   0  0  0  0  0  1  0  0  0  0  0  0
  161.9100  213.6660  139.0530 S   0  0  0  0  0  0  0  0  0  0  0  0
  159.8920  213.5200  142.5470 N   0  0  0  0  0  0  0  0  0  0  0  0
  157.9470  213.6530  139.9180 C   0  0  1  0  0  3  0  0  0  0  0  0
  160.3140  210.8190  138.4240 C   0  0  0  0  0  0  0  0  0  0  0  0
  161.4470  209.2010  139.6650 O   0  0  0  0  0  1  0  0  0  0  0  0
  160.8090  208.7360  137.3040 C   0  0  0  0  0  1  0  0  0  0  0  0
  160.8450  209.6300  138.4900 C   0  0  0  0  0  0  0  0  0  0  0  0
  159.7820  212.0080  138.3650 C   0  0  0  0  0  3  0  0  0  0  0  0
  157.4220  213.4540  151.3960 C   0  0  0  0  0  2  0  0  0  0  0  0
  157.8260  214.4320  152.3950 N   0  0  0  0  0  2  0  0  0  0  0  0
  158.9600  213.9130  153.0400 N   0  0  0  0  0  2  0  0  0  0  0  0
  158.5120  212.7800  153.8400 C   0  0  0  0  0  2  0  0  0  0  0  0
  155.9120  211.0830  154.4390 C   0  0  0  0  0  2  0  0  0  0  0  0
  156.4970  213.9250  157.2600 S   0  0  0  0  0  0  0  0  0  0  0  0
  155.6290  212.6370  156.3290 C   0  0  1  0  0  3  0  0  0  0  0  0
  155.2310  209.9720  155.2460 C   0  0  0  0  0  2  0  0  0  0  0  0
  156.6410  212.0050  155.4090 C   0  0  2  0  0  3  0  0  0  0  0  0
  155.0080  211.5630  157.2080 C   0  0  0  0  0  2  0  0  0  0  0  0
  154.2840  210.5550  156.3080 C   0  0  0  0  0  2  0  0  0  0  0  0
  157.3480  213.1730  154.7600 C   0  0  1  0  0  3  0  0  0  0  0  0
  157.6760  214.1850  155.8760 C   0  0  2  0  0  3  0  0  0  0  0  0
  159.1040  214.0650  156.4060 C   0  0  0  0  0  2  0  0  0  0  0  0
  159.2890  212.7890  157.2080 C   0  0  0  0  0  2  0  0  0  0  0  0
  160.3940  212.0790  156.7350 O   0  0  0  0  0  1  0  0  0  0  0  0
  156.1180  214.3470  147.0280 C   0  0  0  0  0  2  0  0  0  0  0  0
  154.8300  213.9760  146.3130 C   0  0  0  0  0  2  0  0  0  0  0  0
  155.0250  214.0300  144.8090 C   0  0  0  0  0  2  0  0  0  0  0  0
  153.7480  214.2480  144.1480 N   0  0  0  0  0  2  0  0  0  0  0  0
  153.6220  214.2270  142.7240 C   0  0  0  0  0  0  0  0  0  0  0  0
  152.3790  214.4300  142.1420 O   0  0  0  0  0  1  0  0  0  0  0  0
  154.6290  214.0210  141.9890 O   0  0  0  0  0  0  0  0  0  0  0  0
  1 14  1  0  0  0  0
  3  5  1  0  0  0  0
  3 13  1  0  0  0  0
  4  7  1  0  0  0  0
  5  7  1  6  0  0  0
  5 17  1  0  0  0  0
  6 15  1  0  0  0  0
  9 28  1  6  0  0  0
  9  4  1  0  0  0  0
  9 12  1  0  0  0  0
 10  6  2  0  0  0  0
 10 11  1  0  0  0  0
 11 18  2  0  0  0  0
 12  1  3  0  0  0  0
 13  2  1  0  0  0  0
 14 51  1  1  0  0  0
 14  6  1  0  0  0  0
 15 16  1  0  0  0  0
 16  8  2  0  0  0  0
 16 35  1  0  0  0  0
 17  2  1  1  0  0  0
 17 11  1  0  0  0  0
 18  8  1  0  0  0  0
 19 27  1  6  0  0  0
 19 24  1  0  0  0  0
 20 28  1  0  0  0  0
 21 29  1  0  0  0  0
 22 34  1  6  0  0  0
 22 21  1  0  0  0  0
 22 19  1  0  0  0  0
 23 20  1  0  0  0  0
 24 25  2  0  0  0  0
 24 28  1  0  0  0  0
 27 22  1  0  0  0  0
 29 26  1  6  0  0  0
 29 23  1  0  0  0  0
 30 33  2  0  0  0  0
 32 33  1  0  0  0  0
 33 31  1  0  0  0  0
 34 30  2  0  0  0  0
 35 36  1  0  0  0  0
 36 37  1  0  0  0  0
 37 38  1  0  0  0  0
 39 42  1  0  0  0  0
 41 44  1  1  0  0  0
 41 40  1  0  0  0  0
 42 45  1  0  0  0  0
 43 39  1  6  0  0  0
 43 41  1  0  0  0  0
 45 44  1  0  0  0  0
 46 38  1  1  0  0  0
 46 43  1  0  0  0  0
 46 47  1  0  0  0  0
 47 48  1  1  0  0  0
 47 40  1  0  0  0  0
 48 49  1  0  0  0  0
 50 49  1  0  0  0  0
 52 51  1  0  0  0  0
 53 52  1  0  0  0  0
 54 53  1  0  0  0  0
 55 54  1  0  0  0  0
 56 55  1  0  0  0  0
 57 55  2  0  0  0  0
M  END
>  <MODEL>
1

>  <REMARK>
 VINA RESULT:      -1.5      0.000      0.000
  Name = 
  13 active torsions:
  status: ('A' for Active; 'I' for Inactive)
    1  A    between atoms: N_2  and  C_27
    2  A    between atoms: N_5  and  C_22
    3  A    between atoms: N_5  and  N_48
    4  A    between atoms: C_9  and  C_26
    5  A    between atoms: C_14  and  C_27
    6  A    between atoms: C_14  and  C_50
    7  A    between atoms: C_22  and  C_54
    8  A    between atoms: C_23  and  C_46
    9  A    between atoms: C_26  and  C_52
   10  A    between atoms: C_30  and  N_53
   11  A    between atoms: C_43  and  C_50
   12  A    between atoms: C_44  and  C_47
   13  A    between atoms: C_44  and  N_48
                            x       y       z     vdW  Elec       q    Type
                         _______ _______ _______ _____ _____    ______ ____

>  <TORSDO>
F 13

$$$$
=
 OpenBabel11052410183D

 57 63  0  0  1  0  0  0  0  0999 V2000
  161.1900  208.6740  151.5030 C   0  0  0  0  0  0  0  0  0  0  0  0
  159.0800  206.9150  156.6120 N   0  0  0  0  0  2  0  0  0  0  0  0
  160.9340  205.5120  156.3920 C   0  0  0  0  0  2  0  0  0  0  0  0
  161.2550  205.7600  153.2450 C   0  0  0  0  0  2  0  0  0  0  0  0
  161.2150  206.7660  155.6250 C   0  0  1  0  0  3  0  0  0  0  0  0
  160.5110  210.1520  153.2450 C   0  0  0  0  0  0  0  0  0  0  0  0
  162.0070  206.5350  154.3290 C   0  0  0  0  0  2  0  0  0  0  0  0
  159.9220  211.1290  156.0860 C   0  0  0  0  0  3  0  0  0  0  0  0
  161.8140  206.1040  151.8580 C   0  0  2  0  0  3  0  0  0  0  0  0
  159.8630  209.1750  153.8100 N   0  0  0  0  0  0  0  0  0  0  0  0
  159.8310  208.7900  155.1870 C   0  0  0  0  0  0  0  0  0  0  0  0
  161.5070  207.5140  151.5570 C   0  0  0  0  0  0  0  0  0  0  0  0
  159.6720  205.7290  157.1030 N   0  0  0  0  0  2  0  0  0  0  0  0
  160.7060  210.0440  151.7480 C   0  0  1  0  0  3  0  0  0  0  0  0
  161.3420  211.0920  154.0640 C   0  0  0  0  0  2  0  0  0  0  0  0
  160.5170  211.7910  155.0920 C   0  0  0  0  0  0  0  0  0  0  0  0
  159.8330  207.3100  155.4310 C   0  0  2  0  0  3  0  0  0  0  0  0
  159.8480  209.6620  156.2050 C   0  0  0  0  0  3  0  0  0  0  0  0
  160.5340  202.7750  150.2920 C   0  0  2  0  0  3  0  0  0  0  0  0
  160.6580  205.6780  149.6230 C   0  0  0  0  0  2  0  0  0  0  0  0
  162.1950  203.3460  148.4750 N   0  0  0  0  0  2  0  0  0  0  0  0
  161.0480  202.5500  148.9230 C   0  0  1  0  0  0  0  0  0  0  0  0
  161.6920  205.7520  148.5050 C   0  0  0  0  0  2  0  0  0  0  0  0
  161.3110  203.7610  151.1280 C   0  0  0  0  0  0  0  0  0  0  0  0
  161.9230  203.3410  152.1520 O   0  0  0  0  0  0  0  0  0  0  0  0
  162.6260  204.6700  146.4870 C   0  0  0  0  0  1  0  0  0  0  0  0
  161.5300  201.2170  150.0900 S   0  0  0  0  0  0  0  0  0  0  0  0
  161.2840  205.1750  150.8490 N   0  0  0  0  0  0  0  0  0  0  0  0
  161.7140  204.4750  147.6810 C   0  0  1  0  0  3  0  0  0  0  0  0
  160.4150  201.2580  146.9460 C   0  0  0  0  0  0  0  0  0  0  0  0
  161.8960  199.6320  146.1710 O   0  0  0  0  0  1  0  0  0  0  0  0
  159.9740  200.3380  144.7550 C   0  0  0  0  0  1  0  0  0  0  0  0
  160.7710  200.4280  146.0060 C   0  0  0  0  0  0  0  0  0  0  0  0
  160.0620  202.0860  147.8910 C   0  0  0  0  0  3  0  0  0  0  0  0
  160.5050  213.2840  155.0960 C   0  0  0  0  0  2  0  0  0  0  0  0
  159.7080  213.7870  156.2060 N   0  0  0  0  0  2  0  0  0  0  0  0
  158.6040  214.4510  155.6500 N   0  0  0  0  0  2  0  0  0  0  0  0
  158.5130  214.0310  154.2580 C   0  0  0  0  0  2  0  0  0  0  0  0
  157.8340  214.4470  151.1970 C   0  0  0  0  0  2  0  0  0  0  0  0
  154.4900  213.7390  153.3640 S   0  0  0  0  0  0  0  0  0  0  0  0
  155.4960  214.2210  151.9370 C   0  0  1  0  0  3  0  0  0  0  0  0
  157.4680  213.8320  149.8420 C   0  0  0  0  0  2  0  0  0  0  0  0
  156.9200  213.8490  152.2600 C   0  0  2  0  0  3  0  0  0  0  0  0
  155.0790  213.5420  150.6420 C   0  0  0  0  0  2  0  0  0  0  0  0
  155.9830  214.0520  149.5130 C   0  0  0  0  0  2  0  0  0  0  0  0
  157.1440  214.3790  153.6580 C   0  0  1  0  0  3  0  0  0  0  0  0
  155.9140  213.9850  154.4990 C   0  0  2  0  0  3  0  0  0  0  0  0
  156.1210  212.7150  155.3230 C   0  0  0  0  0  2  0  0  0  0  0  0
  155.5910  212.8820  156.7370 C   0  0  0  0  0  2  0  0  0  0  0  0
  155.1800  214.2000  156.9440 O   0  0  0  0  0  1  0  0  0  0  0  0
  161.6890  211.0680  151.1900 C   0  0  0  0  0  2  0  0  0  0  0  0
  162.4850  210.4680  150.0430 C   0  0  0  0  0  2  0  0  0  0  0  0
  161.8780  210.8680  148.7110 C   0  0  0  0  0  2  0  0  0  0  0  0
  161.4820  212.2670  148.7440 N   0  0  0  0  0  2  0  0  0  0  0  0
  160.8600  212.9020  147.6240 C   0  0  0  0  0  0  0  0  0  0  0  0
  160.4910  214.2370  147.7100 O   0  0  0  0  0  1  0  0  0  0  0  0
  160.6390  212.2600  146.5590 O   0  0  0  0  0  0  0  0  0  0  0  0
  1 12  3  0  0  0  0
  1 14  1  0  0  0  0
  2 13  1  0  0  0  0
  3 13  1  0  0  0  0
  4  7  1  0  0  0  0
  5  7  1  6  0  0  0
  5  3  1  0  0  0  0
  6 10  2  0  0  0  0
  6 15  1  0  0  0  0
  8 18  1  0  0  0  0
  9 28  1  6  0  0  0
  9  4  1  0  0  0  0
 10 11  1  0  0  0  0
 11 18  2  0  0  0  0
 12  9  1  0  0  0  0
 14 51  1  1  0  0  0
 14  6  1  0  0  0  0
 15 16  1  0  0  0  0
 16 35  1  0  0  0  0
 16  8  2  0  0  0  0
 17 11  1  1  0  0  0
 17  5  1  0  0  0  0
 17  2  1  0  0  0  0
 19 27  1  1  0  0  0
 19 24  1  0  0  0  0
 20 28  1  0  0  0  0
 21 22  1  0  0  0  0
 22 34  1  6  0  0  0
 22 27  1  0  0  0  0
 22 19  1  0  0  0  0
 23 20  1  0  0  0  0
 24 25  2  0  0  0  0
 28 24  1  0  0  0  0
 29 26  1  6  0  0  0
 29 21  1  0  0  0  0
 29 23  1  0  0  0  0
 30 34  2  0  0  0  0
 32 33  1  0  0  0  0
 33 31  1  0  0  0  0
 33 30  2  0  0  0  0
 35 36  1  0  0  0  0
 37 36  1  0  0  0  0
 38 37  1  0  0  0  0
 40 47  1  0  0  0  0
 41 44  1  6  0  0  0
 41 43  1  0  0  0  0
 41 40  1  0  0  0  0
 42 39  1  0  0  0  0
 43 39  1  6  0  0  0
 43 46  1  0  0  0  0
 45 42  1  0  0  0  0
 45 44  1  0  0  0  0
 46 38  1  1  0  0  0
 46 47  1  0  0  0  0
 47 48  1  6  0  0  0
 48 49  1  0  0  0  0
 49 50  1  0  0  0  0
 52 51  1  0  0  0  0
 53 54  1  0  0  0  0
 53 52  1  0  0  0  0
 55 56  1  0  0  0  0
 55 54  1  0  0  0  0
 57 55  2  0  0  0  0
M  END
>  <MODEL>
2

>  <REMARK>
 VINA RESULT:      -1.0      6.418      9.590
  Name = 
  13 active torsions:
  status: ('A' for Active; 'I' for Inactive)
    1  A    between atoms: N_2  and  C_27
    2  A    between atoms: N_5  and  C_22
    3  A    between atoms: N_5  and  N_48
    4  A    between atoms: C_9  and  C_26
    5  A    between atoms: C_14  and  C_27
    6  A    between atoms: C_14  and  C_50
    7  A    between atoms: C_22  and  C_54
    8  A    between atoms: C_23  and  C_46
    9  A    between atoms: C_26  and  C_52
   10  A    between atoms: C_30  and  N_53
   11  A    between atoms: C_43  and  C_50
   12  A    between atoms: C_44  and  C_47
   13  A    between atoms: C_44  and  N_48
                            x       y       z     vdW  Elec       q    Type
                         _______ _______ _______ _____ _____    ______ ____

>  <TORSDO>
F 13

$$$$
=
 OpenBabel11052410183D

 57 63  0  0  1  0  0  0  0  0999 V2000
  161.2300  209.2620  151.3820 C   0  0  0  0  0  0  0  0  0  0  0  0
  159.1240  207.3150  156.4230 N   0  0  0  0  0  2  0  0  0  0  0  0
  161.2950  206.4560  156.4890 C   0  0  0  0  0  2  0  0  0  0  0  0
  161.8750  206.5880  153.3720 C   0  0  0  0  0  2  0  0  0  0  0  0
  161.3160  207.6890  155.6420 C   0  0  1  0  0  3  0  0  0  0  0  0
  160.0020  210.6040  152.9210 C   0  0  0  0  0  0  0  0  0  0  0  0
  162.2740  207.6040  154.4460 C   0  0  0  0  0  2  0  0  0  0  0  0
  158.8750  211.5570  155.6030 C   0  0  0  0  0  3  0  0  0  0  0  0
  162.4680  206.9850  152.0140 C   0  0  2  0  0  3  0  0  0  0  0  0
  159.5790  209.5250  153.5110 N   0  0  0  0  0  0  0  0  0  0  0  0
  159.5010  209.2310  154.9090 C   0  0  0  0  0  0  0  0  0  0  0  0
  161.8350  208.2370  151.5650 C   0  0  0  0  0  0  0  0  0  0  0  0
  159.9520  206.3660  157.0660 N   0  0  0  0  0  2  0  0  0  0  0  0
  160.3780  210.4610  151.4620 C   0  0  1  0  0  3  0  0  0  0  0  0
  160.4630  211.7830  153.7230 C   0  0  0  0  0  2  0  0  0  0  0  0
  159.3770  212.2950  154.6100 C   0  0  0  0  0  0  0  0  0  0  0  0
  159.8680  207.8250  155.2810 C   0  0  2  0  0  3  0  0  0  0  0  0
  159.1780  210.1360  155.8440 C   0  0  0  0  0  3  0  0  0  0  0  0
  162.0450  205.1870  148.5840 C   0  0  2  0  0  3  0  0  0  0  0  0
  162.6200  204.5050  151.4300 C   0  0  0  0  0  2  0  0  0  0  0  0
  160.1420  204.0260  149.7730 N   0  0  0  0  0  2  0  0  0  0  0  0
  161.0620  204.0830  148.6330 C   0  0  1  0  0  0  0  0  0  0  0  0
  161.3510  203.8040  151.9020 C   0  0  0  0  0  2  0  0  0  0  0  0
  161.9400  206.2050  149.6940 C   0  0  0  0  0  0  0  0  0  0  0  0
  161.6050  207.3890  149.4020 O   0  0  0  0  0  0  0  0  0  0  0  0
  159.5100  202.2600  151.3140 C   0  0  0  0  0  1  0  0  0  0  0  0
  160.6040  205.3870  147.4260 S   0  0  0  0  0  0  0  0  0  0  0  0
  162.3140  205.8870  151.0490 N   0  0  0  0  0  0  0  0  0  0  0  0
  160.6580  203.0790  150.7600 C   0  0  1  0  0  3  0  0  0  0  0  0
  160.9520  202.4510  146.8150 C   0  0  0  0  0  0  0  0  0  0  0  0
  159.9190  203.0880  144.8230 O   0  0  0  0  0  1  0  0  0  0  0  0
  160.4570  200.6920  145.2340 C   0  0  0  0  0  1  0  0  0  0  0  0
  160.4550  202.1160  145.6580 C   0  0  0  0  0  0  0  0  0  0  0  0
  161.4510  202.7930  147.9720 C   0  0  0  0  0  3  0  0  0  0  0  0
  158.9710  213.7250  154.4810 C   0  0  0  0  0  2  0  0  0  0  0  0
  157.6900  213.8340  153.7970 N   0  0  0  0  0  2  0  0  0  0  0  0
  157.9380  214.4520  152.5610 N   0  0  0  0  0  2  0  0  0  0  0  0
  157.6510  213.4660  151.5280 C   0  0  0  0  0  2  0  0  0  0  0  0
  158.5880  213.2690  148.5140 C   0  0  0  0  0  2  0  0  0  0  0  0
  154.7180  214.4230  148.7810 S   0  0  0  0  0  0  0  0  0  0  0  0
  156.3280  214.1110  148.0130 C   0  0  1  0  0  3  0  0  0  0  0  0
  158.5950  212.4920  147.1930 C   0  0  0  0  0  2  0  0  0  0  0  0
  157.1520  213.3490  149.0180 C   0  0  2  0  0  3  0  0  0  0  0  0
  156.2410  213.3100  146.7230 C   0  0  0  0  0  2  0  0  0  0  0  0
  157.6580  213.1380  146.1610 C   0  0  0  0  0  2  0  0  0  0  0  0
  156.9770  214.1130  150.3100 C   0  0  1  0  0  3  0  0  0  0  0  0
  155.4750  214.4290  150.4550 C   0  0  2  0  0  3  0  0  0  0  0  0
  154.7270  213.4390  151.3460 C   0  0  0  0  0  2  0  0  0  0  0  0
  154.2770  214.0930  152.6410 C   0  0  0  0  0  2  0  0  0  0  0  0
  155.0400  213.6190  153.7100 O   0  0  0  0  0  1  0  0  0  0  0  0
  161.1100  211.6770  150.9030 C   0  0  0  0  0  2  0  0  0  0  0  0
  162.1230  211.2510  149.8540 C   0  0  0  0  0  2  0  0  0  0  0  0
  161.6520  211.6550  148.4690 C   0  0  0  0  0  2  0  0  0  0  0  0
  162.4580  212.7590  147.9710 N   0  0  0  0  0  2  0  0  0  0  0  0
  162.3760  213.2000  146.6140 C   0  0  0  0  0  0  0  0  0  0  0  0
  163.1590  214.2650  146.1910 O   0  0  0  0  0  1  0  0  0  0  0  0
  161.5980  212.6340  145.7960 O   0  0  0  0  0  0  0  0  0  0  0  0
  1 14  1  0  0  0  0
  1 12  3  0  0  0  0
  2 13  1  0  0  0  0
  3 13  1  0  0  0  0
  4  7  1  0  0  0  0
  5  7  1  6  0  0  0
  5  3  1  0  0  0  0
  6 10  2  0  0  0  0
  6 15  1  0  0  0  0
  8 18  1  0  0  0  0
  9 28  1  6  0  0  0
  9  4  1  0  0  0  0
 10 11  1  0  0  0  0
 11 18  2  0  0  0  0
 12  9  1  0  0  0  0
 14 51  1  1  0  0  0
 14  6  1  0  0  0  0
 15 16  1  0  0  0  0
 16  8  2  0  0  0  0
 17 11  1  1  0  0  0
 17  5  1  0  0  0  0
 17  2  1  0  0  0  0
 19 27  1  6  0  0  0
 19 22  1  0  0  0  0
 19 24  1  0  0  0  0
 20 23  1  0  0  0  0
 21 29  1  0  0  0  0
 22 34  1  6  0  0  0
 22 21  1  0  0  0  0
 24 28  1  0  0  0  0
 25 24  2  0  0  0  0
 27 22  1  0  0  0  0
 28 20  1  0  0  0  0
 29 26  1  1  0  0  0
 29 23  1  0  0  0  0
 30 34  2  0  0  0  0
 31 33  1  0  0  0  0
 32 33  1  0  0  0  0
 33 30  2  0  0  0  0
 35 16  1  0  0  0  0
 36 35  1  0  0  0  0
 37 36  1  0  0  0  0
 38 37  1  0  0  0  0
 40 47  1  0  0  0  0
 41 44  1  6  0  0  0
 41 40  1  0  0  0  0
 41 43  1  0  0  0  0
 42 39  1  0  0  0  0
 43 39  1  6  0  0  0
 43 46  1  0  0  0  0
 45 44  1  0  0  0  0
 45 42  1  0  0  0  0
 46 47  1  0  0  0  0
 46 38  1  1  0  0  0
 47 48  1  1  0  0  0
 48 49  1  0  0  0  0
 49 50  1  0  0  0  0
 52 51  1  0  0  0  0
 53 52  1  0  0  0  0
 54 53  1  0  0  0  0
 55 54  1  0  0  0  0
 56 55  1  0  0  0  0
 57 55  2  0  0  0  0
M  END
>  <MODEL>
3

>  <REMARK>
 VINA RESULT:      -0.8      5.920      9.655
  Name = 
  13 active torsions:
  status: ('A' for Active; 'I' for Inactive)
    1  A    between atoms: N_2  and  C_27
    2  A    between atoms: N_5  and  C_22
    3  A    between atoms: N_5  and  N_48
    4  A    between atoms: C_9  and  C_26
    5  A    between atoms: C_14  and  C_27
    6  A    between atoms: C_14  and  C_50
    7  A    between atoms: C_22  and  C_54
    8  A    between atoms: C_23  and  C_46
    9  A    between atoms: C_26  and  C_52
   10  A    between atoms: C_30  and  N_53
   11  A    between atoms: C_43  and  C_50
   12  A    between atoms: C_44  and  C_47
   13  A    between atoms: C_44  and  N_48
                            x       y       z     vdW  Elec       q    Type
                         _______ _______ _______ _____ _____    ______ ____

>  <TORSDO>
F 13

$$$$
=
 OpenBabel11052410183D

 57 63  0  0  1  0  0  0  0  0999 V2000
  158.2900  213.3520  145.1640 C   0  0  0  0  0  0  0  0  0  0  0  0
  163.1900  211.7100  147.7960 N   0  0  0  0  0  2  0  0  0  0  0  0
  163.9630  213.4870  146.4930 C   0  0  0  0  0  2  0  0  0  0  0  0
  161.5920  213.4990  144.3840 C   0  0  0  0  0  2  0  0  0  0  0  0
  162.5160  213.7290  146.7860 C   0  0  1  0  0  3  0  0  0  0  0  0
  158.4620  212.8970  147.4960 C   0  0  0  0  0  0  0  0  0  0  0  0
  161.7480  214.3790  145.6260 C   0  0  0  0  0  2  0  0  0  0  0  0
  159.7510  212.6260  150.2590 C   0  0  0  0  0  3  0  0  0  0  0  0
  160.3580  213.9270  143.5780 C   0  0  2  0  0  3  0  0  0  0  0  0
  159.5870  212.2790  147.2840 N   0  0  0  0  0  0  0  0  0  0  0  0
  160.8190  212.3720  148.0060 C   0  0  0  0  0  0  0  0  0  0  0  0
  159.1490  213.6360  144.3680 C   0  0  0  0  0  0  0  0  0  0  0  0
  164.3570  212.3100  147.2690 N   0  0  0  0  0  2  0  0  0  0  0  0
  157.4950  212.9380  146.3330 C   0  0  1  0  0  3  0  0  0  0  0  0
  158.3130  213.8350  148.6550 C   0  0  0  0  0  2  0  0  0  0  0  0
  158.5580  213.1400  149.9520 C   0  0  0  0  0  0  0  0  0  0  0  0
  162.0530  212.3520  147.1540 C   0  0  2  0  0  3  0  0  0  0  0  0
  160.8940  212.5190  149.3360 C   0  0  0  0  0  3  0  0  0  0  0  0
  161.7350  212.2280  140.3540 C   0  0  2  0  0  3  0  0  0  0  0  0
  159.1240  212.6830  141.7220 C   0  0  0  0  0  2  0  0  0  0  0  0
  160.2420  213.9070  139.1980 N   0  0  0  0  0  2  0  0  0  0  0  0
  161.0460  212.6830  139.1270 C   0  0  1  0  0  0  0  0  0  0  0  0
  158.4150  213.6960  140.8300 C   0  0  0  0  0  2  0  0  0  0  0  0
  161.6010  213.1340  141.5530 C   0  0  0  0  0  0  0  0  0  0  0  0
  162.6350  213.7130  141.9960 O   0  0  0  0  0  0  0  0  0  0  0  0
  157.9770  214.4530  138.5160 C   0  0  0  0  0  1  0  0  0  0  0  0
  162.8480  213.0280  139.0980 S   0  0  0  0  0  0  0  0  0  0  0  0
  160.3540  213.2690  142.2630 N   0  0  0  0  0  0  0  0  0  0  0  0
  158.8360  213.5490  139.3770 C   0  0  1  0  0  3  0  0  0  0  0  0
  161.1040  210.4120  138.2250 C   0  0  0  0  0  0  0  0  0  0  0  0
  162.0700  208.7330  139.5260 O   0  0  0  0  0  1  0  0  0  0  0  0
  161.5550  208.3060  137.1280 C   0  0  0  0  0  1  0  0  0  0  0  0
  161.5650  209.1960  138.3170 C   0  0  0  0  0  0  0  0  0  0  0  0
  160.6420  211.6290  138.1380 C   0  0  0  0  0  3  0  0  0  0  0  0
  157.4860  213.1750  150.9900 C   0  0  0  0  0  2  0  0  0  0  0  0
  157.4940  214.4510  151.6920 N   0  0  0  0  0  2  0  0  0  0  0  0
  158.0990  214.2280  152.9390 N   0  0  0  0  0  2  0  0  0  0  0  0
  159.0060  213.0990  152.7760 C   0  0  0  0  0  2  0  0  0  0  0  0
  157.1450  212.8200  155.3170 C   0  0  0  0  0  2  0  0  0  0  0  0
  160.3230  210.3240  155.5380 S   0  0  0  0  0  0  0  0  0  0  0  0
  158.8640  211.2380  156.0990 C   0  0  1  0  0  3  0  0  0  0  0  0
  156.0700  212.0310  156.0730 C   0  0  0  0  0  2  0  0  0  0  0  0
  158.2330  211.8490  154.8740 C   0  0  2  0  0  3  0  0  0  0  0  0
  157.8390  210.3710  156.8130 C   0  0  0  0  0  2  0  0  0  0  0  0
  156.6730  211.2620  157.2590 C   0  0  0  0  0  2  0  0  0  0  0  0
  159.3850  212.4870  154.1310 C   0  0  1  0  0  3  0  0  0  0  0  0
  160.5400  211.4670  154.1160 C   0  0  2  0  0  3  0  0  0  0  0  0
  160.6150  210.6510  152.8260 C   0  0  0  0  0  2  0  0  0  0  0  0
  161.9090  209.8580  152.7500 C   0  0  0  0  0  2  0  0  0  0  0  0
  162.3950  209.8540  151.4420 O   0  0  0  0  0  1  0  0  0  0  0  0
  156.3250  213.8920  146.5500 C   0  0  0  0  0  2  0  0  0  0  0  0
  155.8070  214.4080  145.2190 C   0  0  0  0  0  2  0  0  0  0  0  0
  155.3640  213.2530  144.3400 C   0  0  0  0  0  2  0  0  0  0  0  0
  154.7110  213.7600  143.1420 N   0  0  0  0  0  2  0  0  0  0  0  0
  153.2960  213.9530  143.0790 C   0  0  0  0  0  0  0  0  0  0  0  0
  152.7230  214.4490  141.9170 O   0  0  0  0  0  0  0  0  0  0  0  0
  152.5620  213.6810  144.0700 O   0  0  0  0  0  1  0  0  0  0  0  0
  1 14  1  0  0  0  0
  3  5  1  0  0  0  0
  3 13  1  0  0  0  0
  4  7  1  0  0  0  0
  5  7  1  6  0  0  0
  5 17  1  0  0  0  0
  6 15  1  0  0  0  0
  9 28  1  6  0  0  0
  9 12  1  0  0  0  0
  9  4  1  0  0  0  0
 10  6  2  0  0  0  0
 10 11  1  0  0  0  0
 11 18  2  0  0  0  0
 12  1  3  0  0  0  0
 13  2  1  0  0  0  0
 14 51  1  1  0  0  0
 14  6  1  0  0  0  0
 15 16  1  0  0  0  0
 16  8  2  0  0  0  0
 16 35  1  0  0  0  0
 17  2  1  1  0  0  0
 17 11  1  0  0  0  0
 18  8  1  0  0  0  0
 19 27  1  6  0  0  0
 19 24  1  0  0  0  0
 20 28  1  0  0  0  0
 21 29  1  0  0  0  0
 22 34  1  6  0  0  0
 22 21  1  0  0  0  0
 22 19  1  0  0  0  0
 23 20  1  0  0  0  0
 24 25  2  0  0  0  0
 24 28  1  0  0  0  0
 27 22  1  0  0  0  0
 29 26  1  6  0  0  0
 29 23  1  0  0  0  0
 30 33  2  0  0  0  0
 32 33  1  0  0  0  0
 33 31  1  0  0  0  0
 34 30  2  0  0  0  0
 35 36  1  0  0  0  0
 36 37  1  0  0  0  0
 38 37  1  0  0  0  0
 39 42  1  0  0  0  0
 40 41  1  0  0  0  0
 41 44  1  6  0  0  0
 42 45  1  0  0  0  0
 43 39  1  1  0  0  0
 43 41  1  0  0  0  0
 44 45  1  0  0  0  0
 46 38  1  6  0  0  0
 46 43  1  0  0  0  0
 47 48  1  6  0  0  0
 47 46  1  0  0  0  0
 47 40  1  0  0  0  0
 49 48  1  0  0  0  0
 50 49  1  0  0  0  0
 52 51  1  0  0  0  0
 53 52  1  0  0  0  0
 54 53  1  0  0  0  0
 55 54  1  0  0  0  0
 55 57  1  0  0  0  0
 56 55  2  0  0  0  0
M  END
>  <MODEL>
4

>  <REMARK>
 VINA RESULT:       0.5      1.610      2.016
  Name = 
  13 active torsions:
  status: ('A' for Active; 'I' for Inactive)
    1  A    between atoms: N_2  and  C_27
    2  A    between atoms: N_5  and  C_22
    3  A    between atoms: N_5  and  N_48
    4  A    between atoms: C_9  and  C_26
    5  A    between atoms: C_14  and  C_27
    6  A    between atoms: C_14  and  C_50
    7  A    between atoms: C_22  and  C_54
    8  A    between atoms: C_23  and  C_46
    9  A    between atoms: C_26  and  C_52
   10  A    between atoms: C_30  and  N_53
   11  A    between atoms: C_43  and  C_50
   12  A    between atoms: C_44  and  C_47
   13  A    between atoms: C_44  and  N_48
                            x       y       z     vdW  Elec       q    Type
                         _______ _______ _______ _____ _____    ______ ____

>  <TORSDO>
F 13

$$$$
=
 OpenBabel11052410183D

 57 63  0  0  1  0  0  0  0  0999 V2000
  160.0800  207.9420  154.3200 C   0  0  0  0  0  0  0  0  0  0  0  0
  161.3470  208.3820  148.6770 N   0  0  0  0  0  2  0  0  0  0  0  0
  162.6070  210.1420  149.5520 C   0  0  0  0  0  2  0  0  0  0  0  0
  160.9940  210.4840  152.2630 C   0  0  0  0  0  2  0  0  0  0  0  0
  162.4500  209.1120  150.6270 C   0  0  1  0  0  3  0  0  0  0  0  0
  160.6720  206.0930  152.9390 C   0  0  0  0  0  0  0  0  0  0  0  0
  162.2920  209.7050  152.0350 C   0  0  0  0  0  2  0  0  0  0  0  0
  161.9640  204.5640  150.6220 C   0  0  0  0  0  3  0  0  0  0  0  0
  160.6310  210.4900  153.7540 C   0  0  2  0  0  3  0  0  0  0  0  0
  160.4330  206.8150  151.8840 N   0  0  0  0  0  0  0  0  0  0  0  0
  161.2080  206.9540  150.6900 C   0  0  0  0  0  0  0  0  0  0  0  0
  160.2930  209.1170  154.1680 C   0  0  0  0  0  0  0  0  0  0  0  0
  162.0390  209.5640  148.3320 N   0  0  0  0  0  2  0  0  0  0  0  0
  159.9250  206.4820  154.1960 C   0  0  1  0  0  3  0  0  0  0  0  0
  161.8850  205.2140  153.0050 C   0  0  0  0  0  2  0  0  0  0  0  0
  161.8860  204.2060  151.9060 C   0  0  0  0  0  0  0  0  0  0  0  0
  161.2640  208.3440  150.1300 C   0  0  2  0  0  3  0  0  0  0  0  0
  161.8860  205.9470  150.1200 C   0  0  0  0  0  3  0  0  0  0  0  0
  158.8680  213.7760  154.8820 C   0  0  2  0  0  3  0  0  0  0  0  0
  158.2290  211.2740  153.3900 C   0  0  0  0  0  2  0  0  0  0  0  0
  157.3660  212.1790  156.1390 N   0  0  0  0  0  2  0  0  0  0  0  0
  157.6090  213.5280  155.6180 C   0  0  1  0  0  0  0  0  0  0  0  0
  157.3080  210.5100  154.3340 C   0  0  0  0  0  2  0  0  0  0  0  0
  159.8260  212.6120  154.8140 C   0  0  0  0  0  0  0  0  0  0  0  0
  160.9400  212.7070  155.4050 O   0  0  0  0  0  0  0  0  0  0  0  0
  155.4820  210.6550  155.9960 C   0  0  0  0  0  1  0  0  0  0  0  0
  158.8420  214.4530  156.6140 S   0  0  0  0  0  0  0  0  0  0  0  0
  159.5460  211.4490  154.0110 N   0  0  0  0  0  0  0  0  0  0  0  0
  156.5000  211.4540  155.2100 C   0  0  1  0  0  3  0  0  0  0  0  0
  155.5330  213.9330  154.3920 C   0  0  0  0  0  0  0  0  0  0  0  0
  154.5260  212.1310  153.3040 O   0  0  0  0  0  1  0  0  0  0  0  0
  153.7640  214.4530  152.8310 C   0  0  0  0  0  1  0  0  0  0  0  0
  154.6450  213.4940  153.5440 C   0  0  0  0  0  0  0  0  0  0  0  0
  156.4220  214.3660  155.2430 C   0  0  0  0  0  3  0  0  0  0  0  0
  161.9710  202.7600  152.2690 C   0  0  0  0  0  2  0  0  0  0  0  0
  162.2340  201.9500  151.0890 N   0  0  0  0  0  2  0  0  0  0  0  0
  161.1200  202.0830  150.2440 N   0  0  0  0  0  2  0  0  0  0  0  0
  161.3430  201.2030  149.1050 C   0  0  0  0  0  2  0  0  0  0  0  0
  161.4580  204.0780  147.7950 C   0  0  0  0  0  2  0  0  0  0  0  0
  159.9680  201.3420  145.2120 S   0  0  0  0  0  0  0  0  0  0  0  0
  160.3850  202.9760  145.8710 C   0  0  1  0  0  3  0  0  0  0  0  0
  162.1590  205.0580  146.8470 C   0  0  0  0  0  2  0  0  0  0  0  0
  161.2740  202.7520  147.0660 C   0  0  2  0  0  3  0  0  0  0  0  0
  161.1020  203.8710  144.8710 C   0  0  0  0  0  2  0  0  0  0  0  0
  161.3730  205.2260  145.5370 C   0  0  0  0  0  2  0  0  0  0  0  0
  160.5700  201.6820  147.8690 C   0  0  1  0  0  3  0  0  0  0  0  0
  160.1250  200.5870  146.8800 C   0  0  2  0  0  3  0  0  0  0  0  0
  161.0900  199.4050  146.8050 C   0  0  0  0  0  2  0  0  0  0  0  0
  161.0460  198.7440  145.4380 C   0  0  0  0  0  2  0  0  0  0  0  0
  162.0990  197.8350  145.3090 O   0  0  0  0  0  1  0  0  0  0  0  0
  160.4380  205.7800  155.4490 C   0  0  0  0  0  2  0  0  0  0  0  0
  160.0860  206.5830  156.6890 C   0  0  0  0  0  2  0  0  0  0  0  0
  161.2980  207.3470  157.1870 C   0  0  0  0  0  2  0  0  0  0  0  0
  161.0050  208.7720  157.2340 N   0  0  0  0  0  2  0  0  0  0  0  0
  162.0390  209.7570  157.1710 C   0  0  0  0  0  0  0  0  0  0  0  0
  161.7060  211.1040  157.2090 O   0  0  0  0  0  1  0  0  0  0  0  0
  163.2510  209.4160  157.0780 O   0  0  0  0  0  0  0  0  0  0  0  0
  5  3  1  6  0  0  0
  5  7  1  0  0  0  0
  6 15  1  0  0  0  0
  6 14  1  0  0  0  0
  7  4  1  0  0  0  0
  8 16  2  0  0  0  0
  9  4  1  6  0  0  0
  9 28  1  0  0  0  0
  9 12  1  0  0  0  0
 10  6  2  0  0  0  0
 11 10  1  0  0  0  0
 12  1  3  0  0  0  0
 13  2  1  0  0  0  0
 13  3  1  0  0  0  0
 14  1  1  0  0  0  0
 14 51  1  1  0  0  0
 16 35  1  0  0  0  0
 16 15  1  0  0  0  0
 17  2  1  6  0  0  0
 17  5  1  0  0  0  0
 17 11  1  0  0  0  0
 18  8  1  0  0  0  0
 18 11  2  0  0  0  0
 19 24  1  1  0  0  0
 19 22  1  0  0  0  0
 19 27  1  0  0  0  0
 20 28  1  0  0  0  0
 20 23  1  0  0  0  0
 22 34  1  6  0  0  0
 22 21  1  0  0  0  0
 22 27  1  0  0  0  0
 23 29  1  0  0  0  0
 24 25  2  0  0  0  0
 28 24  1  0  0  0  0
 29 26  1  1  0  0  0
 29 21  1  0  0  0  0
 30 34  2  0  0  0  0
 31 33  1  0  0  0  0
 32 33  1  0  0  0  0
 33 30  2  0  0  0  0
 36 35  1  0  0  0  0
 37 36  1  0  0  0  0
 38 37  1  0  0  0  0
 40 41  1  0  0  0  0
 40 47  1  0  0  0  0
 41 44  1  6  0  0  0
 41 43  1  0  0  0  0
 42 39  1  0  0  0  0
 43 39  1  1  0  0  0
 43 46  1  0  0  0  0
 44 45  1  0  0  0  0
 45 42  1  0  0  0  0
 46 38  1  1  0  0  0
 47 48  1  6  0  0  0
 47 46  1  0  0  0  0
 49 48  1  0  0  0  0
 50 49  1  0  0  0  0
 51 52  1  0  0  0  0
 52 53  1  0  0  0  0
 53 54  1  0  0  0  0
 55 56  1  0  0  0  0
 55 54  1  0  0  0  0
 57 55  2  0  0  0  0
M  END
>  <MODEL>
5

>  <REMARK>
 VINA RESULT:       0.7      7.110     13.469
  Name = 
  13 active torsions:
  status: ('A' for Active; 'I' for Inactive)
    1  A    between atoms: N_2  and  C_27
    2  A    between atoms: N_5  and  C_22
    3  A    between atoms: N_5  and  N_48
    4  A    between atoms: C_9  and  C_26
    5  A    between atoms: C_14  and  C_27
    6  A    between atoms: C_14  and  C_50
    7  A    between atoms: C_22  and  C_54
    8  A    between atoms: C_23  and  C_46
    9  A    between atoms: C_26  and  C_52
   10  A    between atoms: C_30  and  N_53
   11  A    between atoms: C_43  and  C_50
   12  A    between atoms: C_44  and  C_47
   13  A    between atoms: C_44  and  N_48
                            x       y       z     vdW  Elec       q    Type
                         _______ _______ _______ _____ _____    ______ ____

>  <TORSDO>
F 13

$$$$
=
 OpenBabel11052410183D

 57 63  0  0  1  0  0  0  0  0999 V2000
  161.3080  208.8970  152.1540 C   0  0  0  0  0  0  0  0  0  0  0  0
  160.4930  211.3600  146.9670 N   0  0  0  0  0  2  0  0  0  0  0  0
  161.8150  212.9720  148.0190 C   0  0  0  0  0  2  0  0  0  0  0  0
  161.2180  212.0920  151.0090 C   0  0  0  0  0  2  0  0  0  0  0  0
  162.1340  211.6460  148.6340 C   0  0  1  0  0  3  0  0  0  0  0  0
  161.5490  207.7480  150.0810 C   0  0  0  0  0  0  0  0  0  0  0  0
  162.4210  211.7140  150.1410 C   0  0  0  0  0  2  0  0  0  0  0  0
  162.0890  207.3390  147.0950 C   0  0  0  0  0  3  0  0  0  0  0  0
  161.3950  211.5500  152.4330 C   0  0  2  0  0  3  0  0  0  0  0  0
  160.8940  208.7020  149.4850 N   0  0  0  0  0  0  0  0  0  0  0  0
  161.1910  209.3710  148.2560 C   0  0  0  0  0  0  0  0  0  0  0  0
  161.3480  210.0770  152.3910 C   0  0  0  0  0  0  0  0  0  0  0  0
  160.9130  212.7080  146.8960 N   0  0  0  0  0  2  0  0  0  0  0  0
  161.2520  207.5540  151.5520 C   0  0  1  0  0  3  0  0  0  0  0  0
  162.7830  207.1670  149.4600 C   0  0  0  0  0  2  0  0  0  0  0  0
  162.4930  206.5830  148.1180 C   0  0  0  0  0  0  0  0  0  0  0  0
  160.9230  210.8470  148.2580 C   0  0  2  0  0  3  0  0  0  0  0  0
  161.7170  208.7610  147.1850 C   0  0  0  0  0  3  0  0  0  0  0  0
  159.7900  212.9060  155.7130 C   0  0  2  0  0  3  0  0  0  0  0  0
  159.2080  212.8150  152.7890 C   0  0  0  0  0  2  0  0  0  0  0  0
  157.9120  211.3370  155.0810 N   0  0  0  0  0  2  0  0  0  0  0  0
  158.3910  212.4610  155.8930 C   0  0  1  0  0  0  0  0  0  0  0  0
  158.0430  211.8380  152.6780 C   0  0  0  0  0  2  0  0  0  0  0  0
  160.6170  212.0880  154.7520 C   0  0  0  0  0  0  0  0  0  0  0  0
  161.5950  211.4260  155.2030 O   0  0  0  0  0  0  0  0  0  0  0  0
  155.9470  211.0050  153.6940 C   0  0  0  0  0  1  0  0  0  0  0  0
  159.4890  211.9210  157.2610 S   0  0  0  0  0  0  0  0  0  0  0  0
  160.3850  212.1290  153.3300 N   0  0  0  0  0  0  0  0  0  0  0  0
  157.1790  211.8570  153.9280 C   0  0  1  0  0  3  0  0  0  0  0  0
  156.1660  213.1690  156.6200 C   0  0  0  0  0  0  0  0  0  0  0  0
  154.6400  211.5250  157.2610 O   0  0  0  0  0  1  0  0  0  0  0  0
  153.8660  213.8610  156.8840 C   0  0  0  0  0  1  0  0  0  0  0  0
  154.9410  212.8360  156.9170 C   0  0  0  0  0  0  0  0  0  0  0  0
  157.3940  213.4970  156.3250 C   0  0  0  0  0  3  0  0  0  0  0  0
  162.8290  205.1480  147.8810 C   0  0  0  0  0  2  0  0  0  0  0  0
  162.7180  204.8230  146.4670 N   0  0  0  0  0  2  0  0  0  0  0  0
  161.4560  205.2680  146.0420 N   0  0  0  0  0  2  0  0  0  0  0  0
  160.5050  204.2090  146.3560 C   0  0  0  0  0  2  0  0  0  0  0  0
  160.8740  204.0210  149.4910 C   0  0  0  0  0  2  0  0  0  0  0  0
  161.2750  200.3940  147.7410 S   0  0  0  0  0  0  0  0  0  0  0  0
  161.3570  201.6470  149.0460 C   0  0  1  0  0  3  0  0  0  0  0  0
  160.2890  203.6490  150.8580 C   0  0  0  0  0  2  0  0  0  0  0  0
  160.6300  202.8620  148.5310 C   0  0  2  0  0  3  0  0  0  0  0  0
  160.7290  201.2020  150.3570 C   0  0  0  0  0  2  0  0  0  0  0  0
  160.8870  202.3330  151.3810 C   0  0  0  0  0  2  0  0  0  0  0  0
  161.1750  203.0700  147.1370 C   0  0  1  0  0  3  0  0  0  0  0  0
  161.1970  201.6940  146.4440 C   0  0  2  0  0  3  0  0  0  0  0  0
  159.9820  201.4400  145.5540 C   0  0  0  0  0  2  0  0  0  0  0  0
  160.0670  200.0810  144.8800 C   0  0  0  0  0  2  0  0  0  0  0  0
  161.2350  199.4220  145.2690 O   0  0  0  0  0  1  0  0  0  0  0  0
  162.2290  206.6130  152.2480 C   0  0  0  0  0  2  0  0  0  0  0  0
  161.4820  205.6500  153.1550 C   0  0  0  0  0  2  0  0  0  0  0  0
  160.6790  206.4140  154.1920 C   0  0  0  0  0  2  0  0  0  0  0  0
  161.5750  207.1390  155.0800 N   0  0  0  0  0  2  0  0  0  0  0  0
  161.0860  208.0810  156.0390 C   0  0  0  0  0  0  0  0  0  0  0  0
  161.9810  208.7400  156.8700 O   0  0  0  0  0  1  0  0  0  0  0  0
  159.8500  208.3170  156.1400 O   0  0  0  0  0  0  0  0  0  0  0  0
  1 12  3  0  0  0  0
  5  3  1  1  0  0  0
  5  7  1  0  0  0  0
  6 14  1  0  0  0  0
  7  4  1  0  0  0  0
  8 18  1  0  0  0  0
  8 16  2  0  0  0  0
  9  4  1  6  0  0  0
  9 28  1  0  0  0  0
 10  6  2  0  0  0  0
 11 17  1  0  0  0  0
 11 10  1  0  0  0  0
 12  9  1  0  0  0  0
 13  2  1  0  0  0  0
 13  3  1  0  0  0  0
 14  1  1  0  0  0  0
 14 51  1  1  0  0  0
 15  6  1  0  0  0  0
 16 15  1  0  0  0  0
 17  2  1  6  0  0  0
 17  5  1  0  0  0  0
 18 11  2  0  0  0  0
 19 24  1  6  0  0  0
 19 22  1  0  0  0  0
 19 27  1  0  0  0  0
 20 28  1  0  0  0  0
 21 22  1  0  0  0  0
 22 34  1  1  0  0  0
 22 27  1  0  0  0  0
 23 20  1  0  0  0  0
 23 29  1  0  0  0  0
 24 25  2  0  0  0  0
 28 24  1  0  0  0  0
 29 26  1  6  0  0  0
 29 21  1  0  0  0  0
 30 33  2  0  0  0  0
 32 33  1  0  0  0  0
 33 31  1  0  0  0  0
 34 30  2  0  0  0  0
 35 16  1  0  0  0  0
 36 35  1  0  0  0  0
 37 38  1  0  0  0  0
 37 36  1  0  0  0  0
 39 42  1  0  0  0  0
 40 41  1  0  0  0  0
 41 44  1  1  0  0  0
 42 45  1  0  0  0  0
 43 41  1  0  0  0  0
 43 39  1  1  0  0  0
 44 45  1  0  0  0  0
 46 38  1  6  0  0  0
 46 43  1  0  0  0  0
 47 48  1  1  0  0  0
 47 46  1  0  0  0  0
 47 40  1  0  0  0  0
 49 50  1  0  0  0  0
 49 48  1  0  0  0  0
 51 52  1  0  0  0  0
 52 53  1  0  0  0  0
 53 54  1  0  0  0  0
 54 55  1  0  0  0  0
 55 57  2  0  0  0  0
 55 56  1  0  0  0  0
M  END
>  <MODEL>
6

>  <REMARK>
 VINA RESULT:       0.8      6.587     12.839
  Name = 
  13 active torsions:
  status: ('A' for Active; 'I' for Inactive)
    1  A    between atoms: N_2  and  C_27
    2  A    between atoms: N_5  and  C_22
    3  A    between atoms: N_5  and  N_48
    4  A    between atoms: C_9  and  C_26
    5  A    between atoms: C_14  and  C_27
    6  A    between atoms: C_14  and  C_50
    7  A    between atoms: C_22  and  C_54
    8  A    between atoms: C_23  and  C_46
    9  A    between atoms: C_26  and  C_52
   10  A    between atoms: C_30  and  N_53
   11  A    between atoms: C_43  and  C_50
   12  A    between atoms: C_44  and  C_47
   13  A    between atoms: C_44  and  N_48
                            x       y       z     vdW  Elec       q    Type
                         _______ _______ _______ _____ _____    ______ ____

>  <TORSDO>
F 13

$$$$
=
 OpenBabel11052410183D

 57 63  0  0  1  0  0  0  0  0999 V2000
  161.7000  208.6530  149.8020 C   0  0  0  0  0  0  0  0  0  0  0  0
  162.1220  202.8970  150.3730 N   0  0  0  0  0  2  0  0  0  0  0  0
  160.1250  203.3090  151.5120 C   0  0  0  0  0  2  0  0  0  0  0  0
  160.6210  206.3890  152.0910 C   0  0  0  0  0  2  0  0  0  0  0  0
  160.3000  204.3870  150.4890 C   0  0  1  0  0  3  0  0  0  0  0  0
  162.2350  207.1720  148.0140 C   0  0  0  0  0  0  0  0  0  0  0  0
  159.8100  205.7660  150.9520 C   0  0  0  0  0  2  0  0  0  0  0  0
  162.3200  204.5790  146.3900 C   0  0  0  0  0  3  0  0  0  0  0  0
  160.4920  207.9170  152.0650 C   0  0  2  0  0  3  0  0  0  0  0  0
  162.5140  206.2410  148.8800 N   0  0  0  0  0  0  0  0  0  0  0  0
  162.1370  204.8610  148.8740 C   0  0  0  0  0  0  0  0  0  0  0  0
  161.1460  208.4300  150.8480 C   0  0  0  0  0  0  0  0  0  0  0  0
  161.1980  202.3380  151.2860 N   0  0  0  0  0  2  0  0  0  0  0  0
  162.3840  208.5980  148.4990 C   0  0  1  0  0  3  0  0  0  0  0  0
  161.4460  206.8570  146.7800 C   0  0  0  0  0  2  0  0  0  0  0  0
  162.1290  205.8240  145.9480 C   0  0  0  0  0  0  0  0  0  0  0  0
  161.7710  204.3000  150.2160 C   0  0  2  0  0  3  0  0  0  0  0  0
  162.0590  204.1150  147.7630 C   0  0  0  0  0  3  0  0  0  0  0  0
  161.7850  208.1100  155.7340 C   0  0  2  0  0  3  0  0  0  0  0  0
  161.7100  209.8030  153.2800 C   0  0  0  0  0  2  0  0  0  0  0  0
  160.1860  210.0610  155.8740 N   0  0  0  0  0  2  0  0  0  0  0  0
  161.3110  209.3160  156.4470 C   0  0  1  0  0  0  0  0  0  0  0  0
  160.7100  210.9010  153.6240 C   0  0  0  0  0  2  0  0  0  0  0  0
  160.9930  207.7200  154.5110 C   0  0  0  0  0  0  0  0  0  0  0  0
  160.3460  206.6330  154.5270 O   0  0  0  0  0  0  0  0  0  0  0  0
  159.8270  212.4100  155.3740 C   0  0  0  0  0  1  0  0  0  0  0  0
  160.7800  207.7580  157.2590 S   0  0  0  0  0  0  0  0  0  0  0  0
  161.0430  208.4980  153.2990 N   0  0  0  0  0  0  0  0  0  0  0  0
  160.7000  211.1990  155.1140 C   0  0  1  0  0  3  0  0  0  0  0  0
  163.3740  210.6050  156.6950 C   0  0  0  0  0  0  0  0  0  0  0  0
  164.4180  211.3940  154.7640 O   0  0  0  0  0  1  0  0  0  0  0  0
  165.6200  211.4610  156.9430 C   0  0  0  0  0  1  0  0  0  0  0  0
  164.4210  211.1360  156.1280 C   0  0  0  0  0  0  0  0  0  0  0  0
  162.3220  210.0750  157.2560 C   0  0  0  0  0  3  0  0  0  0  0  0
  162.4490  206.1540  144.5280 C   0  0  0  0  0  2  0  0  0  0  0  0
  161.2280  206.3540  143.7610 N   0  0  0  0  0  2  0  0  0  0  0  0
  161.5280  206.0440  142.4250 N   0  0  0  0  0  2  0  0  0  0  0  0
  162.2310  207.1930  141.8700 C   0  0  0  0  0  2  0  0  0  0  0  0
  161.6730  210.2790  141.4640 C   0  0  0  0  0  2  0  0  0  0  0  0
  161.0850  208.2130  138.0340 S   0  0  0  0  0  0  0  0  0  0  0  0
  161.0290  209.6130  139.1820 C   0  0  1  0  0  3  0  0  0  0  0  0
  162.1480  211.6380  140.9380 C   0  0  0  0  0  2  0  0  0  0  0  0
  161.8780  209.2390  140.3690 C   0  0  2  0  0  3  0  0  0  0  0  0
  161.5450  210.9120  138.5840 C   0  0  0  0  0  2  0  0  0  0  0  0
  161.4190  212.0180  139.6390 C   0  0  0  0  0  2  0  0  0  0  0  0
  161.4300  207.8420  140.7330 C   0  0  1  0  0  3  0  0  0  0  0  0
  161.3390  207.0360  139.4220 C   0  0  2  0  0  3  0  0  0  0  0  0
  162.5780  206.1890  139.1390 C   0  0  0  0  0  2  0  0  0  0  0  0
  162.6730  205.8250  137.6670 C   0  0  0  0  0  2  0  0  0  0  0  0
  163.5470  206.6940  137.0110 O   0  0  0  0  0  1  0  0  0  0  0  0
  161.7970  209.6280  147.5410 C   0  0  0  0  0  2  0  0  0  0  0  0
  161.4290  210.8990  148.2880 C   0  0  0  0  0  2  0  0  0  0  0  0
  161.4260  212.0870  147.3440 C   0  0  0  0  0  2  0  0  0  0  0  0
  160.3520  211.9480  146.3720 N   0  0  0  0  0  2  0  0  0  0  0  0
  159.8850  213.0590  145.6030 C   0  0  0  0  0  0  0  0  0  0  0  0
  158.8640  212.8730  144.6800 O   0  0  0  0  0  0  0  0  0  0  0  0
  160.3920  214.2060  145.7490 O   0  0  0  0  0  1  0  0  0  0  0  0
  1 12  3  0  0  0  0
  2 13  1  0  0  0  0
  5  7  1  1  0  0  0
  5  3  1  0  0  0  0
  6 14  1  0  0  0  0
  6 10  2  0  0  0  0
  7  4  1  0  0  0  0
  8 18  1  0  0  0  0
  9 12  1  6  0  0  0
  9  4  1  0  0  0  0
  9 28  1  0  0  0  0
 11 10  1  0  0  0  0
 13  3  1  0  0  0  0
 14 51  1  6  0  0  0
 14  1  1  0  0  0  0
 15  6  1  0  0  0  0
 16  8  2  0  0  0  0
 16 15  1  0  0  0  0
 17 11  1  6  0  0  0
 17  2  1  0  0  0  0
 17  5  1  0  0  0  0
 18 11  2  0  0  0  0
 19 24  1  6  0  0  0
 19 22  1  0  0  0  0
 19 27  1  0  0  0  0
 20 28  1  0  0  0  0
 20 23  1  0  0  0  0
 21 22  1  0  0  0  0
 22 34  1  1  0  0  0
 22 27  1  0  0  0  0
 23 29  1  0  0  0  0
 24 25  2  0  0  0  0
 28 24  1  0  0  0  0
 29 26  1  6  0  0  0
 29 21  1  0  0  0  0
 30 34  2  0  0  0  0
 31 33  1  0  0  0  0
 33 30  2  0  0  0  0
 33 32  1  0  0  0  0
 35 16  1  0  0  0  0
 36 35  1  0  0  0  0
 37 36  1  0  0  0  0
 38 37  1  0  0  0  0
 40 41  1  0  0  0  0
 40 47  1  0  0  0  0
 41 44  1  6  0  0  0
 41 43  1  0  0  0  0
 42 39  1  0  0  0  0
 43 46  1  0  0  0  0
 43 39  1  1  0  0  0
 44 45  1  0  0  0  0
 45 42  1  0  0  0  0
 46 38  1  1  0  0  0
 47 48  1  6  0  0  0
 47 46  1  0  0  0  0
 49 48  1  0  0  0  0
 50 49  1  0  0  0  0
 51 52  1  0  0  0  0
 53 52  1  0  0  0  0
 54 53  1  0  0  0  0
 55 57  1  0  0  0  0
 55 54  1  0  0  0  0
 56 55  2  0  0  0  0
M  END
>  <MODEL>
7

>  <REMARK>
 VINA RESULT:       1.4      5.352     13.785
  Name = 
  13 active torsions:
  status: ('A' for Active; 'I' for Inactive)
    1  A    between atoms: N_2  and  C_27
    2  A    between atoms: N_5  and  C_22
    3  A    between atoms: N_5  and  N_48
    4  A    between atoms: C_9  and  C_26
    5  A    between atoms: C_14  and  C_27
    6  A    between atoms: C_14  and  C_50
    7  A    between atoms: C_22  and  C_54
    8  A    between atoms: C_23  and  C_46
    9  A    between atoms: C_26  and  C_52
   10  A    between atoms: C_30  and  N_53
   11  A    between atoms: C_43  and  C_50
   12  A    between atoms: C_44  and  C_47
   13  A    between atoms: C_44  and  N_48
                            x       y       z     vdW  Elec       q    Type
                         _______ _______ _______ _____ _____    ______ ____

>  <TORSDO>
F 13

$$$$
