=
 OpenBabel11042422423D

 66 72  0  0  1  0  0  0  0  0999 V2000
  160.7820  212.6170  148.6430 N   0  0  0  0  0  0  0  0  0  0  0  0
  161.7650  210.2050  149.8020 N   0  0  0  0  0  0  0  0  0  0  0  0
  161.5260  210.2720  148.3970 C   0  0  0  0  0  0  0  0  0  0  0  0
  161.6840  211.2500  150.5710 C   0  0  0  0  0  0  0  0  0  0  0  0
  161.3740  211.6110  147.7440 C   0  0  2  0  0  3  0  0  0  0  0  0
  162.3720  213.6350  150.2360 C   0  0  0  0  0  1  0  0  0  0  0  0
  161.2760  212.6040  150.0360 C   0  0  1  0  0  3  0  0  0  0  0  0
  161.4400  209.1640  147.6610 C   0  0  0  0  0  3  0  0  0  0  0  0
  162.6640  212.0870  147.0410 C   0  0  2  0  0  3  0  0  0  0  0  0
  163.7780  212.4920  148.0030 C   0  0  0  0  0  1  0  0  0  0  0  0
  162.4000  213.1350  145.9500 C   0  0  2  0  0  3  0  0  0  0  0  0
  161.7350  214.3700  146.5400 C   0  0  0  0  0  1  0  0  0  0  0  0
  161.5770  212.5780  144.8790 N   0  0  0  0  0  2  0  0  0  0  0  0
  163.5880  213.3190  143.7550 C   0  0  0  0  0  1  0  0  0  0  0  0
  162.1190  212.9810  143.5860 C   0  0  2  0  0  3  0  0  0  0  0  0
  161.2140  214.4300  142.9370 S   0  0  0  0  0  0  0  0  0  0  0  0
  159.0100  214.1790  141.0720 C   0  0  1  0  0  3  0  0  0  0  0  0
  160.9150  208.0660  137.9420 C   0  0  0  0  0  0  0  0  0  0  0  0
  162.1740  212.2420  140.6280 C   0  0  0  0  0  2  0  0  0  0  0  0
  158.6860  207.9350  137.0150 O   0  0  0  0  0  1  0  0  0  0  0  0
  160.7080  212.2270  141.0120 C   0  0  1  0  0  3  0  0  0  0  0  0
  162.7400  210.5200  140.5980 S   0  0  0  0  0  0  0  0  0  0  0  0
  160.0520  212.7770  138.6250 C   0  0  0  0  0  1  0  0  0  0  0  0
  160.2060  213.5050  141.7150 C   0  0  1  0  0  0  0  0  0  0  0  0
  158.3130  214.0210  143.2510 O   0  0  0  0  0  1  0  0  0  0  0  0
  161.2740  206.9330  137.2930 F   0  0  0  0  0  0  0  0  0  0  0  0
  161.8420  208.7120  138.7610 C   0  0  0  0  0  3  0  0  0  0  0  0
  160.1900  210.4260  139.3040 C   0  0  0  0  0  0  0  0  0  0  0  0
  159.2740  209.7570  138.4720 C   0  0  0  0  0  3  0  0  0  0  0  0
  157.8910  213.1440  141.0010 C   0  0  1  0  0  3  0  0  0  0  0  0
  161.4980  209.8810  139.4490 C   0  0  0  0  0  0  0  0  0  0  0  0
  159.8260  211.8170  139.7970 C   0  0  1  0  0  0  0  0  0  0  0  0
  158.3190  211.8890  140.1970 C   0  0  0  0  0  2  0  0  0  0  0  0
  158.7950  213.2200  142.2140 C   0  0  1  0  0  0  0  0  0  0  0  0
  159.6220  208.5790  137.8130 C   0  0  0  0  0  0  0  0  0  0  0  0
  158.8550  212.2660  147.3690 O   0  0  0  0  0  1  0  0  0  0  0  0
  159.3360  212.4160  148.6730 C   0  0  0  0  0  2  0  0  0  0  0  0
  161.9840  211.1460  151.9310 O   0  0  0  0  0  0  0  0  0  0  0  0
  161.1490  210.4400  152.8420 C   0  0  0  0  0  2  0  0  0  0  0  0
  161.9710  209.9240  154.0130 C   0  0  0  0  0  2  0  0  0  0  0  0
  160.8170  209.7500  156.0720 C   0  0  0  0  0  2  0  0  0  0  0  0
  160.1720  210.7760  155.2600 C   0  0  2  0  0  3  0  0  0  0  0  0
  161.6360  210.6440  155.2350 N   0  0  0  0  0  0  0  0  0  0  0  0
  159.8010  211.9700  156.1260 C   0  0  2  0  0  3  0  0  0  0  0  0
  158.8710  211.5880  157.0980 O   0  0  0  0  0  1  0  0  0  0  0  0
  158.3930  213.9040  156.0350 O   0  0  0  0  0  1  0  0  0  0  0  0
  158.5320  212.6170  154.0330 C   0  0  0  0  0  1  0  0  0  0  0  0
  159.2570  213.1180  155.2730 C   0  0  2  0  0  3  0  0  0  0  0  0
  161.5630  207.7910  148.2460 C   0  0  0  0  0  2  0  0  0  0  0  0
  160.6190  207.0630  146.1820 O   0  0  0  0  0  0  0  0  0  0  0  0
  160.8900  206.7820  147.3800 C   0  0  0  0  0  0  0  0  0  0  0  0
  160.5730  205.5320  147.9130 O   0  0  0  0  0  0  0  0  0  0  0  0
  161.5250  204.7480  148.6250 C   0  0  1  0  0  3  0  0  0  0  0  0
  161.3630  204.9380  150.1350 C   0  0  1  0  0  3  0  0  0  0  0  0
  160.2390  205.7230  150.4080 O   0  0  0  0  0  1  0  0  0  0  0  0
  161.2760  203.6090  150.8930 C   0  0  0  0  0  2  0  0  0  0  0  0
  161.0810  203.7850  152.4000 C   0  0  2  0  0  3  0  0  0  0  0  0
  160.0830  202.9280  152.8720 O   0  0  0  0  0  1  0  0  0  0  0  0
  161.5610  205.7230  153.8190 N   0  0  0  0  0  1  0  0  0  0  0  0
  160.7330  205.2300  152.7290 C   0  0  0  0  0  2  0  0  0  0  0  0
  161.4160  203.2760  148.2240 C   0  0  0  0  0  2  0  0  0  0  0  0
  161.8470  203.0680  146.8450 N   0  0  0  0  0  2  0  0  0  0  0  0
  161.4640  204.1980  146.1030 N   0  0  0  0  0  2  0  0  0  0  0  0
  161.3560  205.1940  143.6200 S   0  0  0  0  0  0  0  0  0  0  0  0
  160.0690  203.0330  144.4420 N   0  0  0  0  0  1  0  0  0  0  0  0
  160.9430  204.1050  144.7750 C   0  0  0  0  0  0  0  0  0  0  0  0
  1 37  1  0  0  0  0
  1  7  1  0  0  0  0
  2  4  2  0  0  0  0
  3  2  1  0  0  0  0
  4 38  1  0  0  0  0
  5  9  1  1  0  0  0
  5  3  1  0  0  0  0
  5  1  1  0  0  0  0
  7  6  1  6  0  0  0
  7  4  1  0  0  0  0
  8 49  1  0  0  0  0
  8  3  2  0  0  0  0
  9 10  1  1  0  0  0
 11 12  1  1  0  0  0
 11  9  1  0  0  0  0
 13 11  1  0  0  0  0
 15 14  1  1  0  0  0
 15 13  1  0  0  0  0
 16 15  1  0  0  0  0
 17 24  1  0  0  0  0
 17 34  1  0  0  0  0
 18 27  1  0  0  0  0
 19 21  1  0  0  0  0
 20 35  1  0  0  0  0
 21 24  1  0  0  0  0
 22 19  1  0  0  0  0
 23 32  1  0  0  0  0
 24 34  1  0  0  0  0
 24 16  1  0  0  0  0
 26 18  1  0  0  0  0
 27 31  2  0  0  0  0
 28 31  1  0  0  0  0
 28 32  1  0  0  0  0
 29 28  2  0  0  0  0
 30 17  1  0  0  0  0
 30 34  1  0  0  0  0
 31 22  1  0  0  0  0
 32 33  1  0  0  0  0
 32 21  1  0  0  0  0
 33 30  1  0  0  0  0
 34 25  1  0  0  0  0
 35 18  2  0  0  0  0
 35 29  1  0  0  0  0
 36 37  1  0  0  0  0
 38 39  1  0  0  0  0
 39 40  1  0  0  0  0
 40 43  1  0  0  0  0
 42 41  1  0  0  0  0
 42 44  1  0  0  0  0
 43 42  1  0  0  0  0
 43 41  1  0  0  0  0
 44 45  1  0  0  0  0
 47 48  1  0  0  0  0
 48 46  1  0  0  0  0
 48 44  1  0  0  0  0
 50 51  2  0  0  0  0
 51 52  1  0  0  0  0
 51 49  1  0  0  0  0
 52 53  1  0  0  0  0
 53 54  1  0  0  0  0
 54 55  1  0  0  0  0
 54 56  1  0  0  0  0
 56 57  1  0  0  0  0
 57 60  1  0  0  0  0
 57 58  1  0  0  0  0
 60 59  1  0  0  0  0
 61 53  1  0  0  0  0
 62 61  1  0  0  0  0
 63 62  1  0  0  0  0
 64 66  2  0  0  0  0
 65 66  1  0  0  0  0
 66 63  1  0  0  0  0
M  END
>  <MODEL>
1

>  <REMARK>
 VINA RESULT:      -0.8      0.000      0.000
  Name = 
  25 active torsions:
  status: ('A' for Active; 'I' for Inactive)
    1  A    between atoms: C_1  and  C_5
    2  A    between atoms: C_1  and  C_20
    3  A    between atoms: C_2  and  C_35
    4  A    between atoms: C_2  and  C_64
    5  A    between atoms: N_3  and  C_60
    6  A    between atoms: C_5  and  C_53
    7  A    between atoms: C_5  and  O_58
    8  A    between atoms: S_9  and  C_23
    9  A    between atoms: S_9  and  C_28
   10  A    between atoms: C_10  and  O_32
   11  A    between atoms: C_10  and  C_54
   12  A    between atoms: C_13  and  C_20
   13  A    between atoms: C_13  and  C_48
   14  A    between atoms: C_19  and  N_40
   15  A    between atoms: C_19  and  C_43
   16  A    between atoms: C_23  and  N_40
   17  A    between atoms: C_27  and  C_49
   18  A    between atoms: C_27  and  C_51
   19  A    between atoms: C_31  and  O_32
   20  A    between atoms: C_35  and  O_58
   21  A    between atoms: C_37  and  C_43
   22  A    between atoms: N_41  and  C_53
   23  A    between atoms: N_41  and  N_59
   24  A    between atoms: C_47  and  N_59
   25  A    between atoms: C_54  and  N_62
                            x       y       z     vdW  Elec       q    Type
                         _______ _______ _______ _____ _____    ______ ____

>  <TORSDO>
F 25

$$$$
=
 OpenBabel11042422423D

 66 72  0  0  1  0  0  0  0  0999 V2000
  162.4890  207.4490  149.1690 N   0  0  0  0  0  0  0  0  0  0  0  0
  160.5770  207.1760  151.2670 N   0  0  0  0  0  0  0  0  0  0  0  0
  161.3310  208.3810  151.1450 C   0  0  0  0  0  0  0  0  0  0  0  0
  160.6230  206.2350  150.3720 C   0  0  0  0  0  0  0  0  0  0  0  0
  162.0440  208.6720  149.8600 C   0  0  2  0  0  3  0  0  0  0  0  0
  160.7270  206.3040  147.8700 C   0  0  0  0  0  1  0  0  0  0  0  0
  161.5250  206.3280  149.1610 C   0  0  1  0  0  3  0  0  0  0  0  0
  161.4060  209.2490  152.1540 C   0  0  0  0  0  3  0  0  0  0  0  0
  161.2720  209.6530  148.9530 C   0  0  2  0  0  3  0  0  0  0  0  0
  160.5960  208.9870  147.7570 C   0  0  0  0  0  1  0  0  0  0  0  0
  162.0980  210.8890  148.5670 C   0  0  2  0  0  3  0  0  0  0  0  0
  162.4300  211.7190  149.7980 C   0  0  0  0  0  1  0  0  0  0  0  0
  161.3910  211.7020  147.5810 N   0  0  0  0  0  2  0  0  0  0  0  0
  163.6390  212.5970  147.6110 C   0  0  0  0  0  1  0  0  0  0  0  0
  162.3520  212.4880  146.8160 C   0  0  2  0  0  3  0  0  0  0  0  0
  161.6870  214.1540  146.4690 S   0  0  0  0  0  0  0  0  0  0  0  0
  159.2520  214.2100  144.8990 C   0  0  1  0  0  3  0  0  0  0  0  0
  161.6690  210.9940  139.0160 C   0  0  0  0  0  0  0  0  0  0  0  0
  162.5850  213.6260  143.3140 C   0  0  0  0  0  2  0  0  0  0  0  0
  159.3710  210.7120  138.3190 O   0  0  0  0  0  1  0  0  0  0  0  0
  161.2560  213.0430  143.7500 C   0  0  1  0  0  3  0  0  0  0  0  0
  163.4620  212.3360  142.3910 S   0  0  0  0  0  0  0  0  0  0  0  0
  160.0460  214.4320  142.0080 C   0  0  0  0  0  1  0  0  0  0  0  0
  160.6610  213.6650  145.0310 C   0  0  1  0  0  0  0  0  0  0  0  0
  159.0450  212.8840  146.7590 O   0  0  0  0  0  1  0  0  0  0  0  0
  162.1080  210.4320  137.8650 F   0  0  0  0  0  0  0  0  0  0  0  0
  162.5930  211.4120  139.9740 C   0  0  0  0  0  3  0  0  0  0  0  0
  160.7770  212.1680  141.4200 C   0  0  0  0  0  0  0  0  0  0  0  0
  159.8640  211.7400  140.4380 C   0  0  0  0  0  3  0  0  0  0  0  0
  158.3680  213.0670  144.4100 C   0  0  1  0  0  3  0  0  0  0  0  0
  162.1680  211.9910  141.1750 C   0  0  0  0  0  0  0  0  0  0  0  0
  160.2500  213.0190  142.5630 C   0  0  1  0  0  0  0  0  0  0  0  0
  158.8670  212.4910  143.0590 C   0  0  0  0  0  2  0  0  0  0  0  0
  159.4600  212.8140  145.4280 C   0  0  1  0  0  0  0  0  0  0  0  0
  160.3010  211.1410  139.2570 C   0  0  0  0  0  0  0  0  0  0  0  0
  163.4960  206.7640  151.1630 O   0  0  0  0  0  1  0  0  0  0  0  0
  163.7200  206.9820  149.8010 C   0  0  0  0  0  2  0  0  0  0  0  0
  159.8230  205.0990  150.5060 O   0  0  0  0  0  0  0  0  0  0  0  0
  160.0580  204.1160  151.5090 C   0  0  0  0  0  2  0  0  0  0  0  0
  161.0000  203.0450  150.9810 C   0  0  0  0  0  2  0  0  0  0  0  0
  159.5960  201.4450  149.9420 C   0  0  0  0  0  2  0  0  0  0  0  0
  160.9810  201.1470  149.5950 C   0  0  2  0  0  3  0  0  0  0  0  0
  160.5410  202.5470  149.6890 N   0  0  0  0  0  0  0  0  0  0  0  0
  161.0800  200.7600  148.1280 C   0  0  2  0  0  3  0  0  0  0  0  0
  162.3490  200.2400  147.8530 O   0  0  0  0  0  1  0  0  0  0  0  0
  159.8730  201.5750  146.2280 O   0  0  0  0  0  1  0  0  0  0  0  0
  162.0300  202.5280  146.5850 C   0  0  0  0  0  1  0  0  0  0  0  0
  160.7730  201.9560  147.2240 C   0  0  2  0  0  3  0  0  0  0  0  0
  160.7380  209.0190  153.4730 C   0  0  0  0  0  2  0  0  0  0  0  0
  160.0370  210.3020  155.3550 O   0  0  0  0  0  0  0  0  0  0  0  0
  160.5080  210.3070  154.1860 C   0  0  0  0  0  0  0  0  0  0  0  0
  160.8220  211.5050  153.5450 O   0  0  0  0  0  0  0  0  0  0  0  0
  159.8700  212.5520  153.3870 C   0  0  1  0  0  3  0  0  0  0  0  0
  159.5980  212.8180  151.9040 C   0  0  1  0  0  3  0  0  0  0  0  0
  159.2860  211.6260  151.2460 O   0  0  0  0  0  1  0  0  0  0  0  0
  158.4880  213.8510  151.6820 C   0  0  0  0  0  2  0  0  0  0  0  0
  157.3150  213.3090  150.8620 C   0  0  2  0  0  3  0  0  0  0  0  0
  157.7740  212.5060  149.8140 O   0  0  0  0  0  1  0  0  0  0  0  0
  155.8380  214.0730  149.0640 N   0  0  0  0  0  1  0  0  0  0  0  0
  156.4700  214.4530  150.3180 C   0  0  0  0  0  2  0  0  0  0  0  0
  158.5840  212.2290  154.1500 C   0  0  0  0  0  2  0  0  0  0  0  0
  157.9740  213.4370  154.6960 N   0  0  0  0  0  2  0  0  0  0  0  0
  156.6020  213.1860  154.8610 N   0  0  0  0  0  2  0  0  0  0  0  0
  157.0140  211.9550  157.2020 S   0  0  0  0  0  0  0  0  0  0  0  0
  154.6580  212.7700  156.3150 N   0  0  0  0  0  1  0  0  0  0  0  0
  156.0560  212.6590  156.0730 C   0  0  0  0  0  0  0  0  0  0  0  0
  1 37  1  0  0  0  0
  1  5  1  0  0  0  0
  3  2  1  0  0  0  0
  3  8  2  0  0  0  0
  4 38  1  0  0  0  0
  4  2  2  0  0  0  0
  5  9  1  6  0  0  0
  5  3  1  0  0  0  0
  7  6  1  6  0  0  0
  7  1  1  0  0  0  0
  7  4  1  0  0  0  0
  8 49  1  0  0  0  0
  9 10  1  6  0  0  0
 11  9  1  0  0  0  0
 11 12  1  1  0  0  0
 13 11  1  0  0  0  0
 15 13  1  0  0  0  0
 15 14  1  1  0  0  0
 16 15  1  0  0  0  0
 17 24  1  0  0  0  0
 17 34  1  0  0  0  0
 18 35  2  0  0  0  0
 18 27  1  0  0  0  0
 19 21  1  0  0  0  0
 20 35  1  0  0  0  0
 21 24  1  0  0  0  0
 22 19  1  0  0  0  0
 23 32  1  0  0  0  0
 24 34  1  0  0  0  0
 24 16  1  0  0  0  0
 26 18  1  0  0  0  0
 27 31  2  0  0  0  0
 28 32  1  0  0  0  0
 29 28  2  0  0  0  0
 30 17  1  0  0  0  0
 30 34  1  0  0  0  0
 31 28  1  0  0  0  0
 31 22  1  0  0  0  0
 32 33  1  0  0  0  0
 32 21  1  0  0  0  0
 33 30  1  0  0  0  0
 34 25  1  0  0  0  0
 35 29  1  0  0  0  0
 37 36  1  0  0  0  0
 38 39  1  0  0  0  0
 40 39  1  0  0  0  0
 42 43  1  0  0  0  0
 42 41  1  0  0  0  0
 43 41  1  0  0  0  0
 43 40  1  0  0  0  0
 44 42  1  0  0  0  0
 45 44  1  0  0  0  0
 46 48  1  0  0  0  0
 47 48  1  0  0  0  0
 48 44  1  0  0  0  0
 49 51  1  0  0  0  0
 51 50  2  0  0  0  0
 52 51  1  0  0  0  0
 53 52  1  0  0  0  0
 53 61  1  0  0  0  0
 54 53  1  0  0  0  0
 55 54  1  0  0  0  0
 56 54  1  0  0  0  0
 57 56  1  0  0  0  0
 58 57  1  0  0  0  0
 59 60  1  0  0  0  0
 60 57  1  0  0  0  0
 61 62  1  0  0  0  0
 62 63  1  0  0  0  0
 63 66  1  0  0  0  0
 66 65  1  0  0  0  0
 66 64  2  0  0  0  0
M  END
>  <MODEL>
2

>  <REMARK>
 VINA RESULT:       1.0      3.197      8.140
  Name = 
  25 active torsions:
  status: ('A' for Active; 'I' for Inactive)
    1  A    between atoms: C_1  and  C_5
    2  A    between atoms: C_1  and  C_20
    3  A    between atoms: C_2  and  C_35
    4  A    between atoms: C_2  and  C_64
    5  A    between atoms: N_3  and  C_60
    6  A    between atoms: C_5  and  C_53
    7  A    between atoms: C_5  and  O_58
    8  A    between atoms: S_9  and  C_23
    9  A    between atoms: S_9  and  C_28
   10  A    between atoms: C_10  and  O_32
   11  A    between atoms: C_10  and  C_54
   12  A    between atoms: C_13  and  C_20
   13  A    between atoms: C_13  and  C_48
   14  A    between atoms: C_19  and  N_40
   15  A    between atoms: C_19  and  C_43
   16  A    between atoms: C_23  and  N_40
   17  A    between atoms: C_27  and  C_49
   18  A    between atoms: C_27  and  C_51
   19  A    between atoms: C_31  and  O_32
   20  A    between atoms: C_35  and  O_58
   21  A    between atoms: C_37  and  C_43
   22  A    between atoms: N_41  and  C_53
   23  A    between atoms: N_41  and  N_59
   24  A    between atoms: C_47  and  N_59
   25  A    between atoms: C_54  and  N_62
                            x       y       z     vdW  Elec       q    Type
                         _______ _______ _______ _____ _____    ______ ____

>  <TORSDO>
F 25

$$$$
