=
 OpenBabel11042420103D

 30 35  0  0  1  0  0  0  0  0999 V2000
  161.4850  211.5280  149.7850 C   0  0  0  0  0  0  0  0  0  0  0  0
  160.6910  212.6600  144.0810 C   0  0  1  0  0  3  0  0  0  0  0  0
  160.8890  212.7270  145.6120 C   0  0  2  0  0  3  0  0  0  0  0  0
  163.1110  213.5230  143.8150 C   0  0  0  0  0  2  0  0  0  0  0  0
  160.1200  213.4340  150.1130 C   0  0  0  0  0  2  0  0  0  0  0  0
  159.9140  213.8560  143.5390 C   0  0  0  0  0  1  0  0  0  0  0  0
  159.6000  212.8160  146.4020 C   0  0  0  0  0  0  0  0  0  0  0  0
  162.0330  212.5270  143.3550 C   0  0  0  0  0  2  0  0  0  0  0  0
  162.6440  214.4530  144.9390 C   0  0  0  0  0  2  0  0  0  0  0  0
  162.0100  213.6700  146.0930 C   0  0  2  0  0  3  0  0  0  0  0  0
  158.5090  212.5580  145.8260 O   0  0  0  0  0  0  0  0  0  0  0  0
  160.6690  213.4250  148.6930 C   0  0  1  0  0  3  0  0  0  0  0  0
  161.6860  212.3380  148.7510 C   0  0  0  0  0  0  0  0  0  0  0  0
  162.8990  212.2750  147.9040 C   0  0  0  0  0  3  0  0  0  0  0  0
  163.0390  212.8810  146.7620 N   0  0  0  0  0  0  0  0  0  0  0  0
  159.5650  213.0550  147.8130 N   0  0  0  0  0  2  0  0  0  0  0  0
  160.3830  212.0330  150.6550 C   0  0  0  0  0  2  0  0  0  0  0  0
  161.5400  209.6080  154.9390 N   0  0  0  0  0  0  0  0  0  0  0  0
  161.1160  208.7960  155.9470 C   0  0  0  0  0  3  0  0  0  0  0  0
  160.6520  207.5050  155.6670 C   0  0  0  0  0  3  0  0  0  0  0  0
  160.9840  207.4900  152.0200 N   0  0  0  0  0  0  0  0  0  0  0  0
  161.3990  208.3230  151.0320 C   0  0  0  0  0  0  0  0  0  0  0  0
  161.8890  209.5750  151.3000 C   0  0  0  0  0  0  0  0  0  0  0  0
  161.9710  210.0380  152.6160 C   0  0  0  0  0  3  0  0  0  0  0  0
  161.0280  207.9050  153.3190 C   0  0  0  0  0  0  0  0  0  0  0  0
  160.6080  207.0610  154.3460 C   0  0  0  0  0  3  0  0  0  0  0  0
  162.0520  209.2380  148.9520 C   0  0  0  0  0  3  0  0  0  0  0  0
  162.3050  210.2840  150.0600 C   0  0  1  0  0  3  0  0  0  0  0  0
  161.5180  209.1960  153.6420 C   0  0  0  0  0  0  0  0  0  0  0  0
  161.4400  207.9860  149.5980 C   0  0  0  0  0  3  0  0  0  0  0  0
  1 17  1  0  0  0  0
  2  6  1  6  0  0  0
  2  3  1  0  0  0  0
  3 10  1  0  0  0  0
  3  7  1  1  0  0  0
  4  9  1  0  0  0  0
  5 17  1  0  0  0  0
  7 16  1  0  0  0  0
  8  4  1  0  0  0  0
  8  2  1  0  0  0  0
 10  9  1  6  0  0  0
 10 15  1  0  0  0  0
 11  7  2  0  0  0  0
 12 13  1  0  0  0  0
 12  5  1  1  0  0  0
 13  1  2  0  0  0  0
 14 13  1  0  0  0  0
 15 14  2  0  0  0  0
 16 12  1  0  0  0  0
 18 19  1  0  0  0  0
 20 19  2  0  0  0  0
 21 25  1  0  0  0  0
 22 23  1  0  0  0  0
 22 21  2  0  0  0  0
 23 24  2  0  0  0  0
 24 29  1  0  0  0  0
 25 29  1  0  0  0  0
 25 26  2  0  0  0  0
 26 20  1  0  0  0  0
 27 30  2  0  0  0  0
 27 28  1  0  0  0  0
 28  1  1  6  0  0  0
 28 23  1  0  0  0  0
 29 18  2  0  0  0  0
 30 22  1  0  0  0  0
M  END
>  <MODEL>
1

>  <REMARK>
 VINA RESULT:      -7.8      0.000      0.000
  Name = 
  1 active torsions:
  status: ('A' for Active; 'I' for Inactive)
    1  A    between atoms: C_1  and  C_19
                            x       y       z     vdW  Elec       q    Type
                         _______ _______ _______ _____ _____    ______ ____

>  <TORSDO>
F 1

$$$$
=
 OpenBabel11042420103D

 30 35  0  0  1  0  0  0  0  0999 V2000
  161.2860  208.3310  151.7960 C   0  0  0  0  0  0  0  0  0  0  0  0
  160.4870  211.1500  156.8820 C   0  0  1  0  0  3  0  0  0  0  0  0
  160.7490  210.7470  155.4130 C   0  0  2  0  0  3  0  0  0  0  0  0
  158.1810  212.0450  156.1360 C   0  0  0  0  0  2  0  0  0  0  0  0
  162.8520  210.0520  151.3590 C   0  0  0  0  0  2  0  0  0  0  0  0
  161.1770  212.4570  157.2610 C   0  0  0  0  0  1  0  0  0  0  0  0
  162.2140  210.5950  155.0620 C   0  0  0  0  0  0  0  0  0  0  0  0
  158.9850  211.2400  157.1710 C   0  0  0  0  0  2  0  0  0  0  0  0
  159.0350  212.5900  154.9870 C   0  0  0  0  0  2  0  0  0  0  0  0
  159.9040  211.4950  154.3620 C   0  0  2  0  0  3  0  0  0  0  0  0
  163.0630  210.5290  155.9920 O   0  0  0  0  0  0  0  0  0  0  0  0
  161.9160  210.4740  152.4820 C   0  0  1  0  0  3  0  0  0  0  0  0
  160.8660  209.4160  152.4370 C   0  0  0  0  0  0  0  0  0  0  0  0
  159.4590  209.6110  152.8550 C   0  0  0  0  0  3  0  0  0  0  0  0
  159.0480  210.5350  153.6710 N   0  0  0  0  0  0  0  0  0  0  0  0
  162.6780  210.3920  153.7240 N   0  0  0  0  0  2  0  0  0  0  0  0
  162.6330  208.5510  151.1940 C   0  0  0  0  0  2  0  0  0  0  0  0
  160.6080  206.2790  146.7380 N   0  0  0  0  0  0  0  0  0  0  0  0
  160.9180  205.4520  145.7010 C   0  0  0  0  0  3  0  0  0  0  0  0
  161.4520  204.1810  145.9460 C   0  0  0  0  0  3  0  0  0  0  0  0
  161.6040  204.2510  149.6040 N   0  0  0  0  0  0  0  0  0  0  0  0
  161.2980  205.0980  150.6200 C   0  0  0  0  0  0  0  0  0  0  0  0
  160.7420  206.3300  150.3920 C   0  0  0  0  0  0  0  0  0  0  0  0
  160.4740  206.7570  149.0880 C   0  0  0  0  0  3  0  0  0  0  0  0
  161.3770  204.6310  148.3130 C   0  0  0  0  0  0  0  0  0  0  0  0
  161.6820  203.7720  147.2590 C   0  0  0  0  0  3  0  0  0  0  0  0
  160.9000  206.0490  152.7470 C   0  0  0  0  0  3  0  0  0  0  0  0
  160.4730  207.0600  151.6600 C   0  0  1  0  0  3  0  0  0  0  0  0
  160.8120  205.9000  148.0300 C   0  0  0  0  0  0  0  0  0  0  0  0
  161.4570  204.7970  152.0540 C   0  0  0  0  0  3  0  0  0  0  0  0
  1 13  2  0  0  0  0
  2  8  1  0  0  0  0
  2  6  1  6  0  0  0
  3  7  1  6  0  0  0
  3  2  1  0  0  0  0
  4  8  1  0  0  0  0
  7 11  2  0  0  0  0
  9  4  1  0  0  0  0
 10  9  1  1  0  0  0
 10  3  1  0  0  0  0
 12  5  1  6  0  0  0
 12 16  1  0  0  0  0
 13 12  1  0  0  0  0
 13 14  1  0  0  0  0
 14 15  2  0  0  0  0
 15 10  1  0  0  0  0
 16  7  1  0  0  0  0
 17  5  1  0  0  0  0
 17  1  1  0  0  0  0
 18 29  1  0  0  0  0
 19 20  1  0  0  0  0
 19 18  2  0  0  0  0
 20 26  2  0  0  0  0
 21 22  1  0  0  0  0
 22 30  1  0  0  0  0
 23 22  2  0  0  0  0
 23 28  1  0  0  0  0
 24 23  1  0  0  0  0
 25 21  2  0  0  0  0
 26 25  1  0  0  0  0
 28  1  1  6  0  0  0
 28 27  1  0  0  0  0
 29 25  1  0  0  0  0
 29 24  2  0  0  0  0
 30 27  2  0  0  0  0
M  END
>  <MODEL>
2

>  <REMARK>
 VINA RESULT:      -7.6      5.174      8.324
  Name = 
  1 active torsions:
  status: ('A' for Active; 'I' for Inactive)
    1  A    between atoms: C_1  and  C_19
                            x       y       z     vdW  Elec       q    Type
                         _______ _______ _______ _____ _____    ______ ____

>  <TORSDO>
F 1

$$$$
=
 OpenBabel11042420103D

 30 35  0  0  1  0  0  0  0  0999 V2000
  160.9620  208.2560  154.5280 C   0  0  0  0  0  0  0  0  0  0  0  0
  158.0000  213.2600  155.3350 C   0  0  1  0  0  3  0  0  0  0  0  0
  158.7580  211.9210  155.4880 C   0  0  2  0  0  3  0  0  0  0  0  0
  160.0810  214.4510  156.2960 C   0  0  0  0  0  2  0  0  0  0  0  0
  159.7060  207.4890  156.3830 C   0  0  0  0  0  2  0  0  0  0  0  0
  157.0030  213.4990  156.4650 C   0  0  0  0  0  1  0  0  0  0  0  0
  157.8610  210.7030  155.5560 C   0  0  0  0  0  0  0  0  0  0  0  0
  158.9740  214.4380  155.2280 C   0  0  0  0  0  2  0  0  0  0  0  0
  160.0170  213.2610  157.2580 C   0  0  0  0  0  2  0  0  0  0  0  0
  159.9170  211.9310  156.5050 C   0  0  2  0  0  3  0  0  0  0  0  0
  156.6510  210.8130  155.2190 O   0  0  0  0  0  0  0  0  0  0  0  0
  159.6770  209.0100  156.3290 C   0  0  1  0  0  3  0  0  0  0  0  0
  160.7060  209.3120  155.2940 C   0  0  0  0  0  0  0  0  0  0  0  0
  161.5100  210.5550  155.2460 C   0  0  0  0  0  3  0  0  0  0  0  0
  161.1700  211.6810  155.7990 N   0  0  0  0  0  0  0  0  0  0  0  0
  158.3480  209.3930  155.8630 N   0  0  0  0  0  2  0  0  0  0  0  0
  160.2420  207.0480  155.0250 C   0  0  0  0  0  2  0  0  0  0  0  0
  161.5110  203.6110  151.6360 N   0  0  0  0  0  0  0  0  0  0  0  0
  161.2230  202.7710  150.6030 C   0  0  0  0  0  3  0  0  0  0  0  0
  160.8530  203.2870  149.3550 C   0  0  0  0  0  3  0  0  0  0  0  0
  160.9500  206.8710  150.0980 N   0  0  0  0  0  0  0  0  0  0  0  0
  161.2290  207.6870  151.1470 C   0  0  0  0  0  0  0  0  0  0  0  0
  161.6270  207.1930  152.3610 C   0  0  0  0  0  0  0  0  0  0  0  0
  161.7540  205.8140  152.5590 C   0  0  0  0  0  3  0  0  0  0  0  0
  161.0420  205.5190  150.2480 C   0  0  0  0  0  0  0  0  0  0  0  0
  160.7630  204.6680  149.1800 C   0  0  0  0  0  3  0  0  0  0  0  0
  161.6660  209.5640  152.5150 C   0  0  0  0  0  3  0  0  0  0  0  0
  161.9000  208.2800  153.3400 C   0  0  1  0  0  3  0  0  0  0  0  0
  161.4410  204.9630  151.4900 C   0  0  0  0  0  0  0  0  0  0  0  0
  161.2060  209.1600  151.1070 C   0  0  0  0  0  3  0  0  0  0  0  0
  1 17  1  0  0  0  0
  1 13  2  0  0  0  0
  2  3  1  0  0  0  0
  2  6  1  1  0  0  0
  3  7  1  1  0  0  0
  3 10  1  0  0  0  0
  4  9  1  0  0  0  0
  7 16  1  0  0  0  0
  8  2  1  0  0  0  0
  8  4  1  0  0  0  0
 10  9  1  6  0  0  0
 11  7  2  0  0  0  0
 12  5  1  6  0  0  0
 13 12  1  0  0  0  0
 14 13  1  0  0  0  0
 14 15  2  0  0  0  0
 15 10  1  0  0  0  0
 16 12  1  0  0  0  0
 17  5  1  0  0  0  0
 19 18  2  0  0  0  0
 20 19  1  0  0  0  0
 21 25  2  0  0  0  0
 21 22  1  0  0  0  0
 22 23  2  0  0  0  0
 23 24  1  0  0  0  0
 23 28  1  0  0  0  0
 25 29  1  0  0  0  0
 26 20  2  0  0  0  0
 26 25  1  0  0  0  0
 27 28  1  0  0  0  0
 28  1  1  1  0  0  0
 29 18  1  0  0  0  0
 29 24  2  0  0  0  0
 30 22  1  0  0  0  0
 30 27  2  0  0  0  0
M  END
>  <MODEL>
3

>  <REMARK>
 VINA RESULT:      -7.2      5.178      8.173
  Name = 
  1 active torsions:
  status: ('A' for Active; 'I' for Inactive)
    1  A    between atoms: C_1  and  C_19
                            x       y       z     vdW  Elec       q    Type
                         _______ _______ _______ _____ _____    ______ ____

>  <TORSDO>
F 1

$$$$
=
 OpenBabel11042420103D

 30 35  0  0  1  0  0  0  0  0999 V2000
  161.3440  205.2060  151.5970 C   0  0  0  0  0  0  0  0  0  0  0  0
  159.5620  209.8810  154.6660 C   0  0  1  0  0  3  0  0  0  0  0  0
  160.3560  208.8210  153.8700 C   0  0  2  0  0  3  0  0  0  0  0  0
  159.6960  211.4170  152.5930 C   0  0  0  0  0  2  0  0  0  0  0  0
  163.3720  205.4950  152.7830 C   0  0  0  0  0  2  0  0  0  0  0  0
  160.4420  210.6600  155.6400 C   0  0  0  0  0  1  0  0  0  0  0  0
  161.0740  207.8040  154.7330 C   0  0  0  0  0  0  0  0  0  0  0  0
  158.8290  210.8440  153.7270 C   0  0  0  0  0  2  0  0  0  0  0  0
  161.1360  210.8930  152.6000 C   0  0  0  0  0  2  0  0  0  0  0  0
  161.1800  209.3640  152.6860 C   0  0  2  0  0  3  0  0  0  0  0  0
  160.7720  207.7140  155.9530 O   0  0  0  0  0  0  0  0  0  0  0  0
  162.5430  206.7690  152.8540 C   0  0  1  0  0  3  0  0  0  0  0  0
  161.4640  206.5030  151.8600 C   0  0  0  0  0  0  0  0  0  0  0  0
  160.7540  207.5500  151.0900 C   0  0  0  0  0  3  0  0  0  0  0  0
  160.6600  208.7970  151.4450 N   0  0  0  0  0  0  0  0  0  0  0  0
  161.9940  206.8440  154.2040 N   0  0  0  0  0  2  0  0  0  0  0  0
  162.4170  204.4210  152.2720 C   0  0  0  0  0  2  0  0  0  0  0  0
  161.7910  206.1780  146.2020 N   0  0  0  0  0  0  0  0  0  0  0  0
  162.1640  205.8680  144.9290 C   0  0  0  0  0  3  0  0  0  0  0  0
  162.1810  204.5340  144.5030 C   0  0  0  0  0  3  0  0  0  0  0  0
  161.1320  202.8690  147.5920 N   0  0  0  0  0  0  0  0  0  0  0  0
  160.7760  203.2030  148.8590 C   0  0  0  0  0  0  0  0  0  0  0  0
  160.7220  204.5080  149.2740 C   0  0  0  0  0  0  0  0  0  0  0  0
  161.0390  205.5470  148.3940 C   0  0  0  0  0  3  0  0  0  0  0  0
  161.4680  203.8470  146.7020 C   0  0  0  0  0  0  0  0  0  0  0  0
  161.8320  203.5220  145.3970 C   0  0  0  0  0  3  0  0  0  0  0  0
  160.0020  203.1560  151.0910 C   0  0  0  0  0  3  0  0  0  0  0  0
  160.2810  204.6210  150.6910 C   0  0  1  0  0  3  0  0  0  0  0  0
  161.4340  205.2110  147.0910 C   0  0  0  0  0  0  0  0  0  0  0  0
  160.3550  202.2510  149.9020 C   0  0  0  0  0  3  0  0  0  0  0  0
  1 13  2  0  0  0  0
  1 17  1  0  0  0  0
  2  6  1  6  0  0  0
  3  2  1  0  0  0  0
  3  7  1  1  0  0  0
  4  9  1  0  0  0  0
  4  8  1  0  0  0  0
  7 11  2  0  0  0  0
  8  2  1  0  0  0  0
 10  9  1  6  0  0  0
 10  3  1  0  0  0  0
 12  5  1  1  0  0  0
 12 16  1  0  0  0  0
 13 12  1  0  0  0  0
 14 15  2  0  0  0  0
 14 13  1  0  0  0  0
 15 10  1  0  0  0  0
 16  7  1  0  0  0  0
 17  5  1  0  0  0  0
 18 29  1  0  0  0  0
 19 18  2  0  0  0  0
 20 19  1  0  0  0  0
 20 26  2  0  0  0  0
 21 22  1  0  0  0  0
 22 23  2  0  0  0  0
 22 30  1  0  0  0  0
 23 28  1  0  0  0  0
 24 23  1  0  0  0  0
 25 29  1  0  0  0  0
 25 21  2  0  0  0  0
 26 25  1  0  0  0  0
 28 27  1  0  0  0  0
 28  1  1  1  0  0  0
 29 24  2  0  0  0  0
 30 27  2  0  0  0  0
M  END
>  <MODEL>
4

>  <REMARK>
 VINA RESULT:      -5.9      5.098      8.624
  Name = 
  1 active torsions:
  status: ('A' for Active; 'I' for Inactive)
    1  A    between atoms: C_1  and  C_19
                            x       y       z     vdW  Elec       q    Type
                         _______ _______ _______ _____ _____    ______ ____

>  <TORSDO>
F 1

$$$$
