=
 OpenBabel11042421563D

 39 42  0  0  1  0  0  0  0  0999 V2000
  161.6880  206.3720  148.8480 N   0  0  0  0  0  0  0  0  0  0  0  0
  161.3810  205.7860  150.1610 C   0  0  2  0  0  3  0  0  0  0  0  0
  160.0090  205.6650  150.2970 F   0  0  0  0  0  0  0  0  0  0  0  0
  162.0660  208.5500  149.8080 C   0  0  0  0  0  0  0  0  0  0  0  0
  161.9330  206.6150  151.3020 C   0  0  0  0  0  0  0  0  0  0  0  0
  162.1950  207.9110  151.1260 C   0  0  0  0  0  3  0  0  0  0  0  0
  161.8520  207.7950  148.7260 C   0  0  0  0  0  3  0  0  0  0  0  0
  161.6870  205.5450  147.6680 C   0  0  0  0  0  0  0  0  0  0  0  0
  161.8700  206.1060  146.3940 C   0  0  0  0  0  3  0  0  0  0  0  0
  161.6660  203.9750  145.3660 C   0  0  0  0  0  3  0  0  0  0  0  0
  161.4890  204.1580  147.7590 C   0  0  0  0  0  3  0  0  0  0  0  0
  161.8570  205.3190  145.2850 N   0  0  0  0  0  0  0  0  0  0  0  0
  161.4790  203.3700  146.6090 C   0  0  0  0  0  3  0  0  0  0  0  0
  162.2670  210.0310  149.6930 C   0  0  2  0  0  3  0  0  0  0  0  0
  161.5540  210.7580  150.8180 C   0  0  0  0  0  1  0  0  0  0  0  0
  161.7890  210.5220  148.4070 N   0  0  0  0  0  2  0  0  0  0  0  0
  161.7730  211.9760  148.4730 C   0  0  2  0  0  3  0  0  0  0  0  0
  158.0580  212.8700  145.4660 N   0  0  0  0  0  1  0  0  0  0  0  0
  158.9190  212.8770  146.5990 C   0  0  0  0  0  0  0  0  0  0  0  0
  158.6740  213.5940  147.7080 N   0  0  0  0  0  0  0  0  0  0  0  0
  159.6790  213.3530  148.5310 N   0  0  0  0  0  0  0  0  0  0  0  0
  160.4990  212.4940  147.8940 C   0  0  0  0  0  0  0  0  0  0  0  0
  160.0600  212.1660  146.6640 N   0  0  0  0  0  2  0  0  0  0  0  0
  162.9070  212.5170  147.7380 N   0  0  0  0  0  2  0  0  0  0  0  0
  162.7660  214.4530  146.7560 C   0  0  0  0  0  1  0  0  0  0  0  0
  162.9500  213.8450  147.9970 O   0  0  0  0  0  0  0  0  0  0  0  0
  162.1470  206.0440  152.6760 C   0  0  0  0  0  2  0  0  0  0  0  0
  160.9770  206.2590  153.6310 C   0  0  0  0  0  2  0  0  0  0  0  0
  160.5140  208.0990  155.3260 C   0  0  0  0  0  0  0  0  0  0  0  0
  160.8830  207.6610  154.0110 N   0  0  0  0  0  2  0  0  0  0  0  0
  160.1070  207.1140  156.3690 C   0  0  0  0  0  1  0  0  0  0  0  0
  160.5130  209.3600  155.6280 N   0  0  0  0  0  0  0  0  0  0  0  0
  162.2290  210.7750  154.8950 O   0  0  0  0  0  1  0  0  0  0  0  0
  160.8970  210.4140  154.6880 C   0  0  2  0  0  3  0  0  0  0  0  0
  159.9910  212.3810  153.5720 O   0  0  0  0  0  0  0  0  0  0  0  0
  158.8550  211.5920  153.8420 C   0  0  1  0  0  3  0  0  0  0  0  0
  160.0010  211.6580  154.7800 C   0  0  1  0  0  3  0  0  0  0  0  0
  156.5810  211.9900  154.5000 N   0  0  0  0  0  2  0  0  0  0  0  0
  157.7560  212.4700  154.3310 C   0  0  0  0  0  3  0  0  0  0  0  0
  1  2  1  0  0  0  0
  2  3  1  1  0  0  0
  2  5  1  0  0  0  0
  4  6  1  0  0  0  0
  5 27  1  0  0  0  0
  6  5  2  0  0  0  0
  7  1  1  0  0  0  0
  7  4  2  0  0  0  0
  8 11  1  0  0  0  0
  8  1  1  0  0  0  0
  9  8  2  0  0  0  0
 10 13  1  0  0  0  0
 12 10  2  0  0  0  0
 12  9  1  0  0  0  0
 13 11  2  0  0  0  0
 14  4  1  0  0  0  0
 14 15  1  1  0  0  0
 16 17  1  0  0  0  0
 16 14  1  0  0  0  0
 17 24  1  6  0  0  0
 18 19  1  0  0  0  0
 19 23  1  0  0  0  0
 19 20  2  0  0  0  0
 20 21  1  0  0  0  0
 22 17  1  0  0  0  0
 22 21  2  0  0  0  0
 23 22  1  0  0  0  0
 24 26  1  0  0  0  0
 25 26  1  0  0  0  0
 27 28  1  0  0  0  0
 28 30  1  0  0  0  0
 29 32  2  0  0  0  0
 29 31  1  0  0  0  0
 30 29  1  0  0  0  0
 34 33  1  1  0  0  0
 34 32  1  0  0  0  0
 35 36  1  0  0  0  0
 35 37  1  0  0  0  0
 36 39  1  1  0  0  0
 36 37  1  0  0  0  0
 37 34  1  6  0  0  0
 39 38  2  0  0  0  0
M  END
>  <MODEL>
1

>  <REMARK>
 VINA RESULT:      -7.6      0.000      0.000
  Name = 
  13 active torsions:
  status: ('A' for Active; 'I' for Inactive)
    1  A    between atoms: C_1  and  C_16
    2  A    between atoms: C_1  and  N_21
    3  A    between atoms: N_2  and  C_5
    4  A    between atoms: C_9  and  C_20
    5  A    between atoms: N_10  and  C_30
    6  A    between atoms: N_10  and  O_35
    7  A    between atoms: N_17  and  C_39
    8  A    between atoms: C_18  and  C_24
    9  A    between atoms: C_18  and  N_29
   10  A    between atoms: N_21  and  C_30
   11  A    between atoms: C_23  and  C_32
   12  A    between atoms: C_28  and  C_30
   13  A    between atoms: C_32  and  C_39
                            x       y       z     vdW  Elec       q    Type
                         _______ _______ _______ _____ _____    ______ ____

>  <TORSDO>
F 13

$$$$
=
 OpenBabel11042421563D

 39 42  0  0  1  0  0  0  0  0999 V2000
  161.8960  210.3100  149.6920 N   0  0  0  0  0  0  0  0  0  0  0  0
  161.8810  210.2660  151.1620 C   0  0  2  0  0  3  0  0  0  0  0  0
  163.1780  210.3590  151.6350 F   0  0  0  0  0  0  0  0  0  0  0  0
  161.6270  207.9210  149.5270 C   0  0  0  0  0  0  0  0  0  0  0  0
  161.2390  209.0000  151.6900 C   0  0  0  0  0  0  0  0  0  0  0  0
  161.1800  207.9070  150.9270 C   0  0  0  0  0  3  0  0  0  0  0  0
  161.9390  209.0820  148.9450 C   0  0  0  0  0  3  0  0  0  0  0  0
  162.0080  211.5730  149.0070 C   0  0  0  0  0  0  0  0  0  0  0  0
  161.1060  212.6160  149.2680 C   0  0  0  0  0  3  0  0  0  0  0  0
  162.1850  214.0180  147.6830 C   0  0  0  0  0  3  0  0  0  0  0  0
  163.0130  211.7890  148.0510 C   0  0  0  0  0  3  0  0  0  0  0  0
  161.2130  213.8020  148.6100 N   0  0  0  0  0  0  0  0  0  0  0  0
  163.1050  213.0120  147.3880 C   0  0  0  0  0  3  0  0  0  0  0  0
  161.6400  206.6370  148.7530 C   0  0  2  0  0  3  0  0  0  0  0  0
  161.4310  206.9010  147.2730 C   0  0  0  0  0  1  0  0  0  0  0  0
  160.6140  205.7260  149.2420 N   0  0  0  0  0  2  0  0  0  0  0  0
  161.2920  204.5900  149.8500 C   0  0  2  0  0  3  0  0  0  0  0  0
  160.8690  201.3950  146.2080 N   0  0  0  0  0  1  0  0  0  0  0  0
  160.8280  201.9980  147.4960 C   0  0  0  0  0  0  0  0  0  0  0  0
  160.3690  201.3690  148.5910 N   0  0  0  0  0  0  0  0  0  0  0  0
  160.4840  202.2310  149.5860 N   0  0  0  0  0  0  0  0  0  0  0  0
  161.0130  203.3540  149.0610 C   0  0  0  0  0  0  0  0  0  0  0  0
  161.2460  203.2540  147.7380 N   0  0  0  0  0  2  0  0  0  0  0  0
  160.8350  204.4160  151.2200 N   0  0  0  0  0  2  0  0  0  0  0  0
  161.2600  205.1590  153.2200 C   0  0  0  0  0  1  0  0  0  0  0  0
  161.8650  204.7600  152.0290 O   0  0  0  0  0  0  0  0  0  0  0  0
  160.7050  208.8980  153.0920 C   0  0  0  0  0  2  0  0  0  0  0  0
  161.4280  209.7860  154.1010 C   0  0  0  0  0  2  0  0  0  0  0  0
  160.7450  211.5810  155.7690 C   0  0  0  0  0  0  0  0  0  0  0  0
  160.5590  210.8680  154.5380 N   0  0  0  0  0  2  0  0  0  0  0  0
  161.8120  211.1750  156.7290 C   0  0  0  0  0  1  0  0  0  0  0  0
  159.9800  212.5820  156.0760 N   0  0  0  0  0  0  0  0  0  0  0  0
  159.0270  214.4490  155.0340 O   0  0  0  0  0  1  0  0  0  0  0  0
  158.9060  213.0710  155.2110 C   0  0  2  0  0  3  0  0  0  0  0  0
  156.4950  213.2400  154.9020 O   0  0  0  0  0  0  0  0  0  0  0  0
  156.7510  211.8560  154.8190 C   0  0  1  0  0  3  0  0  0  0  0  0
  157.5050  212.7370  155.7440 C   0  0  1  0  0  3  0  0  0  0  0  0
  155.2180  210.0310  155.1050 N   0  0  0  0  0  2  0  0  0  0  0  0
  155.6990  211.1210  155.5740 C   0  0  0  0  0  3  0  0  0  0  0  0
  1  2  1  0  0  0  0
  2  3  1  6  0  0  0
  2  5  1  0  0  0  0
  4  6  1  0  0  0  0
  5 27  1  0  0  0  0
  6  5  2  0  0  0  0
  7  4  2  0  0  0  0
  7  1  1  0  0  0  0
  8  9  1  0  0  0  0
  8  1  1  0  0  0  0
 10 12  1  0  0  0  0
 11  8  2  0  0  0  0
 12  9  2  0  0  0  0
 13 10  2  0  0  0  0
 13 11  1  0  0  0  0
 14 15  1  6  0  0  0
 14 16  1  0  0  0  0
 14  4  1  0  0  0  0
 17 16  1  6  0  0  0
 17 24  1  0  0  0  0
 18 19  1  0  0  0  0
 19 23  1  0  0  0  0
 19 20  2  0  0  0  0
 20 21  1  0  0  0  0
 22 21  2  0  0  0  0
 22 17  1  0  0  0  0
 23 22  1  0  0  0  0
 24 26  1  0  0  0  0
 26 25  1  0  0  0  0
 27 28  1  0  0  0  0
 28 30  1  0  0  0  0
 29 32  2  0  0  0  0
 29 31  1  0  0  0  0
 30 29  1  0  0  0  0
 34 33  1  1  0  0  0
 34 32  1  0  0  0  0
 35 37  1  0  0  0  0
 36 35  1  0  0  0  0
 36 39  1  1  0  0  0
 36 37  1  0  0  0  0
 37 34  1  6  0  0  0
 38 39  2  0  0  0  0
M  END
>  <MODEL>
2

>  <REMARK>
 VINA RESULT:      -7.5      2.689      6.821
  Name = 
  13 active torsions:
  status: ('A' for Active; 'I' for Inactive)
    1  A    between atoms: C_1  and  C_16
    2  A    between atoms: C_1  and  N_21
    3  A    between atoms: N_2  and  C_5
    4  A    between atoms: C_9  and  C_20
    5  A    between atoms: N_10  and  C_30
    6  A    between atoms: N_10  and  O_35
    7  A    between atoms: N_17  and  C_39
    8  A    between atoms: C_18  and  C_24
    9  A    between atoms: C_18  and  N_29
   10  A    between atoms: N_21  and  C_30
   11  A    between atoms: C_23  and  C_32
   12  A    between atoms: C_28  and  C_30
   13  A    between atoms: C_32  and  C_39
                            x       y       z     vdW  Elec       q    Type
                         _______ _______ _______ _____ _____    ______ ____

>  <TORSDO>
F 13

$$$$
=
 OpenBabel11042421563D

 39 42  0  0  1  0  0  0  0  0999 V2000
  161.2090  209.1280  153.1800 N   0  0  0  0  0  0  0  0  0  0  0  0
  161.2560  210.0520  152.0360 C   0  0  2  0  0  3  0  0  0  0  0  0
  159.9980  210.5870  151.8300 F   0  0  0  0  0  0  0  0  0  0  0  0
  161.1420  207.2000  151.7360 C   0  0  0  0  0  0  0  0  0  0  0  0
  161.7310  209.3710  150.7700 C   0  0  0  0  0  0  0  0  0  0  0  0
  161.6190  208.0480  150.6340 C   0  0  0  0  0  3  0  0  0  0  0  0
  160.9780  207.7280  152.9530 C   0  0  0  0  0  3  0  0  0  0  0  0
  161.2540  209.6410  154.5260 C   0  0  0  0  0  0  0  0  0  0  0  0
  162.3630  210.3720  154.9820 C   0  0  0  0  0  3  0  0  0  0  0  0
  161.3820  210.6250  157.1290 C   0  0  0  0  0  3  0  0  0  0  0  0
  160.1980  209.4110  155.4210 C   0  0  0  0  0  3  0  0  0  0  0  0
  162.4020  210.8430  156.2560 N   0  0  0  0  0  0  0  0  0  0  0  0
  160.2590  209.9040  156.7250 C   0  0  0  0  0  3  0  0  0  0  0  0
  160.9320  205.7360  151.4910 C   0  0  2  0  0  3  0  0  0  0  0  0
  161.1880  204.9380  152.7560 C   0  0  0  0  0  1  0  0  0  0  0  0
  161.7990  205.2590  150.4220 N   0  0  0  0  0  2  0  0  0  0  0  0
  160.9460  204.8510  149.3160 C   0  0  2  0  0  3  0  0  0  0  0  0
  161.3910  200.2900  147.6900 N   0  0  0  0  0  1  0  0  0  0  0  0
  161.1080  201.4160  148.5120 C   0  0  0  0  0  0  0  0  0  0  0  0
  160.5840  201.3150  149.7450 N   0  0  0  0  0  0  0  0  0  0  0  0
  160.4630  202.5520  150.1950 N   0  0  0  0  0  0  0  0  0  0  0  0
  160.9220  203.3620  149.2190 C   0  0  0  0  0  0  0  0  0  0  0  0
  161.3390  202.6860  148.1320 N   0  0  0  0  0  2  0  0  0  0  0  0
  161.4410  205.4200  148.0720 N   0  0  0  0  0  2  0  0  0  0  0  0
  160.6280  206.2830  146.2480 C   0  0  0  0  0  1  0  0  0  0  0  0
  160.5070  206.2980  147.6360 O   0  0  0  0  0  0  0  0  0  0  0  0
  162.2820  210.1430  149.6030 C   0  0  0  0  0  2  0  0  0  0  0  0
  161.8930  211.6190  149.5930 C   0  0  0  0  0  2  0  0  0  0  0  0
  161.7010  212.7970  147.3460 C   0  0  0  0  0  0  0  0  0  0  0  0
  161.1710  211.9450  148.3710 N   0  0  0  0  0  2  0  0  0  0  0  0
  163.0120  213.4820  147.5290 C   0  0  0  0  0  1  0  0  0  0  0  0
  161.0420  212.9980  146.2480 N   0  0  0  0  0  0  0  0  0  0  0  0
  159.6800  212.0270  144.6080 O   0  0  0  0  0  1  0  0  0  0  0  0
  159.7490  212.3770  145.9580 C   0  0  2  0  0  3  0  0  0  0  0  0
  157.3400  212.7320  145.8600 O   0  0  0  0  0  0  0  0  0  0  0  0
  157.6060  212.5890  147.2360 C   0  0  1  0  0  3  0  0  0  0  0  0
  158.5550  213.2710  146.3240 C   0  0  1  0  0  3  0  0  0  0  0  0
  156.6310  213.4600  149.2500 N   0  0  0  0  0  2  0  0  0  0  0  0
  156.8200  213.6040  147.9920 C   0  0  0  0  0  3  0  0  0  0  0  0
  1  8  1  0  0  0  0
  2  3  1  6  0  0  0
  2  1  1  0  0  0  0
  4  7  2  0  0  0  0
  5  2  1  0  0  0  0
  6  5  2  0  0  0  0
  6  4  1  0  0  0  0
  7  1  1  0  0  0  0
  8  9  2  0  0  0  0
  8 11  1  0  0  0  0
  9 12  1  0  0  0  0
 11 13  2  0  0  0  0
 12 10  2  0  0  0  0
 13 10  1  0  0  0  0
 14  4  1  0  0  0  0
 14 15  1  1  0  0  0
 16 14  1  0  0  0  0
 17 24  1  6  0  0  0
 17 16  1  0  0  0  0
 18 19  1  0  0  0  0
 19 20  2  0  0  0  0
 20 21  1  0  0  0  0
 22 17  1  0  0  0  0
 22 21  2  0  0  0  0
 23 19  1  0  0  0  0
 23 22  1  0  0  0  0
 25 26  1  0  0  0  0
 26 24  1  0  0  0  0
 27  5  1  0  0  0  0
 28 27  1  0  0  0  0
 29 31  1  0  0  0  0
 29 30  1  0  0  0  0
 30 28  1  0  0  0  0
 32 29  2  0  0  0  0
 34 33  1  6  0  0  0
 34 32  1  0  0  0  0
 35 37  1  0  0  0  0
 35 36  1  0  0  0  0
 36 39  1  1  0  0  0
 37 34  1  6  0  0  0
 37 36  1  0  0  0  0
 39 38  2  0  0  0  0
M  END
>  <MODEL>
3

>  <REMARK>
 VINA RESULT:      -7.5      3.012      8.521
  Name = 
  13 active torsions:
  status: ('A' for Active; 'I' for Inactive)
    1  A    between atoms: C_1  and  C_16
    2  A    between atoms: C_1  and  N_21
    3  A    between atoms: N_2  and  C_5
    4  A    between atoms: C_9  and  C_20
    5  A    between atoms: N_10  and  C_30
    6  A    between atoms: N_10  and  O_35
    7  A    between atoms: N_17  and  C_39
    8  A    between atoms: C_18  and  C_24
    9  A    between atoms: C_18  and  N_29
   10  A    between atoms: N_21  and  C_30
   11  A    between atoms: C_23  and  C_32
   12  A    between atoms: C_28  and  C_30
   13  A    between atoms: C_32  and  C_39
                            x       y       z     vdW  Elec       q    Type
                         _______ _______ _______ _____ _____    ______ ____

>  <TORSDO>
F 13

$$$$
=
 OpenBabel11042421563D

 39 42  0  0  1  0  0  0  0  0999 V2000
  161.4960  206.7460  151.0900 N   0  0  0  0  0  0  0  0  0  0  0  0
  162.2280  207.4080  150.0000 C   0  0  2  0  0  3  0  0  0  0  0  0
  163.5850  207.1890  150.1620 F   0  0  0  0  0  0  0  0  0  0  0  0
  161.2110  208.8200  152.2820 C   0  0  0  0  0  0  0  0  0  0  0  0
  161.9580  208.8980  149.9510 C   0  0  0  0  0  0  0  0  0  0  0  0
  161.5350  209.5400  151.0420 C   0  0  0  0  0  3  0  0  0  0  0  0
  161.1700  207.4850  152.2790 C   0  0  0  0  0  3  0  0  0  0  0  0
  161.2300  205.3310  151.0270 C   0  0  0  0  0  0  0  0  0  0  0  0
  161.1990  204.5510  152.1940 C   0  0  0  0  0  3  0  0  0  0  0  0
  160.7430  202.5890  150.9360 C   0  0  0  0  0  3  0  0  0  0  0  0
  161.0110  204.6920  149.7970 C   0  0  0  0  0  3  0  0  0  0  0  0
  160.9580  203.2140  152.1240 N   0  0  0  0  0  0  0  0  0  0  0  0
  160.7650  203.3190  149.7480 C   0  0  0  0  0  3  0  0  0  0  0  0
  160.8460  209.6050  153.5060 C   0  0  2  0  0  3  0  0  0  0  0  0
  160.6250  208.6800  154.6890 C   0  0  0  0  0  1  0  0  0  0  0  0
  159.6500  210.4040  153.2730 N   0  0  0  0  0  2  0  0  0  0  0  0
  159.8080  211.6500  154.0080 C   0  0  2  0  0  3  0  0  0  0  0  0
  155.6580  211.6630  156.5420 N   0  0  0  0  0  1  0  0  0  0  0  0
  157.0370  211.7220  156.1960 C   0  0  0  0  0  0  0  0  0  0  0  0
  158.0150  211.9210  157.0950 N   0  0  0  0  0  0  0  0  0  0  0  0
  159.1470  211.9150  156.4130 N   0  0  0  0  0  0  0  0  0  0  0  0
  158.8170  211.7090  155.1220 C   0  0  0  0  0  0  0  0  0  0  0  0
  157.4890  211.5840  154.9360 N   0  0  0  0  0  2  0  0  0  0  0  0
  159.6140  212.7810  153.1130 N   0  0  0  0  0  2  0  0  0  0  0  0
  159.6610  213.3720  151.0200 C   0  0  0  0  0  1  0  0  0  0  0  0
  159.4730  212.2780  151.8630 O   0  0  0  0  0  0  0  0  0  0  0  0
  162.2100  209.7170  148.7170 C   0  0  0  0  0  2  0  0  0  0  0  0
  161.9680  211.2120  148.9010 C   0  0  0  0  0  2  0  0  0  0  0  0
  161.4410  212.8340  147.0120 C   0  0  0  0  0  0  0  0  0  0  0  0
  161.0990  211.7190  147.8480 N   0  0  0  0  0  2  0  0  0  0  0  0
  162.6950  213.6050  147.2490 C   0  0  0  0  0  1  0  0  0  0  0  0
  160.6590  213.2000  146.0450 N   0  0  0  0  0  0  0  0  0  0  0  0
  159.3340  212.2860  144.3430 O   0  0  0  0  0  1  0  0  0  0  0  0
  159.4070  212.5160  145.7180 C   0  0  2  0  0  3  0  0  0  0  0  0
  157.0030  212.4890  146.1110 O   0  0  0  0  0  0  0  0  0  0  0  0
  157.5530  212.6830  147.3940 C   0  0  1  0  0  3  0  0  0  0  0  0
  158.1610  213.2850  146.1820 C   0  0  1  0  0  3  0  0  0  0  0  0
  156.4600  213.5430  149.3510 N   0  0  0  0  0  2  0  0  0  0  0  0
  156.7540  213.7120  148.1160 C   0  0  0  0  0  3  0  0  0  0  0  0
  1  7  1  0  0  0  0
  2  3  1  1  0  0  0
  2  1  1  0  0  0  0
  4 14  1  0  0  0  0
  5  2  1  0  0  0  0
  5  6  2  0  0  0  0
  6  4  1  0  0  0  0
  7  4  2  0  0  0  0
  8  1  1  0  0  0  0
  8  9  1  0  0  0  0
 10 12  1  0  0  0  0
 11  8  2  0  0  0  0
 12  9  2  0  0  0  0
 13 11  1  0  0  0  0
 13 10  2  0  0  0  0
 14 15  1  1  0  0  0
 16 14  1  0  0  0  0
 16 17  1  0  0  0  0
 17 24  1  6  0  0  0
 17 22  1  0  0  0  0
 19 18  1  0  0  0  0
 19 20  2  0  0  0  0
 21 20  1  0  0  0  0
 22 21  2  0  0  0  0
 23 22  1  0  0  0  0
 23 19  1  0  0  0  0
 25 26  1  0  0  0  0
 26 24  1  0  0  0  0
 27 28  1  0  0  0  0
 27  5  1  0  0  0  0
 29 31  1  0  0  0  0
 29 30  1  0  0  0  0
 30 28  1  0  0  0  0
 32 29  2  0  0  0  0
 34 33  1  6  0  0  0
 34 32  1  0  0  0  0
 35 37  1  0  0  0  0
 35 36  1  0  0  0  0
 36 39  1  1  0  0  0
 37 34  1  6  0  0  0
 37 36  1  0  0  0  0
 39 38  2  0  0  0  0
M  END
>  <MODEL>
4

>  <REMARK>
 VINA RESULT:      -7.0      2.485      6.879
  Name = 
  13 active torsions:
  status: ('A' for Active; 'I' for Inactive)
    1  A    between atoms: C_1  and  C_16
    2  A    between atoms: C_1  and  N_21
    3  A    between atoms: N_2  and  C_5
    4  A    between atoms: C_9  and  C_20
    5  A    between atoms: N_10  and  C_30
    6  A    between atoms: N_10  and  O_35
    7  A    between atoms: N_17  and  C_39
    8  A    between atoms: C_18  and  C_24
    9  A    between atoms: C_18  and  N_29
   10  A    between atoms: N_21  and  C_30
   11  A    between atoms: C_23  and  C_32
   12  A    between atoms: C_28  and  C_30
   13  A    between atoms: C_32  and  C_39
                            x       y       z     vdW  Elec       q    Type
                         _______ _______ _______ _____ _____    ______ ____

>  <TORSDO>
F 13

$$$$
=
 OpenBabel11042421563D

 39 42  0  0  1  0  0  0  0  0999 V2000
  161.4150  207.5830  151.0380 N   0  0  0  0  0  0  0  0  0  0  0  0
  161.1360  206.2890  150.3970 C   0  0  2  0  0  3  0  0  0  0  0  0
  159.8200  206.2630  149.9730 F   0  0  0  0  0  0  0  0  0  0  0  0
  161.2160  206.6350  153.2450 C   0  0  0  0  0  0  0  0  0  0  0  0
  161.3920  205.1220  151.3270 C   0  0  0  0  0  0  0  0  0  0  0  0
  161.3720  205.3000  152.6500 C   0  0  0  0  0  3  0  0  0  0  0  0
  161.2670  207.7160  152.4610 C   0  0  0  0  0  3  0  0  0  0  0  0
  161.6970  208.7430  150.2310 C   0  0  0  0  0  0  0  0  0  0  0  0
  161.6860  208.6660  148.8300 C   0  0  0  0  0  3  0  0  0  0  0  0
  162.2620  210.9630  148.6450 C   0  0  0  0  0  3  0  0  0  0  0  0
  162.0050  209.9770  150.8250 C   0  0  0  0  0  3  0  0  0  0  0  0
  161.9630  209.7640  148.0760 N   0  0  0  0  0  0  0  0  0  0  0  0
  162.2880  211.0910  150.0340 C   0  0  0  0  0  3  0  0  0  0  0  0
  161.0900  206.7600  154.7330 C   0  0  2  0  0  3  0  0  0  0  0  0
  159.6460  206.5840  155.1660 C   0  0  0  0  0  1  0  0  0  0  0  0
  161.5890  208.0510  155.1890 N   0  0  0  0  0  2  0  0  0  0  0  0
  160.5250  208.6850  155.9540 C   0  0  2  0  0  3  0  0  0  0  0  0
  160.0700  212.3650  152.8090 N   0  0  0  0  0  1  0  0  0  0  0  0
  159.8270  211.4480  153.8690 C   0  0  0  0  0  0  0  0  0  0  0  0
  158.7470  211.5120  154.6660 N   0  0  0  0  0  0  0  0  0  0  0  0
  158.8620  210.5120  155.5220 N   0  0  0  0  0  0  0  0  0  0  0  0
  160.0080  209.8720  155.2130 C   0  0  0  0  0  0  0  0  0  0  0  0
  160.6550  210.4330  154.1730 N   0  0  0  0  0  2  0  0  0  0  0  0
  161.0280  209.0950  157.2560 N   0  0  0  0  0  2  0  0  0  0  0  0
  162.7570  210.4140  157.2510 C   0  0  0  0  0  1  0  0  0  0  0  0
  162.3800  209.0740  157.1840 O   0  0  0  0  0  0  0  0  0  0  0  0
  161.6120  203.7250  150.8190 C   0  0  0  0  0  2  0  0  0  0  0  0
  160.3490  203.0430  150.3010 C   0  0  0  0  0  2  0  0  0  0  0  0
  160.9600  201.5420  148.3400 C   0  0  0  0  0  0  0  0  0  0  0  0
  160.4630  202.7770  148.8750 N   0  0  0  0  0  2  0  0  0  0  0  0
  161.4830  200.4780  149.2430 C   0  0  0  0  0  1  0  0  0  0  0  0
  160.9760  201.3350  147.0590 N   0  0  0  0  0  0  0  0  0  0  0  0
  159.9650  201.6390  144.9690 O   0  0  0  0  0  1  0  0  0  0  0  0
  160.4840  202.3050  146.0800 C   0  0  2  0  0  3  0  0  0  0  0  0
  161.0480  204.2420  144.7130 O   0  0  0  0  0  0  0  0  0  0  0  0
  161.2380  204.6930  146.0350 C   0  0  1  0  0  3  0  0  0  0  0  0
  161.5610  203.3040  145.6290 C   0  0  1  0  0  3  0  0  0  0  0  0
  162.6140  206.4160  146.9840 N   0  0  0  0  0  2  0  0  0  0  0  0
  162.4890  205.4990  146.0990 C   0  0  0  0  0  3  0  0  0  0  0  0
  1  7  1  0  0  0  0
  2  3  1  1  0  0  0
  2  1  1  0  0  0  0
  2  5  1  0  0  0  0
  4 14  1  0  0  0  0
  5  6  2  0  0  0  0
  6  4  1  0  0  0  0
  7  4  2  0  0  0  0
  8 11  1  0  0  0  0
  8  1  1  0  0  0  0
  9  8  2  0  0  0  0
 10 13  1  0  0  0  0
 12 10  2  0  0  0  0
 12  9  1  0  0  0  0
 13 11  2  0  0  0  0
 14 15  1  6  0  0  0
 14 16  1  0  0  0  0
 17 16  1  6  0  0  0
 17 24  1  0  0  0  0
 18 19  1  0  0  0  0
 19 23  1  0  0  0  0
 19 20  2  0  0  0  0
 20 21  1  0  0  0  0
 22 21  2  0  0  0  0
 22 17  1  0  0  0  0
 23 22  1  0  0  0  0
 26 25  1  0  0  0  0
 26 24  1  0  0  0  0
 27  5  1  0  0  0  0
 28 27  1  0  0  0  0
 29 30  1  0  0  0  0
 29 31  1  0  0  0  0
 30 28  1  0  0  0  0
 32 29  2  0  0  0  0
 34 33  1  6  0  0  0
 34 32  1  0  0  0  0
 35 37  1  0  0  0  0
 35 36  1  0  0  0  0
 36 39  1  6  0  0  0
 37 36  1  0  0  0  0
 37 34  1  1  0  0  0
 39 38  2  0  0  0  0
M  END
>  <MODEL>
5

>  <REMARK>
 VINA RESULT:      -6.9      3.312      8.132
  Name = 
  13 active torsions:
  status: ('A' for Active; 'I' for Inactive)
    1  A    between atoms: C_1  and  C_16
    2  A    between atoms: C_1  and  N_21
    3  A    between atoms: N_2  and  C_5
    4  A    between atoms: C_9  and  C_20
    5  A    between atoms: N_10  and  C_30
    6  A    between atoms: N_10  and  O_35
    7  A    between atoms: N_17  and  C_39
    8  A    between atoms: C_18  and  C_24
    9  A    between atoms: C_18  and  N_29
   10  A    between atoms: N_21  and  C_30
   11  A    between atoms: C_23  and  C_32
   12  A    between atoms: C_28  and  C_30
   13  A    between atoms: C_32  and  C_39
                            x       y       z     vdW  Elec       q    Type
                         _______ _______ _______ _____ _____    ______ ____

>  <TORSDO>
F 13

$$$$
=
 OpenBabel11042421563D

 39 42  0  0  1  0  0  0  0  0999 V2000
  161.6160  206.3230  149.8400 N   0  0  0  0  0  0  0  0  0  0  0  0
  162.1660  207.2810  148.8690 C   0  0  2  0  0  3  0  0  0  0  0  0
  163.5260  207.0690  148.7390 F   0  0  0  0  0  0  0  0  0  0  0  0
  161.5650  207.9840  151.5860 C   0  0  0  0  0  0  0  0  0  0  0  0
  161.9140  208.7180  149.2760 C   0  0  0  0  0  0  0  0  0  0  0  0
  161.6880  209.0250  150.5550 C   0  0  0  0  0  3  0  0  0  0  0  0
  161.5040  206.6990  151.2230 C   0  0  0  0  0  3  0  0  0  0  0  0
  161.3220  204.9720  149.4360 C   0  0  0  0  0  0  0  0  0  0  0  0
  161.4530  204.5760  148.0960 C   0  0  0  0  0  3  0  0  0  0  0  0
  160.7390  202.3730  148.6190 C   0  0  0  0  0  3  0  0  0  0  0  0
  160.8830  204.0190  150.3680 C   0  0  0  0  0  3  0  0  0  0  0  0
  161.1640  203.3010  147.7210 N   0  0  0  0  0  0  0  0  0  0  0  0
  160.5910  202.7160  149.9630 C   0  0  0  0  0  3  0  0  0  0  0  0
  161.4210  208.3920  153.0210 C   0  0  2  0  0  3  0  0  0  0  0  0
  160.8810  207.2450  153.8540 C   0  0  0  0  0  1  0  0  0  0  0  0
  160.5450  209.5490  153.1460 N   0  0  0  0  0  2  0  0  0  0  0  0
  160.5590  209.9590  154.5430 C   0  0  2  0  0  3  0  0  0  0  0  0
  156.5800  212.4760  155.7600 N   0  0  0  0  0  1  0  0  0  0  0  0
  157.8710  212.1310  155.2710 C   0  0  0  0  0  0  0  0  0  0  0  0
  158.7120  213.0200  154.7170 N   0  0  0  0  0  0  0  0  0  0  0  0
  159.7980  212.3430  154.3870 N   0  0  0  0  0  0  0  0  0  0  0  0
  159.5800  211.0650  154.7550 C   0  0  0  0  0  0  0  0  0  0  0  0
  158.3700  210.8820  155.3180 N   0  0  0  0  0  2  0  0  0  0  0  0
  161.8940  210.4020  154.9150 N   0  0  0  0  0  2  0  0  0  0  0  0
  163.2610  210.7720  156.5670 C   0  0  0  0  0  1  0  0  0  0  0  0
  161.9830  210.3050  156.2630 O   0  0  0  0  0  0  0  0  0  0  0  0
  161.9680  209.8510  148.2900 C   0  0  0  0  0  2  0  0  0  0  0  0
  161.9360  211.2360  148.9290 C   0  0  0  0  0  2  0  0  0  0  0  0
  161.4350  213.3970  147.6830 C   0  0  0  0  0  0  0  0  0  0  0  0
  161.0400  212.1150  148.1910 N   0  0  0  0  0  2  0  0  0  0  0  0
  162.7900  213.9460  147.9730 C   0  0  0  0  0  1  0  0  0  0  0  0
  160.6150  214.1080  146.9740 N   0  0  0  0  0  0  0  0  0  0  0  0
  158.9650  214.0460  145.3130 O   0  0  0  0  0  1  0  0  0  0  0  0
  159.2630  213.6700  146.6230 C   0  0  2  0  0  3  0  0  0  0  0  0
  156.8980  213.7930  147.1980 O   0  0  0  0  0  0  0  0  0  0  0  0
  157.4790  213.1260  148.2950 C   0  0  1  0  0  3  0  0  0  0  0  0
  158.1880  214.2130  147.5770 C   0  0  1  0  0  3  0  0  0  0  0  0
  157.5060  213.4940  150.6670 N   0  0  0  0  0  2  0  0  0  0  0  0
  156.8920  213.6590  149.5550 C   0  0  0  0  0  3  0  0  0  0  0  0
  1  7  1  0  0  0  0
  2  3  1  1  0  0  0
  2  5  1  0  0  0  0
  2  1  1  0  0  0  0
  4 14  1  0  0  0  0
  5  6  2  0  0  0  0
  6  4  1  0  0  0  0
  7  4  2  0  0  0  0
  8  1  1  0  0  0  0
  8 11  1  0  0  0  0
  9  8  2  0  0  0  0
 10 13  1  0  0  0  0
 12  9  1  0  0  0  0
 12 10  2  0  0  0  0
 13 11  2  0  0  0  0
 14 16  1  0  0  0  0
 14 15  1  1  0  0  0
 17 16  1  6  0  0  0
 17 22  1  0  0  0  0
 17 24  1  0  0  0  0
 19 23  1  0  0  0  0
 19 18  1  0  0  0  0
 20 19  2  0  0  0  0
 21 20  1  0  0  0  0
 21 22  2  0  0  0  0
 22 23  1  0  0  0  0
 24 26  1  0  0  0  0
 26 25  1  0  0  0  0
 27 28  1  0  0  0  0
 27  5  1  0  0  0  0
 29 31  1  0  0  0  0
 29 30  1  0  0  0  0
 30 28  1  0  0  0  0
 32 29  2  0  0  0  0
 34 33  1  6  0  0  0
 34 32  1  0  0  0  0
 35 37  1  0  0  0  0
 35 36  1  0  0  0  0
 36 39  1  1  0  0  0
 37 34  1  6  0  0  0
 37 36  1  0  0  0  0
 39 38  2  0  0  0  0
M  END
>  <MODEL>
6

>  <REMARK>
 VINA RESULT:      -6.8      2.282      6.557
  Name = 
  13 active torsions:
  status: ('A' for Active; 'I' for Inactive)
    1  A    between atoms: C_1  and  C_16
    2  A    between atoms: C_1  and  N_21
    3  A    between atoms: N_2  and  C_5
    4  A    between atoms: C_9  and  C_20
    5  A    between atoms: N_10  and  C_30
    6  A    between atoms: N_10  and  O_35
    7  A    between atoms: N_17  and  C_39
    8  A    between atoms: C_18  and  C_24
    9  A    between atoms: C_18  and  N_29
   10  A    between atoms: N_21  and  C_30
   11  A    between atoms: C_23  and  C_32
   12  A    between atoms: C_28  and  C_30
   13  A    between atoms: C_32  and  C_39
                            x       y       z     vdW  Elec       q    Type
                         _______ _______ _______ _____ _____    ______ ____

>  <TORSDO>
F 13

$$$$
=
 OpenBabel11042421563D

 39 42  0  0  1  0  0  0  0  0999 V2000
  161.8540  210.3060  149.3750 N   0  0  0  0  0  0  0  0  0  0  0  0
  161.7960  209.8760  150.7800 C   0  0  2  0  0  3  0  0  0  0  0  0
  163.0710  209.8960  151.3170 F   0  0  0  0  0  0  0  0  0  0  0  0
  161.7160  208.0360  148.5790 C   0  0  0  0  0  0  0  0  0  0  0  0
  161.2050  208.4900  150.9310 C   0  0  0  0  0  0  0  0  0  0  0  0
  161.2260  207.6350  149.9070 C   0  0  0  0  0  3  0  0  0  0  0  0
  161.9840  209.3220  148.3360 C   0  0  0  0  0  3  0  0  0  0  0  0
  161.9220  211.7090  149.0500 C   0  0  0  0  0  0  0  0  0  0  0  0
  160.9960  212.6180  149.5860 C   0  0  0  0  0  3  0  0  0  0  0  0
  162.0120  214.4220  148.4230 C   0  0  0  0  0  3  0  0  0  0  0  0
  162.9050  212.2010  148.1780 C   0  0  0  0  0  3  0  0  0  0  0  0
  161.0620  213.9380  149.2660 N   0  0  0  0  0  0  0  0  0  0  0  0
  162.9540  213.5590  147.8620 C   0  0  0  0  0  3  0  0  0  0  0  0
  161.8190  207.0030  147.4980 C   0  0  2  0  0  3  0  0  0  0  0  0
  160.4580  206.7320  146.8840 C   0  0  0  0  0  1  0  0  0  0  0  0
  162.3820  205.7640  148.0170 N   0  0  0  0  0  2  0  0  0  0  0  0
  161.5700  204.6680  147.5080 C   0  0  2  0  0  3  0  0  0  0  0  0
  160.5470  202.8760  151.9110 N   0  0  0  0  0  1  0  0  0  0  0  0
  160.7810  202.9880  150.5120 C   0  0  0  0  0  0  0  0  0  0  0  0
  160.7130  201.9450  149.6680 N   0  0  0  0  0  0  0  0  0  0  0  0
  160.9870  202.4260  148.4680 N   0  0  0  0  0  0  0  0  0  0  0  0
  161.2090  203.7460  148.6240 C   0  0  0  0  0  0  0  0  0  0  0  0
  161.0920  204.1480  149.9050 N   0  0  0  0  0  2  0  0  0  0  0  0
  162.3060  203.9400  146.4840 N   0  0  0  0  0  2  0  0  0  0  0  0
  161.0780  204.3570  144.7380 C   0  0  0  0  0  1  0  0  0  0  0  0
  161.3890  203.3680  145.6690 O   0  0  0  0  0  0  0  0  0  0  0  0
  160.6340  208.0000  152.2320 C   0  0  0  0  0  2  0  0  0  0  0  0
  161.5640  208.1830  153.4290 C   0  0  0  0  0  2  0  0  0  0  0  0
  160.3160  208.7970  155.5590 C   0  0  0  0  0  0  0  0  0  0  0  0
  161.0110  209.1580  154.3570 N   0  0  0  0  0  2  0  0  0  0  0  0
  160.0390  207.3670  155.8770 C   0  0  0  0  0  1  0  0  0  0  0  0
  159.9040  209.7080  156.3840 N   0  0  0  0  0  0  0  0  0  0  0  0
  160.9740  211.6390  157.1640 O   0  0  0  0  0  1  0  0  0  0  0  0
  160.1220  211.1410  156.1780 C   0  0  2  0  0  3  0  0  0  0  0  0
  159.0650  213.3280  155.9940 O   0  0  0  0  0  0  0  0  0  0  0  0
  158.6030  212.6330  154.8590 C   0  0  1  0  0  3  0  0  0  0  0  0
  158.8180  211.9520  156.1590 C   0  0  1  0  0  3  0  0  0  0  0  0
  156.7750  214.0150  154.1460 N   0  0  0  0  0  2  0  0  0  0  0  0
  157.1520  212.9110  154.6740 C   0  0  0  0  0  3  0  0  0  0  0  0
  1  2  1  0  0  0  0
  2  5  1  0  0  0  0
  2  3  1  6  0  0  0
  4  6  1  0  0  0  0
  5 27  1  0  0  0  0
  6  5  2  0  0  0  0
  7  4  2  0  0  0  0
  7  1  1  0  0  0  0
  8  1  1  0  0  0  0
  8  9  1  0  0  0  0
 10 12  1  0  0  0  0
 11  8  2  0  0  0  0
 12  9  2  0  0  0  0
 13 11  1  0  0  0  0
 13 10  2  0  0  0  0
 14 15  1  1  0  0  0
 14 16  1  0  0  0  0
 14  4  1  0  0  0  0
 17 24  1  6  0  0  0
 17 16  1  0  0  0  0
 17 22  1  0  0  0  0
 19 18  1  0  0  0  0
 20 19  2  0  0  0  0
 21 22  2  0  0  0  0
 21 20  1  0  0  0  0
 22 23  1  0  0  0  0
 23 19  1  0  0  0  0
 25 26  1  0  0  0  0
 26 24  1  0  0  0  0
 27 28  1  0  0  0  0
 28 30  1  0  0  0  0
 29 31  1  0  0  0  0
 29 32  2  0  0  0  0
 30 29  1  0  0  0  0
 34 32  1  0  0  0  0
 34 33  1  1  0  0  0
 35 37  1  0  0  0  0
 36 39  1  1  0  0  0
 36 35  1  0  0  0  0
 36 37  1  0  0  0  0
 37 34  1  6  0  0  0
 38 39  2  0  0  0  0
M  END
>  <MODEL>
7

>  <REMARK>
 VINA RESULT:      -6.8      2.731      6.607
  Name = 
  13 active torsions:
  status: ('A' for Active; 'I' for Inactive)
    1  A    between atoms: C_1  and  C_16
    2  A    between atoms: C_1  and  N_21
    3  A    between atoms: N_2  and  C_5
    4  A    between atoms: C_9  and  C_20
    5  A    between atoms: N_10  and  C_30
    6  A    between atoms: N_10  and  O_35
    7  A    between atoms: N_17  and  C_39
    8  A    between atoms: C_18  and  C_24
    9  A    between atoms: C_18  and  N_29
   10  A    between atoms: N_21  and  C_30
   11  A    between atoms: C_23  and  C_32
   12  A    between atoms: C_28  and  C_30
   13  A    between atoms: C_32  and  C_39
                            x       y       z     vdW  Elec       q    Type
                         _______ _______ _______ _____ _____    ______ ____

>  <TORSDO>
F 13

$$$$
=
 OpenBabel11042421563D

 39 42  0  0  1  0  0  0  0  0999 V2000
  161.4700  206.4460  151.4580 N   0  0  0  0  0  0  0  0  0  0  0  0
  162.0340  207.5200  150.6260 C   0  0  2  0  0  3  0  0  0  0  0  0
  163.4030  207.3470  150.5260 F   0  0  0  0  0  0  0  0  0  0  0  0
  161.3180  207.8920  153.3800 C   0  0  0  0  0  0  0  0  0  0  0  0
  161.7360  208.8950  151.1860 C   0  0  0  0  0  0  0  0  0  0  0  0
  161.4570  209.0470  152.4820 C   0  0  0  0  0  3  0  0  0  0  0  0
  161.2990  206.6570  152.8700 C   0  0  0  0  0  3  0  0  0  0  0  0
  161.2210  205.1460  150.8900 C   0  0  0  0  0  0  0  0  0  0  0  0
  161.0870  204.9800  149.5020 C   0  0  0  0  0  3  0  0  0  0  0  0
  160.7150  202.6490  149.7620 C   0  0  0  0  0  3  0  0  0  0  0  0
  161.0900  204.0130  151.7080 C   0  0  0  0  0  3  0  0  0  0  0  0
  160.8420  203.7500  148.9750 N   0  0  0  0  0  0  0  0  0  0  0  0
  160.8380  202.7610  151.1470 C   0  0  0  0  0  3  0  0  0  0  0  0
  161.1120  208.1290  154.8460 C   0  0  2  0  0  3  0  0  0  0  0  0
  159.8860  207.3860  155.3420 C   0  0  0  0  0  1  0  0  0  0  0  0
  160.9760  209.5510  155.1280 N   0  0  0  0  0  2  0  0  0  0  0  0
  159.7670  209.7260  155.9200 C   0  0  2  0  0  3  0  0  0  0  0  0
  155.9350  212.5090  154.8160 N   0  0  0  0  0  1  0  0  0  0  0  0
  157.1870  211.8370  154.7520 C   0  0  0  0  0  0  0  0  0  0  0  0
  158.0250  211.9350  153.7060 N   0  0  0  0  0  0  0  0  0  0  0  0
  159.0710  211.1830  154.0010 N   0  0  0  0  0  0  0  0  0  0  0  0
  158.8340  210.6560  155.2190 C   0  0  0  0  0  0  0  0  0  0  0  0
  157.6500  211.0410  155.7340 N   0  0  0  0  0  2  0  0  0  0  0  0
  160.1060  210.2590  157.2300 N   0  0  0  0  0  2  0  0  0  0  0  0
  161.9280  211.4460  157.1630 C   0  0  0  0  0  1  0  0  0  0  0  0
  160.5420  211.5280  157.0420 O   0  0  0  0  0  0  0  0  0  0  0  0
  161.8030  210.1350  150.3400 C   0  0  0  0  0  2  0  0  0  0  0  0
  162.1220  209.8720  148.8710 C   0  0  0  0  0  2  0  0  0  0  0  0
  161.7840  212.0210  147.5510 C   0  0  0  0  0  0  0  0  0  0  0  0
  161.3280  210.7420  148.0150 N   0  0  0  0  0  2  0  0  0  0  0  0
  163.0890  212.5750  148.0090 C   0  0  0  0  0  1  0  0  0  0  0  0
  161.0610  212.7240  146.7350 N   0  0  0  0  0  0  0  0  0  0  0  0
  159.8430  212.1050  144.8330 O   0  0  0  0  0  1  0  0  0  0  0  0
  159.7670  212.2790  146.2160 C   0  0  2  0  0  3  0  0  0  0  0  0
  157.3820  212.7580  146.0900 O   0  0  0  0  0  0  0  0  0  0  0  0
  157.6280  212.6250  147.4710 C   0  0  1  0  0  3  0  0  0  0  0  0
  158.6190  213.2410  146.5560 C   0  0  1  0  0  3  0  0  0  0  0  0
  156.5680  213.5220  149.4300 N   0  0  0  0  0  2  0  0  0  0  0  0
  156.8910  213.6920  148.2020 C   0  0  0  0  0  3  0  0  0  0  0  0
  1  7  1  0  0  0  0
  2  3  1  1  0  0  0
  2  5  1  0  0  0  0
  2  1  1  0  0  0  0
  4 14  1  0  0  0  0
  5  6  2  0  0  0  0
  6  4  1  0  0  0  0
  7  4  2  0  0  0  0
  8  1  1  0  0  0  0
  8 11  1  0  0  0  0
  9  8  2  0  0  0  0
 10 13  1  0  0  0  0
 12  9  1  0  0  0  0
 12 10  2  0  0  0  0
 13 11  2  0  0  0  0
 14 16  1  0  0  0  0
 14 15  1  6  0  0  0
 17 16  1  6  0  0  0
 17 24  1  0  0  0  0
 19 18  1  0  0  0  0
 19 23  1  0  0  0  0
 20 21  1  0  0  0  0
 20 19  2  0  0  0  0
 21 22  2  0  0  0  0
 22 23  1  0  0  0  0
 22 17  1  0  0  0  0
 26 25  1  0  0  0  0
 26 24  1  0  0  0  0
 27  5  1  0  0  0  0
 28 27  1  0  0  0  0
 29 31  1  0  0  0  0
 29 30  1  0  0  0  0
 30 28  1  0  0  0  0
 32 29  2  0  0  0  0
 34 33  1  6  0  0  0
 34 32  1  0  0  0  0
 35 37  1  0  0  0  0
 35 36  1  0  0  0  0
 36 39  1  1  0  0  0
 37 34  1  6  0  0  0
 37 36  1  0  0  0  0
 39 38  2  0  0  0  0
M  END
>  <MODEL>
8

>  <REMARK>
 VINA RESULT:      -6.8      2.253      6.897
  Name = 
  13 active torsions:
  status: ('A' for Active; 'I' for Inactive)
    1  A    between atoms: C_1  and  C_16
    2  A    between atoms: C_1  and  N_21
    3  A    between atoms: N_2  and  C_5
    4  A    between atoms: C_9  and  C_20
    5  A    between atoms: N_10  and  C_30
    6  A    between atoms: N_10  and  O_35
    7  A    between atoms: N_17  and  C_39
    8  A    between atoms: C_18  and  C_24
    9  A    between atoms: C_18  and  N_29
   10  A    between atoms: N_21  and  C_30
   11  A    between atoms: C_23  and  C_32
   12  A    between atoms: C_28  and  C_30
   13  A    between atoms: C_32  and  C_39
                            x       y       z     vdW  Elec       q    Type
                         _______ _______ _______ _____ _____    ______ ____

>  <TORSDO>
F 13

$$$$
=
 OpenBabel11042421563D

 39 42  0  0  1  0  0  0  0  0999 V2000
  161.0470  209.4280  153.3640 N   0  0  0  0  0  0  0  0  0  0  0  0
  161.0450  210.3240  152.1980 C   0  0  2  0  0  3  0  0  0  0  0  0
  159.7470  210.7220  151.9310 F   0  0  0  0  0  0  0  0  0  0  0  0
  161.2350  207.4690  151.9730 C   0  0  0  0  0  0  0  0  0  0  0  0
  161.6370  209.6670  150.9690 C   0  0  0  0  0  0  0  0  0  0  0  0
  161.6670  208.3370  150.8670 C   0  0  0  0  0  3  0  0  0  0  0  0
  160.9700  208.0060  153.1670 C   0  0  0  0  0  3  0  0  0  0  0  0
  160.9860  209.9740  154.6960 C   0  0  0  0  0  0  0  0  0  0  0  0
  160.7120  211.3350  154.9050 C   0  0  0  0  0  3  0  0  0  0  0  0
  160.8830  211.0650  157.2580 C   0  0  0  0  0  3  0  0  0  0  0  0
  161.2130  209.1640  155.8200 C   0  0  0  0  0  3  0  0  0  0  0  0
  160.6650  211.8440  156.1650 N   0  0  0  0  0  0  0  0  0  0  0  0
  161.1610  209.7060  157.1040 C   0  0  0  0  0  3  0  0  0  0  0  0
  161.1860  205.9870  151.7600 C   0  0  2  0  0  3  0  0  0  0  0  0
  162.5820  205.4280  151.5560 C   0  0  0  0  0  1  0  0  0  0  0  0
  160.3490  205.6540  150.6150 N   0  0  0  0  0  2  0  0  0  0  0  0
  161.0140  204.5860  149.8830 C   0  0  2  0  0  3  0  0  0  0  0  0
  162.5040  204.7470  145.2570 N   0  0  0  0  0  1  0  0  0  0  0  0
  161.8690  205.0640  146.4890 C   0  0  0  0  0  0  0  0  0  0  0  0
  161.1030  206.1530  146.6650 N   0  0  0  0  0  0  0  0  0  0  0  0
  160.6910  206.1140  147.9210 N   0  0  0  0  0  0  0  0  0  0  0  0
  161.2200  204.9990  148.4640 C   0  0  0  0  0  0  0  0  0  0  0  0
  161.9770  204.3030  147.5940 N   0  0  0  0  0  2  0  0  0  0  0  0
  160.2100  203.3750  149.9340 N   0  0  0  0  0  2  0  0  0  0  0  0
  160.8290  201.2920  150.0380 C   0  0  0  0  0  1  0  0  0  0  0  0
  160.8620  202.4990  150.7350 O   0  0  0  0  0  0  0  0  0  0  0  0
  162.1520  210.4640  149.8040 C   0  0  0  0  0  2  0  0  0  0  0  0
  161.5810  211.8770  149.7140 C   0  0  0  0  0  2  0  0  0  0  0  0
  161.6030  212.7610  147.3280 C   0  0  0  0  0  0  0  0  0  0  0  0
  160.9540  212.0890  148.4170 N   0  0  0  0  0  2  0  0  0  0  0  0
  162.9510  213.3710  147.5060 C   0  0  0  0  0  1  0  0  0  0  0  0
  161.0220  212.8620  146.1730 N   0  0  0  0  0  0  0  0  0  0  0  0
  159.6170  211.9590  144.5320 O   0  0  0  0  0  1  0  0  0  0  0  0
  159.7030  212.2990  145.8830 C   0  0  2  0  0  3  0  0  0  0  0  0
  157.2970  212.6760  145.9550 O   0  0  0  0  0  0  0  0  0  0  0  0
  157.6790  212.6730  147.3110 C   0  0  1  0  0  3  0  0  0  0  0  0
  158.5500  213.2430  146.2540 C   0  0  1  0  0  3  0  0  0  0  0  0
  156.3670  213.5350  149.1260 N   0  0  0  0  0  2  0  0  0  0  0  0
  156.9680  213.7720  148.0210 C   0  0  0  0  0  3  0  0  0  0  0  0
  1  8  1  0  0  0  0
  2  3  1  6  0  0  0
  2  1  1  0  0  0  0
  4  7  2  0  0  0  0
  5  2  1  0  0  0  0
  6  5  2  0  0  0  0
  6  4  1  0  0  0  0
  7  1  1  0  0  0  0
  8  9  2  0  0  0  0
  8 11  1  0  0  0  0
  9 12  1  0  0  0  0
 11 13  2  0  0  0  0
 12 10  2  0  0  0  0
 13 10  1  0  0  0  0
 14 15  1  6  0  0  0
 14  4  1  0  0  0  0
 16 14  1  0  0  0  0
 17 24  1  6  0  0  0
 17 16  1  0  0  0  0
 18 19  1  0  0  0  0
 19 20  2  0  0  0  0
 19 23  1  0  0  0  0
 20 21  1  0  0  0  0
 21 22  2  0  0  0  0
 22 17  1  0  0  0  0
 23 22  1  0  0  0  0
 24 26  1  0  0  0  0
 25 26  1  0  0  0  0
 27  5  1  0  0  0  0
 28 27  1  0  0  0  0
 29 31  1  0  0  0  0
 29 30  1  0  0  0  0
 30 28  1  0  0  0  0
 32 29  2  0  0  0  0
 34 33  1  6  0  0  0
 34 32  1  0  0  0  0
 35 37  1  0  0  0  0
 35 36  1  0  0  0  0
 36 39  1  1  0  0  0
 37 34  1  6  0  0  0
 37 36  1  0  0  0  0
 39 38  2  0  0  0  0
M  END
>  <MODEL>
9

>  <REMARK>
 VINA RESULT:      -6.8      2.874      8.389
  Name = 
  13 active torsions:
  status: ('A' for Active; 'I' for Inactive)
    1  A    between atoms: C_1  and  C_16
    2  A    between atoms: C_1  and  N_21
    3  A    between atoms: N_2  and  C_5
    4  A    between atoms: C_9  and  C_20
    5  A    between atoms: N_10  and  C_30
    6  A    between atoms: N_10  and  O_35
    7  A    between atoms: N_17  and  C_39
    8  A    between atoms: C_18  and  C_24
    9  A    between atoms: C_18  and  N_29
   10  A    between atoms: N_21  and  C_30
   11  A    between atoms: C_23  and  C_32
   12  A    between atoms: C_28  and  C_30
   13  A    between atoms: C_32  and  C_39
                            x       y       z     vdW  Elec       q    Type
                         _______ _______ _______ _____ _____    ______ ____

>  <TORSDO>
F 13

$$$$
