=
 OpenBabel11052410553D

 30 32  0  0  1  0  0  0  0  0999 V2000
  161.2860  205.2740  152.2450 C   0  0  0  0  0  0  0  0  0  0  0  0
  161.0050  207.9700  154.2630 C   0  0  0  0  0  3  0  0  0  0  0  0
  161.4850  207.4700  151.9040 C   0  0  2  0  0  3  0  0  0  0  0  0
  161.5990  205.7300  153.4190 N   0  0  0  0  0  0  0  0  0  0  0  0
  161.0560  208.8180  151.5170 C   0  0  0  0  0  3  0  0  0  0  0  0
  160.4810  209.1570  153.8900 C   0  0  0  0  0  0  0  0  0  0  0  0
  160.6020  209.6250  152.4830 C   0  0  0  0  0  3  0  0  0  0  0  0
  161.2030  206.3490  151.2620 C   0  0  2  0  0  3  0  0  0  0  0  0
  161.8500  207.1620  153.3150 C   0  0  2  0  0  3  0  0  0  0  0  0
  161.6270  203.1960  151.0190 C   0  0  0  0  0  3  0  0  0  0  0  0
  160.0370  203.1940  152.7620 O   0  0  0  0  0  1  0  0  0  0  0  0
  160.9900  203.8520  151.9900 C   0  0  0  0  0  0  0  0  0  0  0  0
  161.3490  201.7630  150.7160 C   0  0  0  0  0  2  0  0  0  0  0  0
  160.6980  202.9200  148.3840 O   0  0  0  0  0  0  0  0  0  0  0  0
  160.5820  201.6130  149.1170 S   0  0  0  0  0  0  0  0  0  0  0  0
  159.1310  201.2560  149.2850 O   0  0  0  0  0  0  0  0  0  0  0  0
  161.3900  200.3690  148.2260 N   0  0  0  0  0  2  0  0  0  0  0  0
  161.2530  200.6770  146.8120 C   0  0  0  0  0  2  0  0  0  0  0  0
  161.2990  199.3930  146.0100 C   0  0  0  0  0  1  0  0  0  0  0  0
  159.7820  209.9600  154.7970 O   0  0  0  0  0  0  0  0  0  0  0  0
  159.7930  209.7330  156.2010 C   0  0  0  0  0  1  0  0  0  0  0  0
  160.5970  206.2590  149.9000 C   0  0  0  0  0  2  0  0  0  0  0  0
  161.6280  205.9450  148.9270 N   0  0  0  0  0  2  0  0  0  0  0  0
  161.7810  207.0820  148.1230 N   0  0  0  0  0  2  0  0  0  0  0  0
  162.6370  205.3090  146.6980 C   0  0  0  0  0  3  0  0  0  0  0  0
  160.3380  205.6230  145.1730 N   0  0  0  0  0  0  0  0  0  0  0  0
  161.8930  206.6210  146.7500 C   0  0  1  0  0  3  0  0  0  0  0  0
  162.4210  204.4700  145.6760 C   0  0  0  0  0  3  0  0  0  0  0  0
  160.5190  206.4450  146.1540 C   0  0  0  0  0  3  0  0  0  0  0  0
  161.4390  204.8640  144.6020 C   0  0  0  0  0  2  0  0  0  0  0  0
  1  4  2  0  0  0  0
  3  5  1  1  0  0  0
  3  9  1  0  0  0  0
  5  7  2  0  0  0  0
  6  2  2  0  0  0  0
  6 20  1  0  0  0  0
  7  6  1  0  0  0  0
  8 22  1  1  0  0  0
  8  3  1  0  0  0  0
  8  1  1  0  0  0  0
  9  4  1  0  0  0  0
  9  2  1  1  0  0  0
 10 12  2  0  0  0  0
 12  1  1  0  0  0  0
 12 11  1  0  0  0  0
 13 10  1  0  0  0  0
 14 15  2  0  0  0  0
 15 16  2  0  0  0  0
 15 13  1  0  0  0  0
 17 15  1  0  0  0  0
 18 17  1  0  0  0  0
 19 18  1  0  0  0  0
 20 21  1  0  0  0  0
 23 22  1  0  0  0  0
 24 23  1  0  0  0  0
 25 27  1  0  0  0  0
 26 29  2  0  0  0  0
 27 24  1  1  0  0  0
 28 25  2  0  0  0  0
 29 27  1  0  0  0  0
 30 26  1  0  0  0  0
 30 28  1  0  0  0  0
M  END
>  <MODEL>
1

>  <REMARK>
 VINA RESULT:      -7.1      0.000      0.000
  Name = 
  10 active torsions:
  status: ('A' for Active; 'I' for Inactive)
    1  A    between atoms: C_1  and  C_25
    2  A    between atoms: N_4  and  C_5
    3  A    between atoms: N_4  and  S_22
    4  A    between atoms: O_6  and  C_19
    5  A    between atoms: C_7  and  C_17
    6  A    between atoms: N_8  and  N_10
    7  A    between atoms: N_8  and  C_15
    8  A    between atoms: N_10  and  C_13
    9  A    between atoms: C_15  and  C_27
   10  A    between atoms: C_17  and  S_22
                            x       y       z     vdW  Elec       q    Type
                         _______ _______ _______ _____ _____    ______ ____

>  <TORSDO>
F 10

$$$$
=
 OpenBabel11052410553D

 30 32  0  0  1  0  0  0  0  0999 V2000
  161.4010  209.3720  151.0310 C   0  0  0  0  0  0  0  0  0  0  0  0
  161.2230  209.6320  154.3970 C   0  0  0  0  0  3  0  0  0  0  0  0
  160.7870  207.9600  152.6460 C   0  0  2  0  0  3  0  0  0  0  0  0
  161.0370  210.1620  151.9940 N   0  0  0  0  0  0  0  0  0  0  0  0
  160.9480  206.8770  153.6220 C   0  0  0  0  0  3  0  0  0  0  0  0
  161.5070  208.6340  155.2590 C   0  0  0  0  0  0  0  0  0  0  0  0
  161.2670  207.2160  154.8770 C   0  0  0  0  0  3  0  0  0  0  0  0
  161.2580  207.9700  151.4110 C   0  0  2  0  0  3  0  0  0  0  0  0
  160.5210  209.3560  153.0930 C   0  0  2  0  0  3  0  0  0  0  0  0
  162.0490  211.1750  149.5260 C   0  0  0  0  0  3  0  0  0  0  0  0
  162.3620  208.9580  148.7820 O   0  0  0  0  0  1  0  0  0  0  0  0
  161.9510  209.8650  149.7550 C   0  0  0  0  0  0  0  0  0  0  0  0
  162.5850  211.7170  148.2440 C   0  0  0  0  0  2  0  0  0  0  0  0
  161.0250  213.8570  148.6820 O   0  0  0  0  0  0  0  0  0  0  0  0
  161.4680  212.9340  147.5800 S   0  0  0  0  0  0  0  0  0  0  0  0
  160.2710  212.2480  146.9850 O   0  0  0  0  0  0  0  0  0  0  0  0
  162.2920  213.8380  146.3570 N   0  0  0  0  0  2  0  0  0  0  0  0
  162.0260  213.1980  145.0790 C   0  0  0  0  0  2  0  0  0  0  0  0
  163.2520  213.3040  144.1960 C   0  0  0  0  0  1  0  0  0  0  0  0
  162.0660  208.8950  156.5140 O   0  0  0  0  0  0  0  0  0  0  0  0
  162.7100  210.1220  156.8360 C   0  0  0  0  0  1  0  0  0  0  0  0
  161.8370  206.7950  150.6940 C   0  0  0  0  0  2  0  0  0  0  0  0
  160.7740  205.8850  150.3100 N   0  0  0  0  0  2  0  0  0  0  0  0
  160.3250  206.3010  149.0490 N   0  0  0  0  0  2  0  0  0  0  0  0
  161.2970  204.2740  148.1270 C   0  0  0  0  0  3  0  0  0  0  0  0
  161.2180  205.5360  145.6540 N   0  0  0  0  0  0  0  0  0  0  0  0
  161.2630  205.7810  148.0710 C   0  0  1  0  0  3  0  0  0  0  0  0
  161.6600  203.5820  147.0380 C   0  0  0  0  0  3  0  0  0  0  0  0
  160.8610  206.2250  146.6870 C   0  0  0  0  0  3  0  0  0  0  0  0
  162.0280  204.3350  145.7840 C   0  0  0  0  0  2  0  0  0  0  0  0
  1  8  1  0  0  0  0
  1  4  2  0  0  0  0
  2  6  2  0  0  0  0
  3  9  1  0  0  0  0
  3  5  1  1  0  0  0
  4  9  1  0  0  0  0
  5  7  2  0  0  0  0
  6 20  1  0  0  0  0
  7  6  1  0  0  0  0
  8 22  1  1  0  0  0
  8  3  1  0  0  0  0
  9  2  1  1  0  0  0
 10 12  2  0  0  0  0
 11 12  1  0  0  0  0
 12  1  1  0  0  0  0
 13 10  1  0  0  0  0
 15 13  1  0  0  0  0
 15 14  2  0  0  0  0
 16 15  2  0  0  0  0
 17 15  1  0  0  0  0
 18 17  1  0  0  0  0
 19 18  1  0  0  0  0
 20 21  1  0  0  0  0
 23 22  1  0  0  0  0
 24 23  1  0  0  0  0
 26 30  1  0  0  0  0
 26 29  2  0  0  0  0
 27 25  1  0  0  0  0
 27 24  1  1  0  0  0
 28 25  2  0  0  0  0
 29 27  1  0  0  0  0
 30 28  1  0  0  0  0
M  END
>  <MODEL>
2

>  <REMARK>
 VINA RESULT:      -6.9      4.252      6.616
  Name = 
  10 active torsions:
  status: ('A' for Active; 'I' for Inactive)
    1  A    between atoms: C_1  and  C_25
    2  A    between atoms: N_4  and  C_5
    3  A    between atoms: N_4  and  S_22
    4  A    between atoms: O_6  and  C_19
    5  A    between atoms: C_7  and  C_17
    6  A    between atoms: N_8  and  N_10
    7  A    between atoms: N_8  and  C_15
    8  A    between atoms: N_10  and  C_13
    9  A    between atoms: C_15  and  C_27
   10  A    between atoms: C_17  and  S_22
                            x       y       z     vdW  Elec       q    Type
                         _______ _______ _______ _____ _____    ______ ____

>  <TORSDO>
F 10

$$$$
=
 OpenBabel11052410553D

 30 32  0  0  1  0  0  0  0  0999 V2000
  161.4040  209.3630  151.2000 C   0  0  0  0  0  0  0  0  0  0  0  0
  161.2070  209.9030  154.5310 C   0  0  0  0  0  3  0  0  0  0  0  0
  160.8410  208.0710  152.9310 C   0  0  2  0  0  3  0  0  0  0  0  0
  161.0070  210.2180  152.0920 N   0  0  0  0  0  0  0  0  0  0  0  0
  161.0400  207.0830  153.9960 C   0  0  0  0  0  3  0  0  0  0  0  0
  161.5270  208.9940  155.4760 C   0  0  0  0  0  0  0  0  0  0  0  0
  161.3420  207.5400  155.2170 C   0  0  0  0  0  3  0  0  0  0  0  0
  161.3140  207.9940  151.6990 C   0  0  2  0  0  3  0  0  0  0  0  0
  160.5200  209.4890  153.2570 C   0  0  2  0  0  3  0  0  0  0  0  0
  162.1270  211.0540  149.6030 C   0  0  0  0  0  3  0  0  0  0  0  0
  162.2390  208.7950  148.9350 O   0  0  0  0  0  1  0  0  0  0  0  0
  161.9380  209.7660  149.8860 C   0  0  0  0  0  0  0  0  0  0  0  0
  162.6500  211.5080  148.2820 C   0  0  0  0  0  2  0  0  0  0  0  0
  161.0170  213.5990  148.6830 O   0  0  0  0  0  0  0  0  0  0  0  0
  161.5660  212.7340  147.5820 S   0  0  0  0  0  0  0  0  0  0  0  0
  160.4360  212.0550  146.8620 O   0  0  0  0  0  0  0  0  0  0  0  0
  162.4690  213.7050  146.4710 N   0  0  0  0  0  2  0  0  0  0  0  0
  161.9430  213.4580  145.1390 C   0  0  0  0  0  2  0  0  0  0  0  0
  163.0890  213.2000  144.1830 C   0  0  0  0  0  1  0  0  0  0  0  0
  162.0710  209.3830  156.7040 O   0  0  0  0  0  0  0  0  0  0  0  0
  162.7760  210.6050  156.8870 C   0  0  0  0  0  1  0  0  0  0  0  0
  161.9400  206.7850  151.0840 C   0  0  0  0  0  2  0  0  0  0  0  0
  160.9030  205.8730  150.6370 N   0  0  0  0  0  2  0  0  0  0  0  0
  161.2030  204.6210  151.1900 N   0  0  0  0  0  2  0  0  0  0  0  0
  161.1590  203.8020  148.9030 C   0  0  0  0  0  3  0  0  0  0  0  0
  161.0280  201.2440  149.9750 N   0  0  0  0  0  0  0  0  0  0  0  0
  160.6360  203.6180  150.3060 C   0  0  1  0  0  3  0  0  0  0  0  0
  161.1970  202.7510  148.0710 C   0  0  0  0  0  3  0  0  0  0  0  0
  160.9910  202.2380  150.8000 C   0  0  0  0  0  3  0  0  0  0  0  0
  160.7130  201.4110  148.5660 C   0  0  0  0  0  2  0  0  0  0  0  0
  1  8  1  0  0  0  0
  1  4  2  0  0  0  0
  2  6  2  0  0  0  0
  3  9  1  0  0  0  0
  3  5  1  1  0  0  0
  4  9  1  0  0  0  0
  5  7  2  0  0  0  0
  6 20  1  0  0  0  0
  7  6  1  0  0  0  0
  8 22  1  1  0  0  0
  8  3  1  0  0  0  0
  9  2  1  1  0  0  0
 10 12  2  0  0  0  0
 11 12  1  0  0  0  0
 12  1  1  0  0  0  0
 13 10  1  0  0  0  0
 15 13  1  0  0  0  0
 15 14  2  0  0  0  0
 16 15  2  0  0  0  0
 17 15  1  0  0  0  0
 18 17  1  0  0  0  0
 19 18  1  0  0  0  0
 20 21  1  0  0  0  0
 23 22  1  0  0  0  0
 23 24  1  0  0  0  0
 25 27  1  0  0  0  0
 26 29  2  0  0  0  0
 27 29  1  0  0  0  0
 27 24  1  1  0  0  0
 28 30  1  0  0  0  0
 28 25  2  0  0  0  0
 30 26  1  0  0  0  0
M  END
>  <MODEL>
3

>  <REMARK>
 VINA RESULT:      -6.9      4.277      6.941
  Name = 
  10 active torsions:
  status: ('A' for Active; 'I' for Inactive)
    1  A    between atoms: C_1  and  C_25
    2  A    between atoms: N_4  and  C_5
    3  A    between atoms: N_4  and  S_22
    4  A    between atoms: O_6  and  C_19
    5  A    between atoms: C_7  and  C_17
    6  A    between atoms: N_8  and  N_10
    7  A    between atoms: N_8  and  C_15
    8  A    between atoms: N_10  and  C_13
    9  A    between atoms: C_15  and  C_27
   10  A    between atoms: C_17  and  S_22
                            x       y       z     vdW  Elec       q    Type
                         _______ _______ _______ _____ _____    ______ ____

>  <TORSDO>
F 10

$$$$
=
 OpenBabel11052410553D

 30 32  0  0  1  0  0  0  0  0999 V2000
  161.3210  208.7130  151.4620 C   0  0  0  0  0  0  0  0  0  0  0  0
  161.0310  210.3350  154.4130 C   0  0  0  0  0  3  0  0  0  0  0  0
  160.9570  208.0310  153.5550 C   0  0  2  0  0  3  0  0  0  0  0  0
  160.7940  209.7560  152.0260 N   0  0  0  0  0  0  0  0  0  0  0  0
  161.3020  207.5110  154.8820 C   0  0  0  0  0  3  0  0  0  0  0  0
  161.4820  209.8650  155.5940 C   0  0  0  0  0  0  0  0  0  0  0  0
  161.5250  208.4000  155.8570 C   0  0  0  0  0  3  0  0  0  0  0  0
  161.4410  207.6030  152.4010 C   0  0  2  0  0  3  0  0  0  0  0  0
  160.4200  209.4110  153.3920 C   0  0  2  0  0  3  0  0  0  0  0  0
  161.7520  207.5900  149.3430 C   0  0  0  0  0  3  0  0  0  0  0  0
  162.2880  209.8820  149.4990 O   0  0  0  0  0  1  0  0  0  0  0  0
  161.7920  208.7110  150.0640 C   0  0  0  0  0  0  0  0  0  0  0  0
  162.2310  207.5380  147.9320 C   0  0  0  0  0  2  0  0  0  0  0  0
  160.9770  206.7360  145.6980 O   0  0  0  0  0  0  0  0  0  0  0  0
  161.3990  206.2330  147.0510 S   0  0  0  0  0  0  0  0  0  0  0  0
  160.1890  205.7940  147.8260 O   0  0  0  0  0  0  0  0  0  0  0  0
  162.4900  204.9030  146.8660 N   0  0  0  0  0  2  0  0  0  0  0  0
  162.3370  204.3900  145.5150 C   0  0  0  0  0  2  0  0  0  0  0  0
  161.2960  203.2900  145.5080 C   0  0  0  0  0  1  0  0  0  0  0  0
  161.9560  210.7290  156.5870 O   0  0  0  0  0  0  0  0  0  0  0  0
  163.3090  210.7400  157.0240 C   0  0  0  0  0  1  0  0  0  0  0  0
  162.2480  206.3610  152.2070 C   0  0  0  0  0  2  0  0  0  0  0  0
  161.3780  205.2010  152.2550 N   0  0  0  0  0  2  0  0  0  0  0  0
  160.7980  205.0810  150.9850 N   0  0  0  0  0  2  0  0  0  0  0  0
  160.6460  203.2850  149.3540 C   0  0  0  0  0  3  0  0  0  0  0  0
  161.5840  201.5930  151.3470 N   0  0  0  0  0  0  0  0  0  0  0  0
  160.4660  203.6800  150.7990 C   0  0  1  0  0  3  0  0  0  0  0  0
  160.9000  202.0060  149.0470 C   0  0  0  0  0  3  0  0  0  0  0  0
  161.3500  202.8230  151.6700 C   0  0  0  0  0  3  0  0  0  0  0  0
  160.9950  200.9930  150.1610 C   0  0  0  0  0  2  0  0  0  0  0  0
  1  4  2  0  0  0  0
  1  8  1  0  0  0  0
  2  6  2  0  0  0  0
  3  5  1  1  0  0  0
  4  9  1  0  0  0  0
  5  7  2  0  0  0  0
  6  7  1  0  0  0  0
  6 20  1  0  0  0  0
  8 22  1  1  0  0  0
  8  3  1  0  0  0  0
  9  3  1  0  0  0  0
  9  2  1  1  0  0  0
 10 12  2  0  0  0  0
 11 12  1  0  0  0  0
 12  1  1  0  0  0  0
 13 10  1  0  0  0  0
 14 15  2  0  0  0  0
 15 16  2  0  0  0  0
 15 13  1  0  0  0  0
 17 15  1  0  0  0  0
 18 17  1  0  0  0  0
 19 18  1  0  0  0  0
 20 21  1  0  0  0  0
 22 23  1  0  0  0  0
 24 23  1  0  0  0  0
 25 27  1  0  0  0  0
 26 29  2  0  0  0  0
 27 24  1  6  0  0  0
 27 29  1  0  0  0  0
 28 25  2  0  0  0  0
 28 30  1  0  0  0  0
 30 26  1  0  0  0  0
M  END
>  <MODEL>
4

>  <REMARK>
 VINA RESULT:      -6.8      2.521      4.565
  Name = 
  10 active torsions:
  status: ('A' for Active; 'I' for Inactive)
    1  A    between atoms: C_1  and  C_25
    2  A    between atoms: N_4  and  C_5
    3  A    between atoms: N_4  and  S_22
    4  A    between atoms: O_6  and  C_19
    5  A    between atoms: C_7  and  C_17
    6  A    between atoms: N_8  and  N_10
    7  A    between atoms: N_8  and  C_15
    8  A    between atoms: N_10  and  C_13
    9  A    between atoms: C_15  and  C_27
   10  A    between atoms: C_17  and  S_22
                            x       y       z     vdW  Elec       q    Type
                         _______ _______ _______ _____ _____    ______ ____

>  <TORSDO>
F 10

$$$$
=
 OpenBabel11052410553D

 30 32  0  0  1  0  0  0  0  0999 V2000
  161.0910  206.6390  151.3330 C   0  0  0  0  0  0  0  0  0  0  0  0
  161.0530  204.7310  148.5430 C   0  0  0  0  0  3  0  0  0  0  0  0
  161.0960  207.1140  149.1520 C   0  0  2  0  0  3  0  0  0  0  0  0
  160.5450  205.5900  150.7990 N   0  0  0  0  0  0  0  0  0  0  0  0
  161.6750  207.4510  147.8480 C   0  0  0  0  0  3  0  0  0  0  0  0
  161.7120  205.0260  147.4030 C   0  0  0  0  0  0  0  0  0  0  0  0
  161.9400  206.4430  147.0090 C   0  0  0  0  0  3  0  0  0  0  0  0
  161.4550  207.6230  150.3180 C   0  0  2  0  0  3  0  0  0  0  0  0
  160.4030  205.8120  149.3660 C   0  0  2  0  0  3  0  0  0  0  0  0
  160.8230  207.7530  153.4830 C   0  0  0  0  0  3  0  0  0  0  0  0
  162.1810  205.8250  153.4070 O   0  0  0  0  0  1  0  0  0  0  0  0
  161.3590  206.7560  152.7780 C   0  0  0  0  0  0  0  0  0  0  0  0
  161.0790  207.9180  154.9430 C   0  0  0  0  0  2  0  0  0  0  0  0
  162.4610  209.8480  156.1950 O   0  0  0  0  0  0  0  0  0  0  0  0
  161.2380  209.6450  155.3440 S   0  0  0  0  0  0  0  0  0  0  0  0
  160.0190  210.1030  156.0950 O   0  0  0  0  0  0  0  0  0  0  0  0
  161.3920  210.5460  153.8750 N   0  0  0  0  0  2  0  0  0  0  0  0
  160.3350  211.5440  153.8540 C   0  0  0  0  0  2  0  0  0  0  0  0
  159.2920  211.1510  152.8290 C   0  0  0  0  0  1  0  0  0  0  0  0
  162.2290  204.0190  146.5820 O   0  0  0  0  0  0  0  0  0  0  0  0
  161.4140  203.2070  145.7450 C   0  0  0  0  0  1  0  0  0  0  0  0
  162.3500  208.8040  150.5100 C   0  0  0  0  0  2  0  0  0  0  0  0
  161.5880  210.0270  150.3330 N   0  0  0  0  0  2  0  0  0  0  0  0
  162.4910  211.0010  149.8860 N   0  0  0  0  0  2  0  0  0  0  0  0
  160.9600  212.7750  149.2440 C   0  0  0  0  0  3  0  0  0  0  0  0
  162.6530  213.2620  147.0980 N   0  0  0  0  0  0  0  0  0  0  0  0
  161.8680  211.6730  148.7590 C   0  0  1  0  0  3  0  0  0  0  0  0
  160.7000  213.8160  148.4410 C   0  0  0  0  0  3  0  0  0  0  0  0
  162.9280  212.2530  147.8570 C   0  0  0  0  0  3  0  0  0  0  0  0
  161.3260  213.8530  147.0690 C   0  0  0  0  0  2  0  0  0  0  0  0
  1 12  1  0  0  0  0
  3  5  1  6  0  0  0
  3  9  1  0  0  0  0
  3  8  1  0  0  0  0
  4  1  2  0  0  0  0
  6  2  2  0  0  0  0
  7  6  1  0  0  0  0
  7  5  2  0  0  0  0
  8 22  1  6  0  0  0
  8  1  1  0  0  0  0
  9  2  1  6  0  0  0
  9  4  1  0  0  0  0
 10 13  1  0  0  0  0
 12 11  1  0  0  0  0
 12 10  2  0  0  0  0
 13 15  1  0  0  0  0
 15 16  2  0  0  0  0
 15 14  2  0  0  0  0
 17 15  1  0  0  0  0
 18 17  1  0  0  0  0
 19 18  1  0  0  0  0
 20  6  1  0  0  0  0
 21 20  1  0  0  0  0
 23 22  1  0  0  0  0
 24 23  1  0  0  0  0
 26 29  2  0  0  0  0
 27 25  1  0  0  0  0
 27 24  1  1  0  0  0
 28 25  2  0  0  0  0
 29 27  1  0  0  0  0
 30 26  1  0  0  0  0
 30 28  1  0  0  0  0
M  END
>  <MODEL>
5

>  <REMARK>
 VINA RESULT:      -6.8      3.690      7.833
  Name = 
  10 active torsions:
  status: ('A' for Active; 'I' for Inactive)
    1  A    between atoms: C_1  and  C_25
    2  A    between atoms: N_4  and  C_5
    3  A    between atoms: N_4  and  S_22
    4  A    between atoms: O_6  and  C_19
    5  A    between atoms: C_7  and  C_17
    6  A    between atoms: N_8  and  N_10
    7  A    between atoms: N_8  and  C_15
    8  A    between atoms: N_10  and  C_13
    9  A    between atoms: C_15  and  C_27
   10  A    between atoms: C_17  and  S_22
                            x       y       z     vdW  Elec       q    Type
                         _______ _______ _______ _____ _____    ______ ____

>  <TORSDO>
F 10

$$$$
=
 OpenBabel11052410553D

 30 32  0  0  1  0  0  0  0  0999 V2000
  161.2420  207.4620  150.6560 C   0  0  0  0  0  0  0  0  0  0  0  0
  160.8410  204.3740  149.3410 C   0  0  0  0  0  3  0  0  0  0  0  0
  160.9480  206.7090  148.5750 C   0  0  2  0  0  3  0  0  0  0  0  0
  160.6360  206.3280  150.8330 N   0  0  0  0  0  0  0  0  0  0  0  0
  161.3420  206.2660  147.2350 C   0  0  0  0  0  3  0  0  0  0  0  0
  161.3380  203.9770  148.1510 C   0  0  0  0  0  0  0  0  0  0  0  0
  161.5000  204.9510  147.0380 C   0  0  0  0  0  3  0  0  0  0  0  0
  161.4570  207.7340  149.2380 C   0  0  2  0  0  3  0  0  0  0  0  0
  160.3000  205.7670  149.5310 C   0  0  2  0  0  3  0  0  0  0  0  0
  161.1580  208.1790  152.9820 C   0  0  0  0  0  3  0  0  0  0  0  0
  162.7030  209.2520  151.5580 O   0  0  0  0  0  1  0  0  0  0  0  0
  161.7020  208.3090  151.7720 C   0  0  0  0  0  0  0  0  0  0  0  0
  161.5810  209.0240  154.1360 C   0  0  0  0  0  2  0  0  0  0  0  0
  161.9560  208.0800  156.6200 O   0  0  0  0  0  0  0  0  0  0  0  0
  160.8620  208.4070  155.6430 S   0  0  0  0  0  0  0  0  0  0  0  0
  160.0610  207.1690  155.3490 O   0  0  0  0  0  0  0  0  0  0  0  0
  159.8300  209.6270  156.3070 N   0  0  0  0  0  2  0  0  0  0  0  0
  159.5780  210.6090  155.2650 C   0  0  0  0  0  2  0  0  0  0  0  0
  160.0310  211.9740  155.7380 C   0  0  0  0  0  1  0  0  0  0  0  0
  161.7460  202.6560  147.9390 O   0  0  0  0  0  0  0  0  0  0  0  0
  161.0970  201.5390  148.5340 C   0  0  0  0  0  1  0  0  0  0  0  0
  162.3600  208.7750  148.6630 C   0  0  0  0  0  2  0  0  0  0  0  0
  161.5780  209.9290  148.2560 N   0  0  0  0  0  2  0  0  0  0  0  0
  161.9920  210.9980  149.0620 N   0  0  0  0  0  2  0  0  0  0  0  0
  162.9000  212.5900  147.4660 C   0  0  0  0  0  3  0  0  0  0  0  0
  160.3450  212.7460  146.3880 N   0  0  0  0  0  0  0  0  0  0  0  0
  161.7160  212.2180  148.3240 C   0  0  1  0  0  3  0  0  0  0  0  0
  162.7090  213.3270  146.3630 C   0  0  0  0  0  3  0  0  0  0  0  0
  160.5010  212.0260  147.4510 C   0  0  0  0  0  3  0  0  0  0  0  0
  161.3100  213.7670  146.0130 C   0  0  0  0  0  2  0  0  0  0  0  0
  1  4  2  0  0  0  0
  1 12  1  0  0  0  0
  3  5  1  1  0  0  0
  3  8  1  0  0  0  0
  3  9  1  0  0  0  0
  6  2  2  0  0  0  0
  7  5  2  0  0  0  0
  7  6  1  0  0  0  0
  8 22  1  1  0  0  0
  8  1  1  0  0  0  0
  9  2  1  1  0  0  0
  9  4  1  0  0  0  0
 10 13  1  0  0  0  0
 11 12  1  0  0  0  0
 12 10  2  0  0  0  0
 13 15  1  0  0  0  0
 15 17  1  0  0  0  0
 15 14  2  0  0  0  0
 16 15  2  0  0  0  0
 18 19  1  0  0  0  0
 18 17  1  0  0  0  0
 20  6  1  0  0  0  0
 20 21  1  0  0  0  0
 23 22  1  0  0  0  0
 23 24  1  0  0  0  0
 25 27  1  0  0  0  0
 26 29  2  0  0  0  0
 27 24  1  6  0  0  0
 28 25  2  0  0  0  0
 29 27  1  0  0  0  0
 30 28  1  0  0  0  0
 30 26  1  0  0  0  0
M  END
>  <MODEL>
6

>  <REMARK>
 VINA RESULT:      -6.3      3.854      7.816
  Name = 
  10 active torsions:
  status: ('A' for Active; 'I' for Inactive)
    1  A    between atoms: C_1  and  C_25
    2  A    between atoms: N_4  and  C_5
    3  A    between atoms: N_4  and  S_22
    4  A    between atoms: O_6  and  C_19
    5  A    between atoms: C_7  and  C_17
    6  A    between atoms: N_8  and  N_10
    7  A    between atoms: N_8  and  C_15
    8  A    between atoms: N_10  and  C_13
    9  A    between atoms: C_15  and  C_27
   10  A    between atoms: C_17  and  S_22
                            x       y       z     vdW  Elec       q    Type
                         _______ _______ _______ _____ _____    ______ ____

>  <TORSDO>
F 10

$$$$
=
 OpenBabel11052410553D

 30 32  0  0  1  0  0  0  0  0999 V2000
  161.5570  209.2810  153.0710 C   0  0  0  0  0  0  0  0  0  0  0  0
  162.2190  210.8450  150.1490 C   0  0  0  0  0  3  0  0  0  0  0  0
  162.2130  208.5620  151.0630 C   0  0  2  0  0  3  0  0  0  0  0  0
  162.1390  210.3210  152.5590 N   0  0  0  0  0  0  0  0  0  0  0  0
  162.0600  208.0080  149.7140 C   0  0  0  0  0  3  0  0  0  0  0  0
  161.9390  210.3420  148.9290 C   0  0  0  0  0  0  0  0  0  0  0  0
  161.9570  208.8720  148.6970 C   0  0  0  0  0  3  0  0  0  0  0  0
  161.5830  208.1490  152.1500 C   0  0  2  0  0  3  0  0  0  0  0  0
  162.7000  209.9550  151.2650 C   0  0  2  0  0  3  0  0  0  0  0  0
  159.9120  210.1560  154.6400 C   0  0  0  0  0  3  0  0  0  0  0  0
  161.3230  208.4200  155.3860 O   0  0  0  0  0  1  0  0  0  0  0  0
  160.9010  209.2980  154.3920 C   0  0  0  0  0  0  0  0  0  0  0  0
  159.2300  210.2190  155.9650 C   0  0  0  0  0  2  0  0  0  0  0  0
  158.4250  212.5170  154.8360 O   0  0  0  0  0  0  0  0  0  0  0  0
  158.3750  211.7710  156.1400 S   0  0  0  0  0  0  0  0  0  0  0  0
  159.0320  212.5890  157.2160 O   0  0  0  0  0  0  0  0  0  0  0  0
  156.7290  211.4530  156.5700 N   0  0  0  0  0  2  0  0  0  0  0  0
  155.9170  211.6380  155.3780 C   0  0  0  0  0  2  0  0  0  0  0  0
  155.2530  210.3270  155.0120 C   0  0  0  0  0  1  0  0  0  0  0  0
  161.5910  211.1760  147.8620 O   0  0  0  0  0  0  0  0  0  0  0  0
  161.9040  212.5630  147.8280 C   0  0  0  0  0  1  0  0  0  0  0  0
  160.7780  206.8970  152.2630 C   0  0  0  0  0  2  0  0  0  0  0  0
  161.5840  205.8490  152.8620 N   0  0  0  0  0  2  0  0  0  0  0  0
  162.2140  205.1750  151.8080 N   0  0  0  0  0  2  0  0  0  0  0  0
  161.2450  204.3890  149.7230 C   0  0  0  0  0  3  0  0  0  0  0  0
  161.1250  201.8740  150.8960 N   0  0  0  0  0  0  0  0  0  0  0  0
  161.2300  204.2790  151.2280 C   0  0  1  0  0  3  0  0  0  0  0  0
  160.8320  203.3510  148.9830 C   0  0  0  0  0  3  0  0  0  0  0  0
  161.5280  202.8570  151.6320 C   0  0  0  0  0  3  0  0  0  0  0  0
  160.3610  202.0990  149.6790 C   0  0  0  0  0  2  0  0  0  0  0  0
  1 12  1  0  0  0  0
  3  5  1  6  0  0  0
  3  9  1  0  0  0  0
  3  8  1  0  0  0  0
  4  1  2  0  0  0  0
  6  2  2  0  0  0  0
  7  6  1  0  0  0  0
  7  5  2  0  0  0  0
  8 22  1  6  0  0  0
  8  1  1  0  0  0  0
  9  2  1  6  0  0  0
  9  4  1  0  0  0  0
 10 13  1  0  0  0  0
 12 10  2  0  0  0  0
 12 11  1  0  0  0  0
 13 15  1  0  0  0  0
 14 15  2  0  0  0  0
 15 17  1  0  0  0  0
 15 16  2  0  0  0  0
 18 17  1  0  0  0  0
 19 18  1  0  0  0  0
 20  6  1  0  0  0  0
 21 20  1  0  0  0  0
 22 23  1  0  0  0  0
 24 23  1  0  0  0  0
 25 27  1  0  0  0  0
 26 29  2  0  0  0  0
 27 29  1  0  0  0  0
 27 24  1  1  0  0  0
 28 30  1  0  0  0  0
 28 25  2  0  0  0  0
 30 26  1  0  0  0  0
M  END
>  <MODEL>
7

>  <REMARK>
 VINA RESULT:      -6.2      4.352      7.933
  Name = 
  10 active torsions:
  status: ('A' for Active; 'I' for Inactive)
    1  A    between atoms: C_1  and  C_25
    2  A    between atoms: N_4  and  C_5
    3  A    between atoms: N_4  and  S_22
    4  A    between atoms: O_6  and  C_19
    5  A    between atoms: C_7  and  C_17
    6  A    between atoms: N_8  and  N_10
    7  A    between atoms: N_8  and  C_15
    8  A    between atoms: N_10  and  C_13
    9  A    between atoms: C_15  and  C_27
   10  A    between atoms: C_17  and  S_22
                            x       y       z     vdW  Elec       q    Type
                         _______ _______ _______ _____ _____    ______ ____

>  <TORSDO>
F 10

$$$$
=
 OpenBabel11052410553D

 30 32  0  0  1  0  0  0  0  0999 V2000
  161.1550  206.0790  151.4830 C   0  0  0  0  0  0  0  0  0  0  0  0
  160.6510  203.4300  149.4460 C   0  0  0  0  0  3  0  0  0  0  0  0
  161.0180  205.8560  149.2670 C   0  0  2  0  0  3  0  0  0  0  0  0
  160.4470  205.0020  151.3370 N   0  0  0  0  0  0  0  0  0  0  0  0
  161.5120  205.6930  147.8960 C   0  0  0  0  0  3  0  0  0  0  0  0
  161.2340  203.2680  148.2400 C   0  0  0  0  0  0  0  0  0  0  0  0
  161.5860  204.4500  147.4070 C   0  0  0  0  0  3  0  0  0  0  0  0
  161.5360  206.6450  150.1930 C   0  0  2  0  0  3  0  0  0  0  0  0
  160.2040  204.7890  149.9150 C   0  0  2  0  0  3  0  0  0  0  0  0
  160.8410  207.5410  153.4070 C   0  0  0  0  0  3  0  0  0  0  0  0
  162.7110  206.1030  153.4150 O   0  0  0  0  0  1  0  0  0  0  0  0
  161.5630  206.5970  152.8030 C   0  0  0  0  0  0  0  0  0  0  0  0
  161.2240  208.1040  154.7340 C   0  0  0  0  0  2  0  0  0  0  0  0
  160.2440  210.2690  153.4860 O   0  0  0  0  0  0  0  0  0  0  0  0
  160.9190  209.8580  154.7650 S   0  0  0  0  0  0  0  0  0  0  0  0
  162.2230  210.5930  154.9060 O   0  0  0  0  0  0  0  0  0  0  0  0
  159.8940  210.2210  156.1110 N   0  0  0  0  0  2  0  0  0  0  0  0
  158.6030  210.6340  155.5850 C   0  0  0  0  0  2  0  0  0  0  0  0
  158.3770  212.0990  155.8950 C   0  0  0  0  0  1  0  0  0  0  0  0
  161.5580  201.9970  147.7550 O   0  0  0  0  0  0  0  0  0  0  0  0
  161.2110  200.7960  148.4350 C   0  0  0  0  0  1  0  0  0  0  0  0
  162.5720  207.6940  149.9570 C   0  0  0  0  0  2  0  0  0  0  0  0
  161.9340  208.9180  149.5080 N   0  0  0  0  0  2  0  0  0  0  0  0
  161.9650  209.8080  150.5890 N   0  0  0  0  0  2  0  0  0  0  0  0
  161.9930  211.0940  148.5280 C   0  0  0  0  0  3  0  0  0  0  0  0
  160.3900  212.9480  149.8330 N   0  0  0  0  0  0  0  0  0  0  0  0
  162.0110  211.1500  150.0350 C   0  0  1  0  0  3  0  0  0  0  0  0
  161.5230  212.1410  147.8350 C   0  0  0  0  0  3  0  0  0  0  0  0
  160.8280  211.9480  150.5240 C   0  0  0  0  0  3  0  0  0  0  0  0
  161.0240  213.3490  148.5880 C   0  0  0  0  0  2  0  0  0  0  0  0
  1 12  1  0  0  0  0
  3  5  1  1  0  0  0
  3  9  1  0  0  0  0
  3  8  1  0  0  0  0
  4  1  2  0  0  0  0
  6  2  2  0  0  0  0
  7  5  2  0  0  0  0
  7  6  1  0  0  0  0
  8 22  1  1  0  0  0
  8  1  1  0  0  0  0
  9  2  1  6  0  0  0
  9  4  1  0  0  0  0
 10 13  1  0  0  0  0
 12 10  2  0  0  0  0
 12 11  1  0  0  0  0
 13 15  1  0  0  0  0
 14 15  2  0  0  0  0
 15 16  2  0  0  0  0
 15 17  1  0  0  0  0
 18 19  1  0  0  0  0
 18 17  1  0  0  0  0
 20  6  1  0  0  0  0
 20 21  1  0  0  0  0
 23 22  1  0  0  0  0
 23 24  1  0  0  0  0
 25 27  1  0  0  0  0
 26 29  2  0  0  0  0
 27 29  1  0  0  0  0
 27 24  1  1  0  0  0
 28 25  2  0  0  0  0
 28 30  1  0  0  0  0
 30 26  1  0  0  0  0
M  END
>  <MODEL>
8

>  <REMARK>
 VINA RESULT:      -6.1      3.406      7.929
  Name = 
  10 active torsions:
  status: ('A' for Active; 'I' for Inactive)
    1  A    between atoms: C_1  and  C_25
    2  A    between atoms: N_4  and  C_5
    3  A    between atoms: N_4  and  S_22
    4  A    between atoms: O_6  and  C_19
    5  A    between atoms: C_7  and  C_17
    6  A    between atoms: N_8  and  N_10
    7  A    between atoms: N_8  and  C_15
    8  A    between atoms: N_10  and  C_13
    9  A    between atoms: C_15  and  C_27
   10  A    between atoms: C_17  and  S_22
                            x       y       z     vdW  Elec       q    Type
                         _______ _______ _______ _____ _____    ______ ____

>  <TORSDO>
F 10

$$$$
=
 OpenBabel11052410553D

 30 32  0  0  1  0  0  0  0  0999 V2000
  161.3490  205.7920  151.2800 C   0  0  0  0  0  0  0  0  0  0  0  0
  160.8150  206.8970  154.4300 C   0  0  0  0  0  3  0  0  0  0  0  0
  161.7460  207.7310  152.3110 C   0  0  2  0  0  3  0  0  0  0  0  0
  161.4370  205.4520  152.5290 N   0  0  0  0  0  0  0  0  0  0  0  0
  161.4890  209.1140  152.7270 C   0  0  0  0  0  3  0  0  0  0  0  0
  160.4530  208.1570  154.7500 C   0  0  0  0  0  0  0  0  0  0  0  0
  160.8930  209.3050  153.9100 C   0  0  0  0  0  3  0  0  0  0  0  0
  161.5370  207.2290  151.1060 C   0  0  2  0  0  3  0  0  0  0  0  0
  161.7890  206.6290  153.3130 C   0  0  2  0  0  3  0  0  0  0  0  0
  161.3770  205.0890  148.9480 C   0  0  0  0  0  3  0  0  0  0  0  0
  160.3490  203.6550  150.5140 O   0  0  0  0  0  1  0  0  0  0  0  0
  161.0270  204.8320  150.2080 C   0  0  0  0  0  0  0  0  0  0  0  0
  161.0600  204.1540  147.8300 C   0  0  0  0  0  2  0  0  0  0  0  0
  163.2980  204.9890  146.6070 O   0  0  0  0  0  0  0  0  0  0  0  0
  161.8480  204.7020  146.3310 S   0  0  0  0  0  0  0  0  0  0  0  0
  161.1730  205.9490  145.8340 O   0  0  0  0  0  0  0  0  0  0  0  0
  161.7160  203.4510  145.1430 N   0  0  0  0  0  2  0  0  0  0  0  0
  160.3130  203.0830  145.0430 C   0  0  0  0  0  2  0  0  0  0  0  0
  160.1670  201.5900  145.2480 C   0  0  0  0  0  1  0  0  0  0  0  0
  159.6300  208.4190  155.8490 O   0  0  0  0  0  0  0  0  0  0  0  0
  159.7980  209.5540  156.6910 C   0  0  0  0  0  1  0  0  0  0  0  0
  161.2240  208.0210  149.8790 C   0  0  0  0  0  2  0  0  0  0  0  0
  162.1470  209.1360  149.7690 N   0  0  0  0  0  2  0  0  0  0  0  0
  161.9970  209.6560  148.4770 N   0  0  0  0  0  2  0  0  0  0  0  0
  163.1950  211.7650  148.3210 C   0  0  0  0  0  3  0  0  0  0  0  0
  160.8710  212.8390  147.2450 N   0  0  0  0  0  0  0  0  0  0  0  0
  161.8730  211.0970  148.6110 C   0  0  1  0  0  3  0  0  0  0  0  0
  163.2110  213.0320  147.8860 C   0  0  0  0  0  3  0  0  0  0  0  0
  160.8270  211.6140  147.6550 C   0  0  0  0  0  3  0  0  0  0  0  0
  161.9020  213.7570  147.7000 C   0  0  0  0  0  2  0  0  0  0  0  0
  1  4  2  0  0  0  0
  2  6  2  0  0  0  0
  3  5  1  1  0  0  0
  3  9  1  0  0  0  0
  4  9  1  0  0  0  0
  5  7  2  0  0  0  0
  6 20  1  0  0  0  0
  7  6  1  0  0  0  0
  8 22  1  1  0  0  0
  8  1  1  0  0  0  0
  8  3  1  0  0  0  0
  9  2  1  1  0  0  0
 10 12  2  0  0  0  0
 12 11  1  0  0  0  0
 12  1  1  0  0  0  0
 13 10  1  0  0  0  0
 15 14  2  0  0  0  0
 15 13  1  0  0  0  0
 16 15  2  0  0  0  0
 17 15  1  0  0  0  0
 18 17  1  0  0  0  0
 18 19  1  0  0  0  0
 20 21  1  0  0  0  0
 23 22  1  0  0  0  0
 24 23  1  0  0  0  0
 25 27  1  0  0  0  0
 26 29  2  0  0  0  0
 26 30  1  0  0  0  0
 27 24  1  6  0  0  0
 28 25  2  0  0  0  0
 29 27  1  0  0  0  0
 30 28  1  0  0  0  0
M  END
>  <MODEL>
9

>  <REMARK>
 VINA RESULT:      -6.0      3.041      4.065
  Name = 
  10 active torsions:
  status: ('A' for Active; 'I' for Inactive)
    1  A    between atoms: C_1  and  C_25
    2  A    between atoms: N_4  and  C_5
    3  A    between atoms: N_4  and  S_22
    4  A    between atoms: O_6  and  C_19
    5  A    between atoms: C_7  and  C_17
    6  A    between atoms: N_8  and  N_10
    7  A    between atoms: N_8  and  C_15
    8  A    between atoms: N_10  and  C_13
    9  A    between atoms: C_15  and  C_27
   10  A    between atoms: C_17  and  S_22
                            x       y       z     vdW  Elec       q    Type
                         _______ _______ _______ _____ _____    ______ ____

>  <TORSDO>
F 10

$$$$
