=
 OpenBabel11052411393D

 43 48  0  0  1  0  0  0  0  0999 V2000
  160.1040  205.3100  148.1520 O   0  0  0  0  0  0  0  0  0  0  0  0
  161.0710  205.7680  148.8190 C   0  0  0  0  0  0  0  0  0  0  0  0
  161.1790  205.4540  150.2240 N   0  0  0  0  0  0  0  0  0  0  0  0
  162.3380  203.3910  152.0110 C   0  0  0  0  0  1  0  0  0  0  0  0
  160.2140  204.5220  150.8330 C   0  0  2  0  0  3  0  0  0  0  0  0
  160.8460  203.4220  151.6990 C   0  0  2  0  0  0  0  0  0  0  0  0
  160.0080  202.9840  152.7240 O   0  0  0  0  0  1  0  0  0  0  0  0
  160.3200  203.0640  150.3150 C   0  0  2  0  0  3  0  0  0  0  0  0
  162.2620  201.8060  149.4020 O   0  0  0  0  0  1  0  0  0  0  0  0
  161.3050  202.7890  149.1450 C   0  0  1  0  0  3  0  0  0  0  0  0
  160.5300  202.4190  147.8820 C   0  0  0  0  0  2  0  0  0  0  0  0
  161.2070  201.3180  147.0640 C   0  0  1  0  0  3  0  0  0  0  0  0
  161.2740  200.1270  147.7940 O   0  0  0  0  0  1  0  0  0  0  0  0
  160.4890  201.0810  145.7410 C   0  0  0  0  0  1  0  0  0  0  0  0
  162.1740  206.5080  148.0920 C   0  0  2  0  0  3  0  0  0  0  0  0
  161.6700  207.7880  147.4480 C   0  0  0  0  0  2  0  0  0  0  0  0
  162.0150  206.6110  146.5630 C   0  0  2  0  0  3  0  0  0  0  0  0
  160.7860  205.9990  146.0690 N   0  0  0  0  0  2  0  0  0  0  0  0
  160.0170  204.0050  144.5110 O   0  0  0  0  0  0  0  0  0  0  0  0
  161.1950  204.9050  144.7850 S   0  0  0  0  0  0  0  0  0  0  0  0
  161.5810  205.8270  143.3130 C   0  0  0  0  0  1  0  0  0  0  0  0
  162.3800  204.0630  145.1730 O   0  0  0  0  0  0  0  0  0  0  0  0
  161.9890  206.3090  151.0910 C   0  0  0  0  0  2  0  0  0  0  0  0
  161.4200  209.0150  153.6060 C   0  0  0  0  0  0  0  0  0  0  0  0
  162.3300  209.8730  151.4960 C   0  0  0  0  0  3  0  0  0  0  0  0
  161.2630  207.6150  151.4180 C   0  0  1  0  0  3  0  0  0  0  0  0
  160.5820  206.7870  153.5550 O   0  0  0  0  0  0  0  0  0  0  0  0
  161.0680  207.7530  152.9090 C   0  0  0  0  0  0  0  0  0  0  0  0
  161.9840  208.7870  150.8020 C   0  0  0  0  0  3  0  0  0  0  0  0
  162.0250  209.9950  152.9290 C   0  0  0  0  0  3  0  0  0  0  0  0
  160.2610  210.0590  156.8150 C   0  0  0  0  0  0  0  0  0  0  0  0
  159.2130  212.2620  157.1290 N   0  0  0  0  0  2  0  0  0  0  0  0
  159.0590  212.9370  156.0520 N   0  0  0  0  0  2  0  0  0  0  0  0
  158.9660  210.8750  155.4760 C   0  0  1  0  0  3  0  0  0  0  0  0
  159.0270  210.8280  156.8910 C   0  0  1  0  0  3  0  0  0  0  0  0
  158.8180  212.0630  154.9500 C   0  0  2  0  0  3  0  0  0  0  0  0
  160.0880  209.9510  155.4980 N   0  0  0  0  0  0  0  0  0  0  0  0
  161.3780  209.4110  157.2610 C   0  0  0  0  0  3  0  0  0  0  0  0
  161.9140  208.8880  156.0930 N   0  0  0  0  0  0  0  0  0  0  0  0
  161.0990  209.2250  155.0310 C   0  0  0  0  0  0  0  0  0  0  0  0
  159.2690  212.3830  153.6220 C   0  0  0  0  0  0  0  0  0  0  0  0
  160.0680  212.9560  151.1420 C   0  0  0  0  0  1  0  0  0  0  0  0
  159.6330  212.6460  152.5040 C   0  0  0  0  0  0  0  0  0  0  0  0
  1  2  2  0  0  0  0
  2  3  1  0  0  0  0
  3 23  1  0  0  0  0
  5  3  1  6  0  0  0
  5  6  1  0  0  0  0
  6  4  1  1  0  0  0
  6  7  1  0  0  0  0
  8 10  1  6  0  0  0
  8  5  1  0  0  0  0
  8  6  1  0  0  0  0
 10  9  1  1  0  0  0
 11 10  1  0  0  0  0
 12 14  1  6  0  0  0
 12 13  1  0  0  0  0
 12 11  1  0  0  0  0
 15  2  1  1  0  0  0
 16 15  1  0  0  0  0
 17 18  1  1  0  0  0
 17 16  1  0  0  0  0
 17 15  1  0  0  0  0
 19 20  2  0  0  0  0
 20 22  2  0  0  0  0
 20 18  1  0  0  0  0
 21 20  1  0  0  0  0
 24 40  1  0  0  0  0
 25 30  1  0  0  0  0
 26 23  1  1  0  0  0
 26 28  1  0  0  0  0
 28 27  2  0  0  0  0
 28 24  1  0  0  0  0
 29 26  1  0  0  0  0
 29 25  2  0  0  0  0
 30 24  2  0  0  0  0
 31 38  2  0  0  0  0
 33 32  1  0  0  0  0
 34 37  1  6  0  0  0
 34 35  1  0  0  0  0
 35 31  1  6  0  0  0
 35 32  1  0  0  0  0
 36 41  1  6  0  0  0
 36 34  1  0  0  0  0
 36 33  1  0  0  0  0
 37 31  1  0  0  0  0
 39 38  1  0  0  0  0
 40 37  1  0  0  0  0
 40 39  2  0  0  0  0
 42 43  1  0  0  0  0
 43 41  3  0  0  0  0
M  END
>  <MODEL>
1

>  <REMARK>
 VINA RESULT:      -5.5      0.000      0.000
  Name = 
  11 active torsions:
  status: ('A' for Active; 'I' for Inactive)
    1  A    between atoms: C_1  and  C_38
    2  A    between atoms: C_3  and  C_43
    3  A    between atoms: N_6  and  S_12
    4  A    between atoms: N_6  and  C_41
    5  A    between atoms: C_10  and  C_28
    6  A    between atoms: C_13  and  C_27
    7  A    between atoms: C_14  and  C_17
    8  A    between atoms: C_19  and  N_29
    9  A    between atoms: C_28  and  N_29
   10  A    between atoms: C_35  and  C_38
   11  A    between atoms: C_35  and  C_42
                            x       y       z     vdW  Elec       q    Type
                         _______ _______ _______ _____ _____    ______ ____

>  <TORSDO>
F 11

$$$$
=
 OpenBabel11052411393D

 43 48  0  0  1  0  0  0  0  0999 V2000
  159.7370  206.5750  149.0380 O   0  0  0  0  0  0  0  0  0  0  0  0
  160.9750  206.4900  149.2670 C   0  0  0  0  0  0  0  0  0  0  0  0
  161.4460  205.6100  150.3100 N   0  0  0  0  0  0  0  0  0  0  0  0
  162.4980  202.9980  151.2390 C   0  0  0  0  0  1  0  0  0  0  0  0
  160.4840  204.7510  151.0230 C   0  0  2  0  0  3  0  0  0  0  0  0
  161.0340  203.3770  151.4330 C   0  0  2  0  0  0  0  0  0  0  0  0
  160.4260  202.8650  152.5780 O   0  0  0  0  0  1  0  0  0  0  0  0
  160.0780  203.4690  150.2500 C   0  0  2  0  0  3  0  0  0  0  0  0
  161.9870  203.4570  148.6550 O   0  0  0  0  0  1  0  0  0  0  0  0
  160.6060  203.3110  148.7970 C   0  0  1  0  0  3  0  0  0  0  0  0
  160.1830  201.9570  148.2290 C   0  0  0  0  0  2  0  0  0  0  0  0
  161.2870  200.9010  148.3100 C   0  0  1  0  0  3  0  0  0  0  0  0
  161.2130  200.1970  149.5160 O   0  0  0  0  0  1  0  0  0  0  0  0
  161.2240  199.9340  147.1350 C   0  0  0  0  0  1  0  0  0  0  0  0
  161.9390  207.1960  148.3390 C   0  0  2  0  0  3  0  0  0  0  0  0
  161.2160  207.9520  147.2370 C   0  0  0  0  0  2  0  0  0  0  0  0
  161.9640  206.6860  146.8860 C   0  0  2  0  0  3  0  0  0  0  0  0
  161.0090  205.6110  146.6360 N   0  0  0  0  0  2  0  0  0  0  0  0
  160.8230  203.3510  145.2750 O   0  0  0  0  0  0  0  0  0  0  0  0
  161.6050  204.6380  145.3280 S   0  0  0  0  0  0  0  0  0  0  0  0
  161.3970  205.5110  143.7910 C   0  0  0  0  0  1  0  0  0  0  0  0
  163.0620  204.3240  145.5320 O   0  0  0  0  0  0  0  0  0  0  0  0
  162.7710  205.8280  150.8900 C   0  0  0  0  0  2  0  0  0  0  0  0
  161.0730  208.5310  152.8350 C   0  0  0  0  0  0  0  0  0  0  0  0
  160.8380  206.3280  153.8900 C   0  0  0  0  0  3  0  0  0  0  0  0
  162.6790  206.5780  152.2190 C   0  0  1  0  0  3  0  0  0  0  0  0
  162.7050  208.6960  151.1090 O   0  0  0  0  0  0  0  0  0  0  0  0
  162.1710  207.9830  152.0010 C   0  0  0  0  0  0  0  0  0  0  0  0
  161.8560  205.7960  153.2110 C   0  0  0  0  0  3  0  0  0  0  0  0
  160.4490  207.7350  153.7070 C   0  0  0  0  0  3  0  0  0  0  0  0
  160.0480  211.9160  153.3050 C   0  0  0  0  0  0  0  0  0  0  0  0
  159.1330  212.6770  155.4570 N   0  0  0  0  0  2  0  0  0  0  0  0
  159.1360  211.7890  156.3800 N   0  0  0  0  0  2  0  0  0  0  0  0
  160.7880  211.3170  155.1010 C   0  0  1  0  0  3  0  0  0  0  0  0
  160.3070  212.5480  154.5900 C   0  0  1  0  0  3  0  0  0  0  0  0
  160.2550  210.9180  156.2260 C   0  0  2  0  0  3  0  0  0  0  0  0
  160.6750  210.8230  153.7380 N   0  0  0  0  0  0  0  0  0  0  0  0
  159.6080  211.8020  152.0160 C   0  0  0  0  0  3  0  0  0  0  0  0
  160.0030  210.5170  151.6710 N   0  0  0  0  0  0  0  0  0  0  0  0
  160.6630  209.9450  152.7410 C   0  0  0  0  0  0  0  0  0  0  0  0
  160.1880  209.5310  156.6020 C   0  0  0  0  0  0  0  0  0  0  0  0
  160.0820  206.9480  157.2600 C   0  0  0  0  0  1  0  0  0  0  0  0
  160.1390  208.3650  156.9040 C   0  0  0  0  0  0  0  0  0  0  0  0
  1  2  2  0  0  0  0
  2  3  1  0  0  0  0
  3 23  1  0  0  0  0
  5  3  1  6  0  0  0
  5  6  1  0  0  0  0
  6  4  1  6  0  0  0
  6  7  1  0  0  0  0
  8 10  1  6  0  0  0
  8  5  1  0  0  0  0
  8  6  1  0  0  0  0
 10  9  1  1  0  0  0
 11 12  1  0  0  0  0
 11 10  1  0  0  0  0
 12 14  1  6  0  0  0
 12 13  1  0  0  0  0
 15  2  1  1  0  0  0
 16 15  1  0  0  0  0
 17 18  1  1  0  0  0
 17 16  1  0  0  0  0
 17 15  1  0  0  0  0
 19 20  2  0  0  0  0
 20 22  2  0  0  0  0
 20 18  1  0  0  0  0
 21 20  1  0  0  0  0
 24 30  2  0  0  0  0
 26 23  1  6  0  0  0
 26 29  1  0  0  0  0
 27 28  2  0  0  0  0
 28 26  1  0  0  0  0
 28 24  1  0  0  0  0
 29 25  2  0  0  0  0
 30 25  1  0  0  0  0
 31 37  1  0  0  0  0
 32 33  1  0  0  0  0
 34 37  1  6  0  0  0
 34 36  1  0  0  0  0
 35 31  1  6  0  0  0
 35 34  1  0  0  0  0
 35 32  1  0  0  0  0
 36 33  1  0  0  0  0
 36 41  1  6  0  0  0
 38 31  2  0  0  0  0
 39 38  1  0  0  0  0
 39 40  2  0  0  0  0
 40 24  1  0  0  0  0
 40 37  1  0  0  0  0
 41 43  3  0  0  0  0
 43 42  1  0  0  0  0
M  END
>  <MODEL>
2

>  <REMARK>
 VINA RESULT:      -4.6      1.447      2.764
  Name = 
  11 active torsions:
  status: ('A' for Active; 'I' for Inactive)
    1  A    between atoms: C_1  and  C_38
    2  A    between atoms: C_3  and  C_43
    3  A    between atoms: N_6  and  S_12
    4  A    between atoms: N_6  and  C_41
    5  A    between atoms: C_10  and  C_28
    6  A    between atoms: C_13  and  C_27
    7  A    between atoms: C_14  and  C_17
    8  A    between atoms: C_19  and  N_29
    9  A    between atoms: C_28  and  N_29
   10  A    between atoms: C_35  and  C_38
   11  A    between atoms: C_35  and  C_42
                            x       y       z     vdW  Elec       q    Type
                         _______ _______ _______ _____ _____    ______ ____

>  <TORSDO>
F 11

$$$$
=
 OpenBabel11052411393D

 43 48  0  0  1  0  0  0  0  0999 V2000
  160.4540  212.2620  150.3650 O   0  0  0  0  0  0  0  0  0  0  0  0
  161.3750  211.4020  150.3250 C   0  0  0  0  0  0  0  0  0  0  0  0
  161.2380  210.1780  151.0780 N   0  0  0  0  0  0  0  0  0  0  0  0
  160.4000  212.2620  153.0140 C   0  0  0  0  0  1  0  0  0  0  0  0
  159.9830  209.9090  151.8020 C   0  0  2  0  0  3  0  0  0  0  0  0
  159.6070  210.9700  152.8470 C   0  0  2  0  0  0  0  0  0  0  0  0
  158.2320  211.0790  153.0450 O   0  0  0  0  0  1  0  0  0  0  0  0
  160.1660  209.6340  153.3170 C   0  0  2  0  0  3  0  0  0  0  0  0
  162.1100  210.7020  154.4440 O   0  0  0  0  0  1  0  0  0  0  0  0
  161.6200  209.5340  153.8570 C   0  0  1  0  0  3  0  0  0  0  0  0
  161.7310  208.3840  154.8570 C   0  0  0  0  0  2  0  0  0  0  0  0
  160.4250  207.6070  155.0250 C   0  0  1  0  0  3  0  0  0  0  0  0
  160.4960  206.3700  154.3750 O   0  0  0  0  0  1  0  0  0  0  0  0
  160.0780  207.4060  156.4950 C   0  0  0  0  0  1  0  0  0  0  0  0
  162.5280  211.6100  149.3660 C   0  0  2  0  0  3  0  0  0  0  0  0
  162.5080  212.9970  148.7480 C   0  0  0  0  0  2  0  0  0  0  0  0
  162.1410  211.8090  147.8890 C   0  0  2  0  0  3  0  0  0  0  0  0
  160.6990  211.8000  147.6640 N   0  0  0  0  0  2  0  0  0  0  0  0
  159.5490  211.8800  145.2840 O   0  0  0  0  0  0  0  0  0  0  0  0
  160.3580  212.7230  146.2350 S   0  0  0  0  0  0  0  0  0  0  0  0
  159.4220  214.1730  146.6690 C   0  0  0  0  0  1  0  0  0  0  0  0
  161.6390  213.1380  145.5630 O   0  0  0  0  0  0  0  0  0  0  0  0
  162.4320  209.4020  151.4130 C   0  0  0  0  0  2  0  0  0  0  0  0
  161.4110  205.9990  150.2520 C   0  0  0  0  0  0  0  0  0  0  0  0
  161.1390  207.7040  148.5100 C   0  0  0  0  0  3  0  0  0  0  0  0
  162.6630  208.2750  150.4060 C   0  0  1  0  0  3  0  0  0  0  0  0
  162.7110  206.6330  152.1440 O   0  0  0  0  0  0  0  0  0  0  0  0
  162.2750  206.9440  151.0030 C   0  0  0  0  0  0  0  0  0  0  0  0
  161.9550  208.5730  149.1080 C   0  0  0  0  0  3  0  0  0  0  0  0
  160.8750  206.3790  149.0900 C   0  0  0  0  0  3  0  0  0  0  0  0
  160.8310  202.5190  150.7840 C   0  0  0  0  0  0  0  0  0  0  0  0
  160.3340  201.0140  148.9030 N   0  0  0  0  0  2  0  0  0  0  0  0
  160.3810  201.5700  147.7510 N   0  0  0  0  0  2  0  0  0  0  0  0
  161.7640  202.6460  148.9830 C   0  0  1  0  0  3  0  0  0  0  0  0
  161.3450  201.5720  149.8060 C   0  0  1  0  0  3  0  0  0  0  0  0
  161.3670  202.6020  147.7390 C   0  0  2  0  0  3  0  0  0  0  0  0
  161.3970  203.5080  150.0940 N   0  0  0  0  0  0  0  0  0  0  0  0
  160.1940  202.9530  151.9120 C   0  0  0  0  0  3  0  0  0  0  0  0
  160.3950  204.3250  151.8680 N   0  0  0  0  0  0  0  0  0  0  0  0
  161.1430  204.6360  150.7500 C   0  0  0  0  0  0  0  0  0  0  0  0
  161.2100  203.7830  146.9330 C   0  0  0  0  0  0  0  0  0  0  0  0
  160.9160  205.9470  145.4010 C   0  0  0  0  0  1  0  0  0  0  0  0
  161.0770  204.7640  146.2450 C   0  0  0  0  0  0  0  0  0  0  0  0
  2  1  2  0  0  0  0
  2  3  1  0  0  0  0
  3 23  1  0  0  0  0
  5  3  1  6  0  0  0
  5  6  1  0  0  0  0
  5  8  1  0  0  0  0
  6  4  1  1  0  0  0
  6  7  1  0  0  0  0
  6  8  1  0  0  0  0
  8 10  1  6  0  0  0
 10  9  1  1  0  0  0
 10 11  1  0  0  0  0
 11 12  1  0  0  0  0
 12 14  1  1  0  0  0
 13 12  1  0  0  0  0
 15  2  1  1  0  0  0
 16 15  1  0  0  0  0
 17 18  1  1  0  0  0
 17 16  1  0  0  0  0
 17 15  1  0  0  0  0
 19 20  2  0  0  0  0
 20 21  1  0  0  0  0
 20 18  1  0  0  0  0
 22 20  2  0  0  0  0
 24 40  1  0  0  0  0
 24 28  1  0  0  0  0
 25 30  1  0  0  0  0
 25 29  2  0  0  0  0
 26 28  1  0  0  0  0
 26 23  1  1  0  0  0
 28 27  2  0  0  0  0
 29 26  1  0  0  0  0
 30 24  2  0  0  0  0
 31 38  2  0  0  0  0
 33 32  1  0  0  0  0
 34 35  1  0  0  0  0
 34 37  1  1  0  0  0
 35 32  1  6  0  0  0
 35 31  1  0  0  0  0
 36 41  1  1  0  0  0
 36 33  1  0  0  0  0
 36 34  1  0  0  0  0
 37 40  1  0  0  0  0
 37 31  1  0  0  0  0
 39 38  1  0  0  0  0
 40 39  2  0  0  0  0
 42 43  1  0  0  0  0
 43 41  3  0  0  0  0
M  END
>  <MODEL>
3

>  <REMARK>
 VINA RESULT:      -4.5      3.607      8.275
  Name = 
  11 active torsions:
  status: ('A' for Active; 'I' for Inactive)
    1  A    between atoms: C_1  and  C_38
    2  A    between atoms: C_3  and  C_43
    3  A    between atoms: N_6  and  S_12
    4  A    between atoms: N_6  and  C_41
    5  A    between atoms: C_10  and  C_28
    6  A    between atoms: C_13  and  C_27
    7  A    between atoms: C_14  and  C_17
    8  A    between atoms: C_19  and  N_29
    9  A    between atoms: C_28  and  N_29
   10  A    between atoms: C_35  and  C_38
   11  A    between atoms: C_35  and  C_42
                            x       y       z     vdW  Elec       q    Type
                         _______ _______ _______ _____ _____    ______ ____

>  <TORSDO>
F 11

$$$$
=
 OpenBabel11052411393D

 43 48  0  0  1  0  0  0  0  0999 V2000
  163.1040  210.6950  152.0930 O   0  0  0  0  0  0  0  0  0  0  0  0
  162.1820  209.9640  151.6390 C   0  0  0  0  0  0  0  0  0  0  0  0
  161.5770  208.9700  152.4920 N   0  0  0  0  0  0  0  0  0  0  0  0
  159.7140  207.5010  154.2720 C   0  0  0  0  0  1  0  0  0  0  0  0
  161.9750  208.8910  153.9090 C   0  0  2  0  0  3  0  0  0  0  0  0
  160.9610  208.1860  154.8210 C   0  0  2  0  0  0  0  0  0  0  0  0
  161.5530  207.5650  155.9200 O   0  0  0  0  0  1  0  0  0  0  0  0
  161.0710  209.7040  154.8720 C   0  0  2  0  0  3  0  0  0  0  0  0
  159.4120  210.0940  153.0600 O   0  0  0  0  0  1  0  0  0  0  0  0
  159.9670  210.5950  154.2380 C   0  0  1  0  0  3  0  0  0  0  0  0
  158.8510  210.8490  155.2500 C   0  0  0  0  0  2  0  0  0  0  0  0
  158.6420  212.3340  155.5520 C   0  0  1  0  0  3  0  0  0  0  0  0
  159.7900  213.0700  155.2430 O   0  0  0  0  0  1  0  0  0  0  0  0
  157.4430  212.8950  154.7980 C   0  0  0  0  0  1  0  0  0  0  0  0
  161.6330  210.2550  150.2590 C   0  0  2  0  0  3  0  0  0  0  0  0
  162.2900  211.4730  149.6320 C   0  0  0  0  0  2  0  0  0  0  0  0
  160.8600  211.5800  150.1130 C   0  0  2  0  0  3  0  0  0  0  0  0
  160.8190  212.3620  151.3430 N   0  0  0  0  0  2  0  0  0  0  0  0
  159.9110  214.4390  149.9810 O   0  0  0  0  0  0  0  0  0  0  0  0
  159.5960  213.5820  151.1800 S   0  0  0  0  0  0  0  0  0  0  0  0
  158.0100  212.8110  150.9460 C   0  0  0  0  0  1  0  0  0  0  0  0
  159.5540  214.4480  152.4100 O   0  0  0  0  0  0  0  0  0  0  0  0
  160.8640  207.8430  151.8900 C   0  0  0  0  0  2  0  0  0  0  0  0
  161.2020  204.9100  149.5980 C   0  0  0  0  0  0  0  0  0  0  0  0
  161.2810  207.0500  148.4000 C   0  0  0  0  0  3  0  0  0  0  0  0
  161.7330  207.1250  150.8570 C   0  0  1  0  0  3  0  0  0  0  0  0
  161.4430  205.0260  151.9640 O   0  0  0  0  0  0  0  0  0  0  0  0
  161.4490  205.6420  150.8650 C   0  0  0  0  0  0  0  0  0  0  0  0
  161.5640  207.7540  149.4970 C   0  0  0  0  0  3  0  0  0  0  0  0
  161.1120  205.5900  148.4510 C   0  0  0  0  0  3  0  0  0  0  0  0
  160.9300  201.4360  148.8310 C   0  0  0  0  0  0  0  0  0  0  0  0
  160.4480  200.6770  146.5420 N   0  0  0  0  0  2  0  0  0  0  0  0
  160.3840  201.6150  145.6730 N   0  0  0  0  0  2  0  0  0  0  0  0
  161.7460  202.2960  147.1800 C   0  0  1  0  0  3  0  0  0  0  0  0
  161.4610  200.9620  147.5620 C   0  0  1  0  0  3  0  0  0  0  0  0
  161.2830  202.6680  146.0160 C   0  0  2  0  0  3  0  0  0  0  0  0
  161.3760  202.6570  148.5380 N   0  0  0  0  0  0  0  0  0  0  0  0
  160.3260  201.3690  150.0550 C   0  0  0  0  0  3  0  0  0  0  0  0
  160.4150  202.6760  150.5120 N   0  0  0  0  0  0  0  0  0  0  0  0
  161.0710  203.4410  149.5680 C   0  0  0  0  0  0  0  0  0  0  0  0
  160.9880  204.0410  145.7030 C   0  0  0  0  0  0  0  0  0  0  0  0
  160.4700  206.5850  145.0880 C   0  0  0  0  0  1  0  0  0  0  0  0
  160.7490  205.1900  145.4280 C   0  0  0  0  0  0  0  0  0  0  0  0
  2  1  2  0  0  0  0
  2  3  1  0  0  0  0
  5  3  1  6  0  0  0
  5  6  1  0  0  0  0
  5  8  1  0  0  0  0
  6  4  1  6  0  0  0
  6  8  1  0  0  0  0
  6  7  1  0  0  0  0
  8 10  1  6  0  0  0
 10  9  1  6  0  0  0
 10 11  1  0  0  0  0
 11 12  1  0  0  0  0
 12 14  1  6  0  0  0
 13 12  1  0  0  0  0
 15  2  1  1  0  0  0
 16 17  1  0  0  0  0
 16 15  1  0  0  0  0
 17 15  1  0  0  0  0
 17 18  1  1  0  0  0
 19 20  2  0  0  0  0
 20 18  1  0  0  0  0
 20 22  2  0  0  0  0
 21 20  1  0  0  0  0
 23  3  1  0  0  0  0
 24 28  1  0  0  0  0
 25 30  1  0  0  0  0
 25 29  2  0  0  0  0
 26 28  1  0  0  0  0
 26 23  1  1  0  0  0
 28 27  2  0  0  0  0
 29 26  1  0  0  0  0
 30 24  2  0  0  0  0
 31 38  2  0  0  0  0
 33 36  1  0  0  0  0
 33 32  1  0  0  0  0
 34 35  1  0  0  0  0
 34 37  1  1  0  0  0
 35 32  1  6  0  0  0
 35 31  1  0  0  0  0
 36 41  1  1  0  0  0
 36 34  1  0  0  0  0
 37 31  1  0  0  0  0
 37 40  1  0  0  0  0
 38 39  1  0  0  0  0
 40 24  1  0  0  0  0
 40 39  2  0  0  0  0
 42 43  1  0  0  0  0
 43 41  3  0  0  0  0
M  END
>  <MODEL>
4

>  <REMARK>
 VINA RESULT:      -3.3      3.444      9.490
  Name = 
  11 active torsions:
  status: ('A' for Active; 'I' for Inactive)
    1  A    between atoms: C_1  and  C_38
    2  A    between atoms: C_3  and  C_43
    3  A    between atoms: N_6  and  S_12
    4  A    between atoms: N_6  and  C_41
    5  A    between atoms: C_10  and  C_28
    6  A    between atoms: C_13  and  C_27
    7  A    between atoms: C_14  and  C_17
    8  A    between atoms: C_19  and  N_29
    9  A    between atoms: C_28  and  N_29
   10  A    between atoms: C_35  and  C_38
   11  A    between atoms: C_35  and  C_42
                            x       y       z     vdW  Elec       q    Type
                         _______ _______ _______ _____ _____    ______ ____

>  <TORSDO>
F 11

$$$$
=
 OpenBabel11052411393D

 43 48  0  0  1  0  0  0  0  0999 V2000
  160.7350  212.2600  150.7700 O   0  0  0  0  0  0  0  0  0  0  0  0
  161.3010  211.1690  150.4840 C   0  0  0  0  0  0  0  0  0  0  0  0
  160.8600  209.9510  151.1200 N   0  0  0  0  0  0  0  0  0  0  0  0
  160.6300  212.3560  152.8400 C   0  0  0  0  0  1  0  0  0  0  0  0
  159.6920  209.9850  152.0180 C   0  0  2  0  0  3  0  0  0  0  0  0
  159.6330  211.2070  152.9460 C   0  0  2  0  0  0  0  0  0  0  0  0
  158.3320  211.5700  153.2910 O   0  0  0  0  0  1  0  0  0  0  0  0
  160.0410  209.8580  153.5240 C   0  0  2  0  0  3  0  0  0  0  0  0
  162.2630  210.7030  154.2570 O   0  0  0  0  0  1  0  0  0  0  0  0
  161.5240  209.5760  153.8950 C   0  0  1  0  0  3  0  0  0  0  0  0
  161.5960  208.5440  155.0200 C   0  0  0  0  0  2  0  0  0  0  0  0
  160.3560  207.6530  155.0970 C   0  0  1  0  0  3  0  0  0  0  0  0
  160.6440  206.3610  154.6470 O   0  0  0  0  0  1  0  0  0  0  0  0
  159.7920  207.6000  156.5120 C   0  0  0  0  0  1  0  0  0  0  0  0
  162.3220  211.1470  149.3670 C   0  0  2  0  0  3  0  0  0  0  0  0
  162.5570  212.5310  148.7860 C   0  0  0  0  0  2  0  0  0  0  0  0
  161.7920  211.5160  147.9690 C   0  0  2  0  0  3  0  0  0  0  0  0
  160.3750  211.8650  147.9630 N   0  0  0  0  0  2  0  0  0  0  0  0
  160.8400  212.1960  145.3810 O   0  0  0  0  0  0  0  0  0  0  0  0
  160.0360  212.7670  146.5200 S   0  0  0  0  0  0  0  0  0  0  0  0
  158.3040  212.6450  146.1310 C   0  0  0  0  0  1  0  0  0  0  0  0
  160.4050  214.2140  146.7090 O   0  0  0  0  0  0  0  0  0  0  0  0
  161.7570  208.7970  151.1630 C   0  0  0  0  0  2  0  0  0  0  0  0
  161.6720  205.6820  149.0980 C   0  0  0  0  0  0  0  0  0  0  0  0
  161.7520  205.2100  151.5040 C   0  0  0  0  0  3  0  0  0  0  0  0
  161.0120  207.5010  150.8380 C   0  0  1  0  0  3  0  0  0  0  0  0
  161.1530  207.9240  148.4890 O   0  0  0  0  0  0  0  0  0  0  0  0
  161.2820  207.0780  149.4140 C   0  0  0  0  0  0  0  0  0  0  0  0
  161.3460  206.4330  151.8480 C   0  0  0  0  0  3  0  0  0  0  0  0
  161.9030  204.8220  150.0940 C   0  0  0  0  0  3  0  0  0  0  0  0
  161.7120  203.9410  145.9840 C   0  0  0  0  0  0  0  0  0  0  0  0
  161.4720  201.4950  145.8960 N   0  0  0  0  0  2  0  0  0  0  0  0
  161.2600  200.9400  147.0300 N   0  0  0  0  0  2  0  0  0  0  0  0
  160.4240  202.9070  147.1690 C   0  0  1  0  0  3  0  0  0  0  0  0
  160.8200  202.8040  145.8130 C   0  0  1  0  0  3  0  0  0  0  0  0
  160.5050  201.8090  147.8730 C   0  0  2  0  0  3  0  0  0  0  0  0
  161.1920  204.1420  147.1940 N   0  0  0  0  0  0  0  0  0  0  0  0
  162.6630  204.8650  145.6540 C   0  0  0  0  0  3  0  0  0  0  0  0
  162.7120  205.6700  146.7820 N   0  0  0  0  0  0  0  0  0  0  0  0
  161.7940  205.2100  147.7060 C   0  0  0  0  0  0  0  0  0  0  0  0
  160.6830  201.8150  149.3010 C   0  0  0  0  0  0  0  0  0  0  0  0
  161.0450  201.8600  151.9430 C   0  0  0  0  0  1  0  0  0  0  0  0
  160.8420  201.8320  150.4950 C   0  0  0  0  0  0  0  0  0  0  0  0
  2  1  2  0  0  0  0
  2  3  1  0  0  0  0
  3 23  1  0  0  0  0
  5  3  1  6  0  0  0
  5  6  1  0  0  0  0
  5  8  1  0  0  0  0
  6  4  1  6  0  0  0
  6  7  1  0  0  0  0
  6  8  1  0  0  0  0
  8 10  1  6  0  0  0
 10  9  1  1  0  0  0
 10 11  1  0  0  0  0
 11 12  1  0  0  0  0
 12 14  1  1  0  0  0
 13 12  1  0  0  0  0
 15  2  1  1  0  0  0
 16 15  1  0  0  0  0
 17 18  1  1  0  0  0
 17 16  1  0  0  0  0
 17 15  1  0  0  0  0
 19 20  2  0  0  0  0
 20 22  2  0  0  0  0
 20 18  1  0  0  0  0
 21 20  1  0  0  0  0
 24 28  1  0  0  0  0
 24 30  2  0  0  0  0
 25 29  2  0  0  0  0
 26 23  1  1  0  0  0
 26 29  1  0  0  0  0
 27 28  2  0  0  0  0
 28 26  1  0  0  0  0
 30 25  1  0  0  0  0
 31 37  1  0  0  0  0
 32 33  1  0  0  0  0
 33 36  1  0  0  0  0
 34 37  1  1  0  0  0
 34 36  1  0  0  0  0
 35 32  1  1  0  0  0
 35 31  1  0  0  0  0
 35 34  1  0  0  0  0
 36 41  1  1  0  0  0
 37 40  1  0  0  0  0
 38 31  2  0  0  0  0
 38 39  1  0  0  0  0
 39 40  2  0  0  0  0
 40 24  1  0  0  0  0
 41 43  3  0  0  0  0
 43 42  1  0  0  0  0
M  END
>  <MODEL>
5

>  <REMARK>
 VINA RESULT:      -2.9      3.514      9.051
  Name = 
  11 active torsions:
  status: ('A' for Active; 'I' for Inactive)
    1  A    between atoms: C_1  and  C_38
    2  A    between atoms: C_3  and  C_43
    3  A    between atoms: N_6  and  S_12
    4  A    between atoms: N_6  and  C_41
    5  A    between atoms: C_10  and  C_28
    6  A    between atoms: C_13  and  C_27
    7  A    between atoms: C_14  and  C_17
    8  A    between atoms: C_19  and  N_29
    9  A    between atoms: C_28  and  N_29
   10  A    between atoms: C_35  and  C_38
   11  A    between atoms: C_35  and  C_42
                            x       y       z     vdW  Elec       q    Type
                         _______ _______ _______ _____ _____    ______ ____

>  <TORSDO>
F 11

$$$$
