=
 OpenBabel11052410343D

 40 45  0  0  1  0  0  0  0  0999 V2000
  162.0730  208.4430  150.0110 C   0  0  1  0  0  3  0  0  0  0  0  0
  160.4080  209.0730  154.5270 O   0  0  0  0  0  0  0  0  0  0  0  0
  160.7900  211.0810  153.4030 N   0  0  0  0  0  2  0  0  0  0  0  0
  162.7250  209.4790  148.6630 S   0  0  0  0  0  0  0  0  0  0  0  0
  162.3710  211.0070  149.5960 C   0  0  2  0  0  3  0  0  0  0  0  0
  161.8770  210.6270  150.9070 N   0  0  0  0  0  0  0  0  0  0  0  0
  161.2350  208.8600  152.3680 N   0  0  0  0  0  2  0  0  0  0  0  0
  160.7930  209.6530  153.4770 C   0  0  0  0  0  0  0  0  0  0  0  0
  161.7210  209.3650  151.1190 C   0  0  0  0  0  0  0  0  0  0  0  0
  159.8720  213.2640  148.4970 C   0  0  0  0  0  0  0  0  0  0  0  0
  158.9280  214.2350  148.5140 N   0  0  0  0  0  0  0  0  0  0  0  0
  161.3630  211.8440  148.8660 C   0  0  0  0  0  0  0  0  0  0  0  0
  160.1210  212.5890  147.3510 C   0  0  0  0  0  0  0  0  0  0  0  0
  158.4140  214.1790  146.9130 S   0  0  0  0  0  0  0  0  0  0  0  0
  161.0670  211.6630  147.5380 N   0  0  0  0  0  0  0  0  0  0  0  0
  159.3720  212.9560  146.2560 C   0  0  0  0  0  0  0  0  0  0  0  0
  160.6360  212.8180  149.4990 N   0  0  0  0  0  2  0  0  0  0  0  0
  159.3930  212.4220  144.8700 C   0  0  0  0  0  1  0  0  0  0  0  0
  160.2210  211.9260  154.4460 C   0  0  0  0  0  2  0  0  0  0  0  0
  158.7960  212.3650  154.0950 C   0  0  1  0  0  3  0  0  0  0  0  0
  158.6460  212.6030  152.6030 C   0  0  1  0  0  3  0  0  0  0  0  0
  157.6220  213.6150  152.3660 C   0  0  0  0  0  2  0  0  0  0  0  0
  159.0420  213.9800  152.2870 N   0  0  0  0  0  2  0  0  0  0  0  0
  157.7580  211.3620  154.5780 C   0  0  0  0  0  2  0  0  0  0  0  0
  157.2050  211.7560  155.9340 C   0  0  0  0  0  2  0  0  0  0  0  0
  155.5840  213.5890  155.6290 C   0  0  0  0  0  2  0  0  0  0  0  0
  157.0110  213.2570  156.0110 C   0  0  0  0  0  3  0  0  0  0  0  0
  155.9890  213.5670  157.0880 C   0  0  0  0  0  2  0  0  0  0  0  0
  160.8820  207.7470  149.5570 N   0  0  0  0  0  2  0  0  0  0  0  0
  160.9840  206.3740  150.0260 C   0  0  0  0  0  2  0  0  0  0  0  0
  161.3060  203.7010  146.6780 C   0  0  0  0  0  0  0  0  0  0  0  0
  161.1040  205.4500  148.8680 C   0  0  0  0  0  0  0  0  0  0  0  0
  161.1210  204.0660  149.0740 C   0  0  0  0  0  3  0  0  0  0  0  0
  161.2220  203.1980  147.9820 C   0  0  0  0  0  3  0  0  0  0  0  0
  161.1760  205.9640  147.5680 C   0  0  0  0  0  3  0  0  0  0  0  0
  161.2790  205.0930  146.4790 C   0  0  0  0  0  3  0  0  0  0  0  0
  161.4060  202.7880  145.6160 O   0  0  0  0  0  0  0  0  0  0  0  0
  160.4470  201.8300  145.2540 C   0  0  0  0  0  0  0  0  0  0  0  0
  160.5960  200.6080  145.5290 O   0  0  0  0  0  0  0  0  0  0  0  0
  159.3270  202.2320  144.6070 F   0  0  0  0  0  0  0  0  0  0  0  0
  1 29  1  6  0  0  0
  1  9  1  0  0  0  0
  3  8  1  0  0  0  0
  3 19  1  0  0  0  0
  4  5  1  0  0  0  0
  4  1  1  0  0  0  0
  5 12  1  6  0  0  0
  5  6  1  0  0  0  0
  6  9  2  0  0  0  0
  7  8  1  0  0  0  0
  8  2  2  0  0  0  0
  9  7  1  0  0  0  0
 10 11  2  0  0  0  0
 10 17  1  0  0  0  0
 12 17  1  0  0  0  0
 13 15  1  0  0  0  0
 13 10  1  0  0  0  0
 14 11  1  0  0  0  0
 15 12  2  0  0  0  0
 16 14  1  0  0  0  0
 16 13  2  0  0  0  0
 18 16  1  0  0  0  0
 20 19  1  6  0  0  0
 20 24  1  0  0  0  0
 21 20  1  1  0  0  0
 22 21  1  0  0  0  0
 23 22  1  0  0  0  0
 23 21  1  0  0  0  0
 24 25  1  0  0  0  0
 25 27  1  0  0  0  0
 26 27  1  0  0  0  0
 26 28  1  0  0  0  0
 27 28  1  0  0  0  0
 29 30  1  0  0  0  0
 31 34  1  0  0  0  0
 32 33  1  0  0  0  0
 32 30  1  0  0  0  0
 34 33  2  0  0  0  0
 35 32  2  0  0  0  0
 36 31  2  0  0  0  0
 36 35  1  0  0  0  0
 37 31  1  0  0  0  0
 38 39  2  0  0  0  0
 38 37  1  0  0  0  0
 40 38  1  0  0  0  0
M  END
>  <MODEL>
1

>  <REMARK>
 VINA RESULT:      -6.5      0.000      0.000
  Name = 
  12 active torsions:
  status: ('A' for Active; 'I' for Inactive)
    1  A    between atoms: C_1  and  O_27
    2  A    between atoms: C_2  and  N_30
    3  A    between atoms: C_3  and  C_18
    4  A    between atoms: C_5  and  C_25
    5  A    between atoms: N_6  and  C_20
    6  A    between atoms: C_8  and  C_21
    7  A    between atoms: C_8  and  C_33
    8  A    between atoms: C_10  and  O_27
    9  A    between atoms: C_11  and  C_22
   10  A    between atoms: C_18  and  C_20
   11  A    between atoms: C_18  and  C_33
   12  A    between atoms: C_25  and  N_30
                            x       y       z     vdW  Elec       q    Type
                         _______ _______ _______ _____ _____    ______ ____

>  <TORSDO>
F 12

$$$$
=
 OpenBabel11052410343D

 40 45  0  0  1  0  0  0  0  0999 V2000
  161.6800  207.6050  151.6610 C   0  0  1  0  0  3  0  0  0  0  0  0
  160.1050  206.8820  156.1960 O   0  0  0  0  0  0  0  0  0  0  0  0
  160.5670  209.1210  155.7330 N   0  0  0  0  0  2  0  0  0  0  0  0
  162.3620  208.9790  150.6790 S   0  0  0  0  0  0  0  0  0  0  0  0
  162.0930  210.1580  152.0460 C   0  0  2  0  0  3  0  0  0  0  0  0
  161.5980  209.4130  153.1890 N   0  0  0  0  0  0  0  0  0  0  0  0
  160.8930  207.3110  154.0540 N   0  0  0  0  0  2  0  0  0  0  0  0
  160.5030  207.7410  155.3640 C   0  0  0  0  0  0  0  0  0  0  0  0
  161.3850  208.1550  153.0080 C   0  0  0  0  0  0  0  0  0  0  0  0
  159.4790  212.5210  151.6830 C   0  0  0  0  0  0  0  0  0  0  0  0
  158.3730  213.2560  151.9490 N   0  0  0  0  0  0  0  0  0  0  0  0
  161.1160  211.2190  151.6350 C   0  0  0  0  0  0  0  0  0  0  0  0
  160.1050  212.6560  150.4920 C   0  0  0  0  0  0  0  0  0  0  0  0
  158.2420  214.1260  150.5150 S   0  0  0  0  0  0  0  0  0  0  0  0
  161.1600  211.8390  150.4110 N   0  0  0  0  0  0  0  0  0  0  0  0
  159.5520  213.5630  149.6160 C   0  0  0  0  0  0  0  0  0  0  0  0
  160.0830  211.6060  152.4480 N   0  0  0  0  0  2  0  0  0  0  0  0
  159.9850  213.9440  148.2460 C   0  0  0  0  0  1  0  0  0  0  0  0
  160.0530  209.6260  157.0000 C   0  0  0  0  0  2  0  0  0  0  0  0
  159.2690  210.9280  156.8060 C   0  0  1  0  0  3  0  0  0  0  0  0
  160.1700  212.0450  156.3100 C   0  0  1  0  0  3  0  0  0  0  0  0
  160.1550  213.1510  157.2610 C   0  0  0  0  0  2  0  0  0  0  0  0
  161.2900  212.2180  157.2430 N   0  0  0  0  0  2  0  0  0  0  0  0
  158.0880  210.7450  155.8640 C   0  0  0  0  0  2  0  0  0  0  0  0
  157.7600  212.0360  155.1390 C   0  0  0  0  0  2  0  0  0  0  0  0
  155.7160  212.0290  156.5190 C   0  0  0  0  0  2  0  0  0  0  0  0
  156.2620  212.2700  155.1270 C   0  0  0  0  0  3  0  0  0  0  0  0
  155.9400  213.4460  156.0300 C   0  0  0  0  0  2  0  0  0  0  0  0
  160.4510  207.1330  151.0480 N   0  0  0  0  0  2  0  0  0  0  0  0
  160.5500  205.6840  150.9550 C   0  0  0  0  0  2  0  0  0  0  0  0
  161.5020  204.5420  146.9230 C   0  0  0  0  0  0  0  0  0  0  0  0
  160.8710  205.2870  149.5590 C   0  0  0  0  0  0  0  0  0  0  0  0
  160.8920  206.2490  148.5430 C   0  0  0  0  0  3  0  0  0  0  0  0
  161.2060  205.8750  147.2320 C   0  0  0  0  0  3  0  0  0  0  0  0
  161.1760  203.9530  149.2640 C   0  0  0  0  0  3  0  0  0  0  0  0
  161.4870  203.5830  147.9520 C   0  0  0  0  0  3  0  0  0  0  0  0
  161.8110  204.2180  145.5930 O   0  0  0  0  0  0  0  0  0  0  0  0
  161.0690  204.5770  144.4590 C   0  0  0  0  0  0  0  0  0  0  0  0
  161.4630  205.4760  143.6670 O   0  0  0  0  0  0  0  0  0  0  0  0
  159.9060  203.9310  144.2010 F   0  0  0  0  0  0  0  0  0  0  0  0
  1 29  1  6  0  0  0
  1  9  1  0  0  0  0
  3 19  1  0  0  0  0
  4  1  1  0  0  0  0
  4  5  1  0  0  0  0
  5 12  1  6  0  0  0
  5  6  1  0  0  0  0
  7  8  1  0  0  0  0
  8  3  1  0  0  0  0
  8  2  2  0  0  0  0
  9  6  2  0  0  0  0
  9  7  1  0  0  0  0
 10 11  2  0  0  0  0
 10 17  1  0  0  0  0
 12 17  1  0  0  0  0
 13 10  1  0  0  0  0
 14 11  1  0  0  0  0
 15 13  1  0  0  0  0
 15 12  2  0  0  0  0
 16 13  2  0  0  0  0
 16 14  1  0  0  0  0
 18 16  1  0  0  0  0
 20 24  1  6  0  0  0
 20 19  1  0  0  0  0
 21 20  1  1  0  0  0
 21 23  1  0  0  0  0
 21 22  1  0  0  0  0
 23 22  1  0  0  0  0
 25 24  1  0  0  0  0
 27 25  1  0  0  0  0
 27 28  1  0  0  0  0
 27 26  1  0  0  0  0
 28 26  1  0  0  0  0
 30 29  1  0  0  0  0
 31 34  2  0  0  0  0
 31 36  1  0  0  0  0
 32 30  1  0  0  0  0
 33 32  2  0  0  0  0
 34 33  1  0  0  0  0
 35 32  1  0  0  0  0
 36 35  2  0  0  0  0
 37 31  1  0  0  0  0
 38 37  1  0  0  0  0
 39 38  2  0  0  0  0
 40 38  1  0  0  0  0
M  END
>  <MODEL>
2

>  <REMARK>
 VINA RESULT:      -6.4      1.966      2.910
  Name = 
  12 active torsions:
  status: ('A' for Active; 'I' for Inactive)
    1  A    between atoms: C_1  and  O_27
    2  A    between atoms: C_2  and  N_30
    3  A    between atoms: C_3  and  C_18
    4  A    between atoms: C_5  and  C_25
    5  A    between atoms: N_6  and  C_20
    6  A    between atoms: C_8  and  C_21
    7  A    between atoms: C_8  and  C_33
    8  A    between atoms: C_10  and  O_27
    9  A    between atoms: C_11  and  C_22
   10  A    between atoms: C_18  and  C_20
   11  A    between atoms: C_18  and  C_33
   12  A    between atoms: C_25  and  N_30
                            x       y       z     vdW  Elec       q    Type
                         _______ _______ _______ _____ _____    ______ ____

>  <TORSDO>
F 12

$$$$
=
 OpenBabel11052410343D

 40 45  0  0  1  0  0  0  0  0999 V2000
  162.0300  210.8860  148.3690 C   0  0  1  0  0  3  0  0  0  0  0  0
  160.9890  206.3280  147.0650 O   0  0  0  0  0  0  0  0  0  0  0  0
  161.2900  206.5760  149.3640 N   0  0  0  0  0  2  0  0  0  0  0  0
  162.5360  211.7680  149.8800 S   0  0  0  0  0  0  0  0  0  0  0  0
  162.3600  210.2560  150.8850 C   0  0  2  0  0  3  0  0  0  0  0  0
  162.0270  209.1610  149.9930 N   0  0  0  0  0  0  0  0  0  0  0  0
  161.5200  208.4750  147.7700 N   0  0  0  0  0  2  0  0  0  0  0  0
  161.2530  207.0920  148.0310 C   0  0  0  0  0  0  0  0  0  0  0  0
  161.8560  209.4630  148.7510 C   0  0  0  0  0  0  0  0  0  0  0  0
  159.6050  211.1850  152.9090 C   0  0  0  0  0  0  0  0  0  0  0  0
  158.4880  211.8210  153.3360 N   0  0  0  0  0  0  0  0  0  0  0  0
  161.2940  210.4410  151.9250 C   0  0  0  0  0  0  0  0  0  0  0  0
  160.2040  210.2720  153.7070 C   0  0  0  0  0  0  0  0  0  0  0  0
  158.3050  211.1150  154.8530 S   0  0  0  0  0  0  0  0  0  0  0  0
  161.2960  209.7680  153.1210 N   0  0  0  0  0  0  0  0  0  0  0  0
  159.6110  210.0510  154.9300 C   0  0  0  0  0  0  0  0  0  0  0  0
  160.2700  211.3360  151.7600 N   0  0  0  0  0  2  0  0  0  0  0  0
  160.0100  209.1310  156.0260 C   0  0  0  0  0  1  0  0  0  0  0  0
  160.8910  205.2140  149.6970 C   0  0  0  0  0  2  0  0  0  0  0  0
  161.3040  204.8440  151.1250 C   0  0  1  0  0  3  0  0  0  0  0  0
  160.9980  205.9700  152.0960 C   0  0  1  0  0  3  0  0  0  0  0  0
  161.2600  205.5290  153.4620 C   0  0  0  0  0  2  0  0  0  0  0  0
  162.2350  206.3820  152.7710 N   0  0  0  0  0  2  0  0  0  0  0  0
  160.6450  203.5530  151.5900 C   0  0  0  0  0  2  0  0  0  0  0  0
  161.3770  202.3390  151.0490 C   0  0  0  0  0  2  0  0  0  0  0  0
  160.3560  202.0340  148.8250 C   0  0  0  0  0  2  0  0  0  0  0  0
  160.4370  201.4760  150.2310 C   0  0  0  0  0  3  0  0  0  0  0  0
  161.2210  200.8230  149.1080 C   0  0  0  0  0  2  0  0  0  0  0  0
  160.7670  211.4220  147.8940 N   0  0  0  0  0  2  0  0  0  0  0  0
  161.0420  212.7400  147.3440 C   0  0  0  0  0  2  0  0  0  0  0  0
  161.1090  212.5720  143.0510 C   0  0  0  0  0  0  0  0  0  0  0  0
  161.0690  212.6740  145.8590 C   0  0  0  0  0  0  0  0  0  0  0  0
  159.9610  212.1870  145.1580 C   0  0  0  0  0  3  0  0  0  0  0  0
  159.9840  212.1370  143.7600 C   0  0  0  0  0  3  0  0  0  0  0  0
  162.1950  213.1230  145.1600 C   0  0  0  0  0  3  0  0  0  0  0  0
  162.2160  213.0690  143.7620 C   0  0  0  0  0  3  0  0  0  0  0  0
  161.0820  212.5020  141.6490 O   0  0  0  0  0  0  0  0  0  0  0  0
  161.4270  211.3890  140.8680 C   0  0  0  0  0  0  0  0  0  0  0  0
  160.5630  210.7480  140.2110 O   0  0  0  0  0  0  0  0  0  0  0  0
  162.7250  211.0050  140.8080 F   0  0  0  0  0  0  0  0  0  0  0  0
  1 29  1  1  0  0  0
  1  9  1  0  0  0  0
  1  4  1  0  0  0  0
  2  8  2  0  0  0  0
  3 19  1  0  0  0  0
  4  5  1  0  0  0  0
  5 12  1  1  0  0  0
  6  5  1  0  0  0  0
  7  8  1  0  0  0  0
  7  9  1  0  0  0  0
  8  3  1  0  0  0  0
  9  6  2  0  0  0  0
 10 11  2  0  0  0  0
 10 13  1  0  0  0  0
 11 14  1  0  0  0  0
 12 15  2  0  0  0  0
 13 16  2  0  0  0  0
 14 16  1  0  0  0  0
 15 13  1  0  0  0  0
 16 18  1  0  0  0  0
 17 12  1  0  0  0  0
 17 10  1  0  0  0  0
 20 19  1  6  0  0  0
 20 24  1  0  0  0  0
 21 20  1  6  0  0  0
 21 23  1  0  0  0  0
 21 22  1  0  0  0  0
 23 22  1  0  0  0  0
 25 24  1  0  0  0  0
 26 28  1  0  0  0  0
 26 27  1  0  0  0  0
 27 25  1  0  0  0  0
 28 27  1  0  0  0  0
 30 29  1  0  0  0  0
 31 34  2  0  0  0  0
 31 36  1  0  0  0  0
 32 30  1  0  0  0  0
 33 32  2  0  0  0  0
 34 33  1  0  0  0  0
 35 32  1  0  0  0  0
 36 35  2  0  0  0  0
 37 31  1  0  0  0  0
 38 37  1  0  0  0  0
 39 38  2  0  0  0  0
 40 38  1  0  0  0  0
M  END
>  <MODEL>
3

>  <REMARK>
 VINA RESULT:      -6.4      3.688      8.366
  Name = 
  12 active torsions:
  status: ('A' for Active; 'I' for Inactive)
    1  A    between atoms: C_1  and  O_27
    2  A    between atoms: C_2  and  N_30
    3  A    between atoms: C_3  and  C_18
    4  A    between atoms: C_5  and  C_25
    5  A    between atoms: N_6  and  C_20
    6  A    between atoms: C_8  and  C_21
    7  A    between atoms: C_8  and  C_33
    8  A    between atoms: C_10  and  O_27
    9  A    between atoms: C_11  and  C_22
   10  A    between atoms: C_18  and  C_20
   11  A    between atoms: C_18  and  C_33
   12  A    between atoms: C_25  and  N_30
                            x       y       z     vdW  Elec       q    Type
                         _______ _______ _______ _____ _____    ______ ____

>  <TORSDO>
F 12

$$$$
=
 OpenBabel11052410343D

 40 45  0  0  1  0  0  0  0  0999 V2000
  161.6460  212.6680  147.4090 C   0  0  1  0  0  3  0  0  0  0  0  0
  162.3460  207.9400  148.2620 O   0  0  0  0  0  0  0  0  0  0  0  0
  161.7790  209.1430  150.1780 N   0  0  0  0  0  2  0  0  0  0  0  0
  161.3620  214.1800  148.3820 S   0  0  0  0  0  0  0  0  0  0  0  0
  161.2630  213.2260  149.9340 C   0  0  2  0  0  3  0  0  0  0  0  0
  161.5510  211.8380  149.6250 N   0  0  0  0  0  0  0  0  0  0  0  0
  162.0220  210.2170  147.9450 N   0  0  0  0  0  2  0  0  0  0  0  0
  162.0580  209.0530  148.7790 C   0  0  0  0  0  0  0  0  0  0  0  0
  161.7360  211.5510  148.3820 C   0  0  0  0  0  0  0  0  0  0  0  0
  157.8760  213.8390  150.7700 C   0  0  0  0  0  0  0  0  0  0  0  0
  156.5840  214.2310  150.6670 N   0  0  0  0  0  0  0  0  0  0  0  0
  159.9010  213.3660  150.5470 C   0  0  0  0  0  0  0  0  0  0  0  0
  158.3400  213.3550  151.9450 C   0  0  0  0  0  0  0  0  0  0  0  0
  156.0480  213.9040  152.2290 S   0  0  0  0  0  0  0  0  0  0  0  0
  159.6360  213.0400  151.8540 N   0  0  0  0  0  0  0  0  0  0  0  0
  157.4310  213.2930  152.9770 C   0  0  0  0  0  0  0  0  0  0  0  0
  158.8400  213.8740  149.8450 N   0  0  0  0  0  2  0  0  0  0  0  0
  157.6120  212.8220  154.3750 C   0  0  0  0  0  1  0  0  0  0  0  0
  161.6660  207.9720  151.0400 C   0  0  0  0  0  2  0  0  0  0  0  0
  161.5290  208.3720  152.5120 C   0  0  1  0  0  3  0  0  0  0  0  0
  160.6140  209.5730  152.6740 C   0  0  1  0  0  3  0  0  0  0  0  0
  160.3370  209.7950  154.0890 C   0  0  0  0  0  2  0  0  0  0  0  0
  161.3240  210.6340  153.3980 N   0  0  0  0  0  2  0  0  0  0  0  0
  161.0400  207.2160  153.3720 C   0  0  0  0  0  2  0  0  0  0  0  0
  161.6800  205.9080  152.9470 C   0  0  0  0  0  2  0  0  0  0  0  0
  160.9700  204.6280  150.9620 C   0  0  0  0  0  2  0  0  0  0  0  0
  160.6320  204.9590  152.4010 C   0  0  0  0  0  3  0  0  0  0  0  0
  161.2950  203.6370  152.0600 C   0  0  0  0  0  2  0  0  0  0  0  0
  160.5220  212.4470  146.5150 N   0  0  0  0  0  2  0  0  0  0  0  0
  160.5440  213.5160  145.5290 C   0  0  0  0  0  2  0  0  0  0  0  0
  161.2230  211.8590  141.6220 C   0  0  0  0  0  0  0  0  0  0  0  0
  160.7770  212.9500  144.1740 C   0  0  0  0  0  0  0  0  0  0  0  0
  162.0740  212.8940  143.6510 C   0  0  0  0  0  3  0  0  0  0  0  0
  162.2930  212.3510  142.3810 C   0  0  0  0  0  3  0  0  0  0  0  0
  159.7020  212.4520  143.4300 C   0  0  0  0  0  3  0  0  0  0  0  0
  159.9240  211.9120  142.1590 C   0  0  0  0  0  3  0  0  0  0  0  0
  161.4960  211.3240  140.3540 O   0  0  0  0  0  0  0  0  0  0  0  0
  162.1400  210.1070  140.0890 C   0  0  0  0  0  0  0  0  0  0  0  0
  161.5040  209.0940  139.6910 O   0  0  0  0  0  0  0  0  0  0  0  0
  163.4830  210.0250  140.2510 F   0  0  0  0  0  0  0  0  0  0  0  0
  1 29  1  6  0  0  0
  1  4  1  0  0  0  0
  1  9  1  0  0  0  0
  2  8  2  0  0  0  0
  3 19  1  0  0  0  0
  4  5  1  0  0  0  0
  5 12  1  6  0  0  0
  6  5  1  0  0  0  0
  7  9  1  0  0  0  0
  7  8  1  0  0  0  0
  8  3  1  0  0  0  0
  9  6  2  0  0  0  0
 10 13  1  0  0  0  0
 11 10  2  0  0  0  0
 11 14  1  0  0  0  0
 12 15  2  0  0  0  0
 13 16  2  0  0  0  0
 14 16  1  0  0  0  0
 15 13  1  0  0  0  0
 16 18  1  0  0  0  0
 17 12  1  0  0  0  0
 17 10  1  0  0  0  0
 20 19  1  6  0  0  0
 20 24  1  0  0  0  0
 21 20  1  1  0  0  0
 21 23  1  0  0  0  0
 21 22  1  0  0  0  0
 23 22  1  0  0  0  0
 25 24  1  0  0  0  0
 26 28  1  0  0  0  0
 26 27  1  0  0  0  0
 27 25  1  0  0  0  0
 28 27  1  0  0  0  0
 30 29  1  0  0  0  0
 31 36  2  0  0  0  0
 31 34  1  0  0  0  0
 32 30  1  0  0  0  0
 33 32  1  0  0  0  0
 34 33  2  0  0  0  0
 35 32  2  0  0  0  0
 36 35  1  0  0  0  0
 37 31  1  0  0  0  0
 38 40  1  0  0  0  0
 38 37  1  0  0  0  0
 39 38  2  0  0  0  0
M  END
>  <MODEL>
4

>  <REMARK>
 VINA RESULT:      -6.3      3.611      7.145
  Name = 
  12 active torsions:
  status: ('A' for Active; 'I' for Inactive)
    1  A    between atoms: C_1  and  O_27
    2  A    between atoms: C_2  and  N_30
    3  A    between atoms: C_3  and  C_18
    4  A    between atoms: C_5  and  C_25
    5  A    between atoms: N_6  and  C_20
    6  A    between atoms: C_8  and  C_21
    7  A    between atoms: C_8  and  C_33
    8  A    between atoms: C_10  and  O_27
    9  A    between atoms: C_11  and  C_22
   10  A    between atoms: C_18  and  C_20
   11  A    between atoms: C_18  and  C_33
   12  A    between atoms: C_25  and  N_30
                            x       y       z     vdW  Elec       q    Type
                         _______ _______ _______ _____ _____    ______ ____

>  <TORSDO>
F 12

$$$$
=
 OpenBabel11052410343D

 40 45  0  0  1  0  0  0  0  0999 V2000
  162.0880  209.0690  150.2520 C   0  0  1  0  0  3  0  0  0  0  0  0
  160.9610  206.3540  154.1160 O   0  0  0  0  0  0  0  0  0  0  0  0
  160.6740  208.6390  154.4860 N   0  0  0  0  0  2  0  0  0  0  0  0
  162.2680  210.8380  149.8610 S   0  0  0  0  0  0  0  0  0  0  0  0
  161.6800  211.3190  151.5190 C   0  0  2  0  0  3  0  0  0  0  0  0
  161.4810  210.1070  152.2930 N   0  0  0  0  0  0  0  0  0  0  0  0
  161.5070  207.7270  152.3250 N   0  0  0  0  0  2  0  0  0  0  0  0
  161.0410  207.5280  153.6650 C   0  0  0  0  0  0  0  0  0  0  0  0
  161.6740  208.9920  151.6750 C   0  0  0  0  0  0  0  0  0  0  0  0
  158.5610  212.9510  151.9240 C   0  0  0  0  0  0  0  0  0  0  0  0
  157.4080  213.3850  152.4870 N   0  0  0  0  0  0  0  0  0  0  0  0
  160.4040  212.1010  151.4140 C   0  0  0  0  0  0  0  0  0  0  0  0
  158.8280  213.2380  150.6300 C   0  0  0  0  0  0  0  0  0  0  0  0
  156.7260  214.1940  151.1780 S   0  0  0  0  0  0  0  0  0  0  0  0
  159.9980  212.7110  150.2540 N   0  0  0  0  0  0  0  0  0  0  0  0
  157.8760  213.9770  149.9640 C   0  0  0  0  0  0  0  0  0  0  0  0
  159.5370  212.2170  152.4690 N   0  0  0  0  0  2  0  0  0  0  0  0
  157.8570  214.4530  148.5570 C   0  0  0  0  0  1  0  0  0  0  0  0
  160.0630  208.4830  155.8010 C   0  0  0  0  0  2  0  0  0  0  0  0
  160.3470  209.6940  156.6970 C   0  0  1  0  0  3  0  0  0  0  0  0
  161.8200  209.7810  157.0530 C   0  0  1  0  0  3  0  0  0  0  0  0
  162.5390  210.5020  156.0080 C   0  0  0  0  0  2  0  0  0  0  0  0
  162.1890  211.1870  157.2590 N   0  0  0  0  0  2  0  0  0  0  0  0
  159.8800  210.9940  156.0590 C   0  0  0  0  0  2  0  0  0  0  0  0
  158.6060  211.4970  156.7110 C   0  0  0  0  0  2  0  0  0  0  0  0
  156.6960  211.0140  155.2280 C   0  0  0  0  0  2  0  0  0  0  0  0
  157.6750  212.0830  155.6690 C   0  0  0  0  0  3  0  0  0  0  0  0
  156.2590  212.0770  156.2150 C   0  0  0  0  0  2  0  0  0  0  0  0
  161.0550  208.4880  149.4120 N   0  0  0  0  0  2  0  0  0  0  0  0
  161.7210  207.9060  148.2570 C   0  0  0  0  0  2  0  0  0  0  0  0
  161.2660  203.6340  148.2960 C   0  0  0  0  0  0  0  0  0  0  0  0
  161.5560  206.4290  148.2670 C   0  0  0  0  0  0  0  0  0  0  0  0
  162.0640  205.6590  147.2150 C   0  0  0  0  0  3  0  0  0  0  0  0
  161.9180  204.2680  147.2320 C   0  0  0  0  0  3  0  0  0  0  0  0
  160.9130  205.8040  149.3420 C   0  0  0  0  0  3  0  0  0  0  0  0
  160.7670  204.4140  149.3540 C   0  0  0  0  0  3  0  0  0  0  0  0
  161.1470  202.2350  148.2660 O   0  0  0  0  0  0  0  0  0  0  0  0
  160.6240  201.4260  149.2860 C   0  0  0  0  0  0  0  0  0  0  0  0
  159.3920  201.1700  149.3610 O   0  0  0  0  0  0  0  0  0  0  0  0
  161.4680  200.8960  150.2030 F   0  0  0  0  0  0  0  0  0  0  0  0
  1 29  1  6  0  0  0
  1  9  1  0  0  0  0
  3 19  1  0  0  0  0
  4  1  1  0  0  0  0
  4  5  1  0  0  0  0
  5 12  1  6  0  0  0
  5  6  1  0  0  0  0
  7  8  1  0  0  0  0
  8  2  2  0  0  0  0
  8  3  1  0  0  0  0
  9  6  2  0  0  0  0
  9  7  1  0  0  0  0
 10 17  1  0  0  0  0
 10 11  2  0  0  0  0
 12 17  1  0  0  0  0
 13 10  1  0  0  0  0
 14 11  1  0  0  0  0
 15 13  1  0  0  0  0
 15 12  2  0  0  0  0
 16 13  2  0  0  0  0
 16 14  1  0  0  0  0
 18 16  1  0  0  0  0
 20 19  1  6  0  0  0
 21 20  1  6  0  0  0
 21 23  1  0  0  0  0
 22 21  1  0  0  0  0
 22 23  1  0  0  0  0
 24 20  1  0  0  0  0
 24 25  1  0  0  0  0
 26 27  1  0  0  0  0
 26 28  1  0  0  0  0
 27 28  1  0  0  0  0
 27 25  1  0  0  0  0
 30 32  1  0  0  0  0
 30 29  1  0  0  0  0
 31 36  1  0  0  0  0
 32 35  1  0  0  0  0
 33 34  1  0  0  0  0
 33 32  2  0  0  0  0
 34 31  2  0  0  0  0
 35 36  2  0  0  0  0
 37 31  1  0  0  0  0
 37 38  1  0  0  0  0
 38 39  2  0  0  0  0
 38 40  1  0  0  0  0
M  END
>  <MODEL>
5

>  <REMARK>
 VINA RESULT:      -6.2      2.345      3.365
  Name = 
  12 active torsions:
  status: ('A' for Active; 'I' for Inactive)
    1  A    between atoms: C_1  and  O_27
    2  A    between atoms: C_2  and  N_30
    3  A    between atoms: C_3  and  C_18
    4  A    between atoms: C_5  and  C_25
    5  A    between atoms: N_6  and  C_20
    6  A    between atoms: C_8  and  C_21
    7  A    between atoms: C_8  and  C_33
    8  A    between atoms: C_10  and  O_27
    9  A    between atoms: C_11  and  C_22
   10  A    between atoms: C_18  and  C_20
   11  A    between atoms: C_18  and  C_33
   12  A    between atoms: C_25  and  N_30
                            x       y       z     vdW  Elec       q    Type
                         _______ _______ _______ _____ _____    ______ ____

>  <TORSDO>
F 12

$$$$
=
 OpenBabel11052410343D

 40 45  0  0  1  0  0  0  0  0999 V2000
  161.0490  212.8030  146.9580 C   0  0  1  0  0  3  0  0  0  0  0  0
  162.5850  208.5170  148.6430 O   0  0  0  0  0  0  0  0  0  0  0  0
  162.1070  210.0490  150.3360 N   0  0  0  0  0  2  0  0  0  0  0  0
  160.6700  214.4530  147.6300 S   0  0  0  0  0  0  0  0  0  0  0  0
  160.9350  213.8740  149.3400 C   0  0  2  0  0  3  0  0  0  0  0  0
  161.3900  212.4980  149.2820 N   0  0  0  0  0  0  0  0  0  0  0  0
  161.8710  210.6050  147.9200 N   0  0  0  0  0  2  0  0  0  0  0  0
  162.2020  209.6750  148.9590 C   0  0  0  0  0  0  0  0  0  0  0  0
  161.4440  211.9580  148.1120 C   0  0  0  0  0  0  0  0  0  0  0  0
  157.6340  214.1970  150.5850 C   0  0  0  0  0  0  0  0  0  0  0  0
  156.2880  214.3450  150.6190 N   0  0  0  0  0  0  0  0  0  0  0  0
  159.6650  213.9850  150.1320 C   0  0  0  0  0  0  0  0  0  0  0  0
  158.3340  214.1550  151.7420 C   0  0  0  0  0  0  0  0  0  0  0  0
  156.0380  214.4170  152.2810 S   0  0  0  0  0  0  0  0  0  0  0  0
  159.6440  214.0240  151.5030 N   0  0  0  0  0  0  0  0  0  0  0  0
  157.6000  214.2660  152.9000 C   0  0  0  0  0  0  0  0  0  0  0  0
  158.4420  214.1010  149.5250 N   0  0  0  0  0  2  0  0  0  0  0  0
  158.0520  214.2600  154.3160 C   0  0  0  0  0  1  0  0  0  0  0  0
  162.2960  209.1020  151.4280 C   0  0  0  0  0  2  0  0  0  0  0  0
  160.9620  208.5070  151.8900 C   0  0  1  0  0  3  0  0  0  0  0  0
  161.0850  207.0160  152.1510 C   0  0  1  0  0  3  0  0  0  0  0  0
  161.2140  206.3030  150.8850 C   0  0  0  0  0  2  0  0  0  0  0  0
  162.4050  206.5510  151.7080 N   0  0  0  0  0  2  0  0  0  0  0  0
  160.4210  209.2160  153.1220 C   0  0  0  0  0  2  0  0  0  0  0  0
  161.2940  210.3970  153.5030 C   0  0  0  0  0  2  0  0  0  0  0  0
  159.5590  210.7900  155.2120 C   0  0  0  0  0  2  0  0  0  0  0  0
  160.4700  211.4590  154.2020 C   0  0  0  0  0  3  0  0  0  0  0  0
  160.8310  211.4700  155.6760 C   0  0  0  0  0  2  0  0  0  0  0  0
  159.8610  212.2490  146.3320 N   0  0  0  0  0  2  0  0  0  0  0  0
  159.5300  213.1110  145.2080 C   0  0  0  0  0  2  0  0  0  0  0  0
  161.9490  212.1100  141.8010 C   0  0  0  0  0  0  0  0  0  0  0  0
  160.3710  212.7590  144.0340 C   0  0  0  0  0  0  0  0  0  0  0  0
  159.9130  211.8250  143.0980 C   0  0  0  0  0  3  0  0  0  0  0  0
  160.7010  211.5040  141.9870 C   0  0  0  0  0  3  0  0  0  0  0  0
  161.6120  213.3790  143.8510 C   0  0  0  0  0  3  0  0  0  0  0  0
  162.3980  213.0540  142.7420 C   0  0  0  0  0  3  0  0  0  0  0  0
  162.7010  211.7540  140.6700 O   0  0  0  0  0  0  0  0  0  0  0  0
  162.4670  210.6540  139.8320 C   0  0  0  0  0  0  0  0  0  0  0  0
  161.9730  210.7930  138.6800 O   0  0  0  0  0  0  0  0  0  0  0  0
  162.7950  209.4140  140.2670 F   0  0  0  0  0  0  0  0  0  0  0  0
  1 29  1  1  0  0  0
  1  4  1  0  0  0  0
  1  9  1  0  0  0  0
  2  8  2  0  0  0  0
  3 19  1  0  0  0  0
  4  5  1  0  0  0  0
  5 12  1  1  0  0  0
  6  5  1  0  0  0  0
  7  9  1  0  0  0  0
  7  8  1  0  0  0  0
  8  3  1  0  0  0  0
  9  6  2  0  0  0  0
 10 11  2  0  0  0  0
 10 13  1  0  0  0  0
 11 14  1  0  0  0  0
 12 15  2  0  0  0  0
 13 16  2  0  0  0  0
 14 16  1  0  0  0  0
 15 13  1  0  0  0  0
 16 18  1  0  0  0  0
 17 12  1  0  0  0  0
 17 10  1  0  0  0  0
 20 19  1  1  0  0  0
 20 24  1  0  0  0  0
 21 20  1  6  0  0  0
 22 23  1  0  0  0  0
 22 21  1  0  0  0  0
 23 21  1  0  0  0  0
 24 25  1  0  0  0  0
 25 27  1  0  0  0  0
 26 28  1  0  0  0  0
 27 26  1  0  0  0  0
 27 28  1  0  0  0  0
 30 29  1  0  0  0  0
 31 34  2  0  0  0  0
 31 36  1  0  0  0  0
 32 30  1  0  0  0  0
 33 32  2  0  0  0  0
 34 33  1  0  0  0  0
 35 32  1  0  0  0  0
 36 35  2  0  0  0  0
 37 31  1  0  0  0  0
 38 40  1  0  0  0  0
 38 37  1  0  0  0  0
 39 38  2  0  0  0  0
M  END
>  <MODEL>
6

>  <REMARK>
 VINA RESULT:      -6.2      3.649      6.818
  Name = 
  12 active torsions:
  status: ('A' for Active; 'I' for Inactive)
    1  A    between atoms: C_1  and  O_27
    2  A    between atoms: C_2  and  N_30
    3  A    between atoms: C_3  and  C_18
    4  A    between atoms: C_5  and  C_25
    5  A    between atoms: N_6  and  C_20
    6  A    between atoms: C_8  and  C_21
    7  A    between atoms: C_8  and  C_33
    8  A    between atoms: C_10  and  O_27
    9  A    between atoms: C_11  and  C_22
   10  A    between atoms: C_18  and  C_20
   11  A    between atoms: C_18  and  C_33
   12  A    between atoms: C_25  and  N_30
                            x       y       z     vdW  Elec       q    Type
                         _______ _______ _______ _____ _____    ______ ____

>  <TORSDO>
F 12

$$$$
=
 OpenBabel11052410343D

 40 45  0  0  1  0  0  0  0  0999 V2000
  160.7640  212.7890  146.9580 C   0  0  1  0  0  3  0  0  0  0  0  0
  162.4150  208.5370  148.6200 O   0  0  0  0  0  0  0  0  0  0  0  0
  162.0620  210.1060  150.3090 N   0  0  0  0  0  2  0  0  0  0  0  0
  160.4360  214.4530  147.6190 S   0  0  0  0  0  0  0  0  0  0  0  0
  160.8240  213.9120  149.3180 C   0  0  2  0  0  3  0  0  0  0  0  0
  161.2720  212.5330  149.2570 N   0  0  0  0  0  0  0  0  0  0  0  0
  161.6520  210.6100  147.9050 N   0  0  0  0  0  2  0  0  0  0  0  0
  162.0570  209.7020  148.9370 C   0  0  0  0  0  0  0  0  0  0  0  0
  161.2410  211.9680  148.0980 C   0  0  0  0  0  0  0  0  0  0  0  0
  158.4310  214.2170  151.9130 C   0  0  0  0  0  0  0  0  0  0  0  0
  157.8940  214.3250  153.1510 N   0  0  0  0  0  0  0  0  0  0  0  0
  159.6150  214.0420  150.1970 C   0  0  0  0  0  0  0  0  0  0  0  0
  157.6200  214.1270  150.8340 C   0  0  0  0  0  0  0  0  0  0  0  0
  156.2550  214.3030  152.7680 S   0  0  0  0  0  0  0  0  0  0  0  0
  158.3330  214.0100  149.7080 N   0  0  0  0  0  0  0  0  0  0  0  0
  156.2670  214.1570  151.0870 C   0  0  0  0  0  0  0  0  0  0  0  0
  159.7190  214.1580  151.5580 N   0  0  0  0  0  2  0  0  0  0  0  0
  155.1230  214.0790  150.1440 C   0  0  0  0  0  1  0  0  0  0  0  0
  162.3290  209.1820  151.4050 C   0  0  0  0  0  2  0  0  0  0  0  0
  161.4580  209.4950  152.6250 C   0  0  1  0  0  3  0  0  0  0  0  0
  160.3890  210.5200  152.2900 C   0  0  1  0  0  3  0  0  0  0  0  0
  159.4240  210.6020  153.3810 C   0  0  0  0  0  2  0  0  0  0  0  0
  160.4630  211.6310  153.2460 N   0  0  0  0  0  2  0  0  0  0  0  0
  160.8220  208.2400  153.2050 C   0  0  0  0  0  2  0  0  0  0  0  0
  161.6720  207.0150  152.9250 C   0  0  0  0  0  2  0  0  0  0  0  0
  161.1160  205.7830  150.8620 C   0  0  0  0  0  2  0  0  0  0  0  0
  160.8210  205.9040  152.3430 C   0  0  0  0  0  3  0  0  0  0  0  0
  161.7320  204.8010  151.8370 C   0  0  0  0  0  2  0  0  0  0  0  0
  159.5330  212.2240  146.4320 N   0  0  0  0  0  2  0  0  0  0  0  0
  158.9340  213.2320  145.5710 C   0  0  0  0  0  2  0  0  0  0  0  0
  159.8190  212.3680  141.4560 C   0  0  0  0  0  0  0  0  0  0  0  0
  159.2340  212.9280  144.1480 C   0  0  0  0  0  0  0  0  0  0  0  0
  158.6640  213.7000  143.1300 C   0  0  0  0  0  3  0  0  0  0  0  0
  158.9570  213.4190  141.7910 C   0  0  0  0  0  3  0  0  0  0  0  0
  160.1060  211.8820  143.8250 C   0  0  0  0  0  3  0  0  0  0  0  0
  160.3950  211.6030  142.4860 C   0  0  0  0  0  3  0  0  0  0  0  0
  160.0810  212.1280  140.0980 O   0  0  0  0  0  0  0  0  0  0  0  0
  159.2370  211.4630  139.1970 C   0  0  0  0  0  0  0  0  0  0  0  0
  159.1390  210.2060  139.1860 O   0  0  0  0  0  0  0  0  0  0  0  0
  158.4990  212.1930  138.3260 F   0  0  0  0  0  0  0  0  0  0  0  0
  1 29  1  1  0  0  0
  1  4  1  0  0  0  0
  1  9  1  0  0  0  0
  2  8  2  0  0  0  0
  3 19  1  0  0  0  0
  4  5  1  0  0  0  0
  5 12  1  1  0  0  0
  6  5  1  0  0  0  0
  7  9  1  0  0  0  0
  7  8  1  0  0  0  0
  8  3  1  0  0  0  0
  9  6  2  0  0  0  0
 10 11  2  0  0  0  0
 12 17  1  0  0  0  0
 13 16  2  0  0  0  0
 13 10  1  0  0  0  0
 14 11  1  0  0  0  0
 15 12  2  0  0  0  0
 15 13  1  0  0  0  0
 16 14  1  0  0  0  0
 17 10  1  0  0  0  0
 18 16  1  0  0  0  0
 20 19  1  6  0  0  0
 20 24  1  0  0  0  0
 21 20  1  1  0  0  0
 21 23  1  0  0  0  0
 21 22  1  0  0  0  0
 23 22  1  0  0  0  0
 25 24  1  0  0  0  0
 26 28  1  0  0  0  0
 26 27  1  0  0  0  0
 27 25  1  0  0  0  0
 28 27  1  0  0  0  0
 30 29  1  0  0  0  0
 31 34  2  0  0  0  0
 31 36  1  0  0  0  0
 32 30  1  0  0  0  0
 33 32  2  0  0  0  0
 34 33  1  0  0  0  0
 35 32  1  0  0  0  0
 36 35  2  0  0  0  0
 37 31  1  0  0  0  0
 38 37  1  0  0  0  0
 39 38  2  0  0  0  0
 40 38  1  0  0  0  0
M  END
>  <MODEL>
7

>  <REMARK>
 VINA RESULT:      -5.9      3.855      7.219
  Name = 
  12 active torsions:
  status: ('A' for Active; 'I' for Inactive)
    1  A    between atoms: C_1  and  O_27
    2  A    between atoms: C_2  and  N_30
    3  A    between atoms: C_3  and  C_18
    4  A    between atoms: C_5  and  C_25
    5  A    between atoms: N_6  and  C_20
    6  A    between atoms: C_8  and  C_21
    7  A    between atoms: C_8  and  C_33
    8  A    between atoms: C_10  and  O_27
    9  A    between atoms: C_11  and  C_22
   10  A    between atoms: C_18  and  C_20
   11  A    between atoms: C_18  and  C_33
   12  A    between atoms: C_25  and  N_30
                            x       y       z     vdW  Elec       q    Type
                         _______ _______ _______ _____ _____    ______ ____

>  <TORSDO>
F 12

$$$$
=
 OpenBabel11052410343D

 40 45  0  0  1  0  0  0  0  0999 V2000
  162.3660  209.3270  149.3110 C   0  0  1  0  0  3  0  0  0  0  0  0
  160.3320  208.3850  153.6160 O   0  0  0  0  0  0  0  0  0  0  0  0
  160.1360  210.6200  152.9800 N   0  0  0  0  0  2  0  0  0  0  0  0
  162.7400  210.7900  148.2930 S   0  0  0  0  0  0  0  0  0  0  0  0
  161.8770  211.8910  149.4650 C   0  0  2  0  0  3  0  0  0  0  0  0
  161.4500  211.0910  150.5990 N   0  0  0  0  0  0  0  0  0  0  0  0
  161.3060  208.9260  151.5800 N   0  0  0  0  0  2  0  0  0  0  0  0
  160.5770  209.2780  152.7620 C   0  0  0  0  0  0  0  0  0  0  0  0
  161.6820  209.8250  150.5300 C   0  0  0  0  0  0  0  0  0  0  0  0
  158.9420  213.6450  148.5370 C   0  0  0  0  0  0  0  0  0  0  0  0
  157.8190  214.3950  148.6250 N   0  0  0  0  0  0  0  0  0  0  0  0
  160.7020  212.5440  148.8000 C   0  0  0  0  0  0  0  0  0  0  0  0
  159.3010  213.1100  147.3470 C   0  0  0  0  0  0  0  0  0  0  0  0
  157.2940  214.3350  147.0270 S   0  0  0  0  0  0  0  0  0  0  0  0
  160.4230  212.3920  147.4640 N   0  0  0  0  0  0  0  0  0  0  0  0
  158.4700  213.3830  146.2840 C   0  0  0  0  0  0  0  0  0  0  0  0
  159.8030  213.3040  149.5010 N   0  0  0  0  0  2  0  0  0  0  0  0
  158.5720  212.9540  144.8650 C   0  0  0  0  0  1  0  0  0  0  0  0
  159.2740  210.9990  154.0930 C   0  0  0  0  0  2  0  0  0  0  0  0
  159.7220  212.3220  154.7230 C   0  0  1  0  0  3  0  0  0  0  0  0
  158.5530  213.2780  154.8850 C   0  0  1  0  0  3  0  0  0  0  0  0
  158.0610  213.6830  153.5730 C   0  0  0  0  0  2  0  0  0  0  0  0
  157.3380  212.6600  154.3400 N   0  0  0  0  0  2  0  0  0  0  0  0
  160.4180  212.1080  156.0590 C   0  0  0  0  0  2  0  0  0  0  0  0
  161.4700  211.0190  155.9600 C   0  0  0  0  0  2  0  0  0  0  0  0
  160.7710  208.8900  156.9910 C   0  0  0  0  0  2  0  0  0  0  0  0
  161.5000  210.1960  157.2320 C   0  0  0  0  0  3  0  0  0  0  0  0
  162.2850  208.9230  156.9770 C   0  0  0  0  0  2  0  0  0  0  0  0
  161.4780  208.4410  148.5800 N   0  0  0  0  0  2  0  0  0  0  0  0
  162.3160  207.5480  147.7950 C   0  0  0  0  0  2  0  0  0  0  0  0
  161.1160  203.4690  148.4180 C   0  0  0  0  0  0  0  0  0  0  0  0
  161.8930  206.1380  148.0070 C   0  0  0  0  0  0  0  0  0  0  0  0
  162.1620  205.1710  147.0330 C   0  0  0  0  0  3  0  0  0  0  0  0
  161.7740  203.8430  147.2400 C   0  0  0  0  0  3  0  0  0  0  0  0
  161.2460  205.7740  149.1930 C   0  0  0  0  0  3  0  0  0  0  0  0
  160.8580  204.4460  149.3960 C   0  0  0  0  0  3  0  0  0  0  0  0
  160.7480  202.1230  148.5770 O   0  0  0  0  0  0  0  0  0  0  0  0
  160.9570  201.0920  147.6510 C   0  0  0  0  0  0  0  0  0  0  0  0
  160.5490  201.1780  146.4610 O   0  0  0  0  0  0  0  0  0  0  0  0
  161.6280  199.9820  148.0420 F   0  0  0  0  0  0  0  0  0  0  0  0
  1 29  1  6  0  0  0
  1  9  1  0  0  0  0
  3 19  1  0  0  0  0
  4  1  1  0  0  0  0
  4  5  1  0  0  0  0
  5 12  1  6  0  0  0
  5  6  1  0  0  0  0
  7  8  1  0  0  0  0
  8  3  1  0  0  0  0
  8  2  2  0  0  0  0
  9  6  2  0  0  0  0
  9  7  1  0  0  0  0
 10 11  2  0  0  0  0
 10 17  1  0  0  0  0
 12 17  1  0  0  0  0
 13 15  1  0  0  0  0
 13 10  1  0  0  0  0
 14 11  1  0  0  0  0
 15 12  2  0  0  0  0
 16 14  1  0  0  0  0
 16 13  2  0  0  0  0
 18 16  1  0  0  0  0
 20 19  1  1  0  0  0
 20 24  1  0  0  0  0
 21 20  1  6  0  0  0
 22 23  1  0  0  0  0
 22 21  1  0  0  0  0
 23 21  1  0  0  0  0
 25 24  1  0  0  0  0
 25 27  1  0  0  0  0
 26 27  1  0  0  0  0
 28 26  1  0  0  0  0
 28 27  1  0  0  0  0
 30 32  1  0  0  0  0
 30 29  1  0  0  0  0
 31 37  1  0  0  0  0
 31 36  1  0  0  0  0
 32 35  1  0  0  0  0
 33 34  1  0  0  0  0
 33 32  2  0  0  0  0
 34 31  2  0  0  0  0
 35 36  2  0  0  0  0
 38 40  1  0  0  0  0
 38 37  1  0  0  0  0
 39 38  2  0  0  0  0
M  END
>  <MODEL>
8

>  <REMARK>
 VINA RESULT:      -5.8      1.776      2.660
  Name = 
  12 active torsions:
  status: ('A' for Active; 'I' for Inactive)
    1  A    between atoms: C_1  and  O_27
    2  A    between atoms: C_2  and  N_30
    3  A    between atoms: C_3  and  C_18
    4  A    between atoms: C_5  and  C_25
    5  A    between atoms: N_6  and  C_20
    6  A    between atoms: C_8  and  C_21
    7  A    between atoms: C_8  and  C_33
    8  A    between atoms: C_10  and  O_27
    9  A    between atoms: C_11  and  C_22
   10  A    between atoms: C_18  and  C_20
   11  A    between atoms: C_18  and  C_33
   12  A    between atoms: C_25  and  N_30
                            x       y       z     vdW  Elec       q    Type
                         _______ _______ _______ _____ _____    ______ ____

>  <TORSDO>
F 12

$$$$
=
 OpenBabel11052410343D

 40 45  0  0  1  0  0  0  0  0999 V2000
  161.9550  207.2080  152.7210 C   0  0  1  0  0  3  0  0  0  0  0  0
  159.5100  211.3920  152.9980 O   0  0  0  0  0  0  0  0  0  0  0  0
  160.6470  211.1270  150.9790 N   0  0  0  0  0  2  0  0  0  0  0  0
  163.1460  206.4200  151.5900 S   0  0  0  0  0  0  0  0  0  0  0  0
  162.9920  207.7880  150.3920 C   0  0  2  0  0  3  0  0  0  0  0  0
  162.1270  208.7970  150.9730 N   0  0  0  0  0  0  0  0  0  0  0  0
  160.7310  209.4270  152.7960 N   0  0  0  0  0  2  0  0  0  0  0  0
  160.2640  210.6800  152.2820 C   0  0  0  0  0  0  0  0  0  0  0  0
  161.6060  208.5180  152.1190 C   0  0  0  0  0  0  0  0  0  0  0  0
  161.1020  206.9620  147.5120 C   0  0  0  0  0  0  0  0  0  0  0  0
  160.0810  206.9100  146.6240 N   0  0  0  0  0  0  0  0  0  0  0  0
  162.4310  207.2850  149.0950 C   0  0  0  0  0  0  0  0  0  0  0  0
  162.2170  206.2280  147.2980 C   0  0  0  0  0  0  0  0  0  0  0  0
  160.7180  205.8290  145.5020 S   0  0  0  0  0  0  0  0  0  0  0  0
  163.1000  206.3980  148.2880 N   0  0  0  0  0  0  0  0  0  0  0  0
  162.2290  205.4620  146.1540 C   0  0  0  0  0  0  0  0  0  0  0  0
  161.1860  207.6510  148.6550 N   0  0  0  0  0  2  0  0  0  0  0  0
  163.2820  204.5520  145.6320 C   0  0  0  0  0  1  0  0  0  0  0  0
  160.0890  212.3230  150.3570 C   0  0  0  0  0  2  0  0  0  0  0  0
  161.0780  212.9520  149.3700 C   0  0  1  0  0  3  0  0  0  0  0  0
  161.6020  211.9240  148.3840 C   0  0  1  0  0  3  0  0  0  0  0  0
  161.9540  212.5780  147.1290 C   0  0  0  0  0  2  0  0  0  0  0  0
  163.0090  212.2110  148.0810 N   0  0  0  0  0  2  0  0  0  0  0  0
  160.4660  214.1310  148.6280 C   0  0  0  0  0  2  0  0  0  0  0  0
  158.9510  214.0730  148.6620 C   0  0  0  0  0  2  0  0  0  0  0  0
  157.6510  212.5790  147.1930 C   0  0  0  0  0  2  0  0  0  0  0  0
  158.3970  213.8960  147.2630 C   0  0  0  0  0  3  0  0  0  0  0  0
  156.8810  213.8760  147.3320 C   0  0  0  0  0  2  0  0  0  0  0  0
  160.7640  206.3840  152.8220 N   0  0  0  0  0  2  0  0  0  0  0  0
  161.2050  205.0250  153.0970 C   0  0  0  0  0  2  0  0  0  0  0  0
  160.3670  202.5000  149.7230 C   0  0  0  0  0  0  0  0  0  0  0  0
  160.9080  204.1500  151.9330 C   0  0  0  0  0  0  0  0  0  0  0  0
  160.4550  204.7090  150.7330 C   0  0  0  0  0  3  0  0  0  0  0  0
  160.1870  203.8860  149.6350 C   0  0  0  0  0  3  0  0  0  0  0  0
  161.1030  202.7680  152.0290 C   0  0  0  0  0  3  0  0  0  0  0  0
  160.8320  201.9470  150.9300 C   0  0  0  0  0  3  0  0  0  0  0  0
  160.0840  201.7170  148.5920 O   0  0  0  0  0  0  0  0  0  0  0  0
  160.9990  201.3320  147.6010 C   0  0  0  0  0  0  0  0  0  0  0  0
  161.5930  200.2200  147.6440 O   0  0  0  0  0  0  0  0  0  0  0  0
  161.2370  202.1710  146.5640 F   0  0  0  0  0  0  0  0  0  0  0  0
  1 29  1  6  0  0  0
  3  8  1  0  0  0  0
  4  1  1  0  0  0  0
  5 12  1  6  0  0  0
  5  6  1  0  0  0  0
  5  4  1  0  0  0  0
  6  9  2  0  0  0  0
  8  7  1  0  0  0  0
  8  2  2  0  0  0  0
  9  1  1  0  0  0  0
  9  7  1  0  0  0  0
 10 17  1  0  0  0  0
 11 10  2  0  0  0  0
 13 10  1  0  0  0  0
 13 15  1  0  0  0  0
 14 16  1  0  0  0  0
 14 11  1  0  0  0  0
 15 12  2  0  0  0  0
 16 13  2  0  0  0  0
 17 12  1  0  0  0  0
 18 16  1  0  0  0  0
 19  3  1  0  0  0  0
 20 24  1  6  0  0  0
 20 19  1  0  0  0  0
 21 20  1  1  0  0  0
 22 23  1  0  0  0  0
 22 21  1  0  0  0  0
 23 21  1  0  0  0  0
 24 25  1  0  0  0  0
 26 27  1  0  0  0  0
 26 28  1  0  0  0  0
 27 28  1  0  0  0  0
 27 25  1  0  0  0  0
 29 30  1  0  0  0  0
 31 36  1  0  0  0  0
 32 35  1  0  0  0  0
 32 30  1  0  0  0  0
 33 32  2  0  0  0  0
 34 31  2  0  0  0  0
 34 33  1  0  0  0  0
 36 35  2  0  0  0  0
 37 31  1  0  0  0  0
 38 39  2  0  0  0  0
 38 37  1  0  0  0  0
 40 38  1  0  0  0  0
M  END
>  <MODEL>
9

>  <REMARK>
 VINA RESULT:      -5.7      3.222      5.413
  Name = 
  12 active torsions:
  status: ('A' for Active; 'I' for Inactive)
    1  A    between atoms: C_1  and  O_27
    2  A    between atoms: C_2  and  N_30
    3  A    between atoms: C_3  and  C_18
    4  A    between atoms: C_5  and  C_25
    5  A    between atoms: N_6  and  C_20
    6  A    between atoms: C_8  and  C_21
    7  A    between atoms: C_8  and  C_33
    8  A    between atoms: C_10  and  O_27
    9  A    between atoms: C_11  and  C_22
   10  A    between atoms: C_18  and  C_20
   11  A    between atoms: C_18  and  C_33
   12  A    between atoms: C_25  and  N_30
                            x       y       z     vdW  Elec       q    Type
                         _______ _______ _______ _____ _____    ______ ____

>  <TORSDO>
F 12

$$$$
