=
 OpenBabel11052411093D

 44 47  0  0  1  0  0  0  0  0999 V2000
  161.1170  208.4870  151.4680 C   0  0  1  0  0  3  0  0  0  0  0  0
  158.6730  211.5870  152.9310 C   0  0  0  0  0  3  0  0  0  0  0  0
  161.4660  208.9670  152.8780 C   0  0  2  0  0  3  0  0  0  0  0  0
  159.9350  211.7210  155.1110 C   0  0  2  0  0  3  0  0  0  0  0  0
  159.7640  211.9540  156.8670 Cl  0  0  0  0  0  0  0  0  0  0  0  0
  158.5800  211.8930  154.4080 C   0  0  1  0  0  3  0  0  0  0  0  0
  160.5860  210.0760  153.3380 C   0  0  2  0  0  0  0  0  0  0  0  0
  159.5690  210.7250  152.4390 C   0  0  0  0  0  3  0  0  0  0  0  0
  161.8830  210.3170  152.8560 O   0  0  0  0  0  0  0  0  0  0  0  0
  160.4970  210.3250  154.8420 C   0  0  0  0  0  2  0  0  0  0  0  0
  158.0840  213.2520  154.6060 N   0  0  0  0  0  2  0  0  0  0  0  0
  155.7560  211.6370  156.9400 C   0  0  1  0  0  3  0  0  0  0  0  0
  154.4720  210.8850  157.2490 C   0  0  0  0  0  1  0  0  0  0  0  0
  156.6430  213.7320  156.5030 C   0  0  0  0  0  2  0  0  0  0  0  0
  156.7150  213.1630  155.1000 C   0  0  2  0  0  3  0  0  0  0  0  0
  156.1910  211.4230  155.1890 S   0  0  0  0  0  0  0  0  0  0  0  0
  155.5750  213.0550  157.2160 N   0  0  0  0  0  2  0  0  0  0  0  0
  163.1590  207.7230  150.4410 O   0  0  0  0  0  1  0  0  0  0  0  0
  162.2560  208.7890  150.5000 C   0  0  1  0  0  3  0  0  0  0  0  0
  161.7130  209.0870  149.1140 C   0  0  0  0  0  2  0  0  0  0  0  0
  161.7480  210.5610  148.8620 C   0  0  0  0  0  0  0  0  0  0  0  0
  161.4550  212.6890  149.1160 C   0  0  0  0  0  0  0  0  0  0  0  0
  162.3740  212.5970  147.9440 C   0  0  1  0  0  3  0  0  0  0  0  0
  161.1290  211.4020  149.6260 N   0  0  0  0  0  0  0  0  0  0  0  0
  161.0410  213.7620  149.6330 O   0  0  0  0  0  0  0  0  0  0  0  0
  162.5300  211.1510  147.8170 N   0  0  0  0  0  2  0  0  0  0  0  0
  163.8460  212.7630  145.5010 O   0  0  0  0  0  1  0  0  0  0  0  0
  161.7800  213.1630  146.6840 C   0  0  0  0  0  0  0  0  0  0  0  0
  160.5470  213.4530  146.6300 O   0  0  0  0  0  0  0  0  0  0  0  0
  162.6020  213.3030  145.5170 N   0  0  0  0  0  0  0  0  0  0  0  0
  162.0930  213.9410  144.3100 C   0  0  0  0  0  2  0  0  0  0  0  0
  160.3920  212.5970  143.3210 O   0  0  0  0  0  1  0  0  0  0  0  0
  162.4960  212.3270  142.4460 O   0  0  0  0  0  0  0  0  0  0  0  0
  161.6120  212.9130  143.3440 C   0  0  0  0  0  0  0  0  0  0  0  0
  160.8460  207.1130  151.4940 O   0  0  0  0  0  0  0  0  0  0  0  0
  161.0590  206.7230  152.8200 C   0  0  0  0  0  2  0  0  0  0  0  0
  161.5280  205.2810  152.8680 C   0  0  0  0  0  2  0  0  0  0  0  0
  160.6300  204.5630  150.7050 C   0  0  0  0  0  3  0  0  0  0  0  0
  161.6940  204.7460  151.4860 C   0  0  0  0  0  3  0  0  0  0  0  0
  160.7780  204.0550  149.3060 C   0  0  0  0  0  2  0  0  0  0  0  0
  161.2950  205.1590  148.4010 C   0  0  0  0  0  2  0  0  0  0  0  0
  162.2800  204.4530  147.0510 S   0  0  0  0  0  0  0  0  0  0  0  0
  161.5670  205.5650  145.8020 C   0  0  0  0  0  2  0  0  0  0  0  0
  160.5760  206.5100  146.4550 C   0  0  0  0  0  1  0  0  0  0  0  0
  1 35  1  1  0  0  0
  2  6  1  0  0  0  0
  3  1  1  6  0  0  0
  3  7  1  0  0  0  0
  4  5  1  1  0  0  0
  6 11  1  6  0  0  0
  6  4  1  0  0  0  0
  7  8  1  6  0  0  0
  7 10  1  0  0  0  0
  8  2  2  0  0  0  0
  9  3  1  0  0  0  0
  9  7  1  0  0  0  0
 10  4  1  0  0  0  0
 12 17  1  0  0  0  0
 12 13  1  6  0  0  0
 14 17  1  0  0  0  0
 15 11  1  1  0  0  0
 15 16  1  0  0  0  0
 15 14  1  0  0  0  0
 16 12  1  0  0  0  0
 19 18  1  6  0  0  0
 19  1  1  0  0  0  0
 20 19  1  0  0  0  0
 21 20  1  0  0  0  0
 21 24  2  0  0  0  0
 22 24  1  0  0  0  0
 22 25  2  0  0  0  0
 23 28  1  6  0  0  0
 23 22  1  0  0  0  0
 26 23  1  0  0  0  0
 26 21  1  0  0  0  0
 27 30  1  0  0  0  0
 29 28  2  0  0  0  0
 30 28  1  0  0  0  0
 31 30  1  0  0  0  0
 32 34  1  0  0  0  0
 33 34  2  0  0  0  0
 34 31  1  0  0  0  0
 35 36  1  0  0  0  0
 36 37  1  0  0  0  0
 38 39  2  0  0  0  0
 39 37  1  0  0  0  0
 40 38  1  0  0  0  0
 41 40  1  0  0  0  0
 42 41  1  0  0  0  0
 43 44  1  0  0  0  0
 43 42  1  0  0  0  0
M  END
>  <MODEL>
1

>  <REMARK>
 VINA RESULT:      -5.7      0.000      0.000
  Name = 
  17 active torsions:
  status: ('A' for Active; 'I' for Inactive)
    1  A    between atoms: C_1  and  C_29
    2  A    between atoms: C_1  and  O_31
    3  A    between atoms: C_2  and  C_24
    4  A    between atoms: C_4  and  C_5
    5  A    between atoms: C_4  and  O_31
    6  A    between atoms: C_4  and  C_35
    7  A    between atoms: C_6  and  C_26
    8  A    between atoms: N_8  and  C_18
    9  A    between atoms: N_8  and  C_22
   10  A    between atoms: C_12  and  N_37
   11  A    between atoms: C_12  and  C_38
   12  A    between atoms: C_16  and  C_17
   13  A    between atoms: C_19  and  C_29
   14  A    between atoms: C_24  and  C_43
   15  A    between atoms: C_26  and  C_35
   16  A    between atoms: C_27  and  S_44
   17  A    between atoms: C_43  and  S_44
                            x       y       z     vdW  Elec       q    Type
                         _______ _______ _______ _____ _____    ______ ____

>  <TORSDO>
F 17

$$$$
=
 OpenBabel11052411093D

 44 47  0  0  1  0  0  0  0  0999 V2000
  161.6600  207.4230  152.1090 C   0  0  1  0  0  3  0  0  0  0  0  0
  161.1380  211.1300  154.0360 C   0  0  0  0  0  3  0  0  0  0  0  0
  160.9660  207.3460  153.4700 C   0  0  2  0  0  3  0  0  0  0  0  0
  160.0460  210.0710  156.0470 C   0  0  2  0  0  3  0  0  0  0  0  0
  158.7550  210.2610  157.2570 Cl  0  0  0  0  0  0  0  0  0  0  0  0
  160.1280  211.3120  155.1450 C   0  0  1  0  0  3  0  0  0  0  0  0
  160.8260  208.6790  154.1170 C   0  0  2  0  0  0  0  0  0  0  0  0
  161.4350  209.9260  153.5340 C   0  0  0  0  0  3  0  0  0  0  0  0
  161.8340  207.7800  154.4980 O   0  0  0  0  0  0  0  0  0  0  0  0
  159.7680  208.8240  155.2090 C   0  0  0  0  0  2  0  0  0  0  0  0
  160.4690  212.4880  155.9420 N   0  0  0  0  0  2  0  0  0  0  0  0
  156.8680  213.2010  155.8900 C   0  0  1  0  0  3  0  0  0  0  0  0
  155.6160  213.7350  155.2140 C   0  0  0  0  0  1  0  0  0  0  0  0
  158.7680  213.8090  157.0680 C   0  0  0  0  0  2  0  0  0  0  0  0
  159.4230  213.4840  155.7400 C   0  0  2  0  0  3  0  0  0  0  0  0
  158.1330  212.8270  154.6390 S   0  0  0  0  0  0  0  0  0  0  0  0
  157.3920  214.1960  156.8140 N   0  0  0  0  0  2  0  0  0  0  0  0
  163.4370  205.7990  152.0050 O   0  0  0  0  0  1  0  0  0  0  0  0
  162.1050  206.0380  151.6540 C   0  0  1  0  0  3  0  0  0  0  0  0
  161.2110  204.9660  152.2520 C   0  0  0  0  0  2  0  0  0  0  0  0
  161.0050  203.8660  151.2600 C   0  0  0  0  0  0  0  0  0  0  0  0
  160.8520  201.8880  150.4000 C   0  0  0  0  0  0  0  0  0  0  0  0
  160.3400  202.7820  149.3200 C   0  0  1  0  0  3  0  0  0  0  0  0
  161.2260  202.6250  151.5550 N   0  0  0  0  0  0  0  0  0  0  0  0
  160.9120  200.6290  150.3330 O   0  0  0  0  0  0  0  0  0  0  0  0
  160.4720  204.0930  149.9500 N   0  0  0  0  0  2  0  0  0  0  0  0
  161.1860  205.1390  147.9440 O   0  0  0  0  0  1  0  0  0  0  0  0
  161.1700  202.7280  148.0670 C   0  0  0  0  0  0  0  0  0  0  0  0
  161.6470  201.6260  147.6620 O   0  0  0  0  0  0  0  0  0  0  0  0
  161.4830  203.9450  147.3760 N   0  0  0  0  0  0  0  0  0  0  0  0
  162.1960  203.9250  146.1050 C   0  0  0  0  0  2  0  0  0  0  0  0
  161.4730  205.4110  144.3880 O   0  0  0  0  0  0  0  0  0  0  0  0
  160.2530  203.4790  144.5980 O   0  0  0  0  0  1  0  0  0  0  0  0
  161.2860  204.3210  144.9930 C   0  0  0  0  0  0  0  0  0  0  0  0
  160.7900  207.9920  151.1710 O   0  0  0  0  0  0  0  0  0  0  0  0
  161.2690  207.5750  149.9250 C   0  0  0  0  0  2  0  0  0  0  0  0
  162.3480  208.5250  149.4390 C   0  0  0  0  0  2  0  0  0  0  0  0
  162.0540  210.8130  148.6160 C   0  0  0  0  0  3  0  0  0  0  0  0
  161.9070  209.9380  149.6110 C   0  0  0  0  0  3  0  0  0  0  0  0
  161.5900  212.2280  148.7570 C   0  0  0  0  0  2  0  0  0  0  0  0
  160.8740  212.6730  147.4950 C   0  0  0  0  0  2  0  0  0  0  0  0
  162.0680  213.3190  146.2920 S   0  0  0  0  0  0  0  0  0  0  0  0
  160.8260  213.4660  144.9720 C   0  0  0  0  0  2  0  0  0  0  0  0
  159.8630  212.2950  145.0340 C   0  0  0  0  0  1  0  0  0  0  0  0
  1 35  1  6  0  0  0
  2  6  1  0  0  0  0
  3  1  1  6  0  0  0
  3  7  1  0  0  0  0
  3  9  1  0  0  0  0
  4  5  1  1  0  0  0
  6 11  1  1  0  0  0
  6  4  1  0  0  0  0
  7  8  1  6  0  0  0
  7  9  1  0  0  0  0
  7 10  1  0  0  0  0
  8  2  2  0  0  0  0
 10  4  1  0  0  0  0
 12 13  1  6  0  0  0
 12 17  1  0  0  0  0
 15 11  1  1  0  0  0
 15 14  1  0  0  0  0
 16 15  1  0  0  0  0
 16 12  1  0  0  0  0
 17 14  1  0  0  0  0
 19 18  1  1  0  0  0
 19  1  1  0  0  0  0
 19 20  1  0  0  0  0
 21 24  2  0  0  0  0
 21 20  1  0  0  0  0
 22 24  1  0  0  0  0
 23 28  1  6  0  0  0
 23 26  1  0  0  0  0
 23 22  1  0  0  0  0
 25 22  2  0  0  0  0
 26 21  1  0  0  0  0
 29 28  2  0  0  0  0
 30 27  1  0  0  0  0
 30 28  1  0  0  0  0
 31 30  1  0  0  0  0
 32 34  2  0  0  0  0
 33 34  1  0  0  0  0
 34 31  1  0  0  0  0
 36 35  1  0  0  0  0
 37 39  1  0  0  0  0
 37 36  1  0  0  0  0
 38 40  1  0  0  0  0
 38 39  2  0  0  0  0
 41 40  1  0  0  0  0
 42 41  1  0  0  0  0
 43 44  1  0  0  0  0
 43 42  1  0  0  0  0
M  END
>  <MODEL>
2

>  <REMARK>
 VINA RESULT:      -5.6      3.783      6.523
  Name = 
  17 active torsions:
  status: ('A' for Active; 'I' for Inactive)
    1  A    between atoms: C_1  and  C_29
    2  A    between atoms: C_1  and  O_31
    3  A    between atoms: C_2  and  C_24
    4  A    between atoms: C_4  and  C_5
    5  A    between atoms: C_4  and  O_31
    6  A    between atoms: C_4  and  C_35
    7  A    between atoms: C_6  and  C_26
    8  A    between atoms: N_8  and  C_18
    9  A    between atoms: N_8  and  C_22
   10  A    between atoms: C_12  and  N_37
   11  A    between atoms: C_12  and  C_38
   12  A    between atoms: C_16  and  C_17
   13  A    between atoms: C_19  and  C_29
   14  A    between atoms: C_24  and  C_43
   15  A    between atoms: C_26  and  C_35
   16  A    between atoms: C_27  and  S_44
   17  A    between atoms: C_43  and  S_44
                            x       y       z     vdW  Elec       q    Type
                         _______ _______ _______ _____ _____    ______ ____

>  <TORSDO>
F 17

$$$$
=
 OpenBabel11052411093D

 44 47  0  0  1  0  0  0  0  0999 V2000
  162.1500  208.8420  149.9530 C   0  0  1  0  0  3  0  0  0  0  0  0
  161.9290  210.1430  153.9510 C   0  0  0  0  0  3  0  0  0  0  0  0
  161.5150  207.8400  150.9180 C   0  0  2  0  0  3  0  0  0  0  0  0
  160.8690  207.9890  154.7230 C   0  0  2  0  0  3  0  0  0  0  0  0
  159.6460  207.2890  155.8110 Cl  0  0  0  0  0  0  0  0  0  0  0  0
  160.9820  209.5050  154.9410 C   0  0  1  0  0  3  0  0  0  0  0  0
  161.4800  208.3410  152.3200 C   0  0  2  0  0  0  0  0  0  0  0  0
  162.1340  209.6320  152.7320 C   0  0  0  0  0  3  0  0  0  0  0  0
  162.4510  207.4220  151.8910 O   0  0  0  0  0  0  0  0  0  0  0  0
  160.4830  207.6890  153.2750 C   0  0  0  0  0  2  0  0  0  0  0  0
  161.4240  209.7830  156.3050 N   0  0  0  0  0  2  0  0  0  0  0  0
  159.7780  213.0640  156.3370 C   0  0  1  0  0  3  0  0  0  0  0  0
  159.3360  214.3360  157.0420 C   0  0  0  0  0  1  0  0  0  0  0  0
  159.2560  210.8340  155.9920 C   0  0  0  0  0  2  0  0  0  0  0  0
  160.4290  210.6450  156.9320 C   0  0  2  0  0  3  0  0  0  0  0  0
  161.1370  212.2870  157.2610 S   0  0  0  0  0  0  0  0  0  0  0  0
  158.6630  212.1320  156.2590 N   0  0  0  0  0  2  0  0  0  0  0  0
  163.2270  207.5100  148.2570 O   0  0  0  0  0  1  0  0  0  0  0  0
  162.1120  208.3100  148.5240 C   0  0  1  0  0  3  0  0  0  0  0  0
  160.8370  207.5210  148.2830 C   0  0  0  0  0  2  0  0  0  0  0  0
  161.0770  206.4780  147.2390 C   0  0  0  0  0  0  0  0  0  0  0  0
  161.0750  205.4430  145.3400 C   0  0  0  0  0  0  0  0  0  0  0  0
  161.9910  204.6230  146.1860 C   0  0  1  0  0  3  0  0  0  0  0  0
  160.5680  206.5630  146.0520 N   0  0  0  0  0  0  0  0  0  0  0  0
  160.8040  205.2130  144.1290 O   0  0  0  0  0  0  0  0  0  0  0  0
  161.9490  205.3600  147.4460 N   0  0  0  0  0  2  0  0  0  0  0  0
  161.5310  203.5380  148.7880 O   0  0  0  0  0  1  0  0  0  0  0  0
  161.5010  203.2180  146.3950 C   0  0  0  0  0  0  0  0  0  0  0  0
  161.1330  202.5130  145.4080 O   0  0  0  0  0  0  0  0  0  0  0  0
  161.3790  202.7050  147.7290 N   0  0  0  0  0  0  0  0  0  0  0  0
  161.0060  201.3170  147.9700 C   0  0  0  0  0  2  0  0  0  0  0  0
  159.1250  201.3120  149.4330 O   0  0  0  0  0  0  0  0  0  0  0  0
  161.1450  200.8600  150.4230 O   0  0  0  0  0  1  0  0  0  0  0  0
  160.3720  201.1750  149.3110 C   0  0  0  0  0  0  0  0  0  0  0  0
  161.4780  210.0680  150.0390 O   0  0  0  0  0  0  0  0  0  0  0  0
  162.0770  210.8840  149.0740 C   0  0  0  0  0  2  0  0  0  0  0  0
  161.3440  212.2080  148.9860 C   0  0  0  0  0  2  0  0  0  0  0  0
  161.3730  213.5770  146.9540 C   0  0  0  0  0  3  0  0  0  0  0  0
  160.9390  212.4820  147.5770 C   0  0  0  0  0  3  0  0  0  0  0  0
  161.0020  213.8530  145.5310 C   0  0  0  0  0  2  0  0  0  0  0  0
  160.0900  212.7600  145.0060 C   0  0  0  0  0  2  0  0  0  0  0  0
  159.9590  212.8660  143.2000 S   0  0  0  0  0  0  0  0  0  0  0  0
  161.6640  212.2940  142.9330 C   0  0  0  0  0  2  0  0  0  0  0  0
  161.8690  211.9410  141.4720 C   0  0  0  0  0  1  0  0  0  0  0  0
  1 35  1  6  0  0  0
  2  6  1  0  0  0  0
  3  1  1  6  0  0  0
  3  9  1  0  0  0  0
  3  7  1  0  0  0  0
  4  6  1  0  0  0  0
  4  5  1  1  0  0  0
  6 11  1  1  0  0  0
  7  8  1  1  0  0  0
  7 10  1  0  0  0  0
  8  2  2  0  0  0  0
  9  7  1  0  0  0  0
 10  4  1  0  0  0  0
 12 13  1  1  0  0  0
 12 16  1  0  0  0  0
 14 17  1  0  0  0  0
 14 15  1  0  0  0  0
 15 11  1  6  0  0  0
 15 16  1  0  0  0  0
 17 12  1  0  0  0  0
 19 18  1  1  0  0  0
 19  1  1  0  0  0  0
 20 19  1  0  0  0  0
 21 26  1  0  0  0  0
 21 20  1  0  0  0  0
 22 24  1  0  0  0  0
 22 23  1  0  0  0  0
 23 28  1  1  0  0  0
 23 26  1  0  0  0  0
 24 21  2  0  0  0  0
 25 22  2  0  0  0  0
 28 30  1  0  0  0  0
 29 28  2  0  0  0  0
 30 31  1  0  0  0  0
 30 27  1  0  0  0  0
 31 34  1  0  0  0  0
 34 32  2  0  0  0  0
 34 33  1  0  0  0  0
 36 35  1  0  0  0  0
 37 36  1  0  0  0  0
 38 39  2  0  0  0  0
 39 37  1  0  0  0  0
 40 38  1  0  0  0  0
 41 40  1  0  0  0  0
 42 41  1  0  0  0  0
 43 42  1  0  0  0  0
 44 43  1  0  0  0  0
M  END
>  <MODEL>
3

>  <REMARK>
 VINA RESULT:      -5.3      3.726      7.411
  Name = 
  17 active torsions:
  status: ('A' for Active; 'I' for Inactive)
    1  A    between atoms: C_1  and  C_29
    2  A    between atoms: C_1  and  O_31
    3  A    between atoms: C_2  and  C_24
    4  A    between atoms: C_4  and  C_5
    5  A    between atoms: C_4  and  O_31
    6  A    between atoms: C_4  and  C_35
    7  A    between atoms: C_6  and  C_26
    8  A    between atoms: N_8  and  C_18
    9  A    between atoms: N_8  and  C_22
   10  A    between atoms: C_12  and  N_37
   11  A    between atoms: C_12  and  C_38
   12  A    between atoms: C_16  and  C_17
   13  A    between atoms: C_19  and  C_29
   14  A    between atoms: C_24  and  C_43
   15  A    between atoms: C_26  and  C_35
   16  A    between atoms: C_27  and  S_44
   17  A    between atoms: C_43  and  S_44
                            x       y       z     vdW  Elec       q    Type
                         _______ _______ _______ _____ _____    ______ ____

>  <TORSDO>
F 17

$$$$
=
 OpenBabel11052411093D

 44 47  0  0  1  0  0  0  0  0999 V2000
  162.2180  209.4080  151.3750 C   0  0  1  0  0  3  0  0  0  0  0  0
  159.3170  212.0020  152.9820 C   0  0  0  0  0  3  0  0  0  0  0  0
  162.1180  209.3910  152.9010 C   0  0  2  0  0  3  0  0  0  0  0  0
  159.8800  211.3610  155.3550 C   0  0  2  0  0  3  0  0  0  0  0  0
  159.1930  211.0270  156.9630 Cl  0  0  0  0  0  0  0  0  0  0  0  0
  158.7830  211.8230  154.3840 C   0  0  1  0  0  3  0  0  0  0  0  0
  161.0940  210.3390  153.4180 C   0  0  2  0  0  0  0  0  0  0  0  0
  160.3560  211.2970  152.5200 C   0  0  0  0  0  3  0  0  0  0  0  0
  162.4620  210.6520  153.4370 O   0  0  0  0  0  0  0  0  0  0  0  0
  160.5580  210.0980  154.8270 C   0  0  0  0  0  2  0  0  0  0  0  0
  158.1900  213.0710  154.8550 N   0  0  0  0  0  2  0  0  0  0  0  0
  155.5640  211.3090  156.7180 C   0  0  1  0  0  3  0  0  0  0  0  0
  154.3250  210.4310  156.7840 C   0  0  0  0  0  1  0  0  0  0  0  0
  156.3120  213.4690  156.3450 C   0  0  0  0  0  2  0  0  0  0  0  0
  156.7610  212.8490  155.0370 C   0  0  2  0  0  3  0  0  0  0  0  0
  156.4080  211.0670  155.1270 S   0  0  0  0  0  0  0  0  0  0  0  0
  155.1820  212.7080  156.8460 N   0  0  0  0  0  2  0  0  0  0  0  0
  162.6480  207.4730  150.0030 O   0  0  0  0  0  1  0  0  0  0  0  0
  161.6800  208.1080  150.7870 C   0  0  1  0  0  3  0  0  0  0  0  0
  161.2120  207.1750  151.8900 C   0  0  0  0  0  2  0  0  0  0  0  0
  161.1050  205.7800  151.3640 C   0  0  0  0  0  0  0  0  0  0  0  0
  161.2260  203.6240  151.2390 C   0  0  0  0  0  0  0  0  0  0  0  0
  160.4420  204.0040  150.0260 C   0  0  1  0  0  3  0  0  0  0  0  0
  161.5820  204.7640  152.0090 N   0  0  0  0  0  0  0  0  0  0  0  0
  161.5100  202.4430  151.5800 O   0  0  0  0  0  0  0  0  0  0  0  0
  160.3990  205.4580  150.1600 N   0  0  0  0  0  2  0  0  0  0  0  0
  159.8200  201.5980  148.6160 O   0  0  0  0  0  1  0  0  0  0  0  0
  161.1260  203.6260  148.7420 C   0  0  0  0  0  0  0  0  0  0  0  0
  161.9020  204.4430  148.1630 O   0  0  0  0  0  0  0  0  0  0  0  0
  160.8320  202.3600  148.1330 N   0  0  0  0  0  0  0  0  0  0  0  0
  161.5490  201.9130  146.9450 C   0  0  0  0  0  2  0  0  0  0  0  0
  160.8660  203.4220  145.2310 O   0  0  0  0  0  1  0  0  0  0  0  0
  159.9990  201.3030  145.0830 O   0  0  0  0  0  0  0  0  0  0  0  0
  160.7810  202.2610  145.7160 C   0  0  0  0  0  0  0  0  0  0  0  0
  161.5090  210.5050  150.8710 O   0  0  0  0  0  0  0  0  0  0  0  0
  162.0280  210.7200  149.5900 C   0  0  0  0  0  2  0  0  0  0  0  0
  161.6170  212.0900  149.0860 C   0  0  0  0  0  2  0  0  0  0  0  0
  162.2420  213.5130  147.1920 C   0  0  0  0  0  3  0  0  0  0  0  0
  162.0780  212.2840  147.6810 C   0  0  0  0  0  3  0  0  0  0  0  0
  162.7330  213.7280  145.7950 C   0  0  0  0  0  2  0  0  0  0  0  0
  161.7190  213.1970  144.7970 C   0  0  0  0  0  2  0  0  0  0  0  0
  162.5130  212.9100  143.1910 S   0  0  0  0  0  0  0  0  0  0  0  0
  161.0060  212.2170  142.4460 C   0  0  0  0  0  2  0  0  0  0  0  0
  160.0020  211.8770  143.5310 C   0  0  0  0  0  1  0  0  0  0  0  0
  1 35  1  6  0  0  0
  2  6  1  0  0  0  0
  3  1  1  6  0  0  0
  3  7  1  0  0  0  0
  3  9  1  0  0  0  0
  4  5  1  1  0  0  0
  6 11  1  1  0  0  0
  6  4  1  0  0  0  0
  7  8  1  6  0  0  0
  7  9  1  0  0  0  0
  7 10  1  0  0  0  0
  8  2  2  0  0  0  0
 10  4  1  0  0  0  0
 12 13  1  6  0  0  0
 12 17  1  0  0  0  0
 14 17  1  0  0  0  0
 15 11  1  1  0  0  0
 15 16  1  0  0  0  0
 15 14  1  0  0  0  0
 16 12  1  0  0  0  0
 19 18  1  1  0  0  0
 19  1  1  0  0  0  0
 19 20  1  0  0  0  0
 21 20  1  0  0  0  0
 21 24  2  0  0  0  0
 22 25  2  0  0  0  0
 22 24  1  0  0  0  0
 23 28  1  6  0  0  0
 23 26  1  0  0  0  0
 23 22  1  0  0  0  0
 26 21  1  0  0  0  0
 29 28  2  0  0  0  0
 30 27  1  0  0  0  0
 30 28  1  0  0  0  0
 31 30  1  0  0  0  0
 32 34  1  0  0  0  0
 33 34  2  0  0  0  0
 34 31  1  0  0  0  0
 36 35  1  0  0  0  0
 37 36  1  0  0  0  0
 38 39  2  0  0  0  0
 39 37  1  0  0  0  0
 40 38  1  0  0  0  0
 41 40  1  0  0  0  0
 42 41  1  0  0  0  0
 43 42  1  0  0  0  0
 43 44  1  0  0  0  0
M  END
>  <MODEL>
4

>  <REMARK>
 VINA RESULT:      -5.3      3.459      6.799
  Name = 
  17 active torsions:
  status: ('A' for Active; 'I' for Inactive)
    1  A    between atoms: C_1  and  C_29
    2  A    between atoms: C_1  and  O_31
    3  A    between atoms: C_2  and  C_24
    4  A    between atoms: C_4  and  C_5
    5  A    between atoms: C_4  and  O_31
    6  A    between atoms: C_4  and  C_35
    7  A    between atoms: C_6  and  C_26
    8  A    between atoms: N_8  and  C_18
    9  A    between atoms: N_8  and  C_22
   10  A    between atoms: C_12  and  N_37
   11  A    between atoms: C_12  and  C_38
   12  A    between atoms: C_16  and  C_17
   13  A    between atoms: C_19  and  C_29
   14  A    between atoms: C_24  and  C_43
   15  A    between atoms: C_26  and  C_35
   16  A    between atoms: C_27  and  S_44
   17  A    between atoms: C_43  and  S_44
                            x       y       z     vdW  Elec       q    Type
                         _______ _______ _______ _____ _____    ______ ____

>  <TORSDO>
F 17

$$$$
=
 OpenBabel11052411093D

 44 47  0  0  1  0  0  0  0  0999 V2000
  161.5810  209.3220  150.5930 C   0  0  1  0  0  3  0  0  0  0  0  0
  159.8380  211.8670  153.4580 C   0  0  0  0  0  3  0  0  0  0  0  0
  162.1780  209.2100  151.9970 C   0  0  2  0  0  3  0  0  0  0  0  0
  161.3780  211.0660  155.2870 C   0  0  2  0  0  3  0  0  0  0  0  0
  161.4730  210.6450  157.0140 Cl  0  0  0  0  0  0  0  0  0  0  0  0
  159.9840  211.6100  154.9400 C   0  0  1  0  0  3  0  0  0  0  0  0
  161.5410  210.1440  152.9640 C   0  0  2  0  0  0  0  0  0  0  0  0
  160.5240  211.1710  152.5440 C   0  0  0  0  0  3  0  0  0  0  0  0
  162.7850  210.4280  152.3780 O   0  0  0  0  0  0  0  0  0  0  0  0
  161.6860  209.8250  154.4500 C   0  0  0  0  0  2  0  0  0  0  0  0
  159.7260  212.8380  155.6870 N   0  0  0  0  0  2  0  0  0  0  0  0
  156.3750  213.1210  154.2160 C   0  0  1  0  0  3  0  0  0  0  0  0
  155.0170  213.7920  154.0910 C   0  0  0  0  0  1  0  0  0  0  0  0
  157.6230  211.6370  155.4820 C   0  0  0  0  0  2  0  0  0  0  0  0
  158.2900  212.9240  155.9250 C   0  0  2  0  0  3  0  0  0  0  0  0
  157.5700  214.2780  154.9470 S   0  0  0  0  0  0  0  0  0  0  0  0
  156.2660  211.9460  155.0680 N   0  0  0  0  0  2  0  0  0  0  0  0
  162.6190  209.9790  148.5190 O   0  0  0  0  0  1  0  0  0  0  0  0
  162.2760  210.4240  149.8000 C   0  0  1  0  0  3  0  0  0  0  0  0
  161.3890  211.6520  149.7020 C   0  0  0  0  0  2  0  0  0  0  0  0
  161.5480  212.2870  148.3580 C   0  0  0  0  0  0  0  0  0  0  0  0
  162.3170  213.5140  146.7520 C   0  0  0  0  0  0  0  0  0  0  0  0
  161.3090  212.6440  146.0780 C   0  0  1  0  0  3  0  0  0  0  0  0
  162.4120  213.2260  148.1400 N   0  0  0  0  0  0  0  0  0  0  0  0
  163.0370  214.3740  146.1730 O   0  0  0  0  0  0  0  0  0  0  0  0
  160.8230  211.8490  147.2020 N   0  0  0  0  0  2  0  0  0  0  0  0
  160.0410  211.8420  143.6460 O   0  0  0  0  0  1  0  0  0  0  0  0
  160.1740  213.4200  145.4690 C   0  0  0  0  0  0  0  0  0  0  0  0
  159.6440  214.3830  146.1000 O   0  0  0  0  0  0  0  0  0  0  0  0
  159.6440  213.0150  144.1990 N   0  0  0  0  0  0  0  0  0  0  0  0
  158.6160  213.8000  143.5280 C   0  0  0  0  0  2  0  0  0  0  0  0
  158.0390  213.4290  141.2460 O   0  0  0  0  0  0  0  0  0  0  0  0
  160.0630  214.4500  141.5980 O   0  0  0  0  0  1  0  0  0  0  0  0
  158.8900  213.8700  142.0650 C   0  0  0  0  0  0  0  0  0  0  0  0
  161.7000  208.0930  149.9330 O   0  0  0  0  0  0  0  0  0  0  0  0
  160.6160  207.3300  150.3800 C   0  0  0  0  0  2  0  0  0  0  0  0
  161.1030  206.2210  151.2940 C   0  0  0  0  0  2  0  0  0  0  0  0
  160.9880  204.8860  149.2430 C   0  0  0  0  0  3  0  0  0  0  0  0
  161.4140  204.9980  150.5010 C   0  0  0  0  0  3  0  0  0  0  0  0
  161.3160  203.6800  148.4210 C   0  0  0  0  0  2  0  0  0  0  0  0
  161.7750  204.1000  147.0360 C   0  0  0  0  0  2  0  0  0  0  0  0
  161.9230  205.9050  146.9450 S   0  0  0  0  0  0  0  0  0  0  0  0
  160.6460  206.0550  145.6590 C   0  0  0  0  0  2  0  0  0  0  0  0
  161.1860  205.5540  144.3330 C   0  0  0  0  0  1  0  0  0  0  0  0
  1 35  1  6  0  0  0
  2  6  1  0  0  0  0
  3  1  1  6  0  0  0
  3  9  1  0  0  0  0
  3  7  1  0  0  0  0
  4  5  1  1  0  0  0
  6  4  1  0  0  0  0
  6 11  1  1  0  0  0
  7  8  1  6  0  0  0
  7 10  1  0  0  0  0
  8  2  2  0  0  0  0
  9  7  1  0  0  0  0
 10  4  1  0  0  0  0
 12 13  1  1  0  0  0
 12 16  1  0  0  0  0
 12 17  1  0  0  0  0
 14 15  1  0  0  0  0
 15 11  1  6  0  0  0
 16 15  1  0  0  0  0
 17 14  1  0  0  0  0
 19 18  1  6  0  0  0
 19  1  1  0  0  0  0
 20 19  1  0  0  0  0
 21 20  1  0  0  0  0
 22 24  1  0  0  0  0
 23 28  1  1  0  0  0
 23 22  1  0  0  0  0
 23 26  1  0  0  0  0
 24 21  2  0  0  0  0
 25 22  2  0  0  0  0
 26 21  1  0  0  0  0
 27 30  1  0  0  0  0
 28 29  2  0  0  0  0
 30 28  1  0  0  0  0
 31 30  1  0  0  0  0
 32 34  2  0  0  0  0
 33 34  1  0  0  0  0
 34 31  1  0  0  0  0
 35 36  1  0  0  0  0
 36 37  1  0  0  0  0
 38 39  2  0  0  0  0
 39 37  1  0  0  0  0
 40 38  1  0  0  0  0
 41 40  1  0  0  0  0
 42 41  1  0  0  0  0
 43 42  1  0  0  0  0
 44 43  1  0  0  0  0
M  END
>  <MODEL>
5

>  <REMARK>
 VINA RESULT:      -5.2      1.818      2.387
  Name = 
  17 active torsions:
  status: ('A' for Active; 'I' for Inactive)
    1  A    between atoms: C_1  and  C_29
    2  A    between atoms: C_1  and  O_31
    3  A    between atoms: C_2  and  C_24
    4  A    between atoms: C_4  and  C_5
    5  A    between atoms: C_4  and  O_31
    6  A    between atoms: C_4  and  C_35
    7  A    between atoms: C_6  and  C_26
    8  A    between atoms: N_8  and  C_18
    9  A    between atoms: N_8  and  C_22
   10  A    between atoms: C_12  and  N_37
   11  A    between atoms: C_12  and  C_38
   12  A    between atoms: C_16  and  C_17
   13  A    between atoms: C_19  and  C_29
   14  A    between atoms: C_24  and  C_43
   15  A    between atoms: C_26  and  C_35
   16  A    between atoms: C_27  and  S_44
   17  A    between atoms: C_43  and  S_44
                            x       y       z     vdW  Elec       q    Type
                         _______ _______ _______ _____ _____    ______ ____

>  <TORSDO>
F 17

$$$$
=
 OpenBabel11052411093D

 44 47  0  0  1  0  0  0  0  0999 V2000
  161.3290  209.3740  151.4580 C   0  0  1  0  0  3  0  0  0  0  0  0
  160.5680  205.8460  149.2900 C   0  0  0  0  0  3  0  0  0  0  0  0
  161.6340  208.0800  152.2130 C   0  0  2  0  0  3  0  0  0  0  0  0
  161.2710  204.3690  151.2090 C   0  0  2  0  0  3  0  0  0  0  0  0
  162.1270  202.8680  151.6390 Cl  0  0  0  0  0  0  0  0  0  0  0  0
  161.1880  204.5250  149.6830 C   0  0  1  0  0  3  0  0  0  0  0  0
  161.3290  206.8640  151.4100 C   0  0  2  0  0  0  0  0  0  0  0  0
  160.6610  206.9340  150.0630 C   0  0  0  0  0  3  0  0  0  0  0  0
  160.4550  207.3260  152.4080 O   0  0  0  0  0  0  0  0  0  0  0  0
  162.0050  205.5590  151.8240 C   0  0  0  0  0  2  0  0  0  0  0  0
  160.4200  203.4230  149.1090 N   0  0  0  0  0  2  0  0  0  0  0  0
  160.6780  200.8290  146.5250 C   0  0  1  0  0  3  0  0  0  0  0  0
  161.3160  199.5820  145.9350 C   0  0  0  0  0  1  0  0  0  0  0  0
  160.9020  203.1230  146.7460 C   0  0  0  0  0  2  0  0  0  0  0  0
  161.2790  202.7260  148.1590 C   0  0  2  0  0  3  0  0  0  0  0  0
  161.0450  200.9280  148.3020 S   0  0  0  0  0  0  0  0  0  0  0  0
  161.2070  202.0120  145.8630 N   0  0  0  0  0  2  0  0  0  0  0  0
  159.5940  210.6440  152.5470 O   0  0  0  0  0  1  0  0  0  0  0  0
  160.9800  210.4950  152.4310 C   0  0  1  0  0  3  0  0  0  0  0  0
  161.5880  210.2250  153.7960 C   0  0  0  0  0  2  0  0  0  0  0  0
  160.7040  210.7820  154.8650 C   0  0  0  0  0  0  0  0  0  0  0  0
  159.2340  210.9080  156.4470 C   0  0  0  0  0  0  0  0  0  0  0  0
  159.8650  212.2610  156.4440 C   0  0  1  0  0  3  0  0  0  0  0  0
  159.8100  210.0610  155.4620 N   0  0  0  0  0  0  0  0  0  0  0  0
  158.3330  210.5290  157.2440 O   0  0  0  0  0  0  0  0  0  0  0  0
  160.8350  212.1200  155.3620 N   0  0  0  0  0  2  0  0  0  0  0  0
  157.7070  211.9070  154.6060 O   0  0  0  0  0  1  0  0  0  0  0  0
  158.8940  213.3630  156.1240 C   0  0  0  0  0  0  0  0  0  0  0  0
  158.9160  214.4480  156.7770 O   0  0  0  0  0  0  0  0  0  0  0  0
  157.8890  213.1470  155.1230 N   0  0  0  0  0  0  0  0  0  0  0  0
  156.9960  214.2230  154.7110 C   0  0  0  0  0  2  0  0  0  0  0  0
  154.8030  213.7380  153.9120 O   0  0  0  0  0  0  0  0  0  0  0  0
  155.1030  213.5000  156.1750 O   0  0  0  0  0  1  0  0  0  0  0  0
  155.5740  213.8190  154.9060 C   0  0  0  0  0  0  0  0  0  0  0  0
  162.4320  209.7310  150.6740 O   0  0  0  0  0  0  0  0  0  0  0  0
  162.1490  211.0190  150.2060 C   0  0  0  0  0  2  0  0  0  0  0  0
  162.3570  211.0840  148.7050 C   0  0  0  0  0  2  0  0  0  0  0  0
  161.4510  212.3470  146.8120 C   0  0  0  0  0  3  0  0  0  0  0  0
  161.6160  212.2430  148.1300 C   0  0  0  0  0  3  0  0  0  0  0  0
  160.6850  213.4870  146.2180 C   0  0  0  0  0  2  0  0  0  0  0  0
  159.6590  212.9670  145.2270 C   0  0  0  0  0  2  0  0  0  0  0  0
  158.1350  213.9460  145.3310 S   0  0  0  0  0  0  0  0  0  0  0  0
  157.2070  212.6160  146.1540 C   0  0  0  0  0  2  0  0  0  0  0  0
  157.4610  212.6550  147.6490 C   0  0  0  0  0  1  0  0  0  0  0  0
  1 35  1  1  0  0  0
  1 19  1  0  0  0  0
  2  6  1  0  0  0  0
  2  8  2  0  0  0  0
  3  1  1  6  0  0  0
  3  9  1  0  0  0  0
  4  5  1  6  0  0  0
  4 10  1  0  0  0  0
  6 11  1  1  0  0  0
  6  4  1  0  0  0  0
  7  8  1  6  0  0  0
  7 10  1  0  0  0  0
  7  3  1  0  0  0  0
  7  9  1  0  0  0  0
 12 13  1  6  0  0  0
 12 16  1  0  0  0  0
 14 15  1  0  0  0  0
 15 16  1  0  0  0  0
 15 11  1  1  0  0  0
 17 12  1  0  0  0  0
 17 14  1  0  0  0  0
 19 18  1  1  0  0  0
 19 20  1  0  0  0  0
 20 21  1  0  0  0  0
 21 26  1  0  0  0  0
 21 24  2  0  0  0  0
 22 25  2  0  0  0  0
 23 28  1  6  0  0  0
 23 22  1  0  0  0  0
 24 22  1  0  0  0  0
 26 23  1  0  0  0  0
 27 30  1  0  0  0  0
 28 29  2  0  0  0  0
 30 28  1  0  0  0  0
 31 34  1  0  0  0  0
 31 30  1  0  0  0  0
 32 34  2  0  0  0  0
 34 33  1  0  0  0  0
 36 35  1  0  0  0  0
 37 36  1  0  0  0  0
 38 39  2  0  0  0  0
 39 37  1  0  0  0  0
 40 38  1  0  0  0  0
 41 42  1  0  0  0  0
 41 40  1  0  0  0  0
 42 43  1  0  0  0  0
 43 44  1  0  0  0  0
M  END
>  <MODEL>
6

>  <REMARK>
 VINA RESULT:      -4.9      4.229      9.689
  Name = 
  17 active torsions:
  status: ('A' for Active; 'I' for Inactive)
    1  A    between atoms: C_1  and  C_29
    2  A    between atoms: C_1  and  O_31
    3  A    between atoms: C_2  and  C_24
    4  A    between atoms: C_4  and  C_5
    5  A    between atoms: C_4  and  O_31
    6  A    between atoms: C_4  and  C_35
    7  A    between atoms: C_6  and  C_26
    8  A    between atoms: N_8  and  C_18
    9  A    between atoms: N_8  and  C_22
   10  A    between atoms: C_12  and  N_37
   11  A    between atoms: C_12  and  C_38
   12  A    between atoms: C_16  and  C_17
   13  A    between atoms: C_19  and  C_29
   14  A    between atoms: C_24  and  C_43
   15  A    between atoms: C_26  and  C_35
   16  A    between atoms: C_27  and  S_44
   17  A    between atoms: C_43  and  S_44
                            x       y       z     vdW  Elec       q    Type
                         _______ _______ _______ _____ _____    ______ ____

>  <TORSDO>
F 17

$$$$
=
 OpenBabel11052411093D

 44 47  0  0  1  0  0  0  0  0999 V2000
  161.3300  208.3110  151.3670 C   0  0  1  0  0  3  0  0  0  0  0  0
  159.4260  211.4990  153.3520 C   0  0  0  0  0  3  0  0  0  0  0  0
  161.9880  208.7310  152.6830 C   0  0  2  0  0  3  0  0  0  0  0  0
  161.1130  211.5010  155.2270 C   0  0  2  0  0  3  0  0  0  0  0  0
  161.3180  211.6930  156.9850 Cl  0  0  0  0  0  0  0  0  0  0  0  0
  159.6550  211.7680  154.8210 C   0  0  1  0  0  3  0  0  0  0  0  0
  161.2890  209.8730  153.3320 C   0  0  2  0  0  0  0  0  0  0  0  0
  160.1500  210.6030  152.6710 C   0  0  0  0  0  3  0  0  0  0  0  0
  162.4710  210.0560  152.5980 O   0  0  0  0  0  0  0  0  0  0  0  0
  161.5230  210.0850  154.8260 C   0  0  0  0  0  2  0  0  0  0  0  0
  159.2920  213.1470  155.1380 N   0  0  0  0  0  2  0  0  0  0  0  0
  156.2400  211.2730  155.9470 C   0  0  1  0  0  3  0  0  0  0  0  0
  154.7290  211.1490  156.0440 C   0  0  0  0  0  1  0  0  0  0  0  0
  158.1240  212.1130  157.0020 C   0  0  0  0  0  2  0  0  0  0  0  0
  158.0320  213.1210  155.8730 C   0  0  2  0  0  3  0  0  0  0  0  0
  156.6770  212.5960  154.7800 S   0  0  0  0  0  0  0  0  0  0  0  0
  156.7930  211.5920  157.2560 N   0  0  0  0  0  2  0  0  0  0  0  0
  163.1240  207.3450  150.0800 O   0  0  0  0  0  1  0  0  0  0  0  0
  162.3040  208.4710  150.2050 C   0  0  1  0  0  3  0  0  0  0  0  0
  161.5530  208.7130  148.9080 C   0  0  0  0  0  2  0  0  0  0  0  0
  161.7470  210.1280  148.4650 C   0  0  0  0  0  0  0  0  0  0  0  0
  162.5990  212.1030  148.2370 C   0  0  0  0  0  0  0  0  0  0  0  0
  161.5040  212.0720  147.2230 C   0  0  1  0  0  3  0  0  0  0  0  0
  162.6900  210.8740  148.9450 N   0  0  0  0  0  0  0  0  0  0  0  0
  163.3850  213.0710  148.4280 O   0  0  0  0  0  0  0  0  0  0  0  0
  160.9660  210.7300  147.4260 N   0  0  0  0  0  2  0  0  0  0  0  0
  159.4320  212.6250  145.3340 O   0  0  0  0  0  1  0  0  0  0  0  0
  160.4350  213.0980  147.4800 C   0  0  0  0  0  0  0  0  0  0  0  0
  160.3360  213.6510  148.6160 O   0  0  0  0  0  0  0  0  0  0  0  0
  159.4790  213.3920  146.4520 N   0  0  0  0  0  0  0  0  0  0  0  0
  158.4930  214.4520  146.6230 C   0  0  0  0  0  2  0  0  0  0  0  0
  156.7170  213.4900  147.8870 O   0  0  0  0  0  1  0  0  0  0  0  0
  156.2910  213.7810  145.6510 O   0  0  0  0  0  0  0  0  0  0  0  0
  157.1270  213.8720  146.7580 C   0  0  0  0  0  0  0  0  0  0  0  0
  160.8940  206.9840  151.4640 O   0  0  0  0  0  0  0  0  0  0  0  0
  161.8310  206.3490  152.2840 C   0  0  0  0  0  2  0  0  0  0  0  0
  161.3060  204.9950  152.7220 C   0  0  0  0  0  2  0  0  0  0  0  0
  161.3130  204.4100  150.3430 C   0  0  0  0  0  3  0  0  0  0  0  0
  160.7710  204.2450  151.5490 C   0  0  0  0  0  3  0  0  0  0  0  0
  160.8110  203.6440  149.1600 C   0  0  0  0  0  2  0  0  0  0  0  0
  161.6470  203.9660  147.9350 C   0  0  0  0  0  2  0  0  0  0  0  0
  161.2150  202.8520  146.5700 S   0  0  0  0  0  0  0  0  0  0  0  0
  161.5240  204.1130  145.2970 C   0  0  0  0  0  2  0  0  0  0  0  0
  162.2780  205.2830  145.9000 C   0  0  0  0  0  1  0  0  0  0  0  0
  1 35  1  1  0  0  0
  2  6  1  0  0  0  0
  3  1  1  6  0  0  0
  3  7  1  0  0  0  0
  4  5  1  1  0  0  0
  6 11  1  6  0  0  0
  6  4  1  0  0  0  0
  7  8  1  6  0  0  0
  7 10  1  0  0  0  0
  8  2  2  0  0  0  0
  9  3  1  0  0  0  0
  9  7  1  0  0  0  0
 10  4  1  0  0  0  0
 12 13  1  1  0  0  0
 12 17  1  0  0  0  0
 14 17  1  0  0  0  0
 15 11  1  6  0  0  0
 15 14  1  0  0  0  0
 16 15  1  0  0  0  0
 16 12  1  0  0  0  0
 19 18  1  6  0  0  0
 19  1  1  0  0  0  0
 20 19  1  0  0  0  0
 21 20  1  0  0  0  0
 21 24  2  0  0  0  0
 22 25  2  0  0  0  0
 22 24  1  0  0  0  0
 23 26  1  0  0  0  0
 23 28  1  1  0  0  0
 23 22  1  0  0  0  0
 26 21  1  0  0  0  0
 27 30  1  0  0  0  0
 28 29  2  0  0  0  0
 30 31  1  0  0  0  0
 30 28  1  0  0  0  0
 31 34  1  0  0  0  0
 33 34  2  0  0  0  0
 34 32  1  0  0  0  0
 35 36  1  0  0  0  0
 36 37  1  0  0  0  0
 38 39  2  0  0  0  0
 39 37  1  0  0  0  0
 40 38  1  0  0  0  0
 41 40  1  0  0  0  0
 42 41  1  0  0  0  0
 43 44  1  0  0  0  0
 43 42  1  0  0  0  0
M  END
>  <MODEL>
7

>  <REMARK>
 VINA RESULT:      -4.9      1.782      2.310
  Name = 
  17 active torsions:
  status: ('A' for Active; 'I' for Inactive)
    1  A    between atoms: C_1  and  C_29
    2  A    between atoms: C_1  and  O_31
    3  A    between atoms: C_2  and  C_24
    4  A    between atoms: C_4  and  C_5
    5  A    between atoms: C_4  and  O_31
    6  A    between atoms: C_4  and  C_35
    7  A    between atoms: C_6  and  C_26
    8  A    between atoms: N_8  and  C_18
    9  A    between atoms: N_8  and  C_22
   10  A    between atoms: C_12  and  N_37
   11  A    between atoms: C_12  and  C_38
   12  A    between atoms: C_16  and  C_17
   13  A    between atoms: C_19  and  C_29
   14  A    between atoms: C_24  and  C_43
   15  A    between atoms: C_26  and  C_35
   16  A    between atoms: C_27  and  S_44
   17  A    between atoms: C_43  and  S_44
                            x       y       z     vdW  Elec       q    Type
                         _______ _______ _______ _____ _____    ______ ____

>  <TORSDO>
F 17

$$$$
=
 OpenBabel11052411093D

 44 47  0  0  1  0  0  0  0  0999 V2000
  161.6950  209.4110  150.1960 C   0  0  1  0  0  3  0  0  0  0  0  0
  160.1840  205.9680  148.3010 C   0  0  0  0  0  3  0  0  0  0  0  0
  162.6820  208.7080  149.2630 C   0  0  2  0  0  3  0  0  0  0  0  0
  162.3610  205.5200  147.1080 C   0  0  2  0  0  3  0  0  0  0  0  0
  163.0810  204.9680  145.5770 Cl  0  0  0  0  0  0  0  0  0  0  0  0
  160.8300  205.4000  147.0590 C   0  0  1  0  0  3  0  0  0  0  0  0
  162.1060  207.4870  148.6360 C   0  0  2  0  0  0  0  0  0  0  0  0
  160.7490  206.9530  149.0090 C   0  0  0  0  0  3  0  0  0  0  0  0
  162.9750  207.4090  149.7350 O   0  0  0  0  0  0  0  0  0  0  0  0
  162.7700  206.9700  147.3620 C   0  0  0  0  0  2  0  0  0  0  0  0
  160.4430  204.0010  146.8910 N   0  0  0  0  0  2  0  0  0  0  0  0
  160.6950  201.4760  149.5430 C   0  0  1  0  0  3  0  0  0  0  0  0
  161.2210  200.9840  150.8820 C   0  0  0  0  0  1  0  0  0  0  0  0
  161.2240  201.7370  147.3030 C   0  0  0  0  0  2  0  0  0  0  0  0
  161.3210  203.1900  147.7260 C   0  0  2  0  0  3  0  0  0  0  0  0
  160.8020  203.2880  149.4660 S   0  0  0  0  0  0  0  0  0  0  0  0
  161.4880  200.9060  148.4640 N   0  0  0  0  0  2  0  0  0  0  0  0
  162.7090  210.1690  152.2470 O   0  0  0  0  0  1  0  0  0  0  0  0
  162.0230  209.1050  151.6540 C   0  0  1  0  0  3  0  0  0  0  0  0
  160.7550  208.8050  152.4340 C   0  0  0  0  0  2  0  0  0  0  0  0
  160.7030  209.6550  153.6630 C   0  0  0  0  0  0  0  0  0  0  0  0
  161.0370  210.3580  155.6810 C   0  0  0  0  0  0  0  0  0  0  0  0
  160.3690  211.5130  155.0110 C   0  0  1  0  0  3  0  0  0  0  0  0
  161.2150  209.2680  154.7870 N   0  0  0  0  0  0  0  0  0  0  0  0
  161.4400  210.3450  156.8770 O   0  0  0  0  0  0  0  0  0  0  0  0
  160.1650  210.9820  153.6660 N   0  0  0  0  0  2  0  0  0  0  0  0
  158.8650  213.8010  154.1940 O   0  0  0  0  0  1  0  0  0  0  0  0
  159.0460  211.8680  155.6300 C   0  0  0  0  0  0  0  0  0  0  0  0
  158.4820  211.0730  156.4400 O   0  0  0  0  0  0  0  0  0  0  0  0
  158.3870  213.0810  155.2390 N   0  0  0  0  0  0  0  0  0  0  0  0
  157.1560  213.5110  155.8890 C   0  0  0  0  0  2  0  0  0  0  0  0
  155.8750  212.3060  154.2820 O   0  0  0  0  0  0  0  0  0  0  0  0
  155.0390  214.3600  154.8680 O   0  0  0  0  0  1  0  0  0  0  0  0
  155.9990  213.3600  154.9610 C   0  0  0  0  0  0  0  0  0  0  0  0
  161.7320  210.7910  149.9640 O   0  0  0  0  0  0  0  0  0  0  0  0
  162.2630  210.9330  148.6770 C   0  0  0  0  0  2  0  0  0  0  0  0
  162.3790  212.4030  148.3220 C   0  0  0  0  0  2  0  0  0  0  0  0
  162.4010  213.4720  146.1180 C   0  0  0  0  0  3  0  0  0  0  0  0
  161.7890  212.6570  146.9760 C   0  0  0  0  0  3  0  0  0  0  0  0
  161.8400  213.7170  144.7530 C   0  0  0  0  0  2  0  0  0  0  0  0
  162.6360  212.9460  143.7150 C   0  0  0  0  0  2  0  0  0  0  0  0
  161.5360  212.3280  142.4130 S   0  0  0  0  0  0  0  0  0  0  0  0
  162.6460  212.8520  141.0720 C   0  0  0  0  0  2  0  0  0  0  0  0
  163.0390  214.3050  141.2630 C   0  0  0  0  0  1  0  0  0  0  0  0
  1 35  1  1  0  0  0
  1 19  1  0  0  0  0
  2  8  2  0  0  0  0
  3  9  1  0  0  0  0
  3  1  1  1  0  0  0
  4  5  1  6  0  0  0
  4 10  1  0  0  0  0
  6 11  1  1  0  0  0
  6  4  1  0  0  0  0
  6  2  1  0  0  0  0
  7 10  1  6  0  0  0
  7  8  1  0  0  0  0
  7  3  1  0  0  0  0
  7  9  1  0  0  0  0
 12 13  1  1  0  0  0
 14 15  1  0  0  0  0
 14 17  1  0  0  0  0
 15 11  1  6  0  0  0
 15 16  1  0  0  0  0
 16 12  1  0  0  0  0
 17 12  1  0  0  0  0
 19 18  1  1  0  0  0
 19 20  1  0  0  0  0
 20 21  1  0  0  0  0
 21 26  1  0  0  0  0
 21 24  2  0  0  0  0
 22 25  2  0  0  0  0
 23 28  1  1  0  0  0
 23 22  1  0  0  0  0
 24 22  1  0  0  0  0
 26 23  1  0  0  0  0
 27 30  1  0  0  0  0
 28 29  2  0  0  0  0
 30 28  1  0  0  0  0
 30 31  1  0  0  0  0
 32 34  2  0  0  0  0
 33 34  1  0  0  0  0
 34 31  1  0  0  0  0
 36 35  1  0  0  0  0
 37 36  1  0  0  0  0
 38 39  2  0  0  0  0
 39 37  1  0  0  0  0
 40 38  1  0  0  0  0
 41 40  1  0  0  0  0
 42 41  1  0  0  0  0
 43 44  1  0  0  0  0
 43 42  1  0  0  0  0
M  END
>  <MODEL>
8

>  <REMARK>
 VINA RESULT:      -4.9      4.092      9.633
  Name = 
  17 active torsions:
  status: ('A' for Active; 'I' for Inactive)
    1  A    between atoms: C_1  and  C_29
    2  A    between atoms: C_1  and  O_31
    3  A    between atoms: C_2  and  C_24
    4  A    between atoms: C_4  and  C_5
    5  A    between atoms: C_4  and  O_31
    6  A    between atoms: C_4  and  C_35
    7  A    between atoms: C_6  and  C_26
    8  A    between atoms: N_8  and  C_18
    9  A    between atoms: N_8  and  C_22
   10  A    between atoms: C_12  and  N_37
   11  A    between atoms: C_12  and  C_38
   12  A    between atoms: C_16  and  C_17
   13  A    between atoms: C_19  and  C_29
   14  A    between atoms: C_24  and  C_43
   15  A    between atoms: C_26  and  C_35
   16  A    between atoms: C_27  and  S_44
   17  A    between atoms: C_43  and  S_44
                            x       y       z     vdW  Elec       q    Type
                         _______ _______ _______ _____ _____    ______ ____

>  <TORSDO>
F 17

$$$$
=
 OpenBabel11052411093D

 44 47  0  0  1  0  0  0  0  0999 V2000
  162.1480  208.0980  150.1930 C   0  0  1  0  0  3  0  0  0  0  0  0
  162.4260  211.6090  147.8870 C   0  0  0  0  0  3  0  0  0  0  0  0
  161.5890  209.3530  150.8660 C   0  0  2  0  0  3  0  0  0  0  0  0
  161.3800  213.0260  149.6930 C   0  0  2  0  0  3  0  0  0  0  0  0
  160.2630  214.3760  150.0040 Cl  0  0  0  0  0  0  0  0  0  0  0  0
  161.5730  212.8210  148.1820 C   0  0  1  0  0  3  0  0  0  0  0  0
  161.7300  210.5680  150.0180 C   0  0  2  0  0  0  0  0  0  0  0  0
  162.4730  210.5550  148.7090 C   0  0  0  0  0  3  0  0  0  0  0  0
  162.6120  210.3040  151.0770 O   0  0  0  0  0  0  0  0  0  0  0  0
  160.8230  211.7550  150.3320 C   0  0  0  0  0  2  0  0  0  0  0  0
  162.1760  214.0120  147.5890 N   0  0  0  0  0  2  0  0  0  0  0  0
  160.9430  212.8740  144.3240 C   0  0  1  0  0  3  0  0  0  0  0  0
  160.7910  213.0280  142.8200 C   0  0  0  0  0  1  0  0  0  0  0  0
  160.1180  213.5730  146.3730 C   0  0  0  0  0  2  0  0  0  0  0  0
  161.4240  214.3420  146.3840 C   0  0  2  0  0  3  0  0  0  0  0  0
  162.3610  213.8510  144.9040 S   0  0  0  0  0  0  0  0  0  0  0  0
  159.7370  213.3420  144.9910 N   0  0  0  0  0  2  0  0  0  0  0  0
  163.0480  206.8960  152.0780 O   0  0  0  0  0  1  0  0  0  0  0  0
  162.0290  206.8930  151.1200 C   0  0  1  0  0  3  0  0  0  0  0  0
  160.6740  206.8770  151.8040 C   0  0  0  0  0  2  0  0  0  0  0  0
  160.8260  207.2630  153.2400 C   0  0  0  0  0  0  0  0  0  0  0  0
  160.9070  207.1330  155.3980 C   0  0  0  0  0  0  0  0  0  0  0  0
  161.4130  208.5070  155.1090 C   0  0  1  0  0  3  0  0  0  0  0  0
  160.5810  206.4350  154.2040 N   0  0  0  0  0  0  0  0  0  0  0  0
  160.8130  206.6210  156.5470 O   0  0  0  0  0  0  0  0  0  0  0  0
  161.3310  208.5400  153.6510 N   0  0  0  0  0  2  0  0  0  0  0  0
  162.4470  211.0780  155.8050 O   0  0  0  0  0  1  0  0  0  0  0  0
  160.5500  209.5890  155.6970 C   0  0  0  0  0  0  0  0  0  0  0  0
  159.2930  209.4400  155.7660 O   0  0  0  0  0  0  0  0  0  0  0  0
  161.1510  210.8240  156.1090 N   0  0  0  0  0  0  0  0  0  0  0  0
  160.3670  211.8560  156.7770 C   0  0  0  0  0  2  0  0  0  0  0  0
  159.7980  212.5700  154.5750 O   0  0  0  0  0  0  0  0  0  0  0  0
  159.5710  214.1570  156.2160 O   0  0  0  0  0  1  0  0  0  0  0  0
  159.9090  212.8780  155.7930 C   0  0  0  0  0  0  0  0  0  0  0  0
  161.4630  207.8650  148.9940 O   0  0  0  0  0  0  0  0  0  0  0  0
  162.0590  206.7230  148.4480 C   0  0  0  0  0  2  0  0  0  0  0  0
  161.6900  206.5950  146.9830 C   0  0  0  0  0  2  0  0  0  0  0  0
  161.4910  204.2280  147.5810 C   0  0  0  0  0  3  0  0  0  0  0  0
  161.4320  205.1680  146.6380 C   0  0  0  0  0  3  0  0  0  0  0  0
  161.2060  202.7940  147.2610 C   0  0  0  0  0  2  0  0  0  0  0  0
  161.3710  201.9380  148.5030 C   0  0  0  0  0  2  0  0  0  0  0  0
  160.1670  202.4290  149.7680 S   0  0  0  0  0  0  0  0  0  0  0  0
  161.4440  202.7090  151.0320 C   0  0  0  0  0  2  0  0  0  0  0  0
  160.8310  203.3780  152.2480 C   0  0  0  0  0  1  0  0  0  0  0  0
  1 35  1  6  0  0  0
  1 19  1  0  0  0  0
  2  6  1  0  0  0  0
  2  8  2  0  0  0  0
  3  1  1  6  0  0  0
  3  9  1  0  0  0  0
  4  5  1  6  0  0  0
  4 10  1  0  0  0  0
  6 11  1  1  0  0  0
  6  4  1  0  0  0  0
  7  8  1  6  0  0  0
  7 10  1  0  0  0  0
  7  3  1  0  0  0  0
  7  9  1  0  0  0  0
 12 13  1  6  0  0  0
 12 16  1  0  0  0  0
 12 17  1  0  0  0  0
 14 15  1  0  0  0  0
 15 11  1  1  0  0  0
 16 15  1  0  0  0  0
 17 14  1  0  0  0  0
 19 20  1  0  0  0  0
 19 18  1  1  0  0  0
 20 21  1  0  0  0  0
 21 26  1  0  0  0  0
 21 24  2  0  0  0  0
 22 25  2  0  0  0  0
 23 22  1  0  0  0  0
 23 28  1  1  0  0  0
 24 22  1  0  0  0  0
 26 23  1  0  0  0  0
 27 30  1  0  0  0  0
 28 29  2  0  0  0  0
 28 30  1  0  0  0  0
 30 31  1  0  0  0  0
 32 34  2  0  0  0  0
 34 33  1  0  0  0  0
 34 31  1  0  0  0  0
 36 35  1  0  0  0  0
 37 36  1  0  0  0  0
 39 37  1  0  0  0  0
 39 38  2  0  0  0  0
 40 38  1  0  0  0  0
 40 41  1  0  0  0  0
 41 42  1  0  0  0  0
 42 43  1  0  0  0  0
 43 44  1  0  0  0  0
M  END
>  <MODEL>
9

>  <REMARK>
 VINA RESULT:      -4.6      3.816      8.181
  Name = 
  17 active torsions:
  status: ('A' for Active; 'I' for Inactive)
    1  A    between atoms: C_1  and  C_29
    2  A    between atoms: C_1  and  O_31
    3  A    between atoms: C_2  and  C_24
    4  A    between atoms: C_4  and  C_5
    5  A    between atoms: C_4  and  O_31
    6  A    between atoms: C_4  and  C_35
    7  A    between atoms: C_6  and  C_26
    8  A    between atoms: N_8  and  C_18
    9  A    between atoms: N_8  and  C_22
   10  A    between atoms: C_12  and  N_37
   11  A    between atoms: C_12  and  C_38
   12  A    between atoms: C_16  and  C_17
   13  A    between atoms: C_19  and  C_29
   14  A    between atoms: C_24  and  C_43
   15  A    between atoms: C_26  and  C_35
   16  A    between atoms: C_27  and  S_44
   17  A    between atoms: C_43  and  S_44
                            x       y       z     vdW  Elec       q    Type
                         _______ _______ _______ _____ _____    ______ ____

>  <TORSDO>
F 17

$$$$
