=
 OpenBabel11042421283D

 53 57  0  0  1  0  0  0  0  0999 V2000
  159.2090  213.4520  145.9840 N   0  0  0  0  0  2  0  0  0  0  0  0
  160.1410  213.7460  144.9320 C   0  0  0  0  0  0  0  0  0  0  0  0
  160.0500  213.1730  150.1400 C   0  0  0  0  0  0  0  0  0  0  0  0
  158.5220  213.3790  148.3220 O   0  0  0  0  0  0  0  0  0  0  0  0
  161.1220  212.7840  149.1380 C   0  0  2  0  0  3  0  0  0  0  0  0
  158.7950  213.4230  149.6940 C   0  0  0  0  0  0  0  0  0  0  0  0
  161.5300  213.9370  145.2100 N   0  0  0  0  0  2  0  0  0  0  0  0
  159.7190  213.8500  143.7450 O   0  0  0  0  0  0  0  0  0  0  0  0
  160.7510  213.0320  147.7430 N   0  0  0  0  0  0  0  0  0  0  0  0
  159.5330  213.2710  147.3680 C   0  0  0  0  0  0  0  0  0  0  0  0
  162.0260  209.1640  148.3850 C   0  0  0  0  0  3  0  0  0  0  0  0
  161.6810  210.5060  148.2010 C   0  0  0  0  0  3  0  0  0  0  0  0
  161.7800  210.8580  150.5940 C   0  0  0  0  0  3  0  0  0  0  0  0
  162.1210  209.5160  150.7790 C   0  0  0  0  0  3  0  0  0  0  0  0
  161.5590  211.3560  149.3070 C   0  0  0  0  0  0  0  0  0  0  0  0
  162.2580  208.6650  149.6710 C   0  0  0  0  0  0  0  0  0  0  0  0
  160.9400  205.5470  150.6760 C   0  0  2  0  0  0  0  0  0  0  0  0
  160.7950  206.3800  148.4530 O   0  0  0  0  0  0  0  0  0  0  0  0
  159.6600  205.9050  151.0730 F   0  0  0  0  0  0  0  0  0  0  0  0
  162.9180  206.8880  151.2210 N   0  0  0  0  0  0  0  0  0  0  0  0
  162.5470  207.2000  149.8410 C   0  0  1  0  0  3  0  0  0  0  0  0
  161.9260  205.9470  151.7690 C   0  0  0  0  0  3  0  0  0  0  0  0
  161.3550  206.3840  149.5390 C   0  0  0  0  0  0  0  0  0  0  0  0
  161.3840  202.3050  148.4590 C   0  0  0  0  0  2  0  0  0  0  0  0
  161.0840  203.1640  151.3310 C   0  0  0  0  0  3  0  0  0  0  0  0
  161.0160  204.0720  150.3240 C   0  0  0  0  0  0  0  0  0  0  0  0
  161.2650  201.6730  151.2100 C   0  0  0  0  0  2  0  0  0  0  0  0
  160.9760  203.7190  148.8460 C   0  0  0  0  0  2  0  0  0  0  0  0
  160.3890  201.3290  149.0130 C   0  0  0  0  0  3  0  0  0  0  0  0
  160.3360  201.0780  150.2730 N   0  0  0  0  0  0  0  0  0  0  0  0
  160.5060  213.2490  151.5910 C   0  0  2  0  0  3  0  0  0  0  0  0
  159.5510  212.5170  152.4710 C   0  0  2  0  0  3  0  0  0  0  0  0
  159.5900  213.9260  152.4180 O   0  0  0  0  0  0  0  0  0  0  0  0
  160.1060  212.1030  153.8330 C   0  0  0  0  0  2  0  0  0  0  0  0
  158.7960  212.5710  155.9370 C   0  0  0  0  0  1  0  0  0  0  0  0
  159.0610  211.5770  154.8170 C   0  0  2  0  0  3  0  0  0  0  0  0
  161.5000  211.0270  156.3070 O   0  0  0  0  0  0  0  0  0  0  0  0
  159.4940  210.2880  155.3520 N   0  0  0  0  0  2  0  0  0  0  0  0
  160.7280  210.0630  156.0480 C   0  0  0  0  0  0  0  0  0  0  0  0
  161.0650  208.7550  156.5070 N   0  0  0  0  0  2  0  0  0  0  0  0
  159.9780  207.3760  156.3070 S   0  0  0  0  0  0  0  0  0  0  0  0
  160.6380  207.0070  154.6560 C   0  0  0  0  0  1  0  0  0  0  0  0
  162.4700  214.4530  144.2210 C   0  0  0  0  0  2  0  0  0  0  0  0
  162.5650  212.2340  143.3460 O   0  0  0  0  0  0  0  0  0  0  0  0
  162.7640  213.0610  140.7220 O   0  0  0  0  0  1  0  0  0  0  0  0
  162.6190  213.4690  143.1030 C   0  0  0  0  0  0  0  0  0  0  0  0
  162.7620  213.9320  141.7600 N   0  0  0  0  0  2  0  0  0  0  0  0
  157.6590  213.7690  150.5980 C   0  0  0  0  0  2  0  0  0  0  0  0
  156.3350  213.5540  149.8800 C   0  0  0  0  0  2  0  0  0  0  0  0
  155.1820  214.0710  150.7220 C   0  0  0  0  0  2  0  0  0  0  0  0
  155.6610  214.4510  152.1110 C   0  0  0  0  0  2  0  0  0  0  0  0
  155.3690  213.5900  154.3000 O   0  0  0  0  0  1  0  0  0  0  0  0
  155.6690  213.2190  152.9900 C   0  0  0  0  0  2  0  0  0  0  0  0
  1 10  1  0  0  0  0
  2  7  1  0  0  0  0
  2  1  1  0  0  0  0
  4  6  1  0  0  0  0
  5 15  1  6  0  0  0
  5  3  1  0  0  0  0
  6  3  2  0  0  0  0
  6 48  1  0  0  0  0
  8  2  2  0  0  0  0
  9  5  1  0  0  0  0
 10  9  2  0  0  0  0
 10  4  1  0  0  0  0
 11 16  1  0  0  0  0
 12 11  2  0  0  0  0
 12 15  1  0  0  0  0
 13 14  1  0  0  0  0
 15 13  2  0  0  0  0
 16 14  2  0  0  0  0
 17 19  1  1  0  0  0
 17 22  1  0  0  0  0
 18 23  2  0  0  0  0
 20 22  2  0  0  0  0
 21 16  1  1  0  0  0
 21 20  1  0  0  0  0
 23 21  1  0  0  0  0
 23 17  1  0  0  0  0
 24 28  1  0  0  0  0
 24 29  1  0  0  0  0
 26 17  1  0  0  0  0
 26 25  2  0  0  0  0
 27 25  1  0  0  0  0
 28 26  1  0  0  0  0
 29 30  2  0  0  0  0
 30 27  1  0  0  0  0
 31  3  1  6  0  0  0
 31 33  1  0  0  0  0
 31 32  1  0  0  0  0
 32 34  1  1  0  0  0
 33 32  1  0  0  0  0
 34 36  1  0  0  0  0
 36 38  1  0  0  0  0
 36 35  1  1  0  0  0
 38 39  1  0  0  0  0
 39 37  2  0  0  0  0
 39 40  1  0  0  0  0
 41 40  1  0  0  0  0
 42 41  1  0  0  0  0
 43  7  1  0  0  0  0
 45 47  1  0  0  0  0
 46 44  2  0  0  0  0
 46 43  1  0  0  0  0
 47 46  1  0  0  0  0
 49 48  1  0  0  0  0
 49 50  1  0  0  0  0
 50 51  1  0  0  0  0
 51 53  1  0  0  0  0
 53 52  1  0  0  0  0
M  END
>  <MODEL>
1

>  <REMARK>
 VINA RESULT:      -6.2      0.000      0.000
  Name = 
  15 active torsions:
  status: ('A' for Active; 'I' for Inactive)
    1  A    between atoms: C_2  and  C_7
    2  A    between atoms: C_5  and  C_33
    3  A    between atoms: C_5  and  N_44
    4  A    between atoms: C_8  and  C_39
    5  A    between atoms: C_8  and  C_48
    6  A    between atoms: C_9  and  C_16
    7  A    between atoms: C_9  and  C_52
    8  A    between atoms: C_11  and  C_21
    9  A    between atoms: S_14  and  N_28
   10  A    between atoms: N_18  and  C_52
   11  A    between atoms: C_29  and  C_35
   12  A    between atoms: C_29  and  C_48
   13  A    between atoms: C_37  and  C_46
   14  A    between atoms: C_38  and  C_51
   15  A    between atoms: C_39  and  C_43
                            x       y       z     vdW  Elec       q    Type
                         _______ _______ _______ _____ _____    ______ ____

>  <TORSDO>
F 15

$$$$
=
 OpenBabel11042421283D

 53 57  0  0  1  0  0  0  0  0999 V2000
  158.7330  213.6080  144.7560 N   0  0  0  0  0  2  0  0  0  0  0  0
  159.6260  213.8010  143.6480 C   0  0  0  0  0  0  0  0  0  0  0  0
  159.7170  213.7670  148.8880 C   0  0  0  0  0  0  0  0  0  0  0  0
  158.1260  213.7700  147.1120 O   0  0  0  0  0  0  0  0  0  0  0  0
  160.7590  213.2860  147.8940 C   0  0  2  0  0  3  0  0  0  0  0  0
  158.4440  213.9580  148.4620 C   0  0  0  0  0  0  0  0  0  0  0  0
  161.0200  214.0330  143.8570 N   0  0  0  0  0  2  0  0  0  0  0  0
  159.1620  213.7780  142.4720 O   0  0  0  0  0  0  0  0  0  0  0  0
  160.3380  213.3860  146.4950 N   0  0  0  0  0  0  0  0  0  0  0  0
  159.1060  213.5740  146.1390 C   0  0  0  0  0  0  0  0  0  0  0  0
  161.2100  209.5110  147.7190 C   0  0  0  0  0  3  0  0  0  0  0  0
  160.8240  210.8130  147.3870 C   0  0  0  0  0  3  0  0  0  0  0  0
  161.9980  211.6540  149.3300 C   0  0  0  0  0  3  0  0  0  0  0  0
  162.3810  210.3530  149.6650 C   0  0  0  0  0  3  0  0  0  0  0  0
  161.2190  211.8880  148.1930 C   0  0  0  0  0  0  0  0  0  0  0  0
  161.9980  209.2750  148.8510 C   0  0  0  0  0  0  0  0  0  0  0  0
  160.6690  206.0890  149.5930 C   0  0  2  0  0  0  0  0  0  0  0  0
  161.2350  206.7970  147.3940 O   0  0  0  0  0  0  0  0  0  0  0  0
  159.3060  206.3320  149.5020 F   0  0  0  0  0  0  0  0  0  0  0  0
  162.2220  207.6510  150.6690 N   0  0  0  0  0  0  0  0  0  0  0  0
  162.3270  207.8570  149.2250 C   0  0  1  0  0  3  0  0  0  0  0  0
  161.1810  206.6400  150.9210 C   0  0  0  0  0  3  0  0  0  0  0  0
  161.3830  206.9090  148.6020 C   0  0  0  0  0  0  0  0  0  0  0  0
  161.9400  202.7830  147.8380 C   0  0  0  0  0  2  0  0  0  0  0  0
  160.9240  203.7950  150.4880 C   0  0  0  0  0  3  0  0  0  0  0  0
  160.9810  204.6150  149.4070 C   0  0  0  0  0  0  0  0  0  0  0  0
  161.2880  202.3330  150.5500 C   0  0  0  0  0  2  0  0  0  0  0  0
  161.3050  204.1580  147.9940 C   0  0  0  0  0  2  0  0  0  0  0  0
  160.9600  201.7300  148.2600 C   0  0  0  0  0  3  0  0  0  0  0  0
  160.6580  201.5630  149.4990 N   0  0  0  0  0  0  0  0  0  0  0  0
  160.2190  213.9960  150.3060 C   0  0  2  0  0  3  0  0  0  0  0  0
  159.5290  213.0750  151.2530 C   0  0  2  0  0  3  0  0  0  0  0  0
  159.2110  214.4460  151.1790 O   0  0  0  0  0  0  0  0  0  0  0  0
  160.2460  212.8510  152.5850 C   0  0  0  0  0  2  0  0  0  0  0  0
  158.7830  210.7970  152.6140 C   0  0  0  0  0  1  0  0  0  0  0  0
  159.6830  211.7110  153.4320 C   0  0  2  0  0  3  0  0  0  0  0  0
  160.6890  211.9970  156.1480 O   0  0  0  0  0  0  0  0  0  0  0  0
  158.9680  212.2590  154.5820 N   0  0  0  0  0  2  0  0  0  0  0  0
  159.4980  212.3430  155.9120 C   0  0  0  0  0  0  0  0  0  0  0  0
  158.7020  212.8740  156.9700 N   0  0  0  0  0  2  0  0  0  0  0  0
  157.0740  213.5060  156.7000 S   0  0  0  0  0  0  0  0  0  0  0  0
  156.3090  211.9170  157.1340 C   0  0  0  0  0  1  0  0  0  0  0  0
  161.9190  214.4520  142.7870 C   0  0  0  0  0  2  0  0  0  0  0  0
  162.4410  212.1260  142.6820 O   0  0  0  0  0  0  0  0  0  0  0  0
  163.4900  212.2720  140.1350 O   0  0  0  0  0  1  0  0  0  0  0  0
  162.5040  213.2500  142.1160 C   0  0  0  0  0  0  0  0  0  0  0  0
  163.0770  213.3690  140.8140 N   0  0  0  0  0  2  0  0  0  0  0  0
  157.3340  214.3850  149.3640 C   0  0  0  0  0  2  0  0  0  0  0  0
  155.9940  213.9610  148.7820 C   0  0  0  0  0  2  0  0  0  0  0  0
  154.9020  214.0610  149.8320 C   0  0  0  0  0  2  0  0  0  0  0  0
  155.5010  214.2610  151.2110 C   0  0  0  0  0  2  0  0  0  0  0  0
  154.8740  214.1800  153.4970 O   0  0  0  0  0  1  0  0  0  0  0  0
  154.5920  213.6320  152.2460 C   0  0  0  0  0  2  0  0  0  0  0  0
  1 10  1  0  0  0  0
  2  7  1  0  0  0  0
  2  1  1  0  0  0  0
  4  6  1  0  0  0  0
  5 15  1  1  0  0  0
  5  3  1  0  0  0  0
  6  3  2  0  0  0  0
  6 48  1  0  0  0  0
  8  2  2  0  0  0  0
  9  5  1  0  0  0  0
 10  9  2  0  0  0  0
 10  4  1  0  0  0  0
 11 16  1  0  0  0  0
 12 11  2  0  0  0  0
 12 15  1  0  0  0  0
 13 14  1  0  0  0  0
 15 13  2  0  0  0  0
 16 14  2  0  0  0  0
 17 19  1  6  0  0  0
 17 22  1  0  0  0  0
 18 23  2  0  0  0  0
 20 22  2  0  0  0  0
 21 16  1  1  0  0  0
 21 20  1  0  0  0  0
 23 21  1  0  0  0  0
 23 17  1  0  0  0  0
 24 28  1  0  0  0  0
 24 29  1  0  0  0  0
 25 27  1  0  0  0  0
 26 17  1  0  0  0  0
 26 25  2  0  0  0  0
 28 26  1  0  0  0  0
 29 30  2  0  0  0  0
 30 27  1  0  0  0  0
 31  3  1  6  0  0  0
 31 33  1  0  0  0  0
 31 32  1  0  0  0  0
 32 34  1  1  0  0  0
 33 32  1  0  0  0  0
 34 36  1  0  0  0  0
 36 35  1  6  0  0  0
 36 38  1  0  0  0  0
 38 39  1  0  0  0  0
 39 37  2  0  0  0  0
 39 40  1  0  0  0  0
 41 40  1  0  0  0  0
 41 42  1  0  0  0  0
 43  7  1  0  0  0  0
 45 47  1  0  0  0  0
 46 44  2  0  0  0  0
 46 43  1  0  0  0  0
 47 46  1  0  0  0  0
 49 48  1  0  0  0  0
 49 50  1  0  0  0  0
 50 51  1  0  0  0  0
 51 53  1  0  0  0  0
 53 52  1  0  0  0  0
M  END
>  <MODEL>
2

>  <REMARK>
 VINA RESULT:      -5.3      1.706      2.026
  Name = 
  15 active torsions:
  status: ('A' for Active; 'I' for Inactive)
    1  A    between atoms: C_2  and  C_7
    2  A    between atoms: C_5  and  C_33
    3  A    between atoms: C_5  and  N_44
    4  A    between atoms: C_8  and  C_39
    5  A    between atoms: C_8  and  C_48
    6  A    between atoms: C_9  and  C_16
    7  A    between atoms: C_9  and  C_52
    8  A    between atoms: C_11  and  C_21
    9  A    between atoms: S_14  and  N_28
   10  A    between atoms: N_18  and  C_52
   11  A    between atoms: C_29  and  C_35
   12  A    between atoms: C_29  and  C_48
   13  A    between atoms: C_37  and  C_46
   14  A    between atoms: C_38  and  C_51
   15  A    between atoms: C_39  and  C_43
                            x       y       z     vdW  Elec       q    Type
                         _______ _______ _______ _____ _____    ______ ____

>  <TORSDO>
F 15

$$$$
=
 OpenBabel11042421283D

 53 57  0  0  1  0  0  0  0  0999 V2000
  160.7220  213.3360  147.6810 N   0  0  0  0  0  2  0  0  0  0  0  0
  161.5030  213.6250  146.5120 C   0  0  0  0  0  0  0  0  0  0  0  0
  161.7990  210.7900  150.9100 C   0  0  0  0  0  0  0  0  0  0  0  0
  160.4380  212.4980  149.9530 O   0  0  0  0  0  0  0  0  0  0  0  0
  162.3080  210.4760  149.5140 C   0  0  2  0  0  3  0  0  0  0  0  0
  160.8670  211.7630  151.0640 C   0  0  0  0  0  0  0  0  0  0  0  0
  162.7730  213.0030  146.3020 N   0  0  0  0  0  2  0  0  0  0  0  0
  161.0620  214.4530  145.6650 O   0  0  0  0  0  0  0  0  0  0  0  0
  161.9640  211.4870  148.5130 N   0  0  0  0  0  0  0  0  0  0  0  0
  161.0660  212.4020  148.7120 C   0  0  0  0  0  0  0  0  0  0  0  0
  161.6530  207.4480  147.3040 C   0  0  0  0  0  3  0  0  0  0  0  0
  162.1300  208.6870  147.7410 C   0  0  0  0  0  3  0  0  0  0  0  0
  161.1240  208.3070  149.9090 C   0  0  0  0  0  3  0  0  0  0  0  0
  160.6440  207.0700  149.4730 C   0  0  0  0  0  3  0  0  0  0  0  0
  161.8660  209.1190  149.0460 C   0  0  0  0  0  0  0  0  0  0  0  0
  160.9190  206.6290  148.1690 C   0  0  0  0  0  0  0  0  0  0  0  0
  161.5930  203.7180  146.2850 C   0  0  2  0  0  0  0  0  0  0  0  0
  161.9520  203.8780  148.6310 O   0  0  0  0  0  0  0  0  0  0  0  0
  162.9070  203.9390  145.9000 F   0  0  0  0  0  0  0  0  0  0  0  0
  159.8930  205.4850  146.2630 N   0  0  0  0  0  0  0  0  0  0  0  0
  160.3530  205.3400  147.6440 C   0  0  1  0  0  3  0  0  0  0  0  0
  160.6720  204.5680  145.4140 C   0  0  0  0  0  3  0  0  0  0  0  0
  161.3740  204.2750  147.6300 C   0  0  0  0  0  0  0  0  0  0  0  0
  161.2090  199.9860  147.5280 C   0  0  0  0  0  2  0  0  0  0  0  0
  160.4920  201.7780  145.2140 C   0  0  0  0  0  3  0  0  0  0  0  0
  161.2460  202.2410  146.2440 C   0  0  0  0  0  0  0  0  0  0  0  0
  159.9510  200.3820  145.0300 C   0  0  0  0  0  2  0  0  0  0  0  0
  161.8080  201.3750  147.3590 C   0  0  0  0  0  2  0  0  0  0  0  0
  161.5380  199.1510  146.3260 C   0  0  0  0  0  3  0  0  0  0  0  0
  160.9730  199.3690  145.1920 N   0  0  0  0  0  0  0  0  0  0  0  0
  162.4050  209.9590  152.0310 C   0  0  2  0  0  3  0  0  0  0  0  0
  161.3290  209.4000  152.8990 C   0  0  2  0  0  3  0  0  0  0  0  0
  162.1340  210.4820  153.3090 O   0  0  0  0  0  0  0  0  0  0  0  0
  161.7340  208.1930  153.7440 C   0  0  0  0  0  2  0  0  0  0  0  0
  160.5760  206.8530  155.5400 C   0  0  0  0  0  1  0  0  0  0  0  0
  160.5950  207.2250  154.0660 C   0  0  2  0  0  3  0  0  0  0  0  0
  162.9600  206.3020  152.6430 O   0  0  0  0  0  0  0  0  0  0  0  0
  160.7070  206.0360  153.2260 N   0  0  0  0  0  2  0  0  0  0  0  0
  161.8900  205.6450  152.5130 C   0  0  0  0  0  0  0  0  0  0  0  0
  161.8830  204.4750  151.6980 N   0  0  0  0  0  2  0  0  0  0  0  0
  160.4690  203.4230  151.5680 S   0  0  0  0  0  0  0  0  0  0  0  0
  161.4990  201.9310  151.4730 C   0  0  0  0  0  1  0  0  0  0  0  0
  163.6960  213.4270  145.2540 C   0  0  0  0  0  2  0  0  0  0  0  0
  163.1510  214.4500  143.1670 O   0  0  0  0  0  0  0  0  0  0  0  0
  161.6300  212.3210  142.2930 O   0  0  0  0  0  1  0  0  0  0  0  0
  162.9850  213.4660  143.9380 C   0  0  0  0  0  0  0  0  0  0  0  0
  162.1720  212.3650  143.5340 N   0  0  0  0  0  2  0  0  0  0  0  0
  160.2680  212.1200  152.3830 C   0  0  0  0  0  2  0  0  0  0  0  0
  158.7720  212.3460  152.2340 C   0  0  0  0  0  2  0  0  0  0  0  0
  158.0150  211.6660  153.3620 C   0  0  0  0  0  2  0  0  0  0  0  0
  157.3720  212.6950  154.2730 C   0  0  0  0  0  2  0  0  0  0  0  0
  158.3060  211.7990  156.2590 O   0  0  0  0  0  1  0  0  0  0  0  0
  158.2750  212.9420  155.4620 C   0  0  0  0  0  2  0  0  0  0  0  0
  1 10  1  0  0  0  0
  2  1  1  0  0  0  0
  3  6  2  0  0  0  0
  4  6  1  0  0  0  0
  5 15  1  6  0  0  0
  5  3  1  0  0  0  0
  6 48  1  0  0  0  0
  7  2  1  0  0  0  0
  8  2  2  0  0  0  0
  9 10  2  0  0  0  0
  9  5  1  0  0  0  0
 10  4  1  0  0  0  0
 11 12  2  0  0  0  0
 11 16  1  0  0  0  0
 12 15  1  0  0  0  0
 14 13  1  0  0  0  0
 15 13  2  0  0  0  0
 16 14  2  0  0  0  0
 17 19  1  6  0  0  0
 17 23  1  0  0  0  0
 20 21  1  0  0  0  0
 21 16  1  6  0  0  0
 22 20  2  0  0  0  0
 22 17  1  0  0  0  0
 23 21  1  0  0  0  0
 23 18  2  0  0  0  0
 25 26  2  0  0  0  0
 26 17  1  0  0  0  0
 26 28  1  0  0  0  0
 27 30  1  0  0  0  0
 27 25  1  0  0  0  0
 28 24  1  0  0  0  0
 29 24  1  0  0  0  0
 30 29  2  0  0  0  0
 31  3  1  6  0  0  0
 31 32  1  0  0  0  0
 31 33  1  0  0  0  0
 32 33  1  0  0  0  0
 32 34  1  1  0  0  0
 34 36  1  0  0  0  0
 36 35  1  1  0  0  0
 38 36  1  0  0  0  0
 39 37  2  0  0  0  0
 39 38  1  0  0  0  0
 40 39  1  0  0  0  0
 41 40  1  0  0  0  0
 42 41  1  0  0  0  0
 43  7  1  0  0  0  0
 44 46  2  0  0  0  0
 45 47  1  0  0  0  0
 46 43  1  0  0  0  0
 47 46  1  0  0  0  0
 49 48  1  0  0  0  0
 49 50  1  0  0  0  0
 50 51  1  0  0  0  0
 51 53  1  0  0  0  0
 53 52  1  0  0  0  0
M  END
>  <MODEL>
3

>  <REMARK>
 VINA RESULT:      -3.9      2.641      4.054
  Name = 
  15 active torsions:
  status: ('A' for Active; 'I' for Inactive)
    1  A    between atoms: C_2  and  C_7
    2  A    between atoms: C_5  and  C_33
    3  A    between atoms: C_5  and  N_44
    4  A    between atoms: C_8  and  C_39
    5  A    between atoms: C_8  and  C_48
    6  A    between atoms: C_9  and  C_16
    7  A    between atoms: C_9  and  C_52
    8  A    between atoms: C_11  and  C_21
    9  A    between atoms: S_14  and  N_28
   10  A    between atoms: N_18  and  C_52
   11  A    between atoms: C_29  and  C_35
   12  A    between atoms: C_29  and  C_48
   13  A    between atoms: C_37  and  C_46
   14  A    between atoms: C_38  and  C_51
   15  A    between atoms: C_39  and  C_43
                            x       y       z     vdW  Elec       q    Type
                         _______ _______ _______ _____ _____    ______ ____

>  <TORSDO>
F 15

$$$$
