=
 OpenBabel11052409293D

 35 39  0  0  1  0  0  0  0  0999 V2000
  161.0580  208.8810  152.0090 S   0  0  0  0  0  0  0  0  0  0  0  0
  161.7080  202.3470  147.8820 O   0  0  0  0  0  0  0  0  0  0  0  0
  160.9140  206.3270  151.0720 N   0  0  0  0  0  0  0  0  0  0  0  0
  161.6450  208.0950  147.6230 C   0  0  0  0  0  3  0  0  0  0  0  0
  162.0300  208.8960  148.8080 C   0  0  0  0  0  0  0  0  0  0  0  0
  162.6630  208.2630  149.9280 N   0  0  0  0  0  2  0  0  0  0  0  0
  160.9380  204.3520  152.3850 C   0  0  0  0  0  2  0  0  0  0  0  0
  161.4030  204.5440  148.7140 C   0  0  0  0  0  0  0  0  0  0  0  0
  161.0360  206.4760  153.4420 C   0  0  0  0  0  0  0  0  0  0  0  0
  161.4410  203.5520  147.6280 C   0  0  0  0  0  0  0  0  0  0  0  0
  162.1550  205.8380  148.5400 C   0  0  0  0  0  2  0  0  0  0  0  0
  160.9950  205.1160  153.5080 N   0  0  0  0  0  0  0  0  0  0  0  0
  160.9410  204.1530  149.9130 C   0  0  0  0  0  3  0  0  0  0  0  0
  160.4680  205.1620  145.9680 C   0  0  0  0  0  2  0  0  0  0  0  0
  162.7260  208.8480  151.2660 C   0  0  0  0  0  2  0  0  0  0  0  0
  161.6530  206.7660  147.4600 C   0  0  0  0  0  0  0  0  0  0  0  0
  161.1780  203.9360  146.2820 N   0  0  0  0  0  2  0  0  0  0  0  0
  160.9180  204.9720  151.1350 C   0  0  0  0  0  0  0  0  0  0  0  0
  160.9850  207.0980  152.1870 C   0  0  1  0  0  3  0  0  0  0  0  0
  161.8180  210.2240  148.8530 C   0  0  0  0  0  3  0  0  0  0  0  0
  161.2880  206.3000  146.1930 O   0  0  0  0  0  0  0  0  0  0  0  0
  161.2170  211.0340  147.8750 O   0  0  0  0  0  0  0  0  0  0  0  0
  161.3300  212.4460  147.7900 C   0  0  0  0  0  1  0  0  0  0  0  0
  161.1170  207.2600  154.6380 N   0  0  0  0  0  2  0  0  0  0  0  0
  160.0850  207.2450  155.6640 C   0  0  0  0  0  2  0  0  0  0  0  0
  159.9380  208.6260  156.2720 C   0  0  0  0  0  2  0  0  0  0  0  0
  159.7180  209.5990  155.2180 N   0  0  0  0  0  2  0  0  0  0  0  0
  159.3630  213.3370  155.2570 C   0  0  0  0  0  2  0  0  0  0  0  0
  159.3380  210.8440  155.8640 C   0  0  1  0  0  3  0  0  0  0  0  0
  156.1980  212.4650  154.6180 C   0  0  0  0  0  1  0  0  0  0  0  0
  159.5670  212.5780  153.9550 C   0  0  1  0  0  3  0  0  0  0  0  0
  157.2620  211.3960  154.4660 C   0  0  2  0  0  3  0  0  0  0  0  0
  160.1350  212.0210  155.2620 C   0  0  1  0  0  3  0  0  0  0  0  0
  157.8160  211.0160  155.8400 C   0  0  0  0  0  2  0  0  0  0  0  0
  158.3160  211.8350  153.4360 C   0  0  0  0  0  2  0  0  0  0  0  0
  1 19  1  0  0  0  0
  3 18  2  0  0  0  0
  4  5  1  0  0  0  0
  5 20  2  0  0  0  0
  5  6  1  0  0  0  0
  6 15  1  0  0  0  0
  7 12  1  0  0  0  0
  8 13  2  0  0  0  0
  9 12  2  0  0  0  0
  9 24  1  0  0  0  0
 10  2  2  0  0  0  0
 10  8  1  0  0  0  0
 11  8  1  0  0  0  0
 13 18  1  0  0  0  0
 14 21  1  0  0  0  0
 14 17  1  0  0  0  0
 15  1  1  0  0  0  0
 16  4  2  0  0  0  0
 16 11  1  0  0  0  0
 17 10  1  0  0  0  0
 18  7  1  0  0  0  0
 19  3  1  6  0  0  0
 19  9  1  0  0  0  0
 21 16  1  0  0  0  0
 22 20  1  0  0  0  0
 23 22  1  0  0  0  0
 24 25  1  0  0  0  0
 25 26  1  0  0  0  0
 27 26  1  0  0  0  0
 29 27  1  6  0  0  0
 31 35  1  1  0  0  0
 31 28  1  0  0  0  0
 31 33  1  0  0  0  0
 32 30  1  1  0  0  0
 32 34  1  0  0  0  0
 33 28  1  1  0  0  0
 33 29  1  0  0  0  0
 34 29  1  0  0  0  0
 35 32  1  0  0  0  0
M  END
>  <MODEL>
1

>  <REMARK>
 VINA RESULT:      -7.4      0.000      0.000
  Name = 
  6 active torsions:
  status: ('A' for Active; 'I' for Inactive)
    1  A    between atoms: O_1  and  C_33
    2  A    between atoms: C_8  and  N_27
    3  A    between atoms: C_13  and  C_16
    4  A    between atoms: C_13  and  N_31
    5  A    between atoms: C_15  and  N_31
    6  A    between atoms: C_16  and  N_27
                            x       y       z     vdW  Elec       q    Type
                         _______ _______ _______ _____ _____    ______ ____

>  <TORSDO>
F 6

$$$$
=
 OpenBabel11052409293D

 35 39  0  0  1  0  0  0  0  0999 V2000
  161.2470  207.7350  151.6830 S   0  0  0  0  0  0  0  0  0  0  0  0
  161.4710  201.8820  146.6000 O   0  0  0  0  0  0  0  0  0  0  0  0
  160.9530  205.3620  150.3760 N   0  0  0  0  0  0  0  0  0  0  0  0
  161.6870  207.5990  147.2120 C   0  0  0  0  0  3  0  0  0  0  0  0
  162.1410  208.1920  148.4910 C   0  0  0  0  0  0  0  0  0  0  0  0
  162.7680  207.3680  149.4830 N   0  0  0  0  0  2  0  0  0  0  0  0
  160.9110  203.2120  151.3760 C   0  0  0  0  0  2  0  0  0  0  0  0
  161.2960  203.9380  147.7630 C   0  0  0  0  0  0  0  0  0  0  0  0
  161.1410  205.1440  152.7370 C   0  0  0  0  0  0  0  0  0  0  0  0
  161.2580  203.1220  146.5390 C   0  0  0  0  0  0  0  0  0  0  0  0
  162.1060  205.2080  147.7620 C   0  0  0  0  0  2  0  0  0  0  0  0
  161.0330  203.7930  152.5990 N   0  0  0  0  0  0  0  0  0  0  0  0
  160.8440  203.3910  148.9030 C   0  0  0  0  0  3  0  0  0  0  0  0
  160.3260  205.0080  145.1730 C   0  0  0  0  0  2  0  0  0  0  0  0
  162.8930  207.7390  150.8910 C   0  0  0  0  0  2  0  0  0  0  0  0
  161.6250  206.3110  146.8500 C   0  0  0  0  0  0  0  0  0  0  0  0
  160.9820  203.7170  145.2760 N   0  0  0  0  0  2  0  0  0  0  0  0
  160.8920  204.0150  150.2340 C   0  0  0  0  0  0  0  0  0  0  0  0
  161.0900  205.9510  151.5930 C   0  0  1  0  0  3  0  0  0  0  0  0
  161.9960  209.5060  148.7420 C   0  0  0  0  0  3  0  0  0  0  0  0
  161.2070  206.0600  145.5400 O   0  0  0  0  0  0  0  0  0  0  0  0
  161.4120  210.4820  147.9170 O   0  0  0  0  0  0  0  0  0  0  0  0
  161.6370  211.8800  148.0060 C   0  0  0  0  0  1  0  0  0  0  0  0
  161.2900  205.7330  154.0340 N   0  0  0  0  0  2  0  0  0  0  0  0
  160.2990  206.6270  154.6140 C   0  0  0  0  0  2  0  0  0  0  0  0
  160.9880  207.7130  155.4170 C   0  0  0  0  0  2  0  0  0  0  0  0
  160.0850  208.8370  155.5850 N   0  0  0  0  0  2  0  0  0  0  0  0
  160.0250  211.9960  153.5550 C   0  0  0  0  0  2  0  0  0  0  0  0
  160.7360  209.9950  154.9950 C   0  0  1  0  0  3  0  0  0  0  0  0
  160.0570  213.2930  156.6380 C   0  0  0  0  0  1  0  0  0  0  0  0
  158.7430  211.3850  154.1010 C   0  0  1  0  0  3  0  0  0  0  0  0
  159.7470  211.8150  156.5040 C   0  0  2  0  0  3  0  0  0  0  0  0
  159.9380  210.4880  153.7690 C   0  0  1  0  0  3  0  0  0  0  0  0
  161.0020  211.0600  156.0630 C   0  0  0  0  0  2  0  0  0  0  0  0
  158.5130  211.6060  155.6120 C   0  0  0  0  0  2  0  0  0  0  0  0
  4  5  1  0  0  0  0
  5 20  2  0  0  0  0
  5  6  1  0  0  0  0
  6 15  1  0  0  0  0
  7 12  1  0  0  0  0
  8 13  2  0  0  0  0
  9 24  1  0  0  0  0
 10  2  2  0  0  0  0
 10  8  1  0  0  0  0
 11  8  1  0  0  0  0
 12  9  2  0  0  0  0
 13 18  1  0  0  0  0
 14 17  1  0  0  0  0
 14 21  1  0  0  0  0
 15  1  1  0  0  0  0
 16  4  2  0  0  0  0
 16 11  1  0  0  0  0
 17 10  1  0  0  0  0
 18  3  2  0  0  0  0
 18  7  1  0  0  0  0
 19  3  1  6  0  0  0
 19  1  1  0  0  0  0
 19  9  1  0  0  0  0
 21 16  1  0  0  0  0
 22 23  1  0  0  0  0
 22 20  1  0  0  0  0
 24 25  1  0  0  0  0
 25 26  1  0  0  0  0
 26 27  1  0  0  0  0
 29 27  1  1  0  0  0
 29 34  1  0  0  0  0
 31 28  1  6  0  0  0
 31 35  1  0  0  0  0
 32 30  1  6  0  0  0
 33 28  1  6  0  0  0
 33 31  1  0  0  0  0
 33 29  1  0  0  0  0
 34 32  1  0  0  0  0
 35 32  1  0  0  0  0
M  END
>  <MODEL>
2

>  <REMARK>
 VINA RESULT:      -7.4      1.144      1.661
  Name = 
  6 active torsions:
  status: ('A' for Active; 'I' for Inactive)
    1  A    between atoms: O_1  and  C_33
    2  A    between atoms: C_8  and  N_27
    3  A    between atoms: C_13  and  C_16
    4  A    between atoms: C_13  and  N_31
    5  A    between atoms: C_15  and  N_31
    6  A    between atoms: C_16  and  N_27
                            x       y       z     vdW  Elec       q    Type
                         _______ _______ _______ _____ _____    ______ ____

>  <TORSDO>
F 6

$$$$
=
 OpenBabel11052409293D

 35 39  0  0  1  0  0  0  0  0999 V2000
  161.0100  210.7890  152.7970 S   0  0  0  0  0  0  0  0  0  0  0  0
  161.7200  203.1230  151.8540 O   0  0  0  0  0  0  0  0  0  0  0  0
  160.8570  208.0770  153.0190 N   0  0  0  0  0  0  0  0  0  0  0  0
  161.7900  208.2230  149.1900 C   0  0  0  0  0  3  0  0  0  0  0  0
  162.1350  209.4500  149.9440 C   0  0  0  0  0  0  0  0  0  0  0  0
  162.6990  209.3500  151.2590 N   0  0  0  0  0  2  0  0  0  0  0  0
  160.7770  206.8430  155.0430 C   0  0  0  0  0  2  0  0  0  0  0  0
  161.4220  205.4650  151.6640 C   0  0  0  0  0  0  0  0  0  0  0  0
  160.8690  209.2150  155.1070 C   0  0  0  0  0  0  0  0  0  0  0  0
  161.4910  204.1070  151.1020 C   0  0  0  0  0  0  0  0  0  0  0  0
  162.2080  206.5650  150.9990 C   0  0  0  0  0  2  0  0  0  0  0  0
  160.7960  208.0100  155.7400 N   0  0  0  0  0  0  0  0  0  0  0  0
  160.8940  205.6180  152.8890 C   0  0  0  0  0  3  0  0  0  0  0  0
  160.6330  204.8640  148.8690 C   0  0  0  0  0  2  0  0  0  0  0  0
  162.7110  210.4460  152.2250 C   0  0  0  0  0  2  0  0  0  0  0  0
  161.7790  206.9490  149.6040 C   0  0  0  0  0  0  0  0  0  0  0  0
  161.3010  203.8860  149.7080 N   0  0  0  0  0  2  0  0  0  0  0  0
  160.8300  206.8760  153.6480 C   0  0  0  0  0  0  0  0  0  0  0  0
  160.8910  209.2480  153.7070 C   0  0  1  0  0  3  0  0  0  0  0  0
  161.9490  210.6720  149.4130 C   0  0  0  0  0  3  0  0  0  0  0  0
  161.4650  205.9900  148.6350 O   0  0  0  0  0  0  0  0  0  0  0  0
  161.4130  210.9910  148.1540 O   0  0  0  0  0  0  0  0  0  0  0  0
  161.1260  212.3010  147.6880 C   0  0  0  0  0  1  0  0  0  0  0  0
  160.9090  210.4310  155.8630 N   0  0  0  0  0  2  0  0  0  0  0  0
  160.1550  210.6220  157.0930 C   0  0  0  0  0  2  0  0  0  0  0  0
  159.7960  212.0850  157.2600 C   0  0  0  0  0  2  0  0  0  0  0  0
  159.6550  212.7010  155.9530 N   0  0  0  0  0  2  0  0  0  0  0  0
  156.6680  213.9630  154.0590 C   0  0  0  0  0  2  0  0  0  0  0  0
  158.3210  213.2740  155.8970 C   0  0  1  0  0  3  0  0  0  0  0  0
  155.5540  210.9350  154.9420 C   0  0  0  0  0  1  0  0  0  0  0  0
  157.7220  213.0970  153.3850 C   0  0  1  0  0  3  0  0  0  0  0  0
  157.0370  211.2060  155.0940 C   0  0  2  0  0  3  0  0  0  0  0  0
  158.1110  214.0050  154.5540 C   0  0  1  0  0  3  0  0  0  0  0  0
  157.2680  212.2100  156.2240 C   0  0  0  0  0  2  0  0  0  0  0  0
  157.6510  211.5960  153.7390 C   0  0  0  0  0  2  0  0  0  0  0  0
  3 18  2  0  0  0  0
  3 19  1  0  0  0  0
  4 16  2  0  0  0  0
  4  5  1  0  0  0  0
  5  6  1  0  0  0  0
  6 15  1  0  0  0  0
  7 12  1  0  0  0  0
  8 13  2  0  0  0  0
  9 12  2  0  0  0  0
  9 24  1  0  0  0  0
 10  8  1  0  0  0  0
 10  2  2  0  0  0  0
 11  8  1  0  0  0  0
 13 18  1  0  0  0  0
 14 17  1  0  0  0  0
 15  1  1  0  0  0  0
 16 11  1  0  0  0  0
 17 10  1  0  0  0  0
 18  7  1  0  0  0  0
 19  1  1  1  0  0  0
 19  9  1  0  0  0  0
 20  5  2  0  0  0  0
 21 14  1  0  0  0  0
 21 16  1  0  0  0  0
 22 20  1  0  0  0  0
 23 22  1  0  0  0  0
 24 25  1  0  0  0  0
 25 26  1  0  0  0  0
 27 26  1  0  0  0  0
 29 27  1  6  0  0  0
 29 34  1  0  0  0  0
 31 35  1  1  0  0  0
 31 28  1  0  0  0  0
 31 33  1  0  0  0  0
 32 30  1  6  0  0  0
 32 34  1  0  0  0  0
 33 28  1  1  0  0  0
 33 29  1  0  0  0  0
 35 32  1  0  0  0  0
M  END
>  <MODEL>
3

>  <REMARK>
 VINA RESULT:      -7.2      1.796      2.650
  Name = 
  6 active torsions:
  status: ('A' for Active; 'I' for Inactive)
    1  A    between atoms: O_1  and  C_33
    2  A    between atoms: C_8  and  N_27
    3  A    between atoms: C_13  and  C_16
    4  A    between atoms: C_13  and  N_31
    5  A    between atoms: C_15  and  N_31
    6  A    between atoms: C_16  and  N_27
                            x       y       z     vdW  Elec       q    Type
                         _______ _______ _______ _____ _____    ______ ____

>  <TORSDO>
F 6

$$$$
=
 OpenBabel11052409293D

 35 39  0  0  1  0  0  0  0  0999 V2000
  161.9600  210.3070  152.2860 S   0  0  0  0  0  0  0  0  0  0  0  0
  160.7180  203.5830  148.6260 O   0  0  0  0  0  0  0  0  0  0  0  0
  161.9200  208.2310  150.5210 N   0  0  0  0  0  0  0  0  0  0  0  0
  161.0220  206.1660  153.7590 C   0  0  0  0  0  3  0  0  0  0  0  0
  160.7600  207.6190  153.8760 C   0  0  0  0  0  0  0  0  0  0  0  0
  160.1820  208.3350  152.7760 N   0  0  0  0  0  2  0  0  0  0  0  0
  161.9020  208.4060  148.1560 C   0  0  0  0  0  2  0  0  0  0  0  0
  161.1810  205.3540  150.1290 C   0  0  0  0  0  0  0  0  0  0  0  0
  161.9760  210.3720  149.4870 C   0  0  0  0  0  0  0  0  0  0  0  0
  161.0200  203.9290  149.7990 C   0  0  0  0  0  0  0  0  0  0  0  0
  160.4780  205.9000  151.3450 C   0  0  0  0  0  2  0  0  0  0  0  0
  161.9610  209.7600  148.2700 N   0  0  0  0  0  0  0  0  0  0  0  0
  161.7110  206.1640  149.1980 C   0  0  0  0  0  3  0  0  0  0  0  0
  161.9420  203.1940  152.0130 C   0  0  0  0  0  2  0  0  0  0  0  0
  160.2430  209.7880  152.6280 C   0  0  0  0  0  2  0  0  0  0  0  0
  160.9410  205.3740  152.6810 C   0  0  0  0  0  0  0  0  0  0  0  0
  161.2020  202.9270  150.7930 N   0  0  0  0  0  2  0  0  0  0  0  0
  161.8580  207.6230  149.3100 C   0  0  0  0  0  0  0  0  0  0  0  0
  161.9640  209.5830  150.6450 C   0  0  1  0  0  3  0  0  0  0  0  0
  161.0350  208.2890  155.0090 C   0  0  0  0  0  3  0  0  0  0  0  0
  161.1930  204.0150  152.8970 O   0  0  0  0  0  0  0  0  0  0  0  0
  161.6000  207.7850  156.1930 O   0  0  0  0  0  0  0  0  0  0  0  0
  162.3120  208.5470  157.1570 C   0  0  0  0  0  1  0  0  0  0  0  0
  162.0180  211.8000  149.5820 N   0  0  0  0  0  2  0  0  0  0  0  0
  161.2480  212.6730  148.7090 C   0  0  0  0  0  2  0  0  0  0  0  0
  162.1820  213.5130  147.8600 C   0  0  0  0  0  2  0  0  0  0  0  0
  162.3670  212.8750  146.5690 N   0  0  0  0  0  2  0  0  0  0  0  0
  162.5460  214.0780  143.0160 C   0  0  0  0  0  2  0  0  0  0  0  0
  162.3600  213.9320  145.5710 C   0  0  1  0  0  3  0  0  0  0  0  0
  159.2440  214.2480  143.5160 C   0  0  0  0  0  1  0  0  0  0  0  0
  162.2630  212.6200  143.3420 C   0  0  1  0  0  3  0  0  0  0  0  0
  160.0650  213.4740  144.5270 C   0  0  2  0  0  3  0  0  0  0  0  0
  163.1020  213.4680  144.2990 C   0  0  1  0  0  3  0  0  0  0  0  0
  160.9330  214.4370  145.3370 C   0  0  0  0  0  2  0  0  0  0  0  0
  160.8280  212.3330  143.8350 C   0  0  0  0  0  2  0  0  0  0  0  0
  1 15  1  0  0  0  0
  2 10  2  0  0  0  0
  3 19  1  0  0  0  0
  4  5  1  0  0  0  0
  5 20  2  0  0  0  0
  6  5  1  0  0  0  0
  7 12  1  0  0  0  0
  7 18  1  0  0  0  0
  8 11  1  0  0  0  0
  9 24  1  0  0  0  0
 10  8  1  0  0  0  0
 10 17  1  0  0  0  0
 11 16  1  0  0  0  0
 12  9  2  0  0  0  0
 13 18  1  0  0  0  0
 13  8  2  0  0  0  0
 14 21  1  0  0  0  0
 15  6  1  0  0  0  0
 16 21  1  0  0  0  0
 16  4  2  0  0  0  0
 17 14  1  0  0  0  0
 18  3  2  0  0  0  0
 19  9  1  6  0  0  0
 19  1  1  0  0  0  0
 20 22  1  0  0  0  0
 22 23  1  0  0  0  0
 25 24  1  0  0  0  0
 26 25  1  0  0  0  0
 27 26  1  0  0  0  0
 29 27  1  1  0  0  0
 31 28  1  6  0  0  0
 31 35  1  0  0  0  0
 31 33  1  0  0  0  0
 32 30  1  6  0  0  0
 32 34  1  0  0  0  0
 33 28  1  6  0  0  0
 33 29  1  0  0  0  0
 34 29  1  0  0  0  0
 35 32  1  0  0  0  0
M  END
>  <MODEL>
4

>  <REMARK>
 VINA RESULT:      -6.9      3.177      7.498
  Name = 
  6 active torsions:
  status: ('A' for Active; 'I' for Inactive)
    1  A    between atoms: O_1  and  C_33
    2  A    between atoms: C_8  and  N_27
    3  A    between atoms: C_13  and  C_16
    4  A    between atoms: C_13  and  N_31
    5  A    between atoms: C_15  and  N_31
    6  A    between atoms: C_16  and  N_27
                            x       y       z     vdW  Elec       q    Type
                         _______ _______ _______ _____ _____    ______ ____

>  <TORSDO>
F 6

$$$$
=
 OpenBabel11052409293D

 35 39  0  0  1  0  0  0  0  0999 V2000
  162.3270  206.6430  152.2480 S   0  0  0  0  0  0  0  0  0  0  0  0
  160.4970  206.6540  144.7110 O   0  0  0  0  0  0  0  0  0  0  0  0
  162.0750  207.2090  149.5950 N   0  0  0  0  0  0  0  0  0  0  0  0
  161.2040  203.3680  149.3820 C   0  0  0  0  0  3  0  0  0  0  0  0
  161.0390  203.9530  150.7330 C   0  0  0  0  0  0  0  0  0  0  0  0
  160.4560  205.2540  150.8870 N   0  0  0  0  0  2  0  0  0  0  0  0
  161.9560  209.3730  148.6320 C   0  0  0  0  0  2  0  0  0  0  0  0
  161.1400  206.1790  146.9410 C   0  0  0  0  0  0  0  0  0  0  0  0
  162.2160  209.1370  150.9810 C   0  0  0  0  0  0  0  0  0  0  0  0
  160.8750  205.7900  145.5470 C   0  0  0  0  0  0  0  0  0  0  0  0
  160.5310  205.3600  148.0490 C   0  0  0  0  0  2  0  0  0  0  0  0
  162.1050  209.9170  149.8690 N   0  0  0  0  0  0  0  0  0  0  0  0
  161.6750  207.3890  147.1710 C   0  0  0  0  0  3  0  0  0  0  0  0
  161.8530  203.5040  145.8770 C   0  0  0  0  0  2  0  0  0  0  0  0
  160.6000  206.0740  152.0870 C   0  0  0  0  0  2  0  0  0  0  0  0
  161.0230  203.9400  148.1840 C   0  0  0  0  0  0  0  0  0  0  0  0
  161.0410  204.4420  145.1230 N   0  0  0  0  0  2  0  0  0  0  0  0
  161.9180  207.9850  148.4930 C   0  0  0  0  0  0  0  0  0  0  0  0
  162.2090  207.7430  150.8360 C   0  0  1  0  0  3  0  0  0  0  0  0
  161.4080  203.2770  151.8360 C   0  0  0  0  0  3  0  0  0  0  0  0
  161.1990  203.1080  147.0730 O   0  0  0  0  0  0  0  0  0  0  0  0
  161.9960  202.0030  151.9100 O   0  0  0  0  0  0  0  0  0  0  0  0
  161.6300  200.8780  151.1250 C   0  0  0  0  0  1  0  0  0  0  0  0
  162.3510  209.7320  152.2760 N   0  0  0  0  0  2  0  0  0  0  0  0
  161.3820  210.6720  152.8190 C   0  0  0  0  0  2  0  0  0  0  0  0
  160.0060  210.0350  152.8590 C   0  0  0  0  0  2  0  0  0  0  0  0
  158.9930  211.0740  152.9150 N   0  0  0  0  0  2  0  0  0  0  0  0
  158.4220  214.0440  155.1410 C   0  0  0  0  0  2  0  0  0  0  0  0
  159.2190  211.8190  154.1420 C   0  0  1  0  0  3  0  0  0  0  0  0
  156.4090  211.8190  156.6200 C   0  0  0  0  0  1  0  0  0  0  0  0
  157.4870  213.7360  153.9810 C   0  0  1  0  0  3  0  0  0  0  0  0
  156.9260  211.4830  155.2350 C   0  0  2  0  0  3  0  0  0  0  0  0
  158.9590  213.3220  153.9080 C   0  0  1  0  0  3  0  0  0  0  0  0
  158.4280  211.1980  155.2970 C   0  0  0  0  0  2  0  0  0  0  0  0
  156.5080  212.5680  154.2300 C   0  0  0  0  0  2  0  0  0  0  0  0
  2 10  2  0  0  0  0
  4  5  1  0  0  0  0
  5  6  1  0  0  0  0
  5 20  2  0  0  0  0
  6 15  1  0  0  0  0
  7 12  1  0  0  0  0
  8 13  2  0  0  0  0
  8 11  1  0  0  0  0
  9 24  1  0  0  0  0
 10  8  1  0  0  0  0
 11 16  1  0  0  0  0
 12  9  2  0  0  0  0
 13 18  1  0  0  0  0
 14 21  1  0  0  0  0
 15  1  1  0  0  0  0
 16  4  2  0  0  0  0
 17 10  1  0  0  0  0
 17 14  1  0  0  0  0
 18  7  1  0  0  0  0
 18  3  2  0  0  0  0
 19  3  1  1  0  0  0
 19  9  1  0  0  0  0
 19  1  1  0  0  0  0
 20 22  1  0  0  0  0
 21 16  1  0  0  0  0
 23 22  1  0  0  0  0
 24 25  1  0  0  0  0
 25 26  1  0  0  0  0
 26 27  1  0  0  0  0
 29 27  1  6  0  0  0
 29 34  1  0  0  0  0
 31 35  1  1  0  0  0
 31 28  1  0  0  0  0
 32 34  1  0  0  0  0
 32 30  1  1  0  0  0
 33 31  1  0  0  0  0
 33 29  1  0  0  0  0
 33 28  1  1  0  0  0
 35 32  1  0  0  0  0
M  END
>  <MODEL>
5

>  <REMARK>
 VINA RESULT:      -6.4      1.943      4.419
  Name = 
  6 active torsions:
  status: ('A' for Active; 'I' for Inactive)
    1  A    between atoms: O_1  and  C_33
    2  A    between atoms: C_8  and  N_27
    3  A    between atoms: C_13  and  C_16
    4  A    between atoms: C_13  and  N_31
    5  A    between atoms: C_15  and  N_31
    6  A    between atoms: C_16  and  N_27
                            x       y       z     vdW  Elec       q    Type
                         _______ _______ _______ _____ _____    ______ ____

>  <TORSDO>
F 6

$$$$
=
 OpenBabel11052409293D

 35 39  0  0  1  0  0  0  0  0999 V2000
  161.2060  208.5060  148.8990 S   0  0  0  0  0  0  0  0  0  0  0  0
  161.5340  201.4600  152.1240 O   0  0  0  0  0  0  0  0  0  0  0  0
  161.0290  206.3530  150.5600 N   0  0  0  0  0  0  0  0  0  0  0  0
  161.2330  204.3600  147.1630 C   0  0  0  0  0  3  0  0  0  0  0  0
  161.7440  205.7480  147.0830 C   0  0  0  0  0  0  0  0  0  0  0  0
  162.5410  206.2830  148.1470 N   0  0  0  0  0  2  0  0  0  0  0  0
  161.2970  206.3800  152.9170 C   0  0  0  0  0  2  0  0  0  0  0  0
  161.2650  203.3730  150.7530 C   0  0  0  0  0  0  0  0  0  0  0  0
  161.4600  208.4040  151.6850 C   0  0  0  0  0  0  0  0  0  0  0  0
  161.1930  201.9240  151.0040 C   0  0  0  0  0  0  0  0  0  0  0  0
  161.9400  203.8570  149.4960 C   0  0  0  0  0  2  0  0  0  0  0  0
  161.4760  207.7270  152.8680 N   0  0  0  0  0  0  0  0  0  0  0  0
  160.9790  204.2060  151.7660 C   0  0  0  0  0  3  0  0  0  0  0  0
  159.9510  201.4990  148.8650 C   0  0  0  0  0  2  0  0  0  0  0  0
  162.7610  207.7120  148.3620 C   0  0  0  0  0  2  0  0  0  0  0  0
  161.2670  203.5030  148.1920 C   0  0  0  0  0  0  0  0  0  0  0  0
  160.7400  201.0320  149.9910 N   0  0  0  0  0  2  0  0  0  0  0  0
  161.0900  205.6720  151.7320 C   0  0  0  0  0  0  0  0  0  0  0  0
  161.2210  207.6960  150.5000 C   0  0  1  0  0  3  0  0  0  0  0  0
  161.4920  206.5240  146.0130 C   0  0  0  0  0  3  0  0  0  0  0  0
  160.7540  202.2260  147.9460 O   0  0  0  0  0  0  0  0  0  0  0  0
  160.7380  206.2000  144.8720 O   0  0  0  0  0  0  0  0  0  0  0  0
  161.2050  205.4550  143.7570 C   0  0  0  0  0  1  0  0  0  0  0  0
  161.6710  209.8200  151.6550 N   0  0  0  0  0  2  0  0  0  0  0  0
  161.2810  210.7000  152.7470 C   0  0  0  0  0  2  0  0  0  0  0  0
  160.0770  211.5280  152.3410 C   0  0  0  0  0  2  0  0  0  0  0  0
  158.9100  211.0790  153.0790 N   0  0  0  0  0  2  0  0  0  0  0  0
  158.3780  213.7640  155.6500 C   0  0  0  0  0  2  0  0  0  0  0  0
  159.0340  211.6050  154.4280 C   0  0  1  0  0  3  0  0  0  0  0  0
  155.8960  211.6790  156.4720 C   0  0  0  0  0  1  0  0  0  0  0  0
  157.6050  213.7610  154.3400 C   0  0  1  0  0  3  0  0  0  0  0  0
  156.5750  211.4640  155.1340 C   0  0  2  0  0  3  0  0  0  0  0  0
  159.0050  213.1480  154.4020 C   0  0  1  0  0  3  0  0  0  0  0  0
  158.0000  210.9550  155.3520 C   0  0  0  0  0  2  0  0  0  0  0  0
  156.4590  212.7280  154.2660 C   0  0  0  0  0  2  0  0  0  0  0  0
  3 18  2  0  0  0  0
  4 16  2  0  0  0  0
  5  4  1  0  0  0  0
  5  6  1  0  0  0  0
  6 15  1  0  0  0  0
  8 10  1  0  0  0  0
  8 13  2  0  0  0  0
  9 12  2  0  0  0  0
 10  2  2  0  0  0  0
 11  8  1  0  0  0  0
 12  7  1  0  0  0  0
 14 17  1  0  0  0  0
 15  1  1  0  0  0  0
 16 11  1  0  0  0  0
 17 10  1  0  0  0  0
 18 13  1  0  0  0  0
 18  7  1  0  0  0  0
 19  1  1  6  0  0  0
 19  3  1  0  0  0  0
 19  9  1  0  0  0  0
 20  5  2  0  0  0  0
 21 16  1  0  0  0  0
 21 14  1  0  0  0  0
 22 20  1  0  0  0  0
 23 22  1  0  0  0  0
 24  9  1  0  0  0  0
 24 25  1  0  0  0  0
 26 25  1  0  0  0  0
 26 27  1  0  0  0  0
 29 27  1  6  0  0  0
 29 34  1  0  0  0  0
 31 35  1  1  0  0  0
 31 33  1  0  0  0  0
 31 28  1  0  0  0  0
 32 34  1  0  0  0  0
 32 30  1  1  0  0  0
 33 29  1  0  0  0  0
 33 28  1  1  0  0  0
 35 32  1  0  0  0  0
M  END
>  <MODEL>
6

>  <REMARK>
 VINA RESULT:      -6.2      2.128      3.429
  Name = 
  6 active torsions:
  status: ('A' for Active; 'I' for Inactive)
    1  A    between atoms: O_1  and  C_33
    2  A    between atoms: C_8  and  N_27
    3  A    between atoms: C_13  and  C_16
    4  A    between atoms: C_13  and  N_31
    5  A    between atoms: C_15  and  N_31
    6  A    between atoms: C_16  and  N_27
                            x       y       z     vdW  Elec       q    Type
                         _______ _______ _______ _____ _____    ______ ____

>  <TORSDO>
F 6

$$$$
=
 OpenBabel11052409293D

 35 39  0  0  1  0  0  0  0  0999 V2000
  162.3220  206.5770  152.1900 S   0  0  0  0  0  0  0  0  0  0  0  0
  160.5030  206.7040  144.6520 O   0  0  0  0  0  0  0  0  0  0  0  0
  162.0740  207.1840  149.5460 N   0  0  0  0  0  0  0  0  0  0  0  0
  161.2060  203.3470  149.2720 C   0  0  0  0  0  3  0  0  0  0  0  0
  161.0390  203.9100  150.6310 C   0  0  0  0  0  0  0  0  0  0  0  0
  160.4540  205.2080  150.8040 N   0  0  0  0  0  2  0  0  0  0  0  0
  161.9540  209.3630  148.6170 C   0  0  0  0  0  2  0  0  0  0  0  0
  161.1430  206.1950  146.8750 C   0  0  0  0  0  0  0  0  0  0  0  0
  162.2100  209.0900  150.9620 C   0  0  0  0  0  0  0  0  0  0  0  0
  160.8810  205.8280  145.4740 C   0  0  0  0  0  0  0  0  0  0  0  0
  160.5340  205.3580  147.9690 C   0  0  0  0  0  2  0  0  0  0  0  0
  162.1000  209.8880  149.8630 N   0  0  0  0  0  0  0  0  0  0  0  0
  161.6770  207.4020  147.1240 C   0  0  0  0  0  3  0  0  0  0  0  0
  161.8610  203.5380  145.7700 C   0  0  0  0  0  2  0  0  0  0  0  0
  160.5950  206.0090  152.0180 C   0  0  0  0  0  2  0  0  0  0  0  0
  161.0270  203.9360  148.0820 C   0  0  0  0  0  0  0  0  0  0  0  0
  161.0490  204.4860  145.0300 N   0  0  0  0  0  2  0  0  0  0  0  0
  161.9180  207.9770  148.4560 C   0  0  0  0  0  0  0  0  0  0  0  0
  162.2060  207.6990  150.7950 C   0  0  1  0  0  3  0  0  0  0  0  0
  161.4070  203.2170  151.7240 C   0  0  0  0  0  3  0  0  0  0  0  0
  161.2050  203.1220  146.9590 O   0  0  0  0  0  0  0  0  0  0  0  0
  161.9960  201.9430  151.7790 O   0  0  0  0  0  0  0  0  0  0  0  0
  161.5850  200.8100  151.0270 C   0  0  0  0  0  1  0  0  0  0  0  0
  162.3430  209.6650  152.2670 N   0  0  0  0  0  2  0  0  0  0  0  0
  161.2080  209.8870  153.1510 C   0  0  0  0  0  2  0  0  0  0  0  0
  160.6720  211.2930  152.9650 C   0  0  0  0  0  2  0  0  0  0  0  0
  159.9600  211.7010  154.1620 N   0  0  0  0  0  2  0  0  0  0  0  0
  156.4150  211.3620  155.3540 C   0  0  0  0  0  2  0  0  0  0  0  0
  158.5540  211.4120  153.9370 C   0  0  1  0  0  3  0  0  0  0  0  0
  156.2440  214.3600  153.8810 C   0  0  0  0  0  1  0  0  0  0  0  0
  157.4560  212.1090  156.1750 C   0  0  1  0  0  3  0  0  0  0  0  0
  157.6220  213.7900  154.1470 C   0  0  2  0  0  3  0  0  0  0  0  0
  157.8850  210.9640  155.2540 C   0  0  1  0  0  3  0  0  0  0  0  0
  157.8710  212.5890  153.2330 C   0  0  0  0  0  2  0  0  0  0  0  0
  157.8080  213.5170  155.6480 C   0  0  0  0  0  2  0  0  0  0  0  0
  2 10  2  0  0  0  0
  4  5  1  0  0  0  0
  5  6  1  0  0  0  0
  5 20  2  0  0  0  0
  6 15  1  0  0  0  0
  7 12  1  0  0  0  0
  8 13  2  0  0  0  0
  8 11  1  0  0  0  0
  9 24  1  0  0  0  0
 10  8  1  0  0  0  0
 11 16  1  0  0  0  0
 12  9  2  0  0  0  0
 13 18  1  0  0  0  0
 14 21  1  0  0  0  0
 15  1  1  0  0  0  0
 16  4  2  0  0  0  0
 17 10  1  0  0  0  0
 17 14  1  0  0  0  0
 18  7  1  0  0  0  0
 18  3  2  0  0  0  0
 19  3  1  1  0  0  0
 19  9  1  0  0  0  0
 19  1  1  0  0  0  0
 20 22  1  0  0  0  0
 21 16  1  0  0  0  0
 23 22  1  0  0  0  0
 24 25  1  0  0  0  0
 26 25  1  0  0  0  0
 26 27  1  0  0  0  0
 29 27  1  1  0  0  0
 29 33  1  0  0  0  0
 31 28  1  6  0  0  0
 32 30  1  1  0  0  0
 32 35  1  0  0  0  0
 33 28  1  6  0  0  0
 33 31  1  0  0  0  0
 34 29  1  0  0  0  0
 34 32  1  0  0  0  0
 35 31  1  0  0  0  0
M  END
>  <MODEL>
7

>  <REMARK>
 VINA RESULT:      -6.2      2.003      4.524
  Name = 
  6 active torsions:
  status: ('A' for Active; 'I' for Inactive)
    1  A    between atoms: O_1  and  C_33
    2  A    between atoms: C_8  and  N_27
    3  A    between atoms: C_13  and  C_16
    4  A    between atoms: C_13  and  N_31
    5  A    between atoms: C_15  and  N_31
    6  A    between atoms: C_16  and  N_27
                            x       y       z     vdW  Elec       q    Type
                         _______ _______ _______ _____ _____    ______ ____

>  <TORSDO>
F 6

$$$$
=
 OpenBabel11052409293D

 35 39  0  0  1  0  0  0  0  0999 V2000
  161.2830  208.6680  148.6590 S   0  0  0  0  0  0  0  0  0  0  0  0
  161.4200  201.8330  152.3230 O   0  0  0  0  0  0  0  0  0  0  0  0
  161.0380  206.6280  150.4480 N   0  0  0  0  0  0  0  0  0  0  0  0
  161.2520  204.4220  147.1860 C   0  0  0  0  0  3  0  0  0  0  0  0
  161.7920  205.7920  147.0270 C   0  0  0  0  0  0  0  0  0  0  0  0
  162.5840  206.3770  148.0690 N   0  0  0  0  0  2  0  0  0  0  0  0
  161.2710  206.7970  152.8030 C   0  0  0  0  0  2  0  0  0  0  0  0
  161.2100  203.6610  150.8310 C   0  0  0  0  0  0  0  0  0  0  0  0
  161.4930  208.7370  151.4500 C   0  0  0  0  0  0  0  0  0  0  0  0
  161.1050  202.2330  151.1700 C   0  0  0  0  0  0  0  0  0  0  0  0
  161.9130  204.0530  149.5570 C   0  0  0  0  0  2  0  0  0  0  0  0
  161.4780  208.1350  152.6720 N   0  0  0  0  0  0  0  0  0  0  0  0
  160.9260  204.5620  151.7850 C   0  0  0  0  0  3  0  0  0  0  0  0
  159.8870  201.6980  149.0430 C   0  0  0  0  0  2  0  0  0  0  0  0
  162.8290  207.8120  148.1980 C   0  0  0  0  0  2  0  0  0  0  0  0
  161.2530  203.6310  148.2670 C   0  0  0  0  0  0  0  0  0  0  0  0
  160.6500  201.2880  150.2080 N   0  0  0  0  0  2  0  0  0  0  0  0
  161.0680  206.0200  151.6610 C   0  0  0  0  0  0  0  0  0  0  0  0
  161.2570  207.9600  150.3070 C   0  0  1  0  0  3  0  0  0  0  0  0
  161.5720  206.5030  145.9070 C   0  0  0  0  0  3  0  0  0  0  0  0
  160.7180  202.3510  148.0930 O   0  0  0  0  0  0  0  0  0  0  0  0
  160.8280  206.1240  144.7770 O   0  0  0  0  0  0  0  0  0  0  0  0
  161.3200  205.3640  143.6820 C   0  0  0  0  0  1  0  0  0  0  0  0
  161.7330  210.1430  151.3350 N   0  0  0  0  0  2  0  0  0  0  0  0
  160.9400  211.1400  152.0390 C   0  0  0  0  0  2  0  0  0  0  0  0
  160.4670  212.2060  151.0700 C   0  0  0  0  0  2  0  0  0  0  0  0
  161.2080  212.0930  149.8270 N   0  0  0  0  0  2  0  0  0  0  0  0
  161.8980  214.4030  146.9480 C   0  0  0  0  0  2  0  0  0  0  0  0
  161.1890  213.4050  149.2030 C   0  0  1  0  0  3  0  0  0  0  0  0
  158.6130  213.9320  146.5340 C   0  0  0  0  0  1  0  0  0  0  0  0
  161.8800  212.8940  146.7610 C   0  0  1  0  0  3  0  0  0  0  0  0
  159.3410  212.9940  147.4760 C   0  0  2  0  0  3  0  0  0  0  0  0
  162.2770  213.4920  148.1120 C   0  0  1  0  0  3  0  0  0  0  0  0
  159.7730  213.7520  148.7310 C   0  0  0  0  0  2  0  0  0  0  0  0
  160.4710  212.2620  146.7340 C   0  0  0  0  0  2  0  0  0  0  0  0
  3 18  2  0  0  0  0
  4 16  2  0  0  0  0
  5  4  1  0  0  0  0
  5  6  1  0  0  0  0
  6 15  1  0  0  0  0
  8 10  1  0  0  0  0
  8 13  2  0  0  0  0
  9 12  2  0  0  0  0
 10  2  2  0  0  0  0
 11  8  1  0  0  0  0
 12  7  1  0  0  0  0
 14 17  1  0  0  0  0
 15  1  1  0  0  0  0
 16 11  1  0  0  0  0
 17 10  1  0  0  0  0
 18 13  1  0  0  0  0
 18  7  1  0  0  0  0
 19  1  1  6  0  0  0
 19  3  1  0  0  0  0
 19  9  1  0  0  0  0
 20  5  2  0  0  0  0
 21 16  1  0  0  0  0
 21 14  1  0  0  0  0
 22 20  1  0  0  0  0
 23 22  1  0  0  0  0
 24  9  1  0  0  0  0
 24 25  1  0  0  0  0
 26 25  1  0  0  0  0
 27 26  1  0  0  0  0
 29 27  1  6  0  0  0
 31 35  1  1  0  0  0
 31 28  1  0  0  0  0
 31 33  1  0  0  0  0
 32 30  1  6  0  0  0
 32 34  1  0  0  0  0
 33 28  1  6  0  0  0
 33 29  1  0  0  0  0
 34 29  1  0  0  0  0
 35 32  1  0  0  0  0
M  END
>  <MODEL>
8

>  <REMARK>
 VINA RESULT:      -6.1      2.842      5.200
  Name = 
  6 active torsions:
  status: ('A' for Active; 'I' for Inactive)
    1  A    between atoms: O_1  and  C_33
    2  A    between atoms: C_8  and  N_27
    3  A    between atoms: C_13  and  C_16
    4  A    between atoms: C_13  and  N_31
    5  A    between atoms: C_15  and  N_31
    6  A    between atoms: C_16  and  N_27
                            x       y       z     vdW  Elec       q    Type
                         _______ _______ _______ _____ _____    ______ ____

>  <TORSDO>
F 6

$$$$
=
 OpenBabel11052409293D

 35 39  0  0  1  0  0  0  0  0999 V2000
  161.4670  208.0090  148.1450 S   0  0  0  0  0  0  0  0  0  0  0  0
  161.1370  200.9130  151.2570 O   0  0  0  0  0  0  0  0  0  0  0  0
  161.0550  205.8510  149.7570 N   0  0  0  0  0  0  0  0  0  0  0  0
  161.2930  203.8960  146.3400 C   0  0  0  0  0  3  0  0  0  0  0  0
  161.9030  205.2460  146.3090 C   0  0  0  0  0  0  0  0  0  0  0  0
  162.6800  205.7080  147.4220 N   0  0  0  0  0  2  0  0  0  0  0  0
  161.2040  205.8250  152.1240 C   0  0  0  0  0  2  0  0  0  0  0  0
  161.0730  202.8590  149.9090 C   0  0  0  0  0  0  0  0  0  0  0  0
  161.5700  207.8500  150.9380 C   0  0  0  0  0  0  0  0  0  0  0  0
  160.8870  201.4160  150.1300 C   0  0  0  0  0  0  0  0  0  0  0  0
  161.8430  203.3120  148.6960 C   0  0  0  0  0  2  0  0  0  0  0  0
  161.4780  207.1570  152.1070 N   0  0  0  0  0  0  0  0  0  0  0  0
  160.7940  203.6960  150.9210 C   0  0  0  0  0  3  0  0  0  0  0  0
  159.7300  201.1090  147.9250 C   0  0  0  0  0  2  0  0  0  0  0  0
  162.9870  207.1150  147.6720 C   0  0  0  0  0  2  0  0  0  0  0  0
  161.2150  203.0250  147.3540 C   0  0  0  0  0  0  0  0  0  0  0  0
  160.4260  200.5720  149.0800 N   0  0  0  0  0  2  0  0  0  0  0  0
  161.0090  205.1510  150.9180 C   0  0  0  0  0  0  0  0  0  0  0  0
  161.3430  207.1780  149.7290 C   0  0  1  0  0  3  0  0  0  0  0  0
  161.7610  206.0520  145.2420 C   0  0  0  0  0  3  0  0  0  0  0  0
  160.6270  201.7900  147.0600 O   0  0  0  0  0  0  0  0  0  0  0  0
  161.0450  205.7990  144.0590 O   0  0  0  0  0  0  0  0  0  0  0  0
  161.5830  205.8320  142.7460 C   0  0  0  0  0  1  0  0  0  0  0  0
  161.8800  209.2480  150.9430 N   0  0  0  0  0  2  0  0  0  0  0  0
  162.0830  210.0070  152.1680 C   0  0  0  0  0  2  0  0  0  0  0  0
  160.8300  210.7910  152.5070 C   0  0  0  0  0  2  0  0  0  0  0  0
  160.2890  210.3160  153.7680 N   0  0  0  0  0  2  0  0  0  0  0  0
  162.4550  210.0030  156.8200 C   0  0  0  0  0  2  0  0  0  0  0  0
  161.3910  209.7170  154.5030 C   0  0  1  0  0  3  0  0  0  0  0  0
  160.4570  207.3560  157.2570 C   0  0  0  0  0  1  0  0  0  0  0  0
  161.1080  210.7080  156.8770 C   0  0  1  0  0  3  0  0  0  0  0  0
  160.0400  208.3840  156.2240 C   0  0  2  0  0  3  0  0  0  0  0  0
  161.9110  210.6980  155.5750 C   0  0  1  0  0  3  0  0  0  0  0  0
  160.9940  208.3350  155.0300 C   0  0  0  0  0  2  0  0  0  0  0  0
  159.8840  209.7660  156.8780 C   0  0  0  0  0  2  0  0  0  0  0  0
  3 18  2  0  0  0  0
  4 16  2  0  0  0  0
  5  4  1  0  0  0  0
  5  6  1  0  0  0  0
  6 15  1  0  0  0  0
  8 10  1  0  0  0  0
  8 13  2  0  0  0  0
  9 24  1  0  0  0  0
  9 12  2  0  0  0  0
 10  2  2  0  0  0  0
 11  8  1  0  0  0  0
 12  7  1  0  0  0  0
 14 17  1  0  0  0  0
 15  1  1  0  0  0  0
 16 11  1  0  0  0  0
 17 10  1  0  0  0  0
 18 13  1  0  0  0  0
 18  7  1  0  0  0  0
 19  1  1  6  0  0  0
 19  3  1  0  0  0  0
 19  9  1  0  0  0  0
 20  5  2  0  0  0  0
 21 16  1  0  0  0  0
 21 14  1  0  0  0  0
 22 20  1  0  0  0  0
 23 22  1  0  0  0  0
 24 25  1  0  0  0  0
 25 26  1  0  0  0  0
 26 27  1  0  0  0  0
 29 27  1  1  0  0  0
 29 34  1  0  0  0  0
 29 33  1  0  0  0  0
 31 28  1  1  0  0  0
 31 35  1  0  0  0  0
 32 35  1  0  0  0  0
 32 30  1  1  0  0  0
 33 28  1  1  0  0  0
 33 31  1  0  0  0  0
 34 32  1  0  0  0  0
M  END
>  <MODEL>
9

>  <REMARK>
 VINA RESULT:      -6.0      2.612      4.092
  Name = 
  6 active torsions:
  status: ('A' for Active; 'I' for Inactive)
    1  A    between atoms: O_1  and  C_33
    2  A    between atoms: C_8  and  N_27
    3  A    between atoms: C_13  and  C_16
    4  A    between atoms: C_13  and  N_31
    5  A    between atoms: C_15  and  N_31
    6  A    between atoms: C_16  and  N_27
                            x       y       z     vdW  Elec       q    Type
                         _______ _______ _______ _____ _____    ______ ____

>  <TORSDO>
F 6

$$$$
