=
 OpenBabel11052410233D

 55 61  0  0  1  0  0  0  0  0999 V2000
  161.6800  209.4380  153.0610 C   0  0  0  0  0  3  0  0  0  0  0  0
  161.3380  209.4070  151.7730 C   0  0  0  0  0  0  0  0  0  0  0  0
  161.6350  210.8890  149.6960 C   0  0  0  0  0  0  0  0  0  0  0  0
  162.1720  209.9850  149.0000 O   0  0  0  0  0  0  0  0  0  0  0  0
  161.1950  210.6320  151.0360 N   0  0  0  0  0  2  0  0  0  0  0  0
  160.8690  213.1920  150.1820 C   0  0  0  0  0  1  0  0  0  0  0  0
  161.4520  212.2580  149.1330 C   0  0  2  0  0  3  0  0  0  0  0  0
  160.5600  212.2050  147.9000 C   0  0  0  0  0  2  0  0  0  0  0  0
  162.6080  213.5850  145.3300 C   0  0  0  0  0  0  0  0  0  0  0  0
  162.5300  213.8910  143.1430 C   0  0  0  0  0  0  0  0  0  0  0  0
  163.3420  213.3460  144.2600 C   0  0  0  0  0  3  0  0  0  0  0  0
  162.4810  212.8100  146.5070 N   0  0  0  0  0  0  0  0  0  0  0  0
  161.2020  212.9030  146.7490 C   0  0  0  0  0  0  0  0  0  0  0  0
  161.3080  214.2800  143.5360 C   0  0  0  0  0  3  0  0  0  0  0  0
  160.4380  213.6070  145.7460 N   0  0  0  0  0  2  0  0  0  0  0  0
  161.3510  214.0740  144.9680 C   0  0  1  0  0  3  0  0  0  0  0  0
  162.9920  213.9400  141.7270 C   0  0  0  0  0  2  0  0  0  0  0  0
  161.4410  210.8850  140.3510 C   0  0  0  0  0  2  0  0  0  0  0  0
  162.5580  213.3140  139.4890 C   0  0  2  0  0  3  0  0  0  0  0  0
  162.0630  213.2130  140.8770 N   0  0  0  0  0  0  0  0  0  0  0  0
  161.4360  213.7640  138.5660 C   0  0  0  0  0  1  0  0  0  0  0  0
  163.2430  212.0450  138.9500 C   0  0  0  0  0  2  0  0  0  0  0  0
  161.9940  211.8420  141.3980 C   0  0  0  0  0  2  0  0  0  0  0  0
  162.4400  210.7620  139.2030 C   0  0  2  0  0  3  0  0  0  0  0  0
  161.7800  210.2650  137.9570 C   0  0  0  0  0  0  0  0  0  0  0  0
  160.3970  210.3180  137.8470 O   0  0  0  0  0  1  0  0  0  0  0  0
  162.4630  209.7910  137.0110 O   0  0  0  0  0  0  0  0  0  0  0  0
  161.1410  208.1230  151.1540 C   0  0  0  0  0  0  0  0  0  0  0  0
  160.9780  207.0420  150.6460 C   0  0  0  0  0  0  0  0  0  0  0  0
  161.2010  201.8990  148.2710 C   0  0  0  0  0  2  0  0  0  0  0  0
  160.6260  204.6770  150.8160 C   0  0  0  0  0  3  0  0  0  0  0  0
  160.1080  204.5270  146.2110 F   0  0  0  0  0  0  0  0  0  0  0  0
  160.9690  202.3910  146.8690 C   0  0  0  0  0  0  0  0  0  0  0  0
  160.8000  205.6070  148.5530 C   0  0  0  0  0  2  0  0  0  0  0  0
  160.7910  205.7510  150.0470 C   0  0  0  0  0  0  0  0  0  0  0  0
  159.7140  201.8390  146.2240 C   0  0  0  0  0  2  0  0  0  0  0  0
  161.5060  203.1500  149.0790 C   0  0  2  0  0  3  0  0  0  0  0  0
  161.0850  201.4170  145.7150 C   0  0  0  0  0  2  0  0  0  0  0  0
  160.4550  203.3330  150.1780 C   0  0  0  0  0  2  0  0  0  0  0  0
  161.5960  204.3620  148.1070 C   0  0  1  0  0  3  0  0  0  0  0  0
  161.2400  203.8820  146.6900 C   0  0  2  0  0  0  0  0  0  0  0  0
  162.4020  204.1600  145.7240 C   0  0  0  0  0  2  0  0  0  0  0  0
  162.2450  205.4370  144.9580 C   0  0  0  0  0  3  0  0  0  0  0  0
  161.5110  205.4640  143.8520 C   0  0  0  0  0  2  0  0  0  0  0  0
  161.9580  210.7100  153.7990 C   0  0  0  0  0  2  0  0  0  0  0  0
  158.5340  212.1960  154.5070 C   0  0  0  0  0  0  0  0  0  0  0  0
  157.6020  213.5720  154.3040 S   0  0  0  0  0  0  0  0  0  0  0  0
  156.4600  211.4550  154.8820 C   0  0  0  0  0  0  0  0  0  0  0  0
  156.1440  212.7910  154.6320 C   0  0  0  0  0  3  0  0  0  0  0  0
  159.7610  210.8550  156.7700 O   0  0  0  0  0  1  0  0  0  0  0  0
  155.4210  210.4440  155.2090 C   0  0  0  0  0  1  0  0  0  0  0  0
  160.7030  210.4880  155.8370 N   0  0  0  0  0  0  0  0  0  0  0  0
  159.9460  212.1480  154.2920 N   0  0  0  0  0  2  0  0  0  0  0  0
  157.7760  211.1230  154.8060 N   0  0  0  0  0  0  0  0  0  0  0  0
  160.8070  211.0680  154.6800 C   0  0  0  0  0  0  0  0  0  0  0  0
  1 45  1  0  0  0  0
  2  1  2  0  0  0  0
  3  5  1  0  0  0  0
  4  3  2  0  0  0  0
  5  2  1  0  0  0  0
  7  3  1  0  0  0  0
  7  6  1  1  0  0  0
  8  7  1  0  0  0  0
  9 12  1  0  0  0  0
 10 14  2  0  0  0  0
 10 11  1  0  0  0  0
 11  9  2  0  0  0  0
 12 13  2  0  0  0  0
 13  8  1  0  0  0  0
 15 13  1  0  0  0  0
 16 14  1  6  0  0  0
 16  9  1  0  0  0  0
 16 15  1  0  0  0  0
 17 10  1  0  0  0  0
 18 23  1  0  0  0  0
 19 21  1  6  0  0  0
 19 20  1  0  0  0  0
 20 23  1  0  0  0  0
 20 17  1  0  0  0  0
 22 24  1  0  0  0  0
 22 19  1  0  0  0  0
 24 25  1  6  0  0  0
 24 18  1  0  0  0  0
 26 25  1  0  0  0  0
 27 25  2  0  0  0  0
 28  2  1  0  0  0  0
 29 28  3  0  0  0  0
 33 30  1  0  0  0  0
 34 35  1  0  0  0  0
 35 29  1  0  0  0  0
 35 31  2  0  0  0  0
 36 33  1  0  0  0  0
 37 30  1  6  0  0  0
 37 39  1  0  0  0  0
 38 36  1  0  0  0  0
 38 33  1  0  0  0  0
 39 31  1  0  0  0  0
 40 34  1  1  0  0  0
 40 37  1  0  0  0  0
 41 32  1  6  0  0  0
 41 33  1  0  0  0  0
 41 40  1  0  0  0  0
 42 41  1  0  0  0  0
 43 42  1  0  0  0  0
 44 43  2  0  0  0  0
 45 55  1  0  0  0  0
 46 54  2  0  0  0  0
 47 46  1  0  0  0  0
 47 49  1  0  0  0  0
 48 51  1  0  0  0  0
 49 48  2  0  0  0  0
 52 50  1  0  0  0  0
 53 46  1  0  0  0  0
 53 55  1  0  0  0  0
 54 48  1  0  0  0  0
 55 52  2  0  0  0  0
M  END
>  <MODEL>
1

>  <REMARK>
 VINA RESULT:      -8.4      0.000      0.000
  Name = 
  13 active torsions:
  status: ('A' for Active; 'I' for Inactive)
    1  A    between atoms: C_5  and  C_28
    2  A    between atoms: C_11  and  C_55
    3  A    between atoms: C_12  and  C_33
    4  A    between atoms: C_13  and  C_54
    5  A    between atoms: C_14  and  C_16
    6  A    between atoms: C_14  and  N_17
    7  A    between atoms: C_18  and  C_37
    8  A    between atoms: C_18  and  N_39
    9  A    between atoms: C_24  and  C_47
   10  A    between atoms: C_28  and  C_53
   11  A    between atoms: C_31  and  C_40
   12  A    between atoms: C_33  and  C_43
   13  A    between atoms: C_47  and  C_54
                            x       y       z     vdW  Elec       q    Type
                         _______ _______ _______ _____ _____    ______ ____

>  <TORSDO>
F 13

$$$$
=
 OpenBabel11052410233D

 55 61  0  0  1  0  0  0  0  0999 V2000
  162.1400  209.2600  151.9750 C   0  0  0  0  0  3  0  0  0  0  0  0
  161.8390  209.3790  150.6820 C   0  0  0  0  0  0  0  0  0  0  0  0
  161.9850  211.2020  148.8780 C   0  0  0  0  0  0  0  0  0  0  0  0
  162.6930  210.5140  148.0930 O   0  0  0  0  0  0  0  0  0  0  0  0
  161.5320  210.6700  150.1290 N   0  0  0  0  0  2  0  0  0  0  0  0
  161.0950  213.3460  149.7380 C   0  0  0  0  0  1  0  0  0  0  0  0
  161.6070  212.5990  148.5160 C   0  0  2  0  0  3  0  0  0  0  0  0
  160.5620  212.5920  147.4080 C   0  0  0  0  0  2  0  0  0  0  0  0
  162.3870  213.9080  144.6450 C   0  0  0  0  0  0  0  0  0  0  0  0
  162.2450  213.9460  142.4400 C   0  0  0  0  0  0  0  0  0  0  0  0
  163.1330  213.6390  143.5900 C   0  0  0  0  0  3  0  0  0  0  0  0
  162.3740  213.2650  145.9050 N   0  0  0  0  0  0  0  0  0  0  0  0
  161.0960  213.2260  146.1690 C   0  0  0  0  0  0  0  0  0  0  0  0
  160.9890  214.2230  142.8180 C   0  0  0  0  0  3  0  0  0  0  0  0
  160.2370  213.7080  145.1130 N   0  0  0  0  0  2  0  0  0  0  0  0
  161.0740  214.1910  144.2630 C   0  0  1  0  0  3  0  0  0  0  0  0
  162.6800  213.8870  141.0160 C   0  0  0  0  0  2  0  0  0  0  0  0
  163.2430  211.1850  138.5640 C   0  0  0  0  0  2  0  0  0  0  0  0
  161.1630  212.3540  140.0470 C   0  0  2  0  0  3  0  0  0  0  0  0
  162.5540  212.5280  140.5140 N   0  0  0  0  0  0  0  0  0  0  0  0
  160.5680  211.0870  140.6400 C   0  0  0  0  0  1  0  0  0  0  0  0
  160.9830  212.3880  138.5180 C   0  0  0  0  0  2  0  0  0  0  0  0
  163.5700  212.3660  139.4670 C   0  0  0  0  0  2  0  0  0  0  0  0
  161.9800  211.4960  137.7650 C   0  0  2  0  0  3  0  0  0  0  0  0
  161.3340  210.2470  137.2570 C   0  0  0  0  0  0  0  0  0  0  0  0
  162.1140  209.1250  137.0110 O   0  0  0  0  0  0  0  0  0  0  0  0
  160.0940  210.2050  137.0420 O   0  0  0  0  0  1  0  0  0  0  0  0
  161.8510  208.1910  149.8710 C   0  0  0  0  0  0  0  0  0  0  0  0
  161.8670  207.2010  149.1840 C   0  0  0  0  0  0  0  0  0  0  0  0
  160.9930  202.6660  145.8950 C   0  0  0  0  0  2  0  0  0  0  0  0
  162.0580  206.1410  147.0410 C   0  0  0  0  0  3  0  0  0  0  0  0
  162.0410  202.0310  149.1880 F   0  0  0  0  0  0  0  0  0  0  0  0
  161.1020  201.6690  147.0140 C   0  0  0  0  0  0  0  0  0  0  0  0
  161.7000  204.6710  148.9720 C   0  0  0  0  0  2  0  0  0  0  0  0
  161.8890  206.0280  148.3570 C   0  0  0  0  0  0  0  0  0  0  0  0
  162.2310  200.6730  146.8430 C   0  0  0  0  0  2  0  0  0  0  0  0
  160.8760  204.0170  146.5830 C   0  0  2  0  0  3  0  0  0  0  0  0
  160.7840  200.2130  146.7410 C   0  0  0  0  0  2  0  0  0  0  0  0
  162.0540  204.9100  146.1880 C   0  0  0  0  0  2  0  0  0  0  0  0
  160.7680  203.7850  148.1180 C   0  0  1  0  0  3  0  0  0  0  0  0
  160.9250  202.2810  148.4010 C   0  0  2  0  0  0  0  0  0  0  0  0
  159.6860  201.7420  149.1310 C   0  0  0  0  0  2  0  0  0  0  0  0
  159.9050  201.5350  150.5980 C   0  0  0  0  0  3  0  0  0  0  0  0
  160.1090  202.5780  151.3940 C   0  0  0  0  0  2  0  0  0  0  0  0
  162.2070  210.4300  152.9060 C   0  0  0  0  0  2  0  0  0  0  0  0
  159.4480  211.7290  155.1720 C   0  0  0  0  0  0  0  0  0  0  0  0
  159.0540  212.9630  156.2320 S   0  0  0  0  0  0  0  0  0  0  0  0
  157.2250  211.5710  155.3200 C   0  0  0  0  0  0  0  0  0  0  0  0
  157.3980  212.6470  156.1910 C   0  0  0  0  0  3  0  0  0  0  0  0
  159.9830  208.8880  155.4260 O   0  0  0  0  0  1  0  0  0  0  0  0
  155.8840  211.0030  155.0220 C   0  0  0  0  0  1  0  0  0  0  0  0
  160.8090  209.1100  154.3480 N   0  0  0  0  0  0  0  0  0  0  0  0
  160.7720  211.4750  154.6970 N   0  0  0  0  0  2  0  0  0  0  0  0
  158.3520  211.0680  154.7510 N   0  0  0  0  0  0  0  0  0  0  0  0
  161.1860  210.2990  153.9870 C   0  0  0  0  0  0  0  0  0  0  0  0
  1 45  1  0  0  0  0
  2  1  2  0  0  0  0
  3  5  1  0  0  0  0
  4  3  2  0  0  0  0
  5  2  1  0  0  0  0
  7  3  1  0  0  0  0
  7  6  1  1  0  0  0
  8  7  1  0  0  0  0
  9 12  1  0  0  0  0
 10 14  2  0  0  0  0
 10 11  1  0  0  0  0
 11  9  2  0  0  0  0
 12 13  2  0  0  0  0
 13  8  1  0  0  0  0
 15 13  1  0  0  0  0
 16 14  1  6  0  0  0
 16  9  1  0  0  0  0
 16 15  1  0  0  0  0
 17 10  1  0  0  0  0
 18 23  1  0  0  0  0
 19 20  1  0  0  0  0
 19 21  1  6  0  0  0
 20 17  1  0  0  0  0
 22 19  1  0  0  0  0
 23 20  1  0  0  0  0
 24 25  1  1  0  0  0
 24 22  1  0  0  0  0
 24 18  1  0  0  0  0
 26 25  2  0  0  0  0
 27 25  1  0  0  0  0
 28  2  1  0  0  0  0
 29 28  3  0  0  0  0
 30 33  1  0  0  0  0
 31 35  2  0  0  0  0
 33 41  1  0  0  0  0
 35 34  1  0  0  0  0
 35 29  1  0  0  0  0
 36 33  1  0  0  0  0
 37 30  1  6  0  0  0
 37 40  1  0  0  0  0
 38 36  1  0  0  0  0
 38 33  1  0  0  0  0
 39 37  1  0  0  0  0
 39 31  1  0  0  0  0
 40 41  1  0  0  0  0
 40 34  1  1  0  0  0
 41 42  1  0  0  0  0
 41 32  1  1  0  0  0
 42 43  1  0  0  0  0
 43 44  2  0  0  0  0
 45 55  1  0  0  0  0
 46 47  1  0  0  0  0
 48 49  2  0  0  0  0
 49 47  1  0  0  0  0
 51 48  1  0  0  0  0
 52 50  1  0  0  0  0
 53 46  1  0  0  0  0
 54 46  2  0  0  0  0
 54 48  1  0  0  0  0
 55 52  2  0  0  0  0
 55 53  1  0  0  0  0
M  END
>  <MODEL>
2

>  <REMARK>
 VINA RESULT:      -6.0      1.338      2.462
  Name = 
  13 active torsions:
  status: ('A' for Active; 'I' for Inactive)
    1  A    between atoms: C_5  and  C_28
    2  A    between atoms: C_11  and  C_55
    3  A    between atoms: C_12  and  C_33
    4  A    between atoms: C_13  and  C_54
    5  A    between atoms: C_14  and  C_16
    6  A    between atoms: C_14  and  N_17
    7  A    between atoms: C_18  and  C_37
    8  A    between atoms: C_18  and  N_39
    9  A    between atoms: C_24  and  C_47
   10  A    between atoms: C_28  and  C_53
   11  A    between atoms: C_31  and  C_40
   12  A    between atoms: C_33  and  C_43
   13  A    between atoms: C_47  and  C_54
                            x       y       z     vdW  Elec       q    Type
                         _______ _______ _______ _____ _____    ______ ____

>  <TORSDO>
F 13

$$$$
=
 OpenBabel11052410233D

 55 61  0  0  1  0  0  0  0  0999 V2000
  161.8900  207.9810  148.6600 C   0  0  0  0  0  3  0  0  0  0  0  0
  161.8170  209.2730  148.9790 C   0  0  0  0  0  0  0  0  0  0  0  0
  161.9610  211.6950  148.1380 C   0  0  0  0  0  0  0  0  0  0  0  0
  161.6030  212.2070  149.2330 O   0  0  0  0  0  0  0  0  0  0  0  0
  162.1010  210.2770  147.9910 N   0  0  0  0  0  2  0  0  0  0  0  0
  162.7340  213.9340  147.4170 C   0  0  0  0  0  1  0  0  0  0  0  0
  162.2450  212.5680  146.9610 C   0  0  2  0  0  3  0  0  0  0  0  0
  161.0010  212.7010  146.0920 C   0  0  0  0  0  2  0  0  0  0  0  0
  162.3720  214.0160  143.0770 C   0  0  0  0  0  0  0  0  0  0  0  0
  161.9140  214.0110  140.9150 C   0  0  0  0  0  0  0  0  0  0  0  0
  162.9660  213.7500  141.9300 C   0  0  0  0  0  3  0  0  0  0  0  0
  162.5580  213.3960  144.3350 N   0  0  0  0  0  0  0  0  0  0  0  0
  161.3330  213.3270  144.7800 C   0  0  0  0  0  0  0  0  0  0  0  0
  160.7170  214.2600  141.4660 C   0  0  0  0  0  3  0  0  0  0  0  0
  160.3180  213.7660  143.8520 N   0  0  0  0  0  2  0  0  0  0  0  0
  161.0100  214.2570  142.8840 C   0  0  1  0  0  3  0  0  0  0  0  0
  162.1420  213.9390  139.4450 C   0  0  0  0  0  2  0  0  0  0  0  0
  160.2730  210.7620  139.6630 C   0  0  0  0  0  2  0  0  0  0  0  0
  162.7920  211.7350  138.8870 C   0  0  2  0  0  3  0  0  0  0  0  0
  161.6500  212.6720  138.9280 N   0  0  0  0  0  0  0  0  0  0  0  0
  162.8770  211.0760  137.5200 C   0  0  0  0  0  1  0  0  0  0  0  0
  162.8080  210.6830  140.0120 C   0  0  0  0  0  2  0  0  0  0  0  0
  160.5520  212.2520  139.8080 C   0  0  0  0  0  2  0  0  0  0  0  0
  161.4610  209.9710  140.2040 C   0  0  2  0  0  3  0  0  0  0  0  0
  161.4850  208.5800  139.6570 C   0  0  0  0  0  0  0  0  0  0  0  0
  162.1100  207.5720  140.3780 O   0  0  0  0  0  1  0  0  0  0  0  0
  160.9530  208.3160  138.5460 O   0  0  0  0  0  0  0  0  0  0  0  0
  161.4320  209.6190  150.3220 C   0  0  0  0  0  0  0  0  0  0  0  0
  161.1150  209.9170  151.4460 C   0  0  0  0  0  0  0  0  0  0  0  0
  158.8970  210.7740  156.5930 C   0  0  0  0  0  2  0  0  0  0  0  0
  161.2240  209.5850  153.8180 C   0  0  0  0  0  3  0  0  0  0  0  0
  158.7940  213.4950  154.3710 F   0  0  0  0  0  0  0  0  0  0  0  0
  158.2770  212.1010  156.2490 C   0  0  0  0  0  0  0  0  0  0  0  0
  159.8090  211.4250  153.0240 C   0  0  0  0  0  2  0  0  0  0  0  0
  160.7470  210.2780  152.7860 C   0  0  0  0  0  0  0  0  0  0  0  0
  158.8020  213.2560  157.0770 C   0  0  0  0  0  2  0  0  0  0  0  0
  159.2970  210.1720  155.2550 C   0  0  2  0  0  3  0  0  0  0  0  0
  157.3690  212.7750  157.2560 C   0  0  0  0  0  2  0  0  0  0  0  0
  160.8120  209.9580  155.2090 C   0  0  0  0  0  2  0  0  0  0  0  0
  158.7700  211.0920  154.1160 C   0  0  1  0  0  3  0  0  0  0  0  0
  158.1270  212.3370  154.7490 C   0  0  2  0  0  0  0  0  0  0  0  0
  156.6590  212.4600  154.3150 C   0  0  0  0  0  2  0  0  0  0  0  0
  156.2730  213.8500  153.9120 C   0  0  0  0  0  3  0  0  0  0  0  0
  155.0710  214.0840  153.3960 C   0  0  0  0  0  2  0  0  0  0  0  0
  162.2330  207.5010  147.2840 C   0  0  0  0  0  2  0  0  0  0  0  0
  161.3320  203.8840  148.0220 C   0  0  0  0  0  0  0  0  0  0  0  0
  160.8030  202.8550  149.2300 S   0  0  0  0  0  0  0  0  0  0  0  0
  160.6320  202.0940  146.8830 C   0  0  0  0  0  0  0  0  0  0  0  0
  160.3510  201.6270  148.1670 C   0  0  0  0  0  3  0  0  0  0  0  0
  163.8130  204.2380  146.5570 O   0  0  0  0  0  1  0  0  0  0  0  0
  160.3620  201.2820  145.6680 C   0  0  0  0  0  1  0  0  0  0  0  0
  163.4150  205.5550  146.5160 N   0  0  0  0  0  0  0  0  0  0  0  0
  161.8080  205.2120  148.2530 N   0  0  0  0  0  2  0  0  0  0  0  0
  161.1660  203.3420  146.7990 N   0  0  0  0  0  0  0  0  0  0  0  0
  162.4850  206.0300  147.2890 C   0  0  0  0  0  0  0  0  0  0  0  0
  1  2  2  0  0  0  0
  2 28  1  0  0  0  0
  3  4  2  0  0  0  0
  5  3  1  0  0  0  0
  5  2  1  0  0  0  0
  7  6  1  1  0  0  0
  7  3  1  0  0  0  0
  8  7  1  0  0  0  0
  9 12  1  0  0  0  0
 10 14  2  0  0  0  0
 10 11  1  0  0  0  0
 11  9  2  0  0  0  0
 12 13  2  0  0  0  0
 13  8  1  0  0  0  0
 15 13  1  0  0  0  0
 16 14  1  6  0  0  0
 16  9  1  0  0  0  0
 16 15  1  0  0  0  0
 17 10  1  0  0  0  0
 18 23  1  0  0  0  0
 18 24  1  0  0  0  0
 19 21  1  6  0  0  0
 19 20  1  0  0  0  0
 19 22  1  0  0  0  0
 20 17  1  0  0  0  0
 20 23  1  0  0  0  0
 22 24  1  0  0  0  0
 24 25  1  6  0  0  0
 25 26  1  0  0  0  0
 27 25  2  0  0  0  0
 28 29  3  0  0  0  0
 29 35  1  0  0  0  0
 31 39  1  0  0  0  0
 33 30  1  0  0  0  0
 33 36  1  0  0  0  0
 33 38  1  0  0  0  0
 35 34  1  0  0  0  0
 35 31  2  0  0  0  0
 36 38  1  0  0  0  0
 37 39  1  1  0  0  0
 37 30  1  0  0  0  0
 40 34  1  6  0  0  0
 40 41  1  0  0  0  0
 40 37  1  0  0  0  0
 41 32  1  6  0  0  0
 41 33  1  0  0  0  0
 42 41  1  0  0  0  0
 43 42  1  0  0  0  0
 44 43  2  0  0  0  0
 45 55  1  0  0  0  0
 45  1  1  0  0  0  0
 46 53  1  0  0  0  0
 46 47  1  0  0  0  0
 48 49  2  0  0  0  0
 49 47  1  0  0  0  0
 51 48  1  0  0  0  0
 52 50  1  0  0  0  0
 52 55  2  0  0  0  0
 54 48  1  0  0  0  0
 54 46  2  0  0  0  0
 55 53  1  0  0  0  0
M  END
>  <MODEL>
3

>  <REMARK>
 VINA RESULT:      -5.8      3.536      8.256
  Name = 
  13 active torsions:
  status: ('A' for Active; 'I' for Inactive)
    1  A    between atoms: C_5  and  C_28
    2  A    between atoms: C_11  and  C_55
    3  A    between atoms: C_12  and  C_33
    4  A    between atoms: C_13  and  C_54
    5  A    between atoms: C_14  and  C_16
    6  A    between atoms: C_14  and  N_17
    7  A    between atoms: C_18  and  C_37
    8  A    between atoms: C_18  and  N_39
    9  A    between atoms: C_24  and  C_47
   10  A    between atoms: C_28  and  C_53
   11  A    between atoms: C_31  and  C_40
   12  A    between atoms: C_33  and  C_43
   13  A    between atoms: C_47  and  C_54
                            x       y       z     vdW  Elec       q    Type
                         _______ _______ _______ _____ _____    ______ ____

>  <TORSDO>
F 13

$$$$
