=
 OpenBabel11042420383D

 45 49  0  0  1  0  0  0  0  0999 V2000
  161.6210  208.5410  152.0880 C   0  0  0  0  0  0  0  0  0  0  0  0
  161.1410  206.4430  153.2190 C   0  0  0  0  0  0  0  0  0  0  0  0
  160.7350  207.1550  154.3900 N   0  0  0  0  0  0  0  0  0  0  0  0
  161.1150  205.1410  153.2360 N   0  0  0  0  0  0  0  0  0  0  0  0
  161.6000  207.2080  152.0510 C   0  0  0  0  0  3  0  0  0  0  0  0
  160.7480  208.4540  154.4700 C   0  0  0  0  0  0  0  0  0  0  0  0
  161.1980  209.3110  153.3120 C   0  0  0  0  0  2  0  0  0  0  0  0
  162.5320  204.3970  151.5100 O   0  0  0  0  0  0  0  0  0  0  0  0
  161.4690  204.2440  152.1700 C   0  0  0  0  0  0  0  0  0  0  0  0
  160.3590  202.9020  150.3350 C   0  0  1  0  0  3  0  0  0  0  0  0
  161.2730  202.0510  151.1130 N   0  0  0  0  0  2  0  0  0  0  0  0
  160.5330  203.1310  151.7900 C   0  0  1  0  0  3  0  0  0  0  0  0
  161.1600  203.8220  149.4080 C   0  0  2  0  0  3  0  0  0  0  0  0
  160.3950  204.9570  149.1320 O   0  0  0  0  0  1  0  0  0  0  0  0
  161.5230  203.1060  148.1010 C   0  0  1  0  0  3  0  0  0  0  0  0
  160.6730  201.9380  147.9040 N   0  0  0  0  0  2  0  0  0  0  0  0
  161.4840  200.8530  147.9380 O   0  0  0  0  0  1  0  0  0  0  0  0
  161.4070  204.0500  146.9030 C   0  0  2  0  0  3  0  0  0  0  0  0
  161.2110  203.3280  145.7200 O   0  0  0  0  0  1  0  0  0  0  0  0
  162.5850  205.6140  145.5520 O   0  0  0  0  0  0  0  0  0  0  0  0
  162.2530  206.3510  146.7050 C   0  0  0  0  0  2  0  0  0  0  0  0
  162.6410  204.9260  146.7770 C   0  0  1  0  0  3  0  0  0  0  0  0
  162.1140  209.3000  150.9040 C   0  0  0  0  0  2  0  0  0  0  0  0
  161.9640  208.5000  149.7020 N   0  0  0  0  0  2  0  0  0  0  0  0
  162.0360  209.3850  148.6200 N   0  0  0  0  0  2  0  0  0  0  0  0
  162.0800  210.7250  149.1800 C   0  0  0  0  0  2  0  0  0  0  0  0
  162.3050  211.6930  148.1210 N   0  0  0  0  0  2  0  0  0  0  0  0
  161.5730  212.7930  148.4250 O   0  0  0  0  0  0  0  0  0  0  0  0
  159.2090  212.7140  144.4520 C   0  0  0  0  0  2  0  0  0  0  0  0
  160.6960  212.5890  144.1140 C   0  0  0  0  0  2  0  0  0  0  0  0
  159.8170  212.2860  146.8970 C   0  0  0  0  0  2  0  0  0  0  0  0
  161.0050  213.1870  147.2130 C   0  0  2  0  0  3  0  0  0  0  0  0
  161.5490  213.6550  144.7840 C   0  0  0  0  0  2  0  0  0  0  0  0
  158.8830  212.9940  145.9220 C   0  0  2  0  0  3  0  0  0  0  0  0
  157.4520  212.5770  146.2010 C   0  0  0  0  0  1  0  0  0  0  0  0
  162.0670  213.1270  146.1180 C   0  0  0  0  0  2  0  0  0  0  0  0
  160.3340  209.1110  155.6380 O   0  0  0  0  0  0  0  0  0  0  0  0
  162.1490  211.3090  156.4960 O   0  0  0  0  0  0  0  0  0  0  0  0
  158.8570  211.0590  155.4890 C   0  0  0  0  0  3  0  0  0  0  0  0
  158.9680  212.5420  155.7500 C   0  0  1  0  0  3  0  0  0  0  0  0
  160.9470  211.4920  156.1770 C   0  0  0  0  0  0  0  0  0  0  0  0
  160.3200  212.7190  156.1720 O   0  0  0  0  0  0  0  0  0  0  0  0
  160.0220  210.4750  155.7490 C   0  0  0  0  0  0  0  0  0  0  0  0
  157.4280  212.8400  153.8200 C   0  0  0  0  0  1  0  0  0  0  0  0
  158.7190  213.3060  154.4610 C   0  0  0  0  0  2  0  0  0  0  0  0
  1  7  1  0  0  0  0
  2  4  2  0  0  0  0
  2  3  1  0  0  0  0
  3  6  2  0  0  0  0
  5  1  2  0  0  0  0
  5  2  1  0  0  0  0
  6 37  1  0  0  0  0
  7  6  1  0  0  0  0
  8  9  2  0  0  0  0
  9  4  1  0  0  0  0
 10 13  1  6  0  0  0
 10 11  1  0  0  0  0
 10 12  1  0  0  0  0
 11 12  1  0  0  0  0
 12  9  1  6  0  0  0
 13 14  1  6  0  0  0
 15 16  1  6  0  0  0
 15 13  1  0  0  0  0
 16 17  1  0  0  0  0
 18 19  1  6  0  0  0
 18 15  1  0  0  0  0
 20 21  1  0  0  0  0
 20 22  1  0  0  0  0
 21 22  1  0  0  0  0
 22 18  1  6  0  0  0
 23  1  1  0  0  0  0
 24 23  1  0  0  0  0
 25 26  1  0  0  0  0
 25 24  1  0  0  0  0
 27 28  1  0  0  0  0
 27 26  1  0  0  0  0
 29 34  1  0  0  0  0
 30 29  1  0  0  0  0
 30 33  1  0  0  0  0
 31 32  1  0  0  0  0
 32 28  1  1  0  0  0
 33 36  1  0  0  0  0
 34 35  1  1  0  0  0
 34 31  1  0  0  0  0
 36 32  1  0  0  0  0
 37 43  1  0  0  0  0
 39 43  2  0  0  0  0
 39 40  1  0  0  0  0
 40 45  1  6  0  0  0
 40 42  1  0  0  0  0
 41 38  2  0  0  0  0
 42 41  1  0  0  0  0
 43 41  1  0  0  0  0
 44 45  1  0  0  0  0
M  END
>  <MODEL>
1

>  <REMARK>
 VINA RESULT:      -7.5      0.000      0.000
  Name = 
  17 active torsions:
  status: ('A' for Active; 'I' for Inactive)
    1  A    between atoms: C_2  and  C_17
    2  A    between atoms: N_4  and  C_9
    3  A    between atoms: N_4  and  N_29
    4  A    between atoms: C_6  and  N_18
    5  A    between atoms: C_6  and  N_29
    6  A    between atoms: C_7  and  C_14
    7  A    between atoms: C_7  and  C_43
    8  A    between atoms: C_9  and  C_12
    9  A    between atoms: N_13  and  C_14
   10  A    between atoms: C_14  and  C_17
   11  A    between atoms: N_18  and  O_30
   12  A    between atoms: C_20  and  O_30
   13  A    between atoms: C_22  and  C_27
   14  A    between atoms: N_33  and  C_35
   15  A    between atoms: C_35  and  C_41
   16  A    between atoms: C_38  and  O_44
   17  A    between atoms: C_40  and  O_44
                            x       y       z     vdW  Elec       q    Type
                         _______ _______ _______ _____ _____    ______ ____

>  <TORSDO>
F 17

$$$$
=
 OpenBabel11042420383D

 45 49  0  0  1  0  0  0  0  0999 V2000
  161.8580  208.1290  149.1670 C   0  0  0  0  0  0  0  0  0  0  0  0
  161.6280  209.0930  151.3860 C   0  0  0  0  0  0  0  0  0  0  0  0
  161.8870  210.3960  150.8580 N   0  0  0  0  0  0  0  0  0  0  0  0
  161.4250  208.9640  152.6660 N   0  0  0  0  0  0  0  0  0  0  0  0
  161.6310  207.9450  150.4670 C   0  0  0  0  0  3  0  0  0  0  0  0
  162.1210  210.6160  149.5970 C   0  0  0  0  0  0  0  0  0  0  0  0
  162.1350  209.4930  148.5900 C   0  0  0  0  0  2  0  0  0  0  0  0
  160.6080  206.7620  152.8240 O   0  0  0  0  0  0  0  0  0  0  0  0
  161.1390  207.7550  153.3900 C   0  0  0  0  0  0  0  0  0  0  0  0
  161.1190  208.9090  155.6420 C   0  0  1  0  0  3  0  0  0  0  0  0
  160.1690  207.7850  155.6300 N   0  0  0  0  0  2  0  0  0  0  0  0
  161.4230  207.6840  154.8640 C   0  0  1  0  0  3  0  0  0  0  0  0
  160.5470  210.0870  154.8450 C   0  0  2  0  0  3  0  0  0  0  0  0
  161.3740  211.1970  155.0310 O   0  0  0  0  0  1  0  0  0  0  0  0
  159.1200  210.4170  155.2980 C   0  0  1  0  0  3  0  0  0  0  0  0
  159.1170  210.8950  156.6750 N   0  0  0  0  0  2  0  0  0  0  0  0
  159.0980  212.2480  156.6210 O   0  0  0  0  0  1  0  0  0  0  0  0
  158.4740  211.4560  154.3780 C   0  0  2  0  0  3  0  0  0  0  0  0
  157.0800  211.3410  154.4020 O   0  0  0  0  0  1  0  0  0  0  0  0
  158.2490  212.1800  152.1240 O   0  0  0  0  0  0  0  0  0  0  0  0
  159.5470  212.5940  152.4800 C   0  0  0  0  0  2  0  0  0  0  0  0
  158.9820  211.3130  152.9530 C   0  0  1  0  0  3  0  0  0  0  0  0
  161.8840  206.9510  148.2530 C   0  0  0  0  0  2  0  0  0  0  0  0
  160.5850  206.7790  147.6270 N   0  0  0  0  0  2  0  0  0  0  0  0
  160.7930  206.8620  146.2450 N   0  0  0  0  0  2  0  0  0  0  0  0
  160.1950  205.6740  145.6630 C   0  0  0  0  0  2  0  0  0  0  0  0
  161.1620  205.0040  144.8100 N   0  0  0  0  0  2  0  0  0  0  0  0
  162.0720  204.4170  145.6250 O   0  0  0  0  0  0  0  0  0  0  0  0
  160.8380  201.6330  149.1050 C   0  0  0  0  0  2  0  0  0  0  0  0
  161.1270  200.7560  147.8850 C   0  0  0  0  0  2  0  0  0  0  0  0
  161.9140  203.5830  147.8520 C   0  0  0  0  0  2  0  0  0  0  0  0
  161.3200  203.5760  146.4480 C   0  0  2  0  0  3  0  0  0  0  0  0
  160.4010  201.2240  146.6320 C   0  0  0  0  0  2  0  0  0  0  0  0
  160.8550  203.1440  148.8560 C   0  0  2  0  0  3  0  0  0  0  0  0
  161.0820  203.8610  150.1730 C   0  0  0  0  0  1  0  0  0  0  0  0
  161.3010  202.1730  145.8470 C   0  0  0  0  0  2  0  0  0  0  0  0
  162.3640  211.9140  149.1220 O   0  0  0  0  0  0  0  0  0  0  0  0
  162.5680  212.9800  146.3500 O   0  0  0  0  0  0  0  0  0  0  0  0
  160.2850  213.1940  148.9310 C   0  0  0  0  0  3  0  0  0  0  0  0
  159.6120  214.0430  147.8770 C   0  0  1  0  0  3  0  0  0  0  0  0
  161.5990  213.2230  147.1140 C   0  0  0  0  0  0  0  0  0  0  0  0
  160.5100  213.9960  146.7690 O   0  0  0  0  0  0  0  0  0  0  0  0
  161.4380  212.7340  148.4590 C   0  0  0  0  0  0  0  0  0  0  0  0
  157.4150  213.2460  148.7290 C   0  0  0  0  0  1  0  0  0  0  0  0
  158.2800  213.4210  147.4970 C   0  0  0  0  0  2  0  0  0  0  0  0
  1  5  2  0  0  0  0
  2  4  2  0  0  0  0
  3  2  1  0  0  0  0
  4  9  1  0  0  0  0
  5  2  1  0  0  0  0
  6  3  2  0  0  0  0
  7  1  1  0  0  0  0
  7  6  1  0  0  0  0
  8  9  2  0  0  0  0
 10 13  1  6  0  0  0
 11 10  1  0  0  0  0
 12  9  1  6  0  0  0
 12 11  1  0  0  0  0
 12 10  1  0  0  0  0
 13 14  1  1  0  0  0
 13 15  1  0  0  0  0
 15 16  1  1  0  0  0
 17 16  1  0  0  0  0
 18 19  1  6  0  0  0
 18 15  1  0  0  0  0
 20 21  1  0  0  0  0
 20 22  1  0  0  0  0
 21 22  1  0  0  0  0
 22 18  1  1  0  0  0
 23  1  1  0  0  0  0
 24 23  1  0  0  0  0
 25 24  1  0  0  0  0
 26 25  1  0  0  0  0
 27 28  1  0  0  0  0
 27 26  1  0  0  0  0
 30 29  1  0  0  0  0
 31 34  1  0  0  0  0
 32 28  1  6  0  0  0
 32 31  1  0  0  0  0
 33 30  1  0  0  0  0
 34 29  1  0  0  0  0
 34 35  1  1  0  0  0
 36 32  1  0  0  0  0
 36 33  1  0  0  0  0
 37  6  1  0  0  0  0
 38 41  2  0  0  0  0
 40 45  1  6  0  0  0
 40 39  1  0  0  0  0
 41 43  1  0  0  0  0
 42 41  1  0  0  0  0
 42 40  1  0  0  0  0
 43 39  2  0  0  0  0
 43 37  1  0  0  0  0
 45 44  1  0  0  0  0
M  END
>  <MODEL>
2

>  <REMARK>
 VINA RESULT:      -7.4      2.267      8.480
  Name = 
  17 active torsions:
  status: ('A' for Active; 'I' for Inactive)
    1  A    between atoms: C_2  and  C_17
    2  A    between atoms: N_4  and  C_9
    3  A    between atoms: N_4  and  N_29
    4  A    between atoms: C_6  and  N_18
    5  A    between atoms: C_6  and  N_29
    6  A    between atoms: C_7  and  C_14
    7  A    between atoms: C_7  and  C_43
    8  A    between atoms: C_9  and  C_12
    9  A    between atoms: N_13  and  C_14
   10  A    between atoms: C_14  and  C_17
   11  A    between atoms: N_18  and  O_30
   12  A    between atoms: C_20  and  O_30
   13  A    between atoms: C_22  and  C_27
   14  A    between atoms: N_33  and  C_35
   15  A    between atoms: C_35  and  C_41
   16  A    between atoms: C_38  and  O_44
   17  A    between atoms: C_40  and  O_44
                            x       y       z     vdW  Elec       q    Type
                         _______ _______ _______ _____ _____    ______ ____

>  <TORSDO>
F 17

$$$$
=
 OpenBabel11042420383D

 45 49  0  0  1  0  0  0  0  0999 V2000
  161.6530  209.1320  151.0750 C   0  0  0  0  0  0  0  0  0  0  0  0
  161.3120  207.4230  152.7700 C   0  0  0  0  0  0  0  0  0  0  0  0
  160.9170  208.4220  153.7130 N   0  0  0  0  0  0  0  0  0  0  0  0
  161.3480  206.1790  153.1520 N   0  0  0  0  0  0  0  0  0  0  0  0
  161.6930  207.8440  151.4140 C   0  0  0  0  0  3  0  0  0  0  0  0
  160.8720  209.6900  153.4250 C   0  0  0  0  0  0  0  0  0  0  0  0
  161.2390  210.2010  152.0540 C   0  0  0  0  0  2  0  0  0  0  0  0
  162.8000  204.9760  151.7430 O   0  0  0  0  0  0  0  0  0  0  0  0
  161.7050  205.0300  152.3640 C   0  0  0  0  0  0  0  0  0  0  0  0
  160.4110  203.4820  150.8380 C   0  0  1  0  0  3  0  0  0  0  0  0
  161.4020  202.7250  151.6180 N   0  0  0  0  0  2  0  0  0  0  0  0
  160.7350  203.8900  152.2260 C   0  0  1  0  0  3  0  0  0  0  0  0
  161.1100  204.2690  149.7240 C   0  0  2  0  0  3  0  0  0  0  0  0
  160.2620  205.2940  149.2990 O   0  0  0  0  0  1  0  0  0  0  0  0
  161.4610  203.3570  148.5420 C   0  0  1  0  0  3  0  0  0  0  0  0
  160.5810  202.1950  148.5130 N   0  0  0  0  0  2  0  0  0  0  0  0
  161.3760  201.1000  148.5720 O   0  0  0  0  0  1  0  0  0  0  0  0
  161.3780  204.1140  147.2150 C   0  0  2  0  0  3  0  0  0  0  0  0
  161.2190  203.2260  146.1470 O   0  0  0  0  0  1  0  0  0  0  0  0
  162.5490  205.5390  145.7140 O   0  0  0  0  0  0  0  0  0  0  0  0
  162.2290  206.3840  146.7940 C   0  0  0  0  0  2  0  0  0  0  0  0
  162.6140  204.9710  146.9980 C   0  0  1  0  0  3  0  0  0  0  0  0
  162.0670  209.5450  149.7040 C   0  0  0  0  0  2  0  0  0  0  0  0
  162.0130  210.9910  149.5830 N   0  0  0  0  0  2  0  0  0  0  0  0
  162.3880  211.2960  148.2690 N   0  0  0  0  0  2  0  0  0  0  0  0
  162.4860  212.7430  148.1890 C   0  0  0  0  0  2  0  0  0  0  0  0
  162.8620  213.1370  146.8420 N   0  0  0  0  0  2  0  0  0  0  0  0
  161.9340  214.0300  146.4160 O   0  0  0  0  0  0  0  0  0  0  0  0
  159.8670  212.7160  142.4940 C   0  0  0  0  0  2  0  0  0  0  0  0
  158.8270  213.4400  143.3510 C   0  0  0  0  0  2  0  0  0  0  0  0
  161.6620  213.5860  144.0910 C   0  0  0  0  0  2  0  0  0  0  0  0
  161.1530  213.3200  145.5030 C   0  0  2  0  0  3  0  0  0  0  0  0
  158.7620  212.9130  144.7770 C   0  0  0  0  0  2  0  0  0  0  0  0
  161.2190  212.4590  143.1660 C   0  0  2  0  0  3  0  0  0  0  0  0
  162.2720  212.2410  142.0970 C   0  0  0  0  0  1  0  0  0  0  0  0
  159.6920  213.7320  145.6650 C   0  0  0  0  0  2  0  0  0  0  0  0
  160.4700  210.6350  154.3810 O   0  0  0  0  0  0  0  0  0  0  0  0
  159.2450  210.7480  157.0920 O   0  0  0  0  0  0  0  0  0  0  0  0
  158.1750  211.3110  153.8590 C   0  0  0  0  0  3  0  0  0  0  0  0
  156.9090  211.5860  154.6350 C   0  0  1  0  0  3  0  0  0  0  0  0
  158.6100  211.0020  156.0370 C   0  0  0  0  0  0  0  0  0  0  0  0
  157.2830  211.3720  155.9960 O   0  0  0  0  0  0  0  0  0  0  0  0
  159.1450  210.9710  154.7000 C   0  0  0  0  0  0  0  0  0  0  0  0
  157.1970  213.6130  153.2230 C   0  0  0  0  0  1  0  0  0  0  0  0
  156.4890  213.0310  154.4300 C   0  0  0  0  0  2  0  0  0  0  0  0
  1  5  2  0  0  0  0
  1  7  1  0  0  0  0
  2  4  2  0  0  0  0
  2  3  1  0  0  0  0
  5  2  1  0  0  0  0
  6  3  2  0  0  0  0
  6 37  1  0  0  0  0
  7  6  1  0  0  0  0
  8  9  2  0  0  0  0
  9  4  1  0  0  0  0
 10 13  1  6  0  0  0
 10 11  1  0  0  0  0
 10 12  1  0  0  0  0
 11 12  1  0  0  0  0
 12  9  1  6  0  0  0
 13 14  1  6  0  0  0
 15 16  1  6  0  0  0
 15 13  1  0  0  0  0
 16 17  1  0  0  0  0
 18 19  1  6  0  0  0
 18 15  1  0  0  0  0
 20 21  1  0  0  0  0
 20 22  1  0  0  0  0
 21 22  1  0  0  0  0
 22 18  1  6  0  0  0
 23  1  1  0  0  0  0
 24 23  1  0  0  0  0
 25 24  1  0  0  0  0
 26 25  1  0  0  0  0
 27 26  1  0  0  0  0
 28 27  1  0  0  0  0
 29 34  1  0  0  0  0
 29 30  1  0  0  0  0
 30 33  1  0  0  0  0
 31 32  1  0  0  0  0
 32 36  1  0  0  0  0
 32 28  1  1  0  0  0
 33 36  1  0  0  0  0
 34 35  1  6  0  0  0
 34 31  1  0  0  0  0
 37 43  1  0  0  0  0
 39 40  1  0  0  0  0
 39 43  2  0  0  0  0
 40 45  1  1  0  0  0
 40 42  1  0  0  0  0
 41 38  2  0  0  0  0
 42 41  1  0  0  0  0
 43 41  1  0  0  0  0
 44 45  1  0  0  0  0
M  END
>  <MODEL>
3

>  <REMARK>
 VINA RESULT:      -7.3      1.333      2.023
  Name = 
  17 active torsions:
  status: ('A' for Active; 'I' for Inactive)
    1  A    between atoms: C_2  and  C_17
    2  A    between atoms: N_4  and  C_9
    3  A    between atoms: N_4  and  N_29
    4  A    between atoms: C_6  and  N_18
    5  A    between atoms: C_6  and  N_29
    6  A    between atoms: C_7  and  C_14
    7  A    between atoms: C_7  and  C_43
    8  A    between atoms: C_9  and  C_12
    9  A    between atoms: N_13  and  C_14
   10  A    between atoms: C_14  and  C_17
   11  A    between atoms: N_18  and  O_30
   12  A    between atoms: C_20  and  O_30
   13  A    between atoms: C_22  and  C_27
   14  A    between atoms: N_33  and  C_35
   15  A    between atoms: C_35  and  C_41
   16  A    between atoms: C_38  and  O_44
   17  A    between atoms: C_40  and  O_44
                            x       y       z     vdW  Elec       q    Type
                         _______ _______ _______ _____ _____    ______ ____

>  <TORSDO>
F 17

$$$$
=
 OpenBabel11042420383D

 45 49  0  0  1  0  0  0  0  0999 V2000
  161.6880  208.3280  149.8820 C   0  0  0  0  0  0  0  0  0  0  0  0
  161.2060  207.5770  152.1430 C   0  0  0  0  0  0  0  0  0  0  0  0
  160.8960  206.2700  151.6540 N   0  0  0  0  0  0  0  0  0  0  0  0
  161.0970  207.8110  153.4190 N   0  0  0  0  0  0  0  0  0  0  0  0
  161.6050  208.6150  151.1810 C   0  0  0  0  0  3  0  0  0  0  0  0
  160.9570  205.9520  150.3930 C   0  0  0  0  0  0  0  0  0  0  0  0
  161.3650  206.9580  149.3450 C   0  0  0  0  0  2  0  0  0  0  0  0
  161.7690  210.0660  153.4930 O   0  0  0  0  0  0  0  0  0  0  0  0
  161.3690  209.0420  154.1100 C   0  0  0  0  0  0  0  0  0  0  0  0
  160.4580  210.2540  156.1360 C   0  0  1  0  0  3  0  0  0  0  0  0
  159.8190  208.9360  155.9940 N   0  0  0  0  0  2  0  0  0  0  0  0
  161.2300  209.1050  155.6050 C   0  0  1  0  0  3  0  0  0  0  0  0
  159.8940  211.2250  155.0930 C   0  0  2  0  0  3  0  0  0  0  0  0
  160.3480  212.5120  155.3870 O   0  0  0  0  0  1  0  0  0  0  0  0
  158.3610  211.2000  155.0890 C   0  0  1  0  0  3  0  0  0  0  0  0
  157.8330  212.0110  156.1800 N   0  0  0  0  0  2  0  0  0  0  0  0
  156.6580  211.4500  156.5530 O   0  0  0  0  0  1  0  0  0  0  0  0
  157.8030  211.6900  153.7520 C   0  0  2  0  0  3  0  0  0  0  0  0
  158.6170  211.2750  152.6930 O   0  0  0  0  0  1  0  0  0  0  0  0
  157.3710  213.6190  152.4290 O   0  0  0  0  0  0  0  0  0  0  0  0
  156.2970  213.5900  153.3390 C   0  0  0  0  0  2  0  0  0  0  0  0
  157.6660  213.2030  153.7390 C   0  0  1  0  0  3  0  0  0  0  0  0
  162.0690  209.3990  148.9170 C   0  0  0  0  0  2  0  0  0  0  0  0
  162.1000  210.6850  149.5890 N   0  0  0  0  0  2  0  0  0  0  0  0
  162.4000  211.6410  148.6100 N   0  0  0  0  0  2  0  0  0  0  0  0
  161.4140  212.6990  148.7450 C   0  0  0  0  0  2  0  0  0  0  0  0
  161.4580  213.5640  147.5790 N   0  0  0  0  0  2  0  0  0  0  0  0
  162.4940  213.1440  146.8110 O   0  0  0  0  0  0  0  0  0  0  0  0
  160.6070  213.0930  142.5900 C   0  0  0  0  0  2  0  0  0  0  0  0
  162.0750  212.6840  142.4510 C   0  0  0  0  0  2  0  0  0  0  0  0
  160.8540  212.8020  145.1170 C   0  0  0  0  0  2  0  0  0  0  0  0
  162.1440  213.5120  145.5120 C   0  0  2  0  0  3  0  0  0  0  0  0
  163.0280  213.6470  143.1430 C   0  0  0  0  0  2  0  0  0  0  0  0
  160.1780  213.5630  143.9830 C   0  0  2  0  0  3  0  0  0  0  0  0
  158.6730  213.4260  144.1120 C   0  0  0  0  0  1  0  0  0  0  0  0
  163.2920  213.1680  144.5660 C   0  0  0  0  0  2  0  0  0  0  0  0
  160.6500  204.6540  149.9590 O   0  0  0  0  0  0  0  0  0  0  0  0
  160.2360  201.8420  149.0750 O   0  0  0  0  0  0  0  0  0  0  0  0
  161.6240  204.6930  147.7130 C   0  0  0  0  0  3  0  0  0  0  0  0
  161.8360  203.7040  146.5910 C   0  0  1  0  0  3  0  0  0  0  0  0
  160.7960  202.7140  148.3630 C   0  0  0  0  0  0  0  0  0  0  0  0
  161.2770  202.4900  147.0910 O   0  0  0  0  0  0  0  0  0  0  0  0
  161.0200  204.0880  148.7300 C   0  0  0  0  0  0  0  0  0  0  0  0
  161.0520  205.6740  145.2910 C   0  0  0  0  0  1  0  0  0  0  0  0
  161.0760  204.1610  145.3580 C   0  0  0  0  0  2  0  0  0  0  0  0
  1  5  2  0  0  0  0
  2  4  2  0  0  0  0
  3  2  1  0  0  0  0
  4  9  1  0  0  0  0
  5  2  1  0  0  0  0
  6  3  2  0  0  0  0
  7  1  1  0  0  0  0
  7  6  1  0  0  0  0
  8  9  2  0  0  0  0
 10 13  1  6  0  0  0
 11 10  1  0  0  0  0
 12  9  1  6  0  0  0
 12 11  1  0  0  0  0
 12 10  1  0  0  0  0
 13 14  1  1  0  0  0
 15 13  1  0  0  0  0
 15 16  1  1  0  0  0
 16 17  1  0  0  0  0
 18 19  1  6  0  0  0
 18 15  1  0  0  0  0
 20 21  1  0  0  0  0
 20 22  1  0  0  0  0
 21 22  1  0  0  0  0
 22 18  1  6  0  0  0
 23 24  1  0  0  0  0
 23  1  1  0  0  0  0
 25 26  1  0  0  0  0
 25 24  1  0  0  0  0
 27 26  1  0  0  0  0
 28 27  1  0  0  0  0
 29 34  1  0  0  0  0
 30 29  1  0  0  0  0
 30 33  1  0  0  0  0
 31 32  1  0  0  0  0
 32 28  1  1  0  0  0
 33 36  1  0  0  0  0
 34 35  1  6  0  0  0
 34 31  1  0  0  0  0
 36 32  1  0  0  0  0
 37  6  1  0  0  0  0
 39 43  2  0  0  0  0
 40 45  1  6  0  0  0
 40 42  1  0  0  0  0
 40 39  1  0  0  0  0
 41 43  1  0  0  0  0
 41 38  2  0  0  0  0
 42 41  1  0  0  0  0
 43 37  1  0  0  0  0
 44 45  1  0  0  0  0
M  END
>  <MODEL>
4

>  <REMARK>
 VINA RESULT:      -7.1      2.029      8.116
  Name = 
  17 active torsions:
  status: ('A' for Active; 'I' for Inactive)
    1  A    between atoms: C_2  and  C_17
    2  A    between atoms: N_4  and  C_9
    3  A    between atoms: N_4  and  N_29
    4  A    between atoms: C_6  and  N_18
    5  A    between atoms: C_6  and  N_29
    6  A    between atoms: C_7  and  C_14
    7  A    between atoms: C_7  and  C_43
    8  A    between atoms: C_9  and  C_12
    9  A    between atoms: N_13  and  C_14
   10  A    between atoms: C_14  and  C_17
   11  A    between atoms: N_18  and  O_30
   12  A    between atoms: C_20  and  O_30
   13  A    between atoms: C_22  and  C_27
   14  A    between atoms: N_33  and  C_35
   15  A    between atoms: C_35  and  C_41
   16  A    between atoms: C_38  and  O_44
   17  A    between atoms: C_40  and  O_44
                            x       y       z     vdW  Elec       q    Type
                         _______ _______ _______ _____ _____    ______ ____

>  <TORSDO>
F 17

$$$$
=
 OpenBabel11042420383D

 45 49  0  0  1  0  0  0  0  0999 V2000
  161.6260  208.2760  151.0050 C   0  0  0  0  0  0  0  0  0  0  0  0
  161.1110  210.4690  151.9180 C   0  0  0  0  0  0  0  0  0  0  0  0
  161.5410  211.0870  150.7030 N   0  0  0  0  0  0  0  0  0  0  0  0
  160.6970  211.2250  152.8940 N   0  0  0  0  0  0  0  0  0  0  0  0
  161.1820  209.0040  152.0280 C   0  0  0  0  0  3  0  0  0  0  0  0
  161.9890  210.4130  149.6840 C   0  0  0  0  0  0  0  0  0  0  0  0
  162.0850  208.9070  149.7160 C   0  0  0  0  0  2  0  0  0  0  0  0
  159.1600  210.1280  154.3000 O   0  0  0  0  0  0  0  0  0  0  0  0
  160.2170  210.8060  154.1830 C   0  0  0  0  0  0  0  0  0  0  0  0
  160.4150  212.4270  156.1150 C   0  0  1  0  0  3  0  0  0  0  0  0
  160.0780  211.0810  156.6050 N   0  0  0  0  0  2  0  0  0  0  0  0
  160.9490  211.2280  155.4260 C   0  0  1  0  0  3  0  0  0  0  0  0
  159.1820  213.0780  155.4770 C   0  0  2  0  0  3  0  0  0  0  0  0
  159.4610  214.4250  155.2360 O   0  0  0  0  0  1  0  0  0  0  0  0
  157.9590  212.9530  156.3920 C   0  0  1  0  0  3  0  0  0  0  0  0
  157.6910  214.2180  157.0660 N   0  0  0  0  0  2  0  0  0  0  0  0
  156.3530  214.2840  157.2600 O   0  0  0  0  0  1  0  0  0  0  0  0
  156.7250  212.5030  155.6070 C   0  0  2  0  0  3  0  0  0  0  0  0
  156.5530  211.1180  155.7020 O   0  0  0  0  0  1  0  0  0  0  0  0
  155.5360  212.9450  153.5950 O   0  0  0  0  0  0  0  0  0  0  0  0
  156.1130  214.1880  153.9220 C   0  0  0  0  0  2  0  0  0  0  0  0
  156.8280  212.9140  154.1480 C   0  0  1  0  0  3  0  0  0  0  0  0
  161.7160  206.7940  151.1420 C   0  0  0  0  0  2  0  0  0  0  0  0
  161.6490  206.4210  152.5440 N   0  0  0  0  0  2  0  0  0  0  0  0
  161.5620  205.0240  152.5820 N   0  0  0  0  0  2  0  0  0  0  0  0
  160.7980  204.6220  151.4140 C   0  0  0  0  0  2  0  0  0  0  0  0
  161.1360  203.2560  151.0510 N   0  0  0  0  0  2  0  0  0  0  0  0
  160.2310  202.8560  150.1250 O   0  0  0  0  0  0  0  0  0  0  0  0
  161.6880  203.5520  145.7920 C   0  0  0  0  0  2  0  0  0  0  0  0
  160.8670  202.2610  145.8070 C   0  0  0  0  0  2  0  0  0  0  0  0
  160.8040  204.0410  148.1390 C   0  0  0  0  0  2  0  0  0  0  0  0
  160.9590  202.7530  148.9380 C   0  0  2  0  0  3  0  0  0  0  0  0
  161.3020  201.2940  146.8980 C   0  0  0  0  0  2  0  0  0  0  0  0
  161.9650  204.1800  147.1610 C   0  0  2  0  0  3  0  0  0  0  0  0
  162.2950  205.6480  146.9770 C   0  0  0  0  0  1  0  0  0  0  0  0
  160.4730  201.5370  148.1540 C   0  0  0  0  0  2  0  0  0  0  0  0
  162.3930  211.0620  148.5080 O   0  0  0  0  0  0  0  0  0  0  0  0
  163.3530  213.8660  148.2220 O   0  0  0  0  0  0  0  0  0  0  0  0
  160.5360  212.0990  147.2940 C   0  0  0  0  0  3  0  0  0  0  0  0
  160.2050  213.4740  146.7630 C   0  0  1  0  0  3  0  0  0  0  0  0
  162.2440  213.4680  147.7840 C   0  0  0  0  0  0  0  0  0  0  0  0
  161.3400  214.2640  147.1130 O   0  0  0  0  0  0  0  0  0  0  0  0
  161.7260  212.1280  147.8850 C   0  0  0  0  0  0  0  0  0  0  0  0
  159.1150  212.2900  144.8650 C   0  0  0  0  0  1  0  0  0  0  0  0
  160.0560  213.4130  145.2520 C   0  0  0  0  0  2  0  0  0  0  0  0
  1 23  1  0  0  0  0
  1  5  2  0  0  0  0
  2  5  1  0  0  0  0
  2  4  2  0  0  0  0
  3  2  1  0  0  0  0
  4  9  1  0  0  0  0
  6  7  1  0  0  0  0
  6  3  2  0  0  0  0
  7  1  1  0  0  0  0
  9  8  2  0  0  0  0
 10 13  1  6  0  0  0
 10 11  1  0  0  0  0
 12  9  1  6  0  0  0
 12 10  1  0  0  0  0
 12 11  1  0  0  0  0
 13 14  1  1  0  0  0
 13 15  1  0  0  0  0
 15 16  1  6  0  0  0
 16 17  1  0  0  0  0
 18 19  1  6  0  0  0
 18 15  1  0  0  0  0
 20 21  1  0  0  0  0
 20 22  1  0  0  0  0
 21 22  1  0  0  0  0
 22 18  1  1  0  0  0
 23 24  1  0  0  0  0
 24 25  1  0  0  0  0
 26 25  1  0  0  0  0
 27 26  1  0  0  0  0
 28 27  1  0  0  0  0
 29 30  1  0  0  0  0
 29 34  1  0  0  0  0
 30 33  1  0  0  0  0
 31 32  1  0  0  0  0
 32 28  1  1  0  0  0
 33 36  1  0  0  0  0
 34 35  1  6  0  0  0
 34 31  1  0  0  0  0
 36 32  1  0  0  0  0
 37  6  1  0  0  0  0
 39 43  2  0  0  0  0
 40 45  1  6  0  0  0
 40 42  1  0  0  0  0
 40 39  1  0  0  0  0
 41 43  1  0  0  0  0
 41 38  2  0  0  0  0
 42 41  1  0  0  0  0
 43 37  1  0  0  0  0
 44 45  1  0  0  0  0
M  END
>  <MODEL>
5

>  <REMARK>
 VINA RESULT:      -7.0      2.400      9.609
  Name = 
  17 active torsions:
  status: ('A' for Active; 'I' for Inactive)
    1  A    between atoms: C_2  and  C_17
    2  A    between atoms: N_4  and  C_9
    3  A    between atoms: N_4  and  N_29
    4  A    between atoms: C_6  and  N_18
    5  A    between atoms: C_6  and  N_29
    6  A    between atoms: C_7  and  C_14
    7  A    between atoms: C_7  and  C_43
    8  A    between atoms: C_9  and  C_12
    9  A    between atoms: N_13  and  C_14
   10  A    between atoms: C_14  and  C_17
   11  A    between atoms: N_18  and  O_30
   12  A    between atoms: C_20  and  O_30
   13  A    between atoms: C_22  and  C_27
   14  A    between atoms: N_33  and  C_35
   15  A    between atoms: C_35  and  C_41
   16  A    between atoms: C_38  and  O_44
   17  A    between atoms: C_40  and  O_44
                            x       y       z     vdW  Elec       q    Type
                         _______ _______ _______ _____ _____    ______ ____

>  <TORSDO>
F 17

$$$$
=
 OpenBabel11042420383D

 45 49  0  0  1  0  0  0  0  0999 V2000
  161.6420  211.7400  149.0490 C   0  0  0  0  0  0  0  0  0  0  0  0
  160.1430  213.5990  149.5040 C   0  0  0  0  0  0  0  0  0  0  0  0
  160.3520  214.1040  148.1830 N   0  0  0  0  0  0  0  0  0  0  0  0
  159.3620  214.2580  150.3110 N   0  0  0  0  0  0  0  0  0  0  0  0
  160.8420  212.3710  149.9090 C   0  0  0  0  0  3  0  0  0  0  0  0
  161.1310  213.5230  147.3160 C   0  0  0  0  0  0  0  0  0  0  0  0
  161.8770  212.2560  147.6530 C   0  0  0  0  0  2  0  0  0  0  0  0
  159.6710  214.3680  152.6410 O   0  0  0  0  0  0  0  0  0  0  0  0
  159.0140  213.9190  151.6630 C   0  0  0  0  0  0  0  0  0  0  0  0
  158.1410  211.9190  152.9430 C   0  0  1  0  0  3  0  0  0  0  0  0
  157.3870  213.1300  153.3050 N   0  0  0  0  0  2  0  0  0  0  0  0
  157.8820  212.9670  151.9260 C   0  0  1  0  0  3  0  0  0  0  0  0
  159.5250  211.9460  153.6010 C   0  0  2  0  0  3  0  0  0  0  0  0
  160.4170  211.2340  152.7970 O   0  0  0  0  0  1  0  0  0  0  0  0
  159.4800  211.3320  155.0040 C   0  0  1  0  0  3  0  0  0  0  0  0
  158.1650  210.7590  155.2710 N   0  0  0  0  0  2  0  0  0  0  0  0
  157.6310  211.4640  156.2960 O   0  0  0  0  0  1  0  0  0  0  0  0
  160.5640  210.2660  155.1760 C   0  0  2  0  0  3  0  0  0  0  0  0
  160.0000  208.9860  155.2040 O   0  0  0  0  0  1  0  0  0  0  0  0
  162.3300  209.4880  156.5660 O   0  0  0  0  0  0  0  0  0  0  0  0
  162.7900  210.7390  156.1100 C   0  0  0  0  0  2  0  0  0  0  0  0
  161.3680  210.5050  156.4420 C   0  0  1  0  0  3  0  0  0  0  0  0
  162.3630  210.5110  149.4850 C   0  0  0  0  0  2  0  0  0  0  0  0
  162.0000  209.3930  148.6320 N   0  0  0  0  0  2  0  0  0  0  0  0
  162.4530  208.2350  149.2760 N   0  0  0  0  0  2  0  0  0  0  0  0
  161.7160  208.1360  150.5230 C   0  0  0  0  0  2  0  0  0  0  0  0
  161.9390  206.8320  151.1240 N   0  0  0  0  0  2  0  0  0  0  0  0
  160.7930  206.1230  150.9720 O   0  0  0  0  0  0  0  0  0  0  0  0
  161.0860  202.3960  148.2510 C   0  0  0  0  0  2  0  0  0  0  0  0
  160.3390  201.9890  149.5220 C   0  0  0  0  0  2  0  0  0  0  0  0
  160.8070  204.8320  148.9690 C   0  0  0  0  0  2  0  0  0  0  0  0
  161.2020  204.8990  150.4400 C   0  0  2  0  0  3  0  0  0  0  0  0
  161.0660  202.3960  150.7940 C   0  0  0  0  0  2  0  0  0  0  0  0
  161.6780  203.8090  148.2520 C   0  0  2  0  0  3  0  0  0  0  0  0
  161.9030  204.2540  146.8200 C   0  0  0  0  0  1  0  0  0  0  0  0
  160.5730  203.7660  151.2470 C   0  0  0  0  0  2  0  0  0  0  0  0
  161.3010  214.0510  146.0280 O   0  0  0  0  0  0  0  0  0  0  0  0
  159.2190  212.2580  144.8830 O   0  0  0  0  0  0  0  0  0  0  0  0
  162.3950  213.2650  143.9830 C   0  0  0  0  0  3  0  0  0  0  0  0
  162.0520  212.3360  142.8430 C   0  0  1  0  0  3  0  0  0  0  0  0
  160.3350  212.4540  144.3400 C   0  0  0  0  0  0  0  0  0  0  0  0
  160.7350  211.8800  143.1520 O   0  0  0  0  0  0  0  0  0  0  0  0
  161.3800  213.3110  144.8390 C   0  0  0  0  0  0  0  0  0  0  0  0
  163.0410  214.2500  141.6010 C   0  0  0  0  0  1  0  0  0  0  0  0
  162.0420  213.1130  141.5380 C   0  0  0  0  0  2  0  0  0  0  0  0
  1 23  1  0  0  0  0
  1  5  2  0  0  0  0
  2  5  1  0  0  0  0
  2  4  2  0  0  0  0
  3  2  1  0  0  0  0
  4  9  1  0  0  0  0
  6  7  1  0  0  0  0
  6  3  2  0  0  0  0
  7  1  1  0  0  0  0
  9  8  2  0  0  0  0
 10 11  1  0  0  0  0
 10 13  1  1  0  0  0
 12  9  1  1  0  0  0
 12 10  1  0  0  0  0
 12 11  1  0  0  0  0
 13 14  1  6  0  0  0
 13 15  1  0  0  0  0
 15 18  1  0  0  0  0
 15 16  1  6  0  0  0
 16 17  1  0  0  0  0
 18 19  1  1  0  0  0
 21 22  1  0  0  0  0
 21 20  1  0  0  0  0
 22 18  1  6  0  0  0
 22 20  1  0  0  0  0
 24 25  1  0  0  0  0
 24 23  1  0  0  0  0
 25 26  1  0  0  0  0
 26 27  1  0  0  0  0
 28 27  1  0  0  0  0
 29 34  1  0  0  0  0
 29 30  1  0  0  0  0
 30 33  1  0  0  0  0
 31 32  1  0  0  0  0
 32 28  1  1  0  0  0
 32 36  1  0  0  0  0
 33 36  1  0  0  0  0
 34 35  1  6  0  0  0
 34 31  1  0  0  0  0
 37  6  1  0  0  0  0
 39 43  2  0  0  0  0
 40 45  1  6  0  0  0
 40 42  1  0  0  0  0
 40 39  1  0  0  0  0
 41 43  1  0  0  0  0
 41 38  2  0  0  0  0
 42 41  1  0  0  0  0
 43 37  1  0  0  0  0
 45 44  1  0  0  0  0
M  END
>  <MODEL>
6

>  <REMARK>
 VINA RESULT:      -6.9      2.558     10.027
  Name = 
  17 active torsions:
  status: ('A' for Active; 'I' for Inactive)
    1  A    between atoms: C_2  and  C_17
    2  A    between atoms: N_4  and  C_9
    3  A    between atoms: N_4  and  N_29
    4  A    between atoms: C_6  and  N_18
    5  A    between atoms: C_6  and  N_29
    6  A    between atoms: C_7  and  C_14
    7  A    between atoms: C_7  and  C_43
    8  A    between atoms: C_9  and  C_12
    9  A    between atoms: N_13  and  C_14
   10  A    between atoms: C_14  and  C_17
   11  A    between atoms: N_18  and  O_30
   12  A    between atoms: C_20  and  O_30
   13  A    between atoms: C_22  and  C_27
   14  A    between atoms: N_33  and  C_35
   15  A    between atoms: C_35  and  C_41
   16  A    between atoms: C_38  and  O_44
   17  A    between atoms: C_40  and  O_44
                            x       y       z     vdW  Elec       q    Type
                         _______ _______ _______ _____ _____    ______ ____

>  <TORSDO>
F 17

$$$$
=
 OpenBabel11042420383D

 45 49  0  0  1  0  0  0  0  0999 V2000
  161.6230  207.1810  150.5780 C   0  0  0  0  0  0  0  0  0  0  0  0
  161.7490  207.8120  148.2330 C   0  0  0  0  0  0  0  0  0  0  0  0
  161.9250  209.1820  148.6010 N   0  0  0  0  0  0  0  0  0  0  0  0
  161.7090  207.5020  146.9690 N   0  0  0  0  0  0  0  0  0  0  0  0
  161.5880  206.8110  149.2980 C   0  0  0  0  0  3  0  0  0  0  0  0
  161.9570  209.5860  149.8380 C   0  0  0  0  0  0  0  0  0  0  0  0
  161.8070  208.6200  150.9870 C   0  0  0  0  0  2  0  0  0  0  0  0
  160.4620  205.8360  145.8700 O   0  0  0  0  0  0  0  0  0  0  0  0
  161.5520  206.1940  146.3930 C   0  0  0  0  0  0  0  0  0  0  0  0
  162.3370  203.8600  146.9720 C   0  0  1  0  0  3  0  0  0  0  0  0
  162.4470  204.0950  145.5230 N   0  0  0  0  0  2  0  0  0  0  0  0
  162.6840  205.2080  146.4610 C   0  0  1  0  0  3  0  0  0  0  0  0
  160.8690  203.6430  147.3580 C   0  0  2  0  0  3  0  0  0  0  0  0
  160.6580  204.1760  148.6310 O   0  0  0  0  0  1  0  0  0  0  0  0
  160.5120  202.1520  147.3490 C   0  0  1  0  0  3  0  0  0  0  0  0
  160.8470  201.5530  146.0620 N   0  0  0  0  0  2  0  0  0  0  0  0
  159.8760  201.9220  145.1930 O   0  0  0  0  0  1  0  0  0  0  0  0
  161.2240  201.4060  148.4790 C   0  0  2  0  0  3  0  0  0  0  0  0
  161.5820  200.1160  148.0730 O   0  0  0  0  0  1  0  0  0  0  0  0
  161.0530  200.6490  150.7270 O   0  0  0  0  0  0  0  0  0  0  0  0
  160.9960  202.0510  150.8410 C   0  0  0  0  0  2  0  0  0  0  0  0
  160.3510  201.3350  149.7200 C   0  0  1  0  0  3  0  0  0  0  0  0
  161.4320  206.1580  151.6440 C   0  0  0  0  0  2  0  0  0  0  0  0
  161.8340  206.6990  152.9300 N   0  0  0  0  0  2  0  0  0  0  0  0
  160.8180  206.3710  153.8370 N   0  0  0  0  0  2  0  0  0  0  0  0
  160.9690  207.2650  154.9720 C   0  0  0  0  0  2  0  0  0  0  0  0
  161.2000  208.6200  154.5030 N   0  0  0  0  0  2  0  0  0  0  0  0
  161.0600  209.4400  155.5730 O   0  0  0  0  0  0  0  0  0  0  0  0
  157.7220  212.1860  153.9300 C   0  0  0  0  0  2  0  0  0  0  0  0
  158.5970  211.7570  152.7510 C   0  0  0  0  0  2  0  0  0  0  0  0
  158.8930  210.4030  155.3370 C   0  0  0  0  0  2  0  0  0  0  0  0
  160.3870  210.5580  155.0780 C   0  0  2  0  0  3  0  0  0  0  0  0
  160.0810  211.9760  153.0020 C   0  0  0  0  0  2  0  0  0  0  0  0
  158.2260  211.7730  155.3160 C   0  0  2  0  0  3  0  0  0  0  0  0
  157.0640  211.7820  156.2900 C   0  0  0  0  0  1  0  0  0  0  0  0
  160.6910  210.7070  153.5890 C   0  0  0  0  0  2  0  0  0  0  0  0
  162.1400  210.9420  150.1510 O   0  0  0  0  0  0  0  0  0  0  0  0
  163.6810  212.1030  147.8850 O   0  0  0  0  0  0  0  0  0  0  0  0
  160.6630  212.7560  149.4280 C   0  0  0  0  0  3  0  0  0  0  0  0
  160.6840  213.8300  148.3650 C   0  0  1  0  0  3  0  0  0  0  0  0
  162.5680  212.5490  148.2630 C   0  0  0  0  0  0  0  0  0  0  0  0
  161.9170  213.6150  147.6800 O   0  0  0  0  0  0  0  0  0  0  0  0
  161.7720  212.0300  149.3450 C   0  0  0  0  0  0  0  0  0  0  0  0
  158.2360  213.4210  148.1990 C   0  0  0  0  0  1  0  0  0  0  0  0
  159.5160  213.6290  147.4160 C   0  0  0  0  0  2  0  0  0  0  0  0
  1  7  1  0  0  0  0
  1 23  1  0  0  0  0
  2  3  1  0  0  0  0
  2  5  1  0  0  0  0
  3  6  2  0  0  0  0
  4  2  2  0  0  0  0
  5  1  2  0  0  0  0
  6 37  1  0  0  0  0
  6  7  1  0  0  0  0
  8  9  2  0  0  0  0
  9  4  1  0  0  0  0
 10 13  1  6  0  0  0
 11 12  1  0  0  0  0
 11 10  1  0  0  0  0
 12  9  1  6  0  0  0
 12 10  1  0  0  0  0
 13 14  1  1  0  0  0
 15 16  1  6  0  0  0
 15 13  1  0  0  0  0
 15 18  1  0  0  0  0
 17 16  1  0  0  0  0
 18 19  1  6  0  0  0
 20 21  1  0  0  0  0
 22 18  1  6  0  0  0
 22 20  1  0  0  0  0
 22 21  1  0  0  0  0
 23 24  1  0  0  0  0
 24 25  1  0  0  0  0
 25 26  1  0  0  0  0
 27 26  1  0  0  0  0
 27 28  1  0  0  0  0
 29 34  1  0  0  0  0
 30 33  1  0  0  0  0
 30 29  1  0  0  0  0
 32 31  1  0  0  0  0
 32 28  1  6  0  0  0
 33 36  1  0  0  0  0
 34 31  1  0  0  0  0
 34 35  1  1  0  0  0
 36 32  1  0  0  0  0
 38 41  2  0  0  0  0
 40 45  1  6  0  0  0
 40 39  1  0  0  0  0
 41 43  1  0  0  0  0
 42 41  1  0  0  0  0
 42 40  1  0  0  0  0
 43 39  2  0  0  0  0
 43 37  1  0  0  0  0
 45 44  1  0  0  0  0
M  END
>  <MODEL>
7

>  <REMARK>
 VINA RESULT:      -6.8      1.926      6.396
  Name = 
  17 active torsions:
  status: ('A' for Active; 'I' for Inactive)
    1  A    between atoms: C_2  and  C_17
    2  A    between atoms: N_4  and  C_9
    3  A    between atoms: N_4  and  N_29
    4  A    between atoms: C_6  and  N_18
    5  A    between atoms: C_6  and  N_29
    6  A    between atoms: C_7  and  C_14
    7  A    between atoms: C_7  and  C_43
    8  A    between atoms: C_9  and  C_12
    9  A    between atoms: N_13  and  C_14
   10  A    between atoms: C_14  and  C_17
   11  A    between atoms: N_18  and  O_30
   12  A    between atoms: C_20  and  O_30
   13  A    between atoms: C_22  and  C_27
   14  A    between atoms: N_33  and  C_35
   15  A    between atoms: C_35  and  C_41
   16  A    between atoms: C_38  and  O_44
   17  A    between atoms: C_40  and  O_44
                            x       y       z     vdW  Elec       q    Type
                         _______ _______ _______ _____ _____    ______ ____

>  <TORSDO>
F 17

$$$$
=
 OpenBabel11042420383D

 45 49  0  0  1  0  0  0  0  0999 V2000
  162.0910  210.1750  149.5880 C   0  0  0  0  0  0  0  0  0  0  0  0
  161.6560  208.6940  151.4670 C   0  0  0  0  0  0  0  0  0  0  0  0
  161.5260  207.5840  150.5750 N   0  0  0  0  0  0  0  0  0  0  0  0
  161.4900  208.4960  152.7430 N   0  0  0  0  0  0  0  0  0  0  0  0
  161.9420  210.0220  150.9040 C   0  0  0  0  0  3  0  0  0  0  0  0
  161.6560  207.6930  149.2840 C   0  0  0  0  0  0  0  0  0  0  0  0
  161.9570  209.0190  148.6310 C   0  0  0  0  0  2  0  0  0  0  0  0
  161.9540  210.6490  153.5710 O   0  0  0  0  0  0  0  0  0  0  0  0
  161.5860  209.4650  153.8000 C   0  0  0  0  0  0  0  0  0  0  0  0
  160.4890  210.0050  156.0140 C   0  0  1  0  0  3  0  0  0  0  0  0
  159.8570  208.8270  155.4010 N   0  0  0  0  0  2  0  0  0  0  0  0
  161.3010  209.0550  155.2170 C   0  0  1  0  0  3  0  0  0  0  0  0
  160.0380  211.2790  155.2900 C   0  0  2  0  0  3  0  0  0  0  0  0
  160.3960  212.3850  156.0640 O   0  0  0  0  0  1  0  0  0  0  0  0
  158.5240  211.2730  155.0550 C   0  0  1  0  0  3  0  0  0  0  0  0
  157.8410  212.0310  156.0970 N   0  0  0  0  0  2  0  0  0  0  0  0
  156.5400  211.6540  156.0690 O   0  0  0  0  0  1  0  0  0  0  0  0
  158.1750  211.8390  153.6780 C   0  0  2  0  0  3  0  0  0  0  0  0
  158.7790  211.0870  152.6650 O   0  0  0  0  0  1  0  0  0  0  0  0
  158.9640  213.5550  152.2320 O   0  0  0  0  0  0  0  0  0  0  0  0
  157.6970  214.0180  152.6390 C   0  0  0  0  0  2  0  0  0  0  0  0
  158.5960  213.2940  153.5640 C   0  0  1  0  0  3  0  0  0  0  0  0
  162.3550  211.5320  149.0320 C   0  0  0  0  0  2  0  0  0  0  0  0
  161.3010  211.9020  148.1040 N   0  0  0  0  0  2  0  0  0  0  0  0
  161.8970  212.7000  147.1200 N   0  0  0  0  0  2  0  0  0  0  0  0
  160.8170  213.3720  146.4190 C   0  0  0  0  0  2  0  0  0  0  0  0
  160.9400  213.1410  144.9890 N   0  0  0  0  0  2  0  0  0  0  0  0
  160.1310  212.0970  144.6840 O   0  0  0  0  0  0  0  0  0  0  0  0
  160.8390  212.9240  140.1900 C   0  0  0  0  0  2  0  0  0  0  0  0
  159.9900  214.0680  140.7490 C   0  0  0  0  0  2  0  0  0  0  0  0
  161.2790  212.1900  142.5980 C   0  0  0  0  0  2  0  0  0  0  0  0
  159.9290  212.1960  143.3070 C   0  0  2  0  0  3  0  0  0  0  0  0
  158.7780  213.5830  141.5290 C   0  0  0  0  0  2  0  0  0  0  0  0
  161.0930  211.7570  141.1490 C   0  0  2  0  0  3  0  0  0  0  0  0
  162.3210  210.9960  140.6890 C   0  0  0  0  0  1  0  0  0  0  0  0
  159.1370  213.4660  143.0060 C   0  0  0  0  0  2  0  0  0  0  0  0
  161.5270  206.5730  148.4480 O   0  0  0  0  0  0  0  0  0  0  0  0
  162.1680  204.0360  147.0300 O   0  0  0  0  0  0  0  0  0  0  0  0
  160.5770  204.9040  149.9670 C   0  0  0  0  0  3  0  0  0  0  0  0
  160.4540  203.4000  150.0050 C   0  0  1  0  0  3  0  0  0  0  0  0
  161.5490  204.0780  148.1230 C   0  0  0  0  0  0  0  0  0  0  0  0
  161.1010  202.9690  148.8080 O   0  0  0  0  0  0  0  0  0  0  0  0
  161.2150  205.2690  148.8600 C   0  0  0  0  0  0  0  0  0  0  0  0
  161.0930  203.8420  152.3680 C   0  0  0  0  0  1  0  0  0  0  0  0
  161.1900  202.8590  151.2200 C   0  0  0  0  0  2  0  0  0  0  0  0
  1  5  2  0  0  0  0
  2  4  2  0  0  0  0
  3  2  1  0  0  0  0
  4  9  1  0  0  0  0
  5  2  1  0  0  0  0
  6  3  2  0  0  0  0
  7  6  1  0  0  0  0
  7  1  1  0  0  0  0
  8  9  2  0  0  0  0
 10 13  1  6  0  0  0
 11 10  1  0  0  0  0
 12  9  1  6  0  0  0
 12 11  1  0  0  0  0
 12 10  1  0  0  0  0
 13 14  1  1  0  0  0
 15 13  1  0  0  0  0
 15 16  1  1  0  0  0
 17 16  1  0  0  0  0
 18 19  1  6  0  0  0
 18 15  1  0  0  0  0
 20 21  1  0  0  0  0
 20 22  1  0  0  0  0
 21 22  1  0  0  0  0
 22 18  1  6  0  0  0
 23  1  1  0  0  0  0
 24 23  1  0  0  0  0
 25 24  1  0  0  0  0
 26 25  1  0  0  0  0
 27 26  1  0  0  0  0
 28 27  1  0  0  0  0
 29 30  1  0  0  0  0
 29 34  1  0  0  0  0
 30 33  1  0  0  0  0
 31 32  1  0  0  0  0
 32 28  1  1  0  0  0
 33 36  1  0  0  0  0
 34 35  1  6  0  0  0
 34 31  1  0  0  0  0
 36 32  1  0  0  0  0
 37 43  1  0  0  0  0
 37  6  1  0  0  0  0
 38 41  2  0  0  0  0
 39 40  1  0  0  0  0
 40 45  1  1  0  0  0
 41 42  1  0  0  0  0
 41 43  1  0  0  0  0
 42 40  1  0  0  0  0
 43 39  2  0  0  0  0
 45 44  1  0  0  0  0
M  END
>  <MODEL>
8

>  <REMARK>
 VINA RESULT:      -6.7      2.353      8.050
  Name = 
  17 active torsions:
  status: ('A' for Active; 'I' for Inactive)
    1  A    between atoms: C_2  and  C_17
    2  A    between atoms: N_4  and  C_9
    3  A    between atoms: N_4  and  N_29
    4  A    between atoms: C_6  and  N_18
    5  A    between atoms: C_6  and  N_29
    6  A    between atoms: C_7  and  C_14
    7  A    between atoms: C_7  and  C_43
    8  A    between atoms: C_9  and  C_12
    9  A    between atoms: N_13  and  C_14
   10  A    between atoms: C_14  and  C_17
   11  A    between atoms: N_18  and  O_30
   12  A    between atoms: C_20  and  O_30
   13  A    between atoms: C_22  and  C_27
   14  A    between atoms: N_33  and  C_35
   15  A    between atoms: C_35  and  C_41
   16  A    between atoms: C_38  and  O_44
   17  A    between atoms: C_40  and  O_44
                            x       y       z     vdW  Elec       q    Type
                         _______ _______ _______ _____ _____    ______ ____

>  <TORSDO>
F 17

$$$$
=
 OpenBabel11042420383D

 45 49  0  0  1  0  0  0  0  0999 V2000
  161.9420  211.0410  149.1500 C   0  0  0  0  0  0  0  0  0  0  0  0
  162.1700  208.6690  149.6320 C   0  0  0  0  0  0  0  0  0  0  0  0
  162.2760  208.9520  151.0290 N   0  0  0  0  0  0  0  0  0  0  0  0
  162.2510  207.4320  149.2350 N   0  0  0  0  0  0  0  0  0  0  0  0
  162.0050  209.7900  148.6950 C   0  0  0  0  0  3  0  0  0  0  0  0
  162.2270  210.1600  151.5130 C   0  0  0  0  0  0  0  0  0  0  0  0
  162.0520  211.3620  150.6190 C   0  0  0  0  0  2  0  0  0  0  0  0
  163.1650  206.9110  147.1300 O   0  0  0  0  0  0  0  0  0  0  0  0
  162.1590  206.9360  147.8890 C   0  0  0  0  0  0  0  0  0  0  0  0
  160.4690  205.0740  147.6070 C   0  0  1  0  0  3  0  0  0  0  0  0
  159.9190  206.1450  148.4530 N   0  0  0  0  0  2  0  0  0  0  0  0
  160.8300  206.4890  147.3470 C   0  0  1  0  0  3  0  0  0  0  0  0
  161.4920  204.2530  148.4000 C   0  0  2  0  0  3  0  0  0  0  0  0
  162.2070  203.4490  147.5110 O   0  0  0  0  0  1  0  0  0  0  0  0
  160.7990  203.3800  149.4530 C   0  0  1  0  0  3  0  0  0  0  0  0
  160.8420  201.9750  149.0630 N   0  0  0  0  0  2  0  0  0  0  0  0
  159.5710  201.5120  149.1240 O   0  0  0  0  0  1  0  0  0  0  0  0
  161.4390  203.5630  150.8310 C   0  0  2  0  0  3  0  0  0  0  0  0
  161.2070  202.4440  151.6380 O   0  0  0  0  0  1  0  0  0  0  0  0
  161.1860  204.7260  152.8910 O   0  0  0  0  0  0  0  0  0  0  0  0
  162.0240  205.5670  152.1330 C   0  0  0  0  0  2  0  0  0  0  0  0
  160.9120  204.8130  151.5150 C   0  0  1  0  0  3  0  0  0  0  0  0
  161.8010  212.1680  148.1850 C   0  0  0  0  0  2  0  0  0  0  0  0
  160.4010  212.3650  147.8530 N   0  0  0  0  0  2  0  0  0  0  0  0
  160.3720  213.1200  146.6730 N   0  0  0  0  0  2  0  0  0  0  0  0
  159.9370  212.2240  145.6170 C   0  0  0  0  0  2  0  0  0  0  0  0
  160.5950  212.5760  144.3700 N   0  0  0  0  0  2  0  0  0  0  0  0
  160.2350  211.6440  143.4540 O   0  0  0  0  0  0  0  0  0  0  0  0
  161.7690  211.9300  139.1000 C   0  0  0  0  0  2  0  0  0  0  0  0
  162.9530  212.1950  140.0320 C   0  0  0  0  0  2  0  0  0  0  0  0
  160.4570  211.1220  141.1390 C   0  0  0  0  0  2  0  0  0  0  0  0
  160.6710  212.1620  142.2330 C   0  0  2  0  0  3  0  0  0  0  0  0
  162.6530  213.2460  141.0900 C   0  0  0  0  0  2  0  0  0  0  0  0
  160.4020  211.8110  139.7820 C   0  0  2  0  0  3  0  0  0  0  0  0
  159.4570  211.0530  138.8700 C   0  0  0  0  0  1  0  0  0  0  0  0
  162.1380  212.5640  142.3530 C   0  0  0  0  0  2  0  0  0  0  0  0
  162.3280  210.3900  152.8940 O   0  0  0  0  0  0  0  0  0  0  0  0
  159.5580  211.4790  152.8540 O   0  0  0  0  0  0  0  0  0  0  0  0
  161.3890  209.4290  154.9410 C   0  0  0  0  0  3  0  0  0  0  0  0
  160.0670  209.4780  155.6700 C   0  0  1  0  0  3  0  0  0  0  0  0
  159.9930  210.7330  153.7670 C   0  0  0  0  0  0  0  0  0  0  0  0
  159.2520  210.3160  154.8520 O   0  0  0  0  0  0  0  0  0  0  0  0
  161.3170  210.1700  153.8410 C   0  0  0  0  0  0  0  0  0  0  0  0
  160.5450  207.0450  155.4720 C   0  0  0  0  0  1  0  0  0  0  0  0
  159.4740  208.0810  155.7430 C   0  0  0  0  0  2  0  0  0  0  0  0
  1  7  1  0  0  0  0
  2  3  1  0  0  0  0
  3  6  2  0  0  0  0
  4  2  2  0  0  0  0
  5  1  2  0  0  0  0
  5  2  1  0  0  0  0
  6 37  1  0  0  0  0
  7  6  1  0  0  0  0
  8  9  2  0  0  0  0
  9  4  1  0  0  0  0
 10 13  1  1  0  0  0
 10 11  1  0  0  0  0
 12 10  1  0  0  0  0
 12  9  1  1  0  0  0
 12 11  1  0  0  0  0
 13 14  1  6  0  0  0
 13 15  1  0  0  0  0
 15 16  1  6  0  0  0
 15 18  1  0  0  0  0
 16 17  1  0  0  0  0
 18 19  1  1  0  0  0
 21 20  1  0  0  0  0
 22 18  1  6  0  0  0
 22 21  1  0  0  0  0
 22 20  1  0  0  0  0
 23  1  1  0  0  0  0
 24 23  1  0  0  0  0
 25 24  1  0  0  0  0
 26 25  1  0  0  0  0
 27 26  1  0  0  0  0
 28 27  1  0  0  0  0
 29 34  1  0  0  0  0
 29 30  1  0  0  0  0
 30 33  1  0  0  0  0
 31 32  1  0  0  0  0
 32 36  1  0  0  0  0
 32 28  1  1  0  0  0
 33 36  1  0  0  0  0
 34 35  1  6  0  0  0
 34 31  1  0  0  0  0
 37 43  1  0  0  0  0
 38 41  2  0  0  0  0
 39 40  1  0  0  0  0
 40 45  1  6  0  0  0
 41 43  1  0  0  0  0
 41 42  1  0  0  0  0
 42 40  1  0  0  0  0
 43 39  2  0  0  0  0
 44 45  1  0  0  0  0
M  END
>  <MODEL>
9

>  <REMARK>
 VINA RESULT:      -6.5      2.573      4.577
  Name = 
  17 active torsions:
  status: ('A' for Active; 'I' for Inactive)
    1  A    between atoms: C_2  and  C_17
    2  A    between atoms: N_4  and  C_9
    3  A    between atoms: N_4  and  N_29
    4  A    between atoms: C_6  and  N_18
    5  A    between atoms: C_6  and  N_29
    6  A    between atoms: C_7  and  C_14
    7  A    between atoms: C_7  and  C_43
    8  A    between atoms: C_9  and  C_12
    9  A    between atoms: N_13  and  C_14
   10  A    between atoms: C_14  and  C_17
   11  A    between atoms: N_18  and  O_30
   12  A    between atoms: C_20  and  O_30
   13  A    between atoms: C_22  and  C_27
   14  A    between atoms: N_33  and  C_35
   15  A    between atoms: C_35  and  C_41
   16  A    between atoms: C_38  and  O_44
   17  A    between atoms: C_40  and  O_44
                            x       y       z     vdW  Elec       q    Type
                         _______ _______ _______ _____ _____    ______ ____

>  <TORSDO>
F 17

$$$$
