=
 OpenBabel11042420583D

 46 49  0  0  1  0  0  0  0  0999 V2000
  161.3860  208.9890  155.3680 N   0  0  0  0  0  2  0  0  0  0  0  0
  161.8150  210.1360  154.6650 C   0  0  0  0  0  0  0  0  0  0  0  0
  161.0800  208.6230  152.9990 C   0  0  2  0  0  3  0  0  0  0  0  0
  161.6240  210.0450  153.2000 C   0  0  1  0  0  3  0  0  0  0  0  0
  162.3470  211.1200  155.2420 O   0  0  0  0  0  0  0  0  0  0  0  0
  160.8670  208.0230  154.4170 C   0  0  1  0  0  3  0  0  0  0  0  0
  161.5200  206.7990  154.5930 O   0  0  0  0  0  1  0  0  0  0  0  0
  161.9960  207.7830  152.0910 C   0  0  2  0  0  3  0  0  0  0  0  0
  162.7690  208.6020  151.2530 O   0  0  0  0  0  1  0  0  0  0  0  0
  160.6550  207.4340  149.9680 C   0  0  0  0  0  1  0  0  0  0  0  0
  161.1780  206.7920  151.2560 C   0  0  1  0  0  3  0  0  0  0  0  0
  162.0120  205.5590  150.9430 C   0  0  0  0  0  2  0  0  0  0  0  0
  160.8050  204.8960  152.9550 N   0  0  0  0  0  1  0  0  0  0  0  0
  161.7510  204.4500  151.9480 C   0  0  1  0  0  3  0  0  0  0  0  0
  160.9050  202.1320  147.6120 N   0  0  0  0  0  2  0  0  0  0  0  0
  160.7690  202.2720  151.9380 O   0  0  0  0  0  0  0  0  0  0  0  0
  160.7690  202.0950  149.0310 C   0  0  0  0  0  0  0  0  0  0  0  0
  161.2410  203.1890  149.8300 N   0  0  0  0  0  2  0  0  0  0  0  0
  160.2260  201.0920  149.5680 O   0  0  0  0  0  0  0  0  0  0  0  0
  161.2260  203.2360  151.2600 C   0  0  0  0  0  0  0  0  0  0  0  0
  161.3530  205.6310  146.5460 C   0  0  0  0  0  2  0  0  0  0  0  0
  161.5230  203.2480  146.9110 C   0  0  1  0  0  3  0  0  0  0  0  0
  160.9560  203.3070  145.1810 S   0  0  0  0  0  0  0  0  0  0  0  0
  161.5790  205.7350  144.0800 C   0  0  0  0  0  1  0  0  0  0  0  0
  160.8010  205.1240  145.2270 C   0  0  2  0  0  3  0  0  0  0  0  0
  161.1270  204.5470  147.5740 C   0  0  0  0  0  2  0  0  0  0  0  0
  160.6590  211.0310  152.6980 N   0  0  0  0  0  0  0  0  0  0  0  0
  161.9190  211.5210  149.1820 C   0  0  0  0  0  3  0  0  0  0  0  0
  160.4520  213.3560  149.7550 C   0  0  0  0  0  3  0  0  0  0  0  0
  161.7070  210.9610  150.4450 C   0  0  0  0  0  3  0  0  0  0  0  0
  160.8650  211.5910  151.3800 C   0  0  0  0  0  0  0  0  0  0  0  0
  161.2940  212.7220  148.8300 C   0  0  0  0  0  0  0  0  0  0  0  0
  160.2410  212.7990  151.0190 C   0  0  0  0  0  3  0  0  0  0  0  0
  161.4900  213.3160  147.5760 O   0  0  0  0  0  0  0  0  0  0  0  0
  160.5390  213.2030  146.5180 C   0  0  0  0  0  1  0  0  0  0  0  0
  159.4270  211.2750  153.4680 C   0  0  2  0  0  3  0  0  0  0  0  0
  158.2090  211.3500  152.5590 C   0  0  0  0  0  1  0  0  0  0  0  0
  159.5340  212.5380  154.3120 C   0  0  0  0  0  2  0  0  0  0  0  0
  159.0540  211.6050  156.4380 O   0  0  0  0  0  0  0  0  0  0  0  0
  154.8450  214.3030  155.8210 C   0  0  0  0  0  2  0  0  0  0  0  0
  157.5190  213.2250  155.7260 N   0  0  0  0  0  0  0  0  0  0  0  0
  155.7020  214.1980  157.0820 C   0  0  0  0  0  2  0  0  0  0  0  0
  156.7280  213.0750  156.9550 C   0  0  0  0  0  2  0  0  0  0  0  0
  157.1540  214.2330  154.7330 C   0  0  0  0  0  2  0  0  0  0  0  0
  158.6980  212.4200  155.5450 C   0  0  0  0  0  0  0  0  0  0  0  0
  155.6410  214.2430  154.5170 C   0  0  0  0  0  2  0  0  0  0  0  0
  2  5  2  0  0  0  0
  2  1  1  0  0  0  0
  3  8  1  6  0  0  0
  3  4  1  0  0  0  0
  3  6  1  0  0  0  0
  4 27  1  1  0  0  0
  4  2  1  0  0  0  0
  6  7  1  6  0  0  0
  6  1  1  0  0  0  0
  8  9  1  6  0  0  0
 11 10  1  6  0  0  0
 11  8  1  0  0  0  0
 12 11  1  0  0  0  0
 12 14  1  0  0  0  0
 14 13  1  1  0  0  0
 15 17  1  0  0  0  0
 17 19  2  0  0  0  0
 17 18  1  0  0  0  0
 18 20  1  0  0  0  0
 20 16  2  0  0  0  0
 20 14  1  0  0  0  0
 21 26  1  0  0  0  0
 22 26  1  0  0  0  0
 22 15  1  1  0  0  0
 23 25  1  0  0  0  0
 23 22  1  0  0  0  0
 25 24  1  6  0  0  0
 25 21  1  0  0  0  0
 27 36  1  0  0  0  0
 28 30  1  0  0  0  0
 29 33  2  0  0  0  0
 30 31  2  0  0  0  0
 31 27  1  0  0  0  0
 32 28  2  0  0  0  0
 32 29  1  0  0  0  0
 33 31  1  0  0  0  0
 34 32  1  0  0  0  0
 35 34  1  0  0  0  0
 36 37  1  6  0  0  0
 36 38  1  0  0  0  0
 38 45  1  0  0  0  0
 40 42  1  0  0  0  0
 41 43  1  0  0  0  0
 43 42  1  0  0  0  0
 44 41  1  0  0  0  0
 45 41  1  0  0  0  0
 45 39  2  0  0  0  0
 46 44  1  0  0  0  0
 46 40  1  0  0  0  0
M  END
>  <MODEL>
1

>  <REMARK>
 VINA RESULT:      -6.8      0.000      0.000
  Name = 
  12 active torsions:
  status: ('A' for Active; 'I' for Inactive)
    1  A    between atoms: N_4  and  C_6
    2  A    between atoms: N_4  and  C_25
    3  A    between atoms: N_4  and  C_30
    4  A    between atoms: C_6  and  C_13
    5  A    between atoms: C_7  and  C_17
    6  A    between atoms: C_7  and  C_40
    7  A    between atoms: N_10  and  C_11
    8  A    between atoms: O_12  and  C_35
    9  A    between atoms: C_13  and  C_31
   10  A    between atoms: C_32  and  C_37
   11  A    between atoms: C_32  and  C_40
   12  A    between atoms: C_37  and  C_46
                            x       y       z     vdW  Elec       q    Type
                         _______ _______ _______ _____ _____    ______ ____

>  <TORSDO>
F 12

$$$$
=
 OpenBabel11042420583D

 46 49  0  0  1  0  0  0  0  0999 V2000
  160.7610  210.3570  157.0980 N   0  0  0  0  0  2  0  0  0  0  0  0
  160.8660  211.5750  156.3930 C   0  0  0  0  0  0  0  0  0  0  0  0
  160.5770  209.9160  154.7300 C   0  0  2  0  0  3  0  0  0  0  0  0
  160.7130  211.4320  154.9280 C   0  0  1  0  0  3  0  0  0  0  0  0
  161.1080  212.6680  156.9690 O   0  0  0  0  0  0  0  0  0  0  0  0
  160.5280  209.2840  156.1500 C   0  0  1  0  0  3  0  0  0  0  0  0
  161.4870  208.2830  156.3320 O   0  0  0  0  0  1  0  0  0  0  0  0
  161.6910  209.3540  153.8290 C   0  0  2  0  0  3  0  0  0  0  0  0
  162.0250  210.2590  152.8100 O   0  0  0  0  0  1  0  0  0  0  0  0
  160.0710  207.4070  153.9530 C   0  0  0  0  0  1  0  0  0  0  0  0
  161.2770  208.0070  153.2250 C   0  0  1  0  0  3  0  0  0  0  0  0
  160.9850  208.1680  151.7410 C   0  0  0  0  0  2  0  0  0  0  0  0
  162.6380  206.4170  151.3600 N   0  0  0  0  0  1  0  0  0  0  0  0
  162.1600  207.7080  150.8970 C   0  0  1  0  0  3  0  0  0  0  0  0
  161.3640  204.7620  146.9500 N   0  0  0  0  0  2  0  0  0  0  0  0
  161.4610  208.6650  148.8220 O   0  0  0  0  0  0  0  0  0  0  0  0
  161.4090  206.0950  147.4530 C   0  0  0  0  0  0  0  0  0  0  0  0
  161.7580  206.3370  148.8230 N   0  0  0  0  0  2  0  0  0  0  0  0
  161.1450  207.0520  146.6770 O   0  0  0  0  0  0  0  0  0  0  0  0
  161.7680  207.6190  149.4600 C   0  0  0  0  0  0  0  0  0  0  0  0
  161.0580  201.2820  148.1210 C   0  0  0  0  0  2  0  0  0  0  0  0
  161.6500  203.6000  147.7780 C   0  0  1  0  0  3  0  0  0  0  0  0
  160.7300  203.6920  149.3480 S   0  0  0  0  0  0  0  0  0  0  0  0
  160.7440  201.2460  150.5790 C   0  0  0  0  0  1  0  0  0  0  0  0
  160.3230  201.9150  149.2860 C   0  0  2  0  0  3  0  0  0  0  0  0
  161.2140  202.3440  147.0580 C   0  0  0  0  0  2  0  0  0  0  0  0
  159.5190  212.1180  154.4180 N   0  0  0  0  0  0  0  0  0  0  0  0
  156.7670  212.4210  156.9720 C   0  0  0  0  0  3  0  0  0  0  0  0
  156.1100  210.8060  155.2950 C   0  0  0  0  0  3  0  0  0  0  0  0
  157.9720  212.6280  156.2960 C   0  0  0  0  0  3  0  0  0  0  0  0
  158.2630  211.9270  155.1110 C   0  0  0  0  0  0  0  0  0  0  0  0
  155.8290  211.5070  156.4760 C   0  0  0  0  0  0  0  0  0  0  0  0
  157.3160  211.0100  154.6190 C   0  0  0  0  0  3  0  0  0  0  0  0
  154.6130  211.2690  157.1310 O   0  0  0  0  0  0  0  0  0  0  0  0
  153.9160  210.0290  157.0270 C   0  0  0  0  0  1  0  0  0  0  0  0
  159.6760  213.1110  153.3430 C   0  0  2  0  0  3  0  0  0  0  0  0
  158.6190  214.2020  153.4340 C   0  0  0  0  0  1  0  0  0  0  0  0
  159.6420  212.4590  151.9670 C   0  0  0  0  0  2  0  0  0  0  0  0
  157.3040  212.8160  151.8060 O   0  0  0  0  0  0  0  0  0  0  0  0
  158.5320  213.6220  146.9870 C   0  0  0  0  0  2  0  0  0  0  0  0
  158.4960  213.3360  149.8580 N   0  0  0  0  0  0  0  0  0  0  0  0
  157.5870  214.4530  147.8550 C   0  0  0  0  0  2  0  0  0  0  0  0
  157.2650  213.7320  149.1610 C   0  0  0  0  0  2  0  0  0  0  0  0
  159.7940  213.4850  149.2030 C   0  0  0  0  0  2  0  0  0  0  0  0
  158.4170  212.8720  151.2170 C   0  0  0  0  0  0  0  0  0  0  0  0
  159.7120  213.0200  147.7500 C   0  0  0  0  0  2  0  0  0  0  0  0
  2  5  2  0  0  0  0
  2  1  1  0  0  0  0
  3  8  1  6  0  0  0
  3  4  1  0  0  0  0
  3  6  1  0  0  0  0
  4 27  1  1  0  0  0
  4  2  1  0  0  0  0
  6  7  1  6  0  0  0
  6  1  1  0  0  0  0
  8  9  1  6  0  0  0
 11  8  1  0  0  0  0
 11 10  1  1  0  0  0
 12 11  1  0  0  0  0
 14 13  1  1  0  0  0
 14 12  1  0  0  0  0
 15 17  1  0  0  0  0
 16 20  2  0  0  0  0
 17 18  1  0  0  0  0
 18 20  1  0  0  0  0
 19 17  2  0  0  0  0
 20 14  1  0  0  0  0
 21 25  1  0  0  0  0
 22 15  1  6  0  0  0
 22 23  1  0  0  0  0
 25 23  1  0  0  0  0
 25 24  1  1  0  0  0
 26 22  1  0  0  0  0
 26 21  1  0  0  0  0
 27 31  1  0  0  0  0
 29 32  2  0  0  0  0
 30 28  2  0  0  0  0
 31 30  1  0  0  0  0
 32 28  1  0  0  0  0
 32 34  1  0  0  0  0
 33 31  2  0  0  0  0
 33 29  1  0  0  0  0
 35 34  1  0  0  0  0
 36 37  1  6  0  0  0
 36 27  1  0  0  0  0
 38 36  1  0  0  0  0
 40 46  1  0  0  0  0
 40 42  1  0  0  0  0
 41 45  1  0  0  0  0
 42 43  1  0  0  0  0
 43 41  1  0  0  0  0
 44 41  1  0  0  0  0
 45 39  2  0  0  0  0
 45 38  1  0  0  0  0
 46 44  1  0  0  0  0
M  END
>  <MODEL>
2

>  <REMARK>
 VINA RESULT:      -6.2      2.629      5.667
  Name = 
  12 active torsions:
  status: ('A' for Active; 'I' for Inactive)
    1  A    between atoms: N_4  and  C_6
    2  A    between atoms: N_4  and  C_25
    3  A    between atoms: N_4  and  C_30
    4  A    between atoms: C_6  and  C_13
    5  A    between atoms: C_7  and  C_17
    6  A    between atoms: C_7  and  C_40
    7  A    between atoms: N_10  and  C_11
    8  A    between atoms: O_12  and  C_35
    9  A    between atoms: C_13  and  C_31
   10  A    between atoms: C_32  and  C_37
   11  A    between atoms: C_32  and  C_40
   12  A    between atoms: C_37  and  C_46
                            x       y       z     vdW  Elec       q    Type
                         _______ _______ _______ _____ _____    ______ ____

>  <TORSDO>
F 12

$$$$
=
 OpenBabel11042420583D

 46 49  0  0  1  0  0  0  0  0999 V2000
  162.0790  209.2080  149.2110 N   0  0  0  0  0  2  0  0  0  0  0  0
  162.6040  207.9010  149.1260 C   0  0  0  0  0  0  0  0  0  0  0  0
  161.2510  207.9030  151.0690 C   0  0  2  0  0  3  0  0  0  0  0  0
  162.1200  206.9920  150.1900 C   0  0  1  0  0  3  0  0  0  0  0  0
  163.4390  207.5660  148.2460 O   0  0  0  0  0  0  0  0  0  0  0  0
  161.1880  209.2830  150.3550 C   0  0  1  0  0  3  0  0  0  0  0  0
  161.5790  210.3400  151.1820 O   0  0  0  0  0  1  0  0  0  0  0  0
  161.7700  207.9660  152.5160 C   0  0  2  0  0  3  0  0  0  0  0  0
  162.4820  206.8040  152.8520 O   0  0  0  0  0  1  0  0  0  0  0  0
  160.6480  207.1620  154.6440 C   0  0  0  0  0  1  0  0  0  0  0  0
  160.6160  208.1820  153.5010 C   0  0  1  0  0  3  0  0  0  0  0  0
  160.6530  209.6020  154.0460 C   0  0  0  0  0  2  0  0  0  0  0  0
  160.9350  209.9660  156.4400 N   0  0  0  0  0  1  0  0  0  0  0  0
  159.9640  209.6900  155.3970 C   0  0  1  0  0  3  0  0  0  0  0  0
  157.6250  213.2220  152.7630 N   0  0  0  0  0  2  0  0  0  0  0  0
  158.2220  210.9710  156.4130 O   0  0  0  0  0  0  0  0  0  0  0  0
  157.7710  212.5770  154.0250 C   0  0  0  0  0  0  0  0  0  0  0  0
  158.7300  211.5230  154.1890 N   0  0  0  0  0  2  0  0  0  0  0  0
  157.0520  212.9490  154.9900 O   0  0  0  0  0  0  0  0  0  0  0  0
  158.9190  210.7530  155.3820 C   0  0  0  0  0  0  0  0  0  0  0  0
  160.2760  213.5480  150.2250 C   0  0  0  0  0  2  0  0  0  0  0  0
  158.4110  212.8520  151.5950 C   0  0  1  0  0  3  0  0  0  0  0  0
  157.5630  213.3650  150.0660 S   0  0  0  0  0  0  0  0  0  0  0  0
  159.3090  213.2770  147.9590 C   0  0  0  0  0  1  0  0  0  0  0  0
  159.1260  213.9300  149.3140 C   0  0  2  0  0  3  0  0  0  0  0  0
  159.7490  213.5540  151.6400 C   0  0  0  0  0  2  0  0  0  0  0  0
  161.3160  205.8850  149.6590 N   0  0  0  0  0  0  0  0  0  0  0  0
  160.2830  206.0300  146.0390 C   0  0  0  0  0  3  0  0  0  0  0  0
  162.2280  204.6090  146.2460 C   0  0  0  0  0  3  0  0  0  0  0  0
  160.3100  206.2610  147.4170 C   0  0  0  0  0  3  0  0  0  0  0  0
  161.2950  205.6690  148.2280 C   0  0  0  0  0  0  0  0  0  0  0  0
  161.2420  205.2010  145.4460 C   0  0  0  0  0  0  0  0  0  0  0  0
  162.2550  204.8370  147.6240 C   0  0  0  0  0  3  0  0  0  0  0  0
  161.2410  204.9410  144.0690 O   0  0  0  0  0  0  0  0  0  0  0  0
  161.5740  205.9350  143.1010 C   0  0  0  0  0  1  0  0  0  0  0  0
  160.7130  204.9280  150.6030 C   0  0  2  0  0  3  0  0  0  0  0  0
  161.7570  204.3360  151.5370 C   0  0  0  0  0  1  0  0  0  0  0  0
  159.9650  203.8180  149.8760 C   0  0  0  0  0  2  0  0  0  0  0  0
  161.4790  202.2640  150.8330 O   0  0  0  0  0  0  0  0  0  0  0  0
  161.3450  200.4130  146.1490 C   0  0  0  0  0  2  0  0  0  0  0  0
  160.7970  201.7320  148.6560 N   0  0  0  0  0  0  0  0  0  0  0  0
  161.2760  199.6280  147.4590 C   0  0  0  0  0  2  0  0  0  0  0  0
  161.6230  200.5170  148.6500 C   0  0  0  0  0  2  0  0  0  0  0  0
  159.9320  202.0400  147.5200 C   0  0  0  0  0  2  0  0  0  0  0  0
  160.7910  202.5740  149.8230 C   0  0  0  0  0  0  0  0  0  0  0  0
  160.6700  201.7840  146.2060 C   0  0  0  0  0  2  0  0  0  0  0  0
  1  6  1  0  0  0  0
  2  1  1  0  0  0  0
  2  4  1  0  0  0  0
  3  8  1  1  0  0  0
  4 27  1  6  0  0  0
  4  3  1  0  0  0  0
  5  2  2  0  0  0  0
  6  3  1  0  0  0  0
  6  7  1  1  0  0  0
  8  9  1  1  0  0  0
  8 11  1  0  0  0  0
 11 12  1  0  0  0  0
 11 10  1  1  0  0  0
 12 14  1  0  0  0  0
 14 13  1  1  0  0  0
 15 17  1  0  0  0  0
 17 18  1  0  0  0  0
 17 19  2  0  0  0  0
 18 20  1  0  0  0  0
 20 14  1  0  0  0  0
 20 16  2  0  0  0  0
 21 26  1  0  0  0  0
 22 26  1  0  0  0  0
 22 15  1  1  0  0  0
 23 22  1  0  0  0  0
 25 24  1  6  0  0  0
 25 23  1  0  0  0  0
 25 21  1  0  0  0  0
 27 36  1  0  0  0  0
 28 30  1  0  0  0  0
 29 33  2  0  0  0  0
 30 31  2  0  0  0  0
 31 27  1  0  0  0  0
 32 28  2  0  0  0  0
 32 29  1  0  0  0  0
 33 31  1  0  0  0  0
 34 32  1  0  0  0  0
 35 34  1  0  0  0  0
 36 37  1  6  0  0  0
 38 36  1  0  0  0  0
 40 46  1  0  0  0  0
 40 42  1  0  0  0  0
 41 45  1  0  0  0  0
 42 43  1  0  0  0  0
 43 41  1  0  0  0  0
 44 41  1  0  0  0  0
 45 38  1  0  0  0  0
 45 39  2  0  0  0  0
 46 44  1  0  0  0  0
M  END
>  <MODEL>
3

>  <REMARK>
 VINA RESULT:      -6.0      2.701      9.664
  Name = 
  12 active torsions:
  status: ('A' for Active; 'I' for Inactive)
    1  A    between atoms: N_4  and  C_6
    2  A    between atoms: N_4  and  C_25
    3  A    between atoms: N_4  and  C_30
    4  A    between atoms: C_6  and  C_13
    5  A    between atoms: C_7  and  C_17
    6  A    between atoms: C_7  and  C_40
    7  A    between atoms: N_10  and  C_11
    8  A    between atoms: O_12  and  C_35
    9  A    between atoms: C_13  and  C_31
   10  A    between atoms: C_32  and  C_37
   11  A    between atoms: C_32  and  C_40
   12  A    between atoms: C_37  and  C_46
                            x       y       z     vdW  Elec       q    Type
                         _______ _______ _______ _____ _____    ______ ____

>  <TORSDO>
F 12

$$$$
=
 OpenBabel11042420583D

 46 49  0  0  1  0  0  0  0  0999 V2000
  161.1650  209.5560  156.2030 N   0  0  0  0  0  2  0  0  0  0  0  0
  161.3120  210.8430  155.6420 C   0  0  0  0  0  0  0  0  0  0  0  0
  160.7980  209.4240  153.8180 C   0  0  2  0  0  3  0  0  0  0  0  0
  161.0560  210.8920  154.1850 C   0  0  1  0  0  3  0  0  0  0  0  0
  161.6680  211.8390  156.3240 O   0  0  0  0  0  0  0  0  0  0  0  0
  160.7950  208.6250  155.1520 C   0  0  1  0  0  3  0  0  0  0  0  0
  161.6900  207.5510  155.1440 O   0  0  0  0  0  1  0  0  0  0  0  0
  161.8090  208.9080  152.7780 C   0  0  2  0  0  3  0  0  0  0  0  0
  162.4570  209.9700  152.1290 O   0  0  0  0  0  1  0  0  0  0  0  0
  161.0130  208.6770  150.3820 C   0  0  0  0  0  1  0  0  0  0  0  0
  161.1210  208.0010  151.7520 C   0  0  1  0  0  3  0  0  0  0  0  0
  161.8650  206.6780  151.6420 C   0  0  0  0  0  2  0  0  0  0  0  0
  160.1660  206.1590  153.3120 N   0  0  0  0  0  1  0  0  0  0  0  0
  161.4030  205.6990  152.7060 C   0  0  1  0  0  3  0  0  0  0  0  0
  161.3120  202.9000  148.5780 N   0  0  0  0  0  2  0  0  0  0  0  0
  160.9560  203.3580  152.8690 O   0  0  0  0  0  0  0  0  0  0  0  0
  161.1260  202.9480  149.9900 C   0  0  0  0  0  0  0  0  0  0  0  0
  161.2950  204.1840  150.6980 N   0  0  0  0  0  2  0  0  0  0  0  0
  160.8080  201.8930  150.6020 O   0  0  0  0  0  0  0  0  0  0  0  0
  161.2060  204.3430  152.1180 C   0  0  0  0  0  0  0  0  0  0  0  0
  160.8560  206.1860  146.9730 C   0  0  0  0  0  2  0  0  0  0  0  0
  161.6850  204.0690  147.7940 C   0  0  1  0  0  3  0  0  0  0  0  0
  161.5170  203.7230  146.0130 S   0  0  0  0  0  0  0  0  0  0  0  0
  161.5670  206.0680  144.6010 C   0  0  0  0  0  1  0  0  0  0  0  0
  160.7920  205.3670  145.6980 C   0  0  2  0  0  3  0  0  0  0  0  0
  160.7660  205.2200  148.1310 C   0  0  0  0  0  2  0  0  0  0  0  0
  159.8830  211.7100  153.8480 N   0  0  0  0  0  0  0  0  0  0  0  0
  157.5760  212.1920  156.7860 C   0  0  0  0  0  3  0  0  0  0  0  0
  156.4770  210.7990  155.1430 C   0  0  0  0  0  3  0  0  0  0  0  0
  158.6940  212.2860  155.9540 C   0  0  0  0  0  3  0  0  0  0  0  0
  158.7200  211.6370  154.7060 C   0  0  0  0  0  0  0  0  0  0  0  0
  156.4610  211.4460  156.3860 C   0  0  0  0  0  0  0  0  0  0  0  0
  157.5960  210.8900  154.3100 C   0  0  0  0  0  3  0  0  0  0  0  0
  155.3250  211.3240  157.1980 O   0  0  0  0  0  0  0  0  0  0  0  0
  154.3070  210.3570  156.9500 C   0  0  0  0  0  1  0  0  0  0  0  0
  159.9980  212.7050  152.7680 C   0  0  2  0  0  3  0  0  0  0  0  0
  159.1040  213.9090  153.0230 C   0  0  0  0  0  1  0  0  0  0  0  0
  159.6860  212.0950  151.4080 C   0  0  0  0  0  2  0  0  0  0  0  0
  158.8070  214.0180  150.3360 O   0  0  0  0  0  0  0  0  0  0  0  0
  162.3910  212.8530  146.9930 C   0  0  0  0  0  2  0  0  0  0  0  0
  160.7510  213.1650  149.3460 N   0  0  0  0  0  0  0  0  0  0  0  0
  162.0530  214.2380  147.5460 C   0  0  0  0  0  2  0  0  0  0  0  0
  160.7360  214.2140  148.3170 C   0  0  0  0  0  2  0  0  0  0  0  0
  161.8500  212.2040  149.4030 C   0  0  0  0  0  2  0  0  0  0  0  0
  159.7130  213.1410  150.3420 C   0  0  0  0  0  0  0  0  0  0  0  0
  162.2020  211.7160  147.9980 C   0  0  0  0  0  2  0  0  0  0  0  0
  2  1  1  0  0  0  0
  2  5  2  0  0  0  0
  3  8  1  6  0  0  0
  3  4  1  0  0  0  0
  3  6  1  0  0  0  0
  4 27  1  1  0  0  0
  4  2  1  0  0  0  0
  6  7  1  6  0  0  0
  6  1  1  0  0  0  0
  8  9  1  6  0  0  0
 11 10  1  6  0  0  0
 11  8  1  0  0  0  0
 12 11  1  0  0  0  0
 12 14  1  0  0  0  0
 14 13  1  6  0  0  0
 15 17  1  0  0  0  0
 17 19  2  0  0  0  0
 17 18  1  0  0  0  0
 18 20  1  0  0  0  0
 20 14  1  0  0  0  0
 20 16  2  0  0  0  0
 21 26  1  0  0  0  0
 22 26  1  0  0  0  0
 22 15  1  1  0  0  0
 23 22  1  0  0  0  0
 25 24  1  6  0  0  0
 25 23  1  0  0  0  0
 25 21  1  0  0  0  0
 27 31  1  0  0  0  0
 29 32  2  0  0  0  0
 30 28  2  0  0  0  0
 31 30  1  0  0  0  0
 32 28  1  0  0  0  0
 32 34  1  0  0  0  0
 33 31  2  0  0  0  0
 33 29  1  0  0  0  0
 35 34  1  0  0  0  0
 36 37  1  1  0  0  0
 36 27  1  0  0  0  0
 38 36  1  0  0  0  0
 39 45  2  0  0  0  0
 40 42  1  0  0  0  0
 40 46  1  0  0  0  0
 41 44  1  0  0  0  0
 41 45  1  0  0  0  0
 42 43  1  0  0  0  0
 43 41  1  0  0  0  0
 45 38  1  0  0  0  0
 46 44  1  0  0  0  0
M  END
>  <MODEL>
4

>  <REMARK>
 VINA RESULT:      -6.0      1.708      5.256
  Name = 
  12 active torsions:
  status: ('A' for Active; 'I' for Inactive)
    1  A    between atoms: N_4  and  C_6
    2  A    between atoms: N_4  and  C_25
    3  A    between atoms: N_4  and  C_30
    4  A    between atoms: C_6  and  C_13
    5  A    between atoms: C_7  and  C_17
    6  A    between atoms: C_7  and  C_40
    7  A    between atoms: N_10  and  C_11
    8  A    between atoms: O_12  and  C_35
    9  A    between atoms: C_13  and  C_31
   10  A    between atoms: C_32  and  C_37
   11  A    between atoms: C_32  and  C_40
   12  A    between atoms: C_37  and  C_46
                            x       y       z     vdW  Elec       q    Type
                         _______ _______ _______ _____ _____    ______ ____

>  <TORSDO>
F 12

$$$$
=
 OpenBabel11042420583D

 46 49  0  0  1  0  0  0  0  0999 V2000
  162.2690  209.0740  155.9340 N   0  0  0  0  0  2  0  0  0  0  0  0
  161.4850  208.1040  155.2740 C   0  0  0  0  0  0  0  0  0  0  0  0
  161.1510  210.1070  154.0580 C   0  0  2  0  0  3  0  0  0  0  0  0
  160.7930  208.6150  154.0690 C   0  0  1  0  0  3  0  0  0  0  0  0
  161.3640  206.9280  155.7050 O   0  0  0  0  0  0  0  0  0  0  0  0
  162.1620  210.3320  155.2180 C   0  0  1  0  0  3  0  0  0  0  0  0
  161.7610  211.3390  156.1000 O   0  0  0  0  0  1  0  0  0  0  0  0
  159.8980  210.9980  154.1340 C   0  0  2  0  0  3  0  0  0  0  0  0
  158.7460  210.2340  154.3740 O   0  0  0  0  0  1  0  0  0  0  0  0
  158.9640  211.0390  151.7770 C   0  0  0  0  0  1  0  0  0  0  0  0
  159.7320  211.8170  152.8490 C   0  0  1  0  0  3  0  0  0  0  0  0
  159.0390  213.1360  153.1570 C   0  0  0  0  0  2  0  0  0  0  0  0
  159.9660  213.5690  150.9440 N   0  0  0  0  0  1  0  0  0  0  0  0
  159.0230  214.0450  151.9400 C   0  0  1  0  0  3  0  0  0  0  0  0
  156.2510  214.3620  147.8040 N   0  0  0  0  0  2  0  0  0  0  0  0
  156.6390  214.0570  152.1060 O   0  0  0  0  0  0  0  0  0  0  0  0
  156.2650  214.3120  149.2290 C   0  0  0  0  0  0  0  0  0  0  0  0
  157.5120  214.2350  149.9350 N   0  0  0  0  0  2  0  0  0  0  0  0
  155.1720  214.3390  149.8540 O   0  0  0  0  0  0  0  0  0  0  0  0
  157.6530  214.1070  151.3530 C   0  0  0  0  0  0  0  0  0  0  0  0
  158.3000  213.8990  144.7770 C   0  0  0  0  0  2  0  0  0  0  0  0
  157.4660  214.3300  147.0040 C   0  0  1  0  0  3  0  0  0  0  0  0
  158.3500  212.7550  147.2490 S   0  0  0  0  0  0  0  0  0  0  0  0
  160.2280  212.4280  145.2840 C   0  0  0  0  0  1  0  0  0  0  0  0
  158.7380  212.6240  145.4720 C   0  0  2  0  0  3  0  0  0  0  0  0
  157.1130  214.4400  145.5390 C   0  0  0  0  0  2  0  0  0  0  0  0
  161.2630  207.9720  152.8360 N   0  0  0  0  0  0  0  0  0  0  0  0
  161.4110  209.3230  149.3230 C   0  0  0  0  0  3  0  0  0  0  0  0
  162.7720  210.7140  150.7580 C   0  0  0  0  0  3  0  0  0  0  0  0
  161.0770  208.5240  150.4190 C   0  0  0  0  0  3  0  0  0  0  0  0
  161.5860  208.8080  151.7000 C   0  0  0  0  0  0  0  0  0  0  0  0
  162.2620  210.4220  149.4860 C   0  0  0  0  0  0  0  0  0  0  0  0
  162.4400  209.9150  151.8560 C   0  0  0  0  0  3  0  0  0  0  0  0
  162.6240  211.2410  148.4080 O   0  0  0  0  0  0  0  0  0  0  0  0
  162.3670  212.6440  148.3910 C   0  0  0  0  0  1  0  0  0  0  0  0
  161.5650  206.5310  152.8570 C   0  0  2  0  0  3  0  0  0  0  0  0
  162.7900  206.2060  152.0150 C   0  0  0  0  0  1  0  0  0  0  0  0
  160.3740  205.7010  152.3960 C   0  0  0  0  0  2  0  0  0  0  0  0
  161.1460  203.4650  152.5580 O   0  0  0  0  0  0  0  0  0  0  0  0
  161.6780  204.0990  147.5880 C   0  0  0  0  0  2  0  0  0  0  0  0
  160.9000  204.2450  150.3630 N   0  0  0  0  0  0  0  0  0  0  0  0
  161.0870  202.8880  148.3110 C   0  0  0  0  0  2  0  0  0  0  0  0
  161.3540  202.9610  149.8120 C   0  0  0  0  0  2  0  0  0  0  0  0
  160.4510  205.3120  149.4710 C   0  0  0  0  0  2  0  0  0  0  0  0
  160.8310  204.4140  151.7900 C   0  0  0  0  0  0  0  0  0  0  0  0
  161.3930  205.4350  148.2740 C   0  0  0  0  0  2  0  0  0  0  0  0
  2  5  2  0  0  0  0
  2  1  1  0  0  0  0
  3  4  1  0  0  0  0
  3  8  1  1  0  0  0
  3  6  1  0  0  0  0
  4 27  1  6  0  0  0
  4  2  1  0  0  0  0
  6  1  1  0  0  0  0
  6  7  1  1  0  0  0
  8  9  1  6  0  0  0
 11 10  1  6  0  0  0
 11 12  1  0  0  0  0
 11  8  1  0  0  0  0
 14 13  1  6  0  0  0
 14 12  1  0  0  0  0
 15 17  1  0  0  0  0
 17 19  2  0  0  0  0
 17 18  1  0  0  0  0
 18 20  1  0  0  0  0
 20 14  1  0  0  0  0
 20 16  2  0  0  0  0
 21 25  1  0  0  0  0
 21 26  1  0  0  0  0
 22 23  1  0  0  0  0
 22 15  1  1  0  0  0
 25 24  1  1  0  0  0
 25 23  1  0  0  0  0
 26 22  1  0  0  0  0
 27 36  1  0  0  0  0
 28 32  2  0  0  0  0
 28 30  1  0  0  0  0
 29 33  2  0  0  0  0
 30 31  2  0  0  0  0
 31 33  1  0  0  0  0
 31 27  1  0  0  0  0
 32 29  1  0  0  0  0
 34 32  1  0  0  0  0
 35 34  1  0  0  0  0
 36 37  1  6  0  0  0
 38 36  1  0  0  0  0
 40 46  1  0  0  0  0
 40 42  1  0  0  0  0
 41 45  1  0  0  0  0
 42 43  1  0  0  0  0
 43 41  1  0  0  0  0
 44 41  1  0  0  0  0
 45 38  1  0  0  0  0
 45 39  2  0  0  0  0
 46 44  1  0  0  0  0
M  END
>  <MODEL>
5

>  <REMARK>
 VINA RESULT:      -4.9      2.975      8.481
  Name = 
  12 active torsions:
  status: ('A' for Active; 'I' for Inactive)
    1  A    between atoms: N_4  and  C_6
    2  A    between atoms: N_4  and  C_25
    3  A    between atoms: N_4  and  C_30
    4  A    between atoms: C_6  and  C_13
    5  A    between atoms: C_7  and  C_17
    6  A    between atoms: C_7  and  C_40
    7  A    between atoms: N_10  and  C_11
    8  A    between atoms: O_12  and  C_35
    9  A    between atoms: C_13  and  C_31
   10  A    between atoms: C_32  and  C_37
   11  A    between atoms: C_32  and  C_40
   12  A    between atoms: C_37  and  C_46
                            x       y       z     vdW  Elec       q    Type
                         _______ _______ _______ _____ _____    ______ ____

>  <TORSDO>
F 12

$$$$
=
 OpenBabel11042420583D

 46 49  0  0  1  0  0  0  0  0999 V2000
  161.8010  209.2420  150.0270 N   0  0  0  0  0  2  0  0  0  0  0  0
  162.4380  208.0080  149.7780 C   0  0  0  0  0  0  0  0  0  0  0  0
  161.1650  207.6660  151.7450 C   0  0  2  0  0  3  0  0  0  0  0  0
  162.0780  206.9450  150.7440 C   0  0  1  0  0  3  0  0  0  0  0  0
  163.2650  207.8530  148.8430 O   0  0  0  0  0  0  0  0  0  0  0  0
  160.9520  209.1050  151.1960 C   0  0  1  0  0  3  0  0  0  0  0  0
  161.2770  210.0950  152.1280 O   0  0  0  0  0  1  0  0  0  0  0  0
  161.7310  207.6160  153.1750 C   0  0  2  0  0  3  0  0  0  0  0  0
  162.3600  206.3870  153.4300 O   0  0  0  0  0  1  0  0  0  0  0  0
  160.1430  206.5660  154.8510 C   0  0  0  0  0  1  0  0  0  0  0  0
  160.6270  207.8690  154.2080 C   0  0  1  0  0  3  0  0  0  0  0  0
  161.1180  208.8430  155.2690 C   0  0  0  0  0  2  0  0  0  0  0  0
  160.1570  209.9180  157.2350 N   0  0  0  0  0  1  0  0  0  0  0  0
  159.9770  209.6840  155.8130 C   0  0  1  0  0  3  0  0  0  0  0  0
  157.1240  213.5370  154.4330 N   0  0  0  0  0  2  0  0  0  0  0  0
  160.9260  211.4670  154.5390 O   0  0  0  0  0  0  0  0  0  0  0  0
  158.4070  212.9180  154.3650 C   0  0  0  0  0  0  0  0  0  0  0  0
  158.6390  211.6660  155.0250 N   0  0  0  0  0  2  0  0  0  0  0  0
  159.3260  213.4840  153.7160 O   0  0  0  0  0  0  0  0  0  0  0  0
  159.8970  210.9860  155.0900 C   0  0  0  0  0  0  0  0  0  0  0  0
  155.4260  211.8350  157.2260 C   0  0  0  0  0  2  0  0  0  0  0  0
  156.0090  212.9550  155.1640 C   0  0  1  0  0  3  0  0  0  0  0  0
  155.6700  211.2650  154.5730 S   0  0  0  0  0  0  0  0  0  0  0  0
  154.0570  209.9600  156.3600 C   0  0  0  0  0  1  0  0  0  0  0  0
  155.3990  210.6570  156.2710 C   0  0  2  0  0  3  0  0  0  0  0  0
  156.3530  212.8710  156.6330 C   0  0  0  0  0  2  0  0  0  0  0  0
  161.3570  205.8330  150.1120 N   0  0  0  0  0  0  0  0  0  0  0  0
  160.6710  206.0380  146.4140 C   0  0  0  0  0  3  0  0  0  0  0  0
  162.6330  204.6710  146.7750 C   0  0  0  0  0  3  0  0  0  0  0  0
  160.5590  206.2360  147.7920 C   0  0  0  0  0  3  0  0  0  0  0  0
  161.4810  205.6530  148.6810 C   0  0  0  0  0  0  0  0  0  0  0  0
  161.7090  205.2540  145.8970 C   0  0  0  0  0  0  0  0  0  0  0  0
  162.5210  204.8660  148.1540 C   0  0  0  0  0  3  0  0  0  0  0  0
  161.8490  205.0290  144.5210 O   0  0  0  0  0  0  0  0  0  0  0  0
  161.1890  205.8300  143.5430 C   0  0  0  0  0  1  0  0  0  0  0  0
  160.6900  204.8400  150.9700 C   0  0  2  0  0  3  0  0  0  0  0  0
  161.6770  204.1640  151.9100 C   0  0  0  0  0  1  0  0  0  0  0  0
  159.9460  203.7960  150.1470 C   0  0  0  0  0  2  0  0  0  0  0  0
  161.5140  202.1980  150.9280 O   0  0  0  0  0  0  0  0  0  0  0  0
  161.2120  200.6890  146.1310 C   0  0  0  0  0  2  0  0  0  0  0  0
  160.7500  201.8150  148.7470 N   0  0  0  0  0  0  0  0  0  0  0  0
  161.2040  199.8100  147.3820 C   0  0  0  0  0  2  0  0  0  0  0  0
  161.5890  200.6150  148.6200 C   0  0  0  0  0  2  0  0  0  0  0  0
  159.8380  202.1930  147.6710 C   0  0  0  0  0  2  0  0  0  0  0  0
  160.7820  202.5700  149.9710 C   0  0  0  0  0  0  0  0  0  0  0  0
  160.5250  202.0430  146.3140 C   0  0  0  0  0  2  0  0  0  0  0  0
  1  6  1  0  0  0  0
  2  1  1  0  0  0  0
  2  4  1  0  0  0  0
  3  8  1  1  0  0  0
  4 27  1  6  0  0  0
  4  3  1  0  0  0  0
  5  2  2  0  0  0  0
  6  3  1  0  0  0  0
  6  7  1  1  0  0  0
  8  9  1  1  0  0  0
  8 11  1  0  0  0  0
 11 10  1  1  0  0  0
 11 12  1  0  0  0  0
 12 14  1  0  0  0  0
 14 13  1  1  0  0  0
 16 20  2  0  0  0  0
 17 15  1  0  0  0  0
 17 18  1  0  0  0  0
 18 20  1  0  0  0  0
 19 17  2  0  0  0  0
 20 14  1  0  0  0  0
 22 15  1  6  0  0  0
 22 26  1  0  0  0  0
 23 22  1  0  0  0  0
 23 25  1  0  0  0  0
 25 24  1  6  0  0  0
 25 21  1  0  0  0  0
 26 21  1  0  0  0  0
 27 36  1  0  0  0  0
 28 30  1  0  0  0  0
 29 33  2  0  0  0  0
 30 31  2  0  0  0  0
 31 27  1  0  0  0  0
 32 28  2  0  0  0  0
 32 29  1  0  0  0  0
 33 31  1  0  0  0  0
 34 32  1  0  0  0  0
 35 34  1  0  0  0  0
 36 37  1  6  0  0  0
 38 36  1  0  0  0  0
 40 46  1  0  0  0  0
 40 42  1  0  0  0  0
 41 45  1  0  0  0  0
 42 43  1  0  0  0  0
 43 41  1  0  0  0  0
 44 41  1  0  0  0  0
 45 38  1  0  0  0  0
 45 39  2  0  0  0  0
 46 44  1  0  0  0  0
M  END
>  <MODEL>
6

>  <REMARK>
 VINA RESULT:      -4.8      3.056     10.178
  Name = 
  12 active torsions:
  status: ('A' for Active; 'I' for Inactive)
    1  A    between atoms: N_4  and  C_6
    2  A    between atoms: N_4  and  C_25
    3  A    between atoms: N_4  and  C_30
    4  A    between atoms: C_6  and  C_13
    5  A    between atoms: C_7  and  C_17
    6  A    between atoms: C_7  and  C_40
    7  A    between atoms: N_10  and  C_11
    8  A    between atoms: O_12  and  C_35
    9  A    between atoms: C_13  and  C_31
   10  A    between atoms: C_32  and  C_37
   11  A    between atoms: C_32  and  C_40
   12  A    between atoms: C_37  and  C_46
                            x       y       z     vdW  Elec       q    Type
                         _______ _______ _______ _____ _____    ______ ____

>  <TORSDO>
F 12

$$$$
=
 OpenBabel11042420583D

 46 49  0  0  1  0  0  0  0  0999 V2000
  162.7120  207.4110  149.0260 N   0  0  0  0  0  2  0  0  0  0  0  0
  163.0830  207.0230  150.3310 C   0  0  0  0  0  0  0  0  0  0  0  0
  161.5880  208.8370  150.6210 C   0  0  2  0  0  3  0  0  0  0  0  0
  162.4090  207.7980  151.3980 C   0  0  1  0  0  3  0  0  0  0  0  0
  163.9390  206.1280  150.5500 O   0  0  0  0  0  0  0  0  0  0  0  0
  161.7490  208.4930  149.1130 C   0  0  1  0  0  3  0  0  0  0  0  0
  162.1950  209.5780  148.3540 O   0  0  0  0  0  1  0  0  0  0  0  0
  161.9930  210.2760  150.9850 C   0  0  2  0  0  3  0  0  0  0  0  0
  162.4480  210.3550  152.3110 O   0  0  0  0  0  1  0  0  0  0  0  0
  160.6090  212.1530  151.9810 C   0  0  0  0  0  1  0  0  0  0  0  0
  160.8250  211.2430  150.7680 C   0  0  1  0  0  3  0  0  0  0  0  0
  161.0570  212.0690  149.5110 C   0  0  0  0  0  2  0  0  0  0  0  0
  161.3090  214.4380  148.9930 N   0  0  0  0  0  1  0  0  0  0  0  0
  160.4600  213.4590  149.6490 C   0  0  1  0  0  3  0  0  0  0  0  0
  157.6820  213.8670  145.5260 N   0  0  0  0  0  2  0  0  0  0  0  0
  158.0780  213.3790  149.8100 O   0  0  0  0  0  0  0  0  0  0  0  0
  157.6980  213.7520  146.9460 C   0  0  0  0  0  0  0  0  0  0  0  0
  158.9450  213.6880  147.6510 N   0  0  0  0  0  2  0  0  0  0  0  0
  156.6030  213.7120  147.5700 O   0  0  0  0  0  0  0  0  0  0  0  0
  159.0900  213.5000  149.0630 C   0  0  0  0  0  0  0  0  0  0  0  0
  159.7240  213.8060  142.4590 C   0  0  0  0  0  2  0  0  0  0  0  0
  158.8990  213.9140  144.7280 C   0  0  1  0  0  3  0  0  0  0  0  0
  159.7210  212.2880  144.7210 S   0  0  0  0  0  0  0  0  0  0  0  0
  161.5930  212.2010  142.7250 C   0  0  0  0  0  1  0  0  0  0  0  0
  160.1100  212.4220  142.9440 C   0  0  2  0  0  3  0  0  0  0  0  0
  158.5560  214.2660  143.2990 C   0  0  0  0  0  2  0  0  0  0  0  0
  161.5230  206.9660  152.2220 N   0  0  0  0  0  0  0  0  0  0  0  0
  161.1980  203.2240  151.9470 C   0  0  0  0  0  3  0  0  0  0  0  0
  160.1050  204.2500  150.0490 C   0  0  0  0  0  3  0  0  0  0  0  0
  161.5330  204.4890  152.4340 C   0  0  0  0  0  3  0  0  0  0  0  0
  161.1600  205.6520  151.7360 C   0  0  0  0  0  0  0  0  0  0  0  0
  160.4830  203.0960  150.7500 C   0  0  0  0  0  0  0  0  0  0  0  0
  160.4420  205.5160  150.5340 C   0  0  0  0  0  3  0  0  0  0  0  0
  160.1360  201.8430  150.2280 O   0  0  0  0  0  0  0  0  0  0  0  0
  161.0500  201.0470  149.4760 C   0  0  0  0  0  1  0  0  0  0  0  0
  161.1890  207.4170  153.5830 C   0  0  2  0  0  3  0  0  0  0  0  0
  160.5470  206.3030  154.3960 C   0  0  0  0  0  1  0  0  0  0  0  0
  160.2850  208.6430  153.5620 C   0  0  0  0  0  2  0  0  0  0  0  0
  161.5970  209.3230  155.4150 O   0  0  0  0  0  0  0  0  0  0  0  0
  157.5080  212.1280  156.3050 C   0  0  0  0  0  2  0  0  0  0  0  0
  159.6150  210.5400  155.1370 N   0  0  0  0  0  0  0  0  0  0  0  0
  158.9700  212.5680  156.3860 C   0  0  0  0  0  2  0  0  0  0  0  0
  159.9080  211.3670  156.3160 C   0  0  0  0  0  2  0  0  0  0  0  0
  158.4350  210.8140  154.3210 C   0  0  0  0  0  2  0  0  0  0  0  0
  160.5400  209.5080  154.7530 C   0  0  0  0  0  0  0  0  0  0  0  0
  157.2260  211.0960  155.2120 C   0  0  0  0  0  2  0  0  0  0  0  0
  1  6  1  0  0  0  0
  1  2  1  0  0  0  0
  2  5  2  0  0  0  0
  2  4  1  0  0  0  0
  3  8  1  6  0  0  0
  3  4  1  0  0  0  0
  4 27  1  6  0  0  0
  6  7  1  6  0  0  0
  6  3  1  0  0  0  0
  8  9  1  1  0  0  0
 11  8  1  0  0  0  0
 11 10  1  1  0  0  0
 12 14  1  0  0  0  0
 12 11  1  0  0  0  0
 14 13  1  6  0  0  0
 15 17  1  0  0  0  0
 17 19  2  0  0  0  0
 17 18  1  0  0  0  0
 18 20  1  0  0  0  0
 20 14  1  0  0  0  0
 20 16  2  0  0  0  0
 21 25  1  0  0  0  0
 21 26  1  0  0  0  0
 22 15  1  1  0  0  0
 23 22  1  0  0  0  0
 25 24  1  1  0  0  0
 25 23  1  0  0  0  0
 26 22  1  0  0  0  0
 27 36  1  0  0  0  0
 28 30  1  0  0  0  0
 29 33  2  0  0  0  0
 29 32  1  0  0  0  0
 31 27  1  0  0  0  0
 31 30  2  0  0  0  0
 32 28  2  0  0  0  0
 33 31  1  0  0  0  0
 34 32  1  0  0  0  0
 35 34  1  0  0  0  0
 36 37  1  6  0  0  0
 38 36  1  0  0  0  0
 38 45  1  0  0  0  0
 40 42  1  0  0  0  0
 41 43  1  0  0  0  0
 43 42  1  0  0  0  0
 44 41  1  0  0  0  0
 44 46  1  0  0  0  0
 45 41  1  0  0  0  0
 45 39  2  0  0  0  0
 46 40  1  0  0  0  0
M  END
>  <MODEL>
7

>  <REMARK>
 VINA RESULT:      -4.5      3.074      7.741
  Name = 
  12 active torsions:
  status: ('A' for Active; 'I' for Inactive)
    1  A    between atoms: N_4  and  C_6
    2  A    between atoms: N_4  and  C_25
    3  A    between atoms: N_4  and  C_30
    4  A    between atoms: C_6  and  C_13
    5  A    between atoms: C_7  and  C_17
    6  A    between atoms: C_7  and  C_40
    7  A    between atoms: N_10  and  C_11
    8  A    between atoms: O_12  and  C_35
    9  A    between atoms: C_13  and  C_31
   10  A    between atoms: C_32  and  C_37
   11  A    between atoms: C_32  and  C_40
   12  A    between atoms: C_37  and  C_46
                            x       y       z     vdW  Elec       q    Type
                         _______ _______ _______ _____ _____    ______ ____

>  <TORSDO>
F 12

$$$$
=
 OpenBabel11042420583D

 46 49  0  0  1  0  0  0  0  0999 V2000
  161.8180  209.3160  154.6830 N   0  0  0  0  0  2  0  0  0  0  0  0
  162.3430  210.0370  153.5890 C   0  0  0  0  0  0  0  0  0  0  0  0
  160.4340  208.9230  152.7420 C   0  0  2  0  0  3  0  0  0  0  0  0
  161.5410  209.9130  152.3520 C   0  0  1  0  0  3  0  0  0  0  0  0
  163.4180  210.6870  153.6650 O   0  0  0  0  0  0  0  0  0  0  0  0
  160.6050  208.6390  154.2610 C   0  0  1  0  0  3  0  0  0  0  0  0
  160.7070  207.2760  154.5500 O   0  0  0  0  0  1  0  0  0  0  0  0
  160.4560  207.6630  151.8600 C   0  0  2  0  0  3  0  0  0  0  0  0
  160.9080  206.5460  152.5800 O   0  0  0  0  0  1  0  0  0  0  0  0
  162.7940  207.5320  150.8880 C   0  0  0  0  0  1  0  0  0  0  0  0
  161.3280  207.8810  150.6180 C   0  0  1  0  0  3  0  0  0  0  0  0
  160.7880  207.0670  149.4510 C   0  0  0  0  0  2  0  0  0  0  0  0
  162.8160  207.7170  148.2650 N   0  0  0  0  0  1  0  0  0  0  0  0
  161.3820  207.5350  148.1340 C   0  0  1  0  0  3  0  0  0  0  0  0
  161.2090  202.7380  146.7740 N   0  0  0  0  0  2  0  0  0  0  0  0
  160.6920  206.9520  145.9220 O   0  0  0  0  0  0  0  0  0  0  0  0
  161.0530  204.0970  146.3730 C   0  0  0  0  0  0  0  0  0  0  0  0
  161.2850  205.1570  147.3120 N   0  0  0  0  0  2  0  0  0  0  0  0
  160.7140  204.3520  145.1870 O   0  0  0  0  0  0  0  0  0  0  0  0
  161.0910  206.5510  147.0520 C   0  0  0  0  0  0  0  0  0  0  0  0
  160.9520  200.9580  149.9900 C   0  0  0  0  0  2  0  0  0  0  0  0
  161.5920  202.3560  148.1250 C   0  0  1  0  0  3  0  0  0  0  0  0
  161.0180  203.6000  149.3270 S   0  0  0  0  0  0  0  0  0  0  0  0
  161.1450  202.5710  151.8610 C   0  0  0  0  0  1  0  0  0  0  0  0
  160.5070  202.3100  150.5120 C   0  0  2  0  0  3  0  0  0  0  0  0
  160.9480  201.0360  148.4810 C   0  0  0  0  0  2  0  0  0  0  0  0
  160.9520  211.1920  151.9340 N   0  0  0  0  0  0  0  0  0  0  0  0
  162.1490  211.3440  148.3660 C   0  0  0  0  0  3  0  0  0  0  0  0
  160.6420  213.1920  148.7690 C   0  0  0  0  0  3  0  0  0  0  0  0
  161.9690  210.9140  149.6830 C   0  0  0  0  0  3  0  0  0  0  0  0
  161.1250  211.6170  150.5610 C   0  0  0  0  0  0  0  0  0  0  0  0
  161.4870  212.4860  147.9010 C   0  0  0  0  0  0  0  0  0  0  0  0
  160.4630  212.7640  150.0880 C   0  0  0  0  0  3  0  0  0  0  0  0
  161.6480  212.9500  146.5890 O   0  0  0  0  0  0  0  0  0  0  0  0
  162.3170  214.1730  146.2860 C   0  0  0  0  0  1  0  0  0  0  0  0
  160.0590  211.9000  152.8660 C   0  0  2  0  0  3  0  0  0  0  0  0
  160.5610  211.8060  154.2980 C   0  0  0  0  0  1  0  0  0  0  0  0
  158.6290  211.3850  152.7730 C   0  0  0  0  0  2  0  0  0  0  0  0
  157.4150  213.3730  152.3260 O   0  0  0  0  0  0  0  0  0  0  0  0
  156.1860  212.8030  157.1780 C   0  0  0  0  0  2  0  0  0  0  0  0
  156.9970  212.4390  154.4330 N   0  0  0  0  0  0  0  0  0  0  0  0
  155.2540  213.1660  156.0220 C   0  0  0  0  0  2  0  0  0  0  0  0
  156.0490  213.5110  154.7660 C   0  0  0  0  0  2  0  0  0  0  0  0
  157.2080  211.3290  155.3600 C   0  0  0  0  0  2  0  0  0  0  0  0
  157.6570  212.4540  153.1550 C   0  0  0  0  0  0  0  0  0  0  0  0
  157.3170  211.8480  156.7940 C   0  0  0  0  0  2  0  0  0  0  0  0
  2  5  2  0  0  0  0
  2  1  1  0  0  0  0
  3  8  1  6  0  0  0
  3  6  1  0  0  0  0
  4 27  1  1  0  0  0
  4  3  1  0  0  0  0
  4  2  1  0  0  0  0
  6  7  1  6  0  0  0
  6  1  1  0  0  0  0
  8  9  1  1  0  0  0
 11 10  1  1  0  0  0
 11  8  1  0  0  0  0
 12 11  1  0  0  0  0
 14 13  1  1  0  0  0
 14 12  1  0  0  0  0
 16 20  2  0  0  0  0
 17 15  1  0  0  0  0
 17 18  1  0  0  0  0
 19 17  2  0  0  0  0
 20 18  1  0  0  0  0
 20 14  1  0  0  0  0
 21 25  1  0  0  0  0
 22 15  1  6  0  0  0
 22 26  1  0  0  0  0
 22 23  1  0  0  0  0
 23 25  1  0  0  0  0
 25 24  1  1  0  0  0
 26 21  1  0  0  0  0
 27 36  1  0  0  0  0
 28 30  1  0  0  0  0
 29 33  2  0  0  0  0
 30 31  2  0  0  0  0
 31 27  1  0  0  0  0
 32 28  2  0  0  0  0
 32 29  1  0  0  0  0
 33 31  1  0  0  0  0
 34 32  1  0  0  0  0
 35 34  1  0  0  0  0
 36 37  1  1  0  0  0
 38 36  1  0  0  0  0
 38 45  1  0  0  0  0
 39 45  2  0  0  0  0
 41 43  1  0  0  0  0
 41 44  1  0  0  0  0
 42 40  1  0  0  0  0
 43 42  1  0  0  0  0
 44 46  1  0  0  0  0
 45 41  1  0  0  0  0
 46 40  1  0  0  0  0
M  END
>  <MODEL>
8

>  <REMARK>
 VINA RESULT:      -4.2      2.080      3.291
  Name = 
  12 active torsions:
  status: ('A' for Active; 'I' for Inactive)
    1  A    between atoms: N_4  and  C_6
    2  A    between atoms: N_4  and  C_25
    3  A    between atoms: N_4  and  C_30
    4  A    between atoms: C_6  and  C_13
    5  A    between atoms: C_7  and  C_17
    6  A    between atoms: C_7  and  C_40
    7  A    between atoms: N_10  and  C_11
    8  A    between atoms: O_12  and  C_35
    9  A    between atoms: C_13  and  C_31
   10  A    between atoms: C_32  and  C_37
   11  A    between atoms: C_32  and  C_40
   12  A    between atoms: C_37  and  C_46
                            x       y       z     vdW  Elec       q    Type
                         _______ _______ _______ _____ _____    ______ ____

>  <TORSDO>
F 12

$$$$
=
 OpenBabel11042420583D

 46 49  0  0  1  0  0  0  0  0999 V2000
  162.6840  207.7310  148.6930 N   0  0  0  0  0  2  0  0  0  0  0  0
  163.0860  207.4370  150.0130 C   0  0  0  0  0  0  0  0  0  0  0  0
  161.5660  209.2420  150.2110 C   0  0  2  0  0  3  0  0  0  0  0  0
  162.4190  208.2710  151.0390 C   0  0  1  0  0  3  0  0  0  0  0  0
  163.9610  206.5720  150.2750 O   0  0  0  0  0  0  0  0  0  0  0  0
  161.7040  208.8010  148.7260 C   0  0  1  0  0  3  0  0  0  0  0  0
  162.1180  209.8400  147.8870 O   0  0  0  0  0  1  0  0  0  0  0  0
  161.9540  210.7090  150.4700 C   0  0  2  0  0  3  0  0  0  0  0  0
  162.3240  210.9070  151.8090 O   0  0  0  0  0  1  0  0  0  0  0  0
  160.0750  212.1770  151.3330 C   0  0  0  0  0  1  0  0  0  0  0  0
  160.8050  211.6510  150.0940 C   0  0  1  0  0  3  0  0  0  0  0  0
  161.3300  212.8040  149.2500 C   0  0  0  0  0  2  0  0  0  0  0  0
  159.6740  213.6270  147.6620 N   0  0  0  0  0  1  0  0  0  0  0  0
  160.8020  212.7280  147.8280 C   0  0  1  0  0  3  0  0  0  0  0  0
  162.0370  213.4810  143.0540 N   0  0  0  0  0  2  0  0  0  0  0  0
  163.0440  213.3270  147.2620 O   0  0  0  0  0  0  0  0  0  0  0  0
  162.4860  213.4110  144.4050 C   0  0  0  0  0  0  0  0  0  0  0  0
  161.5620  213.1010  145.4570 N   0  0  0  0  0  2  0  0  0  0  0  0
  163.7020  213.6210  144.6570 O   0  0  0  0  0  0  0  0  0  0  0  0
  161.8760  213.0740  146.8530 C   0  0  0  0  0  0  0  0  0  0  0  0
  159.2260  211.8880  141.2820 C   0  0  0  0  0  2  0  0  0  0  0  0
  160.6490  213.2580  142.6740 C   0  0  1  0  0  3  0  0  0  0  0  0
  160.1370  214.4530  141.3980 S   0  0  0  0  0  0  0  0  0  0  0  0
  157.8030  213.6240  140.2310 C   0  0  0  0  0  1  0  0  0  0  0  0
  159.2280  213.1710  140.4720 C   0  0  2  0  0  3  0  0  0  0  0  0
  160.4970  211.8700  142.0970 C   0  0  0  0  0  2  0  0  0  0  0  0
  161.5630  207.4820  151.9340 N   0  0  0  0  0  0  0  0  0  0  0  0
  161.4020  203.7200  151.8440 C   0  0  0  0  0  3  0  0  0  0  0  0
  160.0460  204.6090  150.0490 C   0  0  0  0  0  3  0  0  0  0  0  0
  161.7250  205.0210  152.2390 C   0  0  0  0  0  3  0  0  0  0  0  0
  161.2140  206.1330  151.5450 C   0  0  0  0  0  0  0  0  0  0  0  0
  160.5610  203.5070  150.7450 C   0  0  0  0  0  0  0  0  0  0  0  0
  160.3700  205.9100  150.4420 C   0  0  0  0  0  3  0  0  0  0  0  0
  160.2220  202.2170  150.3160 O   0  0  0  0  0  0  0  0  0  0  0  0
  160.4570  201.7660  148.9830 C   0  0  0  0  0  1  0  0  0  0  0  0
  161.2450  208.0190  153.2680 C   0  0  2  0  0  3  0  0  0  0  0  0
  160.8590  206.9110  154.2360 C   0  0  0  0  0  1  0  0  0  0  0  0
  160.1430  209.0690  153.2020 C   0  0  0  0  0  2  0  0  0  0  0  0
  161.5060  210.2320  154.7550 O   0  0  0  0  0  0  0  0  0  0  0  0
  157.0860  212.3850  155.8560 C   0  0  0  0  0  2  0  0  0  0  0  0
  159.3090  211.0320  154.6100 N   0  0  0  0  0  0  0  0  0  0  0  0
  158.4370  213.0780  155.6770 C   0  0  0  0  0  2  0  0  0  0  0  0
  159.5730  212.0610  155.6240 C   0  0  0  0  0  2  0  0  0  0  0  0
  158.0120  210.9740  153.9390 C   0  0  0  0  0  2  0  0  0  0  0  0
  160.3640  210.1310  154.2300 C   0  0  0  0  0  0  0  0  0  0  0  0
  156.8830  211.1700  154.9490 C   0  0  0  0  0  2  0  0  0  0  0  0
  1  6  1  0  0  0  0
  1  2  1  0  0  0  0
  2  5  2  0  0  0  0
  2  4  1  0  0  0  0
  3  8  1  6  0  0  0
  3  4  1  0  0  0  0
  4 27  1  1  0  0  0
  6  7  1  6  0  0  0
  6  3  1  0  0  0  0
  8  9  1  1  0  0  0
 11  8  1  0  0  0  0
 11 10  1  1  0  0  0
 12 11  1  0  0  0  0
 14 13  1  1  0  0  0
 14 12  1  0  0  0  0
 15 17  1  0  0  0  0
 17 19  2  0  0  0  0
 17 18  1  0  0  0  0
 18 20  1  0  0  0  0
 20 16  2  0  0  0  0
 20 14  1  0  0  0  0
 21 26  1  0  0  0  0
 22 15  1  6  0  0  0
 23 22  1  0  0  0  0
 25 24  1  1  0  0  0
 25 21  1  0  0  0  0
 25 23  1  0  0  0  0
 26 22  1  0  0  0  0
 27 36  1  0  0  0  0
 28 30  1  0  0  0  0
 29 33  2  0  0  0  0
 29 32  1  0  0  0  0
 31 27  1  0  0  0  0
 31 30  2  0  0  0  0
 32 28  2  0  0  0  0
 33 31  1  0  0  0  0
 34 32  1  0  0  0  0
 35 34  1  0  0  0  0
 36 37  1  1  0  0  0
 38 36  1  0  0  0  0
 38 45  1  0  0  0  0
 41 43  1  0  0  0  0
 42 40  1  0  0  0  0
 43 42  1  0  0  0  0
 44 41  1  0  0  0  0
 44 46  1  0  0  0  0
 45 41  1  0  0  0  0
 45 39  2  0  0  0  0
 46 40  1  0  0  0  0
M  END
>  <MODEL>
9

>  <REMARK>
 VINA RESULT:      -4.0      3.668      7.794
  Name = 
  12 active torsions:
  status: ('A' for Active; 'I' for Inactive)
    1  A    between atoms: N_4  and  C_6
    2  A    between atoms: N_4  and  C_25
    3  A    between atoms: N_4  and  C_30
    4  A    between atoms: C_6  and  C_13
    5  A    between atoms: C_7  and  C_17
    6  A    between atoms: C_7  and  C_40
    7  A    between atoms: N_10  and  C_11
    8  A    between atoms: O_12  and  C_35
    9  A    between atoms: C_13  and  C_31
   10  A    between atoms: C_32  and  C_37
   11  A    between atoms: C_32  and  C_40
   12  A    between atoms: C_37  and  C_46
                            x       y       z     vdW  Elec       q    Type
                         _______ _______ _______ _____ _____    ______ ____

>  <TORSDO>
F 12

$$$$
