=
 OpenBabel11042421223D

 39 43  0  0  1  0  0  0  0  0999 V2000
  161.6080  205.6200  152.3250 C   0  0  0  0  0  0  0  0  0  0  0  0
  161.9020  209.9640  151.2320 C   0  0  0  0  0  0  0  0  0  0  0  0
  161.6780  206.9660  152.0560 C   0  0  0  0  0  0  0  0  0  0  0  0
  161.0450  205.4400  153.5800 C   0  0  0  0  0  3  0  0  0  0  0  0
  160.1240  211.7330  155.3430 N   0  0  0  0  0  0  0  0  0  0  0  0
  160.5790  210.9500  154.3310 C   0  0  0  0  0  0  0  0  0  0  0  0
  161.0890  211.2200  153.0880 C   0  0  0  0  0  3  0  0  0  0  0  0
  159.7100  210.9980  156.3820 N   0  0  0  0  0  0  0  0  0  0  0  0
  162.1290  207.4890  150.9010 N   0  0  0  0  0  0  0  0  0  0  0  0
  160.7800  206.6910  154.1230 C   0  0  0  0  0  3  0  0  0  0  0  0
  161.1580  207.6580  153.2040 C   0  0  0  0  0  0  0  0  0  0  0  0
  162.2270  208.7870  150.5330 C   0  0  0  0  0  3  0  0  0  0  0  0
  159.9170  209.3670  156.0260 S   0  0  0  0  0  0  0  0  0  0  0  0
  161.0400  209.0280  153.3820 C   0  0  0  0  0  0  0  0  0  0  0  0
  161.3780  210.0170  152.4950 N   0  0  0  0  0  0  0  0  0  0  0  0
  160.5480  209.6330  154.5110 C   0  0  0  0  0  0  0  0  0  0  0  0
  161.9860  204.5270  151.3740 C   0  0  0  0  0  2  0  0  0  0  0  0
  160.8280  203.5640  151.1310 C   0  0  2  0  0  3  0  0  0  0  0  0
  161.2740  202.1360  151.4070 C   0  0  0  0  0  2  0  0  0  0  0  0
  161.0380  201.2670  150.1870 C   0  0  0  0  0  1  0  0  0  0  0  0
  160.3660  203.6770  149.7540 N   0  0  0  0  0  2  0  0  0  0  0  0
  160.8760  204.9320  149.2130 C   0  0  0  0  0  2  0  0  0  0  0  0
  163.5410  204.0560  145.2480 O   0  0  0  0  0  1  0  0  0  0  0  0
  162.6820  204.8950  145.9610 C   0  0  2  0  0  3  0  0  0  0  0  0
  160.8110  204.9480  147.6900 C   0  0  2  0  0  3  0  0  0  0  0  0
  161.9520  204.1250  147.0700 C   0  0  1  0  0  3  0  0  0  0  0  0
  160.7730  206.3220  147.1850 N   0  0  0  0  0  2  0  0  0  0  0  0
  161.7120  205.5970  145.0060 C   0  0  0  0  0  2  0  0  0  0  0  0
  160.5410  206.2620  145.7440 C   0  0  0  0  0  2  0  0  0  0  0  0
  161.4380  202.9210  146.5790 O   0  0  0  0  0  1  0  0  0  0  0  0
  162.1100  211.2000  150.5800 O   0  0  0  0  0  0  0  0  0  0  0  0
  160.9450  212.6970  149.0520 N   0  0  0  0  0  2  0  0  0  0  0  0
  160.4770  213.1720  147.7860 C   0  0  0  0  0  0  0  0  0  0  0  0
  160.8500  212.5150  146.5710 N   0  0  0  0  0  2  0  0  0  0  0  0
  161.7640  211.5420  149.2630 C   0  0  0  0  0  0  0  0  0  0  0  0
  162.1710  210.8630  148.2810 O   0  0  0  0  0  0  0  0  0  0  0  0
  159.7260  214.1820  147.7510 O   0  0  0  0  0  0  0  0  0  0  0  0
  159.1920  212.2960  144.9440 O   0  0  0  0  0  1  0  0  0  0  0  0
  160.3790  212.9530  145.2670 C   0  0  0  0  0  2  0  0  0  0  0  0
  1  4  2  0  0  0  0
  2 15  1  0  0  0  0
  3  1  1  0  0  0  0
  3 11  1  0  0  0  0
  4 10  1  0  0  0  0
  5  8  2  0  0  0  0
  6 16  1  0  0  0  0
  6  5  1  0  0  0  0
  7  6  2  0  0  0  0
  9  3  2  0  0  0  0
 11 14  1  0  0  0  0
 11 10  2  0  0  0  0
 12  9  1  0  0  0  0
 12  2  2  0  0  0  0
 13  8  1  0  0  0  0
 14 16  2  0  0  0  0
 15  7  1  0  0  0  0
 15 14  1  0  0  0  0
 16 13  1  0  0  0  0
 17  1  1  0  0  0  0
 18 17  1  6  0  0  0
 18 19  1  0  0  0  0
 20 19  1  0  0  0  0
 21 18  1  0  0  0  0
 22 21  1  0  0  0  0
 24 23  1  6  0  0  0
 24 26  1  0  0  0  0
 25 22  1  1  0  0  0
 26 30  1  6  0  0  0
 26 25  1  0  0  0  0
 27 25  1  0  0  0  0
 28 29  1  0  0  0  0
 28 24  1  0  0  0  0
 29 27  1  0  0  0  0
 31  2  1  0  0  0  0
 32 35  1  0  0  0  0
 33 32  1  0  0  0  0
 34 33  1  0  0  0  0
 35 31  1  0  0  0  0
 36 35  2  0  0  0  0
 37 33  2  0  0  0  0
 38 39  1  0  0  0  0
 39 34  1  0  0  0  0
M  END
>  <MODEL>
1

>  <REMARK>
 VINA RESULT:      -9.1      0.000      0.000
  Name = 
  9 active torsions:
  status: ('A' for Active; 'I' for Inactive)
    1  A    between atoms: C_4  and  C_27
    2  A    between atoms: C_5  and  C_24
    3  A    between atoms: C_7  and  C_37
    4  A    between atoms: C_9  and  O_26
    5  A    between atoms: C_11  and  N_30
    6  A    between atoms: N_12  and  C_27
    7  A    between atoms: N_12  and  C_37
    8  A    between atoms: C_24  and  C_37
    9  A    between atoms: O_26  and  C_31
                            x       y       z     vdW  Elec       q    Type
                         _______ _______ _______ _____ _____    ______ ____

>  <TORSDO>
F 9

$$$$
=
 OpenBabel11042421223D

 39 43  0  0  1  0  0  0  0  0999 V2000
  161.5770  207.1570  152.3660 C   0  0  0  0  0  0  0  0  0  0  0  0
  161.0630  211.3430  150.8250 C   0  0  0  0  0  0  0  0  0  0  0  0
  161.3950  208.4570  151.9580 C   0  0  0  0  0  0  0  0  0  0  0  0
  161.0220  206.9990  153.6270 C   0  0  0  0  0  3  0  0  0  0  0  0
  158.8560  213.1390  154.7100 N   0  0  0  0  0  0  0  0  0  0  0  0
  159.4830  212.3610  153.7910 C   0  0  0  0  0  0  0  0  0  0  0  0
  159.9690  212.5970  152.5310 C   0  0  0  0  0  3  0  0  0  0  0  0
  158.5600  212.4470  155.8170 N   0  0  0  0  0  0  0  0  0  0  0  0
  161.7710  208.9380  150.7590 N   0  0  0  0  0  0  0  0  0  0  0  0
  160.5050  208.2230  154.0330 C   0  0  0  0  0  3  0  0  0  0  0  0
  160.7180  209.1480  153.0210 C   0  0  0  0  0  0  0  0  0  0  0  0
  161.6300  210.1860  150.2570 C   0  0  0  0  0  3  0  0  0  0  0  0
  159.0880  210.8590  155.6360 S   0  0  0  0  0  0  0  0  0  0  0  0
  160.3340  210.4790  153.0540 C   0  0  0  0  0  0  0  0  0  0  0  0
  160.5010  211.4200  152.0710 N   0  0  0  0  0  0  0  0  0  0  0  0
  159.7010  211.0880  154.1080 C   0  0  0  0  0  0  0  0  0  0  0  0
  162.1860  206.0680  151.5390 C   0  0  0  0  0  2  0  0  0  0  0  0
  161.1620  204.9990  151.1690 C   0  0  2  0  0  3  0  0  0  0  0  0
  161.3670  203.7640  152.0330 C   0  0  0  0  0  2  0  0  0  0  0  0
  161.0560  202.5110  151.2380 C   0  0  0  0  0  1  0  0  0  0  0  0
  161.2980  204.6440  149.7630 N   0  0  0  0  0  2  0  0  0  0  0  0
  160.8470  205.7810  148.9680 C   0  0  0  0  0  2  0  0  0  0  0  0
  163.4070  204.0550  145.2190 O   0  0  0  0  0  1  0  0  0  0  0  0
  162.5330  205.0100  145.7430 C   0  0  2  0  0  3  0  0  0  0  0  0
  160.7260  205.4160  147.4930 C   0  0  2  0  0  3  0  0  0  0  0  0
  161.8840  204.5100  147.0410 C   0  0  1  0  0  3  0  0  0  0  0  0
  160.6010  206.6190  146.6680 N   0  0  0  0  0  2  0  0  0  0  0  0
  161.4960  205.4140  144.6920 C   0  0  0  0  0  2  0  0  0  0  0  0
  160.3200  206.1950  145.2980 C   0  0  0  0  0  2  0  0  0  0  0  0
  161.4130  203.2040  146.8870 O   0  0  0  0  0  1  0  0  0  0  0  0
  161.0500  212.5220  150.0500 O   0  0  0  0  0  0  0  0  0  0  0  0
  160.4400  212.5740  147.6910 N   0  0  0  0  0  2  0  0  0  0  0  0
  160.6660  212.6720  146.2820 C   0  0  0  0  0  0  0  0  0  0  0  0
  161.9740  212.9280  145.7630 N   0  0  0  0  0  2  0  0  0  0  0  0
  161.4420  212.6710  148.7090 C   0  0  0  0  0  0  0  0  0  0  0  0
  162.6430  212.8960  148.3990 O   0  0  0  0  0  0  0  0  0  0  0  0
  159.6930  212.5260  145.4950 O   0  0  0  0  0  0  0  0  0  0  0  0
  163.5610  213.4380  144.1300 O   0  0  0  0  0  1  0  0  0  0  0  0
  162.2490  213.0130  144.3370 C   0  0  0  0  0  2  0  0  0  0  0  0
  1  4  2  0  0  0  0
  2 15  1  0  0  0  0
  3  1  1  0  0  0  0
  3 11  1  0  0  0  0
  4 10  1  0  0  0  0
  5  8  2  0  0  0  0
  6 16  1  0  0  0  0
  6  5  1  0  0  0  0
  7  6  2  0  0  0  0
  9  3  2  0  0  0  0
 11 14  1  0  0  0  0
 11 10  2  0  0  0  0
 12  9  1  0  0  0  0
 12  2  2  0  0  0  0
 13  8  1  0  0  0  0
 14 16  2  0  0  0  0
 15  7  1  0  0  0  0
 15 14  1  0  0  0  0
 16 13  1  0  0  0  0
 17  1  1  0  0  0  0
 18 17  1  1  0  0  0
 18 19  1  0  0  0  0
 20 19  1  0  0  0  0
 21 18  1  0  0  0  0
 22 21  1  0  0  0  0
 24 23  1  6  0  0  0
 24 26  1  0  0  0  0
 25 22  1  1  0  0  0
 26 30  1  6  0  0  0
 26 25  1  0  0  0  0
 27 25  1  0  0  0  0
 28 29  1  0  0  0  0
 28 24  1  0  0  0  0
 29 27  1  0  0  0  0
 31  2  1  0  0  0  0
 32 35  1  0  0  0  0
 33 32  1  0  0  0  0
 34 33  1  0  0  0  0
 35 31  1  0  0  0  0
 36 35  2  0  0  0  0
 37 33  2  0  0  0  0
 38 39  1  0  0  0  0
 39 34  1  0  0  0  0
M  END
>  <MODEL>
2

>  <REMARK>
 VINA RESULT:      -8.7      1.432      1.675
  Name = 
  9 active torsions:
  status: ('A' for Active; 'I' for Inactive)
    1  A    between atoms: C_4  and  C_27
    2  A    between atoms: C_5  and  C_24
    3  A    between atoms: C_7  and  C_37
    4  A    between atoms: C_9  and  O_26
    5  A    between atoms: C_11  and  N_30
    6  A    between atoms: N_12  and  C_27
    7  A    between atoms: N_12  and  C_37
    8  A    between atoms: C_24  and  C_37
    9  A    between atoms: O_26  and  C_31
                            x       y       z     vdW  Elec       q    Type
                         _______ _______ _______ _____ _____    ______ ____

>  <TORSDO>
F 9

$$$$
=
 OpenBabel11042421223D

 39 43  0  0  1  0  0  0  0  0999 V2000
  161.6780  208.1160  151.8350 C   0  0  0  0  0  0  0  0  0  0  0  0
  161.4750  211.8980  149.4250 C   0  0  0  0  0  0  0  0  0  0  0  0
  161.5840  209.3050  151.1520 C   0  0  0  0  0  0  0  0  0  0  0  0
  160.9640  208.2200  153.0200 C   0  0  0  0  0  3  0  0  0  0  0  0
  158.8480  214.4530  152.5490 N   0  0  0  0  0  0  0  0  0  0  0  0
  159.5640  213.5030  151.8950 C   0  0  0  0  0  0  0  0  0  0  0  0
  160.2100  213.4770  150.6860 C   0  0  0  0  0  3  0  0  0  0  0  0
  158.3970  214.0030  153.7260 N   0  0  0  0  0  0  0  0  0  0  0  0
  162.1200  209.5300  149.9390 N   0  0  0  0  0  0  0  0  0  0  0  0
  160.4340  209.5010  153.1000 C   0  0  0  0  0  3  0  0  0  0  0  0
  160.7970  210.1990  151.9570 C   0  0  0  0  0  0  0  0  0  0  0  0
  162.0770  210.6490  149.1800 C   0  0  0  0  0  3  0  0  0  0  0  0
  158.9000  212.4110  153.9400 S   0  0  0  0  0  0  0  0  0  0  0  0
  160.4490  211.5090  151.6700 C   0  0  0  0  0  0  0  0  0  0  0  0
  160.7640  212.2300  150.5470 N   0  0  0  0  0  0  0  0  0  0  0  0
  159.7060  212.3220  152.4890 C   0  0  0  0  0  0  0  0  0  0  0  0
  162.3560  206.8800  151.3310 C   0  0  0  0  0  2  0  0  0  0  0  0
  161.3490  205.8050  150.9350 C   0  0  2  0  0  3  0  0  0  0  0  0
  161.8090  204.4480  151.4470 C   0  0  0  0  0  2  0  0  0  0  0  0
  160.8920  203.9650  152.5530 C   0  0  0  0  0  1  0  0  0  0  0  0
  161.2110  205.7610  149.4850 N   0  0  0  0  0  2  0  0  0  0  0  0
  161.3530  204.3710  149.0640 C   0  0  0  0  0  2  0  0  0  0  0  0
  160.3340  206.5050  144.8210 O   0  0  0  0  0  1  0  0  0  0  0  0
  160.4240  205.3460  145.5960 C   0  0  2  0  0  3  0  0  0  0  0  0
  161.6250  204.2680  147.5680 C   0  0  2  0  0  3  0  0  0  0  0  0
  161.2880  205.5820  146.8430 C   0  0  1  0  0  3  0  0  0  0  0  0
  160.9310  203.1160  146.9910 N   0  0  0  0  0  2  0  0  0  0  0  0
  160.9330  204.1780  144.7480 C   0  0  0  0  0  2  0  0  0  0  0  0
  161.3690  202.9790  145.6030 C   0  0  0  0  0  2  0  0  0  0  0  0
  162.4740  206.2390  146.5050 O   0  0  0  0  0  1  0  0  0  0  0  0
  161.5910  212.8940  148.4310 O   0  0  0  0  0  0  0  0  0  0  0  0
  162.4610  213.1820  146.1730 N   0  0  0  0  0  2  0  0  0  0  0  0
  162.4350  213.1320  144.7440 C   0  0  0  0  0  0  0  0  0  0  0  0
  161.3150  212.5770  144.0470 N   0  0  0  0  0  2  0  0  0  0  0  0
  161.4120  212.7470  147.0460 C   0  0  0  0  0  0  0  0  0  0  0  0
  160.3620  212.2350  146.5720 O   0  0  0  0  0  0  0  0  0  0  0  0
  163.4150  213.5880  144.0980 O   0  0  0  0  0  0  0  0  0  0  0  0
  160.5230  211.4020  142.1940 O   0  0  0  0  0  1  0  0  0  0  0  0
  161.2410  212.5280  142.5960 C   0  0  0  0  0  2  0  0  0  0  0  0
  1  4  2  0  0  0  0
  2 15  1  0  0  0  0
  3  1  1  0  0  0  0
  3 11  1  0  0  0  0
  4 10  1  0  0  0  0
  5  8  2  0  0  0  0
  6 16  1  0  0  0  0
  6  5  1  0  0  0  0
  7  6  2  0  0  0  0
  8 13  1  0  0  0  0
  9  3  2  0  0  0  0
 11 10  2  0  0  0  0
 12  2  2  0  0  0  0
 12  9  1  0  0  0  0
 14 11  1  0  0  0  0
 14 16  2  0  0  0  0
 15  7  1  0  0  0  0
 15 14  1  0  0  0  0
 16 13  1  0  0  0  0
 17  1  1  0  0  0  0
 18 17  1  6  0  0  0
 18 19  1  0  0  0  0
 19 20  1  0  0  0  0
 21 18  1  0  0  0  0
 22 21  1  0  0  0  0
 24 23  1  6  0  0  0
 24 26  1  0  0  0  0
 25 22  1  1  0  0  0
 26 30  1  6  0  0  0
 26 25  1  0  0  0  0
 27 25  1  0  0  0  0
 28 24  1  0  0  0  0
 28 29  1  0  0  0  0
 29 27  1  0  0  0  0
 31  2  1  0  0  0  0
 32 35  1  0  0  0  0
 33 32  1  0  0  0  0
 34 33  1  0  0  0  0
 35 31  1  0  0  0  0
 36 35  2  0  0  0  0
 37 33  2  0  0  0  0
 38 39  1  0  0  0  0
 39 34  1  0  0  0  0
M  END
>  <MODEL>
3

>  <REMARK>
 VINA RESULT:      -8.4      2.230      3.023
  Name = 
  9 active torsions:
  status: ('A' for Active; 'I' for Inactive)
    1  A    between atoms: C_4  and  C_27
    2  A    between atoms: C_5  and  C_24
    3  A    between atoms: C_7  and  C_37
    4  A    between atoms: C_9  and  O_26
    5  A    between atoms: C_11  and  N_30
    6  A    between atoms: N_12  and  C_27
    7  A    between atoms: N_12  and  C_37
    8  A    between atoms: C_24  and  C_37
    9  A    between atoms: O_26  and  C_31
                            x       y       z     vdW  Elec       q    Type
                         _______ _______ _______ _____ _____    ______ ____

>  <TORSDO>
F 9

$$$$
=
 OpenBabel11042421223D

 39 43  0  0  1  0  0  0  0  0999 V2000
  161.2340  207.1530  153.8360 C   0  0  0  0  0  0  0  0  0  0  0  0
  162.0460  209.7060  150.2330 C   0  0  0  0  0  0  0  0  0  0  0  0
  161.4680  207.8790  152.6920 C   0  0  0  0  0  0  0  0  0  0  0  0
  161.0560  205.8200  153.4950 C   0  0  0  0  0  3  0  0  0  0  0  0
  161.6800  206.2150  146.9370 N   0  0  0  0  0  0  0  0  0  0  0  0
  161.7140  206.9590  148.0720 C   0  0  0  0  0  0  0  0  0  0  0  0
  161.9420  208.2870  148.3200 C   0  0  0  0  0  3  0  0  0  0  0  0
  161.4190  204.9290  147.2020 N   0  0  0  0  0  0  0  0  0  0  0  0
  161.7310  209.1980  152.6690 N   0  0  0  0  0  0  0  0  0  0  0  0
  161.1520  205.7060  152.1140 C   0  0  0  0  0  3  0  0  0  0  0  0
  161.4090  206.9630  151.5860 C   0  0  0  0  0  0  0  0  0  0  0  0
  161.9860  209.9990  151.6080 C   0  0  0  0  0  3  0  0  0  0  0  0
  161.2330  204.7320  148.8630 S   0  0  0  0  0  0  0  0  0  0  0  0
  161.5780  207.2510  150.2410 C   0  0  0  0  0  0  0  0  0  0  0  0
  161.8560  208.4690  149.6770 N   0  0  0  0  0  0  0  0  0  0  0  0
  161.4950  206.3330  149.2240 C   0  0  0  0  0  0  0  0  0  0  0  0
  161.2670  207.6990  155.2300 C   0  0  0  0  0  2  0  0  0  0  0  0
  160.7900  209.1470  155.2810 C   0  0  2  0  0  3  0  0  0  0  0  0
  161.5070  209.8910  156.3970 C   0  0  0  0  0  2  0  0  0  0  0  0
  162.7690  210.5430  155.8670 C   0  0  0  0  0  1  0  0  0  0  0  0
  159.3510  209.1900  155.5080 N   0  0  0  0  0  2  0  0  0  0  0  0
  159.0070  210.5390  155.9450 C   0  0  0  0  0  2  0  0  0  0  0  0
  158.9130  214.0130  152.5520 O   0  0  0  0  0  1  0  0  0  0  0  0
  158.3530  213.4220  153.6870 C   0  0  2  0  0  3  0  0  0  0  0  0
  158.0790  211.2260  154.9500 C   0  0  2  0  0  3  0  0  0  0  0  0
  158.8720  211.9900  153.8760 C   0  0  1  0  0  3  0  0  0  0  0  0
  157.1120  212.0780  155.6430 N   0  0  0  0  0  2  0  0  0  0  0  0
  156.8250  213.4820  153.6180 C   0  0  0  0  0  2  0  0  0  0  0  0
  156.1550  212.5660  154.6530 C   0  0  0  0  0  2  0  0  0  0  0  0
  158.8180  211.2820  152.6730 O   0  0  0  0  0  1  0  0  0  0  0  0
  162.3420  210.7620  149.3440 O   0  0  0  0  0  0  0  0  0  0  0  0
  161.0500  211.5360  147.4290 N   0  0  0  0  0  2  0  0  0  0  0  0
  160.1740  212.4050  146.7050 C   0  0  0  0  0  0  0  0  0  0  0  0
  159.5680  213.5340  147.3420 N   0  0  0  0  0  2  0  0  0  0  0  0
  161.4490  211.6960  148.7950 C   0  0  0  0  0  0  0  0  0  0  0  0
  160.9920  212.6490  149.4830 O   0  0  0  0  0  0  0  0  0  0  0  0
  159.9410  212.1660  145.4910 O   0  0  0  0  0  0  0  0  0  0  0  0
  157.4260  213.8830  146.4860 O   0  0  0  0  0  1  0  0  0  0  0  0
  158.6890  214.4530  146.6360 C   0  0  0  0  0  2  0  0  0  0  0  0
  1 17  1  0  0  0  0
  2 12  2  0  0  0  0
  3  1  1  0  0  0  0
  4  1  2  0  0  0  0
  5  8  2  0  0  0  0
  5  6  1  0  0  0  0
  6  7  2  0  0  0  0
  6 16  1  0  0  0  0
  7 15  1  0  0  0  0
  8 13  1  0  0  0  0
  9  3  2  0  0  0  0
 10  4  1  0  0  0  0
 11 10  2  0  0  0  0
 11  3  1  0  0  0  0
 12  9  1  0  0  0  0
 13 16  1  0  0  0  0
 14 11  1  0  0  0  0
 15  2  1  0  0  0  0
 15 14  1  0  0  0  0
 16 14  2  0  0  0  0
 18 17  1  1  0  0  0
 18 21  1  0  0  0  0
 18 19  1  0  0  0  0
 20 19  1  0  0  0  0
 21 22  1  0  0  0  0
 24 23  1  6  0  0  0
 24 26  1  0  0  0  0
 25 27  1  0  0  0  0
 25 22  1  1  0  0  0
 26 30  1  6  0  0  0
 26 25  1  0  0  0  0
 28 24  1  0  0  0  0
 28 29  1  0  0  0  0
 29 27  1  0  0  0  0
 31  2  1  0  0  0  0
 32 35  1  0  0  0  0
 33 34  1  0  0  0  0
 33 32  1  0  0  0  0
 35 31  1  0  0  0  0
 35 36  2  0  0  0  0
 37 33  2  0  0  0  0
 38 39  1  0  0  0  0
 39 34  1  0  0  0  0
M  END
>  <MODEL>
4

>  <REMARK>
 VINA RESULT:      -8.1      3.026      7.193
  Name = 
  9 active torsions:
  status: ('A' for Active; 'I' for Inactive)
    1  A    between atoms: C_4  and  C_27
    2  A    between atoms: C_5  and  C_24
    3  A    between atoms: C_7  and  C_37
    4  A    between atoms: C_9  and  O_26
    5  A    between atoms: C_11  and  N_30
    6  A    between atoms: N_12  and  C_27
    7  A    between atoms: N_12  and  C_37
    8  A    between atoms: C_24  and  C_37
    9  A    between atoms: O_26  and  C_31
                            x       y       z     vdW  Elec       q    Type
                         _______ _______ _______ _____ _____    ______ ____

>  <TORSDO>
F 9

$$$$
=
 OpenBabel11042421223D

 39 43  0  0  1  0  0  0  0  0999 V2000
  161.2990  204.7390  150.7660 C   0  0  0  0  0  0  0  0  0  0  0  0
  161.8190  209.1970  150.8910 C   0  0  0  0  0  0  0  0  0  0  0  0
  161.4490  206.1010  150.8750 C   0  0  0  0  0  0  0  0  0  0  0  0
  160.9050  204.2310  151.9960 C   0  0  0  0  0  3  0  0  0  0  0  0
  160.8060  209.7830  155.5620 N   0  0  0  0  0  0  0  0  0  0  0  0
  161.0420  209.3060  154.3130 C   0  0  0  0  0  0  0  0  0  0  0  0
  161.3930  209.8990  153.1280 C   0  0  0  0  0  3  0  0  0  0  0  0
  160.4800  208.8000  156.4090 N   0  0  0  0  0  0  0  0  0  0  0  0
  161.7760  206.9140  149.8540 N   0  0  0  0  0  0  0  0  0  0  0  0
  160.8320  205.2830  152.9000 C   0  0  0  0  0  3  0  0  0  0  0  0
  161.1600  206.4560  152.2380 C   0  0  0  0  0  0  0  0  0  0  0  0
  161.9370  208.2580  149.8490 C   0  0  0  0  0  3  0  0  0  0  0  0
  160.4880  207.3320  155.5840 S   0  0  0  0  0  0  0  0  0  0  0  0
  161.1910  207.7200  152.8060 C   0  0  0  0  0  0  0  0  0  0  0  0
  161.4870  208.9070  152.1870 N   0  0  0  0  0  0  0  0  0  0  0  0
  160.9200  207.9950  154.1230 C   0  0  0  0  0  0  0  0  0  0  0  0
  161.4390  203.9510  149.5020 C   0  0  0  0  0  2  0  0  0  0  0  0
  160.5280  202.7270  149.4950 C   0  0  2  0  0  3  0  0  0  0  0  0
  161.2060  201.5720  150.2160 C   0  0  0  0  0  2  0  0  0  0  0  0
  160.2110  200.4600  150.4790 C   0  0  0  0  0  1  0  0  0  0  0  0
  160.2250  202.3390  148.1230 N   0  0  0  0  0  2  0  0  0  0  0  0
  161.4880  202.2160  147.4040 C   0  0  0  0  0  2  0  0  0  0  0  0
  161.9490  206.9700  146.5220 O   0  0  0  0  0  1  0  0  0  0  0  0
  161.2950  205.7580  146.2850 C   0  0  2  0  0  3  0  0  0  0  0  0
  161.5810  203.2270  146.2670 C   0  0  2  0  0  3  0  0  0  0  0  0
  162.1480  204.5700  146.7530 C   0  0  1  0  0  3  0  0  0  0  0  0
  160.2890  203.3740  145.5940 N   0  0  0  0  0  2  0  0  0  0  0  0
  160.9040  205.6460  144.8090 C   0  0  0  0  0  2  0  0  0  0  0  0
  160.4900  204.2190  144.4200 C   0  0  0  0  0  2  0  0  0  0  0  0
  163.4660  204.7030  146.3100 O   0  0  0  0  0  1  0  0  0  0  0  0
  162.0430  210.5570  150.5830 O   0  0  0  0  0  0  0  0  0  0  0  0
  161.2230  212.4000  149.2170 N   0  0  0  0  0  2  0  0  0  0  0  0
  161.0120  213.1460  148.0140 C   0  0  0  0  0  0  0  0  0  0  0  0
  161.5850  212.7200  146.7750 N   0  0  0  0  0  2  0  0  0  0  0  0
  161.9570  211.1760  149.3260 C   0  0  0  0  0  0  0  0  0  0  0  0
  162.5200  210.6800  148.3120 O   0  0  0  0  0  0  0  0  0  0  0  0
  160.3080  214.1890  148.0570 O   0  0  0  0  0  0  0  0  0  0  0  0
  162.5330  213.3850  144.7490 O   0  0  0  0  0  1  0  0  0  0  0  0
  161.3770  213.4380  145.5270 C   0  0  0  0  0  2  0  0  0  0  0  0
  1  3  1  0  0  0  0
  1  4  2  0  0  0  0
  2 15  1  0  0  0  0
  3 11  1  0  0  0  0
  4 10  1  0  0  0  0
  5  8  2  0  0  0  0
  6  5  1  0  0  0  0
  7  6  2  0  0  0  0
  9  3  2  0  0  0  0
 11 14  1  0  0  0  0
 11 10  2  0  0  0  0
 12  9  1  0  0  0  0
 12  2  2  0  0  0  0
 13  8  1  0  0  0  0
 14 16  2  0  0  0  0
 15 14  1  0  0  0  0
 15  7  1  0  0  0  0
 16  6  1  0  0  0  0
 16 13  1  0  0  0  0
 17  1  1  0  0  0  0
 18 17  1  6  0  0  0
 18 19  1  0  0  0  0
 19 20  1  0  0  0  0
 21 18  1  0  0  0  0
 22 21  1  0  0  0  0
 24 23  1  6  0  0  0
 24 26  1  0  0  0  0
 25 26  1  0  0  0  0
 25 22  1  1  0  0  0
 26 30  1  6  0  0  0
 27 25  1  0  0  0  0
 28 24  1  0  0  0  0
 29 28  1  0  0  0  0
 29 27  1  0  0  0  0
 31  2  1  0  0  0  0
 32 35  1  0  0  0  0
 33 37  2  0  0  0  0
 33 32  1  0  0  0  0
 34 33  1  0  0  0  0
 35 31  1  0  0  0  0
 36 35  2  0  0  0  0
 38 39  1  0  0  0  0
 39 34  1  0  0  0  0
M  END
>  <MODEL>
5

>  <REMARK>
 VINA RESULT:      -7.5      1.510      1.847
  Name = 
  9 active torsions:
  status: ('A' for Active; 'I' for Inactive)
    1  A    between atoms: C_4  and  C_27
    2  A    between atoms: C_5  and  C_24
    3  A    between atoms: C_7  and  C_37
    4  A    between atoms: C_9  and  O_26
    5  A    between atoms: C_11  and  N_30
    6  A    between atoms: N_12  and  C_27
    7  A    between atoms: N_12  and  C_37
    8  A    between atoms: C_24  and  C_37
    9  A    between atoms: O_26  and  C_31
                            x       y       z     vdW  Elec       q    Type
                         _______ _______ _______ _____ _____    ______ ____

>  <TORSDO>
F 9

$$$$
=
 OpenBabel11042421223D

 39 43  0  0  1  0  0  0  0  0999 V2000
  160.3350  210.1730  154.5680 C   0  0  0  0  0  0  0  0  0  0  0  0
  158.6140  213.1120  151.6430 C   0  0  0  0  0  0  0  0  0  0  0  0
  159.7600  211.0910  153.7220 C   0  0  0  0  0  0  0  0  0  0  0  0
  159.5520  210.0590  155.7080 C   0  0  0  0  0  3  0  0  0  0  0  0
  154.8310  214.4520  154.3050 N   0  0  0  0  0  0  0  0  0  0  0  0
  155.9620  213.8880  153.8100 C   0  0  0  0  0  0  0  0  0  0  0  0
  156.6520  214.0350  152.6350 C   0  0  0  0  0  3  0  0  0  0  0  0
  154.5370  213.9780  155.5210 N   0  0  0  0  0  0  0  0  0  0  0  0
  160.2370  211.4060  152.5040 N   0  0  0  0  0  0  0  0  0  0  0  0
  158.4820  210.9370  155.5910 C   0  0  0  0  0  3  0  0  0  0  0  0
  158.5790  211.5910  154.3720 C   0  0  0  0  0  0  0  0  0  0  0  0
  159.7460  212.2780  151.5940 C   0  0  0  0  0  3  0  0  0  0  0  0
  155.7010  212.8480  155.9710 S   0  0  0  0  0  0  0  0  0  0  0  0
  157.6890  212.5380  153.8930 C   0  0  0  0  0  0  0  0  0  0  0  0
  157.7330  213.1910  152.6880 N   0  0  0  0  0  0  0  0  0  0  0  0
  156.5830  212.9890  154.5690 C   0  0  0  0  0  0  0  0  0  0  0  0
  161.5520  209.3570  154.2630 C   0  0  0  0  0  2  0  0  0  0  0  0
  161.2400  208.2160  153.3000 C   0  0  2  0  0  3  0  0  0  0  0  0
  161.5030  206.8790  153.9770 C   0  0  0  0  0  2  0  0  0  0  0  0
  160.3840  206.5530  154.9460 C   0  0  0  0  0  1  0  0  0  0  0  0
  162.0670  208.3310  152.1050 N   0  0  0  0  0  2  0  0  0  0  0  0
  161.1900  208.2280  150.9430 C   0  0  0  0  0  2  0  0  0  0  0  0
  160.6910  206.4050  146.4700 O   0  0  0  0  0  1  0  0  0  0  0  0
  160.5900  206.2460  147.8530 C   0  0  2  0  0  3  0  0  0  0  0  0
  161.5320  207.0100  150.0940 C   0  0  2  0  0  3  0  0  0  0  0  0
  161.4050  207.3170  148.5930 C   0  0  1  0  0  3  0  0  0  0  0  0
  160.7340  205.8520  150.4990 N   0  0  0  0  0  2  0  0  0  0  0  0
  160.9980  204.8260  148.2550 C   0  0  0  0  0  2  0  0  0  0  0  0
  161.2300  204.6890  149.7670 C   0  0  0  0  0  2  0  0  0  0  0  0
  162.6800  207.4390  148.0370 O   0  0  0  0  0  1  0  0  0  0  0  0
  158.3420  213.9260  150.5220 O   0  0  0  0  0  0  0  0  0  0  0  0
  157.7500  213.1330  148.2960 N   0  0  0  0  0  2  0  0  0  0  0  0
  157.9680  212.8120  146.9190 C   0  0  0  0  0  0  0  0  0  0  0  0
  159.2240  213.0850  146.2910 N   0  0  0  0  0  2  0  0  0  0  0  0
  158.7160  213.6990  149.1880 C   0  0  0  0  0  0  0  0  0  0  0  0
  159.8700  213.9930  148.7720 O   0  0  0  0  0  0  0  0  0  0  0  0
  157.0370  212.2790  146.2600 O   0  0  0  0  0  0  0  0  0  0  0  0
  158.7560  213.5880  144.0610 O   0  0  0  0  0  1  0  0  0  0  0  0
  159.4930  212.7540  144.9000 C   0  0  0  0  0  2  0  0  0  0  0  0
  1  4  2  0  0  0  0
  2 15  1  0  0  0  0
  3 11  1  0  0  0  0
  3  1  1  0  0  0  0
  5  8  2  0  0  0  0
  6  5  1  0  0  0  0
  6 16  1  0  0  0  0
  7 15  1  0  0  0  0
  7  6  2  0  0  0  0
  8 13  1  0  0  0  0
  9  3  2  0  0  0  0
 10  4  1  0  0  0  0
 11 10  2  0  0  0  0
 12  2  2  0  0  0  0
 12  9  1  0  0  0  0
 14 11  1  0  0  0  0
 14 16  2  0  0  0  0
 15 14  1  0  0  0  0
 16 13  1  0  0  0  0
 17  1  1  0  0  0  0
 18 19  1  1  0  0  0
 18 17  1  0  0  0  0
 19 20  1  0  0  0  0
 21 18  1  0  0  0  0
 22 21  1  0  0  0  0
 24 23  1  6  0  0  0
 24 28  1  0  0  0  0
 24 26  1  0  0  0  0
 25 27  1  0  0  0  0
 25 22  1  1  0  0  0
 26 30  1  6  0  0  0
 26 25  1  0  0  0  0
 28 29  1  0  0  0  0
 29 27  1  0  0  0  0
 31  2  1  0  0  0  0
 32 35  1  0  0  0  0
 33 32  1  0  0  0  0
 34 33  1  0  0  0  0
 35 31  1  0  0  0  0
 36 35  2  0  0  0  0
 37 33  2  0  0  0  0
 38 39  1  0  0  0  0
 39 34  1  0  0  0  0
M  END
>  <MODEL>
6

>  <REMARK>
 VINA RESULT:      -7.4      2.942      4.559
  Name = 
  9 active torsions:
  status: ('A' for Active; 'I' for Inactive)
    1  A    between atoms: C_4  and  C_27
    2  A    between atoms: C_5  and  C_24
    3  A    between atoms: C_7  and  C_37
    4  A    between atoms: C_9  and  O_26
    5  A    between atoms: C_11  and  N_30
    6  A    between atoms: N_12  and  C_27
    7  A    between atoms: N_12  and  C_37
    8  A    between atoms: C_24  and  C_37
    9  A    between atoms: O_26  and  C_31
                            x       y       z     vdW  Elec       q    Type
                         _______ _______ _______ _____ _____    ______ ____

>  <TORSDO>
F 9

$$$$
=
 OpenBabel11042421223D

 39 43  0  0  1  0  0  0  0  0999 V2000
  161.2130  211.5150  150.3270 C   0  0  0  0  0  0  0  0  0  0  0  0
  161.9510  207.3770  151.9060 C   0  0  0  0  0  0  0  0  0  0  0  0
  161.4040  210.2670  150.8700 C   0  0  0  0  0  0  0  0  0  0  0  0
  160.6730  212.3490  151.2970 C   0  0  0  0  0  3  0  0  0  0  0  0
  160.2140  208.1130  156.3370 N   0  0  0  0  0  0  0  0  0  0  0  0
  160.6180  208.2140  155.0440 C   0  0  0  0  0  0  0  0  0  0  0  0
  161.1870  207.3320  154.1640 C   0  0  0  0  0  3  0  0  0  0  0  0
  159.7120  209.2700  156.7850 N   0  0  0  0  0  0  0  0  0  0  0  0
  161.9580  209.2300  150.2160 N   0  0  0  0  0  0  0  0  0  0  0  0
  160.4970  211.6100  152.4600 C   0  0  0  0  0  3  0  0  0  0  0  0
  160.9420  210.3160  152.2300 C   0  0  0  0  0  0  0  0  0  0  0  0
  162.2020  207.9740  150.6560 C   0  0  0  0  0  3  0  0  0  0  0  0
  159.7790  210.4170  155.5560 S   0  0  0  0  0  0  0  0  0  0  0  0
  160.9350  209.2870  153.1580 C   0  0  0  0  0  0  0  0  0  0  0  0
  161.3850  208.0030  152.9840 N   0  0  0  0  0  0  0  0  0  0  0  0
  160.4650  209.3910  154.4430 C   0  0  0  0  0  0  0  0  0  0  0  0
  161.6150  211.9300  148.9470 C   0  0  0  0  0  2  0  0  0  0  0  0
  161.1180  213.3320  148.6110 C   0  0  2  0  0  3  0  0  0  0  0  0
  159.7160  213.2590  148.0250 C   0  0  0  0  0  2  0  0  0  0  0  0
  158.7880  214.2030  148.7640 C   0  0  0  0  0  1  0  0  0  0  0  0
  162.0170  213.9640  147.6540 N   0  0  0  0  0  2  0  0  0  0  0  0
  162.3790  212.9660  146.6540 C   0  0  0  0  0  2  0  0  0  0  0  0
  160.1650  212.0830  142.4220 O   0  0  0  0  0  1  0  0  0  0  0  0
  161.3270  212.3950  143.1320 C   0  0  2  0  0  3  0  0  0  0  0  0
  162.2220  213.5120  145.2400 C   0  0  2  0  0  3  0  0  0  0  0  0
  160.9930  212.9120  144.5380 C   0  0  1  0  0  3  0  0  0  0  0  0
  163.4530  213.3260  144.4700 N   0  0  0  0  0  2  0  0  0  0  0  0
  162.1840  213.3840  142.3380 C   0  0  0  0  0  2  0  0  0  0  0  0
  163.2910  214.0180  143.1930 C   0  0  0  0  0  2  0  0  0  0  0  0
  159.9780  213.8710  144.4840 O   0  0  0  0  0  1  0  0  0  0  0  0
  162.3240  206.0270  152.0820 O   0  0  0  0  0  0  0  0  0  0  0  0
  161.7460  204.8680  150.0170 N   0  0  0  0  0  2  0  0  0  0  0  0
  161.2050  203.8160  149.2140 C   0  0  0  0  0  0  0  0  0  0  0  0
  160.6640  202.6360  149.8150 N   0  0  0  0  0  2  0  0  0  0  0  0
  161.7790  204.8980  151.4480 C   0  0  0  0  0  0  0  0  0  0  0  0
  161.3360  203.9230  152.1150 O   0  0  0  0  0  0  0  0  0  0  0  0
  161.2060  203.9410  147.9610 O   0  0  0  0  0  0  0  0  0  0  0  0
  161.0960  200.7420  148.5230 O   0  0  0  0  0  1  0  0  0  0  0  0
  160.0840  201.5540  149.0340 C   0  0  0  0  0  2  0  0  0  0  0  0
  1  3  1  0  0  0  0
  1  4  2  0  0  0  0
  2 31  1  0  0  0  0
  2 15  1  0  0  0  0
  3 11  1  0  0  0  0
  4 10  1  0  0  0  0
  5  8  2  0  0  0  0
  6  5  1  0  0  0  0
  7  6  2  0  0  0  0
  9 12  1  0  0  0  0
  9  3  2  0  0  0  0
 11 10  2  0  0  0  0
 11 14  1  0  0  0  0
 12  2  2  0  0  0  0
 13  8  1  0  0  0  0
 14 16  2  0  0  0  0
 15 14  1  0  0  0  0
 15  7  1  0  0  0  0
 16  6  1  0  0  0  0
 16 13  1  0  0  0  0
 17  1  1  0  0  0  0
 18 19  1  6  0  0  0
 18 17  1  0  0  0  0
 19 20  1  0  0  0  0
 21 18  1  0  0  0  0
 22 21  1  0  0  0  0
 24 23  1  6  0  0  0
 24 26  1  0  0  0  0
 25 22  1  1  0  0  0
 26 30  1  6  0  0  0
 26 25  1  0  0  0  0
 27 25  1  0  0  0  0
 28 24  1  0  0  0  0
 28 29  1  0  0  0  0
 29 27  1  0  0  0  0
 32 35  1  0  0  0  0
 33 34  1  0  0  0  0
 33 32  1  0  0  0  0
 35 31  1  0  0  0  0
 35 36  2  0  0  0  0
 37 33  2  0  0  0  0
 38 39  1  0  0  0  0
 39 34  1  0  0  0  0
M  END
>  <MODEL>
7

>  <REMARK>
 VINA RESULT:      -7.2      2.374      7.698
  Name = 
  9 active torsions:
  status: ('A' for Active; 'I' for Inactive)
    1  A    between atoms: C_4  and  C_27
    2  A    between atoms: C_5  and  C_24
    3  A    between atoms: C_7  and  C_37
    4  A    between atoms: C_9  and  O_26
    5  A    between atoms: C_11  and  N_30
    6  A    between atoms: N_12  and  C_27
    7  A    between atoms: N_12  and  C_37
    8  A    between atoms: C_24  and  C_37
    9  A    between atoms: O_26  and  C_31
                            x       y       z     vdW  Elec       q    Type
                         _______ _______ _______ _____ _____    ______ ____

>  <TORSDO>
F 9

$$$$
=
 OpenBabel11042421223D

 39 43  0  0  1  0  0  0  0  0999 V2000
  160.8390  208.1970  154.6780 C   0  0  0  0  0  0  0  0  0  0  0  0
  161.9420  210.0330  150.7320 C   0  0  0  0  0  0  0  0  0  0  0  0
  161.1640  208.6960  153.4390 C   0  0  0  0  0  0  0  0  0  0  0  0
  160.6660  206.8240  154.5780 C   0  0  0  0  0  3  0  0  0  0  0  0
  161.7600  205.9890  148.1230 N   0  0  0  0  0  0  0  0  0  0  0  0
  161.7250  206.9320  149.1000 C   0  0  0  0  0  0  0  0  0  0  0  0
  161.9540  208.2830  149.1130 C   0  0  0  0  0  3  0  0  0  0  0  0
  161.4620  204.7760  148.6030 N   0  0  0  0  0  0  0  0  0  0  0  0
  161.4480  209.9870  153.1900 N   0  0  0  0  0  0  0  0  0  0  0  0
  160.8590  206.4550  153.2530 C   0  0  0  0  0  3  0  0  0  0  0  0
  161.1710  207.5900  152.5200 C   0  0  0  0  0  0  0  0  0  0  0  0
  161.7890  210.5770  152.0210 C   0  0  0  0  0  3  0  0  0  0  0  0
  161.1560  204.8920  150.2540 S   0  0  0  0  0  0  0  0  0  0  0  0
  161.4400  207.6230  151.1610 C   0  0  0  0  0  0  0  0  0  0  0  0
  161.7740  208.7150  150.4030 N   0  0  0  0  0  0  0  0  0  0  0  0
  161.4150  206.5320  150.3290 C   0  0  0  0  0  0  0  0  0  0  0  0
  160.7810  208.9930  155.9440 C   0  0  0  0  0  2  0  0  0  0  0  0
  161.7820  210.1440  155.9340 C   0  0  2  0  0  3  0  0  0  0  0  0
  162.8470  209.9140  156.9950 C   0  0  0  0  0  2  0  0  0  0  0  0
  163.7600  211.1210  157.0930 C   0  0  0  0  0  1  0  0  0  0  0  0
  161.0960  211.4030  156.1920 N   0  0  0  0  0  2  0  0  0  0  0  0
  159.7220  211.0940  156.5730 C   0  0  0  0  0  2  0  0  0  0  0  0
  155.2720  211.2910  154.6370 O   0  0  0  0  0  1  0  0  0  0  0  0
  156.6360  211.5800  154.5530 C   0  0  2  0  0  3  0  0  0  0  0  0
  158.7340  212.0530  155.9190 C   0  0  2  0  0  3  0  0  0  0  0  0
  157.3060  211.4850  155.9310 C   0  0  1  0  0  3  0  0  0  0  0  0
  159.1790  212.4210  154.5740 N   0  0  0  0  0  2  0  0  0  0  0  0
  156.8500  212.9450  153.8960 C   0  0  0  0  0  2  0  0  0  0  0  0
  158.2850  213.4640  154.0760 C   0  0  0  0  0  2  0  0  0  0  0  0
  156.5500  212.1570  156.8950 O   0  0  0  0  0  1  0  0  0  0  0  0
  162.3170  210.9040  149.6860 O   0  0  0  0  0  0  0  0  0  0  0  0
  161.5870  211.7950  147.5390 N   0  0  0  0  0  2  0  0  0  0  0  0
  160.8450  212.6430  146.6570 C   0  0  0  0  0  0  0  0  0  0  0  0
  159.8720  213.5600  147.1640 N   0  0  0  0  0  2  0  0  0  0  0  0
  161.4910  211.7840  148.9670 C   0  0  0  0  0  0  0  0  0  0  0  0
  160.6720  212.5420  149.5560 O   0  0  0  0  0  0  0  0  0  0  0  0
  161.0600  212.5740  145.4180 O   0  0  0  0  0  0  0  0  0  0  0  0
  157.9040  213.8570  145.9460 O   0  0  0  0  0  1  0  0  0  0  0  0
  159.1130  214.4530  146.3020 C   0  0  0  0  0  2  0  0  0  0  0  0
  1 17  1  0  0  0  0
  2 12  2  0  0  0  0
  3  1  1  0  0  0  0
  4  1  2  0  0  0  0
  5  8  2  0  0  0  0
  5  6  1  0  0  0  0
  6  7  2  0  0  0  0
  6 16  1  0  0  0  0
  7 15  1  0  0  0  0
  8 13  1  0  0  0  0
  9  3  2  0  0  0  0
 10  4  1  0  0  0  0
 11 10  2  0  0  0  0
 11  3  1  0  0  0  0
 12  9  1  0  0  0  0
 13 16  1  0  0  0  0
 14 11  1  0  0  0  0
 15  2  1  0  0  0  0
 15 14  1  0  0  0  0
 16 14  2  0  0  0  0
 18 17  1  1  0  0  0
 18 21  1  0  0  0  0
 18 19  1  0  0  0  0
 19 20  1  0  0  0  0
 21 22  1  0  0  0  0
 24 23  1  1  0  0  0
 24 26  1  0  0  0  0
 25 26  1  0  0  0  0
 25 22  1  6  0  0  0
 26 30  1  1  0  0  0
 27 25  1  0  0  0  0
 28 29  1  0  0  0  0
 28 24  1  0  0  0  0
 29 27  1  0  0  0  0
 31  2  1  0  0  0  0
 32 35  1  0  0  0  0
 33 34  1  0  0  0  0
 33 32  1  0  0  0  0
 35 36  2  0  0  0  0
 35 31  1  0  0  0  0
 37 33  2  0  0  0  0
 38 39  1  0  0  0  0
 39 34  1  0  0  0  0
M  END
>  <MODEL>
8

>  <REMARK>
 VINA RESULT:      -7.2      3.126      7.539
  Name = 
  9 active torsions:
  status: ('A' for Active; 'I' for Inactive)
    1  A    between atoms: C_4  and  C_27
    2  A    between atoms: C_5  and  C_24
    3  A    between atoms: C_7  and  C_37
    4  A    between atoms: C_9  and  O_26
    5  A    between atoms: C_11  and  N_30
    6  A    between atoms: N_12  and  C_27
    7  A    between atoms: N_12  and  C_37
    8  A    between atoms: C_24  and  C_37
    9  A    between atoms: O_26  and  C_31
                            x       y       z     vdW  Elec       q    Type
                         _______ _______ _______ _____ _____    ______ ____

>  <TORSDO>
F 9

$$$$
=
 OpenBabel11042421223D

 39 43  0  0  1  0  0  0  0  0999 V2000
  161.8170  211.0450  149.4170 C   0  0  0  0  0  0  0  0  0  0  0  0
  161.7100  206.6060  150.0790 C   0  0  0  0  0  0  0  0  0  0  0  0
  161.7650  209.6980  149.6870 C   0  0  0  0  0  0  0  0  0  0  0  0
  161.6540  211.7480  150.6020 C   0  0  0  0  0  3  0  0  0  0  0  0
  160.8850  206.7310  154.8210 N   0  0  0  0  0  0  0  0  0  0  0  0
  161.1080  207.0180  153.5130 C   0  0  0  0  0  0  0  0  0  0  0  0
  161.3000  206.2440  152.3990 C   0  0  0  0  0  3  0  0  0  0  0  0
  160.7630  207.8450  155.5530 N   0  0  0  0  0  0  0  0  0  0  0  0
  161.9370  208.7310  148.7670 N   0  0  0  0  0  0  0  0  0  0  0  0
  161.4700  210.8330  151.6310 C   0  0  0  0  0  3  0  0  0  0  0  0
  161.5350  209.5540  151.0990 C   0  0  0  0  0  0  0  0  0  0  0  0
  161.9180  207.3880  148.9270 C   0  0  0  0  0  3  0  0  0  0  0  0
  160.9370  209.1880  154.5520 S   0  0  0  0  0  0  0  0  0  0  0  0
  161.4050  208.3760  151.8170 C   0  0  0  0  0  0  0  0  0  0  0  0
  161.4860  207.0930  151.3380 N   0  0  0  0  0  0  0  0  0  0  0  0
  161.1700  208.3000  153.1670 C   0  0  0  0  0  0  0  0  0  0  0  0
  162.1040  211.6500  148.0780 C   0  0  0  0  0  2  0  0  0  0  0  0
  161.5360  213.0610  147.9620 C   0  0  2  0  0  3  0  0  0  0  0  0
  160.0900  213.0010  147.4920 C   0  0  0  0  0  2  0  0  0  0  0  0
  159.1660  213.5450  148.5630 C   0  0  0  0  0  1  0  0  0  0  0  0
  162.3270  213.8410  147.0180 N   0  0  0  0  0  2  0  0  0  0  0  0
  162.7710  212.9420  145.9580 C   0  0  0  0  0  2  0  0  0  0  0  0
  160.6480  211.6260  141.7930 O   0  0  0  0  0  1  0  0  0  0  0  0
  161.7160  212.2260  142.4640 C   0  0  2  0  0  3  0  0  0  0  0  0
  162.3860  213.4730  144.5820 C   0  0  2  0  0  3  0  0  0  0  0  0
  161.3340  212.5770  143.9080 C   0  0  1  0  0  3  0  0  0  0  0  0
  163.5730  213.6670  143.7480 N   0  0  0  0  0  2  0  0  0  0  0  0
  162.2170  213.4430  141.6820 C   0  0  0  0  0  2  0  0  0  0  0  0
  163.1510  214.3320  142.5170 C   0  0  0  0  0  2  0  0  0  0  0  0
  160.0910  213.2150  143.9490 O   0  0  0  0  0  1  0  0  0  0  0  0
  161.7520  205.2010  149.9410 O   0  0  0  0  0  0  0  0  0  0  0  0
  161.3160  203.0270  148.9310 N   0  0  0  0  0  2  0  0  0  0  0  0
  161.0500  202.1060  147.8690 C   0  0  0  0  0  0  0  0  0  0  0  0
  160.8620  202.5650  146.5280 N   0  0  0  0  0  2  0  0  0  0  0  0
  161.4630  204.4450  148.7940 C   0  0  0  0  0  0  0  0  0  0  0  0
  161.3230  204.9920  147.6660 O   0  0  0  0  0  0  0  0  0  0  0  0
  160.9860  200.8760  148.1290 O   0  0  0  0  0  0  0  0  0  0  0  0
  159.6310  202.1920  144.5810 O   0  0  0  0  0  1  0  0  0  0  0  0
  160.6110  201.6590  145.4170 C   0  0  0  0  0  2  0  0  0  0  0  0
  1  3  1  0  0  0  0
  1  4  2  0  0  0  0
  2 15  1  0  0  0  0
  3 11  1  0  0  0  0
  4 10  1  0  0  0  0
  5  8  2  0  0  0  0
  6  5  1  0  0  0  0
  7  6  2  0  0  0  0
  9 12  1  0  0  0  0
  9  3  2  0  0  0  0
 11 10  2  0  0  0  0
 11 14  1  0  0  0  0
 12  2  2  0  0  0  0
 13  8  1  0  0  0  0
 14 16  2  0  0  0  0
 15 14  1  0  0  0  0
 15  7  1  0  0  0  0
 16  6  1  0  0  0  0
 16 13  1  0  0  0  0
 17  1  1  0  0  0  0
 18 19  1  6  0  0  0
 18 17  1  0  0  0  0
 19 20  1  0  0  0  0
 21 18  1  0  0  0  0
 22 21  1  0  0  0  0
 24 23  1  6  0  0  0
 24 26  1  0  0  0  0
 25 22  1  1  0  0  0
 26 30  1  6  0  0  0
 26 25  1  0  0  0  0
 27 25  1  0  0  0  0
 28 24  1  0  0  0  0
 28 29  1  0  0  0  0
 29 27  1  0  0  0  0
 31  2  1  0  0  0  0
 33 37  2  0  0  0  0
 33 32  1  0  0  0  0
 34 33  1  0  0  0  0
 35 32  1  0  0  0  0
 35 31  1  0  0  0  0
 36 35  2  0  0  0  0
 38 39  1  0  0  0  0
 39 34  1  0  0  0  0
M  END
>  <MODEL>
9

>  <REMARK>
 VINA RESULT:      -7.0      2.599      7.850
  Name = 
  9 active torsions:
  status: ('A' for Active; 'I' for Inactive)
    1  A    between atoms: C_4  and  C_27
    2  A    between atoms: C_5  and  C_24
    3  A    between atoms: C_7  and  C_37
    4  A    between atoms: C_9  and  O_26
    5  A    between atoms: C_11  and  N_30
    6  A    between atoms: N_12  and  C_27
    7  A    between atoms: N_12  and  C_37
    8  A    between atoms: C_24  and  C_37
    9  A    between atoms: O_26  and  C_31
                            x       y       z     vdW  Elec       q    Type
                         _______ _______ _______ _____ _____    ______ ____

>  <TORSDO>
F 9

$$$$
