=
 OpenBabel11052411173D

 31 37  0  0  1  0  0  0  0  0999 V2000
  161.8070  211.1810  148.0330 C   0  0  0  0  0  2  0  0  0  0  0  0
  161.7580  208.1390  150.1690 C   0  0  0  0  0  0  0  0  0  0  0  0
  161.5570  206.8870  149.6480 C   0  0  0  0  0  0  0  0  0  0  0  0
  161.1520  204.1720  149.2810 C   0  0  0  0  0  0  0  0  0  0  0  0
  160.8500  202.0030  150.1720 C   0  0  0  0  0  3  0  0  0  0  0  0
  162.2730  210.5300  150.3180 N   0  0  1  0  0  0  0  0  0  0  0  0
  161.2540  204.6910  150.5940 C   0  0  0  0  0  0  0  0  0  0  0  0
  161.4570  206.0610  150.7490 C   0  0  0  0  0  0  0  0  0  0  0  0
  161.9160  211.6900  149.4760 C   0  0  2  0  0  3  0  0  0  0  0  0
  161.5740  206.7460  151.8710 O   0  0  0  0  0  0  0  0  0  0  0  0
  161.5960  210.4980  151.6380 C   0  0  0  0  0  2  0  0  0  0  0  0
  161.7430  208.0100  151.5290 C   0  0  0  0  0  0  0  0  0  0  0  0
  161.4630  206.4140  148.3420 C   0  0  0  0  0  3  0  0  0  0  0  0
  161.1450  203.8140  151.6720 C   0  0  0  0  0  3  0  0  0  0  0  0
  161.6020  209.6870  148.1590 C   0  0  0  0  0  2  0  0  0  0  0  0
  161.9000  209.4120  149.5460 N   0  0  0  0  0  0  0  0  0  0  0  0
  161.9130  209.2010  152.4250 C   0  0  2  0  0  3  0  0  0  0  0  0
  160.9460  202.4900  151.4390 N   0  0  0  0  0  0  0  0  0  0  0  0
  161.2570  205.0320  148.1660 C   0  0  0  0  0  3  0  0  0  0  0  0
  160.9530  202.8410  149.1040 N   0  0  0  0  0  0  0  0  0  0  0  0
  160.2640  207.9110  155.5610 N   0  0  0  0  0  0  0  0  0  0  0  0
  161.0510  209.0980  153.6440 C   0  0  0  0  0  0  0  0  0  0  0  0
  161.0560  207.9610  154.4590 C   0  0  0  0  0  3  0  0  0  0  0  0
  160.2210  210.1600  154.0000 C   0  0  0  0  0  3  0  0  0  0  0  0
  159.4600  208.9570  155.8880 C   0  0  0  0  0  3  0  0  0  0  0  0
  159.4420  210.0720  155.1100 N   0  0  0  0  0  0  0  0  0  0  0  0
  159.3480  214.3010  149.1580 C   0  0  0  0  0  2  0  0  0  0  0  0
  160.6420  212.4540  149.9010 C   0  0  1  0  0  3  0  0  0  0  0  0
  160.9760  213.5560  150.7020 O   0  0  0  0  0  0  0  0  0  0  0  0
  159.9090  214.4520  150.5530 C   0  0  0  0  0  2  0  0  0  0  0  0
  159.8130  212.9440  148.7260 C   0  0  0  0  0  2  0  0  0  0  0  0
  1 15  1  0  0  0  0
  2 12  2  0  0  0  0
  3  2  1  0  0  0  0
  3  8  1  0  0  0  0
  4  7  1  0  0  0  0
  5 18  1  0  0  0  0
  6 11  1  1  0  0  0
  7  8  2  0  0  0  0
  7 14  1  0  0  0  0
  8 10  1  0  0  0  0
  9  1  1  6  0  0  0
  9 28  1  0  0  0  0
  9  6  1  0  0  0  0
 11 17  1  0  0  0  0
 12 10  1  0  0  0  0
 12 17  1  0  0  0  0
 13  3  2  0  0  0  0
 15 16  1  0  0  0  0
 16  2  1  0  0  0  0
 16  6  1  0  0  0  0
 17 22  1  1  0  0  0
 18 14  2  0  0  0  0
 19 13  1  0  0  0  0
 19  4  2  0  0  0  0
 20  4  1  0  0  0  0
 20  5  2  0  0  0  0
 21 25  1  0  0  0  0
 22 24  2  0  0  0  0
 22 23  1  0  0  0  0
 23 21  2  0  0  0  0
 24 26  1  0  0  0  0
 26 25  2  0  0  0  0
 27 30  1  0  0  0  0
 28 31  1  6  0  0  0
 28 29  1  0  0  0  0
 30 29  1  0  0  0  0
 31 27  1  0  0  0  0
M  END
>  <MODEL>
1

>  <REMARK>
 VINA RESULT:      -7.6      0.000      0.000
  Name = 
  2 active torsions:
  status: ('A' for Active; 'I' for Inactive)
    1  A    between atoms: C_8  and  C_14
    2  A    between atoms: C_9  and  C_26
                            x       y       z     vdW  Elec       q    Type
                         _______ _______ _______ _____ _____    ______ ____

>  <TORSDO>
F 2

$$$$
=
 OpenBabel11052411173D

 31 37  0  0  1  0  0  0  0  0999 V2000
  161.8880  206.5640  151.7060 C   0  0  0  0  0  2  0  0  0  0  0  0
  160.9140  210.0890  152.3750 C   0  0  0  0  0  0  0  0  0  0  0  0
  160.1280  210.4370  153.4420 C   0  0  0  0  0  0  0  0  0  0  0  0
  158.5700  211.7820  155.2970 C   0  0  0  0  0  0  0  0  0  0  0  0
  157.5370  213.7680  156.0530 C   0  0  0  0  0  3  0  0  0  0  0  0
  162.3990  208.7950  150.9170 N   0  0  1  0  0  0  0  0  0  0  0  0
  159.0900  212.4820  154.1820 C   0  0  0  0  0  0  0  0  0  0  0  0
  159.8690  211.7800  153.2650 C   0  0  0  0  0  0  0  0  0  0  0  0
  162.4300  207.3720  150.5210 C   0  0  2  0  0  3  0  0  0  0  0  0
  160.4410  212.2350  152.1650 O   0  0  0  0  0  0  0  0  0  0  0  0
  161.9920  209.7260  149.8350 C   0  0  0  0  0  2  0  0  0  0  0  0
  161.0660  211.2110  151.6120 C   0  0  0  0  0  0  0  0  0  0  0  0
  159.6360  209.7130  154.5250 C   0  0  0  0  0  3  0  0  0  0  0  0
  158.7990  213.8390  154.0490 C   0  0  0  0  0  3  0  0  0  0  0  0
  161.0990  207.5580  152.5300 C   0  0  0  0  0  2  0  0  0  0  0  0
  161.4740  208.8410  151.9780 N   0  0  0  0  0  0  0  0  0  0  0  0
  161.8600  211.1840  150.3390 C   0  0  2  0  0  3  0  0  0  0  0  0
  158.0300  214.4530  154.9860 N   0  0  0  0  0  0  0  0  0  0  0  0
  158.8450  210.4060  155.4630 C   0  0  0  0  0  3  0  0  0  0  0  0
  157.8070  212.4420  156.2040 N   0  0  0  0  0  0  0  0  0  0  0  0
  159.9490  213.9500  148.6310 N   0  0  0  0  0  0  0  0  0  0  0  0
  161.2430  212.0540  149.2880 C   0  0  0  0  0  0  0  0  0  0  0  0
  160.4850  213.1840  149.6150 C   0  0  0  0  0  3  0  0  0  0  0  0
  161.4260  211.7500  147.9400 C   0  0  0  0  0  3  0  0  0  0  0  0
  160.1380  213.6340  147.3220 C   0  0  0  0  0  3  0  0  0  0  0  0
  160.8720  212.5410  146.9840 N   0  0  0  0  0  0  0  0  0  0  0  0
  161.2020  205.1170  147.8900 C   0  0  0  0  0  2  0  0  0  0  0  0
  161.6790  207.0290  149.2140 C   0  0  1  0  0  3  0  0  0  0  0  0
  162.5620  207.0370  148.1250 O   0  0  0  0  0  0  0  0  0  0  0  0
  161.9700  206.2000  147.1690 C   0  0  0  0  0  2  0  0  0  0  0  0
  160.9770  205.6820  149.2590 C   0  0  0  0  0  2  0  0  0  0  0  0
  1 15  1  0  0  0  0
  2  3  1  0  0  0  0
  3 13  1  0  0  0  0
  4 19  1  0  0  0  0
  4 20  1  0  0  0  0
  5 20  2  0  0  0  0
  6 11  1  6  0  0  0
  6 16  1  0  0  0  0
  7  4  2  0  0  0  0
  8  3  2  0  0  0  0
  8  7  1  0  0  0  0
  9  6  1  0  0  0  0
  9  1  1  1  0  0  0
 10  8  1  0  0  0  0
 11 17  1  0  0  0  0
 12 10  1  0  0  0  0
 12  2  2  0  0  0  0
 13 19  2  0  0  0  0
 14  7  1  0  0  0  0
 14 18  2  0  0  0  0
 16  2  1  0  0  0  0
 16 15  1  0  0  0  0
 17 22  1  6  0  0  0
 17 12  1  0  0  0  0
 18  5  1  0  0  0  0
 21 23  1  0  0  0  0
 22 23  2  0  0  0  0
 24 22  1  0  0  0  0
 25 21  2  0  0  0  0
 26 25  1  0  0  0  0
 26 24  2  0  0  0  0
 27 31  1  0  0  0  0
 28 31  1  1  0  0  0
 28  9  1  0  0  0  0
 29 28  1  0  0  0  0
 30 27  1  0  0  0  0
 30 29  1  0  0  0  0
M  END
>  <MODEL>
2

>  <REMARK>
 VINA RESULT:      -7.3      2.465      7.702
  Name = 
  2 active torsions:
  status: ('A' for Active; 'I' for Inactive)
    1  A    between atoms: C_8  and  C_14
    2  A    between atoms: C_9  and  C_26
                            x       y       z     vdW  Elec       q    Type
                         _______ _______ _______ _____ _____    ______ ____

>  <TORSDO>
F 2

$$$$
=
 OpenBabel11052411173D

 31 37  0  0  1  0  0  0  0  0999 V2000
  161.2110  203.6660  152.4060 C   0  0  0  0  0  2  0  0  0  0  0  0
  161.3860  207.2990  153.1750 C   0  0  0  0  0  0  0  0  0  0  0  0
  160.7770  207.8400  154.2760 C   0  0  0  0  0  0  0  0  0  0  0  0
  159.7650  209.5430  156.2120 C   0  0  0  0  0  0  0  0  0  0  0  0
  159.4140  211.7280  157.0430 C   0  0  0  0  0  3  0  0  0  0  0  0
  162.3570  205.6560  151.6380 N   0  0  1  0  0  0  0  0  0  0  0  0
  160.4400  210.0830  155.0910 C   0  0  0  0  0  0  0  0  0  0  0  0
  160.9380  209.2030  154.1330 C   0  0  0  0  0  0  0  0  0  0  0  0
  161.9380  204.3030  151.2160 C   0  0  2  0  0  3  0  0  0  0  0  0
  161.5870  209.4920  153.0200 O   0  0  0  0  0  0  0  0  0  0  0  0
  162.2220  206.6960  150.5890 C   0  0  0  0  0  2  0  0  0  0  0  0
  161.8510  208.3430  152.4260 C   0  0  0  0  0  0  0  0  0  0  0  0
  160.1210  207.2710  155.3650 C   0  0  0  0  0  3  0  0  0  0  0  0
  160.5750  211.4670  154.9930 C   0  0  0  0  0  3  0  0  0  0  0  0
  160.7910  204.8290  153.2780 C   0  0  0  0  0  2  0  0  0  0  0  0
  161.5230  205.9510  152.7340 N   0  0  0  0  0  0  0  0  0  0  0  0
  162.5590  208.1100  151.1230 C   0  0  2  0  0  3  0  0  0  0  0  0
  160.0600  212.2600  155.9700 N   0  0  0  0  0  0  0  0  0  0  0  0
  159.6090  208.1460  156.3430 C   0  0  0  0  0  3  0  0  0  0  0  0
  159.2700  210.3800  157.1600 N   0  0  0  0  0  0  0  0  0  0  0  0
  161.8750  211.4360  149.4820 N   0  0  0  0  0  0  0  0  0  0  0  0
  162.2060  209.1560  150.1120 C   0  0  0  0  0  0  0  0  0  0  0  0
  162.1950  210.5190  150.4310 C   0  0  0  0  0  3  0  0  0  0  0  0
  161.8850  208.7810  148.8080 C   0  0  0  0  0  3  0  0  0  0  0  0
  161.5640  211.0480  148.2170 C   0  0  0  0  0  3  0  0  0  0  0  0
  161.5700  209.7290  147.8870 N   0  0  0  0  0  0  0  0  0  0  0  0
  160.6340  202.7250  148.1620 C   0  0  0  0  0  2  0  0  0  0  0  0
  161.0780  204.2430  149.9330 C   0  0  1  0  0  3  0  0  0  0  0  0
  161.8260  204.6580  148.8220 O   0  0  0  0  0  0  0  0  0  0  0  0
  161.2090  204.0500  147.7200 C   0  0  0  0  0  2  0  0  0  0  0  0
  160.5150  202.8600  149.6500 C   0  0  0  0  0  2  0  0  0  0  0  0
  1 15  1  0  0  0  0
  2  3  1  0  0  0  0
  3 13  1  0  0  0  0
  4 19  1  0  0  0  0
  4 20  1  0  0  0  0
  5 20  2  0  0  0  0
  6 11  1  6  0  0  0
  6 16  1  0  0  0  0
  7  4  2  0  0  0  0
  8  3  2  0  0  0  0
  8  7  1  0  0  0  0
  9  6  1  0  0  0  0
  9  1  1  1  0  0  0
 10  8  1  0  0  0  0
 11 17  1  0  0  0  0
 12 10  1  0  0  0  0
 12  2  2  0  0  0  0
 13 19  2  0  0  0  0
 14  7  1  0  0  0  0
 14 18  2  0  0  0  0
 16  2  1  0  0  0  0
 16 15  1  0  0  0  0
 17 22  1  6  0  0  0
 17 12  1  0  0  0  0
 18  5  1  0  0  0  0
 21 23  1  0  0  0  0
 22 23  2  0  0  0  0
 24 22  1  0  0  0  0
 25 21  2  0  0  0  0
 26 25  1  0  0  0  0
 26 24  2  0  0  0  0
 27 31  1  0  0  0  0
 28 31  1  6  0  0  0
 28  9  1  0  0  0  0
 29 28  1  0  0  0  0
 30 27  1  0  0  0  0
 30 29  1  0  0  0  0
M  END
>  <MODEL>
3

>  <REMARK>
 VINA RESULT:      -7.1      2.194      7.588
  Name = 
  2 active torsions:
  status: ('A' for Active; 'I' for Inactive)
    1  A    between atoms: C_8  and  C_14
    2  A    between atoms: C_9  and  C_26
                            x       y       z     vdW  Elec       q    Type
                         _______ _______ _______ _____ _____    ______ ____

>  <TORSDO>
F 2

$$$$
=
 OpenBabel11052411173D

 31 37  0  0  1  0  0  0  0  0999 V2000
  161.9080  205.2770  149.0590 C   0  0  0  0  0  2  0  0  0  0  0  0
  161.7250  208.2450  151.2900 C   0  0  0  0  0  0  0  0  0  0  0  0
  161.2500  208.1630  152.5720 C   0  0  0  0  0  0  0  0  0  0  0  0
  160.3700  208.7030  155.1430 C   0  0  0  0  0  0  0  0  0  0  0  0
  159.8790  210.2500  156.8610 C   0  0  0  0  0  3  0  0  0  0  0  0
  162.6260  207.5890  149.1070 N   0  0  1  0  0  0  0  0  0  0  0  0
  160.7620  209.7710  154.3000 C   0  0  0  0  0  0  0  0  0  0  0  0
  161.1990  209.4700  153.0120 C   0  0  0  0  0  0  0  0  0  0  0  0
  162.3250  206.4700  148.1910 C   0  0  2  0  0  3  0  0  0  0  0  0
  161.6000  210.3050  152.0720 O   0  0  0  0  0  0  0  0  0  0  0  0
  162.1730  208.9170  148.6250 C   0  0  0  0  0  2  0  0  0  0  0  0
  161.9090  209.5710  151.0180 C   0  0  0  0  0  0  0  0  0  0  0  0
  160.8750  207.0860  153.3710 C   0  0  0  0  0  3  0  0  0  0  0  0
  160.6910  211.0730  154.7920 C   0  0  0  0  0  3  0  0  0  0  0  0
  161.4940  205.8810  150.3820 C   0  0  0  0  0  2  0  0  0  0  0  0
  161.9630  207.2460  150.3020 N   0  0  0  0  0  0  0  0  0  0  0  0
  162.4040  210.0290  149.6780 C   0  0  2  0  0  3  0  0  0  0  0  0
  160.2520  211.2860  156.0610 N   0  0  0  0  0  0  0  0  0  0  0  0
  160.4290  207.3710  154.6760 C   0  0  0  0  0  3  0  0  0  0  0  0
  159.9400  208.9700  156.4020 N   0  0  0  0  0  0  0  0  0  0  0  0
  160.5120  213.2900  149.7450 N   0  0  0  0  0  0  0  0  0  0  0  0
  161.7440  211.3040  149.2550 C   0  0  0  0  0  0  0  0  0  0  0  0
  161.0920  212.1380  150.1700 C   0  0  0  0  0  3  0  0  0  0  0  0
  161.7790  211.6930  147.9170 C   0  0  0  0  0  3  0  0  0  0  0  0
  160.5560  213.6490  148.4350 C   0  0  0  0  0  3  0  0  0  0  0  0
  161.1850  212.8530  147.5300 N   0  0  0  0  0  0  0  0  0  0  0  0
  159.6540  205.5880  145.8230 C   0  0  0  0  0  2  0  0  0  0  0  0
  161.2710  206.7680  147.1000 C   0  0  1  0  0  3  0  0  0  0  0  0
  161.8130  206.5530  145.8240 O   0  0  0  0  0  0  0  0  0  0  0  0
  160.7110  206.2880  145.0000 C   0  0  0  0  0  2  0  0  0  0  0  0
  160.0090  205.9330  147.2370 C   0  0  0  0  0  2  0  0  0  0  0  0
  1 15  1  0  0  0  0
  2  3  1  0  0  0  0
  3  8  2  0  0  0  0
  3 13  1  0  0  0  0
  4 20  1  0  0  0  0
  6 11  1  6  0  0  0
  6 16  1  0  0  0  0
  7 14  1  0  0  0  0
  7  4  2  0  0  0  0
  8  7  1  0  0  0  0
  9  1  1  1  0  0  0
  9  6  1  0  0  0  0
 10  8  1  0  0  0  0
 11 17  1  0  0  0  0
 12  2  2  0  0  0  0
 12 10  1  0  0  0  0
 13 19  2  0  0  0  0
 14 18  2  0  0  0  0
 16 15  1  0  0  0  0
 16  2  1  0  0  0  0
 17 22  1  6  0  0  0
 17 12  1  0  0  0  0
 18  5  1  0  0  0  0
 19  4  1  0  0  0  0
 20  5  2  0  0  0  0
 21 23  1  0  0  0  0
 22 23  2  0  0  0  0
 24 22  1  0  0  0  0
 25 21  2  0  0  0  0
 26 24  2  0  0  0  0
 26 25  1  0  0  0  0
 27 31  1  0  0  0  0
 28 31  1  1  0  0  0
 28  9  1  0  0  0  0
 29 28  1  0  0  0  0
 30 27  1  0  0  0  0
 30 29  1  0  0  0  0
M  END
>  <MODEL>
4

>  <REMARK>
 VINA RESULT:      -5.9      2.094      6.634
  Name = 
  2 active torsions:
  status: ('A' for Active; 'I' for Inactive)
    1  A    between atoms: C_8  and  C_14
    2  A    between atoms: C_9  and  C_26
                            x       y       z     vdW  Elec       q    Type
                         _______ _______ _______ _____ _____    ______ ____

>  <TORSDO>
F 2

$$$$
=
 OpenBabel11052411173D

 31 37  0  0  1  0  0  0  0  0999 V2000
  161.4980  211.5330  148.2480 C   0  0  0  0  0  2  0  0  0  0  0  0
  161.7020  208.1070  149.6780 C   0  0  0  0  0  0  0  0  0  0  0  0
  161.5230  206.9860  148.9110 C   0  0  0  0  0  0  0  0  0  0  0  0
  161.2090  204.3930  147.9870 C   0  0  0  0  0  0  0  0  0  0  0  0
  161.0520  202.0720  148.4040 C   0  0  0  0  0  3  0  0  0  0  0  0
  162.1260  210.4360  150.3140 N   0  0  1  0  0  0  0  0  0  0  0  0
  161.3680  204.6270  149.3750 C   0  0  0  0  0  0  0  0  0  0  0  0
  161.5230  205.9410  149.8110 C   0  0  0  0  0  0  0  0  0  0  0  0
  161.6720  211.7280  149.7600 C   0  0  2  0  0  3  0  0  0  0  0  0
  161.6780  206.3760  151.0470 O   0  0  0  0  0  0  0  0  0  0  0  0
  161.5300  210.0870  151.6280 C   0  0  0  0  0  2  0  0  0  0  0  0
  161.7740  207.6910  150.9770 C   0  0  0  0  0  0  0  0  0  0  0  0
  161.3710  206.7980  147.5390 C   0  0  0  0  0  3  0  0  0  0  0  0
  161.3600  203.5360  150.2420 C   0  0  0  0  0  3  0  0  0  0  0  0
  161.3630  210.0380  148.0590 C   0  0  0  0  0  2  0  0  0  0  0  0
  161.7540  209.4900  149.3380 N   0  0  0  0  0  0  0  0  0  0  0  0
  161.9470  208.6720  152.0990 C   0  0  2  0  0  3  0  0  0  0  0  0
  161.2030  202.2820  149.7390 N   0  0  0  0  0  0  0  0  0  0  0  0
  161.2120  205.4760  147.0800 C   0  0  0  0  0  3  0  0  0  0  0  0
  161.0560  203.1220  147.5370 N   0  0  0  0  0  0  0  0  0  0  0  0
  159.6760  208.7650  155.1080 N   0  0  0  0  0  0  0  0  0  0  0  0
  161.1650  208.2660  153.3090 C   0  0  0  0  0  0  0  0  0  0  0  0
  160.3750  209.1770  154.0190 C   0  0  0  0  0  3  0  0  0  0  0  0
  161.2050  206.9440  153.7500 C   0  0  0  0  0  3  0  0  0  0  0  0
  159.7310  207.4710  155.5220 C   0  0  0  0  0  3  0  0  0  0  0  0
  160.4910  206.5700  154.8450 N   0  0  0  0  0  0  0  0  0  0  0  0
  159.4250  214.4460  150.8000 C   0  0  0  0  0  2  0  0  0  0  0  0
  160.3940  212.3150  150.4020 C   0  0  1  0  0  3  0  0  0  0  0  0
  160.6280  212.6420  151.7460 O   0  0  0  0  0  0  0  0  0  0  0  0
  159.6850  213.6340  152.0480 C   0  0  0  0  0  2  0  0  0  0  0  0
  159.8730  213.5500  149.6860 C   0  0  0  0  0  2  0  0  0  0  0  0
  2 12  2  0  0  0  0
  3  2  1  0  0  0  0
  3  8  1  0  0  0  0
  4  7  1  0  0  0  0
  5 18  1  0  0  0  0
  6 11  1  1  0  0  0
  7  8  2  0  0  0  0
  7 14  1  0  0  0  0
  8 10  1  0  0  0  0
  9  1  1  6  0  0  0
  9  6  1  0  0  0  0
  9 28  1  0  0  0  0
 11 17  1  0  0  0  0
 12 10  1  0  0  0  0
 12 17  1  0  0  0  0
 13  3  2  0  0  0  0
 15  1  1  0  0  0  0
 15 16  1  0  0  0  0
 16  2  1  0  0  0  0
 16  6  1  0  0  0  0
 17 22  1  1  0  0  0
 18 14  2  0  0  0  0
 19 13  1  0  0  0  0
 19  4  2  0  0  0  0
 20  4  1  0  0  0  0
 20  5  2  0  0  0  0
 21 25  1  0  0  0  0
 22 24  2  0  0  0  0
 22 23  1  0  0  0  0
 23 21  2  0  0  0  0
 24 26  1  0  0  0  0
 26 25  2  0  0  0  0
 27 30  1  0  0  0  0
 28 31  1  6  0  0  0
 28 29  1  0  0  0  0
 29 30  1  0  0  0  0
 31 27  1  0  0  0  0
M  END
>  <MODEL>
5

>  <REMARK>
 VINA RESULT:      -5.9      0.996      1.406
  Name = 
  2 active torsions:
  status: ('A' for Active; 'I' for Inactive)
    1  A    between atoms: C_8  and  C_14
    2  A    between atoms: C_9  and  C_26
                            x       y       z     vdW  Elec       q    Type
                         _______ _______ _______ _____ _____    ______ ____

>  <TORSDO>
F 2

$$$$
=
 OpenBabel11052411173D

 31 37  0  0  1  0  0  0  0  0999 V2000
  162.1710  211.7720  147.7990 C   0  0  0  0  0  2  0  0  0  0  0  0
  160.9200  211.3890  151.2790 C   0  0  0  0  0  0  0  0  0  0  0  0
  161.0830  210.2270  151.9870 C   0  0  0  0  0  0  0  0  0  0  0  0
  161.0120  208.2210  153.8960 C   0  0  0  0  0  0  0  0  0  0  0  0
  160.2770  207.4050  155.9890 C   0  0  0  0  0  3  0  0  0  0  0  0
  161.2120  213.1190  149.5680 N   0  0  1  0  0  0  0  0  0  0  0  0
  160.3140  209.4310  154.1280 C   0  0  0  0  0  0  0  0  0  0  0  0
  160.3670  210.4220  153.1510 C   0  0  0  0  0  0  0  0  0  0  0  0
  161.4020  213.0630  148.1040 C   0  0  2  0  0  3  0  0  0  0  0  0
  159.7900  211.6100  153.1630 O   0  0  0  0  0  0  0  0  0  0  0  0
  159.8880  213.6340  149.9970 C   0  0  0  0  0  2  0  0  0  0  0  0
  160.1100  212.1980  152.0240 C   0  0  0  0  0  0  0  0  0  0  0  0
  161.7830  209.0530  151.7230 C   0  0  0  0  0  3  0  0  0  0  0  0
  159.6050  209.5770  155.3190 C   0  0  0  0  0  3  0  0  0  0  0  0
  161.9530  210.8910  149.0100 C   0  0  0  0  0  2  0  0  0  0  0  0
  161.3810  211.7860  149.9910 N   0  0  0  0  0  0  0  0  0  0  0  0
  159.7020  213.5550  151.5320 C   0  0  2  0  0  3  0  0  0  0  0  0
  159.6010  208.5630  156.2240 N   0  0  0  0  0  0  0  0  0  0  0  0
  161.7400  208.0390  152.6990 C   0  0  0  0  0  3  0  0  0  0  0  0
  160.9760  207.2390  154.8330 N   0  0  0  0  0  0  0  0  0  0  0  0
  155.9860  214.1750  151.3540 N   0  0  0  0  0  0  0  0  0  0  0  0
  158.2890  213.8750  151.9110 C   0  0  0  0  0  0  0  0  0  0  0  0
  157.2550  213.8860  150.9680 C   0  0  0  0  0  3  0  0  0  0  0  0
  157.9740  214.1610  153.2380 C   0  0  0  0  0  3  0  0  0  0  0  0
  155.7010  214.4530  152.6540 C   0  0  0  0  0  3  0  0  0  0  0  0
  156.6910  214.4460  153.5860 N   0  0  0  0  0  0  0  0  0  0  0  0
  159.3840  212.6560  145.0570 C   0  0  0  0  0  2  0  0  0  0  0  0
  160.1100  213.1620  147.2610 C   0  0  1  0  0  3  0  0  0  0  0  0
  160.0890  214.3620  146.5350 O   0  0  0  0  0  0  0  0  0  0  0  0
  159.2510  214.1110  145.4400 C   0  0  0  0  0  2  0  0  0  0  0  0
  159.9340  212.0060  146.2900 C   0  0  0  0  0  2  0  0  0  0  0  0
  1 15  1  0  0  0  0
  2  3  1  0  0  0  0
  2 12  2  0  0  0  0
  3  8  1  0  0  0  0
  4  7  1  0  0  0  0
  4 20  1  0  0  0  0
  5 18  1  0  0  0  0
  6 16  1  0  0  0  0
  6 11  1  6  0  0  0
  7 14  1  0  0  0  0
  8 10  1  0  0  0  0
  8  7  2  0  0  0  0
  9  1  1  1  0  0  0
  9  6  1  0  0  0  0
 11 17  1  0  0  0  0
 12 10  1  0  0  0  0
 13  3  2  0  0  0  0
 13 19  1  0  0  0  0
 14 18  2  0  0  0  0
 15 16  1  0  0  0  0
 16  2  1  0  0  0  0
 17 22  1  6  0  0  0
 17 12  1  0  0  0  0
 19  4  2  0  0  0  0
 20  5  2  0  0  0  0
 21 25  1  0  0  0  0
 22 24  2  0  0  0  0
 23 21  2  0  0  0  0
 23 22  1  0  0  0  0
 24 26  1  0  0  0  0
 25 26  2  0  0  0  0
 27 30  1  0  0  0  0
 27 31  1  0  0  0  0
 28 31  1  6  0  0  0
 28  9  1  0  0  0  0
 29 28  1  0  0  0  0
 30 29  1  0  0  0  0
M  END
>  <MODEL>
6

>  <REMARK>
 VINA RESULT:      -5.9      3.251      5.295
  Name = 
  2 active torsions:
  status: ('A' for Active; 'I' for Inactive)
    1  A    between atoms: C_8  and  C_14
    2  A    between atoms: C_9  and  C_26
                            x       y       z     vdW  Elec       q    Type
                         _______ _______ _______ _____ _____    ______ ____

>  <TORSDO>
F 2

$$$$
=
 OpenBabel11052411173D

 31 37  0  0  1  0  0  0  0  0999 V2000
  160.7390  211.2150  154.3200 C   0  0  0  0  0  2  0  0  0  0  0  0
  161.2770  211.1550  150.6420 C   0  0  0  0  0  0  0  0  0  0  0  0
  160.7910  212.1360  149.8190 C   0  0  0  0  0  0  0  0  0  0  0  0
  160.0580  213.6920  147.6470 C   0  0  0  0  0  0  0  0  0  0  0  0
  159.9530  214.0350  145.3120 C   0  0  0  0  0  3  0  0  0  0  0  0
  162.0000  209.9770  152.6660 N   0  0  1  0  0  0  0  0  0  0  0  0
  160.7030  212.4510  147.4310 C   0  0  0  0  0  0  0  0  0  0  0  0
  161.0590  211.6890  148.5420 C   0  0  0  0  0  0  0  0  0  0  0  0
  161.4390  209.8830  154.0290 C   0  0  2  0  0  3  0  0  0  0  0  0
  161.6570  210.5120  148.5650 O   0  0  0  0  0  0  0  0  0  0  0  0
  161.8880  208.7310  151.8670 C   0  0  0  0  0  2  0  0  0  0  0  0
  161.7810  210.1740  149.8350 C   0  0  0  0  0  0  0  0  0  0  0  0
  160.1600  213.3520  150.0730 C   0  0  0  0  0  3  0  0  0  0  0  0
  160.9500  212.0440  146.1220 C   0  0  0  0  0  3  0  0  0  0  0  0
  160.4790  211.8260  152.9610 C   0  0  0  0  0  2  0  0  0  0  0  0
  161.2690  211.0170  152.0600 N   0  0  0  0  0  0  0  0  0  0  0  0
  162.3800  208.9250  150.4110 C   0  0  2  0  0  3  0  0  0  0  0  0
  160.5710  212.8440  145.0900 N   0  0  0  0  0  0  0  0  0  0  0  0
  159.7910  214.1350  148.9620 C   0  0  0  0  0  3  0  0  0  0  0  0
  159.7000  214.4530  146.5820 N   0  0  0  0  0  0  0  0  0  0  0  0
  160.9020  205.6620  149.2340 N   0  0  0  0  0  0  0  0  0  0  0  0
  162.0540  207.7250  149.5780 C   0  0  0  0  0  0  0  0  0  0  0  0
  161.1760  206.7310  150.0250 C   0  0  0  0  0  3  0  0  0  0  0  0
  162.6230  207.5820  148.3140 C   0  0  0  0  0  3  0  0  0  0  0  0
  161.4700  205.5410  148.0050 C   0  0  0  0  0  3  0  0  0  0  0  0
  162.3250  206.4970  147.5520 N   0  0  0  0  0  0  0  0  0  0  0  0
  159.7120  207.3920  156.1110 C   0  0  0  0  0  2  0  0  0  0  0  0
  160.4950  208.6840  154.2790 C   0  0  1  0  0  3  0  0  0  0  0  0
  161.2210  207.4840  154.2920 O   0  0  0  0  0  0  0  0  0  0  0  0
  160.4470  206.5990  155.0560 C   0  0  0  0  0  2  0  0  0  0  0  0
  159.7150  208.7930  155.5780 C   0  0  0  0  0  2  0  0  0  0  0  0
  2 16  1  0  0  0  0
  3 13  1  0  0  0  0
  3  2  1  0  0  0  0
  4 19  1  0  0  0  0
  5 20  1  0  0  0  0
  6 11  1  6  0  0  0
  6  9  1  0  0  0  0
  7  4  1  0  0  0  0
  7  8  1  0  0  0  0
  8 10  1  0  0  0  0
  8  3  2  0  0  0  0
  9 28  1  0  0  0  0
  9  1  1  6  0  0  0
 10 12  1  0  0  0  0
 12 17  1  0  0  0  0
 12  2  2  0  0  0  0
 14  7  2  0  0  0  0
 15  1  1  0  0  0  0
 16  6  1  0  0  0  0
 16 15  1  0  0  0  0
 17 22  1  6  0  0  0
 17 11  1  0  0  0  0
 18  5  2  0  0  0  0
 18 14  1  0  0  0  0
 19 13  2  0  0  0  0
 20  4  2  0  0  0  0
 21 23  1  0  0  0  0
 22 23  2  0  0  0  0
 24 22  1  0  0  0  0
 25 21  2  0  0  0  0
 26 25  1  0  0  0  0
 26 24  2  0  0  0  0
 28 29  1  0  0  0  0
 28 31  1  1  0  0  0
 29 30  1  0  0  0  0
 30 27  1  0  0  0  0
 31 27  1  0  0  0  0
M  END
>  <MODEL>
7

>  <REMARK>
 VINA RESULT:      -5.7      2.329      7.401
  Name = 
  2 active torsions:
  status: ('A' for Active; 'I' for Inactive)
    1  A    between atoms: C_8  and  C_14
    2  A    between atoms: C_9  and  C_26
                            x       y       z     vdW  Elec       q    Type
                         _______ _______ _______ _____ _____    ______ ____

>  <TORSDO>
F 2

$$$$
=
 OpenBabel11052411173D

 31 37  0  0  1  0  0  0  0  0999 V2000
  160.8160  210.8490  157.0100 C   0  0  0  0  0  2  0  0  0  0  0  0
  159.9660  211.7130  153.4960 C   0  0  0  0  0  0  0  0  0  0  0  0
  158.8570  212.4520  153.1750 C   0  0  0  0  0  0  0  0  0  0  0  0
  156.8200  213.7960  151.8650 C   0  0  0  0  0  0  0  0  0  0  0  0
  155.7490  214.4470  149.8620 C   0  0  0  0  0  3  0  0  0  0  0  0
  161.7860  210.7130  154.7960 N   0  0  1  0  0  0  0  0  0  0  0  0
  157.7940  213.0970  151.1110 C   0  0  0  0  0  0  0  0  0  0  0  0
  158.8070  212.4300  151.7970 C   0  0  0  0  0  0  0  0  0  0  0  0
  161.8470  210.1140  156.1450 C   0  0  2  0  0  3  0  0  0  0  0  0
  159.8000  211.7210  151.2950 O   0  0  0  0  0  0  0  0  0  0  0  0
  161.9190  209.7380  153.6850 C   0  0  0  0  0  2  0  0  0  0  0  0
  160.5020  211.2710  152.3190 C   0  0  0  0  0  0  0  0  0  0  0  0
  157.9200  213.1280  153.9520 C   0  0  0  0  0  3  0  0  0  0  0  0
  157.6970  213.1050  149.7210 C   0  0  0  0  0  3  0  0  0  0  0  0
  159.8560  211.4800  156.0250 C   0  0  0  0  0  2  0  0  0  0  0  0
  160.5260  211.3420  154.7510 N   0  0  0  0  0  0  0  0  0  0  0  0
  161.7260  210.4040  152.3000 C   0  0  2  0  0  3  0  0  0  0  0  0
  156.6780  213.7790  149.1250 N   0  0  0  0  0  0  0  0  0  0  0  0
  156.8870  213.8080  153.2760 C   0  0  0  0  0  3  0  0  0  0  0  0
  155.8220  214.4530  151.2210 N   0  0  0  0  0  0  0  0  0  0  0  0
  161.1450  207.1590  150.4690 N   0  0  0  0  0  0  0  0  0  0  0  0
  161.6480  209.3690  151.2210 C   0  0  0  0  0  0  0  0  0  0  0  0
  161.2070  208.0660  151.4780 C   0  0  0  0  0  3  0  0  0  0  0  0
  162.0110  209.6970  149.9160 C   0  0  0  0  0  3  0  0  0  0  0  0
  161.5060  207.5000  149.2030 C   0  0  0  0  0  3  0  0  0  0  0  0
  161.9360  208.7610  148.9340 N   0  0  0  0  0  0  0  0  0  0  0  0
  160.1230  206.9610  155.3690 C   0  0  0  0  0  2  0  0  0  0  0  0
  161.6420  208.5830  156.2040 C   0  0  1  0  0  3  0  0  0  0  0  0
  160.7650  208.2460  157.2470 O   0  0  0  0  0  0  0  0  0  0  0  0
  160.2160  207.0110  156.8760 C   0  0  0  0  0  2  0  0  0  0  0  0
  161.1040  207.9960  154.9100 C   0  0  0  0  0  2  0  0  0  0  0  0
  2 16  1  0  0  0  0
  3  2  1  0  0  0  0
  3 13  1  0  0  0  0
  4 19  1  0  0  0  0
  5 20  2  0  0  0  0
  6 11  1  6  0  0  0
  6  9  1  0  0  0  0
  7  8  1  0  0  0  0
  7  4  2  0  0  0  0
  8  3  2  0  0  0  0
  9 28  1  0  0  0  0
  9  1  1  1  0  0  0
 10  8  1  0  0  0  0
 10 12  1  0  0  0  0
 12  2  2  0  0  0  0
 14  7  1  0  0  0  0
 15  1  1  0  0  0  0
 16  6  1  0  0  0  0
 16 15  1  0  0  0  0
 17 22  1  6  0  0  0
 17 12  1  0  0  0  0
 17 11  1  0  0  0  0
 18 14  2  0  0  0  0
 18  5  1  0  0  0  0
 19 13  2  0  0  0  0
 20  4  1  0  0  0  0
 21 23  1  0  0  0  0
 22 23  2  0  0  0  0
 24 22  1  0  0  0  0
 25 21  2  0  0  0  0
 26 25  1  0  0  0  0
 26 24  2  0  0  0  0
 27 30  1  0  0  0  0
 28 31  1  6  0  0  0
 28 29  1  0  0  0  0
 30 29  1  0  0  0  0
 31 27  1  0  0  0  0
M  END
>  <MODEL>
8

>  <REMARK>
 VINA RESULT:      -5.5      2.946      7.982
  Name = 
  2 active torsions:
  status: ('A' for Active; 'I' for Inactive)
    1  A    between atoms: C_8  and  C_14
    2  A    between atoms: C_9  and  C_26
                            x       y       z     vdW  Elec       q    Type
                         _______ _______ _______ _____ _____    ______ ____

>  <TORSDO>
F 2

$$$$
=
 OpenBabel11052411173D

 31 37  0  0  1  0  0  0  0  0999 V2000
  161.6050  206.1720  153.2760 C   0  0  0  0  0  2  0  0  0  0  0  0
  161.9210  208.4030  150.3190 C   0  0  0  0  0  0  0  0  0  0  0  0
  161.5830  209.7310  150.3690 C   0  0  0  0  0  0  0  0  0  0  0  0
  161.0380  212.3810  149.7740 C   0  0  0  0  0  0  0  0  0  0  0  0
  160.8710  214.1390  148.2040 C   0  0  0  0  0  3  0  0  0  0  0  0
  162.5190  206.1370  151.0340 N   0  0  1  0  0  0  0  0  0  0  0  0
  161.4250  211.4980  148.7380 C   0  0  0  0  0  0  0  0  0  0  0  0
  161.6930  210.1700  149.0660 C   0  0  0  0  0  0  0  0  0  0  0  0
  162.0250  205.2610  152.1160 C   0  0  2  0  0  3  0  0  0  0  0  0
  162.0590  209.1900  148.2610 O   0  0  0  0  0  0  0  0  0  0  0  0
  162.1320  205.7050  149.6680 C   0  0  0  0  0  2  0  0  0  0  0  0
  162.1870  208.1110  149.0110 C   0  0  0  0  0  0  0  0  0  0  0  0
  161.2060  210.5680  151.4160 C   0  0  0  0  0  3  0  0  0  0  0  0
  161.5210  211.9920  147.4380 C   0  0  0  0  0  3  0  0  0  0  0  0
  161.3900  207.5320  152.6470 C   0  0  0  0  0  2  0  0  0  0  0  0
  161.9640  207.3980  151.3270 N   0  0  0  0  0  0  0  0  0  0  0  0
  162.5710  206.7240  148.5870 C   0  0  2  0  0  3  0  0  0  0  0  0
  161.2420  213.3010  147.1980 N   0  0  0  0  0  0  0  0  0  0  0  0
  160.9310  211.9130  151.1030 C   0  0  0  0  0  3  0  0  0  0  0  0
  160.7710  213.6790  149.4810 N   0  0  0  0  0  0  0  0  0  0  0  0
  162.1770  205.5180  145.0370 N   0  0  0  0  0  0  0  0  0  0  0  0
  161.9810  206.3730  147.2580 C   0  0  0  0  0  0  0  0  0  0  0  0
  162.7540  205.8280  146.2260 C   0  0  0  0  0  3  0  0  0  0  0  0
  160.6210  206.5780  147.0250 C   0  0  0  0  0  3  0  0  0  0  0  0
  160.8500  205.7280  144.8310 C   0  0  0  0  0  3  0  0  0  0  0  0
  160.0810  206.2550  145.8210 N   0  0  0  0  0  0  0  0  0  0  0  0
  160.6490  202.1040  150.8290 C   0  0  0  0  0  2  0  0  0  0  0  0
  160.8890  204.2910  151.7210 C   0  0  1  0  0  3  0  0  0  0  0  0
  160.5860  204.4200  150.3570 O   0  0  0  0  0  0  0  0  0  0  0  0
  160.0180  203.1920  149.9930 C   0  0  0  0  0  2  0  0  0  0  0  0
  161.2110  202.8350  152.0110 C   0  0  0  0  0  2  0  0  0  0  0  0
  2  3  1  0  0  0  0
  2 16  1  0  0  0  0
  3 13  1  0  0  0  0
  4 19  1  0  0  0  0
  5 20  2  0  0  0  0
  6 11  1  6  0  0  0
  6 16  1  0  0  0  0
  6  9  1  0  0  0  0
  7  8  1  0  0  0  0
  7  4  2  0  0  0  0
  8  3  2  0  0  0  0
  9  1  1  1  0  0  0
 10 12  1  0  0  0  0
 10  8  1  0  0  0  0
 12  2  2  0  0  0  0
 14  7  1  0  0  0  0
 15  1  1  0  0  0  0
 16 15  1  0  0  0  0
 17 22  1  6  0  0  0
 17 12  1  0  0  0  0
 17 11  1  0  0  0  0
 18 14  2  0  0  0  0
 18  5  1  0  0  0  0
 19 13  2  0  0  0  0
 20  4  1  0  0  0  0
 21 23  1  0  0  0  0
 23 22  2  0  0  0  0
 24 22  1  0  0  0  0
 25 21  2  0  0  0  0
 25 26  1  0  0  0  0
 26 24  2  0  0  0  0
 27 31  1  0  0  0  0
 28 31  1  6  0  0  0
 28  9  1  0  0  0  0
 29 28  1  0  0  0  0
 30 29  1  0  0  0  0
 30 27  1  0  0  0  0
M  END
>  <MODEL>
9

>  <REMARK>
 VINA RESULT:      -5.4      2.536      8.103
  Name = 
  2 active torsions:
  status: ('A' for Active; 'I' for Inactive)
    1  A    between atoms: C_8  and  C_14
    2  A    between atoms: C_9  and  C_26
                            x       y       z     vdW  Elec       q    Type
                         _______ _______ _______ _____ _____    ______ ____

>  <TORSDO>
F 2

$$$$
