=
 OpenBabel11052410583D

 37 41  0  0  1  0  0  0  0  0999 V2000
  161.7520  209.0400  149.8900 C   0  0  0  0  0  0  0  0  0  0  0  0
  160.8990  202.7120  151.3150 C   0  0  0  0  0  3  0  0  0  0  0  0
  161.7540  209.6870  151.1220 C   0  0  0  0  0  3  0  0  0  0  0  0
  161.4250  207.6380  152.2770 C   0  0  0  0  0  0  0  0  0  0  0  0
  160.9230  203.4950  152.4700 C   0  0  0  0  0  3  0  0  0  0  0  0
  161.2330  205.5030  151.1170 C   0  0  0  0  0  0  0  0  0  0  0  0
  161.0430  203.3060  150.0550 C   0  0  0  0  0  0  0  0  0  0  0  0
  161.5200  207.6440  149.8440 C   0  0  0  0  0  0  0  0  0  0  0  0
  161.1130  205.6190  153.5160 N   0  0  0  0  0  0  0  0  0  0  0  0
  161.2100  204.6940  149.9700 C   0  0  0  0  0  3  0  0  0  0  0  0
  161.2740  206.9670  153.4980 C   0  0  0  0  0  0  0  0  0  0  0  0
  161.5850  208.9870  152.2700 N   0  0  0  0  0  0  0  0  0  0  0  0
  161.0890  204.8800  152.3810 C   0  0  0  0  0  0  0  0  0  0  0  0
  161.4020  206.9130  151.0590 C   0  0  0  0  0  0  0  0  0  0  0  0
  161.0160  201.9880  146.7660 N   0  0  0  0  0  0  0  0  0  0  0  0
  160.9390  201.1590  148.8100 C   0  0  0  0  0  3  0  0  0  0  0  0
  161.0110  202.5020  148.8680 N   0  0  0  0  0  0  0  0  0  0  0  0
  160.9410  200.8350  147.4640 C   0  0  0  0  0  3  0  0  0  0  0  0
  161.0570  202.9800  147.6370 N   0  0  0  0  0  0  0  0  0  0  0  0
  161.2910  207.7020  154.7250 N   0  0  0  0  0  2  0  0  0  0  0  0
  160.4460  207.3480  155.8540 C   0  0  0  0  0  2  0  0  0  0  0  0
  162.2460  208.5420  156.8640 O   0  0  0  0  0  1  0  0  0  0  0  0
  161.0460  207.8880  157.1380 C   0  0  0  0  0  2  0  0  0  0  0  0
  162.0410  209.8290  148.7260 N   0  0  0  0  0  2  0  0  0  0  0  0
  162.4670  211.2220  148.7430 C   0  0  0  0  0  2  0  0  0  0  0  0
  161.2950  212.1280  148.4040 C   0  0  0  0  0  2  0  0  0  0  0  0
  161.9160  213.0890  146.3590 C   0  0  0  0  0  2  0  0  0  0  0  0
  161.0440  212.0990  146.9740 N   0  0  0  0  0  0  0  0  0  0  0  0
  159.6890  212.5920  146.7720 C   0  0  0  0  0  2  0  0  0  0  0  0
  159.7000  213.5590  145.6040 C   0  0  2  0  0  3  0  0  0  0  0  0
  158.9330  212.9660  144.4390 C   0  0  0  0  0  1  0  0  0  0  0  0
  161.1490  213.7200  145.2230 C   0  0  0  0  0  2  0  0  0  0  0  0
  161.3740  206.9910  148.6150 O   0  0  0  0  0  0  0  0  0  0  0  0
  162.4910  206.6700  147.7890 C   0  0  0  0  0  2  0  0  0  0  0  0
  162.0450  206.4030  146.3600 C   0  0  0  0  0  3  0  0  0  0  0  0
  160.5480  206.1890  146.3370 C   0  0  0  0  0  1  0  0  0  0  0  0
  162.7310  205.1650  145.8170 C   0  0  0  0  0  1  0  0  0  0  0  0
  1  3  1  0  0  0  0
  2  5  1  0  0  0  0
  3 12  2  0  0  0  0
  4 11  1  0  0  0  0
  6 13  1  0  0  0  0
  7  2  2  0  0  0  0
  8  1  2  0  0  0  0
  8 14  1  0  0  0  0
 10  7  1  0  0  0  0
 10  6  2  0  0  0  0
 11  9  2  0  0  0  0
 11 20  1  0  0  0  0
 12  4  1  0  0  0  0
 13  5  2  0  0  0  0
 13  9  1  0  0  0  0
 14  6  1  0  0  0  0
 14  4  2  0  0  0  0
 15 18  1  0  0  0  0
 15 19  2  0  0  0  0
 16 17  1  0  0  0  0
 17  7  1  0  0  0  0
 18 16  2  0  0  0  0
 19 17  1  0  0  0  0
 20 21  1  0  0  0  0
 21 23  1  0  0  0  0
 22 23  1  0  0  0  0
 24 25  1  0  0  0  0
 24  1  1  0  0  0  0
 26 25  1  0  0  0  0
 27 28  1  0  0  0  0
 28 26  1  0  0  0  0
 29 28  1  0  0  0  0
 30 31  1  6  0  0  0
 30 29  1  0  0  0  0
 32 30  1  0  0  0  0
 32 27  1  0  0  0  0
 33  8  1  0  0  0  0
 34 33  1  0  0  0  0
 35 34  1  0  0  0  0
 36 35  1  0  0  0  0
 37 35  1  0  0  0  0
M  END
>  <MODEL>
1

>  <REMARK>
 VINA RESULT:      -8.8      0.000      0.000
  Name = 
  11 active torsions:
  status: ('A' for Active; 'I' for Inactive)
    1  A    between atoms: C_1  and  C_2
    2  A    between atoms: C_1  and  O_32
    3  A    between atoms: C_3  and  N_26
    4  A    between atoms: C_6  and  N_19
    5  A    between atoms: C_6  and  C_36
    6  A    between atoms: C_12  and  N_21
    7  A    between atoms: C_13  and  O_32
    8  A    between atoms: N_14  and  C_37
    9  A    between atoms: N_19  and  C_24
   10  A    between atoms: N_26  and  C_28
   11  A    between atoms: C_28  and  C_37
                            x       y       z     vdW  Elec       q    Type
                         _______ _______ _______ _____ _____    ______ ____

>  <TORSDO>
F 11

$$$$
=
 OpenBabel11052410583D

 37 41  0  0  1  0  0  0  0  0999 V2000
  161.9760  210.0930  149.3450 C   0  0  0  0  0  0  0  0  0  0  0  0
  160.8310  205.3520  153.7050 C   0  0  0  0  0  3  0  0  0  0  0  0
  162.0910  209.4360  148.1240 C   0  0  0  0  0  3  0  0  0  0  0  0
  161.7270  207.3240  149.1460 C   0  0  0  0  0  0  0  0  0  0  0  0
  160.9690  204.8350  152.4160 C   0  0  0  0  0  3  0  0  0  0  0  0
  161.3500  207.0830  151.5420 C   0  0  0  0  0  0  0  0  0  0  0  0
  160.9460  206.7290  153.9300 C   0  0  0  0  0  0  0  0  0  0  0  0
  161.7880  209.3320  150.5230 C   0  0  0  0  0  0  0  0  0  0  0  0
  161.3520  205.1620  150.0950 N   0  0  0  0  0  0  0  0  0  0  0  0
  161.2030  207.5790  152.8470 C   0  0  0  0  0  3  0  0  0  0  0  0
  161.5980  205.9350  149.0050 C   0  0  0  0  0  0  0  0  0  0  0  0
  161.9740  208.0880  148.0510 N   0  0  0  0  0  0  0  0  0  0  0  0
  161.2250  205.6870  151.3380 C   0  0  0  0  0  0  0  0  0  0  0  0
  161.6100  207.9240  150.4260 C   0  0  0  0  0  0  0  0  0  0  0  0
  160.0420  207.5440  157.2580 N   0  0  0  0  0  0  0  0  0  0  0  0
  161.5750  208.2150  155.8200 C   0  0  0  0  0  3  0  0  0  0  0  0
  160.8110  207.2600  155.2560 N   0  0  0  0  0  0  0  0  0  0  0  0
  161.0790  208.3940  157.0990 C   0  0  0  0  0  3  0  0  0  0  0  0
  159.9010  206.8710  156.1310 N   0  0  0  0  0  0  0  0  0  0  0  0
  161.7250  205.3330  147.7140 N   0  0  0  0  0  2  0  0  0  0  0  0
  161.6710  203.8930  147.5200 C   0  0  0  0  0  2  0  0  0  0  0  0
  160.9950  202.3860  145.8000 O   0  0  0  0  0  1  0  0  0  0  0  0
  161.6920  203.5700  146.0390 C   0  0  0  0  0  2  0  0  0  0  0  0
  162.0050  211.5280  149.3310 N   0  0  0  0  0  2  0  0  0  0  0  0
  162.4720  212.3470  148.2200 C   0  0  0  0  0  2  0  0  0  0  0  0
  161.3930  213.3370  147.8130 C   0  0  0  0  0  2  0  0  0  0  0  0
  159.4730  212.6420  146.6630 C   0  0  0  0  0  2  0  0  0  0  0  0
  160.0810  212.7350  147.9820 N   0  0  0  0  0  0  0  0  0  0  0  0
  159.2690  213.6930  148.7210 C   0  0  0  0  0  2  0  0  0  0  0  0
  157.9020  213.7650  148.0680 C   0  0  2  0  0  3  0  0  0  0  0  0
  156.8570  213.1850  149.0000 C   0  0  0  0  0  1  0  0  0  0  0  0
  157.9980  212.9140  146.8280 C   0  0  0  0  0  2  0  0  0  0  0  0
  161.8080  209.9520  151.7770 O   0  0  0  0  0  0  0  0  0  0  0  0
  161.0310  211.1110  152.0640 C   0  0  0  0  0  2  0  0  0  0  0  0
  160.0750  210.8480  153.2170 C   0  0  0  0  0  3  0  0  0  0  0  0
  158.6780  211.2650  152.8110 C   0  0  0  0  0  1  0  0  0  0  0  0
  160.4940  211.6400  154.4400 C   0  0  0  0  0  1  0  0  0  0  0  0
  1  8  1  0  0  0  0
  2  7  1  0  0  0  0
  3  1  2  0  0  0  0
  4 14  1  0  0  0  0
  5  2  2  0  0  0  0
  6 10  1  0  0  0  0
  7 17  1  0  0  0  0
  8 33  1  0  0  0  0
  9 13  1  0  0  0  0
 10  7  2  0  0  0  0
 11  4  1  0  0  0  0
 11  9  2  0  0  0  0
 12  3  1  0  0  0  0
 12  4  2  0  0  0  0
 13  6  2  0  0  0  0
 13  5  1  0  0  0  0
 14  8  2  0  0  0  0
 14  6  1  0  0  0  0
 16 18  2  0  0  0  0
 17 16  1  0  0  0  0
 17 19  1  0  0  0  0
 18 15  1  0  0  0  0
 19 15  2  0  0  0  0
 20 11  1  0  0  0  0
 21 20  1  0  0  0  0
 22 23  1  0  0  0  0
 23 21  1  0  0  0  0
 24  1  1  0  0  0  0
 25 24  1  0  0  0  0
 26 28  1  0  0  0  0
 26 25  1  0  0  0  0
 27 32  1  0  0  0  0
 27 28  1  0  0  0  0
 28 29  1  0  0  0  0
 30 29  1  0  0  0  0
 30 31  1  1  0  0  0
 32 30  1  0  0  0  0
 33 34  1  0  0  0  0
 34 35  1  0  0  0  0
 35 37  1  0  0  0  0
 36 35  1  0  0  0  0
M  END
>  <MODEL>
2

>  <REMARK>
 VINA RESULT:      -7.3      2.226      6.400
  Name = 
  11 active torsions:
  status: ('A' for Active; 'I' for Inactive)
    1  A    between atoms: C_1  and  C_2
    2  A    between atoms: C_1  and  O_32
    3  A    between atoms: C_3  and  N_26
    4  A    between atoms: C_6  and  N_19
    5  A    between atoms: C_6  and  C_36
    6  A    between atoms: C_12  and  N_21
    7  A    between atoms: C_13  and  O_32
    8  A    between atoms: N_14  and  C_37
    9  A    between atoms: N_19  and  C_24
   10  A    between atoms: N_26  and  C_28
   11  A    between atoms: C_28  and  C_37
                            x       y       z     vdW  Elec       q    Type
                         _______ _______ _______ _____ _____    ______ ____

>  <TORSDO>
F 11

$$$$
=
 OpenBabel11052410583D

 37 41  0  0  1  0  0  0  0  0999 V2000
  160.9160  207.4420  152.9170 C   0  0  0  0  0  0  0  0  0  0  0  0
  161.7590  205.6240  146.6900 C   0  0  0  0  0  3  0  0  0  0  0  0
  161.1930  208.8060  152.9320 C   0  0  0  0  0  3  0  0  0  0  0  0
  161.6580  208.8090  150.6030 C   0  0  0  0  0  0  0  0  0  0  0  0
  162.0040  206.9870  146.8590 C   0  0  0  0  0  3  0  0  0  0  0  0
  161.5160  206.7910  149.2430 C   0  0  0  0  0  0  0  0  0  0  0  0
  161.3890  204.8310  147.7830 C   0  0  0  0  0  0  0  0  0  0  0  0
  161.0720  206.7200  151.7100 C   0  0  0  0  0  0  0  0  0  0  0  0
  162.1250  208.9010  148.2610 N   0  0  0  0  0  0  0  0  0  0  0  0
  161.2690  205.4230  149.0460 C   0  0  0  0  0  3  0  0  0  0  0  0
  162.0230  209.5320  149.4590 C   0  0  0  0  0  0  0  0  0  0  0  0
  161.5600  209.4490  151.7980 N   0  0  0  0  0  0  0  0  0  0  0  0
  161.8850  207.5740  148.1220 C   0  0  0  0  0  0  0  0  0  0  0  0
  161.4010  207.4170  150.5140 C   0  0  0  0  0  0  0  0  0  0  0  0
  160.7080  201.3690  148.1090 N   0  0  0  0  0  0  0  0  0  0  0  0
  161.1150  202.7570  146.4430 C   0  0  0  0  0  3  0  0  0  0  0  0
  161.1420  203.4280  147.6100 N   0  0  0  0  0  0  0  0  0  0  0  0
  160.8370  201.4410  146.7680 C   0  0  0  0  0  3  0  0  0  0  0  0
  160.8970  202.5830  148.5940 N   0  0  0  0  0  0  0  0  0  0  0  0
  162.2890  210.9340  149.5540 N   0  0  0  0  0  2  0  0  0  0  0  0
  162.4040  211.7840  148.3810 C   0  0  0  0  0  2  0  0  0  0  0  0
  160.7420  212.8780  149.6960 O   0  0  0  0  0  1  0  0  0  0  0  0
  161.4680  212.9710  148.5090 C   0  0  0  0  0  2  0  0  0  0  0  0
  160.4320  206.8510  154.1320 N   0  0  0  0  0  2  0  0  0  0  0  0
  160.9720  207.1040  155.4610 C   0  0  0  0  0  2  0  0  0  0  0  0
  159.9450  207.8360  156.3090 C   0  0  0  0  0  2  0  0  0  0  0  0
  160.0740  210.1650  156.0890 C   0  0  0  0  0  2  0  0  0  0  0  0
  160.5380  209.0340  156.8780 N   0  0  0  0  0  0  0  0  0  0  0  0
  161.9730  208.9510  156.6380 C   0  0  0  0  0  2  0  0  0  0  0  0
  162.4570  210.3070  156.1600 C   0  0  2  0  0  3  0  0  0  0  0  0
  163.3540  210.9300  157.2110 C   0  0  0  0  0  1  0  0  0  0  0  0
  161.2170  211.1460  155.9940 C   0  0  0  0  0  2  0  0  0  0  0  0
  160.9360  205.3270  151.6960 O   0  0  0  0  0  0  0  0  0  0  0  0
  161.9920  204.4570  152.0930 C   0  0  0  0  0  2  0  0  0  0  0  0
  161.4710  203.0480  152.3250 C   0  0  0  0  0  3  0  0  0  0  0  0
  162.3320  202.0660  151.5610 C   0  0  0  0  0  1  0  0  0  0  0  0
  160.0380  202.9300  151.8440 C   0  0  0  0  0  1  0  0  0  0  0  0
  1  3  1  0  0  0  0
  1 24  1  0  0  0  0
  2  5  2  0  0  0  0
  2  7  1  0  0  0  0
  4 12  1  0  0  0  0
  5 13  1  0  0  0  0
  6 14  1  0  0  0  0
  7 10  2  0  0  0  0
  8  1  2  0  0  0  0
  9 11  2  0  0  0  0
 10  6  1  0  0  0  0
 11 20  1  0  0  0  0
 11  4  1  0  0  0  0
 12  3  2  0  0  0  0
 13  9  1  0  0  0  0
 13  6  2  0  0  0  0
 14  4  2  0  0  0  0
 14  8  1  0  0  0  0
 15 19  2  0  0  0  0
 16 18  2  0  0  0  0
 16 17  1  0  0  0  0
 17  7  1  0  0  0  0
 17 19  1  0  0  0  0
 18 15  1  0  0  0  0
 21 23  1  0  0  0  0
 21 20  1  0  0  0  0
 23 22  1  0  0  0  0
 24 25  1  0  0  0  0
 25 26  1  0  0  0  0
 26 28  1  0  0  0  0
 27 28  1  0  0  0  0
 29 28  1  0  0  0  0
 30 29  1  0  0  0  0
 30 31  1  1  0  0  0
 32 27  1  0  0  0  0
 32 30  1  0  0  0  0
 33  8  1  0  0  0  0
 33 34  1  0  0  0  0
 34 35  1  0  0  0  0
 36 35  1  0  0  0  0
 37 35  1  0  0  0  0
M  END
>  <MODEL>
3

>  <REMARK>
 VINA RESULT:      -7.1      2.048      6.672
  Name = 
  11 active torsions:
  status: ('A' for Active; 'I' for Inactive)
    1  A    between atoms: C_1  and  C_2
    2  A    between atoms: C_1  and  O_32
    3  A    between atoms: C_3  and  N_26
    4  A    between atoms: C_6  and  N_19
    5  A    between atoms: C_6  and  C_36
    6  A    between atoms: C_12  and  N_21
    7  A    between atoms: C_13  and  O_32
    8  A    between atoms: N_14  and  C_37
    9  A    between atoms: N_19  and  C_24
   10  A    between atoms: N_26  and  C_28
   11  A    between atoms: C_28  and  C_37
                            x       y       z     vdW  Elec       q    Type
                         _______ _______ _______ _____ _____    ______ ____

>  <TORSDO>
F 11

$$$$
=
 OpenBabel11052410583D

 37 41  0  0  1  0  0  0  0  0999 V2000
  161.8140  210.8180  149.6820 C   0  0  0  0  0  0  0  0  0  0  0  0
  161.1470  205.5930  153.5620 C   0  0  0  0  0  3  0  0  0  0  0  0
  162.0160  210.2950  148.4090 C   0  0  0  0  0  3  0  0  0  0  0  0
  161.8770  208.0690  149.2250 C   0  0  0  0  0  0  0  0  0  0  0  0
  161.3570  205.2180  152.2340 C   0  0  0  0  0  3  0  0  0  0  0  0
  161.4980  207.5650  151.5800 C   0  0  0  0  0  0  0  0  0  0  0  0
  161.1050  206.9470  153.9150 C   0  0  0  0  0  0  0  0  0  0  0  0
  161.6960  209.9340  150.7810 C   0  0  0  0  0  0  0  0  0  0  0  0
  161.7320  205.8000  149.9620 N   0  0  0  0  0  0  0  0  0  0  0  0
  161.2800  207.9180  152.9210 C   0  0  0  0  0  3  0  0  0  0  0  0
  161.9040  206.6940  148.9550 C   0  0  0  0  0  0  0  0  0  0  0  0
  162.0510  208.9550  148.2100 N   0  0  0  0  0  0  0  0  0  0  0  0
  161.5310  206.1900  151.2450 C   0  0  0  0  0  0  0  0  0  0  0  0
  161.6770  208.5300  150.5510 C   0  0  0  0  0  0  0  0  0  0  0  0
  161.2820  208.1920  157.2280 N   0  0  0  0  0  0  0  0  0  0  0  0
  159.7880  207.1110  156.0160 C   0  0  0  0  0  3  0  0  0  0  0  0
  160.8950  207.3330  155.2810 N   0  0  0  0  0  0  0  0  0  0  0  0
  160.0410  207.6620  157.2600 C   0  0  0  0  0  3  0  0  0  0  0  0
  161.7760  207.9800  156.0220 N   0  0  0  0  0  0  0  0  0  0  0  0
  162.1140  206.2330  147.6170 N   0  0  0  0  0  2  0  0  0  0  0  0
  161.2650  205.2260  147.0010 C   0  0  0  0  0  2  0  0  0  0  0  0
  161.3550  203.2220  145.7110 O   0  0  0  0  0  1  0  0  0  0  0  0
  162.0900  204.3480  146.0800 C   0  0  0  0  0  2  0  0  0  0  0  0
  161.6830  212.2430  149.8000 N   0  0  0  0  0  2  0  0  0  0  0  0
  161.0850  213.1160  148.7990 C   0  0  0  0  0  2  0  0  0  0  0  0
  162.1730  213.8550  148.0370 C   0  0  0  0  0  2  0  0  0  0  0  0
  160.3740  213.6340  146.5510 C   0  0  0  0  0  2  0  0  0  0  0  0
  161.6740  214.2620  146.7340 N   0  0  0  0  0  0  0  0  0  0  0  0
  162.5460  213.6530  145.7390 C   0  0  0  0  0  2  0  0  0  0  0  0
  161.6820  213.0810  144.6320 C   0  0  2  0  0  3  0  0  0  0  0  0
  161.8970  213.8670  143.3540 C   0  0  0  0  0  1  0  0  0  0  0  0
  160.2590  213.2540  145.0960 C   0  0  0  0  0  2  0  0  0  0  0  0
  161.6310  210.4320  152.0870 O   0  0  0  0  0  0  0  0  0  0  0  0
  160.6790  211.4170  152.4770 C   0  0  0  0  0  2  0  0  0  0  0  0
  159.6280  210.8160  153.3990 C   0  0  0  0  0  3  0  0  0  0  0  0
  158.3320  211.5790  153.2400 C   0  0  0  0  0  1  0  0  0  0  0  0
  160.0820  210.9050  154.8430 C   0  0  0  0  0  1  0  0  0  0  0  0
  1 24  1  0  0  0  0
  1  8  1  0  0  0  0
  2  7  1  0  0  0  0
  3  1  2  0  0  0  0
  4 14  1  0  0  0  0
  5  2  2  0  0  0  0
  6 10  1  0  0  0  0
  7 17  1  0  0  0  0
  8 33  1  0  0  0  0
  9 13  1  0  0  0  0
 10  7  2  0  0  0  0
 11  4  1  0  0  0  0
 11  9  2  0  0  0  0
 12  3  1  0  0  0  0
 12  4  2  0  0  0  0
 13  6  2  0  0  0  0
 13  5  1  0  0  0  0
 14  8  2  0  0  0  0
 14  6  1  0  0  0  0
 15 18  1  0  0  0  0
 16 18  2  0  0  0  0
 17 16  1  0  0  0  0
 17 19  1  0  0  0  0
 19 15  2  0  0  0  0
 20 11  1  0  0  0  0
 21 20  1  0  0  0  0
 22 23  1  0  0  0  0
 23 21  1  0  0  0  0
 25 24  1  0  0  0  0
 26 25  1  0  0  0  0
 27 28  1  0  0  0  0
 28 26  1  0  0  0  0
 29 28  1  0  0  0  0
 30 31  1  6  0  0  0
 30 32  1  0  0  0  0
 30 29  1  0  0  0  0
 32 27  1  0  0  0  0
 33 34  1  0  0  0  0
 34 35  1  0  0  0  0
 35 37  1  0  0  0  0
 36 35  1  0  0  0  0
M  END
>  <MODEL>
4

>  <REMARK>
 VINA RESULT:      -7.0      2.312      6.410
  Name = 
  11 active torsions:
  status: ('A' for Active; 'I' for Inactive)
    1  A    between atoms: C_1  and  C_2
    2  A    between atoms: C_1  and  O_32
    3  A    between atoms: C_3  and  N_26
    4  A    between atoms: C_6  and  N_19
    5  A    between atoms: C_6  and  C_36
    6  A    between atoms: C_12  and  N_21
    7  A    between atoms: C_13  and  O_32
    8  A    between atoms: N_14  and  C_37
    9  A    between atoms: N_19  and  C_24
   10  A    between atoms: N_26  and  C_28
   11  A    between atoms: C_28  and  C_37
                            x       y       z     vdW  Elec       q    Type
                         _______ _______ _______ _____ _____    ______ ____

>  <TORSDO>
F 11

$$$$
=
 OpenBabel11052410583D

 37 41  0  0  1  0  0  0  0  0999 V2000
  162.1780  208.3670  149.1400 C   0  0  0  0  0  0  0  0  0  0  0  0
  160.2280  210.8910  154.8530 C   0  0  0  0  0  3  0  0  0  0  0  0
  162.0950  209.4210  148.2370 C   0  0  0  0  0  3  0  0  0  0  0  0
  161.3130  210.8980  149.9240 C   0  0  0  0  0  0  0  0  0  0  0  0
  160.1980  211.8470  153.8370 C   0  0  0  0  0  3  0  0  0  0  0  0
  160.9850  210.1850  152.2310 C   0  0  0  0  0  0  0  0  0  0  0  0
  160.6360  209.5800  154.5770 C   0  0  0  0  0  0  0  0  0  0  0  0
  161.7570  208.5680  150.4770 C   0  0  0  0  0  0  0  0  0  0  0  0
  160.5380  212.4530  151.5660 N   0  0  0  0  0  0  0  0  0  0  0  0
  161.0110  209.2420  153.2710 C   0  0  0  0  0  3  0  0  0  0  0  0
  160.8930  212.1870  150.2820 C   0  0  0  0  0  0  0  0  0  0  0  0
  161.6640  210.6420  148.6370 N   0  0  0  0  0  0  0  0  0  0  0  0
  160.5730  211.5050  152.5340 C   0  0  0  0  0  0  0  0  0  0  0  0
  161.3610  209.8690  150.8980 C   0  0  0  0  0  0  0  0  0  0  0  0
  159.9840  207.0160  156.9360 N   0  0  0  0  0  0  0  0  0  0  0  0
  161.7030  208.3000  156.4200 C   0  0  0  0  0  3  0  0  0  0  0  0
  160.6610  208.5940  155.6200 N   0  0  0  0  0  0  0  0  0  0  0  0
  161.2650  207.2910  157.2600 C   0  0  0  0  0  3  0  0  0  0  0  0
  159.6430  207.8170  155.9420 N   0  0  0  0  0  0  0  0  0  0  0  0
  160.8380  213.2210  149.2950 N   0  0  0  0  0  2  0  0  0  0  0  0
  159.6170  213.9550  149.0080 C   0  0  0  0  0  2  0  0  0  0  0  0
  157.4680  213.0530  148.5010 O   0  0  0  0  0  1  0  0  0  0  0  0
  158.7690  213.1820  148.0160 C   0  0  0  0  0  2  0  0  0  0  0  0
  162.7420  207.1330  148.6700 N   0  0  0  0  0  2  0  0  0  0  0  0
  162.4360  206.5040  147.3930 C   0  0  0  0  0  2  0  0  0  0  0  0
  161.2930  205.5160  147.5610 C   0  0  0  0  0  2  0  0  0  0  0  0
  161.5010  203.5760  146.2620 C   0  0  0  0  0  2  0  0  0  0  0  0
  161.8100  204.1580  147.5600 N   0  0  0  0  0  0  0  0  0  0  0  0
  161.0200  203.4050  148.5250 C   0  0  0  0  0  2  0  0  0  0  0  0
  160.6670  202.0630  147.9110 C   0  0  2  0  0  3  0  0  0  0  0  0
  161.3870  200.9550  148.6520 C   0  0  0  0  0  1  0  0  0  0  0  0
  161.1640  202.1230  146.4890 C   0  0  0  0  0  2  0  0  0  0  0  0
  161.6970  207.4930  151.3700 O   0  0  0  0  0  0  0  0  0  0  0  0
  160.9540  206.3110  151.0870 C   0  0  0  0  0  2  0  0  0  0  0  0
  161.4100  205.1620  151.9730 C   0  0  0  0  0  3  0  0  0  0  0  0
  160.5470  203.9500  151.7010 C   0  0  0  0  0  1  0  0  0  0  0  0
  161.2830  205.5420  153.4360 C   0  0  0  0  0  1  0  0  0  0  0  0
  1  8  1  0  0  0  0
  3 12  1  0  0  0  0
  3  1  2  0  0  0  0
  4 11  1  0  0  0  0
  4 14  1  0  0  0  0
  5  2  2  0  0  0  0
  6 13  2  0  0  0  0
  6 10  1  0  0  0  0
  7  2  1  0  0  0  0
  7 17  1  0  0  0  0
  8 14  2  0  0  0  0
  8 33  1  0  0  0  0
  9 13  1  0  0  0  0
 10  7  2  0  0  0  0
 11  9  2  0  0  0  0
 12  4  2  0  0  0  0
 13  5  1  0  0  0  0
 14  6  1  0  0  0  0
 15 18  1  0  0  0  0
 16 18  2  0  0  0  0
 17 19  1  0  0  0  0
 17 16  1  0  0  0  0
 19 15  2  0  0  0  0
 20 11  1  0  0  0  0
 21 20  1  0  0  0  0
 23 22  1  0  0  0  0
 23 21  1  0  0  0  0
 24  1  1  0  0  0  0
 25 26  1  0  0  0  0
 25 24  1  0  0  0  0
 27 32  1  0  0  0  0
 27 28  1  0  0  0  0
 28 26  1  0  0  0  0
 28 29  1  0  0  0  0
 30 29  1  0  0  0  0
 30 31  1  1  0  0  0
 32 30  1  0  0  0  0
 34 33  1  0  0  0  0
 34 35  1  0  0  0  0
 35 37  1  0  0  0  0
 36 35  1  0  0  0  0
M  END
>  <MODEL>
5

>  <REMARK>
 VINA RESULT:      -6.8      2.272      7.881
  Name = 
  11 active torsions:
  status: ('A' for Active; 'I' for Inactive)
    1  A    between atoms: C_1  and  C_2
    2  A    between atoms: C_1  and  O_32
    3  A    between atoms: C_3  and  N_26
    4  A    between atoms: C_6  and  N_19
    5  A    between atoms: C_6  and  C_36
    6  A    between atoms: C_12  and  N_21
    7  A    between atoms: C_13  and  O_32
    8  A    between atoms: N_14  and  C_37
    9  A    between atoms: N_19  and  C_24
   10  A    between atoms: N_26  and  C_28
   11  A    between atoms: C_28  and  C_37
                            x       y       z     vdW  Elec       q    Type
                         _______ _______ _______ _____ _____    ______ ____

>  <TORSDO>
F 11

$$$$
=
 OpenBabel11052410583D

 37 41  0  0  1  0  0  0  0  0999 V2000
  161.2840  208.2320  153.2210 C   0  0  0  0  0  0  0  0  0  0  0  0
  159.3370  214.1420  151.2010 C   0  0  0  0  0  3  0  0  0  0  0  0
  160.7750  208.1090  154.5100 C   0  0  0  0  0  3  0  0  0  0  0  0
  159.7950  210.2690  154.4050 C   0  0  0  0  0  0  0  0  0  0  0  0
  158.8920  213.8750  152.4970 C   0  0  0  0  0  3  0  0  0  0  0  0
  159.9860  211.6930  152.4360 C   0  0  0  0  0  0  0  0  0  0  0  0
  160.1030  213.1960  150.5080 C   0  0  0  0  0  0  0  0  0  0  0  0
  161.0910  209.4440  152.5160 C   0  0  0  0  0  0  0  0  0  0  0  0
  158.7640  212.4250  154.3740 N   0  0  0  0  0  0  0  0  0  0  0  0
  160.4170  211.9830  151.1320 C   0  0  0  0  0  3  0  0  0  0  0  0
  159.0340  211.2670  155.0290 C   0  0  0  0  0  0  0  0  0  0  0  0
  160.0610  209.1150  155.0700 N   0  0  0  0  0  0  0  0  0  0  0  0
  159.2090  212.6620  153.1160 C   0  0  0  0  0  0  0  0  0  0  0  0
  160.2910  210.4690  153.0920 C   0  0  0  0  0  0  0  0  0  0  0  0
  161.8610  214.1370  147.5780 N   0  0  0  0  0  0  0  0  0  0  0  0
  159.9050  213.2220  148.0310 C   0  0  0  0  0  3  0  0  0  0  0  0
  160.5650  213.4730  149.1780 N   0  0  0  0  0  0  0  0  0  0  0  0
  160.7380  213.6490  147.0120 C   0  0  0  0  0  3  0  0  0  0  0  0
  161.7310  214.0200  148.8880 N   0  0  0  0  0  0  0  0  0  0  0  0
  158.5420  211.0650  156.3570 N   0  0  0  0  0  2  0  0  0  0  0  0
  157.5220  211.9170  156.9460 C   0  0  0  0  0  2  0  0  0  0  0  0
  155.5910  212.3400  155.6110 O   0  0  0  0  0  1  0  0  0  0  0  0
  156.1450  211.4420  156.5230 C   0  0  0  0  0  2  0  0  0  0  0  0
  161.9390  207.0860  152.6550 N   0  0  0  0  0  2  0  0  0  0  0  0
  161.3450  205.7640  152.5180 C   0  0  0  0  0  2  0  0  0  0  0  0
  160.8080  205.5770  151.1080 C   0  0  0  0  0  2  0  0  0  0  0  0
  161.2070  204.5140  149.0590 C   0  0  0  0  0  2  0  0  0  0  0  0
  161.4230  204.4130  150.4950 N   0  0  0  0  0  0  0  0  0  0  0  0
  160.6560  203.2520  150.9260 C   0  0  0  0  0  2  0  0  0  0  0  0
  160.4270  202.3570  149.7230 C   0  0  2  0  0  3  0  0  0  0  0  0
  161.1990  201.0640  149.8930 C   0  0  0  0  0  1  0  0  0  0  0  0
  160.9700  203.1160  148.5410 C   0  0  0  0  0  2  0  0  0  0  0  0
  161.7080  209.6470  151.2760 O   0  0  0  0  0  0  0  0  0  0  0  0
  162.2770  208.5770  150.5270 C   0  0  0  0  0  2  0  0  0  0  0  0
  161.8100  208.6240  149.0800 C   0  0  0  0  0  3  0  0  0  0  0  0
  162.6530  207.6770  148.2540 C   0  0  0  0  0  1  0  0  0  0  0  0
  161.9530  210.0280  148.5260 C   0  0  0  0  0  1  0  0  0  0  0  0
  1  3  1  0  0  0  0
  2  5  1  0  0  0  0
  3 12  2  0  0  0  0
  4 11  1  0  0  0  0
  4 12  1  0  0  0  0
  5 13  2  0  0  0  0
  6 14  1  0  0  0  0
  6 13  1  0  0  0  0
  7 10  1  0  0  0  0
  7  2  2  0  0  0  0
  8 14  1  0  0  0  0
  8  1  2  0  0  0  0
  9 11  2  0  0  0  0
 10  6  2  0  0  0  0
 11 20  1  0  0  0  0
 13  9  1  0  0  0  0
 14  4  2  0  0  0  0
 15 19  2  0  0  0  0
 16 17  1  0  0  0  0
 17  7  1  0  0  0  0
 18 15  1  0  0  0  0
 18 16  2  0  0  0  0
 19 17  1  0  0  0  0
 20 21  1  0  0  0  0
 22 23  1  0  0  0  0
 23 21  1  0  0  0  0
 24  1  1  0  0  0  0
 25 24  1  0  0  0  0
 26 25  1  0  0  0  0
 27 28  1  0  0  0  0
 28 29  1  0  0  0  0
 28 26  1  0  0  0  0
 30 31  1  1  0  0  0
 30 29  1  0  0  0  0
 32 27  1  0  0  0  0
 32 30  1  0  0  0  0
 33  8  1  0  0  0  0
 34 33  1  0  0  0  0
 35 34  1  0  0  0  0
 36 35  1  0  0  0  0
 37 35  1  0  0  0  0
M  END
>  <MODEL>
6

>  <REMARK>
 VINA RESULT:      -6.5      3.119      8.084
  Name = 
  11 active torsions:
  status: ('A' for Active; 'I' for Inactive)
    1  A    between atoms: C_1  and  C_2
    2  A    between atoms: C_1  and  O_32
    3  A    between atoms: C_3  and  N_26
    4  A    between atoms: C_6  and  N_19
    5  A    between atoms: C_6  and  C_36
    6  A    between atoms: C_12  and  N_21
    7  A    between atoms: C_13  and  O_32
    8  A    between atoms: N_14  and  C_37
    9  A    between atoms: N_19  and  C_24
   10  A    between atoms: N_26  and  C_28
   11  A    between atoms: C_28  and  C_37
                            x       y       z     vdW  Elec       q    Type
                         _______ _______ _______ _____ _____    ______ ____

>  <TORSDO>
F 11

$$$$
=
 OpenBabel11052410583D

 37 41  0  0  1  0  0  0  0  0999 V2000
  160.9120  207.6360  152.9460 C   0  0  0  0  0  0  0  0  0  0  0  0
  161.7250  205.5870  146.7860 C   0  0  0  0  0  3  0  0  0  0  0  0
  161.2010  208.9960  152.9110 C   0  0  0  0  0  3  0  0  0  0  0  0
  161.6600  208.9110  150.5820 C   0  0  0  0  0  0  0  0  0  0  0  0
  161.9820  206.9530  146.9060 C   0  0  0  0  0  3  0  0  0  0  0  0
  161.4980  206.8470  149.2960 C   0  0  0  0  0  0  0  0  0  0  0  0
  161.3500  204.8370  147.9080 C   0  0  0  0  0  0  0  0  0  0  0  0
  161.0590  206.8690  151.7650 C   0  0  0  0  0  0  0  0  0  0  0  0
  162.1220  208.9150  148.2380 N   0  0  0  0  0  0  0  0  0  0  0  0
  161.2390  205.4750  149.1490 C   0  0  0  0  0  3  0  0  0  0  0  0
  162.0290  209.5890  149.4120 C   0  0  0  0  0  0  0  0  0  0  0  0
  161.5700  209.5950  151.7530 N   0  0  0  0  0  0  0  0  0  0  0  0
  161.8700  207.5860  148.1470 C   0  0  0  0  0  0  0  0  0  0  0  0
  161.3910  207.5190  150.5440 C   0  0  0  0  0  0  0  0  0  0  0  0
  160.9090  201.4730  146.8840 N   0  0  0  0  0  0  0  0  0  0  0  0
  160.6980  202.6000  148.7700 C   0  0  0  0  0  3  0  0  0  0  0  0
  161.0920  203.4310  147.7860 N   0  0  0  0  0  0  0  0  0  0  0  0
  160.5830  201.3490  148.1880 C   0  0  0  0  0  3  0  0  0  0  0  0
  161.2130  202.7400  146.6670 N   0  0  0  0  0  0  0  0  0  0  0  0
  162.3060  210.9920  149.4560 N   0  0  0  0  0  2  0  0  0  0  0  0
  162.6570  211.7520  148.2680 C   0  0  0  0  0  2  0  0  0  0  0  0
  160.4670  212.4050  147.5850 O   0  0  0  0  0  1  0  0  0  0  0  0
  161.6770  212.8940  148.0770 C   0  0  0  0  0  2  0  0  0  0  0  0
  160.4250  207.0930  154.1820 N   0  0  0  0  0  2  0  0  0  0  0  0
  160.8700  207.4980  155.5090 C   0  0  0  0  0  2  0  0  0  0  0  0
  159.8160  208.3720  156.1670 C   0  0  0  0  0  2  0  0  0  0  0  0
  160.6890  210.3730  157.0200 C   0  0  0  0  0  2  0  0  0  0  0  0
  160.0640  209.7690  155.8520 N   0  0  0  0  0  0  0  0  0  0  0  0
  158.7640  210.4120  155.7270 C   0  0  0  0  0  2  0  0  0  0  0  0
  158.8150  211.7410  156.4560 C   0  0  2  0  0  3  0  0  0  0  0  0
  158.7180  212.8770  155.4580 C   0  0  0  0  0  1  0  0  0  0  0  0
  160.1590  211.7810  157.1350 C   0  0  0  0  0  2  0  0  0  0  0  0
  160.9110  205.4780  151.8010 O   0  0  0  0  0  0  0  0  0  0  0  0
  161.9720  204.6120  152.1950 C   0  0  0  0  0  2  0  0  0  0  0  0
  161.4650  203.1910  152.3870 C   0  0  0  0  0  3  0  0  0  0  0  0
  162.3410  202.2390  151.6050 C   0  0  0  0  0  1  0  0  0  0  0  0
  160.0360  203.0700  151.8930 C   0  0  0  0  0  1  0  0  0  0  0  0
  1 24  1  0  0  0  0
  2  5  2  0  0  0  0
  2  7  1  0  0  0  0
  3  1  1  0  0  0  0
  4 12  1  0  0  0  0
  5 13  1  0  0  0  0
  6 14  1  0  0  0  0
  7 10  2  0  0  0  0
  8 33  1  0  0  0  0
  8  1  2  0  0  0  0
  9 11  2  0  0  0  0
 10  6  1  0  0  0  0
 11 20  1  0  0  0  0
 11  4  1  0  0  0  0
 12  3  2  0  0  0  0
 13  9  1  0  0  0  0
 13  6  2  0  0  0  0
 14  4  2  0  0  0  0
 14  8  1  0  0  0  0
 15 18  1  0  0  0  0
 17  7  1  0  0  0  0
 17 16  1  0  0  0  0
 18 16  2  0  0  0  0
 19 15  2  0  0  0  0
 19 17  1  0  0  0  0
 21 20  1  0  0  0  0
 22 23  1  0  0  0  0
 23 21  1  0  0  0  0
 24 25  1  0  0  0  0
 25 26  1  0  0  0  0
 27 32  1  0  0  0  0
 28 26  1  0  0  0  0
 28 27  1  0  0  0  0
 29 28  1  0  0  0  0
 29 30  1  0  0  0  0
 30 31  1  6  0  0  0
 30 32  1  0  0  0  0
 33 34  1  0  0  0  0
 34 35  1  0  0  0  0
 36 35  1  0  0  0  0
 37 35  1  0  0  0  0
M  END
>  <MODEL>
7

>  <REMARK>
 VINA RESULT:      -6.4      2.147      6.542
  Name = 
  11 active torsions:
  status: ('A' for Active; 'I' for Inactive)
    1  A    between atoms: C_1  and  C_2
    2  A    between atoms: C_1  and  O_32
    3  A    between atoms: C_3  and  N_26
    4  A    between atoms: C_6  and  N_19
    5  A    between atoms: C_6  and  C_36
    6  A    between atoms: C_12  and  N_21
    7  A    between atoms: C_13  and  O_32
    8  A    between atoms: N_14  and  C_37
    9  A    between atoms: N_19  and  C_24
   10  A    between atoms: N_26  and  C_28
   11  A    between atoms: C_28  and  C_37
                            x       y       z     vdW  Elec       q    Type
                         _______ _______ _______ _____ _____    ______ ____

>  <TORSDO>
F 11

$$$$
=
 OpenBabel11052410583D

 37 41  0  0  1  0  0  0  0  0999 V2000
  161.6800  208.3770  151.8350 C   0  0  0  0  0  0  0  0  0  0  0  0
  158.7050  214.1330  152.7430 C   0  0  0  0  0  3  0  0  0  0  0  0
  162.3100  208.4920  150.6000 C   0  0  0  0  0  3  0  0  0  0  0  0
  161.5040  210.7070  150.3140 C   0  0  0  0  0  0  0  0  0  0  0  0
  159.3900  214.1000  151.5280 C   0  0  0  0  0  3  0  0  0  0  0  0
  160.1060  211.8100  151.9780 C   0  0  0  0  0  0  0  0  0  0  0  0
  158.7130  213.0170  153.5890 C   0  0  0  0  0  0  0  0  0  0  0  0
  160.8820  209.4480  152.3030 C   0  0  0  0  0  0  0  0  0  0  0  0
  160.7480  212.9460  149.9570 N   0  0  0  0  0  0  0  0  0  0  0  0
  159.4140  211.8690  153.1980 C   0  0  0  0  0  3  0  0  0  0  0  0
  161.4470  211.8650  149.5260 C   0  0  0  0  0  0  0  0  0  0  0  0
  162.2050  209.6300  149.8730 N   0  0  0  0  0  0  0  0  0  0  0  0
  160.0880  212.9530  151.1410 C   0  0  0  0  0  0  0  0  0  0  0  0
  160.8260  210.6590  151.5590 C   0  0  0  0  0  0  0  0  0  0  0  0
  157.2360  212.3920  156.7490 N   0  0  0  0  0  0  0  0  0  0  0  0
  157.2810  214.0750  155.3220 C   0  0  0  0  0  3  0  0  0  0  0  0
  158.0040  213.0480  154.8350 N   0  0  0  0  0  0  0  0  0  0  0  0
  156.7930  213.6510  156.5450 C   0  0  0  0  0  3  0  0  0  0  0  0
  157.9660  212.0510  155.7020 N   0  0  0  0  0  0  0  0  0  0  0  0
  162.1260  211.9070  148.2670 N   0  0  0  0  0  2  0  0  0  0  0  0
  162.1520  213.1020  147.4390 C   0  0  0  0  0  2  0  0  0  0  0  0
  160.0070  212.5780  146.5380 O   0  0  0  0  0  1  0  0  0  0  0  0
  161.3220  212.8820  146.1890 C   0  0  0  0  0  2  0  0  0  0  0  0
  161.9230  207.1840  152.5950 N   0  0  0  0  0  2  0  0  0  0  0  0
  162.3790  205.9160  152.0420 C   0  0  0  0  0  2  0  0  0  0  0  0
  161.1920  205.1090  151.5430 C   0  0  0  0  0  2  0  0  0  0  0  0
  161.2180  204.5240  149.2740 C   0  0  0  0  0  2  0  0  0  0  0  0
  161.6410  204.0990  150.6000 N   0  0  0  0  0  0  0  0  0  0  0  0
  160.8830  202.8880  150.8840 C   0  0  0  0  0  2  0  0  0  0  0  0
  160.4260  202.2910  149.5670 C   0  0  2  0  0  3  0  0  0  0  0  0
  161.1410  200.9760  149.3250 C   0  0  0  0  0  1  0  0  0  0  0  0
  160.8280  203.2840  148.5080 C   0  0  0  0  0  2  0  0  0  0  0  0
  160.1260  209.3080  153.4730 O   0  0  0  0  0  0  0  0  0  0  0  0
  160.7250  209.2820  154.7650 C   0  0  0  0  0  2  0  0  0  0  0  0
  159.7200  208.8400  155.8170 C   0  0  0  0  0  3  0  0  0  0  0  0
  160.0710  209.4790  157.1420 C   0  0  0  0  0  1  0  0  0  0  0  0
  159.7490  207.3310  155.9720 C   0  0  0  0  0  1  0  0  0  0  0  0
  1  8  1  0  0  0  0
  1 24  1  0  0  0  0
  2  7  1  0  0  0  0
  3  1  2  0  0  0  0
  4 14  1  0  0  0  0
  5  2  2  0  0  0  0
  6 10  1  0  0  0  0
  7 17  1  0  0  0  0
  8 33  1  0  0  0  0
  9 13  1  0  0  0  0
 10  7  2  0  0  0  0
 11  9  2  0  0  0  0
 11  4  1  0  0  0  0
 12  4  2  0  0  0  0
 12  3  1  0  0  0  0
 13  5  1  0  0  0  0
 13  6  2  0  0  0  0
 14  6  1  0  0  0  0
 14  8  2  0  0  0  0
 16 18  2  0  0  0  0
 17 16  1  0  0  0  0
 17 19  1  0  0  0  0
 18 15  1  0  0  0  0
 19 15  2  0  0  0  0
 20 11  1  0  0  0  0
 21 20  1  0  0  0  0
 23 22  1  0  0  0  0
 23 21  1  0  0  0  0
 25 24  1  0  0  0  0
 26 25  1  0  0  0  0
 27 28  1  0  0  0  0
 28 29  1  0  0  0  0
 28 26  1  0  0  0  0
 30 31  1  6  0  0  0
 30 29  1  0  0  0  0
 32 27  1  0  0  0  0
 32 30  1  0  0  0  0
 33 34  1  0  0  0  0
 34 35  1  0  0  0  0
 35 37  1  0  0  0  0
 35 36  1  0  0  0  0
M  END
>  <MODEL>
8

>  <REMARK>
 VINA RESULT:      -6.3      3.408      9.614
  Name = 
  11 active torsions:
  status: ('A' for Active; 'I' for Inactive)
    1  A    between atoms: C_1  and  C_2
    2  A    between atoms: C_1  and  O_32
    3  A    between atoms: C_3  and  N_26
    4  A    between atoms: C_6  and  N_19
    5  A    between atoms: C_6  and  C_36
    6  A    between atoms: C_12  and  N_21
    7  A    between atoms: C_13  and  O_32
    8  A    between atoms: N_14  and  C_37
    9  A    between atoms: N_19  and  C_24
   10  A    between atoms: N_26  and  C_28
   11  A    between atoms: C_28  and  C_37
                            x       y       z     vdW  Elec       q    Type
                         _______ _______ _______ _____ _____    ______ ____

>  <TORSDO>
F 11

$$$$
=
 OpenBabel11052410583D

 37 41  0  0  1  0  0  0  0  0999 V2000
  161.6460  206.9840  152.3810 C   0  0  0  0  0  0  0  0  0  0  0  0
  160.4450  213.2060  150.7560 C   0  0  0  0  0  3  0  0  0  0  0  0
  161.1950  206.8630  153.6910 C   0  0  0  0  0  3  0  0  0  0  0  0
  160.5250  209.1410  153.7450 C   0  0  0  0  0  0  0  0  0  0  0  0
  160.0380  212.9340  152.0620 C   0  0  0  0  0  3  0  0  0  0  0  0
  160.8090  210.6290  151.8350 C   0  0  0  0  0  0  0  0  0  0  0  0
  161.0320  212.2030  149.9750 C   0  0  0  0  0  0  0  0  0  0  0  0
  161.5890  208.2470  151.7450 C   0  0  0  0  0  0  0  0  0  0  0  0
  159.8070  211.4170  153.8750 N   0  0  0  0  0  0  0  0  0  0  0  0
  161.2060  210.9260  150.5220 C   0  0  0  0  0  3  0  0  0  0  0  0
  159.9460  210.1990  154.4590 C   0  0  0  0  0  0  0  0  0  0  0  0
  160.6600  207.9260  154.3380 N   0  0  0  0  0  0  0  0  0  0  0  0
  160.2130  211.6580  152.6050 C   0  0  0  0  0  0  0  0  0  0  0  0
  160.9730  209.3410  152.4140 C   0  0  0  0  0  0  0  0  0  0  0  0
  161.3390  212.9430  146.5220 N   0  0  0  0  0  0  0  0  0  0  0  0
  162.7280  212.5690  148.1960 C   0  0  0  0  0  3  0  0  0  0  0  0
  161.4570  212.4850  148.6340 N   0  0  0  0  0  0  0  0  0  0  0  0
  162.6470  212.8620  146.8460 C   0  0  0  0  0  3  0  0  0  0  0  0
  160.6410  212.7110  147.6200 N   0  0  0  0  0  0  0  0  0  0  0  0
  159.5020  209.9950  155.8040 N   0  0  0  0  0  2  0  0  0  0  0  0
  159.6510  211.0110  156.8330 C   0  0  0  0  0  2  0  0  0  0  0  0
  158.1130  212.7800  156.3940 O   0  0  0  0  0  1  0  0  0  0  0  0
  158.3010  211.6250  157.1520 C   0  0  0  0  0  2  0  0  0  0  0  0
  162.1020  205.7920  151.7240 N   0  0  0  0  0  2  0  0  0  0  0  0
  161.6720  204.4390  152.0490 C   0  0  0  0  0  2  0  0  0  0  0  0
  160.7200  203.9240  150.9810 C   0  0  0  0  0  2  0  0  0  0  0  0
  161.2060  203.7050  148.6990 C   0  0  0  0  0  2  0  0  0  0  0  0
  161.4500  203.1250  150.0120 N   0  0  0  0  0  0  0  0  0  0  0  0
  160.8180  201.8130  149.9840 C   0  0  0  0  0  2  0  0  0  0  0  0
  160.6720  201.3830  148.5370 C   0  0  2  0  0  3  0  0  0  0  0  0
  161.5810  200.2030  148.2580 C   0  0  0  0  0  1  0  0  0  0  0  0
  161.1150  202.5660  147.7140 C   0  0  0  0  0  2  0  0  0  0  0  0
  162.1610  208.4300  150.4810 O   0  0  0  0  0  0  0  0  0  0  0  0
  162.4720  207.3360  149.6230 C   0  0  0  0  0  2  0  0  0  0  0  0
  161.6050  207.3670  148.3740 C   0  0  0  0  0  3  0  0  0  0  0  0
  160.3210  206.6120  148.6400 C   0  0  0  0  0  1  0  0  0  0  0  0
  162.3310  206.7170  147.2120 C   0  0  0  0  0  1  0  0  0  0  0  0
  1  3  1  0  0  0  0
  2  5  1  0  0  0  0
  3 12  2  0  0  0  0
  4 12  1  0  0  0  0
  4 11  1  0  0  0  0
  5 13  2  0  0  0  0
  6 14  1  0  0  0  0
  6 13  1  0  0  0  0
  7 10  1  0  0  0  0
  7  2  2  0  0  0  0
  8  1  2  0  0  0  0
  8 14  1  0  0  0  0
  9 11  2  0  0  0  0
 10  6  2  0  0  0  0
 11 20  1  0  0  0  0
 13  9  1  0  0  0  0
 14  4  2  0  0  0  0
 15 18  1  0  0  0  0
 15 19  2  0  0  0  0
 16 17  1  0  0  0  0
 17  7  1  0  0  0  0
 18 16  2  0  0  0  0
 19 17  1  0  0  0  0
 20 21  1  0  0  0  0
 21 23  1  0  0  0  0
 22 23  1  0  0  0  0
 24 25  1  0  0  0  0
 24  1  1  0  0  0  0
 26 25  1  0  0  0  0
 27 28  1  0  0  0  0
 28 26  1  0  0  0  0
 29 28  1  0  0  0  0
 30 31  1  1  0  0  0
 30 29  1  0  0  0  0
 32 30  1  0  0  0  0
 32 27  1  0  0  0  0
 33  8  1  0  0  0  0
 34 33  1  0  0  0  0
 35 36  1  0  0  0  0
 35 34  1  0  0  0  0
 37 35  1  0  0  0  0
M  END
>  <MODEL>
9

>  <REMARK>
 VINA RESULT:      -6.3      2.234      7.596
  Name = 
  11 active torsions:
  status: ('A' for Active; 'I' for Inactive)
    1  A    between atoms: C_1  and  C_2
    2  A    between atoms: C_1  and  O_32
    3  A    between atoms: C_3  and  N_26
    4  A    between atoms: C_6  and  N_19
    5  A    between atoms: C_6  and  C_36
    6  A    between atoms: C_12  and  N_21
    7  A    between atoms: C_13  and  O_32
    8  A    between atoms: N_14  and  C_37
    9  A    between atoms: N_19  and  C_24
   10  A    between atoms: N_26  and  C_28
   11  A    between atoms: C_28  and  C_37
                            x       y       z     vdW  Elec       q    Type
                         _______ _______ _______ _____ _____    ______ ____

>  <TORSDO>
F 11

$$$$
