=
 OpenBabel11042422013D

 46 53  0  0  1  0  0  0  0  0999 V2000
  161.1870  208.3950  156.8520 C   0  0  0  0  0  3  0  0  0  0  0  0
  159.6040  211.3030  153.4830 C   0  0  0  0  0  0  0  0  0  0  0  0
  161.5030  209.6630  152.8690 C   0  0  0  0  0  2  0  0  0  0  0  0
  157.8730  213.9150  151.4690 C   0  0  0  0  0  0  0  0  0  0  0  0
  160.8890  206.5510  153.5190 C   0  0  2  0  0  3  0  0  0  0  0  0
  160.0490  212.9400  155.9100 O   0  0  0  0  0  0  0  0  0  0  0  0
  159.5430  210.8780  154.8660 N   0  0  0  0  0  0  0  0  0  0  0  0
  160.0300  211.6800  155.9440 C   0  0  0  0  0  0  0  0  0  0  0  0
  160.0830  206.7220  151.2970 O   0  0  0  0  0  0  0  0  0  0  0  0
  160.5650  210.8780  157.0910 C   0  0  0  0  0  2  0  0  0  0  0  0
  162.6390  210.1210  150.4160 C   0  0  0  0  0  2  0  0  0  0  0  0
  157.9420  214.4530  150.2230 N   0  0  0  0  0  0  0  0  0  0  0  0
  161.2560  207.3380  155.9300 C   0  0  0  0  0  3  0  0  0  0  0  0
  160.6280  211.4160  151.2420 C   0  0  0  0  0  0  0  0  0  0  0  0
  159.7190  212.4360  150.9040 C   0  0  0  0  0  0  0  0  0  0  0  0
  159.6550  208.4580  154.4960 C   0  0  0  0  0  3  0  0  0  0  0  0
  162.0600  208.7180  150.5840 C   0  0  1  0  0  3  0  0  0  0  0  0
  159.7110  209.5510  155.3330 C   0  0  0  0  0  0  0  0  0  0  0  0
  161.5920  211.0750  150.2710 O   0  0  0  0  0  0  0  0  0  0  0  0
  160.7610  207.2890  152.1950 C   0  0  0  0  0  0  0  0  0  0  0  0
  160.5270  207.3940  154.7200 C   0  0  0  0  0  0  0  0  0  0  0  0
  158.7370  212.3310  153.1120 C   0  0  0  0  0  3  0  0  0  0  0  0
  161.4200  208.5530  151.8970 N   0  0  0  0  0  0  0  0  0  0  0  0
  160.5460  210.7930  152.5240 C   0  0  0  0  0  0  0  0  0  0  0  0
  158.8550  214.0340  149.3080 C   0  0  0  0  0  3  0  0  0  0  0  0
  160.4140  209.5100  156.5220 C   0  0  0  0  0  0  0  0  0  0  0  0
  156.8440  214.4350  152.4180 C   0  0  0  0  0  1  0  0  0  0  0  0
  158.7650  212.8880  151.8380 C   0  0  0  0  0  0  0  0  0  0  0  0
  159.7580  213.0220  149.6330 C   0  0  0  0  0  3  0  0  0  0  0  0
  161.9390  208.1040  148.4570 C   0  0  0  0  0  1  0  0  0  0  0  0
  161.1510  208.4660  149.5500 O   0  0  0  0  0  0  0  0  0  0  0  0
  162.2710  205.9080  153.6060 C   0  0  0  0  0  2  0  0  0  0  0  0
  162.6970  205.3940  152.2740 C   0  0  0  0  0  0  0  0  0  0  0  0
  163.7250  205.8690  151.7190 O   0  0  0  0  0  0  0  0  0  0  0  0
  161.9280  204.3780  151.6300 N   0  0  0  0  0  2  0  0  0  0  0  0
  162.2960  203.8040  150.3430 C   0  0  0  0  0  2  0  0  0  0  0  0
  162.8250  204.9730  147.0770 C   0  0  0  0  0  1  0  0  0  0  0  0
  161.5230  200.2710  148.3210 C   0  0  0  0  0  1  0  0  0  0  0  0
  161.0530  203.4220  149.5550 C   0  0  2  0  0  3  0  0  0  0  0  0
  160.6360  201.9880  149.9190 C   0  0  0  0  0  2  0  0  0  0  0  0
  161.4430  204.3510  147.0770 C   0  0  2  0  0  3  0  0  0  0  0  0
  161.3650  203.2470  148.0940 C   0  0  2  0  0  3  0  0  0  0  0  0
  161.2450  203.5490  145.7850 C   0  0  0  0  0  2  0  0  0  0  0  0
  160.3960  201.2710  148.5780 C   0  0  1  0  0  3  0  0  0  0  0  0
  160.3600  202.3580  147.6050 N   0  0  2  0  0  0  0  0  0  0  0  0
  160.7830  202.1530  146.2340 C   0  0  0  0  0  2  0  0  0  0  0  0
  2  7  1  0  0  0  0
  4 28  1  0  0  0  0
  4 27  1  0  0  0  0
  5 32  1  1  0  0  0
  5 21  1  0  0  0  0
  6  8  2  0  0  0  0
  7 18  1  0  0  0  0
  7  8  1  0  0  0  0
  8 10  1  0  0  0  0
  9 20  2  0  0  0  0
 11 17  1  0  0  0  0
 12  4  2  0  0  0  0
 13  1  2  0  0  0  0
 14 24  1  0  0  0  0
 15 14  2  0  0  0  0
 15 28  1  0  0  0  0
 16 21  2  0  0  0  0
 16 18  1  0  0  0  0
 17 31  1  6  0  0  0
 17 23  1  0  0  0  0
 18 26  2  0  0  0  0
 19 11  1  0  0  0  0
 19 14  1  0  0  0  0
 20  5  1  0  0  0  0
 21 13  1  0  0  0  0
 22  2  1  0  0  0  0
 23 20  1  0  0  0  0
 23  3  1  0  0  0  0
 24  3  1  0  0  0  0
 24  2  2  0  0  0  0
 25 29  2  0  0  0  0
 25 12  1  0  0  0  0
 26  1  1  0  0  0  0
 26 10  1  0  0  0  0
 28 22  2  0  0  0  0
 29 15  1  0  0  0  0
 30 31  1  0  0  0  0
 33 32  1  0  0  0  0
 34 33  2  0  0  0  0
 35 33  1  0  0  0  0
 36 35  1  0  0  0  0
 38 44  1  0  0  0  0
 39 40  1  0  0  0  0
 39 36  1  1  0  0  0
 41 37  1  6  0  0  0
 41 42  1  0  0  0  0
 42 39  1  0  0  0  0
 43 46  1  0  0  0  0
 43 41  1  0  0  0  0
 44 40  1  0  0  0  0
 45 42  1  0  0  0  0
 45 44  1  0  0  0  0
 46 45  1  0  0  0  0
M  END
>  <MODEL>
1

>  <REMARK>
 VINA RESULT:      -5.3      0.000      0.000
  Name = 
  5 active torsions:
  status: ('A' for Active; 'I' for Inactive)
    1  A    between atoms: C_5  and  C_29
    2  A    between atoms: C_9  and  C_29
    3  A    between atoms: C_15  and  C_20
    4  A    between atoms: C_20  and  N_34
    5  A    between atoms: C_24  and  O_33
                            x       y       z     vdW  Elec       q    Type
                         _______ _______ _______ _____ _____    ______ ____

>  <TORSDO>
F 5

$$$$
=
 OpenBabel11042422013D

 46 53  0  0  1  0  0  0  0  0999 V2000
  161.0310  209.8890  152.9470 C   0  0  0  0  0  3  0  0  0  0  0  0
  161.4280  205.4460  151.3930 C   0  0  0  0  0  0  0  0  0  0  0  0
  160.5830  207.2360  149.7330 C   0  0  0  0  0  2  0  0  0  0  0  0
  161.9500  201.7800  150.9910 C   0  0  0  0  0  0  0  0  0  0  0  0
  162.4990  209.8270  149.4200 C   0  0  2  0  0  3  0  0  0  0  0  0
  160.0220  205.3370  153.9960 O   0  0  0  0  0  0  0  0  0  0  0  0
  161.5330  206.3730  152.5000 N   0  0  0  0  0  0  0  0  0  0  0  0
  160.6190  206.3730  153.5990 C   0  0  0  0  0  0  0  0  0  0  0  0
  163.3630  208.4130  147.7250 O   0  0  0  0  0  0  0  0  0  0  0  0
  160.4010  207.7310  154.1940 C   0  0  0  0  0  2  0  0  0  0  0  0
  159.6290  206.2220  147.3710 C   0  0  0  0  0  2  0  0  0  0  0  0
  161.7700  200.8230  150.0430 N   0  0  0  0  0  0  0  0  0  0  0  0
  161.5580  210.3760  151.7390 C   0  0  0  0  0  3  0  0  0  0  0  0
  160.7100  204.7630  149.1340 C   0  0  0  0  0  0  0  0  0  0  0  0
  161.0720  203.4400  149.4450 C   0  0  0  0  0  0  0  0  0  0  0  0
  162.5970  208.2290  151.3050 C   0  0  0  0  0  3  0  0  0  0  0  0
  160.7720  207.2210  147.2050 C   0  0  1  0  0  3  0  0  0  0  0  0
  161.9520  207.7240  152.4130 C   0  0  0  0  0  0  0  0  0  0  0  0
  160.1230  204.9820  147.8710 O   0  0  0  0  0  0  0  0  0  0  0  0
  162.4080  208.5990  148.5270 C   0  0  0  0  0  0  0  0  0  0  0  0
  162.3000  209.5260  150.8870 C   0  0  0  0  0  0  0  0  0  0  0  0
  161.7520  204.1170  151.6650 C   0  0  0  0  0  3  0  0  0  0  0  0
  161.2730  207.6870  148.5060 N   0  0  0  0  0  0  0  0  0  0  0  0
  160.9360  205.8010  150.0890 C   0  0  0  0  0  0  0  0  0  0  0  0
  161.2580  201.1110  148.8180 C   0  0  0  0  0  3  0  0  0  0  0  0
  161.2280  208.5430  153.2590 C   0  0  0  0  0  0  0  0  0  0  0  0
  162.5140  201.3800  152.3140 C   0  0  0  0  0  1  0  0  0  0  0  0
  161.6030  203.1170  150.7100 C   0  0  0  0  0  0  0  0  0  0  0  0
  160.8990  202.4210  148.5000 C   0  0  0  0  0  3  0  0  0  0  0  0
  161.1630  206.1000  145.3320 C   0  0  0  0  0  1  0  0  0  0  0  0
  161.7970  206.6310  146.4570 O   0  0  0  0  0  0  0  0  0  0  0  0
  161.5720  210.9130  148.8780 C   0  0  0  0  0  2  0  0  0  0  0  0
  162.3250  211.8620  148.0100 C   0  0  0  0  0  0  0  0  0  0  0  0
  163.5550  212.0550  148.2110 O   0  0  0  0  0  0  0  0  0  0  0  0
  161.6430  212.5570  146.9640 N   0  0  0  0  0  2  0  0  0  0  0  0
  162.3150  213.4750  146.0560 C   0  0  0  0  0  2  0  0  0  0  0  0
  162.4400  212.5210  142.6820 C   0  0  0  0  0  1  0  0  0  0  0  0
  158.2690  212.7820  145.4890 C   0  0  0  0  0  1  0  0  0  0  0  0
  161.3000  214.3500  145.3360 C   0  0  2  0  0  3  0  0  0  0  0  0
  160.0170  214.4440  146.1760 C   0  0  0  0  0  2  0  0  0  0  0  0
  161.4290  213.6480  142.7580 C   0  0  2  0  0  3  0  0  0  0  0  0
  160.7670  213.6670  144.1070 C   0  0  2  0  0  3  0  0  0  0  0  0
  160.2270  213.3150  141.8650 C   0  0  0  0  0  2  0  0  0  0  0  0
  158.8600  214.1620  145.2010 C   0  0  1  0  0  3  0  0  0  0  0  0
  159.4840  214.2550  143.8850 N   0  0  2  0  0  0  0  0  0  0  0  0
  158.9900  213.4820  142.7630 C   0  0  0  0  0  2  0  0  0  0  0  0
  1 26  1  0  0  0  0
  2 22  1  0  0  0  0
  2  7  1  0  0  0  0
  3 24  1  0  0  0  0
  4 27  1  0  0  0  0
  5 32  1  6  0  0  0
  5 21  1  0  0  0  0
  7  8  1  0  0  0  0
  8  6  2  0  0  0  0
  8 10  1  0  0  0  0
  9 20  2  0  0  0  0
 11 19  1  0  0  0  0
 12  4  2  0  0  0  0
 13  1  2  0  0  0  0
 14 15  2  0  0  0  0
 14 24  1  0  0  0  0
 15 28  1  0  0  0  0
 16 18  1  0  0  0  0
 17 31  1  1  0  0  0
 17 11  1  0  0  0  0
 17 23  1  0  0  0  0
 18  7  1  0  0  0  0
 18 26  2  0  0  0  0
 19 14  1  0  0  0  0
 20  5  1  0  0  0  0
 21 16  2  0  0  0  0
 21 13  1  0  0  0  0
 23 20  1  0  0  0  0
 23  3  1  0  0  0  0
 24  2  2  0  0  0  0
 25 12  1  0  0  0  0
 26 10  1  0  0  0  0
 28  4  1  0  0  0  0
 28 22  2  0  0  0  0
 29 25  2  0  0  0  0
 29 15  1  0  0  0  0
 30 31  1  0  0  0  0
 33 34  2  0  0  0  0
 33 32  1  0  0  0  0
 35 33  1  0  0  0  0
 36 35  1  0  0  0  0
 39 36  1  1  0  0  0
 39 40  1  0  0  0  0
 41 37  1  1  0  0  0
 41 42  1  0  0  0  0
 42 39  1  0  0  0  0
 43 41  1  0  0  0  0
 43 46  1  0  0  0  0
 44 38  1  0  0  0  0
 44 40  1  0  0  0  0
 45 42  1  0  0  0  0
 45 44  1  0  0  0  0
 46 45  1  0  0  0  0
M  END
>  <MODEL>
2

>  <REMARK>
 VINA RESULT:      -3.3      3.440      8.682
  Name = 
  5 active torsions:
  status: ('A' for Active; 'I' for Inactive)
    1  A    between atoms: C_5  and  C_29
    2  A    between atoms: C_9  and  C_29
    3  A    between atoms: C_15  and  C_20
    4  A    between atoms: C_20  and  N_34
    5  A    between atoms: C_24  and  O_33
                            x       y       z     vdW  Elec       q    Type
                         _______ _______ _______ _____ _____    ______ ____

>  <TORSDO>
F 5

$$$$
=
 OpenBabel11042422013D

 46 53  0  0  1  0  0  0  0  0999 V2000
  161.4670  206.8540  156.3430 C   0  0  0  0  0  3  0  0  0  0  0  0
  159.9310  210.5460  153.8280 C   0  0  0  0  0  0  0  0  0  0  0  0
  161.6700  208.9790  152.7350 C   0  0  0  0  0  2  0  0  0  0  0  0
  158.2970  213.6490  152.5740 C   0  0  0  0  0  0  0  0  0  0  0  0
  160.8620  205.8430  152.7080 C   0  0  2  0  0  3  0  0  0  0  0  0
  160.6210  211.5540  156.5250 O   0  0  0  0  0  0  0  0  0  0  0  0
  159.9110  209.8200  155.0810 N   0  0  0  0  0  0  0  0  0  0  0  0
  160.5110  210.3230  156.2770 C   0  0  0  0  0  0  0  0  0  0  0  0
  159.9570  206.5670  150.6410 O   0  0  0  0  0  0  0  0  0  0  0  0
  161.0430  209.2490  157.1760 C   0  0  0  0  0  2  0  0  0  0  0  0
  162.7090  209.9170  150.3780 C   0  0  0  0  0  2  0  0  0  0  0  0
  158.3420  214.4530  151.4790 N   0  0  0  0  0  0  0  0  0  0  0  0
  161.4100  206.0330  155.2040 C   0  0  0  0  0  3  0  0  0  0  0  0
  160.8440  211.1070  151.6070 C   0  0  0  0  0  0  0  0  0  0  0  0
  159.9970  212.2300  151.5690 C   0  0  0  0  0  0  0  0  0  0  0  0
  159.8240  207.5470  154.1700 C   0  0  0  0  0  3  0  0  0  0  0  0
  162.0380  208.5500  150.2640 C   0  0  1  0  0  3  0  0  0  0  0  0
  160.0040  208.4140  155.2260 C   0  0  0  0  0  0  0  0  0  0  0  0
  161.7290  210.9400  150.5210 O   0  0  0  0  0  0  0  0  0  0  0  0
  160.7210  206.8710  151.5950 C   0  0  0  0  0  0  0  0  0  0  0  0
  160.6250  206.4090  154.0890 C   0  0  0  0  0  0  0  0  0  0  0  0
  159.1250  211.6820  153.7570 C   0  0  0  0  0  3  0  0  0  0  0  0
  161.4550  208.1270  151.5470 N   0  0  0  0  0  0  0  0  0  0  0  0
  160.7830  210.2130  152.7180 C   0  0  0  0  0  0  0  0  0  0  0  0
  159.1730  214.2010  150.4340 C   0  0  0  0  0  3  0  0  0  0  0  0
  160.7620  208.0590  156.3250 C   0  0  0  0  0  0  0  0  0  0  0  0
  157.3600  213.9990  153.6820 C   0  0  0  0  0  1  0  0  0  0  0  0
  159.1290  212.5130  152.6420 C   0  0  0  0  0  0  0  0  0  0  0  0
  160.0140  213.0890  150.4620 C   0  0  0  0  0  3  0  0  0  0  0  0
  161.7720  208.7060  148.0680 C   0  0  0  0  0  1  0  0  0  0  0  0
  161.0600  208.5970  149.2630 O   0  0  0  0  0  0  0  0  0  0  0  0
  162.1960  205.1150  152.5560 C   0  0  0  0  0  2  0  0  0  0  0  0
  162.0650  203.9710  151.6100 C   0  0  0  0  0  0  0  0  0  0  0  0
  162.4150  202.8150  151.9720 O   0  0  0  0  0  0  0  0  0  0  0  0
  161.5570  204.1980  150.2940 N   0  0  0  0  0  2  0  0  0  0  0  0
  161.3710  203.1280  149.3240 C   0  0  0  0  0  2  0  0  0  0  0  0
  159.8850  201.0470  146.9200 C   0  0  0  0  0  1  0  0  0  0  0  0
  160.2240  206.0630  146.6330 C   0  0  0  0  0  1  0  0  0  0  0  0
  162.0170  203.4940  147.9960 C   0  0  2  0  0  3  0  0  0  0  0  0
  162.1310  205.0220  147.8870 C   0  0  0  0  0  2  0  0  0  0  0  0
  160.9110  201.8780  146.1740 C   0  0  2  0  0  3  0  0  0  0  0  0
  161.0930  203.2110  146.8440 C   0  0  2  0  0  3  0  0  0  0  0  0
  160.3250  202.3230  144.8290 C   0  0  0  0  0  2  0  0  0  0  0  0
  161.5850  205.3820  146.4930 C   0  0  1  0  0  3  0  0  0  0  0  0
  161.5160  204.0960  145.8050 N   0  0  2  0  0  0  0  0  0  0  0  0
  160.5240  203.8470  144.7780 C   0  0  0  0  0  2  0  0  0  0  0  0
  2  7  1  0  0  0  0
  4 28  1  0  0  0  0
  4 27  1  0  0  0  0
  5 32  1  1  0  0  0
  5 21  1  0  0  0  0
  7 18  1  0  0  0  0
  7  8  1  0  0  0  0
  8  6  2  0  0  0  0
  8 10  1  0  0  0  0
  9 20  2  0  0  0  0
 11 19  1  0  0  0  0
 12  4  2  0  0  0  0
 13  1  2  0  0  0  0
 14 24  1  0  0  0  0
 15 14  2  0  0  0  0
 15 28  1  0  0  0  0
 16 18  1  0  0  0  0
 17 31  1  6  0  0  0
 17 11  1  0  0  0  0
 17 23  1  0  0  0  0
 18 26  2  0  0  0  0
 19 14  1  0  0  0  0
 20  5  1  0  0  0  0
 21 16  2  0  0  0  0
 21 13  1  0  0  0  0
 22  2  1  0  0  0  0
 23 20  1  0  0  0  0
 23  3  1  0  0  0  0
 24  3  1  0  0  0  0
 24  2  2  0  0  0  0
 25 29  2  0  0  0  0
 25 12  1  0  0  0  0
 26  1  1  0  0  0  0
 26 10  1  0  0  0  0
 28 22  2  0  0  0  0
 29 15  1  0  0  0  0
 30 31  1  0  0  0  0
 33 34  2  0  0  0  0
 33 32  1  0  0  0  0
 35 33  1  0  0  0  0
 36 35  1  0  0  0  0
 39 36  1  1  0  0  0
 40 39  1  0  0  0  0
 41 42  1  0  0  0  0
 41 37  1  1  0  0  0
 42 39  1  0  0  0  0
 43 41  1  0  0  0  0
 44 38  1  0  0  0  0
 44 40  1  0  0  0  0
 45 44  1  0  0  0  0
 45 42  1  0  0  0  0
 46 43  1  0  0  0  0
 46 45  1  0  0  0  0
M  END
>  <MODEL>
3

>  <REMARK>
 VINA RESULT:      -3.2      1.189      1.999
  Name = 
  5 active torsions:
  status: ('A' for Active; 'I' for Inactive)
    1  A    between atoms: C_5  and  C_29
    2  A    between atoms: C_9  and  C_29
    3  A    between atoms: C_15  and  C_20
    4  A    between atoms: C_20  and  N_34
    5  A    between atoms: C_24  and  O_33
                            x       y       z     vdW  Elec       q    Type
                         _______ _______ _______ _____ _____    ______ ____

>  <TORSDO>
F 5

$$$$
=
 OpenBabel11042422013D

 46 53  0  0  1  0  0  0  0  0999 V2000
  156.1300  214.1490  149.2580 C   0  0  0  0  0  3  0  0  0  0  0  0
  158.6420  213.2040  153.1460 C   0  0  0  0  0  0  0  0  0  0  0  0
  159.0880  211.7730  151.0420 C   0  0  0  0  0  2  0  0  0  0  0  0
  160.1150  213.0640  156.5640 C   0  0  0  0  0  0  0  0  0  0  0  0
  159.7790  213.4560  148.3630 C   0  0  2  0  0  3  0  0  0  0  0  0
  155.8080  213.4320  153.9720 O   0  0  0  0  0  0  0  0  0  0  0  0
  157.5930  213.9820  152.5210 N   0  0  0  0  0  0  0  0  0  0  0  0
  156.2100  213.8160  152.8410 C   0  0  0  0  0  0  0  0  0  0  0  0
  161.9460  213.1190  149.2630 O   0  0  0  0  0  0  0  0  0  0  0  0
  155.2930  214.0890  151.6890 C   0  0  0  0  0  2  0  0  0  0  0  0
  160.6980  209.5970  151.4780 C   0  0  0  0  0  2  0  0  0  0  0  0
  161.0030  212.3060  157.2610 N   0  0  0  0  0  0  0  0  0  0  0  0
  157.2730  213.9810  148.4590 C   0  0  0  0  0  3  0  0  0  0  0  0
  160.2210  211.3130  153.2760 C   0  0  0  0  0  0  0  0  0  0  0  0
  160.4820  211.6550  154.6160 C   0  0  0  0  0  0  0  0  0  0  0  0
  158.6980  214.4030  150.3750 C   0  0  0  0  0  3  0  0  0  0  0  0
  161.2230  210.5580  150.4140 C   0  0  1  0  0  3  0  0  0  0  0  0
  157.5740  214.4170  151.1730 C   0  0  0  0  0  0  0  0  0  0  0  0
  160.8600  210.1600  152.7770 O   0  0  0  0  0  0  0  0  0  0  0  0
  160.7350  212.7760  149.3320 C   0  0  0  0  0  0  0  0  0  0  0  0
  158.5650  214.0560  149.0310 C   0  0  0  0  0  0  0  0  0  0  0  0
  158.9150  213.4930  154.4830 C   0  0  0  0  0  3  0  0  0  0  0  0
  160.3440  211.7280  150.2640 N   0  0  0  0  0  0  0  0  0  0  0  0
  159.3350  212.1210  152.5010 C   0  0  0  0  0  0  0  0  0  0  0  0
  161.6360  211.2420  156.7010 C   0  0  0  0  0  3  0  0  0  0  0  0
  156.3060  214.3510  150.6290 C   0  0  0  0  0  0  0  0  0  0  0  0
  159.4580  214.2130  157.2540 C   0  0  0  0  0  1  0  0  0  0  0  0
  159.8350  212.7530  155.2180 C   0  0  0  0  0  0  0  0  0  0  0  0
  161.3860  210.8990  155.3730 C   0  0  0  0  0  3  0  0  0  0  0  0
  163.0820  209.8450  151.3900 C   0  0  0  0  0  1  0  0  0  0  0  0
  162.5250  210.9510  150.7460 O   0  0  0  0  0  0  0  0  0  0  0  0
  159.4490  212.4940  147.2230 C   0  0  0  0  0  2  0  0  0  0  0  0
  159.8880  213.0590  145.9150 C   0  0  0  0  0  0  0  0  0  0  0  0
  160.9730  213.6970  145.8400 O   0  0  0  0  0  0  0  0  0  0  0  0
  159.0660  212.8850  144.7590 N   0  0  0  0  0  2  0  0  0  0  0  0
  159.4400  213.3800  143.4430 C   0  0  0  0  0  2  0  0  0  0  0  0
  157.6810  213.5550  140.4120 C   0  0  0  0  0  1  0  0  0  0  0  0
  162.6920  213.4250  140.8750 C   0  0  0  0  0  1  0  0  0  0  0  0
  159.9770  212.2470  142.5800 C   0  0  2  0  0  3  0  0  0  0  0  0
  161.5070  212.1890  142.7070 C   0  0  0  0  0  2  0  0  0  0  0  0
  158.6040  212.3590  140.2880 C   0  0  2  0  0  3  0  0  0  0  0  0
  159.8400  212.5640  141.1170 C   0  0  2  0  0  3  0  0  0  0  0  0
  159.2160  212.3320  138.8810 C   0  0  0  0  0  2  0  0  0  0  0  0
  162.0400  212.0990  141.2650 C   0  0  1  0  0  3  0  0  0  0  0  0
  160.8540  211.7880  140.4750 N   0  0  2  0  0  0  0  0  0  0  0  0
  160.7350  212.2220  139.0970 C   0  0  0  0  0  2  0  0  0  0  0  0
  1 26  1  0  0  0  0
  2 22  1  0  0  0  0
  3 24  1  0  0  0  0
  4 27  1  0  0  0  0
  4 12  2  0  0  0  0
  5 32  1  6  0  0  0
  5 21  1  0  0  0  0
  5 20  1  0  0  0  0
  7  8  1  0  0  0  0
  7  2  1  0  0  0  0
  8  6  2  0  0  0  0
  9 20  2  0  0  0  0
 10  8  1  0  0  0  0
 11 19  1  0  0  0  0
 13 21  1  0  0  0  0
 13  1  2  0  0  0  0
 14 15  2  0  0  0  0
 15 28  1  0  0  0  0
 15 29  1  0  0  0  0
 16 18  1  0  0  0  0
 17 31  1  1  0  0  0
 17 11  1  0  0  0  0
 18  7  1  0  0  0  0
 19 14  1  0  0  0  0
 20 23  1  0  0  0  0
 21 16  2  0  0  0  0
 22 28  2  0  0  0  0
 23 17  1  0  0  0  0
 23  3  1  0  0  0  0
 24  2  2  0  0  0  0
 24 14  1  0  0  0  0
 25 12  1  0  0  0  0
 26 18  2  0  0  0  0
 26 10  1  0  0  0  0
 28  4  1  0  0  0  0
 29 25  2  0  0  0  0
 31 30  1  0  0  0  0
 33 32  1  0  0  0  0
 34 33  2  0  0  0  0
 35 33  1  0  0  0  0
 36 35  1  0  0  0  0
 38 44  1  0  0  0  0
 39 40  1  0  0  0  0
 39 36  1  1  0  0  0
 41 37  1  6  0  0  0
 41 42  1  0  0  0  0
 42 39  1  0  0  0  0
 43 46  1  0  0  0  0
 43 41  1  0  0  0  0
 44 40  1  0  0  0  0
 45 42  1  0  0  0  0
 45 44  1  0  0  0  0
 46 45  1  0  0  0  0
M  END
>  <MODEL>
4

>  <REMARK>
 VINA RESULT:      -2.3      4.777      8.365
  Name = 
  5 active torsions:
  status: ('A' for Active; 'I' for Inactive)
    1  A    between atoms: C_5  and  C_29
    2  A    between atoms: C_9  and  C_29
    3  A    between atoms: C_15  and  C_20
    4  A    between atoms: C_20  and  N_34
    5  A    between atoms: C_24  and  O_33
                            x       y       z     vdW  Elec       q    Type
                         _______ _______ _______ _____ _____    ______ ____

>  <TORSDO>
F 5

$$$$
