=
 OpenBabel11042423083D

 37 40  0  0  1  0  0  0  0  0999 V2000
  161.0310  203.3850  148.5650 O   0  0  0  0  0  0  0  0  0  0  0  0
  161.1860  204.1950  150.8720 C   0  0  0  0  0  0  0  0  0  0  0  0
  161.7570  207.7270  148.0400 C   0  0  0  0  0  3  0  0  0  0  0  0
  161.7670  207.6740  150.4840 C   0  0  0  0  0  0  0  0  0  0  0  0
  161.8790  208.4040  149.2800 C   0  0  0  0  0  0  0  0  0  0  0  0
  161.5300  206.3810  147.9940 N   0  0  0  0  0  0  0  0  0  0  0  0
  161.4240  205.7010  149.1590 C   0  0  0  0  0  0  0  0  0  0  0  0
  161.1920  204.3030  149.4110 C   0  0  0  0  0  0  0  0  0  0  0  0
  160.9840  202.9370  151.6370 C   0  0  0  0  0  1  0  0  0  0  0  0
  161.3830  205.3480  151.4440 N   0  0  0  0  0  0  0  0  0  0  0  0
  161.5330  206.2980  150.3830 C   0  0  0  0  0  0  0  0  0  0  0  0
  161.9010  208.3650  151.8090 C   0  0  1  0  0  3  0  0  0  0  0  0
  162.4140  209.7220  151.6250 N   0  0  0  0  0  2  0  0  0  0  0  0
  162.7060  210.2980  152.9390 C   0  0  0  0  0  2  0  0  0  0  0  0
  160.5600  208.3960  152.5410 C   0  0  0  0  0  2  0  0  0  0  0  0
  161.4360  210.4100  153.7890 C   0  0  2  0  0  3  0  0  0  0  0  0
  160.7330  209.0560  153.9050 C   0  0  0  0  0  2  0  0  0  0  0  0
  160.2970  211.6390  152.0710 O   0  0  0  0  0  0  0  0  0  0  0  0
  160.5080  211.4900  153.3040 C   0  0  0  0  0  0  0  0  0  0  0  0
  159.8360  212.3430  154.2310 N   0  0  0  0  0  2  0  0  0  0  0  0
  160.0160  212.2280  155.6720 C   0  0  0  0  0  2  0  0  0  0  0  0
  157.9470  211.0120  155.2620 N   0  0  0  0  0  2  0  0  0  0  0  0
  156.6400  211.5900  155.5500 C   0  0  1  0  0  3  0  0  0  0  0  0
  158.0890  212.3600  157.2590 C   0  0  0  0  0  2  0  0  0  0  0  0
  158.8610  211.4640  156.3070 C   0  0  2  0  0  0  0  0  0  0  0  0
  155.5580  210.5490  155.3480 C   0  0  0  0  0  1  0  0  0  0  0  0
  156.6440  212.0570  156.9840 C   0  0  0  0  0  2  0  0  0  0  0  0
  159.3480  210.3540  157.0010 O   0  0  0  0  0  1  0  0  0  0  0  0
  162.1120  209.7840  149.3230 O   0  0  0  0  0  0  0  0  0  0  0  0
  161.7330  210.6210  148.2940 N   0  0  0  0  0  2  0  0  0  0  0  0
  162.4650  211.8700  148.4550 C   0  0  0  0  0  2  0  0  0  0  0  0
  161.6500  213.0440  147.9290 C   0  0  2  0  0  3  0  0  0  0  0  0
  161.3750  213.9300  148.9540 F   0  0  0  0  0  0  0  0  0  0  0  0
  160.3480  212.5740  147.2920 C   0  0  0  0  0  2  0  0  0  0  0  0
  161.4810  213.5260  145.4930 C   0  0  0  0  0  1  0  0  0  0  0  0
  159.6060  212.2040  145.1060 C   0  0  0  0  0  1  0  0  0  0  0  0
  160.1580  213.2100  145.9980 N   0  0  0  0  0  0  0  0  0  0  0  0
  1  8  2  0  0  0  0
  2 10  2  0  0  0  0
  2  9  1  0  0  0  0
  3  5  1  0  0  0  0
  5 29  1  0  0  0  0
  5  4  2  0  0  0  0
  6  3  2  0  0  0  0
  6  7  1  0  0  0  0
  7  8  1  0  0  0  0
  7 11  2  0  0  0  0
  8  2  1  0  0  0  0
 11  4  1  0  0  0  0
 11 10  1  0  0  0  0
 12  4  1  6  0  0  0
 12 15  1  0  0  0  0
 13 12  1  0  0  0  0
 13 14  1  0  0  0  0
 14 16  1  0  0  0  0
 15 17  1  0  0  0  0
 16 19  1  6  0  0  0
 16 17  1  0  0  0  0
 18 19  2  0  0  0  0
 19 20  1  0  0  0  0
 20 21  1  0  0  0  0
 21 25  1  0  0  0  0
 22 23  1  0  0  0  0
 22 25  1  0  0  0  0
 23 26  1  1  0  0  0
 23 27  1  0  0  0  0
 25 28  1  1  0  0  0
 25 24  1  0  0  0  0
 27 24  1  0  0  0  0
 30 31  1  0  0  0  0
 30 29  1  0  0  0  0
 32 31  1  0  0  0  0
 32 33  1  1  0  0  0
 34 32  1  0  0  0  0
 35 37  1  0  0  0  0
 36 37  1  0  0  0  0
 37 34  1  0  0  0  0
M  END
>  <MODEL>
1

>  <REMARK>
 VINA RESULT:      -7.4      0.000      0.000
  Name = 
  10 active torsions:
  status: ('A' for Active; 'I' for Inactive)
    1  A    between atoms: C_2  and  C_3
    2  A    between atoms: C_2  and  C_15
    3  A    between atoms: C_3  and  N_30
    4  A    between atoms: C_6  and  C_16
    5  A    between atoms: O_9  and  C_17
    6  A    between atoms: O_9  and  N_30
    7  A    between atoms: C_14  and  C_24
    8  A    between atoms: C_15  and  N_31
    9  A    between atoms: N_19  and  C_25
   10  A    between atoms: C_21  and  C_25
                            x       y       z     vdW  Elec       q    Type
                         _______ _______ _______ _____ _____    ______ ____

>  <TORSDO>
F 10

$$$$
=
 OpenBabel11042423083D

 37 40  0  0  1  0  0  0  0  0999 V2000
  161.5190  204.8150  149.9080 O   0  0  0  0  0  0  0  0  0  0  0  0
  161.2360  206.0470  152.0060 C   0  0  0  0  0  0  0  0  0  0  0  0
  162.0400  209.0360  148.6540 C   0  0  0  0  0  3  0  0  0  0  0  0
  161.6480  209.4350  151.0340 C   0  0  0  0  0  0  0  0  0  0  0  0
  161.9110  209.9380  149.7410 C   0  0  0  0  0  0  0  0  0  0  0  0
  161.9110  207.6900  148.8400 N   0  0  0  0  0  0  0  0  0  0  0  0
  161.6570  207.2280  150.0870 C   0  0  0  0  0  0  0  0  0  0  0  0
  161.4780  205.8840  150.5710 C   0  0  0  0  0  0  0  0  0  0  0  0
  160.9910  204.9370  152.9650 C   0  0  0  0  0  1  0  0  0  0  0  0
  161.2610  207.2980  152.3630 N   0  0  0  0  0  0  0  0  0  0  0  0
  161.5230  208.0480  151.1720 C   0  0  0  0  0  0  0  0  0  0  0  0
  161.5150  210.3660  152.2020 C   0  0  1  0  0  3  0  0  0  0  0  0
  160.1150  210.7430  152.3950 N   0  0  0  0  0  2  0  0  0  0  0  0
  160.0430  211.7880  153.4170 C   0  0  0  0  0  2  0  0  0  0  0  0
  162.0750  209.7260  153.4710 C   0  0  0  0  0  2  0  0  0  0  0  0
  160.5610  211.2780  154.7670 C   0  0  2  0  0  3  0  0  0  0  0  0
  161.9760  210.7100  154.6330 C   0  0  0  0  0  2  0  0  0  0  0  0
  159.8940  209.0750  155.4410 O   0  0  0  0  0  0  0  0  0  0  0  0
  159.6190  210.3040  155.4190 C   0  0  0  0  0  0  0  0  0  0  0  0
  158.4170  210.7580  156.0390 N   0  0  0  0  0  2  0  0  0  0  0  0
  158.0320  212.1630  156.0670 C   0  0  0  0  0  2  0  0  0  0  0  0
  156.5060  212.6970  154.2480 N   0  0  0  0  0  2  0  0  0  0  0  0
  155.8280  213.9840  154.1600 C   0  0  1  0  0  3  0  0  0  0  0  0
  155.9280  213.4530  156.4660 C   0  0  0  0  0  2  0  0  0  0  0  0
  156.5740  212.3390  155.6620 C   0  0  2  0  0  0  0  0  0  0  0  0
  154.8280  213.9660  153.0220 C   0  0  0  0  0  1  0  0  0  0  0  0
  155.1160  214.2260  155.4670 C   0  0  0  0  0  2  0  0  0  0  0  0
  155.8760  211.1470  155.8670 O   0  0  0  0  0  1  0  0  0  0  0  0
  162.0440  211.3180  149.5470 O   0  0  0  0  0  0  0  0  0  0  0  0
  162.5150  211.8460  148.3620 N   0  0  0  0  0  2  0  0  0  0  0  0
  161.9940  213.2030  148.2520 C   0  0  0  0  0  2  0  0  0  0  0  0
  160.9640  213.2940  147.1330 C   0  0  2  0  0  3  0  0  0  0  0  0
  160.5160  212.0310  146.7940 F   0  0  0  0  0  0  0  0  0  0  0  0
  161.5420  213.9830  145.9030 C   0  0  0  0  0  2  0  0  0  0  0  0
  160.8770  213.2770  143.7850 C   0  0  0  0  0  1  0  0  0  0  0  0
  163.1370  213.3100  144.3340 C   0  0  0  0  0  1  0  0  0  0  0  0
  161.8150  213.0090  144.8580 N   0  0  0  0  0  0  0  0  0  0  0  0
  1  8  2  0  0  0  0
  2 10  2  0  0  0  0
  2  9  1  0  0  0  0
  3  6  2  0  0  0  0
  3  5  1  0  0  0  0
  4 11  1  0  0  0  0
  5  4  2  0  0  0  0
  6  7  1  0  0  0  0
  7  8  1  0  0  0  0
  7 11  2  0  0  0  0
  8  2  1  0  0  0  0
 11 10  1  0  0  0  0
 12  4  1  6  0  0  0
 12 13  1  0  0  0  0
 12 15  1  0  0  0  0
 13 14  1  0  0  0  0
 14 16  1  0  0  0  0
 15 17  1  0  0  0  0
 16 19  1  6  0  0  0
 17 16  1  0  0  0  0
 19 18  2  0  0  0  0
 19 20  1  0  0  0  0
 20 21  1  0  0  0  0
 22 25  1  0  0  0  0
 23 26  1  6  0  0  0
 23 22  1  0  0  0  0
 23 27  1  0  0  0  0
 25 28  1  1  0  0  0
 25 21  1  0  0  0  0
 25 24  1  0  0  0  0
 27 24  1  0  0  0  0
 29  5  1  0  0  0  0
 30 29  1  0  0  0  0
 31 30  1  0  0  0  0
 32 33  1  6  0  0  0
 32 31  1  0  0  0  0
 34 32  1  0  0  0  0
 35 37  1  0  0  0  0
 36 37  1  0  0  0  0
 37 34  1  0  0  0  0
M  END
>  <MODEL>
2

>  <REMARK>
 VINA RESULT:      -6.9      1.874      2.451
  Name = 
  10 active torsions:
  status: ('A' for Active; 'I' for Inactive)
    1  A    between atoms: C_2  and  C_3
    2  A    between atoms: C_2  and  C_15
    3  A    between atoms: C_3  and  N_30
    4  A    between atoms: C_6  and  C_16
    5  A    between atoms: O_9  and  C_17
    6  A    between atoms: O_9  and  N_30
    7  A    between atoms: C_14  and  C_24
    8  A    between atoms: C_15  and  N_31
    9  A    between atoms: N_19  and  C_25
   10  A    between atoms: C_21  and  C_25
                            x       y       z     vdW  Elec       q    Type
                         _______ _______ _______ _____ _____    ______ ____

>  <TORSDO>
F 10

$$$$
=
 OpenBabel11042423083D

 37 40  0  0  1  0  0  0  0  0999 V2000
  160.4110  208.6420  155.2760 O   0  0  0  0  0  0  0  0  0  0  0  0
  160.7440  210.8250  154.2160 C   0  0  0  0  0  0  0  0  0  0  0  0
  161.5300  207.5640  151.1230 C   0  0  0  0  0  3  0  0  0  0  0  0
  161.6410  209.9940  150.8850 C   0  0  0  0  0  0  0  0  0  0  0  0
  161.7700  208.7060  150.3190 C   0  0  0  0  0  0  0  0  0  0  0  0
  161.1720  207.6900  152.4350 N   0  0  0  0  0  0  0  0  0  0  0  0
  161.0510  208.9340  152.9570 C   0  0  0  0  0  0  0  0  0  0  0  0
  160.6970  209.3630  154.2840 C   0  0  0  0  0  0  0  0  0  0  0  0
  160.4540  211.7460  155.3470 C   0  0  0  0  0  1  0  0  0  0  0  0
  161.0760  211.2440  153.0290 N   0  0  0  0  0  0  0  0  0  0  0  0
  161.2710  210.0710  152.2320 C   0  0  0  0  0  0  0  0  0  0  0  0
  161.8980  211.2190  150.0580 C   0  0  1  0  0  3  0  0  0  0  0  0
  162.1530  210.8490  148.6660 N   0  0  0  0  0  2  0  0  0  0  0  0
  162.5800  212.0400  147.9310 C   0  0  0  0  0  2  0  0  0  0  0  0
  160.7200  212.1880  150.1450 C   0  0  0  0  0  2  0  0  0  0  0  0
  161.4780  213.1060  147.9170 C   0  0  2  0  0  3  0  0  0  0  0  0
  161.0260  213.4460  149.3390 C   0  0  0  0  0  2  0  0  0  0  0  0
  159.2210  212.3860  147.5340 O   0  0  0  0  0  0  0  0  0  0  0  0
  160.3220  212.7320  147.0300 C   0  0  0  0  0  0  0  0  0  0  0  0
  160.4480  212.7880  145.6090 N   0  0  0  0  0  2  0  0  0  0  0  0
  161.6820  213.1910  144.9470 C   0  0  0  0  0  2  0  0  0  0  0  0
  161.0240  212.2610  142.7950 N   0  0  0  0  0  2  0  0  0  0  0  0
  161.9920  212.0040  141.7360 C   0  0  1  0  0  3  0  0  0  0  0  0
  162.7120  213.9870  142.8130 C   0  0  0  0  0  2  0  0  0  0  0  0
  161.4400  213.4870  143.4720 C   0  0  2  0  0  0  0  0  0  0  0  0
  161.2750  211.5830  140.4700 C   0  0  0  0  0  1  0  0  0  0  0  0
  162.7650  213.2750  141.4920 C   0  0  0  0  0  2  0  0  0  0  0  0
  160.4340  214.4470  143.3380 O   0  0  0  0  0  1  0  0  0  0  0  0
  162.1380  208.5720  148.9740 O   0  0  0  0  0  0  0  0  0  0  0  0
  162.6190  207.3840  148.4650 N   0  0  0  0  0  2  0  0  0  0  0  0
  161.7410  206.9930  147.3690 C   0  0  0  0  0  2  0  0  0  0  0  0
  160.8160  205.8610  147.7990 C   0  0  2  0  0  3  0  0  0  0  0  0
  159.7730  206.3610  148.5570 F   0  0  0  0  0  0  0  0  0  0  0  0
  161.5680  204.8010  148.5940 C   0  0  0  0  0  2  0  0  0  0  0  0
  160.7430  202.6320  148.7990 C   0  0  0  0  0  1  0  0  0  0  0  0
  161.1290  203.9050  150.7080 C   0  0  0  0  0  1  0  0  0  0  0  0
  160.6360  203.9730  149.3430 N   0  0  0  0  0  0  0  0  0  0  0  0
  2  8  1  0  0  0  0
  2  9  1  0  0  0  0
  3  6  1  0  0  0  0
  4 11  2  0  0  0  0
  5  4  1  0  0  0  0
  5  3  2  0  0  0  0
  6  7  2  0  0  0  0
  7  8  1  0  0  0  0
  8  1  2  0  0  0  0
 10  2  2  0  0  0  0
 11  7  1  0  0  0  0
 11 10  1  0  0  0  0
 12 15  1  0  0  0  0
 12  4  1  1  0  0  0
 13 12  1  0  0  0  0
 14 13  1  0  0  0  0
 16 19  1  6  0  0  0
 16 14  1  0  0  0  0
 16 17  1  0  0  0  0
 17 15  1  0  0  0  0
 19 18  2  0  0  0  0
 20 19  1  0  0  0  0
 21 20  1  0  0  0  0
 22 25  1  0  0  0  0
 23 26  1  6  0  0  0
 23 22  1  0  0  0  0
 24 25  1  0  0  0  0
 25 28  1  6  0  0  0
 25 21  1  0  0  0  0
 27 23  1  0  0  0  0
 27 24  1  0  0  0  0
 29  5  1  0  0  0  0
 30 29  1  0  0  0  0
 31 32  1  0  0  0  0
 31 30  1  0  0  0  0
 32 33  1  1  0  0  0
 32 34  1  0  0  0  0
 34 37  1  0  0  0  0
 35 37  1  0  0  0  0
 37 36  1  0  0  0  0
M  END
>  <MODEL>
3

>  <REMARK>
 VINA RESULT:      -6.6      2.763      8.811
  Name = 
  10 active torsions:
  status: ('A' for Active; 'I' for Inactive)
    1  A    between atoms: C_2  and  C_3
    2  A    between atoms: C_2  and  C_15
    3  A    between atoms: C_3  and  N_30
    4  A    between atoms: C_6  and  C_16
    5  A    between atoms: O_9  and  C_17
    6  A    between atoms: O_9  and  N_30
    7  A    between atoms: C_14  and  C_24
    8  A    between atoms: C_15  and  N_31
    9  A    between atoms: N_19  and  C_25
   10  A    between atoms: C_21  and  C_25
                            x       y       z     vdW  Elec       q    Type
                         _______ _______ _______ _____ _____    ______ ____

>  <TORSDO>
F 10

$$$$
=
 OpenBabel11042423083D

 37 40  0  0  1  0  0  0  0  0999 V2000
  161.2390  202.5160  146.2320 O   0  0  0  0  0  0  0  0  0  0  0  0
  160.8470  202.6820  148.6440 C   0  0  0  0  0  0  0  0  0  0  0  0
  162.1870  206.7600  147.0970 C   0  0  0  0  0  3  0  0  0  0  0  0
  161.5980  206.0740  149.3680 C   0  0  0  0  0  0  0  0  0  0  0  0
  162.0210  207.0770  148.4690 C   0  0  0  0  0  0  0  0  0  0  0  0
  161.9430  205.4990  146.6330 N   0  0  0  0  0  0  0  0  0  0  0  0
  161.5370  204.5530  147.5110 C   0  0  0  0  0  0  0  0  0  0  0  0
  161.2130  203.1650  147.3100 C   0  0  0  0  0  0  0  0  0  0  0  0
  160.4300  201.2920  148.9680 C   0  0  0  0  0  1  0  0  0  0  0  0
  160.9290  203.6230  149.5400 N   0  0  0  0  0  0  0  0  0  0  0  0
  161.3590  204.7980  148.8440 C   0  0  0  0  0  0  0  0  0  0  0  0
  161.4230  206.3810  150.8260 C   0  0  1  0  0  3  0  0  0  0  0  0
  162.7070  206.7350  151.4290 N   0  0  0  0  0  2  0  0  0  0  0  0
  162.5340  206.8470  152.8780 C   0  0  0  0  0  2  0  0  0  0  0  0
  160.4120  207.5090  151.0240 C   0  0  0  0  0  2  0  0  0  0  0  0
  161.5480  207.9660  153.2330 C   0  0  2  0  0  3  0  0  0  0  0  0
  160.2130  207.7680  152.5140 C   0  0  0  0  0  2  0  0  0  0  0  0
  162.7080  209.6030  151.9160 O   0  0  0  0  0  0  0  0  0  0  0  0
  162.1200  209.3370  152.9980 C   0  0  0  0  0  0  0  0  0  0  0  0
  161.9850  210.3610  153.9840 N   0  0  0  0  0  2  0  0  0  0  0  0
  161.3090  210.1390  155.2560 C   0  0  0  0  0  2  0  0  0  0  0  0
  159.0020  210.6140  155.8670 N   0  0  0  0  0  2  0  0  0  0  0  0
  158.0240  211.0820  154.8920 C   0  0  1  0  0  3  0  0  0  0  0  0
  160.0810  212.0910  154.2920 C   0  0  0  0  0  2  0  0  0  0  0  0
  160.2810  211.2300  155.5260 C   0  0  2  0  0  0  0  0  0  0  0  0
  156.7300  211.4450  155.5900 C   0  0  0  0  0  1  0  0  0  0  0  0
  158.5960  212.2940  154.2030 C   0  0  0  0  0  2  0  0  0  0  0  0
  160.7030  212.0290  156.5920 O   0  0  0  0  0  1  0  0  0  0  0  0
  162.2730  208.3710  148.9410 O   0  0  0  0  0  0  0  0  0  0  0  0
  161.8520  209.4930  148.2570 N   0  0  0  0  0  2  0  0  0  0  0  0
  162.2670  210.6570  149.0300 C   0  0  0  0  0  2  0  0  0  0  0  0
  162.2670  211.9070  148.1600 C   0  0  2  0  0  3  0  0  0  0  0  0
  163.5470  212.4200  148.0650 F   0  0  0  0  0  0  0  0  0  0  0  0
  161.3270  212.9700  148.7150 C   0  0  0  0  0  2  0  0  0  0  0  0
  160.8060  212.7750  146.4530 C   0  0  0  0  0  1  0  0  0  0  0  0
  159.1420  213.3470  147.9750 C   0  0  0  0  0  1  0  0  0  0  0  0
  160.5410  213.5610  147.6430 N   0  0  0  0  0  0  0  0  0  0  0  0
  1  8  2  0  0  0  0
  2  9  1  0  0  0  0
  2 10  2  0  0  0  0
  3  5  1  0  0  0  0
  5 29  1  0  0  0  0
  5  4  2  0  0  0  0
  6  3  2  0  0  0  0
  6  7  1  0  0  0  0
  7 11  2  0  0  0  0
  8  7  1  0  0  0  0
  8  2  1  0  0  0  0
 11  4  1  0  0  0  0
 11 10  1  0  0  0  0
 12  4  1  6  0  0  0
 12 15  1  0  0  0  0
 12 13  1  0  0  0  0
 13 14  1  0  0  0  0
 14 16  1  0  0  0  0
 15 17  1  0  0  0  0
 16 19  1  6  0  0  0
 17 16  1  0  0  0  0
 18 19  2  0  0  0  0
 19 20  1  0  0  0  0
 20 21  1  0  0  0  0
 21 25  1  0  0  0  0
 23 26  1  1  0  0  0
 23 22  1  0  0  0  0
 24 25  1  0  0  0  0
 25 22  1  0  0  0  0
 25 28  1  1  0  0  0
 27 24  1  0  0  0  0
 27 23  1  0  0  0  0
 30 29  1  0  0  0  0
 30 31  1  0  0  0  0
 32 33  1  1  0  0  0
 32 34  1  0  0  0  0
 32 31  1  0  0  0  0
 35 37  1  0  0  0  0
 37 36  1  0  0  0  0
 37 34  1  0  0  0  0
M  END
>  <MODEL>
4

>  <REMARK>
 VINA RESULT:      -6.4      1.701      2.317
  Name = 
  10 active torsions:
  status: ('A' for Active; 'I' for Inactive)
    1  A    between atoms: C_2  and  C_3
    2  A    between atoms: C_2  and  C_15
    3  A    between atoms: C_3  and  N_30
    4  A    between atoms: C_6  and  C_16
    5  A    between atoms: O_9  and  C_17
    6  A    between atoms: O_9  and  N_30
    7  A    between atoms: C_14  and  C_24
    8  A    between atoms: C_15  and  N_31
    9  A    between atoms: N_19  and  C_25
   10  A    between atoms: C_21  and  C_25
                            x       y       z     vdW  Elec       q    Type
                         _______ _______ _______ _____ _____    ______ ____

>  <TORSDO>
F 10

$$$$
=
 OpenBabel11042423083D

 37 40  0  0  1  0  0  0  0  0999 V2000
  160.6200  203.0840  148.9700 O   0  0  0  0  0  0  0  0  0  0  0  0
  160.9790  203.8160  151.2790 C   0  0  0  0  0  0  0  0  0  0  0  0
  161.3280  207.4380  148.5270 C   0  0  0  0  0  3  0  0  0  0  0  0
  161.5490  207.3040  150.9580 C   0  0  0  0  0  0  0  0  0  0  0  0
  161.5610  208.0730  149.7730 C   0  0  0  0  0  0  0  0  0  0  0  0
  161.0890  206.0960  148.4560 N   0  0  0  0  0  0  0  0  0  0  0  0
  161.0790  205.3780  149.6030 C   0  0  0  0  0  0  0  0  0  0  0  0
  160.8600  203.9730  149.8280 C   0  0  0  0  0  0  0  0  0  0  0  0
  160.8350  202.5340  152.0180 C   0  0  0  0  0  1  0  0  0  0  0  0
  161.2330  204.9480  151.8700 N   0  0  0  0  0  0  0  0  0  0  0  0
  161.2980  205.9330  150.8330 C   0  0  0  0  0  0  0  0  0  0  0  0
  161.8010  207.9490  152.2880 C   0  0  1  0  0  3  0  0  0  0  0  0
  160.9570  209.1330  152.4470 N   0  0  0  0  0  2  0  0  0  0  0  0
  161.3570  209.8380  153.6660 C   0  0  0  0  0  2  0  0  0  0  0  0
  161.5520  206.9600  153.4250 C   0  0  0  0  0  2  0  0  0  0  0  0
  161.1430  208.9640  154.9070 C   0  0  2  0  0  3  0  0  0  0  0  0
  161.8640  207.6230  154.7630 C   0  0  0  0  0  2  0  0  0  0  0  0
  159.2050  207.6390  155.4010 O   0  0  0  0  0  0  0  0  0  0  0  0
  159.6890  208.7920  155.2500 C   0  0  0  0  0  0  0  0  0  0  0  0
  158.8440  209.9280  155.4330 N   0  0  0  0  0  2  0  0  0  0  0  0
  159.3280  211.2950  155.2890 C   0  0  0  0  0  2  0  0  0  0  0  0
  158.5760  211.8260  153.0350 N   0  0  0  0  0  2  0  0  0  0  0  0
  158.9350  213.0750  152.3750 C   0  0  1  0  0  3  0  0  0  0  0  0
  158.6240  213.6100  154.6610 C   0  0  0  0  0  2  0  0  0  0  0  0
  158.3690  212.1290  154.4490 C   0  0  2  0  0  0  0  0  0  0  0  0
  158.1950  213.1960  151.0590 C   0  0  0  0  0  1  0  0  0  0  0  0
  158.5520  214.2120  153.2870 C   0  0  0  0  0  2  0  0  0  0  0  0
  157.0490  211.8270  154.7930 O   0  0  0  0  0  1  0  0  0  0  0  0
  161.8070  209.4500  149.8420 O   0  0  0  0  0  0  0  0  0  0  0  0
  162.2620  210.1650  148.7530 N   0  0  0  0  0  2  0  0  0  0  0  0
  161.9120  211.5620  148.9720 C   0  0  0  0  0  2  0  0  0  0  0  0
  162.5730  212.4520  147.9270 C   0  0  2  0  0  3  0  0  0  0  0  0
  163.9220  212.5820  148.1970 F   0  0  0  0  0  0  0  0  0  0  0  0
  161.9230  213.8290  147.8790 C   0  0  0  0  0  2  0  0  0  0  0  0
  162.2460  213.3600  145.6210 C   0  0  0  0  0  1  0  0  0  0  0  0
  160.0860  213.5100  146.4700 C   0  0  0  0  0  1  0  0  0  0  0  0
  161.4110  214.1020  146.5460 N   0  0  0  0  0  0  0  0  0  0  0  0
  1  8  2  0  0  0  0
  2 10  2  0  0  0  0
  2  9  1  0  0  0  0
  3  5  1  0  0  0  0
  5 29  1  0  0  0  0
  5  4  2  0  0  0  0
  6  3  2  0  0  0  0
  6  7  1  0  0  0  0
  7  8  1  0  0  0  0
  7 11  2  0  0  0  0
  8  2  1  0  0  0  0
 11  4  1  0  0  0  0
 11 10  1  0  0  0  0
 12  4  1  6  0  0  0
 12 13  1  0  0  0  0
 12 15  1  0  0  0  0
 13 14  1  0  0  0  0
 14 16  1  0  0  0  0
 15 17  1  0  0  0  0
 16 19  1  6  0  0  0
 17 16  1  0  0  0  0
 19 18  2  0  0  0  0
 19 20  1  0  0  0  0
 21 20  1  0  0  0  0
 22 25  1  0  0  0  0
 23 26  1  6  0  0  0
 23 22  1  0  0  0  0
 23 27  1  0  0  0  0
 25 24  1  0  0  0  0
 25 28  1  1  0  0  0
 25 21  1  0  0  0  0
 27 24  1  0  0  0  0
 30 31  1  0  0  0  0
 30 29  1  0  0  0  0
 32 33  1  1  0  0  0
 32 31  1  0  0  0  0
 34 32  1  0  0  0  0
 35 37  1  0  0  0  0
 36 37  1  0  0  0  0
 37 34  1  0  0  0  0
M  END
>  <MODEL>
5

>  <REMARK>
 VINA RESULT:      -6.4      1.690      2.314
  Name = 
  10 active torsions:
  status: ('A' for Active; 'I' for Inactive)
    1  A    between atoms: C_2  and  C_3
    2  A    between atoms: C_2  and  C_15
    3  A    between atoms: C_3  and  N_30
    4  A    between atoms: C_6  and  C_16
    5  A    between atoms: O_9  and  C_17
    6  A    between atoms: O_9  and  N_30
    7  A    between atoms: C_14  and  C_24
    8  A    between atoms: C_15  and  N_31
    9  A    between atoms: N_19  and  C_25
   10  A    between atoms: C_21  and  C_25
                            x       y       z     vdW  Elec       q    Type
                         _______ _______ _______ _____ _____    ______ ____

>  <TORSDO>
F 10

$$$$
=
 OpenBabel11042423083D

 37 40  0  0  1  0  0  0  0  0999 V2000
  160.3790  200.2610  149.9970 O   0  0  0  0  0  0  0  0  0  0  0  0
  160.9390  201.9220  148.2870 C   0  0  0  0  0  0  0  0  0  0  0  0
  160.8980  203.9770  152.3610 C   0  0  0  0  0  3  0  0  0  0  0  0
  161.3620  204.9120  150.1500 C   0  0  0  0  0  0  0  0  0  0  0  0
  161.2350  205.0870  151.5460 C   0  0  0  0  0  0  0  0  0  0  0  0
  160.6970  202.7410  151.8150 N   0  0  0  0  0  0  0  0  0  0  0  0
  160.8260  202.5940  150.4760 C   0  0  0  0  0  0  0  0  0  0  0  0
  160.6730  201.4320  149.6410 C   0  0  0  0  0  0  0  0  0  0  0  0
  160.9040  201.0930  147.0520 C   0  0  0  0  0  1  0  0  0  0  0  0
  161.2160  203.1940  148.2770 N   0  0  0  0  0  0  0  0  0  0  0  0
  161.1480  203.6270  149.6400 C   0  0  0  0  0  0  0  0  0  0  0  0
  161.7100  206.0720  149.2650 C   0  0  1  0  0  3  0  0  0  0  0  0
  160.6040  207.0290  149.2230 N   0  0  0  0  0  2  0  0  0  0  0  0
  160.8980  208.0480  148.2150 C   0  0  0  0  0  2  0  0  0  0  0  0
  162.9890  206.7550  149.7450 C   0  0  0  0  0  2  0  0  0  0  0  0
  162.1620  208.8360  148.5770 C   0  0  2  0  0  3  0  0  0  0  0  0
  163.3490  207.8980  148.8010 C   0  0  0  0  0  2  0  0  0  0  0  0
  161.6640  209.3090  150.8760 O   0  0  0  0  0  0  0  0  0  0  0  0
  161.9490  209.7690  149.7380 C   0  0  0  0  0  0  0  0  0  0  0  0
  162.0900  211.1800  149.5750 N   0  0  0  0  0  2  0  0  0  0  0  0
  162.4300  211.7900  148.2960 C   0  0  0  0  0  2  0  0  0  0  0  0
  160.4380  211.8980  146.9010 N   0  0  0  0  0  2  0  0  0  0  0  0
  160.4340  212.5760  145.6100 C   0  0  1  0  0  3  0  0  0  0  0  0
  161.8450  213.8560  147.0180 C   0  0  0  0  0  2  0  0  0  0  0  0
  161.2950  212.6730  147.7940 C   0  0  2  0  0  0  0  0  0  0  0  0
  159.0270  212.6200  145.0530 C   0  0  0  0  0  1  0  0  0  0  0  0
  160.9500  213.9770  145.8180 C   0  0  0  0  0  2  0  0  0  0  0  0
  160.5360  213.1330  148.8730 O   0  0  0  0  0  1  0  0  0  0  0  0
  161.4400  206.3530  152.1090 O   0  0  0  0  0  0  0  0  0  0  0  0
  161.6430  206.5250  153.4630 N   0  0  0  0  0  2  0  0  0  0  0  0
  160.8220  207.6530  153.8860 C   0  0  0  0  0  2  0  0  0  0  0  0
  160.6720  207.6690  155.4010 C   0  0  2  0  0  3  0  0  0  0  0  0
  159.4880  207.0560  155.7690 F   0  0  0  0  0  0  0  0  0  0  0  0
  160.7060  209.0910  155.9470 C   0  0  0  0  0  2  0  0  0  0  0  0
  161.0060  211.0770  154.7680 C   0  0  0  0  0  1  0  0  0  0  0  0
  162.6710  210.3290  156.2100 C   0  0  0  0  0  1  0  0  0  0  0  0
  161.6910  209.8860  155.2320 N   0  0  0  0  0  0  0  0  0  0  0  0
  2  8  1  0  0  0  0
  4  5  1  0  0  0  0
  5 29  1  0  0  0  0
  5  3  2  0  0  0  0
  6  3  1  0  0  0  0
  7  6  2  0  0  0  0
  8  1  2  0  0  0  0
  8  7  1  0  0  0  0
  9  2  1  0  0  0  0
 10  2  2  0  0  0  0
 10 11  1  0  0  0  0
 11  4  2  0  0  0  0
 11  7  1  0  0  0  0
 12 15  1  0  0  0  0
 12  4  1  1  0  0  0
 13 12  1  0  0  0  0
 14 16  1  0  0  0  0
 14 13  1  0  0  0  0
 16 17  1  0  0  0  0
 16 19  1  1  0  0  0
 17 15  1  0  0  0  0
 19 18  2  0  0  0  0
 20 19  1  0  0  0  0
 21 20  1  0  0  0  0
 22 25  1  0  0  0  0
 23 26  1  1  0  0  0
 23 27  1  0  0  0  0
 23 22  1  0  0  0  0
 24 25  1  0  0  0  0
 25 21  1  0  0  0  0
 25 28  1  1  0  0  0
 27 24  1  0  0  0  0
 29 30  1  0  0  0  0
 30 31  1  0  0  0  0
 31 32  1  0  0  0  0
 32 33  1  6  0  0  0
 32 34  1  0  0  0  0
 35 37  1  0  0  0  0
 37 34  1  0  0  0  0
 37 36  1  0  0  0  0
M  END
>  <MODEL>
6

>  <REMARK>
 VINA RESULT:      -6.3      3.048      7.128
  Name = 
  10 active torsions:
  status: ('A' for Active; 'I' for Inactive)
    1  A    between atoms: C_2  and  C_3
    2  A    between atoms: C_2  and  C_15
    3  A    between atoms: C_3  and  N_30
    4  A    between atoms: C_6  and  C_16
    5  A    between atoms: O_9  and  C_17
    6  A    between atoms: O_9  and  N_30
    7  A    between atoms: C_14  and  C_24
    8  A    between atoms: C_15  and  N_31
    9  A    between atoms: N_19  and  C_25
   10  A    between atoms: C_21  and  C_25
                            x       y       z     vdW  Elec       q    Type
                         _______ _______ _______ _____ _____    ______ ____

>  <TORSDO>
F 10

$$$$
=
 OpenBabel11042423083D

 37 40  0  0  1  0  0  0  0  0999 V2000
  161.0520  201.4770  145.9190 O   0  0  0  0  0  0  0  0  0  0  0  0
  161.4570  203.8510  146.3690 C   0  0  0  0  0  0  0  0  0  0  0  0
  160.6290  201.7330  150.3250 C   0  0  0  0  0  3  0  0  0  0  0  0
  161.1260  204.0880  149.8940 C   0  0  0  0  0  0  0  0  0  0  0  0
  160.8310  203.0510  150.8070 C   0  0  0  0  0  0  0  0  0  0  0  0
  160.7180  201.4520  148.9920 N   0  0  0  0  0  0  0  0  0  0  0  0
  161.0040  202.4590  148.1340 C   0  0  0  0  0  0  0  0  0  0  0  0
  161.1550  202.4570  146.7030 C   0  0  0  0  0  0  0  0  0  0  0  0
  161.7000  204.3700  144.9970 C   0  0  0  0  0  1  0  0  0  0  0  0
  161.4900  204.6070  147.4280 N   0  0  0  0  0  0  0  0  0  0  0  0
  161.2080  203.7480  148.5390 C   0  0  0  0  0  0  0  0  0  0  0  0
  161.3360  205.4930  150.3770 C   0  0  1  0  0  3  0  0  0  0  0  0
  162.6910  205.9410  150.0610 N   0  0  0  0  0  2  0  0  0  0  0  0
  162.9220  207.2360  150.7030 C   0  0  0  0  0  2  0  0  0  0  0  0
  160.3040  206.4360  149.7610 C   0  0  0  0  0  2  0  0  0  0  0  0
  161.9600  208.3000  150.1640 C   0  0  2  0  0  3  0  0  0  0  0  0
  160.5060  207.8470  150.3060 C   0  0  0  0  0  2  0  0  0  0  0  0
  162.5620  207.8530  147.8850 O   0  0  0  0  0  0  0  0  0  0  0  0
  162.2890  208.7200  148.7580 C   0  0  0  0  0  0  0  0  0  0  0  0
  162.2730  210.0980  148.3860 N   0  0  0  0  0  2  0  0  0  0  0  0
  161.9550  211.1600  149.3310 C   0  0  0  0  0  2  0  0  0  0  0  0
  160.6180  212.1580  147.5580 N   0  0  0  0  0  2  0  0  0  0  0  0
  161.2040  212.5770  146.2910 C   0  0  1  0  0  3  0  0  0  0  0  0
  162.8240  213.0550  147.9520 C   0  0  0  0  0  2  0  0  0  0  0  0
  161.5950  212.4500  148.6040 C   0  0  2  0  0  0  0  0  0  0  0  0
  160.1690  213.3040  145.4570 C   0  0  0  0  0  1  0  0  0  0  0  0
  162.3590  213.4970  146.5940 C   0  0  0  0  0  2  0  0  0  0  0  0
  161.0420  213.3650  149.5030 O   0  0  0  0  0  1  0  0  0  0  0  0
  160.7380  203.3370  152.1750 O   0  0  0  0  0  0  0  0  0  0  0  0
  161.4630  204.3560  152.7580 N   0  0  0  0  0  2  0  0  0  0  0  0
  160.5090  205.2940  153.3360 C   0  0  0  0  0  2  0  0  0  0  0  0
  161.2080  206.5790  153.7610 C   0  0  2  0  0  3  0  0  0  0  0  0
  162.5730  206.3730  153.8450 F   0  0  0  0  0  0  0  0  0  0  0  0
  160.6800  207.0820  155.0990 C   0  0  0  0  0  2  0  0  0  0  0  0
  160.8330  209.1110  153.9650 C   0  0  0  0  0  1  0  0  0  0  0  0
  159.9560  209.0560  156.1190 C   0  0  0  0  0  1  0  0  0  0  0  0
  160.9910  208.4920  155.2680 N   0  0  0  0  0  0  0  0  0  0  0  0
  1  8  2  0  0  0  0
  2  8  1  0  0  0  0
  2 10  2  0  0  0  0
  3  5  1  0  0  0  0
  4  5  2  0  0  0  0
  5 29  1  0  0  0  0
  6  3  2  0  0  0  0
  7 11  2  0  0  0  0
  7  6  1  0  0  0  0
  8  7  1  0  0  0  0
  9  2  1  0  0  0  0
 10 11  1  0  0  0  0
 11  4  1  0  0  0  0
 12  4  1  6  0  0  0
 13 12  1  0  0  0  0
 13 14  1  0  0  0  0
 15 17  1  0  0  0  0
 15 12  1  0  0  0  0
 16 19  1  6  0  0  0
 16 17  1  0  0  0  0
 16 14  1  0  0  0  0
 18 19  2  0  0  0  0
 20 19  1  0  0  0  0
 20 21  1  0  0  0  0
 22 25  1  0  0  0  0
 23 26  1  6  0  0  0
 23 27  1  0  0  0  0
 23 22  1  0  0  0  0
 24 25  1  0  0  0  0
 25 21  1  0  0  0  0
 25 28  1  1  0  0  0
 27 24  1  0  0  0  0
 29 30  1  0  0  0  0
 30 31  1  0  0  0  0
 31 32  1  0  0  0  0
 32 33  1  1  0  0  0
 32 34  1  0  0  0  0
 34 37  1  0  0  0  0
 35 37  1  0  0  0  0
 37 36  1  0  0  0  0
M  END
>  <MODEL>
7

>  <REMARK>
 VINA RESULT:      -6.2      3.113      7.239
  Name = 
  10 active torsions:
  status: ('A' for Active; 'I' for Inactive)
    1  A    between atoms: C_2  and  C_3
    2  A    between atoms: C_2  and  C_15
    3  A    between atoms: C_3  and  N_30
    4  A    between atoms: C_6  and  C_16
    5  A    between atoms: O_9  and  C_17
    6  A    between atoms: O_9  and  N_30
    7  A    between atoms: C_14  and  C_24
    8  A    between atoms: C_15  and  N_31
    9  A    between atoms: N_19  and  C_25
   10  A    between atoms: C_21  and  C_25
                            x       y       z     vdW  Elec       q    Type
                         _______ _______ _______ _____ _____    ______ ____

>  <TORSDO>
F 10

$$$$
=
 OpenBabel11042423083D

 37 40  0  0  1  0  0  0  0  0999 V2000
  161.5420  205.9500  154.2550 O   0  0  0  0  0  0  0  0  0  0  0  0
  161.1530  204.9460  152.0550 C   0  0  0  0  0  0  0  0  0  0  0  0
  162.0190  209.3910  151.4990 C   0  0  0  0  0  3  0  0  0  0  0  0
  161.5290  207.6800  149.8240 C   0  0  0  0  0  0  0  0  0  0  0  0
  161.8320  209.0220  150.1430 C   0  0  0  0  0  0  0  0  0  0  0  0
  161.9130  208.4680  152.5000 N   0  0  0  0  0  0  0  0  0  0  0  0
  161.6240  207.1870  152.1720 C   0  0  0  0  0  0  0  0  0  0  0  0
  161.4530  206.0230  153.0020 C   0  0  0  0  0  0  0  0  0  0  0  0
  160.8890  203.5300  152.4240 C   0  0  0  0  0  1  0  0  0  0  0  0
  161.1390  205.3720  150.8250 N   0  0  0  0  0  0  0  0  0  0  0  0
  161.4320  206.7720  150.8840 C   0  0  0  0  0  0  0  0  0  0  0  0
  161.3180  207.2640  148.3980 C   0  0  1  0  0  3  0  0  0  0  0  0
  162.5820  207.3060  147.6640 N   0  0  0  0  0  2  0  0  0  0  0  0
  162.3120  207.0760  146.2440 C   0  0  0  0  0  2  0  0  0  0  0  0
  160.7060  205.8660  148.3270 C   0  0  0  0  0  2  0  0  0  0  0  0
  161.7050  205.6870  146.0140 C   0  0  2  0  0  3  0  0  0  0  0  0
  160.4530  205.4870  146.8710 C   0  0  0  0  0  2  0  0  0  0  0  0
  163.8630  204.8360  146.6270 O   0  0  0  0  0  0  0  0  0  0  0  0
  162.7050  204.5790  146.2040 C   0  0  0  0  0  0  0  0  0  0  0  0
  162.3500  203.2240  145.9310 N   0  0  0  0  0  2  0  0  0  0  0  0
  161.0280  202.8420  145.4500 C   0  0  0  0  0  2  0  0  0  0  0  0
  160.0850  202.2250  147.6080 N   0  0  0  0  0  2  0  0  0  0  0  0
  160.8420  201.4600  148.5920 C   0  0  1  0  0  3  0  0  0  0  0  0
  161.4690  200.6050  146.4740 C   0  0  0  0  0  2  0  0  0  0  0  0
  160.4470  201.7110  146.2900 C   0  0  2  0  0  0  0  0  0  0  0  0
  159.9490  201.0910  149.7580 C   0  0  0  0  0  1  0  0  0  0  0  0
  161.3530  200.2120  147.9190 C   0  0  0  0  0  2  0  0  0  0  0  0
  159.3050  201.1970  145.6700 O   0  0  0  0  0  1  0  0  0  0  0  0
  161.9410  209.9710  149.1190 O   0  0  0  0  0  0  0  0  0  0  0  0
  162.0040  211.3240  149.3830 N   0  0  0  0  0  2  0  0  0  0  0  0
  162.4720  211.9830  148.1710 C   0  0  0  0  0  2  0  0  0  0  0  0
  162.1290  213.4670  148.1990 C   0  0  2  0  0  3  0  0  0  0  0  0
  161.4700  213.7810  149.3730 F   0  0  0  0  0  0  0  0  0  0  0  0
  161.2680  213.8600  147.0050 C   0  0  0  0  0  2  0  0  0  0  0  0
  159.3570  212.5930  146.5950 C   0  0  0  0  0  1  0  0  0  0  0  0
  160.9090  212.9240  144.8940 C   0  0  0  0  0  1  0  0  0  0  0  0
  160.7790  212.6740  146.3200 N   0  0  0  0  0  0  0  0  0  0  0  0
  2  9  1  0  0  0  0
  2  8  1  0  0  0  0
  3  6  1  0  0  0  0
  4  5  1  0  0  0  0
  4 11  2  0  0  0  0
  5  3  2  0  0  0  0
  7  6  2  0  0  0  0
  7  8  1  0  0  0  0
  8  1  2  0  0  0  0
 10 11  1  0  0  0  0
 10  2  2  0  0  0  0
 11  7  1  0  0  0  0
 12  4  1  1  0  0  0
 13 12  1  0  0  0  0
 14 13  1  0  0  0  0
 15 12  1  0  0  0  0
 16 19  1  1  0  0  0
 16 14  1  0  0  0  0
 16 17  1  0  0  0  0
 17 15  1  0  0  0  0
 19 18  2  0  0  0  0
 20 19  1  0  0  0  0
 21 20  1  0  0  0  0
 21 25  1  0  0  0  0
 22 23  1  0  0  0  0
 23 26  1  1  0  0  0
 24 27  1  0  0  0  0
 25 28  1  6  0  0  0
 25 24  1  0  0  0  0
 25 22  1  0  0  0  0
 27 23  1  0  0  0  0
 29 30  1  0  0  0  0
 29  5  1  0  0  0  0
 31 32  1  0  0  0  0
 31 30  1  0  0  0  0
 32 33  1  1  0  0  0
 34 32  1  0  0  0  0
 36 37  1  0  0  0  0
 37 35  1  0  0  0  0
 37 34  1  0  0  0  0
M  END
>  <MODEL>
8

>  <REMARK>
 VINA RESULT:      -5.9      3.546      7.883
  Name = 
  10 active torsions:
  status: ('A' for Active; 'I' for Inactive)
    1  A    between atoms: C_2  and  C_3
    2  A    between atoms: C_2  and  C_15
    3  A    between atoms: C_3  and  N_30
    4  A    between atoms: C_6  and  C_16
    5  A    between atoms: O_9  and  C_17
    6  A    between atoms: O_9  and  N_30
    7  A    between atoms: C_14  and  C_24
    8  A    between atoms: C_15  and  N_31
    9  A    between atoms: N_19  and  C_25
   10  A    between atoms: C_21  and  C_25
                            x       y       z     vdW  Elec       q    Type
                         _______ _______ _______ _____ _____    ______ ____

>  <TORSDO>
F 10

$$$$
=
 OpenBabel11042423083D

 37 40  0  0  1  0  0  0  0  0999 V2000
  161.0270  202.6060  147.5540 O   0  0  0  0  0  0  0  0  0  0  0  0
  162.0770  204.7660  147.0780 C   0  0  0  0  0  0  0  0  0  0  0  0
  160.5520  204.8000  151.3780 C   0  0  0  0  0  3  0  0  0  0  0  0
  161.7130  206.5480  150.1260 C   0  0  0  0  0  0  0  0  0  0  0  0
  161.1050  206.1040  151.3200 C   0  0  0  0  0  0  0  0  0  0  0  0
  160.6000  203.9680  150.2970 N   0  0  0  0  0  0  0  0  0  0  0  0
  161.1890  204.4120  149.1620 C   0  0  0  0  0  0  0  0  0  0  0  0
  161.3790  203.7660  147.8900 C   0  0  0  0  0  0  0  0  0  0  0  0
  162.5030  204.5790  145.6660 C   0  0  0  0  0  1  0  0  0  0  0  0
  162.2900  205.8660  147.7410 N   0  0  0  0  0  0  0  0  0  0  0  0
  161.7390  205.6580  149.0460 C   0  0  0  0  0  0  0  0  0  0  0  0
  162.3000  207.9260  150.0350 C   0  0  1  0  0  3  0  0  0  0  0  0
  161.5430  208.7380  149.0830 N   0  0  0  0  0  2  0  0  0  0  0  0
  162.2450  210.0060  148.8800 C   0  0  0  0  0  2  0  0  0  0  0  0
  162.3220  208.5960  151.4080 C   0  0  0  0  0  2  0  0  0  0  0  0
  162.3300  210.8060  150.1850 C   0  0  2  0  0  3  0  0  0  0  0  0
  162.9690  209.9740  151.2980 C   0  0  0  0  0  2  0  0  0  0  0  0
  160.3510  210.8600  151.5410 O   0  0  0  0  0  0  0  0  0  0  0  0
  161.0030  211.3820  150.5990 C   0  0  0  0  0  0  0  0  0  0  0  0
  160.4770  212.5390  149.9480 N   0  0  0  0  0  2  0  0  0  0  0  0
  161.1750  213.2100  148.8590 C   0  0  0  0  0  2  0  0  0  0  0  0
  159.0480  214.2640  148.3190 N   0  0  0  0  0  2  0  0  0  0  0  0
  157.8710  213.4860  147.9510 C   0  0  1  0  0  3  0  0  0  0  0  0
  159.7260  212.3520  147.0110 C   0  0  0  0  0  2  0  0  0  0  0  0
  160.2090  213.5910  147.7440 C   0  0  2  0  0  0  0  0  0  0  0  0
  156.7540  214.4120  147.5160 C   0  0  0  0  0  1  0  0  0  0  0  0
  158.2540  212.5720  146.8150 C   0  0  0  0  0  2  0  0  0  0  0  0
  160.8380  214.4530  146.8430 O   0  0  0  0  0  1  0  0  0  0  0  0
  161.0530  206.9550  152.4310 O   0  0  0  0  0  0  0  0  0  0  0  0
  161.5090  206.5620  153.6730 N   0  0  0  0  0  2  0  0  0  0  0  0
  160.4580  206.8610  154.6370 C   0  0  0  0  0  2  0  0  0  0  0  0
  160.9220  207.9200  155.6280 C   0  0  2  0  0  3  0  0  0  0  0  0
  160.6790  207.5000  156.9230 F   0  0  0  0  0  0  0  0  0  0  0  0
  160.2290  209.2540  155.3810 C   0  0  0  0  0  2  0  0  0  0  0  0
  160.5470  211.5350  155.0330 C   0  0  0  0  0  1  0  0  0  0  0  0
  162.3070  210.2320  155.8180 C   0  0  0  0  0  1  0  0  0  0  0  0
  161.1830  210.2390  154.8960 N   0  0  0  0  0  0  0  0  0  0  0  0
  1  8  2  0  0  0  0
  2 10  2  0  0  0  0
  2  8  1  0  0  0  0
  4  5  2  0  0  0  0
  5  3  1  0  0  0  0
  5 29  1  0  0  0  0
  6  3  2  0  0  0  0
  7  6  1  0  0  0  0
  8  7  1  0  0  0  0
  9  2  1  0  0  0  0
 10 11  1  0  0  0  0
 11  7  2  0  0  0  0
 11  4  1  0  0  0  0
 12  4  1  1  0  0  0
 12 15  1  0  0  0  0
 13 12  1  0  0  0  0
 14 13  1  0  0  0  0
 14 16  1  0  0  0  0
 16 19  1  1  0  0  0
 16 17  1  0  0  0  0
 17 15  1  0  0  0  0
 19 18  2  0  0  0  0
 20 19  1  0  0  0  0
 21 20  1  0  0  0  0
 23 26  1  6  0  0  0
 23 22  1  0  0  0  0
 24 25  1  0  0  0  0
 25 28  1  6  0  0  0
 25 22  1  0  0  0  0
 25 21  1  0  0  0  0
 27 24  1  0  0  0  0
 27 23  1  0  0  0  0
 29 30  1  0  0  0  0
 30 31  1  0  0  0  0
 31 32  1  0  0  0  0
 32 33  1  1  0  0  0
 34 32  1  0  0  0  0
 37 35  1  0  0  0  0
 37 34  1  0  0  0  0
 37 36  1  0  0  0  0
M  END
>  <MODEL>
9

>  <REMARK>
 VINA RESULT:      -5.6      2.894      6.547
  Name = 
  10 active torsions:
  status: ('A' for Active; 'I' for Inactive)
    1  A    between atoms: C_2  and  C_3
    2  A    between atoms: C_2  and  C_15
    3  A    between atoms: C_3  and  N_30
    4  A    between atoms: C_6  and  C_16
    5  A    between atoms: O_9  and  C_17
    6  A    between atoms: O_9  and  N_30
    7  A    between atoms: C_14  and  C_24
    8  A    between atoms: C_15  and  N_31
    9  A    between atoms: N_19  and  C_25
   10  A    between atoms: C_21  and  C_25
                            x       y       z     vdW  Elec       q    Type
                         _______ _______ _______ _____ _____    ______ ____

>  <TORSDO>
F 10

$$$$
