=
 OpenBabel11042420583D

 46 52  0  0  1  0  0  0  0  0999 V2000
  161.7320  205.2620  148.8240 C   0  0  2  0  0  3  0  0  0  0  0  0
  160.1790  206.4800  150.2960 C   0  0  0  0  0  3  0  0  0  0  0  0
  160.3700  205.4990  149.4080 C   0  0  0  0  0  3  0  0  0  0  0  0
  162.0920  204.8060  146.5360 N   0  0  0  0  0  0  0  0  0  0  0  0
  161.7870  208.2800  149.6010 C   0  0  0  0  0  0  0  0  0  0  0  0
  161.3200  207.3650  150.7200 C   0  0  1  0  0  3  0  0  0  0  0  0
  162.1070  206.4630  147.9740 C   0  0  0  0  0  0  0  0  0  0  0  0
  162.2550  206.1780  146.7160 N   0  0  0  0  0  0  0  0  0  0  0  0
  161.7090  204.2290  147.7440 C   0  0  0  0  0  0  0  0  0  0  0  0
  161.1270  203.0440  147.6470 C   0  0  0  0  0  0  0  0  0  0  0  0
  162.1370  207.8220  148.4300 N   0  0  0  0  0  0  0  0  0  0  0  0
  161.5640  204.1460  145.3620 C   0  0  0  0  0  2  0  0  0  0  0  0
  160.9710  202.5060  145.9410 S   0  0  0  0  0  0  0  0  0  0  0  0
  160.0790  209.8730  156.0790 C   0  0  0  0  0  2  0  0  0  0  0  0
  160.2930  209.6380  153.2530 C   0  0  0  0  0  0  0  0  0  0  0  0
  160.3750  209.2770  151.9620 N   0  0  0  0  0  0  0  0  0  0  0  0
  161.2940  207.6830  153.1850 C   0  0  0  0  0  3  0  0  0  0  0  0
  160.9960  208.7710  155.5280 C   0  0  2  0  0  3  0  0  0  0  0  0
  160.8240  208.6520  154.0450 C   0  0  0  0  0  0  0  0  0  0  0  0
  160.9830  208.0960  151.9380 N   0  0  0  0  0  0  0  0  0  0  0  0
  160.6890  207.5610  156.1490 O   0  0  0  0  0  1  0  0  0  0  0  0
  159.6410  210.8730  153.7890 C   0  0  0  0  0  2  0  0  0  0  0  0
  160.1430  211.1470  155.2150 C   0  0  1  0  0  3  0  0  0  0  0  0
  158.8990  212.9090  154.7210 C   0  0  0  0  0  1  0  0  0  0  0  0
  159.3690  212.1540  155.7970 O   0  0  0  0  0  0  0  0  0  0  0  0
  161.8640  209.7640  149.8420 C   0  0  1  0  0  3  0  0  0  0  0  0
  162.9810  210.1270  150.8080 C   0  0  0  0  0  1  0  0  0  0  0  0
  161.9300  210.5670  148.5420 C   0  0  0  0  0  2  0  0  0  0  0  0
  162.4940  211.9670  148.7580 C   0  0  0  0  0  2  0  0  0  0  0  0
  161.5500  213.0270  148.2060 C   0  0  1  0  0  3  0  0  0  0  0  0
  160.0840  212.4370  146.2300 C   0  0  0  0  0  3  0  0  0  0  0  0
  163.2320  213.5230  143.5310 C   0  0  0  0  0  1  0  0  0  0  0  0
  159.8810  212.3400  144.8500 C   0  0  0  0  0  3  0  0  0  0  0  0
  162.1310  213.1350  144.4570 C   0  0  0  0  0  0  0  0  0  0  0  0
  160.6830  212.5800  142.5950 O   0  0  0  0  0  1  0  0  0  0  0  0
  160.9040  212.6820  143.9600 C   0  0  0  0  0  0  0  0  0  0  0  0
  162.3310  213.2320  145.8370 C   0  0  0  0  0  3  0  0  0  0  0  0
  161.3180  212.8720  146.7290 C   0  0  0  0  0  0  0  0  0  0  0  0
  160.4610  213.1980  150.3220 O   0  0  0  0  0  0  0  0  0  0  0  0
  160.2300  212.9780  148.9520 C   0  0  1  0  0  3  0  0  0  0  0  0
  159.9600  214.2840  149.5840 C   0  0  1  0  0  3  0  0  0  0  0  0
  158.2330  214.2100  151.2120 O   0  0  0  0  0  1  0  0  0  0  0  0
  158.4810  214.4290  149.8570 C   0  0  0  0  0  2  0  0  0  0  0  0
  160.5410  202.3130  148.7280 N   0  0  0  0  0  2  0  0  0  0  0  0
  161.3710  202.4450  151.1490 N   0  0  0  0  0  0  0  0  0  0  0  0
  160.9940  202.3840  150.0550 C   0  0  0  0  0  0  0  0  0  0  0  0
  1  3  1  6  0  0  0
  3  2  2  0  0  0  0
  4  8  1  0  0  0  0
  4  9  1  0  0  0  0
  5 26  1  0  0  0  0
  5  6  1  0  0  0  0
  6  2  1  6  0  0  0
  6 20  1  0  0  0  0
  7 11  1  0  0  0  0
  7  1  1  0  0  0  0
  8  7  2  0  0  0  0
  9  1  1  0  0  0  0
 10  9  2  0  0  0  0
 10 44  1  0  0  0  0
 11  5  2  0  0  0  0
 12 13  1  0  0  0  0
 12  4  1  0  0  0  0
 13 10  1  0  0  0  0
 15 22  1  0  0  0  0
 15 19  1  0  0  0  0
 16 15  2  0  0  0  0
 17 19  2  0  0  0  0
 18 14  1  0  0  0  0
 18 21  1  1  0  0  0
 19 18  1  0  0  0  0
 20 16  1  0  0  0  0
 20 17  1  0  0  0  0
 22 23  1  0  0  0  0
 23 25  1  1  0  0  0
 23 14  1  0  0  0  0
 24 25  1  0  0  0  0
 26 27  1  1  0  0  0
 28 29  1  0  0  0  0
 28 26  1  0  0  0  0
 30 29  1  1  0  0  0
 31 38  1  0  0  0  0
 32 34  1  0  0  0  0
 33 31  2  0  0  0  0
 34 37  1  0  0  0  0
 35 36  1  0  0  0  0
 36 34  2  0  0  0  0
 36 33  1  0  0  0  0
 37 38  2  0  0  0  0
 38 30  1  0  0  0  0
 40 30  1  6  0  0  0
 40 41  1  0  0  0  0
 40 39  1  0  0  0  0
 41 43  1  1  0  0  0
 41 39  1  0  0  0  0
 43 42  1  0  0  0  0
 44 46  1  0  0  0  0
 46 45  3  0  0  0  0
M  END
>  <MODEL>
1

>  <REMARK>
 VINA RESULT:      -7.9      0.000      0.000
  Name = 
  11 active torsions:
  status: ('A' for Active; 'I' for Inactive)
    1  A    between atoms: C_3  and  C_17
    2  A    between atoms: C_3  and  C_42
    3  A    between atoms: C_3  and  C_44
    4  A    between atoms: C_8  and  C_16
    5  A    between atoms: C_8  and  C_28
    6  A    between atoms: C_12  and  C_19
    7  A    between atoms: C_18  and  N_27
    8  A    between atoms: C_28  and  C_44
    9  A    between atoms: C_34  and  N_45
   10  A    between atoms: C_36  and  O_43
   11  A    between atoms: N_45  and  C_46
                            x       y       z     vdW  Elec       q    Type
                         _______ _______ _______ _____ _____    ______ ____

>  <TORSDO>
F 11

$$$$
=
 OpenBabel11042420583D

 46 52  0  0  1  0  0  0  0  0999 V2000
  161.7620  205.3480  148.8960 C   0  0  2  0  0  3  0  0  0  0  0  0
  160.1970  206.5790  150.3440 C   0  0  0  0  0  3  0  0  0  0  0  0
  160.3940  205.5950  149.4600 C   0  0  0  0  0  3  0  0  0  0  0  0
  162.1520  204.8850  146.6150 N   0  0  0  0  0  0  0  0  0  0  0  0
  161.8260  208.3670  149.6680 C   0  0  0  0  0  0  0  0  0  0  0  0
  161.3370  207.4570  150.7820 C   0  0  1  0  0  3  0  0  0  0  0  0
  162.1570  206.5450  148.0500 C   0  0  0  0  0  0  0  0  0  0  0  0
  162.3210  206.2570  146.7940 N   0  0  0  0  0  0  0  0  0  0  0  0
  161.7480  204.3140  147.8170 C   0  0  0  0  0  0  0  0  0  0  0  0
  161.1600  203.1320  147.7140 C   0  0  0  0  0  0  0  0  0  0  0  0
  162.1890  207.9050  148.5030 N   0  0  0  0  0  0  0  0  0  0  0  0
  161.6370  204.2270  145.4340 C   0  0  0  0  0  2  0  0  0  0  0  0
  161.0250  202.5910  146.0080 S   0  0  0  0  0  0  0  0  0  0  0  0
  160.0810  210.0000  156.1220 C   0  0  0  0  0  2  0  0  0  0  0  0
  160.2400  209.7190  153.2960 C   0  0  0  0  0  0  0  0  0  0  0  0
  160.3110  209.3360  152.0110 N   0  0  0  0  0  0  0  0  0  0  0  0
  161.3520  207.8240  153.2410 C   0  0  0  0  0  3  0  0  0  0  0  0
  161.0470  208.9410  155.5690 C   0  0  2  0  0  3  0  0  0  0  0  0
  160.8470  208.7820  154.0940 C   0  0  0  0  0  0  0  0  0  0  0  0
  160.9870  208.1920  151.9950 N   0  0  0  0  0  0  0  0  0  0  0  0
  160.8270  207.7290  156.2210 O   0  0  0  0  0  1  0  0  0  0  0  0
  159.5300  210.9250  153.8240 C   0  0  0  0  0  2  0  0  0  0  0  0
  160.0490  211.2570  155.2320 C   0  0  1  0  0  3  0  0  0  0  0  0
  158.0830  212.2490  155.0210 C   0  0  0  0  0  1  0  0  0  0  0  0
  159.2320  212.2290  155.8130 O   0  0  0  0  0  0  0  0  0  0  0  0
  161.9080  209.8510  149.9080 C   0  0  1  0  0  3  0  0  0  0  0  0
  162.9570  210.2010  150.9520 C   0  0  0  0  0  1  0  0  0  0  0  0
  162.0830  210.6460  148.6130 C   0  0  0  0  0  2  0  0  0  0  0  0
  161.7530  212.1230  148.7940 C   0  0  0  0  0  2  0  0  0  0  0  0
  160.8550  212.6240  147.6710 C   0  0  1  0  0  3  0  0  0  0  0  0
  158.3660  212.9030  147.3080 C   0  0  0  0  0  3  0  0  0  0  0  0
  157.8610  214.0090  151.4180 C   0  0  0  0  0  1  0  0  0  0  0  0
  157.0910  213.2010  147.7970 C   0  0  0  0  0  3  0  0  0  0  0  0
  158.0220  213.6330  149.9860 C   0  0  0  0  0  0  0  0  0  0  0  0
  155.6410  213.8650  149.5980 O   0  0  0  0  0  1  0  0  0  0  0  0
  156.9150  213.5730  149.1320 C   0  0  0  0  0  0  0  0  0  0  0  0
  159.2970  213.3330  149.4960 C   0  0  0  0  0  3  0  0  0  0  0  0
  159.4790  212.9810  148.1570 C   0  0  0  0  0  0  0  0  0  0  0  0
  162.8800  213.8130  147.2540 O   0  0  0  0  0  0  0  0  0  0  0  0
  161.4990  213.8190  146.9930 C   0  0  1  0  0  3  0  0  0  0  0  0
  162.4760  213.3610  145.9870 C   0  0  1  0  0  3  0  0  0  0  0  0
  162.9430  213.8780  143.7170 O   0  0  0  0  0  1  0  0  0  0  0  0
  162.7190  214.4510  144.9690 C   0  0  0  0  0  2  0  0  0  0  0  0
  160.5540  202.4070  148.7890 N   0  0  0  0  0  2  0  0  0  0  0  0
  161.3870  202.4910  151.2100 N   0  0  0  0  0  0  0  0  0  0  0  0
  161.0090  202.4530  150.1160 C   0  0  0  0  0  0  0  0  0  0  0  0
  1  3  1  6  0  0  0
  3  2  2  0  0  0  0
  4  8  1  0  0  0  0
  4  9  1  0  0  0  0
  5 26  1  0  0  0  0
  5  6  1  0  0  0  0
  6  2  1  6  0  0  0
  6 20  1  0  0  0  0
  7 11  1  0  0  0  0
  7  1  1  0  0  0  0
  8  7  2  0  0  0  0
  9  1  1  0  0  0  0
 10  9  2  0  0  0  0
 10 44  1  0  0  0  0
 11  5  2  0  0  0  0
 12 13  1  0  0  0  0
 12  4  1  0  0  0  0
 13 10  1  0  0  0  0
 15 22  1  0  0  0  0
 15 19  1  0  0  0  0
 16 15  2  0  0  0  0
 17 19  2  0  0  0  0
 18 14  1  0  0  0  0
 18 21  1  1  0  0  0
 19 18  1  0  0  0  0
 20 16  1  0  0  0  0
 20 17  1  0  0  0  0
 22 23  1  0  0  0  0
 23 25  1  1  0  0  0
 23 14  1  0  0  0  0
 24 25  1  0  0  0  0
 26 27  1  1  0  0  0
 28 29  1  0  0  0  0
 28 26  1  0  0  0  0
 30 38  1  0  0  0  0
 30 29  1  1  0  0  0
 31 33  2  0  0  0  0
 31 38  1  0  0  0  0
 33 36  1  0  0  0  0
 34 32  1  0  0  0  0
 36 35  1  0  0  0  0
 36 34  2  0  0  0  0
 37 34  1  0  0  0  0
 38 37  2  0  0  0  0
 40 39  1  0  0  0  0
 40 30  1  1  0  0  0
 41 43  1  6  0  0  0
 41 40  1  0  0  0  0
 41 39  1  0  0  0  0
 42 43  1  0  0  0  0
 44 46  1  0  0  0  0
 46 45  3  0  0  0  0
M  END
>  <MODEL>
2

>  <REMARK>
 VINA RESULT:      -7.7      1.187      3.209
  Name = 
  11 active torsions:
  status: ('A' for Active; 'I' for Inactive)
    1  A    between atoms: C_3  and  C_17
    2  A    between atoms: C_3  and  C_42
    3  A    between atoms: C_3  and  C_44
    4  A    between atoms: C_8  and  C_16
    5  A    between atoms: C_8  and  C_28
    6  A    between atoms: C_12  and  C_19
    7  A    between atoms: C_18  and  N_27
    8  A    between atoms: C_28  and  C_44
    9  A    between atoms: C_34  and  N_45
   10  A    between atoms: C_36  and  O_43
   11  A    between atoms: N_45  and  C_46
                            x       y       z     vdW  Elec       q    Type
                         _______ _______ _______ _____ _____    ______ ____

>  <TORSDO>
F 11

$$$$
=
 OpenBabel11042420583D

 46 52  0  0  1  0  0  0  0  0999 V2000
  161.6850  209.6280  153.5210 C   0  0  2  0  0  3  0  0  0  0  0  0
  160.5990  210.8570  151.6840 C   0  0  0  0  0  3  0  0  0  0  0  0
  160.5950  210.5020  152.9740 C   0  0  0  0  0  3  0  0  0  0  0  0
  161.2780  207.8370  155.0030 N   0  0  0  0  0  0  0  0  0  0  0  0
  161.6080  208.8890  150.4940 C   0  0  0  0  0  0  0  0  0  0  0  0
  161.6880  210.3830  150.7610 C   0  0  1  0  0  3  0  0  0  0  0  0
  161.5760  208.2600  152.8710 C   0  0  0  0  0  0  0  0  0  0  0  0
  161.3100  207.3080  153.7140 N   0  0  0  0  0  0  0  0  0  0  0  0
  161.4220  209.2190  154.9340 C   0  0  0  0  0  0  0  0  0  0  0  0
  161.0060  209.8870  155.9990 C   0  0  0  0  0  0  0  0  0  0  0  0
  161.5830  208.0110  151.4590 N   0  0  0  0  0  0  0  0  0  0  0  0
  160.4650  207.3720  156.1050 C   0  0  0  0  0  2  0  0  0  0  0  0
  160.3360  208.7970  157.2590 S   0  0  0  0  0  0  0  0  0  0  0  0
  161.1330  213.6430  145.7000 C   0  0  0  0  0  2  0  0  0  0  0  0
  162.4100  212.2080  147.7970 C   0  0  0  0  0  0  0  0  0  0  0  0
  162.7910  211.4060  148.8050 N   0  0  0  0  0  0  0  0  0  0  0  0
  160.6270  211.8020  149.0170 C   0  0  0  0  0  3  0  0  0  0  0  0
  160.3210  213.3870  146.9790 C   0  0  2  0  0  3  0  0  0  0  0  0
  161.0610  212.4460  147.8780 C   0  0  0  0  0  0  0  0  0  0  0  0
  161.7050  211.1720  149.5330 N   0  0  0  0  0  0  0  0  0  0  0  0
  159.0780  212.8550  146.6390 O   0  0  0  0  0  1  0  0  0  0  0  0
  163.2750  212.7050  146.6830 C   0  0  0  0  0  2  0  0  0  0  0  0
  162.6150  213.9210  146.0160 C   0  0  1  0  0  3  0  0  0  0  0  0
  162.3150  214.2550  143.8500 C   0  0  0  0  0  1  0  0  0  0  0  0
  163.2990  214.2380  144.8400 O   0  0  0  0  0  0  0  0  0  0  0  0
  161.5660  208.3940  149.0730 C   0  0  1  0  0  3  0  0  0  0  0  0
  162.9570  208.2930  148.4650 C   0  0  0  0  0  1  0  0  0  0  0  0
  160.7690  207.0960  148.9270 C   0  0  0  0  0  2  0  0  0  0  0  0
  160.5470  206.7170  147.4670 C   0  0  0  0  0  2  0  0  0  0  0  0
  161.3360  205.4680  147.1010 C   0  0  1  0  0  3  0  0  0  0  0  0
  161.0450  203.0290  147.7100 C   0  0  0  0  0  3  0  0  0  0  0  0
  161.0870  204.0340  151.8770 C   0  0  0  0  0  1  0  0  0  0  0  0
  160.9260  202.0200  148.6700 C   0  0  0  0  0  3  0  0  0  0  0  0
  161.0640  203.6700  150.4320 C   0  0  0  0  0  0  0  0  0  0  0  0
  160.8080  201.3200  150.9690 O   0  0  0  0  0  1  0  0  0  0  0  0
  160.9280  202.3360  150.0310 C   0  0  0  0  0  0  0  0  0  0  0  0
  161.1850  204.6780  149.4710 C   0  0  0  0  0  3  0  0  0  0  0  0
  161.1620  204.3670  148.1090 C   0  0  0  0  0  0  0  0  0  0  0  0
  160.0420  205.9180  145.1480 O   0  0  0  0  0  0  0  0  0  0  0  0
  160.9250  204.9860  145.7220 C   0  0  1  0  0  3  0  0  0  0  0  0
  161.3730  205.9500  144.6980 C   0  0  1  0  0  3  0  0  0  0  0  0
  161.7270  206.2200  142.3660 O   0  0  0  0  0  1  0  0  0  0  0  0
  161.4590  205.2700  143.3510 C   0  0  0  0  0  2  0  0  0  0  0  0
  160.9380  211.3110  156.1150 N   0  0  0  0  0  2  0  0  0  0  0  0
  158.7640  212.6550  155.9330 N   0  0  0  0  0  0  0  0  0  0  0  0
  159.7470  212.0470  156.0170 C   0  0  0  0  0  0  0  0  0  0  0  0
  1  3  1  6  0  0  0
  1  9  1  0  0  0  0
  2  3  2  0  0  0  0
  4 12  1  0  0  0  0
  5  6  1  0  0  0  0
  5 11  2  0  0  0  0
  6 20  1  6  0  0  0
  6  2  1  0  0  0  0
  7  1  1  0  0  0  0
  7  8  2  0  0  0  0
  8  4  1  0  0  0  0
  9  4  1  0  0  0  0
  9 10  2  0  0  0  0
 10 44  1  0  0  0  0
 10 13  1  0  0  0  0
 11  7  1  0  0  0  0
 12 13  1  0  0  0  0
 14 23  1  0  0  0  0
 14 18  1  0  0  0  0
 15 19  1  0  0  0  0
 15 16  2  0  0  0  0
 16 20  1  0  0  0  0
 17 20  1  0  0  0  0
 18 21  1  6  0  0  0
 18 19  1  0  0  0  0
 19 17  2  0  0  0  0
 22 15  1  0  0  0  0
 23 25  1  6  0  0  0
 23 22  1  0  0  0  0
 24 25  1  0  0  0  0
 26 27  1  1  0  0  0
 26  5  1  0  0  0  0
 28 26  1  0  0  0  0
 29 28  1  0  0  0  0
 30 29  1  1  0  0  0
 30 38  1  0  0  0  0
 31 38  2  0  0  0  0
 31 33  1  0  0  0  0
 33 36  2  0  0  0  0
 34 32  1  0  0  0  0
 36 34  1  0  0  0  0
 36 35  1  0  0  0  0
 37 34  2  0  0  0  0
 38 37  1  0  0  0  0
 39 40  1  0  0  0  0
 40 30  1  1  0  0  0
 41 43  1  6  0  0  0
 41 39  1  0  0  0  0
 41 40  1  0  0  0  0
 42 43  1  0  0  0  0
 45 46  3  0  0  0  0
 46 44  1  0  0  0  0
M  END
>  <MODEL>
3

>  <REMARK>
 VINA RESULT:      -7.2      3.563      9.055
  Name = 
  11 active torsions:
  status: ('A' for Active; 'I' for Inactive)
    1  A    between atoms: C_3  and  C_17
    2  A    between atoms: C_3  and  C_42
    3  A    between atoms: C_3  and  C_44
    4  A    between atoms: C_8  and  C_16
    5  A    between atoms: C_8  and  C_28
    6  A    between atoms: C_12  and  C_19
    7  A    between atoms: C_18  and  N_27
    8  A    between atoms: C_28  and  C_44
    9  A    between atoms: C_34  and  N_45
   10  A    between atoms: C_36  and  O_43
   11  A    between atoms: N_45  and  C_46
                            x       y       z     vdW  Elec       q    Type
                         _______ _______ _______ _____ _____    ______ ____

>  <TORSDO>
F 11

$$$$
=
 OpenBabel11042420583D

 46 52  0  0  1  0  0  0  0  0999 V2000
  161.2770  211.0590  153.3980 C   0  0  2  0  0  3  0  0  0  0  0  0
  160.1890  211.8020  151.3180 C   0  0  0  0  0  3  0  0  0  0  0  0
  160.1250  211.6590  152.6460 C   0  0  0  0  0  3  0  0  0  0  0  0
  161.0010  209.4830  155.1350 N   0  0  0  0  0  0  0  0  0  0  0  0
  161.5630  209.8490  150.5410 C   0  0  0  0  0  0  0  0  0  0  0  0
  161.4090  211.3600  150.5560 C   0  0  1  0  0  3  0  0  0  0  0  0
  161.4170  209.6050  152.9840 C   0  0  0  0  0  0  0  0  0  0  0  0
  161.2170  208.7690  153.9570 N   0  0  0  0  0  0  0  0  0  0  0  0
  160.9540  210.8430  154.8420 C   0  0  0  0  0  0  0  0  0  0  0  0
  160.3580  211.5990  155.7520 C   0  0  0  0  0  0  0  0  0  0  0  0
  161.5790  209.1410  151.6370 N   0  0  0  0  0  0  0  0  0  0  0  0
  160.1710  209.0800  156.2470 C   0  0  0  0  0  2  0  0  0  0  0  0
  159.7440  210.6330  157.1340 S   0  0  0  0  0  0  0  0  0  0  0  0
  160.8260  213.7330  145.0260 C   0  0  0  0  0  2  0  0  0  0  0  0
  162.1170  212.6990  147.3400 C   0  0  0  0  0  0  0  0  0  0  0  0
  162.5080  212.0840  148.4680 N   0  0  0  0  0  0  0  0  0  0  0  0
  160.3310  212.4430  148.5950 C   0  0  0  0  0  3  0  0  0  0  0  0
  160.0050  213.6640  146.3230 C   0  0  2  0  0  3  0  0  0  0  0  0
  160.7610  212.9060  147.3700 C   0  0  0  0  0  0  0  0  0  0  0  0
  161.4190  211.9390  149.2150 N   0  0  0  0  0  0  0  0  0  0  0  0
  158.7840  213.0460  146.0650 O   0  0  0  0  0  1  0  0  0  0  0  0
  162.9820  213.0340  146.1670 C   0  0  0  0  0  2  0  0  0  0  0  0
  162.2950  214.1040  145.3050 C   0  0  1  0  0  3  0  0  0  0  0  0
  162.8190  213.0220  143.4470 C   0  0  0  0  0  1  0  0  0  0  0  0
  162.9850  214.2460  144.0980 O   0  0  0  0  0  0  0  0  0  0  0  0
  161.7130  209.1340  149.2240 C   0  0  1  0  0  3  0  0  0  0  0  0
  163.1740  208.9390  148.8460 C   0  0  0  0  0  1  0  0  0  0  0  0
  160.9150  207.8300  149.1700 C   0  0  0  0  0  2  0  0  0  0  0  0
  161.8160  206.6010  149.2120 C   0  0  0  0  0  2  0  0  0  0  0  0
  161.0690  205.3950  149.7640 C   0  0  1  0  0  3  0  0  0  0  0  0
  160.7420  202.9420  149.2360 C   0  0  0  0  0  3  0  0  0  0  0  0
  161.6410  203.6780  145.1100 C   0  0  0  0  0  1  0  0  0  0  0  0
  160.7160  201.8860  148.3190 C   0  0  0  0  0  3  0  0  0  0  0  0
  161.3330  203.4050  146.5420 C   0  0  0  0  0  0  0  0  0  0  0  0
  160.9860  201.0520  146.0790 O   0  0  0  0  0  1  0  0  0  0  0  0
  161.0170  202.1120  146.9730 C   0  0  0  0  0  0  0  0  0  0  0  0
  161.3570  204.4600  147.4600 C   0  0  0  0  0  3  0  0  0  0  0  0
  161.0760  204.2340  148.8100 C   0  0  0  0  0  0  0  0  0  0  0  0
  162.2600  206.1040  151.7050 O   0  0  0  0  0  0  0  0  0  0  0  0
  161.6700  204.9830  151.0960 C   0  0  1  0  0  3  0  0  0  0  0  0
  161.0030  205.7090  152.1940 C   0  0  1  0  0  3  0  0  0  0  0  0
  161.2410  205.8690  154.5500 O   0  0  0  0  0  1  0  0  0  0  0  0
  161.1880  204.9610  153.4930 C   0  0  0  0  0  2  0  0  0  0  0  0
  160.0820  212.9960  155.6210 N   0  0  0  0  0  2  0  0  0  0  0  0
  157.7990  213.9400  154.9400 N   0  0  0  0  0  0  0  0  0  0  0  0
  158.8310  213.5130  155.2460 C   0  0  0  0  0  0  0  0  0  0  0  0
  1  3  1  6  0  0  0
  1  9  1  0  0  0  0
  2  3  2  0  0  0  0
  4 12  1  0  0  0  0
  5  6  1  0  0  0  0
  5 11  2  0  0  0  0
  6 20  1  6  0  0  0
  6  2  1  0  0  0  0
  7  1  1  0  0  0  0
  7  8  2  0  0  0  0
  8  4  1  0  0  0  0
  9  4  1  0  0  0  0
  9 10  2  0  0  0  0
 10 13  1  0  0  0  0
 11  7  1  0  0  0  0
 12 13  1  0  0  0  0
 14 23  1  0  0  0  0
 14 18  1  0  0  0  0
 15 19  1  0  0  0  0
 15 16  2  0  0  0  0
 16 20  1  0  0  0  0
 17 20  1  0  0  0  0
 18 21  1  6  0  0  0
 18 19  1  0  0  0  0
 19 17  2  0  0  0  0
 22 15  1  0  0  0  0
 23 25  1  6  0  0  0
 23 22  1  0  0  0  0
 24 25  1  0  0  0  0
 26 27  1  1  0  0  0
 26  5  1  0  0  0  0
 28 29  1  0  0  0  0
 28 26  1  0  0  0  0
 30 29  1  6  0  0  0
 32 34  1  0  0  0  0
 33 31  2  0  0  0  0
 34 36  2  0  0  0  0
 34 37  1  0  0  0  0
 35 36  1  0  0  0  0
 36 33  1  0  0  0  0
 37 38  2  0  0  0  0
 38 31  1  0  0  0  0
 38 30  1  0  0  0  0
 39 41  1  0  0  0  0
 40 30  1  6  0  0  0
 40 39  1  0  0  0  0
 40 41  1  0  0  0  0
 41 43  1  1  0  0  0
 43 42  1  0  0  0  0
 44 10  1  0  0  0  0
 45 46  3  0  0  0  0
 46 44  1  0  0  0  0
M  END
>  <MODEL>
4

>  <REMARK>
 VINA RESULT:      -6.8      3.514      9.129
  Name = 
  11 active torsions:
  status: ('A' for Active; 'I' for Inactive)
    1  A    between atoms: C_3  and  C_17
    2  A    between atoms: C_3  and  C_42
    3  A    between atoms: C_3  and  C_44
    4  A    between atoms: C_8  and  C_16
    5  A    between atoms: C_8  and  C_28
    6  A    between atoms: C_12  and  C_19
    7  A    between atoms: C_18  and  N_27
    8  A    between atoms: C_28  and  C_44
    9  A    between atoms: C_34  and  N_45
   10  A    between atoms: C_36  and  O_43
   11  A    between atoms: N_45  and  C_46
                            x       y       z     vdW  Elec       q    Type
                         _______ _______ _______ _____ _____    ______ ____

>  <TORSDO>
F 11

$$$$
=
 OpenBabel11042420583D

 46 52  0  0  1  0  0  0  0  0999 V2000
  159.0960  212.5500  154.1520 C   0  0  2  0  0  3  0  0  0  0  0  0
  158.7090  212.2530  151.7390 C   0  0  0  0  0  3  0  0  0  0  0  0
  158.1930  212.4130  152.9620 C   0  0  0  0  0  3  0  0  0  0  0  0
  158.6930  211.4620  156.2080 N   0  0  0  0  0  0  0  0  0  0  0  0
  160.8170  210.9400  152.1130 C   0  0  0  0  0  0  0  0  0  0  0  0
  160.1990  212.2020  151.5360 C   0  0  1  0  0  3  0  0  0  0  0  0
  159.8360  211.2390  154.3490 C   0  0  0  0  0  0  0  0  0  0  0  0
  159.5560  210.6520  155.4720 N   0  0  0  0  0  0  0  0  0  0  0  0
  158.3340  212.5640  155.4380 C   0  0  0  0  0  0  0  0  0  0  0  0
  157.2300  213.1880  155.8210 C   0  0  0  0  0  0  0  0  0  0  0  0
  160.6370  210.5850  153.3560 N   0  0  0  0  0  0  0  0  0  0  0  0
  157.6750  211.0200  157.1350 C   0  0  0  0  0  2  0  0  0  0  0  0
  156.4750  212.4070  157.2500 S   0  0  0  0  0  0  0  0  0  0  0  0
  160.9770  213.0240  145.5960 C   0  0  0  0  0  2  0  0  0  0  0  0
  161.6680  212.5950  148.3220 C   0  0  0  0  0  0  0  0  0  0  0  0
  161.7610  212.2900  149.6270 N   0  0  0  0  0  0  0  0  0  0  0  0
  159.6500  212.7640  149.1770 C   0  0  0  0  0  3  0  0  0  0  0  0
  159.9100  213.3430  146.6550 C   0  0  2  0  0  3  0  0  0  0  0  0
  160.3610  212.8610  148.0000 C   0  0  0  0  0  0  0  0  0  0  0  0
  160.5360  212.3980  150.1280 N   0  0  0  0  0  0  0  0  0  0  0  0
  158.7090  212.7310  146.3000 O   0  0  0  0  0  1  0  0  0  0  0  0
  162.7800  212.5650  147.3220 C   0  0  0  0  0  2  0  0  0  0  0  0
  162.3900  213.3930  146.0880 C   0  0  1  0  0  3  0  0  0  0  0  0
  162.5700  213.2150  143.8900 C   0  0  0  0  0  1  0  0  0  0  0  0
  163.3190  213.1750  145.0670 O   0  0  0  0  0  0  0  0  0  0  0  0
  161.6750  210.0690  151.2360 C   0  0  1  0  0  3  0  0  0  0  0  0
  163.0920  209.9390  151.7740 C   0  0  0  0  0  1  0  0  0  0  0  0
  161.0320  208.7110  150.9470 C   0  0  0  0  0  2  0  0  0  0  0  0
  161.8180  207.9080  149.9160 C   0  0  0  0  0  2  0  0  0  0  0  0
  161.1470  206.5700  149.6390 C   0  0  1  0  0  3  0  0  0  0  0  0
  160.1420  206.5970  147.3170 C   0  0  0  0  0  3  0  0  0  0  0  0
  163.5470  204.4910  145.7870 C   0  0  0  0  0  1  0  0  0  0  0  0
  160.2130  206.2840  145.9560 C   0  0  0  0  0  3  0  0  0  0  0  0
  162.3540  205.2170  146.3050 C   0  0  0  0  0  0  0  0  0  0  0  0
  161.3640  205.2870  144.0940 O   0  0  0  0  0  1  0  0  0  0  0  0
  161.3130  205.5880  145.4480 C   0  0  0  0  0  0  0  0  0  0  0  0
  162.2830  205.5320  147.6660 C   0  0  0  0  0  3  0  0  0  0  0  0
  161.1750  206.2090  148.1810 C   0  0  0  0  0  0  0  0  0  0  0  0
  161.3510  205.5550  151.7880 O   0  0  0  0  0  0  0  0  0  0  0  0
  161.8120  205.4820  150.4620 C   0  0  1  0  0  3  0  0  0  0  0  0
  160.7930  204.5500  150.9810 C   0  0  1  0  0  3  0  0  0  0  0  0
  160.7460  202.6360  152.3860 O   0  0  0  0  0  1  0  0  0  0  0  0
  161.4320  203.2240  151.3240 C   0  0  0  0  0  2  0  0  0  0  0  0
  156.5970  214.2640  155.1230 N   0  0  0  0  0  2  0  0  0  0  0  0
  154.4290  214.0100  153.7820 N   0  0  0  0  0  0  0  0  0  0  0  0
  155.4090  214.1260  154.3880 C   0  0  0  0  0  0  0  0  0  0  0  0
  1  3  1  6  0  0  0
  1  7  1  0  0  0  0
  1  9  1  0  0  0  0
  2  3  2  0  0  0  0
  4 12  1  0  0  0  0
  5 11  2  0  0  0  0
  6 20  1  6  0  0  0
  6  2  1  0  0  0  0
  6  5  1  0  0  0  0
  7  8  2  0  0  0  0
  8  4  1  0  0  0  0
  9 10  2  0  0  0  0
  9  4  1  0  0  0  0
 10 13  1  0  0  0  0
 11  7  1  0  0  0  0
 12 13  1  0  0  0  0
 14 23  1  0  0  0  0
 14 18  1  0  0  0  0
 15 16  2  0  0  0  0
 16 20  1  0  0  0  0
 17 20  1  0  0  0  0
 18 21  1  6  0  0  0
 18 19  1  0  0  0  0
 19 15  1  0  0  0  0
 19 17  2  0  0  0  0
 22 15  1  0  0  0  0
 23 25  1  6  0  0  0
 23 22  1  0  0  0  0
 24 25  1  0  0  0  0
 26 27  1  1  0  0  0
 26  5  1  0  0  0  0
 28 26  1  0  0  0  0
 29 28  1  0  0  0  0
 30 29  1  6  0  0  0
 31 38  1  0  0  0  0
 32 34  1  0  0  0  0
 33 31  2  0  0  0  0
 34 37  1  0  0  0  0
 35 36  1  0  0  0  0
 36 33  1  0  0  0  0
 36 34  2  0  0  0  0
 37 38  2  0  0  0  0
 38 30  1  0  0  0  0
 40 30  1  6  0  0  0
 40 41  1  0  0  0  0
 40 39  1  0  0  0  0
 41 43  1  1  0  0  0
 41 39  1  0  0  0  0
 43 42  1  0  0  0  0
 44 10  1  0  0  0  0
 45 46  3  0  0  0  0
 46 44  1  0  0  0  0
M  END
>  <MODEL>
5

>  <REMARK>
 VINA RESULT:      -6.5      4.114      9.189
  Name = 
  11 active torsions:
  status: ('A' for Active; 'I' for Inactive)
    1  A    between atoms: C_3  and  C_17
    2  A    between atoms: C_3  and  C_42
    3  A    between atoms: C_3  and  C_44
    4  A    between atoms: C_8  and  C_16
    5  A    between atoms: C_8  and  C_28
    6  A    between atoms: C_12  and  C_19
    7  A    between atoms: C_18  and  N_27
    8  A    between atoms: C_28  and  C_44
    9  A    between atoms: C_34  and  N_45
   10  A    between atoms: C_36  and  O_43
   11  A    between atoms: N_45  and  C_46
                            x       y       z     vdW  Elec       q    Type
                         _______ _______ _______ _____ _____    ______ ____

>  <TORSDO>
F 11

$$$$
=
 OpenBabel11042420583D

 46 52  0  0  1  0  0  0  0  0999 V2000
  161.6250  209.7690  153.4460 C   0  0  2  0  0  3  0  0  0  0  0  0
  160.4840  210.8660  151.5600 C   0  0  0  0  0  3  0  0  0  0  0  0
  160.4940  210.5620  152.8620 C   0  0  0  0  0  3  0  0  0  0  0  0
  161.3070  208.0180  154.9970 N   0  0  0  0  0  0  0  0  0  0  0  0
  161.6000  208.9080  150.4510 C   0  0  0  0  0  0  0  0  0  0  0  0
  161.6000  210.4130  150.6580 C   0  0  1  0  0  3  0  0  0  0  0  0
  161.5910  208.3720  152.8510 C   0  0  0  0  0  0  0  0  0  0  0  0
  161.3720  207.4420  153.7300 N   0  0  0  0  0  0  0  0  0  0  0  0
  161.3780  209.4020  154.8740 C   0  0  0  0  0  0  0  0  0  0  0  0
  160.9230  210.0890  155.9110 C   0  0  0  0  0  0  0  0  0  0  0  0
  161.6170  208.0690  151.4490 N   0  0  0  0  0  0  0  0  0  0  0  0
  160.5150  207.5550  156.1150 C   0  0  0  0  0  2  0  0  0  0  0  0
  160.3060  209.0160  157.2110 S   0  0  0  0  0  0  0  0  0  0  0  0
  162.0050  213.8060  145.6700 C   0  0  0  0  0  2  0  0  0  0  0  0
  160.9840  211.8500  147.4660 C   0  0  0  0  0  0  0  0  0  0  0  0
  160.6140  211.0690  148.4940 N   0  0  0  0  0  0  0  0  0  0  0  0
  162.5690  211.9750  148.9840 C   0  0  0  0  0  3  0  0  0  0  0  0
  162.9410  213.3110  146.7840 C   0  0  2  0  0  3  0  0  0  0  0  0
  162.1810  212.4580  147.7520 C   0  0  0  0  0  0  0  0  0  0  0  0
  161.5810  211.1540  149.4000 N   0  0  0  0  0  0  0  0  0  0  0  0
  163.4990  214.4070  147.4400 O   0  0  0  0  0  1  0  0  0  0  0  0
  160.1940  212.1180  146.2250 C   0  0  0  0  0  2  0  0  0  0  0  0
  161.1190  212.6680  145.1290 C   0  0  1  0  0  3  0  0  0  0  0  0
  159.5270  214.1150  144.6130 C   0  0  0  0  0  1  0  0  0  0  0  0
  160.3510  213.1340  144.0590 O   0  0  0  0  0  0  0  0  0  0  0  0
  161.5900  208.3560  149.0500 C   0  0  1  0  0  3  0  0  0  0  0  0
  162.9930  208.2410  148.4740 C   0  0  0  0  0  1  0  0  0  0  0  0
  160.8040  207.0480  148.9410 C   0  0  0  0  0  2  0  0  0  0  0  0
  160.6230  206.6040  147.4940 C   0  0  0  0  0  2  0  0  0  0  0  0
  161.4380  205.3530  147.1990 C   0  0  1  0  0  3  0  0  0  0  0  0
  160.9960  202.9400  147.8230 C   0  0  0  0  0  3  0  0  0  0  0  0
  161.1680  203.9530  151.9840 C   0  0  0  0  0  1  0  0  0  0  0  0
  160.8250  201.9440  148.7890 C   0  0  0  0  0  3  0  0  0  0  0  0
  161.0980  203.5870  150.5420 C   0  0  0  0  0  0  0  0  0  0  0  0
  160.6970  201.2610  151.0920 O   0  0  0  0  0  1  0  0  0  0  0  0
  160.8690  202.2640  150.1490 C   0  0  0  0  0  0  0  0  0  0  0  0
  161.2710  204.5820  149.5740 C   0  0  0  0  0  3  0  0  0  0  0  0
  161.2070  204.2690  148.2140 C   0  0  0  0  0  0  0  0  0  0  0  0
  160.0830  205.6230  145.2550 O   0  0  0  0  0  0  0  0  0  0  0  0
  161.1150  204.8440  145.8060 C   0  0  1  0  0  3  0  0  0  0  0  0
  161.3870  205.8990  144.8100 C   0  0  1  0  0  3  0  0  0  0  0  0
  161.5910  206.2820  142.4760 O   0  0  0  0  0  1  0  0  0  0  0  0
  161.5870  205.2800  143.4460 C   0  0  0  0  0  2  0  0  0  0  0  0
  160.7800  211.5100  155.9700 N   0  0  0  0  0  2  0  0  0  0  0  0
  158.6290  212.7580  155.3520 N   0  0  0  0  0  0  0  0  0  0  0  0
  159.6010  212.1920  155.6310 C   0  0  0  0  0  0  0  0  0  0  0  0
  1  3  1  6  0  0  0
  1  9  1  0  0  0  0
  2  3  2  0  0  0  0
  4 12  1  0  0  0  0
  5  6  1  0  0  0  0
  5 11  2  0  0  0  0
  6 20  1  6  0  0  0
  6  2  1  0  0  0  0
  7  1  1  0  0  0  0
  7  8  2  0  0  0  0
  8  4  1  0  0  0  0
  9  4  1  0  0  0  0
  9 10  2  0  0  0  0
 10 44  1  0  0  0  0
 10 13  1  0  0  0  0
 11  7  1  0  0  0  0
 12 13  1  0  0  0  0
 14 18  1  0  0  0  0
 15 19  1  0  0  0  0
 15 16  2  0  0  0  0
 16 20  1  0  0  0  0
 17 20  1  0  0  0  0
 18 21  1  1  0  0  0
 18 19  1  0  0  0  0
 19 17  2  0  0  0  0
 22 15  1  0  0  0  0
 23 25  1  6  0  0  0
 23 14  1  0  0  0  0
 23 22  1  0  0  0  0
 25 24  1  0  0  0  0
 26 27  1  1  0  0  0
 26  5  1  0  0  0  0
 28 26  1  0  0  0  0
 29 28  1  0  0  0  0
 30 29  1  1  0  0  0
 30 38  1  0  0  0  0
 31 38  2  0  0  0  0
 31 33  1  0  0  0  0
 33 36  2  0  0  0  0
 34 32  1  0  0  0  0
 36 34  1  0  0  0  0
 36 35  1  0  0  0  0
 37 34  2  0  0  0  0
 38 37  1  0  0  0  0
 39 40  1  0  0  0  0
 40 30  1  1  0  0  0
 41 43  1  6  0  0  0
 41 39  1  0  0  0  0
 41 40  1  0  0  0  0
 42 43  1  0  0  0  0
 45 46  3  0  0  0  0
 46 44  1  0  0  0  0
M  END
>  <MODEL>
6

>  <REMARK>
 VINA RESULT:      -6.4      3.657      9.079
  Name = 
  11 active torsions:
  status: ('A' for Active; 'I' for Inactive)
    1  A    between atoms: C_3  and  C_17
    2  A    between atoms: C_3  and  C_42
    3  A    between atoms: C_3  and  C_44
    4  A    between atoms: C_8  and  C_16
    5  A    between atoms: C_8  and  C_28
    6  A    between atoms: C_12  and  C_19
    7  A    between atoms: C_18  and  N_27
    8  A    between atoms: C_28  and  C_44
    9  A    between atoms: C_34  and  N_45
   10  A    between atoms: C_36  and  O_43
   11  A    between atoms: N_45  and  C_46
                            x       y       z     vdW  Elec       q    Type
                         _______ _______ _______ _____ _____    ______ ____

>  <TORSDO>
F 11

$$$$
=
 OpenBabel11042420583D

 46 52  0  0  1  0  0  0  0  0999 V2000
  159.7180  213.0040  152.2800 C   0  0  2  0  0  3  0  0  0  0  0  0
  158.9350  212.6270  149.9770 C   0  0  0  0  0  3  0  0  0  0  0  0
  158.6340  212.7500  151.2740 C   0  0  0  0  0  3  0  0  0  0  0  0
  159.8160  211.9130  154.3720 N   0  0  0  0  0  0  0  0  0  0  0  0
  161.2060  211.5560  149.9570 C   0  0  0  0  0  0  0  0  0  0  0  0
  160.3600  212.7330  149.5060 C   0  0  1  0  0  3  0  0  0  0  0  0
  160.6200  211.7840  152.3340 C   0  0  0  0  0  0  0  0  0  0  0  0
  160.6140  211.1880  153.4880 N   0  0  0  0  0  0  0  0  0  0  0  0
  159.2050  212.9570  153.6840 C   0  0  0  0  0  0  0  0  0  0  0  0
  158.1270  213.4640  154.2630 C   0  0  0  0  0  0  0  0  0  0  0  0
  161.2950  211.2040  151.2100 N   0  0  0  0  0  0  0  0  0  0  0  0
  159.0380  211.3790  155.4670 C   0  0  0  0  0  2  0  0  0  0  0  0
  157.7340  212.6300  155.8030 S   0  0  0  0  0  0  0  0  0  0  0  0
  161.1620  213.7980  143.6080 C   0  0  0  0  0  2  0  0  0  0  0  0
  159.8220  213.0640  146.0070 C   0  0  0  0  0  0  0  0  0  0  0  0
  159.3600  212.8680  147.2530 N   0  0  0  0  0  0  0  0  0  0  0  0
  161.5440  213.1830  147.3670 C   0  0  0  0  0  3  0  0  0  0  0  0
  162.0310  213.4490  144.8260 C   0  0  2  0  0  3  0  0  0  0  0  0
  161.1730  213.2990  146.0440 C   0  0  0  0  0  0  0  0  0  0  0  0
  160.4120  212.9420  148.0610 N   0  0  0  0  0  0  0  0  0  0  0  0
  162.9770  214.4530  145.0220 O   0  0  0  0  0  1  0  0  0  0  0  0
  159.0030  213.1220  144.7560 C   0  0  0  0  0  2  0  0  0  0  0  0
  159.9080  212.9060  143.5340 C   0  0  1  0  0  3  0  0  0  0  0  0
  160.1000  212.9670  141.3310 C   0  0  0  0  0  1  0  0  0  0  0  0
  159.1930  213.1900  142.3680 O   0  0  0  0  0  0  0  0  0  0  0  0
  161.9810  210.7680  148.9350 C   0  0  1  0  0  3  0  0  0  0  0  0
  163.1990  211.5290  148.4330 C   0  0  0  0  0  1  0  0  0  0  0  0
  162.3320  209.3600  149.4210 C   0  0  0  0  0  2  0  0  0  0  0  0
  161.7730  208.2780  148.5040 C   0  0  0  0  0  2  0  0  0  0  0  0
  161.1860  207.1280  149.3110 C   0  0  1  0  0  3  0  0  0  0  0  0
  161.4160  205.8110  147.1630 C   0  0  0  0  0  3  0  0  0  0  0  0
  160.8530  202.1470  149.3140 C   0  0  0  0  0  1  0  0  0  0  0  0
  161.4490  204.5910  146.4800 C   0  0  0  0  0  3  0  0  0  0  0  0
  161.0430  203.4120  148.5520 C   0  0  0  0  0  0  0  0  0  0  0  0
  161.2940  202.1910  146.4740 O   0  0  0  0  0  1  0  0  0  0  0  0
  161.2570  203.3910  147.1690 C   0  0  0  0  0  0  0  0  0  0  0  0
  161.0120  204.6330  149.2330 C   0  0  0  0  0  3  0  0  0  0  0  0
  161.1830  205.8360  148.5440 C   0  0  0  0  0  0  0  0  0  0  0  0
  161.4190  207.8340  151.5780 O   0  0  0  0  0  0  0  0  0  0  0  0
  161.9540  206.9660  150.6100 C   0  0  1  0  0  3  0  0  0  0  0  0
  161.0520  206.4810  151.6710 C   0  0  1  0  0  3  0  0  0  0  0  0
  161.0050  205.4610  153.8150 O   0  0  0  0  0  1  0  0  0  0  0  0
  161.8550  205.8230  152.7700 C   0  0  0  0  0  2  0  0  0  0  0  0
  157.2640  214.4530  153.6950 N   0  0  0  0  0  2  0  0  0  0  0  0
  154.7330  214.1550  153.4320 N   0  0  0  0  0  0  0  0  0  0  0  0
  155.8780  214.2900  153.5490 C   0  0  0  0  0  0  0  0  0  0  0  0
  1  3  1  6  0  0  0
  1  7  1  0  0  0  0
  1  9  1  0  0  0  0
  2  3  2  0  0  0  0
  4 12  1  0  0  0  0
  5 11  2  0  0  0  0
  6 20  1  6  0  0  0
  6  5  1  0  0  0  0
  6  2  1  0  0  0  0
  7  8  2  0  0  0  0
  8  4  1  0  0  0  0
  9 10  2  0  0  0  0
  9  4  1  0  0  0  0
 10 13  1  0  0  0  0
 11  7  1  0  0  0  0
 12 13  1  0  0  0  0
 14 18  1  0  0  0  0
 15 19  1  0  0  0  0
 15 16  2  0  0  0  0
 16 20  1  0  0  0  0
 17 20  1  0  0  0  0
 18 21  1  1  0  0  0
 18 19  1  0  0  0  0
 19 17  2  0  0  0  0
 22 15  1  0  0  0  0
 23 25  1  6  0  0  0
 23 14  1  0  0  0  0
 23 22  1  0  0  0  0
 24 25  1  0  0  0  0
 26 27  1  1  0  0  0
 26 28  1  0  0  0  0
 26  5  1  0  0  0  0
 29 28  1  0  0  0  0
 30 29  1  6  0  0  0
 31 38  1  0  0  0  0
 33 31  2  0  0  0  0
 33 36  1  0  0  0  0
 34 37  1  0  0  0  0
 34 32  1  0  0  0  0
 35 36  1  0  0  0  0
 36 34  2  0  0  0  0
 38 37  2  0  0  0  0
 38 30  1  0  0  0  0
 39 41  1  0  0  0  0
 40 30  1  6  0  0  0
 40 39  1  0  0  0  0
 40 41  1  0  0  0  0
 41 43  1  1  0  0  0
 43 42  1  0  0  0  0
 44 10  1  0  0  0  0
 45 46  3  0  0  0  0
 46 44  1  0  0  0  0
M  END
>  <MODEL>
7

>  <REMARK>
 VINA RESULT:      -5.8      3.969      9.533
  Name = 
  11 active torsions:
  status: ('A' for Active; 'I' for Inactive)
    1  A    between atoms: C_3  and  C_17
    2  A    between atoms: C_3  and  C_42
    3  A    between atoms: C_3  and  C_44
    4  A    between atoms: C_8  and  C_16
    5  A    between atoms: C_8  and  C_28
    6  A    between atoms: C_12  and  C_19
    7  A    between atoms: C_18  and  N_27
    8  A    between atoms: C_28  and  C_44
    9  A    between atoms: C_34  and  N_45
   10  A    between atoms: C_36  and  O_43
   11  A    between atoms: N_45  and  C_46
                            x       y       z     vdW  Elec       q    Type
                         _______ _______ _______ _____ _____    ______ ____

>  <TORSDO>
F 11

$$$$
=
 OpenBabel11042420583D

 46 52  0  0  1  0  0  0  0  0999 V2000
  160.2960  212.4560  152.1970 C   0  0  2  0  0  3  0  0  0  0  0  0
  159.5400  212.4870  149.8540 C   0  0  0  0  0  3  0  0  0  0  0  0
  159.2210  212.5310  151.1520 C   0  0  0  0  0  3  0  0  0  0  0  0
  160.1000  211.1540  154.1560 N   0  0  0  0  0  0  0  0  0  0  0  0
  161.5550  210.9920  149.7510 C   0  0  0  0  0  0  0  0  0  0  0  0
  160.9740  212.3560  149.4190 C   0  0  1  0  0  3  0  0  0  0  0  0
  160.9380  211.0820  152.1300 C   0  0  0  0  0  0  0  0  0  0  0  0
  160.7720  210.3820  153.2100 N   0  0  0  0  0  0  0  0  0  0  0  0
  159.7320  212.3650  153.5780 C   0  0  0  0  0  0  0  0  0  0  0  0
  158.7540  213.0130  154.1940 C   0  0  0  0  0  0  0  0  0  0  0  0
  161.5270  210.5000  150.9590 N   0  0  0  0  0  0  0  0  0  0  0  0
  159.1920  210.6740  155.1740 C   0  0  0  0  0  2  0  0  0  0  0  0
  158.1480  212.1180  155.6260 S   0  0  0  0  0  0  0  0  0  0  0  0
  160.9760  213.6200  143.5070 C   0  0  0  0  0  2  0  0  0  0  0  0
  161.9910  213.2880  146.1430 C   0  0  0  0  0  0  0  0  0  0  0  0
  162.2780  212.9660  147.4150 N   0  0  0  0  0  0  0  0  0  0  0  0
  160.0880  212.8400  147.1470 C   0  0  0  0  0  3  0  0  0  0  0  0
  159.9580  213.5760  144.6570 C   0  0  2  0  0  3  0  0  0  0  0  0
  160.6400  213.1850  145.9320 C   0  0  0  0  0  0  0  0  0  0  0  0
  161.1200  212.7000  148.0070 N   0  0  0  0  0  0  0  0  0  0  0  0
  158.9500  212.6650  144.3480 O   0  0  0  0  0  1  0  0  0  0  0  0
  162.9770  213.6170  145.0670 C   0  0  0  0  0  2  0  0  0  0  0  0
  162.2670  214.3530  143.9200 C   0  0  1  0  0  3  0  0  0  0  0  0
  162.5370  213.6630  141.8360 C   0  0  0  0  0  1  0  0  0  0  0  0
  163.1280  214.4520  142.8250 O   0  0  0  0  0  0  0  0  0  0  0  0
  162.1980  210.1780  148.6600 C   0  0  1  0  0  3  0  0  0  0  0  0
  163.5360  210.7580  148.2290 C   0  0  0  0  0  1  0  0  0  0  0  0
  162.2920  208.6920  149.0150 C   0  0  0  0  0  2  0  0  0  0  0  0
  161.1210  207.8910  148.4580 C   0  0  0  0  0  2  0  0  0  0  0  0
  161.5410  206.4650  148.1310 C   0  0  1  0  0  3  0  0  0  0  0  0
  161.5200  206.0090  150.6200 C   0  0  0  0  0  3  0  0  0  0  0  0
  160.4830  201.9140  149.8920 C   0  0  0  0  0  1  0  0  0  0  0  0
  161.3300  205.1370  151.6970 C   0  0  0  0  0  3  0  0  0  0  0  0
  160.8500  203.3330  150.1610 C   0  0  0  0  0  0  0  0  0  0  0  0
  160.8180  202.9490  152.5530 O   0  0  0  0  0  1  0  0  0  0  0  0
  161.0020  203.7980  151.4710 C   0  0  0  0  0  0  0  0  0  0  0  0
  161.0380  204.2070  149.0850 C   0  0  0  0  0  3  0  0  0  0  0  0
  161.3870  205.5410  149.3060 C   0  0  0  0  0  0  0  0  0  0  0  0
  160.9020  206.8240  145.8610 O   0  0  0  0  0  0  0  0  0  0  0  0
  160.7380  205.9500  146.9500 C   0  0  1  0  0  3  0  0  0  0  0  0
  161.6420  205.6300  145.8280 C   0  0  1  0  0  3  0  0  0  0  0  0
  161.6470  203.4360  144.9220 O   0  0  0  0  0  1  0  0  0  0  0  0
  160.9720  204.6560  144.8880 C   0  0  0  0  0  2  0  0  0  0  0  0
  158.1250  214.2090  153.7250 N   0  0  0  0  0  2  0  0  0  0  0  0
  156.1480  214.2370  152.0940 N   0  0  0  0  0  0  0  0  0  0  0  0
  157.0420  214.2230  152.8310 C   0  0  0  0  0  0  0  0  0  0  0  0
  1  3  1  6  0  0  0
  1  9  1  0  0  0  0
  2  3  2  0  0  0  0
  4 12  1  0  0  0  0
  5 11  2  0  0  0  0
  6 20  1  6  0  0  0
  6  5  1  0  0  0  0
  6  2  1  0  0  0  0
  7  1  1  0  0  0  0
  7  8  2  0  0  0  0
  8  4  1  0  0  0  0
  9  4  1  0  0  0  0
  9 10  2  0  0  0  0
 10 13  1  0  0  0  0
 11  7  1  0  0  0  0
 12 13  1  0  0  0  0
 14 23  1  0  0  0  0
 14 18  1  0  0  0  0
 15 16  2  0  0  0  0
 16 20  1  0  0  0  0
 17 20  1  0  0  0  0
 18 21  1  6  0  0  0
 18 19  1  0  0  0  0
 19 15  1  0  0  0  0
 19 17  2  0  0  0  0
 22 15  1  0  0  0  0
 23 25  1  6  0  0  0
 23 22  1  0  0  0  0
 24 25  1  0  0  0  0
 26 27  1  1  0  0  0
 26 28  1  0  0  0  0
 26  5  1  0  0  0  0
 29 28  1  0  0  0  0
 30 29  1  1  0  0  0
 30 38  1  0  0  0  0
 31 33  1  0  0  0  0
 32 34  1  0  0  0  0
 34 36  1  0  0  0  0
 36 33  2  0  0  0  0
 36 35  1  0  0  0  0
 37 38  1  0  0  0  0
 37 34  2  0  0  0  0
 38 31  2  0  0  0  0
 39 40  1  0  0  0  0
 40 30  1  1  0  0  0
 41 43  1  6  0  0  0
 41 39  1  0  0  0  0
 41 40  1  0  0  0  0
 43 42  1  0  0  0  0
 44 10  1  0  0  0  0
 45 46  3  0  0  0  0
 46 44  1  0  0  0  0
M  END
>  <MODEL>
8

>  <REMARK>
 VINA RESULT:      -5.7      4.028      9.796
  Name = 
  11 active torsions:
  status: ('A' for Active; 'I' for Inactive)
    1  A    between atoms: C_3  and  C_17
    2  A    between atoms: C_3  and  C_42
    3  A    between atoms: C_3  and  C_44
    4  A    between atoms: C_8  and  C_16
    5  A    between atoms: C_8  and  C_28
    6  A    between atoms: C_12  and  C_19
    7  A    between atoms: C_18  and  N_27
    8  A    between atoms: C_28  and  C_44
    9  A    between atoms: C_34  and  N_45
   10  A    between atoms: C_36  and  O_43
   11  A    between atoms: N_45  and  C_46
                            x       y       z     vdW  Elec       q    Type
                         _______ _______ _______ _____ _____    ______ ____

>  <TORSDO>
F 11

$$$$
=
 OpenBabel11042420583D

 46 52  0  0  1  0  0  0  0  0999 V2000
  161.5400  210.7000  153.5000 C   0  0  2  0  0  3  0  0  0  0  0  0
  160.3630  211.4630  151.4770 C   0  0  0  0  0  3  0  0  0  0  0  0
  160.3430  211.2750  152.8010 C   0  0  0  0  0  3  0  0  0  0  0  0
  161.3810  209.0590  155.1900 N   0  0  0  0  0  0  0  0  0  0  0  0
  161.7940  209.5960  150.5970 C   0  0  0  0  0  0  0  0  0  0  0  0
  161.5770  211.0980  150.6670 C   0  0  1  0  0  3  0  0  0  0  0  0
  161.7290  209.2680  153.0340 C   0  0  0  0  0  0  0  0  0  0  0  0
  161.5920  208.3930  153.9830 N   0  0  0  0  0  0  0  0  0  0  0  0
  161.2690  210.4240  154.9440 C   0  0  0  0  0  0  0  0  0  0  0  0
  160.6690  211.1240  155.8950 C   0  0  0  0  0  0  0  0  0  0  0  0
  161.8720  208.8550  151.6680 N   0  0  0  0  0  0  0  0  0  0  0  0
  160.6010  208.5850  156.3110 C   0  0  0  0  0  2  0  0  0  0  0  0
  160.1350  210.0890  157.2610 S   0  0  0  0  0  0  0  0  0  0  0  0
  160.7450  213.5510  145.2040 C   0  0  0  0  0  2  0  0  0  0  0  0
  162.1330  212.6480  147.5170 C   0  0  0  0  0  0  0  0  0  0  0  0
  162.5920  212.0620  148.6340 N   0  0  0  0  0  0  0  0  0  0  0  0
  160.3840  212.0700  148.7150 C   0  0  0  0  0  3  0  0  0  0  0  0
  159.9180  213.3070  146.4760 C   0  0  2  0  0  3  0  0  0  0  0  0
  160.7620  212.6390  147.5170 C   0  0  0  0  0  0  0  0  0  0  0  0
  161.5250  211.7200  149.3470 N   0  0  0  0  0  0  0  0  0  0  0  0
  158.8150  212.5150  146.1650 O   0  0  0  0  0  1  0  0  0  0  0  0
  162.9600  213.1570  146.3780 C   0  0  0  0  0  2  0  0  0  0  0  0
  162.1310  214.1370  145.5340 C   0  0  1  0  0  3  0  0  0  0  0  0
  163.0740  213.1850  143.7730 C   0  0  0  0  0  1  0  0  0  0  0  0
  162.8160  214.4290  144.3520 O   0  0  0  0  0  0  0  0  0  0  0  0
  161.9360  208.9320  149.2540 C   0  0  1  0  0  3  0  0  0  0  0  0
  163.0670  209.5360  148.4360 C   0  0  0  0  0  1  0  0  0  0  0  0
  162.0390  207.4090  149.3600 C   0  0  0  0  0  2  0  0  0  0  0  0
  160.8510  206.8010  150.0970 C   0  0  0  0  0  2  0  0  0  0  0  0
  160.6400  205.3490  149.6890 C   0  0  1  0  0  3  0  0  0  0  0  0
  161.8270  204.0020  147.9050 C   0  0  0  0  0  3  0  0  0  0  0  0
  160.2840  206.6060  144.8700 C   0  0  0  0  0  1  0  0  0  0  0  0
  162.1380  203.7660  146.5630 C   0  0  0  0  0  3  0  0  0  0  0  0
  160.8340  205.6960  145.9140 C   0  0  0  0  0  0  0  0  0  0  0  0
  161.9680  204.3630  144.2390 O   0  0  0  0  0  1  0  0  0  0  0  0
  161.6490  204.6140  145.5650 C   0  0  0  0  0  0  0  0  0  0  0  0
  160.5230  205.9300  147.2580 C   0  0  0  0  0  3  0  0  0  0  0  0
  161.0270  205.0970  148.2590 C   0  0  0  0  0  0  0  0  0  0  0  0
  161.1100  204.7450  151.9480 O   0  0  0  0  0  0  0  0  0  0  0  0
  161.4250  204.4360  150.6140 C   0  0  1  0  0  3  0  0  0  0  0  0
  160.4980  203.6040  151.4040 C   0  0  1  0  0  3  0  0  0  0  0  0
  161.3580  201.4590  150.8580 O   0  0  0  0  0  1  0  0  0  0  0  0
  161.2120  202.3700  151.9050 C   0  0  0  0  0  2  0  0  0  0  0  0
  160.3300  212.5120  155.8190 N   0  0  0  0  0  2  0  0  0  0  0  0
  157.9960  213.3780  155.2130 N   0  0  0  0  0  0  0  0  0  0  0  0
  159.0520  212.9870  155.4850 C   0  0  0  0  0  0  0  0  0  0  0  0
  1  3  1  6  0  0  0
  1  9  1  0  0  0  0
  2  3  2  0  0  0  0
  4 12  1  0  0  0  0
  5  6  1  0  0  0  0
  5 11  2  0  0  0  0
  6 20  1  6  0  0  0
  6  2  1  0  0  0  0
  7  1  1  0  0  0  0
  7  8  2  0  0  0  0
  8  4  1  0  0  0  0
  9  4  1  0  0  0  0
  9 10  2  0  0  0  0
 10 13  1  0  0  0  0
 11  7  1  0  0  0  0
 12 13  1  0  0  0  0
 14 23  1  0  0  0  0
 14 18  1  0  0  0  0
 15 16  2  0  0  0  0
 16 20  1  0  0  0  0
 17 20  1  0  0  0  0
 18 21  1  6  0  0  0
 18 19  1  0  0  0  0
 19 15  1  0  0  0  0
 19 17  2  0  0  0  0
 22 15  1  0  0  0  0
 23 25  1  6  0  0  0
 23 22  1  0  0  0  0
 24 25  1  0  0  0  0
 26 27  1  1  0  0  0
 26 28  1  0  0  0  0
 26  5  1  0  0  0  0
 28 29  1  0  0  0  0
 30 29  1  1  0  0  0
 31 38  1  0  0  0  0
 32 34  1  0  0  0  0
 33 31  2  0  0  0  0
 34 37  1  0  0  0  0
 35 36  1  0  0  0  0
 36 34  2  0  0  0  0
 36 33  1  0  0  0  0
 37 38  2  0  0  0  0
 38 30  1  0  0  0  0
 40 30  1  6  0  0  0
 40 41  1  0  0  0  0
 40 39  1  0  0  0  0
 41 43  1  1  0  0  0
 41 39  1  0  0  0  0
 42 43  1  0  0  0  0
 44 10  1  0  0  0  0
 45 46  3  0  0  0  0
 46 44  1  0  0  0  0
M  END
>  <MODEL>
9

>  <REMARK>
 VINA RESULT:      -5.1      3.575      8.842
  Name = 
  11 active torsions:
  status: ('A' for Active; 'I' for Inactive)
    1  A    between atoms: C_3  and  C_17
    2  A    between atoms: C_3  and  C_42
    3  A    between atoms: C_3  and  C_44
    4  A    between atoms: C_8  and  C_16
    5  A    between atoms: C_8  and  C_28
    6  A    between atoms: C_12  and  C_19
    7  A    between atoms: C_18  and  N_27
    8  A    between atoms: C_28  and  C_44
    9  A    between atoms: C_34  and  N_45
   10  A    between atoms: C_36  and  O_43
   11  A    between atoms: N_45  and  C_46
                            x       y       z     vdW  Elec       q    Type
                         _______ _______ _______ _____ _____    ______ ____

>  <TORSDO>
F 11

$$$$
