=
 OpenBabel11042420353D

 49 51  0  0  1  0  0  0  0  0999 V2000
  161.0670  208.8950  152.8310 C   0  0  2  0  0  3  0  0  0  0  0  0
  162.7730  210.5130  152.6790 O   0  0  0  0  0  0  0  0  0  0  0  0
  161.5660  210.3100  152.6550 C   0  0  0  0  0  0  0  0  0  0  0  0
  160.6320  211.4520  152.3710 C   0  0  0  0  0  2  0  0  0  0  0  0
  160.3320  211.5870  150.8820 C   0  0  0  0  0  2  0  0  0  0  0  0
  161.5640  211.7050  150.1180 N   0  0  0  0  0  2  0  0  0  0  0  0
  161.6080  212.3080  148.8180 C   0  0  0  0  0  0  0  0  0  0  0  0
  160.5820  212.8080  148.3130 O   0  0  0  0  0  1  0  0  0  0  0  0
  162.7990  212.3170  148.0970 O   0  0  0  0  0  0  0  0  0  0  0  0
  160.7520  208.6090  154.2750 C   0  0  0  0  0  0  0  0  0  0  0  0
  161.2850  207.6000  154.8280 O   0  0  0  0  0  0  0  0  0  0  0  0
  159.9220  209.4500  155.0330 O   0  0  0  0  0  0  0  0  0  0  0  0
  160.3480  210.6490  155.6850 C   0  0  2  0  0  3  0  0  0  0  0  0
  161.6530  210.4080  156.4340 C   0  0  0  0  0  1  0  0  0  0  0  0
  157.5130  210.8420  155.1960 O   0  0  0  0  0  0  0  0  0  0  0  0
  159.3340  211.1080  156.6250 N   0  0  0  0  0  2  0  0  0  0  0  0
  157.9900  211.3600  156.2430 C   0  0  0  0  0  0  0  0  0  0  0  0
  157.1370  212.2180  157.1380 C   0  0  0  0  0  2  0  0  0  0  0  0
  158.0470  213.8410  155.5660 N   0  0  0  0  0  0  0  0  0  0  0  0
  156.0300  214.1840  154.5070 N   0  0  0  0  0  2  0  0  0  0  0  0
  157.4510  214.1640  154.4560 C   0  0  0  0  0  0  0  0  0  0  0  0
  154.6370  213.8480  156.3910 O   0  0  0  0  0  0  0  0  0  0  0  0
  157.0530  213.6460  156.6170 C   0  0  1  0  0  3  0  0  0  0  0  0
  155.7870  213.8610  155.8760 C   0  0  0  0  0  0  0  0  0  0  0  0
  158.3500  214.4530  152.9480 S   0  0  0  0  0  0  0  0  0  0  0  0
  157.4300  213.8380  150.4700 C   0  0  0  0  0  1  0  0  0  0  0  0
  156.9540  213.9610  151.9020 C   0  0  0  0  0  2  0  0  0  0  0  0
  161.9860  207.8080  152.2600 C   0  0  0  0  0  2  0  0  0  0  0  0
  161.2390  205.9360  150.6550 C   0  0  0  0  0  0  0  0  0  0  0  0
  161.6120  207.2770  150.9020 C   0  0  0  0  0  0  0  0  0  0  0  0
  161.5550  207.7290  148.5140 C   0  0  0  0  0  3  0  0  0  0  0  0
  161.8030  208.1440  149.8200 C   0  0  0  0  0  3  0  0  0  0  0  0
  161.0960  206.4340  148.2670 C   0  0  0  0  0  0  0  0  0  0  0  0
  160.9570  205.5410  149.3360 C   0  0  0  0  0  3  0  0  0  0  0  0
  161.2660  204.8980  151.7460 C   0  0  2  0  0  3  0  0  0  0  0  0
  162.6440  204.2760  151.8910 C   0  0  0  0  0  1  0  0  0  0  0  0
  160.5540  202.6760  152.3630 O   0  0  0  0  0  1  0  0  0  0  0  0
  160.1920  203.8180  151.6430 C   0  0  0  0  0  2  0  0  0  0  0  0
  160.8110  205.8580  146.5810 S   0  0  0  0  0  0  0  0  0  0  0  0
  160.8680  202.4230  145.8960 C   0  0  0  0  0  0  0  0  0  0  0  0
  161.5330  203.5570  147.8120 N   0  0  0  0  0  2  0  0  0  0  0  0
  159.9190  201.5630  144.8880 S   0  0  0  0  0  0  0  0  0  0  0  0
  161.5940  203.5430  145.4540 N   0  0  0  0  0  2  0  0  0  0  0  0
  160.5900  202.5510  147.3380 C   0  0  2  0  0  3  0  0  0  0  0  0
  161.8770  204.3560  146.6260 C   0  0  1  0  0  0  0  0  0  0  0  0
  163.2310  204.6990  146.6440 O   0  0  0  0  0  1  0  0  0  0  0  0
  162.0560  200.9150  148.3510 O   0  0  0  0  0  1  0  0  0  0  0  0
  160.0380  201.3480  149.3370 O   0  0  0  0  0  1  0  0  0  0  0  0
  160.7170  201.2410  148.1150 C   0  0  0  0  0  3  0  0  0  0  0  0
  1 28  1  1  0  0  0
  1 10  1  0  0  0  0
  3  2  2  0  0  0  0
  3  1  1  0  0  0  0
  4  3  1  0  0  0  0
  5  4  1  0  0  0  0
  6  5  1  0  0  0  0
  7  6  1  0  0  0  0
  8  7  1  0  0  0  0
  9  7  2  0  0  0  0
 10 11  2  0  0  0  0
 10 12  1  0  0  0  0
 12 13  1  0  0  0  0
 13 14  1  1  0  0  0
 13 16  1  0  0  0  0
 15 17  2  0  0  0  0
 17 16  1  0  0  0  0
 17 18  1  0  0  0  0
 19 23  1  0  0  0  0
 20 24  1  0  0  0  0
 21 20  1  0  0  0  0
 21 19  2  0  0  0  0
 23 18  1  6  0  0  0
 24 22  2  0  0  0  0
 24 23  1  0  0  0  0
 25 21  1  0  0  0  0
 26 27  1  0  0  0  0
 27 25  1  0  0  0  0
 29 30  1  0  0  0  0
 29 35  1  0  0  0  0
 30 28  1  0  0  0  0
 31 32  1  0  0  0  0
 32 30  2  0  0  0  0
 33 31  2  0  0  0  0
 33 34  1  0  0  0  0
 34 29  2  0  0  0  0
 35 36  1  6  0  0  0
 38 35  1  0  0  0  0
 38 37  1  0  0  0  0
 39 45  1  0  0  0  0
 39 33  1  0  0  0  0
 40 44  1  0  0  0  0
 42 40  2  0  0  0  0
 43 40  1  0  0  0  0
 43 45  1  0  0  0  0
 44 41  1  0  0  0  0
 44 49  1  1  0  0  0
 45 46  1  1  0  0  0
 45 41  1  0  0  0  0
 49 47  1  0  0  0  0
 49 48  1  0  0  0  0
M  END
>  <MODEL>
1

>  <REMARK>
 VINA RESULT:      -5.8      0.000      0.000
  Name = 
  19 active torsions:
  status: ('A' for Active; 'I' for Inactive)
    1  A    between atoms: C_2  and  O_7
    2  A    between atoms: C_2  and  N_35
    3  A    between atoms: C_3  and  C_12
    4  A    between atoms: S_4  and  C_27
    5  A    between atoms: S_4  and  C_32
    6  A    between atoms: O_7  and  C_10
    7  A    between atoms: C_8  and  C_46
    8  A    between atoms: C_9  and  C_25
    9  A    between atoms: C_9  and  C_43
   10  A    between atoms: C_10  and  C_24
   11  A    between atoms: C_12  and  C_36
   12  A    between atoms: N_14  and  C_25
   13  A    between atoms: C_24  and  C_43
   14  A    between atoms: C_24  and  C_46
   15  A    between atoms: C_28  and  S_41
   16  A    between atoms: CA_30  and  C_45
   17  A    between atoms: C_31  and  S_41
   18  A    between atoms: C_39  and  C_42
   19  A    between atoms: C_42  and  C_49
                            x       y       z     vdW  Elec       q    Type
                         _______ _______ _______ _____ _____    ______ ____

>  <TORSDO>
F 19

$$$$
=
 OpenBabel11042420353D

 49 51  0  0  1  0  0  0  0  0999 V2000
  159.8920  211.1200  152.3770 C   0  0  2  0  0  3  0  0  0  0  0  0
  158.6530  210.4570  154.2690 O   0  0  0  0  0  0  0  0  0  0  0  0
  159.6600  211.0250  153.8670 C   0  0  0  0  0  0  0  0  0  0  0  0
  160.6670  211.5310  154.8610 C   0  0  0  0  0  2  0  0  0  0  0  0
  161.1860  210.4190  155.7640 C   0  0  0  0  0  2  0  0  0  0  0  0
  161.0680  209.1250  155.1090 N   0  0  0  0  0  2  0  0  0  0  0  0
  160.5920  207.9580  155.7920 C   0  0  0  0  0  0  0  0  0  0  0  0
  160.2070  208.0260  156.9770 O   0  0  0  0  0  1  0  0  0  0  0  0
  160.5790  206.7290  155.1380 O   0  0  0  0  0  0  0  0  0  0  0  0
  160.9330  210.1290  151.9290 C   0  0  0  0  0  0  0  0  0  0  0  0
  162.1130  210.5390  151.7120 O   0  0  0  0  0  0  0  0  0  0  0  0
  160.6440  208.7620  151.7870 O   0  0  0  0  0  0  0  0  0  0  0  0
  161.5340  207.7900  151.2380 C   0  0  2  0  0  3  0  0  0  0  0  0
  161.7730  208.0680  149.7580 C   0  0  0  0  0  1  0  0  0  0  0  0
  162.7130  205.6080  152.7090 O   0  0  0  0  0  0  0  0  0  0  0  0
  160.9850  206.4480  151.3890 N   0  0  0  0  0  2  0  0  0  0  0  0
  161.7210  205.3780  151.9620 C   0  0  0  0  0  0  0  0  0  0  0  0
  161.2650  203.9690  151.6970 C   0  0  0  0  0  2  0  0  0  0  0  0
  160.9560  204.8980  149.4660 N   0  0  0  0  0  0  0  0  0  0  0  0
  161.4080  202.9060  148.4010 N   0  0  0  0  0  2  0  0  0  0  0  0
  161.4150  204.3280  148.3910 C   0  0  0  0  0  0  0  0  0  0  0  0
  160.5330  201.4670  150.0630 O   0  0  0  0  0  0  0  0  0  0  0  0
  160.4800  203.8780  150.3970 C   0  0  1  0  0  3  0  0  0  0  0  0
  160.8110  202.6300  149.6690 C   0  0  0  0  0  0  0  0  0  0  0  0
  162.1060  205.2640  147.0460 S   0  0  0  0  0  0  0  0  0  0  0  0
  161.2120  204.6700  144.5530 C   0  0  0  0  0  1  0  0  0  0  0  0
  161.6970  203.9950  145.8180 C   0  0  0  0  0  2  0  0  0  0  0  0
  160.2340  212.5230  151.8630 C   0  0  0  0  0  2  0  0  0  0  0  0
  160.2830  213.2010  149.3770 C   0  0  0  0  0  0  0  0  0  0  0  0
  159.5760  212.9290  150.5710 C   0  0  0  0  0  0  0  0  0  0  0  0
  157.5100  213.6420  149.5050 C   0  0  0  0  0  3  0  0  0  0  0  0
  158.2020  213.1920  150.6270 C   0  0  0  0  0  3  0  0  0  0  0  0
  158.1830  213.8240  148.2960 C   0  0  0  0  0  0  0  0  0  0  0  0
  159.5660  213.6200  148.2440 C   0  0  0  0  0  3  0  0  0  0  0  0
  161.7890  213.1810  149.3330 C   0  0  2  0  0  3  0  0  0  0  0  0
  162.3320  214.2200  148.3670 C   0  0  0  0  0  1  0  0  0  0  0  0
  161.7510  211.1500  148.0300 O   0  0  0  0  0  1  0  0  0  0  0  0
  162.4140  211.8140  149.0660 C   0  0  0  0  0  2  0  0  0  0  0  0
  157.3180  214.4490  146.8410 S   0  0  0  0  0  0  0  0  0  0  0  0
  159.6400  213.1750  144.5490 C   0  0  0  0  0  0  0  0  0  0  0  0
  157.3450  213.4530  144.3230 N   0  0  0  0  0  2  0  0  0  0  0  0
  161.2330  213.4950  144.4180 S   0  0  0  0  0  0  0  0  0  0  0  0
  159.0730  212.7230  145.7540 N   0  0  0  0  0  2  0  0  0  0  0  0
  158.6180  213.8760  143.7530 C   0  0  2  0  0  3  0  0  0  0  0  0
  157.6550  213.0420  145.7010 C   0  0  1  0  0  0  0  0  0  0  0  0
  156.9070  211.9160  146.0560 O   0  0  0  0  0  1  0  0  0  0  0  0
  157.6540  214.2210  141.5610 O   0  0  0  0  0  1  0  0  0  0  0  0
  159.9260  214.0210  141.7480 O   0  0  0  0  0  1  0  0  0  0  0  0
  158.6920  213.5880  142.2530 C   0  0  0  0  0  3  0  0  0  0  0  0
  1 28  1  1  0  0  0
  1  3  1  0  0  0  0
  3  2  2  0  0  0  0
  3  4  1  0  0  0  0
  4  5  1  0  0  0  0
  6  5  1  0  0  0  0
  6  7  1  0  0  0  0
  7  8  1  0  0  0  0
  9  7  2  0  0  0  0
 10  1  1  0  0  0  0
 11 10  2  0  0  0  0
 12 10  1  0  0  0  0
 13 14  1  6  0  0  0
 13 16  1  0  0  0  0
 13 12  1  0  0  0  0
 16 17  1  0  0  0  0
 17 15  2  0  0  0  0
 18 17  1  0  0  0  0
 19 23  1  0  0  0  0
 20 24  1  0  0  0  0
 21 20  1  0  0  0  0
 21 19  2  0  0  0  0
 23 18  1  1  0  0  0
 24 22  2  0  0  0  0
 24 23  1  0  0  0  0
 25 21  1  0  0  0  0
 26 27  1  0  0  0  0
 27 25  1  0  0  0  0
 29 30  1  0  0  0  0
 30 32  2  0  0  0  0
 30 28  1  0  0  0  0
 31 32  1  0  0  0  0
 33 31  2  0  0  0  0
 34 33  1  0  0  0  0
 34 29  2  0  0  0  0
 35 36  1  6  0  0  0
 35 29  1  0  0  0  0
 37 38  1  0  0  0  0
 38 35  1  0  0  0  0
 39 33  1  0  0  0  0
 40 43  1  0  0  0  0
 41 45  1  0  0  0  0
 42 40  2  0  0  0  0
 44 49  1  6  0  0  0
 44 41  1  0  0  0  0
 44 40  1  0  0  0  0
 45 43  1  0  0  0  0
 45 46  1  1  0  0  0
 45 39  1  0  0  0  0
 47 49  1  0  0  0  0
 48 49  1  0  0  0  0
M  END
>  <MODEL>
2

>  <REMARK>
 VINA RESULT:      -5.2      3.392      9.544
  Name = 
  19 active torsions:
  status: ('A' for Active; 'I' for Inactive)
    1  A    between atoms: C_2  and  O_7
    2  A    between atoms: C_2  and  N_35
    3  A    between atoms: C_3  and  C_12
    4  A    between atoms: S_4  and  C_27
    5  A    between atoms: S_4  and  C_32
    6  A    between atoms: O_7  and  C_10
    7  A    between atoms: C_8  and  C_46
    8  A    between atoms: C_9  and  C_25
    9  A    between atoms: C_9  and  C_43
   10  A    between atoms: C_10  and  C_24
   11  A    between atoms: C_12  and  C_36
   12  A    between atoms: N_14  and  C_25
   13  A    between atoms: C_24  and  C_43
   14  A    between atoms: C_24  and  C_46
   15  A    between atoms: C_28  and  S_41
   16  A    between atoms: CA_30  and  C_45
   17  A    between atoms: C_31  and  S_41
   18  A    between atoms: C_39  and  C_42
   19  A    between atoms: C_42  and  C_49
                            x       y       z     vdW  Elec       q    Type
                         _______ _______ _______ _____ _____    ______ ____

>  <TORSDO>
F 19

$$$$
=
 OpenBabel11042420353D

 49 51  0  0  1  0  0  0  0  0999 V2000
  161.6730  208.0720  151.1350 C   0  0  2  0  0  3  0  0  0  0  0  0
  160.1670  208.9930  152.6960 O   0  0  0  0  0  0  0  0  0  0  0  0
  160.9480  208.0810  152.4600 C   0  0  0  0  0  0  0  0  0  0  0  0
  161.0960  206.9630  153.4540 C   0  0  0  0  0  2  0  0  0  0  0  0
  160.6010  207.3610  154.8400 C   0  0  0  0  0  2  0  0  0  0  0  0
  161.6630  207.9990  155.6030 N   0  0  0  0  0  2  0  0  0  0  0  0
  161.5510  209.3370  156.1050 C   0  0  0  0  0  0  0  0  0  0  0  0
  160.5010  209.9920  155.9480 O   0  0  0  0  0  0  0  0  0  0  0  0
  162.6320  209.9250  156.7560 O   0  0  0  0  0  1  0  0  0  0  0  0
  162.2860  209.4170  150.8470 C   0  0  0  0  0  0  0  0  0  0  0  0
  163.0900  209.9140  151.6920 O   0  0  0  0  0  0  0  0  0  0  0  0
  162.0250  210.1110  149.6560 O   0  0  0  0  0  0  0  0  0  0  0  0
  161.9230  211.5320  149.5410 C   0  0  2  0  0  3  0  0  0  0  0  0
  160.8660  212.0650  150.5000 C   0  0  0  0  0  1  0  0  0  0  0  0
  162.5960  214.0050  148.2190 O   0  0  0  0  0  0  0  0  0  0  0  0
  161.5700  211.9120  148.1790 N   0  0  0  0  0  2  0  0  0  0  0  0
  161.7670  213.2240  147.6730 C   0  0  0  0  0  0  0  0  0  0  0  0
  161.0050  213.6430  146.4450 C   0  0  0  0  0  2  0  0  0  0  0  0
  159.9630  212.6290  144.4900 N   0  0  0  0  0  0  0  0  0  0  0  0
  161.6480  213.2780  143.0600 N   0  0  0  0  0  2  0  0  0  0  0  0
  160.2800  212.9520  143.2710 C   0  0  0  0  0  0  0  0  0  0  0  0
  163.4290  213.1610  144.6140 O   0  0  0  0  0  0  0  0  0  0  0  0
  161.1620  212.6260  145.3240 C   0  0  1  0  0  3  0  0  0  0  0  0
  162.1990  213.0650  144.3590 C   0  0  0  0  0  0  0  0  0  0  0  0
  159.0630  213.0830  141.9800 S   0  0  0  0  0  0  0  0  0  0  0  0
  159.3390  211.4480  139.8320 C   0  0  0  0  0  1  0  0  0  0  0  0
  160.1550  212.3490  140.7350 C   0  0  0  0  0  2  0  0  0  0  0  0
  160.8330  207.6020  149.9400 C   0  0  0  0  0  2  0  0  0  0  0  0
  160.9550  205.5240  148.4230 C   0  0  0  0  0  0  0  0  0  0  0  0
  160.8110  206.1160  149.6970 C   0  0  0  0  0  0  0  0  0  0  0  0
  160.3540  203.9300  150.6580 C   0  0  0  0  0  3  0  0  0  0  0  0
  160.4740  205.3110  150.7920 C   0  0  0  0  0  3  0  0  0  0  0  0
  160.5860  203.3250  149.4210 C   0  0  0  0  0  0  0  0  0  0  0  0
  160.8680  204.1260  148.3090 C   0  0  0  0  0  3  0  0  0  0  0  0
  161.0640  206.3600  147.1740 C   0  0  2  0  0  3  0  0  0  0  0  0
  160.0870  205.8990  146.1060 C   0  0  0  0  0  1  0  0  0  0  0  0
  162.6350  205.6810  145.4730 O   0  0  0  0  0  1  0  0  0  0  0  0
  162.4720  206.4910  146.6000 C   0  0  0  0  0  2  0  0  0  0  0  0
  160.3940  201.5430  149.2130 S   0  0  0  0  0  0  0  0  0  0  0  0
  160.7390  201.2820  145.7360 C   0  0  0  0  0  0  0  0  0  0  0  0
  161.5650  199.8980  147.4090 N   0  0  0  0  0  2  0  0  0  0  0  0
  159.7470  201.8290  144.5640 S   0  0  0  0  0  0  0  0  0  0  0  0
  161.2500  202.1350  146.7310 N   0  0  0  0  0  2  0  0  0  0  0  0
  160.6820  199.9020  146.2490 C   0  0  2  0  0  3  0  0  0  0  0  0
  161.6200  201.2970  147.8600 C   0  0  1  0  0  0  0  0  0  0  0  0
  162.9110  201.6230  148.2840 O   0  0  0  0  0  1  0  0  0  0  0  0
  162.3530  198.3230  145.4970 O   0  0  0  0  0  1  0  0  0  0  0  0
  160.1420  197.8000  145.2280 O   0  0  0  0  0  1  0  0  0  0  0  0
  161.0820  198.8400  145.2260 C   0  0  0  0  0  3  0  0  0  0  0  0
  1 28  1  6  0  0  0
  1  3  1  0  0  0  0
  3  2  2  0  0  0  0
  3  4  1  0  0  0  0
  4  5  1  0  0  0  0
  5  6  1  0  0  0  0
  6  7  1  0  0  0  0
  7  9  1  0  0  0  0
  8  7  2  0  0  0  0
 10  1  1  0  0  0  0
 10 11  2  0  0  0  0
 12 10  1  0  0  0  0
 13 12  1  0  0  0  0
 13 14  1  1  0  0  0
 16 13  1  0  0  0  0
 17 16  1  0  0  0  0
 17 15  2  0  0  0  0
 18 17  1  0  0  0  0
 19 23  1  0  0  0  0
 20 21  1  0  0  0  0
 20 24  1  0  0  0  0
 21 19  2  0  0  0  0
 23 18  1  1  0  0  0
 24 22  2  0  0  0  0
 24 23  1  0  0  0  0
 25 21  1  0  0  0  0
 26 27  1  0  0  0  0
 27 25  1  0  0  0  0
 29 30  1  0  0  0  0
 30 28  1  0  0  0  0
 30 32  2  0  0  0  0
 31 32  1  0  0  0  0
 33 31  2  0  0  0  0
 34 29  2  0  0  0  0
 34 33  1  0  0  0  0
 35 36  1  6  0  0  0
 35 29  1  0  0  0  0
 37 38  1  0  0  0  0
 38 35  1  0  0  0  0
 39 33  1  0  0  0  0
 40 44  1  0  0  0  0
 40 43  1  0  0  0  0
 41 45  1  0  0  0  0
 42 40  2  0  0  0  0
 43 45  1  0  0  0  0
 44 49  1  6  0  0  0
 44 41  1  0  0  0  0
 45 46  1  1  0  0  0
 45 39  1  0  0  0  0
 49 48  1  0  0  0  0
 49 47  1  0  0  0  0
M  END
>  <MODEL>
3

>  <REMARK>
 VINA RESULT:      -4.4      3.657      7.230
  Name = 
  19 active torsions:
  status: ('A' for Active; 'I' for Inactive)
    1  A    between atoms: C_2  and  O_7
    2  A    between atoms: C_2  and  N_35
    3  A    between atoms: C_3  and  C_12
    4  A    between atoms: S_4  and  C_27
    5  A    between atoms: S_4  and  C_32
    6  A    between atoms: O_7  and  C_10
    7  A    between atoms: C_8  and  C_46
    8  A    between atoms: C_9  and  C_25
    9  A    between atoms: C_9  and  C_43
   10  A    between atoms: C_10  and  C_24
   11  A    between atoms: C_12  and  C_36
   12  A    between atoms: N_14  and  C_25
   13  A    between atoms: C_24  and  C_43
   14  A    between atoms: C_24  and  C_46
   15  A    between atoms: C_28  and  S_41
   16  A    between atoms: CA_30  and  C_45
   17  A    between atoms: C_31  and  S_41
   18  A    between atoms: C_39  and  C_42
   19  A    between atoms: C_42  and  C_49
                            x       y       z     vdW  Elec       q    Type
                         _______ _______ _______ _____ _____    ______ ____

>  <TORSDO>
F 19

$$$$
=
 OpenBabel11042420353D

 49 51  0  0  1  0  0  0  0  0999 V2000
  159.7110  210.9050  153.4560 C   0  0  2  0  0  3  0  0  0  0  0  0
  157.7450  212.1570  153.1130 O   0  0  0  0  0  0  0  0  0  0  0  0
  158.4470  211.5790  153.9330 C   0  0  0  0  0  0  0  0  0  0  0  0
  157.9890  211.4890  155.3620 C   0  0  0  0  0  2  0  0  0  0  0  0
  156.7220  212.3020  155.6070 C   0  0  0  0  0  2  0  0  0  0  0  0
  155.8240  211.5970  156.5080 N   0  0  0  0  0  2  0  0  0  0  0  0
  154.9660  210.5370  156.0640 C   0  0  0  0  0  0  0  0  0  0  0  0
  155.0010  210.1420  154.8810 O   0  0  0  0  0  0  0  0  0  0  0  0
  154.0660  209.9560  156.9530 O   0  0  0  0  0  1  0  0  0  0  0  0
  160.6880  210.7270  154.5890 C   0  0  0  0  0  0  0  0  0  0  0  0
  161.0730  211.7510  155.2290 O   0  0  0  0  0  0  0  0  0  0  0  0
  161.1460  209.4590  154.9800 O   0  0  0  0  0  0  0  0  0  0  0  0
  160.4220  208.5450  155.8050 C   0  0  2  0  0  3  0  0  0  0  0  0
  161.2780  208.1090  156.9880 C   0  0  0  0  0  1  0  0  0  0  0  0
  162.1720  206.7570  154.3720 O   0  0  0  0  0  0  0  0  0  0  0  0
  160.0250  207.3690  155.0430 N   0  0  0  0  0  2  0  0  0  0  0  0
  160.9240  206.6570  154.2050 C   0  0  0  0  0  0  0  0  0  0  0  0
  160.3570  205.7480  153.1490 C   0  0  0  0  0  2  0  0  0  0  0  0
  160.5220  203.3990  152.5240 N   0  0  0  0  0  0  0  0  0  0  0  0
  161.7330  203.8300  150.6120 N   0  0  0  0  0  2  0  0  0  0  0  0
  160.8160  203.0050  151.3190 C   0  0  0  0  0  0  0  0  0  0  0  0
  162.8930  205.7330  151.4080 O   0  0  0  0  0  0  0  0  0  0  0  0
  161.2990  204.5910  152.8530 C   0  0  1  0  0  3  0  0  0  0  0  0
  162.0380  204.8260  151.5880 C   0  0  0  0  0  0  0  0  0  0  0  0
  160.0360  201.5930  150.5700 S   0  0  0  0  0  0  0  0  0  0  0  0
  161.4330  200.6290  148.4530 C   0  0  0  0  0  1  0  0  0  0  0  0
  160.7920  201.9060  148.9530 C   0  0  0  0  0  2  0  0  0  0  0  0
  160.3960  211.5810  152.2630 C   0  0  0  0  0  2  0  0  0  0  0  0
  161.5690  211.0600  150.0280 C   0  0  0  0  0  0  0  0  0  0  0  0
  161.1020  210.6620  151.3020 C   0  0  0  0  0  0  0  0  0  0  0  0
  161.7120  208.3620  150.8030 C   0  0  0  0  0  3  0  0  0  0  0  0
  161.1460  209.3080  151.6540 C   0  0  0  0  0  3  0  0  0  0  0  0
  162.2600  208.7600  149.5820 C   0  0  0  0  0  0  0  0  0  0  0  0
  162.1700  210.1020  149.1950 C   0  0  0  0  0  3  0  0  0  0  0  0
  161.3170  212.4470  149.4960 C   0  0  2  0  0  3  0  0  0  0  0  0
  159.9300  212.9430  149.8650 C   0  0  0  0  0  1  0  0  0  0  0  0
  162.7780  213.3050  147.7780 O   0  0  0  0  0  1  0  0  0  0  0  0
  161.5770  212.6270  148.0030 C   0  0  0  0  0  2  0  0  0  0  0  0
  162.9580  207.5470  148.4420 S   0  0  0  0  0  0  0  0  0  0  0  0
  161.6740  204.8340  146.6370 C   0  0  0  0  0  0  0  0  0  0  0  0
  160.9930  207.0550  146.6460 N   0  0  0  0  0  2  0  0  0  0  0  0
  162.4320  203.4760  146.1490 S   0  0  0  0  0  0  0  0  0  0  0  0
  161.6640  205.2330  147.9850 N   0  0  0  0  0  2  0  0  0  0  0  0
  161.5190  206.0160  145.7700 C   0  0  2  0  0  3  0  0  0  0  0  0
  161.4030  206.6630  148.0030 C   0  0  1  0  0  0  0  0  0  0  0  0
  160.3880  206.9440  148.9210 O   0  0  0  0  0  1  0  0  0  0  0  0
  161.3410  205.8600  143.3630 O   0  0  0  0  0  1  0  0  0  0  0  0
  160.0040  204.5280  144.6560 O   0  0  0  0  0  1  0  0  0  0  0  0
  160.6180  205.7840  144.5580 C   0  0  0  0  0  3  0  0  0  0  0  0
  1 28  1  6  0  0  0
  1  3  1  0  0  0  0
  1 10  1  0  0  0  0
  2  3  2  0  0  0  0
  3  4  1  0  0  0  0
  4  5  1  0  0  0  0
  5  6  1  0  0  0  0
  7  6  1  0  0  0  0
  7  9  1  0  0  0  0
  8  7  2  0  0  0  0
 10 12  1  0  0  0  0
 10 11  2  0  0  0  0
 12 13  1  0  0  0  0
 13 14  1  1  0  0  0
 16 13  1  0  0  0  0
 17 15  2  0  0  0  0
 17 16  1  0  0  0  0
 18 17  1  0  0  0  0
 19 23  1  0  0  0  0
 20 21  1  0  0  0  0
 20 24  1  0  0  0  0
 21 19  2  0  0  0  0
 22 24  2  0  0  0  0
 23 18  1  6  0  0  0
 24 23  1  0  0  0  0
 25 21  1  0  0  0  0
 26 27  1  0  0  0  0
 27 25  1  0  0  0  0
 29 30  1  0  0  0  0
 30 32  2  0  0  0  0
 30 28  1  0  0  0  0
 31 32  1  0  0  0  0
 33 31  2  0  0  0  0
 34 33  1  0  0  0  0
 34 29  2  0  0  0  0
 35 36  1  6  0  0  0
 35 29  1  0  0  0  0
 37 38  1  0  0  0  0
 38 35  1  0  0  0  0
 39 33  1  0  0  0  0
 40 43  1  0  0  0  0
 41 45  1  0  0  0  0
 42 40  2  0  0  0  0
 43 45  1  0  0  0  0
 44 49  1  6  0  0  0
 44 40  1  0  0  0  0
 44 41  1  0  0  0  0
 45 39  1  0  0  0  0
 45 46  1  1  0  0  0
 47 49  1  0  0  0  0
 49 48  1  0  0  0  0
M  END
>  <MODEL>
4

>  <REMARK>
 VINA RESULT:      -4.4      2.848      7.516
  Name = 
  19 active torsions:
  status: ('A' for Active; 'I' for Inactive)
    1  A    between atoms: C_2  and  O_7
    2  A    between atoms: C_2  and  N_35
    3  A    between atoms: C_3  and  C_12
    4  A    between atoms: S_4  and  C_27
    5  A    between atoms: S_4  and  C_32
    6  A    between atoms: O_7  and  C_10
    7  A    between atoms: C_8  and  C_46
    8  A    between atoms: C_9  and  C_25
    9  A    between atoms: C_9  and  C_43
   10  A    between atoms: C_10  and  C_24
   11  A    between atoms: C_12  and  C_36
   12  A    between atoms: N_14  and  C_25
   13  A    between atoms: C_24  and  C_43
   14  A    between atoms: C_24  and  C_46
   15  A    between atoms: C_28  and  S_41
   16  A    between atoms: CA_30  and  C_45
   17  A    between atoms: C_31  and  S_41
   18  A    between atoms: C_39  and  C_42
   19  A    between atoms: C_42  and  C_49
                            x       y       z     vdW  Elec       q    Type
                         _______ _______ _______ _____ _____    ______ ____

>  <TORSDO>
F 19

$$$$
=
 OpenBabel11042420353D

 49 51  0  0  1  0  0  0  0  0999 V2000
  162.2140  209.0020  149.4550 C   0  0  2  0  0  3  0  0  0  0  0  0
  160.8230  210.2430  148.0140 O   0  0  0  0  0  0  0  0  0  0  0  0
  161.8750  210.2270  148.6390 C   0  0  0  0  0  0  0  0  0  0  0  0
  162.7500  211.4500  148.6410 C   0  0  0  0  0  2  0  0  0  0  0  0
  161.9600  212.7160  148.3300 C   0  0  0  0  0  2  0  0  0  0  0  0
  161.2760  212.5960  147.0510 N   0  0  0  0  0  2  0  0  0  0  0  0
  159.9660  213.1350  146.8270 C   0  0  0  0  0  0  0  0  0  0  0  0
  159.3810  213.7820  147.7190 O   0  0  0  0  0  1  0  0  0  0  0  0
  159.3260  212.9160  145.6100 O   0  0  0  0  0  0  0  0  0  0  0  0
  162.5880  207.8470  148.5640 C   0  0  0  0  0  0  0  0  0  0  0  0
  163.6500  207.2010  148.8160 O   0  0  0  0  0  0  0  0  0  0  0  0
  161.7740  207.4420  147.4950 O   0  0  0  0  0  0  0  0  0  0  0  0
  161.8320  206.1640  146.8600 C   0  0  2  0  0  3  0  0  0  0  0  0
  160.6790  206.0100  145.8750 C   0  0  0  0  0  1  0  0  0  0  0  0
  159.8100  205.8340  148.8890 O   0  0  0  0  0  0  0  0  0  0  0  0
  161.7610  205.0960  147.8490 N   0  0  0  0  0  2  0  0  0  0  0  0
  160.8470  205.1160  148.9360 C   0  0  0  0  0  0  0  0  0  0  0  0
  161.1190  204.2270  150.1200 C   0  0  0  0  0  2  0  0  0  0  0  0
  160.1980  202.6010  148.5570 N   0  0  0  0  0  0  0  0  0  0  0  0
  161.5860  200.9030  149.2600 N   0  0  0  0  0  2  0  0  0  0  0  0
  160.8170  201.5050  148.2280 C   0  0  0  0  0  0  0  0  0  0  0  0
  161.7550  201.5660  151.5260 O   0  0  0  0  0  0  0  0  0  0  0  0
  160.4200  202.8830  149.9720 C   0  0  1  0  0  3  0  0  0  0  0  0
  161.3270  201.7750  150.3600 C   0  0  0  0  0  0  0  0  0  0  0  0
  160.7910  200.8660  146.5680 S   0  0  0  0  0  0  0  0  0  0  0  0
  159.8460  202.3830  144.5250 C   0  0  0  0  0  1  0  0  0  0  0  0
  160.6050  202.5100  145.8290 C   0  0  0  0  0  2  0  0  0  0  0  0
  161.1370  208.5750  150.4600 C   0  0  0  0  0  2  0  0  0  0  0  0
  161.3240  208.4670  153.0270 C   0  0  0  0  0  0  0  0  0  0  0  0
  161.2260  209.2030  151.8250 C   0  0  0  0  0  0  0  0  0  0  0  0
  161.0340  211.2610  153.1060 C   0  0  0  0  0  3  0  0  0  0  0  0
  161.0430  210.5900  151.8860 C   0  0  0  0  0  3  0  0  0  0  0  0
  161.2240  210.5530  154.2940 C   0  0  0  0  0  0  0  0  0  0  0  0
  161.3500  209.1600  154.2490 C   0  0  0  0  0  3  0  0  0  0  0  0
  161.2660  206.9610  153.0350 C   0  0  2  0  0  3  0  0  0  0  0  0
  160.4180  206.4410  154.1820 C   0  0  0  0  0  1  0  0  0  0  0  0
  163.0470  206.0510  151.6850 O   0  0  0  0  0  1  0  0  0  0  0  0
  162.6200  206.2580  152.9990 C   0  0  0  0  0  2  0  0  0  0  0  0
  161.1730  211.3930  155.8900 S   0  0  0  0  0  0  0  0  0  0  0  0
  157.8130  211.9830  155.0920 C   0  0  0  0  0  0  0  0  0  0  0  0
  158.8770  212.0730  157.1550 N   0  0  0  0  0  2  0  0  0  0  0  0
  157.1690  212.5010  153.6880 S   0  0  0  0  0  0  0  0  0  0  0  0
  158.6430  210.8490  155.1530 N   0  0  0  0  0  2  0  0  0  0  0  0
  158.1380  212.8940  156.2040 C   0  0  2  0  0  3  0  0  0  0  0  0
  159.4420  210.9720  156.3610 C   0  0  1  0  0  0  0  0  0  0  0  0
  159.3930  209.7750  157.0810 O   0  0  0  0  0  1  0  0  0  0  0  0
  156.3030  214.4530  155.9740 O   0  0  0  0  0  1  0  0  0  0  0  0
  155.9960  212.5670  157.2310 O   0  0  0  0  0  1  0  0  0  0  0  0
  156.9180  213.5510  156.8480 C   0  0  0  0  0  3  0  0  0  0  0  0
  1 28  1  6  0  0  0
  2  3  2  0  0  0  0
  3  4  1  0  0  0  0
  3  1  1  0  0  0  0
  5  4  1  0  0  0  0
  6  5  1  0  0  0  0
  7  6  1  0  0  0  0
  7  8  1  0  0  0  0
  9  7  2  0  0  0  0
 10 11  2  0  0  0  0
 10  1  1  0  0  0  0
 12 10  1  0  0  0  0
 13 14  1  6  0  0  0
 13 12  1  0  0  0  0
 13 16  1  0  0  0  0
 15 17  2  0  0  0  0
 16 17  1  0  0  0  0
 17 18  1  0  0  0  0
 19 23  1  0  0  0  0
 20 24  1  0  0  0  0
 21 19  2  0  0  0  0
 21 20  1  0  0  0  0
 23 18  1  6  0  0  0
 23 24  1  0  0  0  0
 24 22  2  0  0  0  0
 25 21  1  0  0  0  0
 26 27  1  0  0  0  0
 27 25  1  0  0  0  0
 28 30  1  0  0  0  0
 29 35  1  0  0  0  0
 29 34  1  0  0  0  0
 30 32  1  0  0  0  0
 30 29  2  0  0  0  0
 31 33  1  0  0  0  0
 32 31  2  0  0  0  0
 33 39  1  0  0  0  0
 34 33  2  0  0  0  0
 35 36  1  1  0  0  0
 37 38  1  0  0  0  0
 38 35  1  0  0  0  0
 39 45  1  0  0  0  0
 40 43  1  0  0  0  0
 40 44  1  0  0  0  0
 42 40  2  0  0  0  0
 43 45  1  0  0  0  0
 44 49  1  1  0  0  0
 44 41  1  0  0  0  0
 45 46  1  1  0  0  0
 45 41  1  0  0  0  0
 47 49  1  0  0  0  0
 49 48  1  0  0  0  0
M  END
>  <MODEL>
5

>  <REMARK>
 VINA RESULT:      -4.1      2.312     10.077
  Name = 
  19 active torsions:
  status: ('A' for Active; 'I' for Inactive)
    1  A    between atoms: C_2  and  O_7
    2  A    between atoms: C_2  and  N_35
    3  A    between atoms: C_3  and  C_12
    4  A    between atoms: S_4  and  C_27
    5  A    between atoms: S_4  and  C_32
    6  A    between atoms: O_7  and  C_10
    7  A    between atoms: C_8  and  C_46
    8  A    between atoms: C_9  and  C_25
    9  A    between atoms: C_9  and  C_43
   10  A    between atoms: C_10  and  C_24
   11  A    between atoms: C_12  and  C_36
   12  A    between atoms: N_14  and  C_25
   13  A    between atoms: C_24  and  C_43
   14  A    between atoms: C_24  and  C_46
   15  A    between atoms: C_28  and  S_41
   16  A    between atoms: CA_30  and  C_45
   17  A    between atoms: C_31  and  S_41
   18  A    between atoms: C_39  and  C_42
   19  A    between atoms: C_42  and  C_49
                            x       y       z     vdW  Elec       q    Type
                         _______ _______ _______ _____ _____    ______ ____

>  <TORSDO>
F 19

$$$$
=
 OpenBabel11042420353D

 49 51  0  0  1  0  0  0  0  0999 V2000
  162.0370  207.6790  151.4370 C   0  0  2  0  0  3  0  0  0  0  0  0
  162.0270  208.8610  149.3980 O   0  0  0  0  0  0  0  0  0  0  0  0
  161.7010  207.8300  149.9720 C   0  0  0  0  0  0  0  0  0  0  0  0
  161.0570  206.7220  149.1870 C   0  0  0  0  0  2  0  0  0  0  0  0
  160.8320  207.1110  147.7300 C   0  0  0  0  0  2  0  0  0  0  0  0
  161.6610  206.3050  146.8470 N   0  0  0  0  0  2  0  0  0  0  0  0
  161.2080  205.8580  145.5620 C   0  0  0  0  0  0  0  0  0  0  0  0
  160.0880  206.1960  145.1280 O   0  0  0  0  0  1  0  0  0  0  0  0
  162.0140  205.0190  144.7970 O   0  0  0  0  0  0  0  0  0  0  0  0
  162.7970  206.4040  151.6870 C   0  0  0  0  0  0  0  0  0  0  0  0
  163.9490  206.2700  151.1750 O   0  0  0  0  0  0  0  0  0  0  0  0
  162.2850  205.3840  152.5040 O   0  0  0  0  0  0  0  0  0  0  0  0
  161.1170  204.6120  152.2130 C   0  0  2  0  0  3  0  0  0  0  0  0
  160.4700  204.1270  153.5050 C   0  0  0  0  0  1  0  0  0  0  0  0
  159.5420  203.5220  150.0590 O   0  0  0  0  0  0  0  0  0  0  0  0
  161.4560  203.4610  151.3870 N   0  0  0  0  0  2  0  0  0  0  0  0
  160.5370  202.8700  150.4800 C   0  0  0  0  0  0  0  0  0  0  0  0
  160.8030  201.4690  149.9980 C   0  0  0  0  0  2  0  0  0  0  0  0
  161.2630  200.4670  147.8260 N   0  0  0  0  0  0  0  0  0  0  0  0
  161.0840  202.4640  146.6910 N   0  0  0  0  0  2  0  0  0  0  0  0
  160.9640  201.0470  146.7000 C   0  0  0  0  0  0  0  0  0  0  0  0
  161.8970  203.8680  148.4140 O   0  0  0  0  0  0  0  0  0  0  0  0
  161.7220  201.4680  148.7860 C   0  0  1  0  0  3  0  0  0  0  0  0
  161.5680  202.7220  148.0090 C   0  0  0  0  0  0  0  0  0  0  0  0
  160.3420  200.1380  145.3040 S   0  0  0  0  0  0  0  0  0  0  0  0
  161.2050  197.6810  144.5390 C   0  0  0  0  0  1  0  0  0  0  0  0
  161.3880  198.6980  145.6460 C   0  0  0  0  0  2  0  0  0  0  0  0
  160.8400  207.7830  152.3900 C   0  0  0  0  0  2  0  0  0  0  0  0
  160.3500  209.4040  154.3320 C   0  0  0  0  0  0  0  0  0  0  0  0
  160.5690  209.1500  152.9590 C   0  0  0  0  0  0  0  0  0  0  0  0
  160.0510  211.4710  152.4510 C   0  0  0  0  0  3  0  0  0  0  0  0
  160.3770  210.1830  152.0330 C   0  0  0  0  0  3  0  0  0  0  0  0
  159.9240  211.7530  153.8130 C   0  0  0  0  0  0  0  0  0  0  0  0
  160.0570  210.7150  154.7430 C   0  0  0  0  0  3  0  0  0  0  0  0
  160.2920  208.2850  155.3390 C   0  0  2  0  0  3  0  0  0  0  0  0
  159.4750  208.6740  156.5590 C   0  0  0  0  0  1  0  0  0  0  0  0
  162.3310  208.5940  156.5900 O   0  0  0  0  0  1  0  0  0  0  0  0
  161.6440  207.7110  155.7530 C   0  0  0  0  0  2  0  0  0  0  0  0
  159.4580  213.4020  154.3770 S   0  0  0  0  0  0  0  0  0  0  0  0
  156.2000  213.6780  155.6350 C   0  0  0  0  0  0  0  0  0  0  0  0
  157.1180  212.0440  154.2620 N   0  0  0  0  0  2  0  0  0  0  0  0
  155.6860  214.4080  156.9990 S   0  0  0  0  0  0  0  0  0  0  0  0
  156.9610  214.3610  154.6710 N   0  0  0  0  0  2  0  0  0  0  0  0
  156.4940  212.2350  155.5650 C   0  0  2  0  0  3  0  0  0  0  0  0
  157.6780  213.3560  153.9040 C   0  0  1  0  0  0  0  0  0  0  0  0
  157.5140  213.6000  152.5380 O   0  0  0  0  0  1  0  0  0  0  0  0
  155.1900  210.3740  154.7380 O   0  0  0  0  0  1  0  0  0  0  0  0
  155.3210  210.7110  156.9970 O   0  0  0  0  0  1  0  0  0  0  0  0
  155.2680  211.3400  155.7450 C   0  0  0  0  0  3  0  0  0  0  0  0
  1 10  1  0  0  0  0
  1 28  1  1  0  0  0
  2  3  2  0  0  0  0
  3  1  1  0  0  0  0
  4  3  1  0  0  0  0
  5  4  1  0  0  0  0
  6  5  1  0  0  0  0
  7  6  1  0  0  0  0
  8  7  1  0  0  0  0
  9  7  2  0  0  0  0
 10 12  1  0  0  0  0
 11 10  2  0  0  0  0
 13 12  1  0  0  0  0
 13 14  1  1  0  0  0
 15 17  2  0  0  0  0
 16 13  1  0  0  0  0
 17 16  1  0  0  0  0
 18 17  1  0  0  0  0
 19 23  1  0  0  0  0
 20 21  1  0  0  0  0
 20 24  1  0  0  0  0
 21 19  2  0  0  0  0
 23 18  1  1  0  0  0
 24 22  2  0  0  0  0
 24 23  1  0  0  0  0
 25 27  1  0  0  0  0
 25 21  1  0  0  0  0
 26 27  1  0  0  0  0
 28 30  1  0  0  0  0
 29 34  1  0  0  0  0
 29 35  1  0  0  0  0
 30 29  2  0  0  0  0
 31 33  1  0  0  0  0
 32 31  2  0  0  0  0
 32 30  1  0  0  0  0
 33 39  1  0  0  0  0
 33 34  2  0  0  0  0
 35 38  1  0  0  0  0
 35 36  1  1  0  0  0
 38 37  1  0  0  0  0
 40 42  2  0  0  0  0
 41 44  1  0  0  0  0
 43 40  1  0  0  0  0
 44 40  1  0  0  0  0
 44 49  1  6  0  0  0
 45 46  1  6  0  0  0
 45 41  1  0  0  0  0
 45 39  1  0  0  0  0
 45 43  1  0  0  0  0
 47 49  1  0  0  0  0
 49 48  1  0  0  0  0
M  END
>  <MODEL>
6

>  <REMARK>
 VINA RESULT:      -3.9      2.389     10.705
  Name = 
  19 active torsions:
  status: ('A' for Active; 'I' for Inactive)
    1  A    between atoms: C_2  and  O_7
    2  A    between atoms: C_2  and  N_35
    3  A    between atoms: C_3  and  C_12
    4  A    between atoms: S_4  and  C_27
    5  A    between atoms: S_4  and  C_32
    6  A    between atoms: O_7  and  C_10
    7  A    between atoms: C_8  and  C_46
    8  A    between atoms: C_9  and  C_25
    9  A    between atoms: C_9  and  C_43
   10  A    between atoms: C_10  and  C_24
   11  A    between atoms: C_12  and  C_36
   12  A    between atoms: N_14  and  C_25
   13  A    between atoms: C_24  and  C_43
   14  A    between atoms: C_24  and  C_46
   15  A    between atoms: C_28  and  S_41
   16  A    between atoms: CA_30  and  C_45
   17  A    between atoms: C_31  and  S_41
   18  A    between atoms: C_39  and  C_42
   19  A    between atoms: C_42  and  C_49
                            x       y       z     vdW  Elec       q    Type
                         _______ _______ _______ _____ _____    ______ ____

>  <TORSDO>
F 19

$$$$
=
 OpenBabel11042420353D

 49 51  0  0  1  0  0  0  0  0999 V2000
  161.0280  209.2840  151.9010 C   0  0  2  0  0  3  0  0  0  0  0  0
  163.0220  210.3500  151.2390 O   0  0  0  0  0  0  0  0  0  0  0  0
  161.8180  210.2450  151.0450 C   0  0  0  0  0  0  0  0  0  0  0  0
  161.1850  211.0060  149.9140 C   0  0  0  0  0  2  0  0  0  0  0  0
  162.2230  211.7140  149.0510 C   0  0  0  0  0  2  0  0  0  0  0  0
  161.7380  213.0180  148.6270 N   0  0  0  0  0  2  0  0  0  0  0  0
  160.7770  213.1770  147.5740 C   0  0  0  0  0  0  0  0  0  0  0  0
  160.2770  212.1810  147.0130 O   0  0  0  0  0  0  0  0  0  0  0  0
  160.4140  214.4530  147.1550 O   0  0  0  0  0  1  0  0  0  0  0  0
  160.0730  210.0240  152.8010 C   0  0  0  0  0  0  0  0  0  0  0  0
  159.0010  210.4850  152.3060 O   0  0  0  0  0  0  0  0  0  0  0  0
  160.3180  210.1780  154.1750 O   0  0  0  0  0  0  0  0  0  0  0  0
  161.1120  211.2150  154.7530 C   0  0  2  0  0  3  0  0  0  0  0  0
  162.3400  210.6220  155.4340 C   0  0  0  0  0  1  0  0  0  0  0  0
  158.3380  210.8090  155.4290 O   0  0  0  0  0  0  0  0  0  0  0  0
  160.3390  211.9670  155.7330 N   0  0  0  0  0  2  0  0  0  0  0  0
  158.9310  211.8360  155.8640 C   0  0  0  0  0  0  0  0  0  0  0  0
  158.1710  212.9240  156.5720 C   0  0  0  0  0  2  0  0  0  0  0  0
  158.6480  214.0580  154.4690 N   0  0  0  0  0  0  0  0  0  0  0  0
  156.6210  213.5000  153.5270 N   0  0  0  0  0  2  0  0  0  0  0  0
  157.9990  213.8120  153.3690 C   0  0  0  0  0  0  0  0  0  0  0  0
  155.3430  213.5210  155.5180 O   0  0  0  0  0  0  0  0  0  0  0  0
  157.7270  214.0090  155.6020 C   0  0  1  0  0  3  0  0  0  0  0  0
  156.4550  213.6320  154.9380 C   0  0  0  0  0  0  0  0  0  0  0  0
  158.8090  213.7610  151.7860 S   0  0  0  0  0  0  0  0  0  0  0  0
  157.4670  213.4250  149.4510 C   0  0  0  0  0  1  0  0  0  0  0  0
  157.2510  213.9040  150.8710 C   0  0  0  0  0  2  0  0  0  0  0  0
  161.8730  208.2970  152.7170 C   0  0  0  0  0  2  0  0  0  0  0  0
  161.7600  206.4240  150.9510 C   0  0  0  0  0  0  0  0  0  0  0  0
  161.7850  206.8540  152.2970 C   0  0  0  0  0  0  0  0  0  0  0  0
  161.3930  204.5690  153.0290 C   0  0  0  0  0  3  0  0  0  0  0  0
  161.5610  205.9210  153.3170 C   0  0  0  0  0  3  0  0  0  0  0  0
  161.4610  204.1210  151.7090 C   0  0  0  0  0  0  0  0  0  0  0  0
  161.6260  205.0530  150.6770 C   0  0  0  0  0  3  0  0  0  0  0  0
  161.7400  207.4090  149.8110 C   0  0  2  0  0  3  0  0  0  0  0  0
  160.4970  207.2450  148.9540 C   0  0  0  0  0  1  0  0  0  0  0  0
  163.0030  208.5320  148.0890 O   0  0  0  0  0  1  0  0  0  0  0  0
  162.9970  207.4270  148.9450 C   0  0  0  0  0  2  0  0  0  0  0  0
  161.2010  202.3810  151.3070 S   0  0  0  0  0  0  0  0  0  0  0  0
  160.9610  201.4610  147.9350 C   0  0  0  0  0  0  0  0  0  0  0  0
  160.8690  203.5730  148.8980 N   0  0  0  0  0  2  0  0  0  0  0  0
  161.5840  200.1570  147.1810 S   0  0  0  0  0  0  0  0  0  0  0  0
  160.1360  201.3380  149.0670 N   0  0  0  0  0  2  0  0  0  0  0  0
  161.6390  202.7690  147.9580 C   0  0  2  0  0  3  0  0  0  0  0  0
  160.1980  202.6050  149.7780 C   0  0  1  0  0  0  0  0  0  0  0  0
  158.9040  203.0370  150.0830 O   0  0  0  0  0  1  0  0  0  0  0  0
  160.5250  203.3990  145.9050 O   0  0  0  0  0  1  0  0  0  0  0  0
  162.1500  204.7730  146.7430 O   0  0  0  0  0  1  0  0  0  0  0  0
  161.7440  203.4400  146.5890 C   0  0  0  0  0  3  0  0  0  0  0  0
  1 28  1  1  0  0  0
  1 10  1  0  0  0  0
  3  2  2  0  0  0  0
  3  1  1  0  0  0  0
  4  3  1  0  0  0  0
  5  4  1  0  0  0  0
  6  5  1  0  0  0  0
  7  6  1  0  0  0  0
  8  7  2  0  0  0  0
  9  7  1  0  0  0  0
 10 12  1  0  0  0  0
 11 10  2  0  0  0  0
 12 13  1  0  0  0  0
 13 14  1  1  0  0  0
 13 16  1  0  0  0  0
 15 17  2  0  0  0  0
 16 17  1  0  0  0  0
 17 18  1  0  0  0  0
 19 23  1  0  0  0  0
 20 24  1  0  0  0  0
 21 20  1  0  0  0  0
 21 19  2  0  0  0  0
 23 18  1  1  0  0  0
 24 22  2  0  0  0  0
 24 23  1  0  0  0  0
 25 21  1  0  0  0  0
 26 27  1  0  0  0  0
 27 25  1  0  0  0  0
 29 30  1  0  0  0  0
 30 28  1  0  0  0  0
 30 32  2  0  0  0  0
 31 32  1  0  0  0  0
 33 31  2  0  0  0  0
 34 29  2  0  0  0  0
 34 33  1  0  0  0  0
 35 36  1  6  0  0  0
 35 29  1  0  0  0  0
 37 38  1  0  0  0  0
 38 35  1  0  0  0  0
 39 33  1  0  0  0  0
 40 44  1  0  0  0  0
 40 43  1  0  0  0  0
 41 45  1  0  0  0  0
 42 40  2  0  0  0  0
 43 45  1  0  0  0  0
 44 49  1  6  0  0  0
 44 41  1  0  0  0  0
 45 46  1  1  0  0  0
 45 39  1  0  0  0  0
 47 49  1  0  0  0  0
 49 48  1  0  0  0  0
M  END
>  <MODEL>
7

>  <REMARK>
 VINA RESULT:      -3.6      1.820      3.018
  Name = 
  19 active torsions:
  status: ('A' for Active; 'I' for Inactive)
    1  A    between atoms: C_2  and  O_7
    2  A    between atoms: C_2  and  N_35
    3  A    between atoms: C_3  and  C_12
    4  A    between atoms: S_4  and  C_27
    5  A    between atoms: S_4  and  C_32
    6  A    between atoms: O_7  and  C_10
    7  A    between atoms: C_8  and  C_46
    8  A    between atoms: C_9  and  C_25
    9  A    between atoms: C_9  and  C_43
   10  A    between atoms: C_10  and  C_24
   11  A    between atoms: C_12  and  C_36
   12  A    between atoms: N_14  and  C_25
   13  A    between atoms: C_24  and  C_43
   14  A    between atoms: C_24  and  C_46
   15  A    between atoms: C_28  and  S_41
   16  A    between atoms: CA_30  and  C_45
   17  A    between atoms: C_31  and  S_41
   18  A    between atoms: C_39  and  C_42
   19  A    between atoms: C_42  and  C_49
                            x       y       z     vdW  Elec       q    Type
                         _______ _______ _______ _____ _____    ______ ____

>  <TORSDO>
F 19

$$$$
=
 OpenBabel11042420353D

 49 51  0  0  1  0  0  0  0  0999 V2000
  161.6680  210.2720  152.1730 C   0  0  2  0  0  3  0  0  0  0  0  0
  159.5660  209.2320  152.4100 O   0  0  0  0  0  0  0  0  0  0  0  0
  160.4980  209.7740  152.9900 C   0  0  0  0  0  0  0  0  0  0  0  0
  160.4880  209.8500  154.4910 C   0  0  0  0  0  2  0  0  0  0  0  0
  159.9260  211.1770  154.9900 C   0  0  0  0  0  2  0  0  0  0  0  0
  158.6410  210.9790  155.6430 N   0  0  0  0  0  2  0  0  0  0  0  0
  157.7260  212.0570  155.8830 C   0  0  0  0  0  0  0  0  0  0  0  0
  157.9830  213.2110  155.4850 O   0  0  0  0  0  0  0  0  0  0  0  0
  156.5480  211.8220  156.5870 O   0  0  0  0  0  1  0  0  0  0  0  0
  161.2030  211.1750  151.0610 C   0  0  0  0  0  0  0  0  0  0  0  0
  161.8370  211.1650  149.9630 O   0  0  0  0  0  0  0  0  0  0  0  0
  160.0680  211.9900  151.1930 O   0  0  0  0  0  0  0  0  0  0  0  0
  160.0890  213.4170  151.2640 C   0  0  2  0  0  3  0  0  0  0  0  0
  158.8400  213.9290  151.9700 C   0  0  0  0  0  1  0  0  0  0  0  0
  158.2200  212.9830  149.1120 O   0  0  0  0  0  0  0  0  0  0  0  0
  160.1540  213.9950  149.9280 N   0  0  0  0  0  2  0  0  0  0  0  0
  159.3070  213.5770  148.8680 C   0  0  0  0  0  0  0  0  0  0  0  0
  159.7110  213.8990  147.4550 C   0  0  0  0  0  2  0  0  0  0  0  0
  159.8550  212.5510  145.4300 N   0  0  0  0  0  0  0  0  0  0  0  0
  162.1020  212.9600  145.1290 N   0  0  0  0  0  2  0  0  0  0  0  0
  160.8280  212.6610  144.5740 C   0  0  0  0  0  0  0  0  0  0  0  0
  162.6900  213.1320  147.4150 O   0  0  0  0  0  0  0  0  0  0  0  0
  160.3760  212.7050  146.7860 C   0  0  1  0  0  3  0  0  0  0  0  0
  161.8100  212.9810  146.5270 C   0  0  0  0  0  0  0  0  0  0  0  0
  160.5590  212.5550  142.8190 S   0  0  0  0  0  0  0  0  0  0  0  0
  162.6340  214.1080  142.0140 C   0  0  0  0  0  1  0  0  0  0  0  0
  162.3260  212.6880  142.4370 C   0  0  0  0  0  2  0  0  0  0  0  0
  162.5870  209.1750  151.6220 C   0  0  0  0  0  2  0  0  0  0  0  0
  161.4740  207.1800  150.4300 C   0  0  0  0  0  0  0  0  0  0  0  0
  162.0070  207.7860  151.5900 C   0  0  0  0  0  0  0  0  0  0  0  0
  161.2710  205.8850  152.9160 C   0  0  0  0  0  3  0  0  0  0  0  0
  161.8620  207.1430  152.8260 C   0  0  0  0  0  3  0  0  0  0  0  0
  160.8250  205.2380  151.7620 C   0  0  0  0  0  0  0  0  0  0  0  0
  160.9130  205.8960  150.5300 C   0  0  0  0  0  3  0  0  0  0  0  0
  161.3720  207.9300  149.1270 C   0  0  2  0  0  3  0  0  0  0  0  0
  160.4430  207.2300  148.1510 C   0  0  0  0  0  1  0  0  0  0  0  0
  163.4530  207.1060  148.2250 O   0  0  0  0  0  1  0  0  0  0  0  0
  162.7050  208.2630  148.4620 C   0  0  0  0  0  2  0  0  0  0  0  0
  160.0160  203.6280  151.8580 S   0  0  0  0  0  0  0  0  0  0  0  0
  161.4900  203.1570  148.7150 C   0  0  0  0  0  0  0  0  0  0  0  0
  160.5940  201.5870  150.1740 N   0  0  0  0  0  2  0  0  0  0  0  0
  161.5790  204.1920  147.4590 S   0  0  0  0  0  0  0  0  0  0  0  0
  161.9550  203.5050  149.9960 N   0  0  0  0  0  2  0  0  0  0  0  0
  160.4350  202.1350  148.8330 C   0  0  2  0  0  3  0  0  0  0  0  0
  161.2740  202.6390  150.9450 C   0  0  1  0  0  0  0  0  0  0  0  0
  162.2060  202.0770  151.8210 O   0  0  0  0  0  1  0  0  0  0  0  0
  160.6190  201.5940  146.4820 O   0  0  0  0  0  1  0  0  0  0  0  0
  161.5930  200.2010  148.0130 O   0  0  0  0  0  1  0  0  0  0  0  0
  160.5020  201.0450  147.7630 C   0  0  0  0  0  3  0  0  0  0  0  0
  1 28  1  6  0  0  0
  1  3  1  0  0  0  0
  2  3  2  0  0  0  0
  3  4  1  0  0  0  0
  4  5  1  0  0  0  0
  5  6  1  0  0  0  0
  6  7  1  0  0  0  0
  7  9  1  0  0  0  0
  8  7  2  0  0  0  0
 10 12  1  0  0  0  0
 10  1  1  0  0  0  0
 11 10  2  0  0  0  0
 12 13  1  0  0  0  0
 13 14  1  6  0  0  0
 16 13  1  0  0  0  0
 17 15  2  0  0  0  0
 17 16  1  0  0  0  0
 18 17  1  0  0  0  0
 19 23  1  0  0  0  0
 20 24  1  0  0  0  0
 21 20  1  0  0  0  0
 21 19  2  0  0  0  0
 23 18  1  6  0  0  0
 24 23  1  0  0  0  0
 24 22  2  0  0  0  0
 25 21  1  0  0  0  0
 26 27  1  0  0  0  0
 27 25  1  0  0  0  0
 29 34  2  0  0  0  0
 29 30  1  0  0  0  0
 30 28  1  0  0  0  0
 30 32  2  0  0  0  0
 32 31  1  0  0  0  0
 33 39  1  0  0  0  0
 33 31  2  0  0  0  0
 34 33  1  0  0  0  0
 35 36  1  6  0  0  0
 35 29  1  0  0  0  0
 37 38  1  0  0  0  0
 38 35  1  0  0  0  0
 40 44  1  0  0  0  0
 40 43  1  0  0  0  0
 41 45  1  0  0  0  0
 42 40  2  0  0  0  0
 43 45  1  0  0  0  0
 44 49  1  6  0  0  0
 44 41  1  0  0  0  0
 45 46  1  1  0  0  0
 45 39  1  0  0  0  0
 47 49  1  0  0  0  0
 49 48  1  0  0  0  0
M  END
>  <MODEL>
8

>  <REMARK>
 VINA RESULT:      -3.5      2.849      6.563
  Name = 
  19 active torsions:
  status: ('A' for Active; 'I' for Inactive)
    1  A    between atoms: C_2  and  O_7
    2  A    between atoms: C_2  and  N_35
    3  A    between atoms: C_3  and  C_12
    4  A    between atoms: S_4  and  C_27
    5  A    between atoms: S_4  and  C_32
    6  A    between atoms: O_7  and  C_10
    7  A    between atoms: C_8  and  C_46
    8  A    between atoms: C_9  and  C_25
    9  A    between atoms: C_9  and  C_43
   10  A    between atoms: C_10  and  C_24
   11  A    between atoms: C_12  and  C_36
   12  A    between atoms: N_14  and  C_25
   13  A    between atoms: C_24  and  C_43
   14  A    between atoms: C_24  and  C_46
   15  A    between atoms: C_28  and  S_41
   16  A    between atoms: CA_30  and  C_45
   17  A    between atoms: C_31  and  S_41
   18  A    between atoms: C_39  and  C_42
   19  A    between atoms: C_42  and  C_49
                            x       y       z     vdW  Elec       q    Type
                         _______ _______ _______ _____ _____    ______ ____

>  <TORSDO>
F 19

$$$$
=
 OpenBabel11042420353D

 49 51  0  0  1  0  0  0  0  0999 V2000
  161.5820  209.1160  150.0280 C   0  0  2  0  0  3  0  0  0  0  0  0
  162.8590  207.2740  150.7560 O   0  0  0  0  0  0  0  0  0  0  0  0
  162.1860  208.2380  151.0980 C   0  0  0  0  0  0  0  0  0  0  0  0
  162.0540  208.5630  152.5600 C   0  0  0  0  0  2  0  0  0  0  0  0
  161.1010  207.6090  153.2720 C   0  0  0  0  0  2  0  0  0  0  0  0
  161.4340  207.5070  154.6850 N   0  0  0  0  0  2  0  0  0  0  0  0
  160.4330  207.3890  155.7040 C   0  0  0  0  0  0  0  0  0  0  0  0
  159.2240  207.3140  155.4040 O   0  0  0  0  0  0  0  0  0  0  0  0
  160.8070  207.3810  157.0450 O   0  0  0  0  0  1  0  0  0  0  0  0
  161.8170  208.5360  148.6580 C   0  0  0  0  0  0  0  0  0  0  0  0
  161.3370  209.1360  147.6500 O   0  0  0  0  0  0  0  0  0  0  0  0
  162.5870  207.3780  148.4660 O   0  0  0  0  0  0  0  0  0  0  0  0
  162.1870  206.2490  147.6880 C   0  0  2  0  0  3  0  0  0  0  0  0
  160.9080  206.5630  146.9190 C   0  0  0  0  0  1  0  0  0  0  0  0
  160.0550  205.9220  149.6010 O   0  0  0  0  0  0  0  0  0  0  0  0
  161.9580  205.0910  148.5430 N   0  0  0  0  0  2  0  0  0  0  0  0
  161.0050  205.0910  149.5960 C   0  0  0  0  0  0  0  0  0  0  0  0
  161.1270  204.0500  150.6750 C   0  0  0  0  0  2  0  0  0  0  0  0
  160.0700  202.8180  148.8580 N   0  0  0  0  0  0  0  0  0  0  0  0
  161.5750  201.0760  148.9530 N   0  0  0  0  0  2  0  0  0  0  0  0
  160.6740  201.8750  148.1960 C   0  0  0  0  0  0  0  0  0  0  0  0
  161.9920  201.1610  151.2810 O   0  0  0  0  0  0  0  0  0  0  0  0
  160.4510  202.7490  150.2670 C   0  0  1  0  0  3  0  0  0  0  0  0
  161.4250  201.6310  150.2600 C   0  0  0  0  0  0  0  0  0  0  0  0
  160.4690  201.6710  146.4420 S   0  0  0  0  0  0  0  0  0  0  0  0
  160.9520  203.8710  144.9280 C   0  0  0  0  0  1  0  0  0  0  0  0
  161.5660  203.0590  146.0490 C   0  0  0  0  0  2  0  0  0  0  0  0
  162.0220  210.5840  150.0680 C   0  0  0  0  0  2  0  0  0  0  0  0
  160.4880  212.6540  150.1250 C   0  0  0  0  0  0  0  0  0  0  0  0
  161.0780  211.5350  150.7550 C   0  0  0  0  0  0  0  0  0  0  0  0
  160.1220  212.2330  152.8790 C   0  0  0  0  0  3  0  0  0  0  0  0
  160.9160  211.3630  152.1350 C   0  0  0  0  0  3  0  0  0  0  0  0
  159.4590  213.2870  152.2480 C   0  0  0  0  0  0  0  0  0  0  0  0
  159.6600  213.5010  150.8790 C   0  0  0  0  0  3  0  0  0  0  0  0
  160.8330  213.0300  148.7070 C   0  0  2  0  0  3  0  0  0  0  0  0
  159.6020  213.0410  147.8180 C   0  0  0  0  0  1  0  0  0  0  0  0
  163.0570  213.0150  147.7700 O   0  0  0  0  0  1  0  0  0  0  0  0
  161.9530  212.2120  148.0710 C   0  0  0  0  0  2  0  0  0  0  0  0
  158.4600  214.4530  153.1960 S   0  0  0  0  0  0  0  0  0  0  0  0
  155.7330  213.4140  155.1330 C   0  0  0  0  0  0  0  0  0  0  0  0
  157.0490  212.1890  153.6620 N   0  0  0  0  0  2  0  0  0  0  0  0
  155.1870  214.0210  156.5440 S   0  0  0  0  0  0  0  0  0  0  0  0
  155.9020  214.2220  153.9950 N   0  0  0  0  0  2  0  0  0  0  0  0
  156.6500  212.2620  155.0620 C   0  0  2  0  0  3  0  0  0  0  0  0
  156.8570  213.5480  153.1320 C   0  0  1  0  0  0  0  0  0  0  0  0
  156.3590  213.4970  151.8280 O   0  0  0  0  0  1  0  0  0  0  0  0
  155.1470  210.4220  154.6080 O   0  0  0  0  0  1  0  0  0  0  0  0
  157.0560  210.0180  155.8030 O   0  0  0  0  0  1  0  0  0  0  0  0
  156.0390  210.9490  155.5480 C   0  0  0  0  0  3  0  0  0  0  0  0
  1 28  1  6  0  0  0
  1  3  1  0  0  0  0
  2  3  2  0  0  0  0
  3  4  1  0  0  0  0
  4  5  1  0  0  0  0
  5  6  1  0  0  0  0
  6  7  1  0  0  0  0
  7  9  1  0  0  0  0
  8  7  2  0  0  0  0
 10  1  1  0  0  0  0
 11 10  2  0  0  0  0
 12 10  1  0  0  0  0
 13 14  1  1  0  0  0
 13 12  1  0  0  0  0
 13 16  1  0  0  0  0
 16 17  1  0  0  0  0
 17 15  2  0  0  0  0
 17 18  1  0  0  0  0
 19 23  1  0  0  0  0
 20 24  1  0  0  0  0
 21 19  2  0  0  0  0
 21 20  1  0  0  0  0
 23 18  1  6  0  0  0
 24 23  1  0  0  0  0
 24 22  2  0  0  0  0
 25 21  1  0  0  0  0
 26 27  1  0  0  0  0
 27 25  1  0  0  0  0
 28 30  1  0  0  0  0
 29 30  2  0  0  0  0
 29 34  1  0  0  0  0
 30 32  1  0  0  0  0
 32 31  2  0  0  0  0
 33 31  1  0  0  0  0
 33 39  1  0  0  0  0
 34 33  2  0  0  0  0
 35 36  1  6  0  0  0
 35 29  1  0  0  0  0
 37 38  1  0  0  0  0
 38 35  1  0  0  0  0
 40 42  2  0  0  0  0
 41 44  1  0  0  0  0
 43 40  1  0  0  0  0
 44 40  1  0  0  0  0
 44 49  1  6  0  0  0
 45 46  1  6  0  0  0
 45 39  1  0  0  0  0
 45 41  1  0  0  0  0
 45 43  1  0  0  0  0
 47 49  1  0  0  0  0
 49 48  1  0  0  0  0
M  END
>  <MODEL>
9

>  <REMARK>
 VINA RESULT:      -3.3      2.224     10.569
  Name = 
  19 active torsions:
  status: ('A' for Active; 'I' for Inactive)
    1  A    between atoms: C_2  and  O_7
    2  A    between atoms: C_2  and  N_35
    3  A    between atoms: C_3  and  C_12
    4  A    between atoms: S_4  and  C_27
    5  A    between atoms: S_4  and  C_32
    6  A    between atoms: O_7  and  C_10
    7  A    between atoms: C_8  and  C_46
    8  A    between atoms: C_9  and  C_25
    9  A    between atoms: C_9  and  C_43
   10  A    between atoms: C_10  and  C_24
   11  A    between atoms: C_12  and  C_36
   12  A    between atoms: N_14  and  C_25
   13  A    between atoms: C_24  and  C_43
   14  A    between atoms: C_24  and  C_46
   15  A    between atoms: C_28  and  S_41
   16  A    between atoms: CA_30  and  C_45
   17  A    between atoms: C_31  and  S_41
   18  A    between atoms: C_39  and  C_42
   19  A    between atoms: C_42  and  C_49
                            x       y       z     vdW  Elec       q    Type
                         _______ _______ _______ _____ _____    ______ ____

>  <TORSDO>
F 19

$$$$
