=
 OpenBabel11042420133D

 25 26  0  0  1  0  0  0  0  0999 V2000
  161.0420  205.4670  149.4240 C   0  0  0  0  0  0  0  0  0  0  0  0
  160.9910  206.5660  150.1960 C   0  0  0  0  0  3  0  0  0  0  0  0
  161.4270  205.4930  147.9980 C   0  0  0  0  0  0  0  0  0  0  0  0
  160.5270  205.9390  147.0210 C   0  0  0  0  0  2  0  0  0  0  0  0
  160.1030  206.3170  144.7940 O   0  0  0  0  0  0  0  0  0  0  0  0
  163.0060  204.9710  146.2470 C   0  0  0  0  0  3  0  0  0  0  0  0
  162.6700  204.9870  147.6020 C   0  0  0  0  0  3  0  0  0  0  0  0
  162.1230  205.4290  145.3200 N   0  0  0  0  0  0  0  0  0  0  0  0
  160.9000  205.9060  145.6760 C   0  0  0  0  0  0  0  0  0  0  0  0
  162.0390  209.6170  148.6680 C   0  0  0  0  0  3  0  0  0  0  0  0
  161.4420  207.9200  149.8320 C   0  0  0  0  0  0  0  0  0  0  0  0
  162.1900  210.0100  149.9930 C   0  0  0  0  0  3  0  0  0  0  0  0
  161.5980  208.3770  148.6150 O   0  0  0  0  0  0  0  0  0  0  0  0
  161.7890  208.8050  152.1350 N   0  0  0  0  0  1  0  0  0  0  0  0
  161.8040  208.9040  150.7150 C   0  0  0  0  0  0  0  0  0  0  0  0
  160.6100  204.1440  150.0020 C   0  0  1  0  0  3  0  0  0  0  0  0
  160.5430  201.8420  148.9360 C   0  0  0  0  0  0  0  0  0  0  0  0
  161.2530  203.0200  149.3240 N   0  0  0  0  0  2  0  0  0  0  0  0
  159.3190  201.7120  149.2050 O   0  0  0  0  0  0  0  0  0  0  0  0
  161.2650  200.7440  148.2400 C   0  0  0  0  0  2  0  0  0  0  0  0
  161.1610  200.9280  146.7390 C   0  0  0  0  0  1  0  0  0  0  0  0
  161.2050  202.6760  151.9330 C   0  0  0  0  0  1  0  0  0  0  0  0
  160.8420  204.0900  151.5120 C   0  0  1  0  0  3  0  0  0  0  0  0
  161.8540  204.9750  151.8990 O   0  0  0  0  0  0  0  0  0  0  0  0
  161.4980  205.3890  153.1830 C   0  0  0  0  0  1  0  0  0  0  0  0
  1 16  1  0  0  0  0
  1  2  2  0  0  0  0
  3  1  1  0  0  0  0
  4  3  1  0  0  0  0
  5  9  2  0  0  0  0
  6  7  1  0  0  0  0
  7  3  2  0  0  0  0
  8  9  1  0  0  0  0
  8  6  2  0  0  0  0
  9  4  1  0  0  0  0
 10 12  2  0  0  0  0
 11  2  1  0  0  0  0
 11 15  2  0  0  0  0
 12 15  1  0  0  0  0
 13 10  1  0  0  0  0
 13 11  1  0  0  0  0
 15 14  1  0  0  0  0
 16 18  1  6  0  0  0
 16 23  1  0  0  0  0
 17 19  2  0  0  0  0
 17 18  1  0  0  0  0
 20 17  1  0  0  0  0
 21 20  1  0  0  0  0
 23 24  1  0  0  0  0
 23 22  1  6  0  0  0
 24 25  1  0  0  0  0
M  END
>  <MODEL>
1

>  <REMARK>
 VINA RESULT:      -7.8      0.000      0.000
  Name = 
  7 active torsions:
  status: ('A' for Active; 'I' for Inactive)
    1  A    between atoms: C_1  and  C_2
    2  A    between atoms: C_2  and  C_6
    3  A    between atoms: C_3  and  C_4
    4  A    between atoms: N_5  and  C_6
    5  A    between atoms: C_6  and  C_19
    6  A    between atoms: O_7  and  C_19
    7  A    between atoms: C_9  and  C_20
                            x       y       z     vdW  Elec       q    Type
                         _______ _______ _______ _____ _____    ______ ____

>  <TORSDO>
F 7

$$$$
=
 OpenBabel11042420133D

 25 26  0  0  1  0  0  0  0  0999 V2000
  160.9740  205.8020  149.4820 C   0  0  0  0  0  0  0  0  0  0  0  0
  160.8530  204.7220  150.2730 C   0  0  0  0  0  3  0  0  0  0  0  0
  161.2270  205.7200  148.0290 C   0  0  0  0  0  0  0  0  0  0  0  0
  162.4190  205.1710  147.5380 C   0  0  0  0  0  3  0  0  0  0  0  0
  163.7130  204.6480  145.7120 O   0  0  0  0  0  0  0  0  0  0  0  0
  160.5790  206.2360  145.7600 C   0  0  0  0  0  3  0  0  0  0  0  0
  160.3090  206.2740  147.1300 C   0  0  0  0  0  2  0  0  0  0  0  0
  161.7340  205.6770  145.3080 N   0  0  0  0  0  0  0  0  0  0  0  0
  162.6520  205.1510  146.1620 C   0  0  0  0  0  0  0  0  0  0  0  0
  160.4380  201.5720  148.6460 C   0  0  0  0  0  3  0  0  0  0  0  0
  160.7910  203.3150  149.8410 C   0  0  0  0  0  0  0  0  0  0  0  0
  160.9010  201.0930  149.8660 C   0  0  0  0  0  3  0  0  0  0  0  0
  160.3840  202.8880  148.6710 O   0  0  0  0  0  0  0  0  0  0  0  0
  161.5900  202.2630  151.9530 N   0  0  0  0  0  1  0  0  0  0  0  0
  161.1150  202.2300  150.6110 C   0  0  0  0  0  0  0  0  0  0  0  0
  160.9360  207.1740  150.1030 C   0  0  1  0  0  3  0  0  0  0  0  0
  161.5870  206.5800  152.4820 C   0  0  0  0  0  0  0  0  0  0  0  0
  160.6580  207.1130  151.5370 N   0  0  0  0  0  2  0  0  0  0  0  0
  162.6870  206.0980  152.1010 O   0  0  0  0  0  0  0  0  0  0  0  0
  161.2360  206.5600  153.9280 C   0  0  0  0  0  2  0  0  0  0  0  0
  160.8350  207.9500  154.3800 C   0  0  0  0  0  1  0  0  0  0  0  0
  162.0640  208.7720  148.5500 C   0  0  0  0  0  1  0  0  0  0  0  0
  162.2210  207.9530  149.8190 C   0  0  1  0  0  3  0  0  0  0  0  0
  162.5480  208.7940  150.8880 O   0  0  0  0  0  0  0  0  0  0  0  0
  162.1410  210.0650  150.4840 C   0  0  0  0  0  1  0  0  0  0  0  0
  1  2  2  0  0  0  0
  3  1  1  0  0  0  0
  4  3  2  0  0  0  0
  5  9  2  0  0  0  0
  6  7  1  0  0  0  0
  7  3  1  0  0  0  0
  8  6  2  0  0  0  0
  8  9  1  0  0  0  0
  9  4  1  0  0  0  0
 10 13  1  0  0  0  0
 10 12  2  0  0  0  0
 11  2  1  0  0  0  0
 11 15  2  0  0  0  0
 12 15  1  0  0  0  0
 13 11  1  0  0  0  0
 15 14  1  0  0  0  0
 16  1  1  1  0  0  0
 16 18  1  0  0  0  0
 17 20  1  0  0  0  0
 18 17  1  0  0  0  0
 19 17  2  0  0  0  0
 20 21  1  0  0  0  0
 23 22  1  6  0  0  0
 23 16  1  0  0  0  0
 23 24  1  0  0  0  0
 25 24  1  0  0  0  0
M  END
>  <MODEL>
2

>  <REMARK>
 VINA RESULT:      -7.7      1.550      5.399
  Name = 
  7 active torsions:
  status: ('A' for Active; 'I' for Inactive)
    1  A    between atoms: C_1  and  C_2
    2  A    between atoms: C_2  and  C_6
    3  A    between atoms: C_3  and  C_4
    4  A    between atoms: N_5  and  C_6
    5  A    between atoms: C_6  and  C_19
    6  A    between atoms: O_7  and  C_19
    7  A    between atoms: C_9  and  C_20
                            x       y       z     vdW  Elec       q    Type
                         _______ _______ _______ _____ _____    ______ ____

>  <TORSDO>
F 7

$$$$
=
 OpenBabel11042420133D

 25 26  0  0  1  0  0  0  0  0999 V2000
  160.7280  209.3900  153.3360 C   0  0  0  0  0  0  0  0  0  0  0  0
  159.7630  210.2290  152.9210 C   0  0  0  0  0  3  0  0  0  0  0  0
  161.2640  209.3840  154.7120 C   0  0  0  0  0  0  0  0  0  0  0  0
  162.2080  210.3370  155.1180 C   0  0  0  0  0  2  0  0  0  0  0  0
  163.5710  211.1370  156.7870 O   0  0  0  0  0  0  0  0  0  0  0  0
  161.4440  208.3410  156.8830 C   0  0  0  0  0  3  0  0  0  0  0  0
  160.8950  208.3670  155.6000 C   0  0  0  0  0  3  0  0  0  0  0  0
  162.3420  209.2910  157.2600 N   0  0  0  0  0  0  0  0  0  0  0  0
  162.7330  210.2780  156.4100 C   0  0  0  0  0  0  0  0  0  0  0  0
  157.7690  211.9160  155.3540 C   0  0  0  0  0  3  0  0  0  0  0  0
  158.9790  211.1530  153.7590 C   0  0  0  0  0  0  0  0  0  0  0  0
  157.9190  212.9760  154.4680 C   0  0  0  0  0  3  0  0  0  0  0  0
  158.4060  210.8570  154.9000 O   0  0  0  0  0  0  0  0  0  0  0  0
  159.1220  213.1630  152.2950 N   0  0  0  0  0  1  0  0  0  0  0  0
  158.6940  212.4580  153.4560 C   0  0  0  0  0  0  0  0  0  0  0  0
  161.3650  208.4560  152.3400 C   0  0  1  0  0  3  0  0  0  0  0  0
  161.6580  205.9360  152.3430 C   0  0  0  0  0  0  0  0  0  0  0  0
  160.8340  207.0990  152.4520 N   0  0  0  0  0  2  0  0  0  0  0  0
  162.8900  206.0410  152.1030 O   0  0  0  0  0  0  0  0  0  0  0  0
  161.0460  204.5870  152.4800 C   0  0  0  0  0  2  0  0  0  0  0  0
  160.8490  203.9690  151.1100 C   0  0  0  0  0  1  0  0  0  0  0  0
  162.3570  209.9680  150.6160 C   0  0  0  0  0  1  0  0  0  0  0  0
  161.2350  208.9880  150.9110 C   0  0  1  0  0  3  0  0  0  0  0  0
  161.2610  207.9430  149.9810 O   0  0  0  0  0  0  0  0  0  0  0  0
  161.9710  208.4500  148.8920 C   0  0  0  0  0  1  0  0  0  0  0  0
  1  3  1  0  0  0  0
  2  1  2  0  0  0  0
  2 11  1  0  0  0  0
  3  4  1  0  0  0  0
  3  7  2  0  0  0  0
  4  9  1  0  0  0  0
  6  8  2  0  0  0  0
  7  6  1  0  0  0  0
  9  5  2  0  0  0  0
  9  8  1  0  0  0  0
 11 13  1  0  0  0  0
 12 10  2  0  0  0  0
 13 10  1  0  0  0  0
 14 15  1  0  0  0  0
 15 11  2  0  0  0  0
 15 12  1  0  0  0  0
 16 18  1  6  0  0  0
 16  1  1  0  0  0  0
 17 18  1  0  0  0  0
 17 20  1  0  0  0  0
 19 17  2  0  0  0  0
 21 20  1  0  0  0  0
 23 22  1  6  0  0  0
 23 16  1  0  0  0  0
 24 23  1  0  0  0  0
 25 24  1  0  0  0  0
M  END
>  <MODEL>
3

>  <REMARK>
 VINA RESULT:      -7.2      4.307      7.599
  Name = 
  7 active torsions:
  status: ('A' for Active; 'I' for Inactive)
    1  A    between atoms: C_1  and  C_2
    2  A    between atoms: C_2  and  C_6
    3  A    between atoms: C_3  and  C_4
    4  A    between atoms: N_5  and  C_6
    5  A    between atoms: C_6  and  C_19
    6  A    between atoms: O_7  and  C_19
    7  A    between atoms: C_9  and  C_20
                            x       y       z     vdW  Elec       q    Type
                         _______ _______ _______ _____ _____    ______ ____

>  <TORSDO>
F 7

$$$$
=
 OpenBabel11042420133D

 25 26  0  0  1  0  0  0  0  0999 V2000
  161.5540  206.2160  149.3020 C   0  0  0  0  0  0  0  0  0  0  0  0
  161.7750  206.5470  148.0190 C   0  0  0  0  0  3  0  0  0  0  0  0
  161.3410  204.8280  149.7590 C   0  0  0  0  0  0  0  0  0  0  0  0
  160.7550  203.8770  148.9130 C   0  0  0  0  0  3  0  0  0  0  0  0
  160.0070  201.7220  148.6290 O   0  0  0  0  0  0  0  0  0  0  0  0
  161.3950  203.1700  151.5150 C   0  0  0  0  0  3  0  0  0  0  0  0
  161.6450  204.4720  151.0770 C   0  0  0  0  0  2  0  0  0  0  0  0
  160.8450  202.2600  150.6660 N   0  0  0  0  0  0  0  0  0  0  0  0
  160.5210  202.5850  149.3870 C   0  0  0  0  0  0  0  0  0  0  0  0
  162.8950  204.1410  145.6310 C   0  0  0  0  0  3  0  0  0  0  0  0
  161.9980  205.6200  146.8960 C   0  0  0  0  0  0  0  0  0  0  0  0
  161.7540  204.5570  144.9560 C   0  0  0  0  0  3  0  0  0  0  0  0
  163.0070  204.7930  146.7700 O   0  0  0  0  0  0  0  0  0  0  0  0
  160.0090  206.2390  145.5290 N   0  0  0  0  0  1  0  0  0  0  0  0
  161.2020  205.5050  145.7870 C   0  0  0  0  0  0  0  0  0  0  0  0
  161.4310  207.3100  150.3310 C   0  0  1  0  0  3  0  0  0  0  0  0
  160.9810  207.3590  152.8280 C   0  0  0  0  0  0  0  0  0  0  0  0
  161.6400  206.8060  151.6870 N   0  0  0  0  0  2  0  0  0  0  0  0
  160.2080  208.3470  152.7070 O   0  0  0  0  0  0  0  0  0  0  0  0
  161.2380  206.7850  154.1760 C   0  0  0  0  0  2  0  0  0  0  0  0
  160.4630  207.5610  155.2220 C   0  0  0  0  0  1  0  0  0  0  0  0
  161.7940  209.3210  148.8940 C   0  0  0  0  0  1  0  0  0  0  0  0
  162.3680  208.4790  150.0210 C   0  0  1  0  0  3  0  0  0  0  0  0
  162.5720  209.2750  151.1520 O   0  0  0  0  0  0  0  0  0  0  0  0
  162.0110  210.5110  150.8280 C   0  0  0  0  0  1  0  0  0  0  0  0
  1  3  1  0  0  0  0
  2  1  2  0  0  0  0
  3  7  1  0  0  0  0
  4  9  1  0  0  0  0
  4  3  2  0  0  0  0
  5  9  2  0  0  0  0
  7  6  1  0  0  0  0
  8  6  2  0  0  0  0
  9  8  1  0  0  0  0
 10 13  1  0  0  0  0
 11  2  1  0  0  0  0
 12 10  2  0  0  0  0
 12 15  1  0  0  0  0
 13 11  1  0  0  0  0
 14 15  1  0  0  0  0
 15 11  2  0  0  0  0
 16  1  1  6  0  0  0
 16 18  1  0  0  0  0
 17 20  1  0  0  0  0
 18 17  1  0  0  0  0
 19 17  2  0  0  0  0
 20 21  1  0  0  0  0
 23 22  1  6  0  0  0
 23 16  1  0  0  0  0
 23 24  1  0  0  0  0
 25 24  1  0  0  0  0
M  END
>  <MODEL>
4

>  <REMARK>
 VINA RESULT:      -7.2      1.814      5.776
  Name = 
  7 active torsions:
  status: ('A' for Active; 'I' for Inactive)
    1  A    between atoms: C_1  and  C_2
    2  A    between atoms: C_2  and  C_6
    3  A    between atoms: C_3  and  C_4
    4  A    between atoms: N_5  and  C_6
    5  A    between atoms: C_6  and  C_19
    6  A    between atoms: O_7  and  C_19
    7  A    between atoms: C_9  and  C_20
                            x       y       z     vdW  Elec       q    Type
                         _______ _______ _______ _____ _____    ______ ____

>  <TORSDO>
F 7

$$$$
=
 OpenBabel11042420133D

 25 26  0  0  1  0  0  0  0  0999 V2000
  161.4910  205.7860  149.5290 C   0  0  0  0  0  0  0  0  0  0  0  0
  161.2250  204.7180  150.3000 C   0  0  0  0  0  3  0  0  0  0  0  0
  161.6730  205.7070  148.0660 C   0  0  0  0  0  0  0  0  0  0  0  0
  160.6410  206.0780  147.1930 C   0  0  0  0  0  3  0  0  0  0  0  0
  159.9070  206.2900  145.0250 O   0  0  0  0  0  0  0  0  0  0  0  0
  162.9980  205.0570  146.1540 C   0  0  0  0  0  3  0  0  0  0  0  0
  162.8540  205.1740  147.5380 C   0  0  0  0  0  2  0  0  0  0  0  0
  161.9890  205.4450  145.3280 N   0  0  0  0  0  0  0  0  0  0  0  0
  160.8230  205.9460  145.8160 C   0  0  0  0  0  0  0  0  0  0  0  0
  160.2870  201.7220  148.6020 C   0  0  0  0  0  3  0  0  0  0  0  0
  160.9180  203.3530  149.8400 C   0  0  0  0  0  0  0  0  0  0  0  0
  160.6140  201.1490  149.8260 C   0  0  0  0  0  3  0  0  0  0  0  0
  160.4770  203.0240  148.6510 O   0  0  0  0  0  0  0  0  0  0  0  0
  161.4400  202.1430  151.9540 N   0  0  0  0  0  1  0  0  0  0  0  0
  161.0110  202.2160  150.5990 C   0  0  0  0  0  0  0  0  0  0  0  0
  161.7000  207.1280  150.1820 C   0  0  1  0  0  3  0  0  0  0  0  0
  162.0080  209.5160  149.3790 C   0  0  0  0  0  0  0  0  0  0  0  0
  161.3970  208.2280  149.2680 N   0  0  0  0  0  2  0  0  0  0  0  0
  162.8180  209.7640  150.3120 O   0  0  0  0  0  0  0  0  0  0  0  0
  161.6560  210.5830  148.4050 C   0  0  0  0  0  2  0  0  0  0  0  0
  162.1240  211.9290  148.9230 C   0  0  0  0  0  1  0  0  0  0  0  0
  161.7430  206.7670  152.6530 C   0  0  0  0  0  1  0  0  0  0  0  0
  160.9040  207.2490  151.4820 C   0  0  1  0  0  3  0  0  0  0  0  0
  160.4960  208.5690  151.7030 O   0  0  0  0  0  0  0  0  0  0  0  0
  160.8720  208.8470  153.0170 C   0  0  0  0  0  1  0  0  0  0  0  0
  1 16  1  0  0  0  0
  1  2  2  0  0  0  0
  3  1  1  0  0  0  0
  4  3  2  0  0  0  0
  5  9  2  0  0  0  0
  6  7  1  0  0  0  0
  7  3  1  0  0  0  0
  8  9  1  0  0  0  0
  8  6  2  0  0  0  0
  9  4  1  0  0  0  0
 10 13  1  0  0  0  0
 10 12  2  0  0  0  0
 11  2  1  0  0  0  0
 11 15  2  0  0  0  0
 12 15  1  0  0  0  0
 13 11  1  0  0  0  0
 15 14  1  0  0  0  0
 16 18  1  6  0  0  0
 16 23  1  0  0  0  0
 17 19  2  0  0  0  0
 18 17  1  0  0  0  0
 20 21  1  0  0  0  0
 20 17  1  0  0  0  0
 23 24  1  0  0  0  0
 23 22  1  1  0  0  0
 24 25  1  0  0  0  0
M  END
>  <MODEL>
5

>  <REMARK>
 VINA RESULT:      -7.1      1.559      5.465
  Name = 
  7 active torsions:
  status: ('A' for Active; 'I' for Inactive)
    1  A    between atoms: C_1  and  C_2
    2  A    between atoms: C_2  and  C_6
    3  A    between atoms: C_3  and  C_4
    4  A    between atoms: N_5  and  C_6
    5  A    between atoms: C_6  and  C_19
    6  A    between atoms: O_7  and  C_19
    7  A    between atoms: C_9  and  C_20
                            x       y       z     vdW  Elec       q    Type
                         _______ _______ _______ _____ _____    ______ ____

>  <TORSDO>
F 7

$$$$
=
 OpenBabel11042420133D

 25 26  0  0  1  0  0  0  0  0999 V2000
  160.1000  210.3250  153.6270 C   0  0  0  0  0  0  0  0  0  0  0  0
  160.0860  209.5730  152.5130 C   0  0  0  0  0  3  0  0  0  0  0  0
  160.8580  209.9630  154.8410 C   0  0  0  0  0  0  0  0  0  0  0  0
  161.9810  210.7040  155.2340 C   0  0  0  0  0  3  0  0  0  0  0  0
  163.7090  210.9770  156.7250 O   0  0  0  0  0  0  0  0  0  0  0  0
  161.2610  208.4550  156.6850 C   0  0  0  0  0  3  0  0  0  0  0  0
  160.5090  208.8170  155.5660 C   0  0  0  0  0  2  0  0  0  0  0  0
  162.3340  209.2040  157.0570 N   0  0  0  0  0  0  0  0  0  0  0  0
  162.7070  210.3090  156.3580 C   0  0  0  0  0  0  0  0  0  0  0  0
  161.7390  206.4120  152.3810 C   0  0  0  0  0  3  0  0  0  0  0  0
  160.9110  208.3830  152.2410 C   0  0  0  0  0  0  0  0  0  0  0  0
  162.4660  207.0450  151.3800 C   0  0  0  0  0  3  0  0  0  0  0  0
  160.8330  207.2350  152.8670 O   0  0  0  0  0  0  0  0  0  0  0  0
  162.3300  209.3450  150.4330 N   0  0  0  0  0  1  0  0  0  0  0  0
  161.9170  208.3050  151.3140 C   0  0  0  0  0  0  0  0  0  0  0  0
  159.2400  211.5600  153.6890 C   0  0  1  0  0  3  0  0  0  0  0  0
  158.5060  213.1360  151.8410 C   0  0  0  0  0  0  0  0  0  0  0  0
  158.5820  211.8280  152.4110 N   0  0  0  0  0  2  0  0  0  0  0  0
  158.9790  214.1320  152.4500 O   0  0  0  0  0  0  0  0  0  0  0  0
  157.8280  213.3280  150.5300 C   0  0  0  0  0  2  0  0  0  0  0  0
  158.8130  213.8770  149.5170 C   0  0  0  0  0  1  0  0  0  0  0  0
  158.4630  212.6080  155.8190 C   0  0  0  0  0  1  0  0  0  0  0  0
  158.2250  211.4790  154.8310 C   0  0  1  0  0  3  0  0  0  0  0  0
  156.9140  211.5410  154.3460 O   0  0  0  0  0  0  0  0  0  0  0  0
  156.1390  210.9190  155.3250 C   0  0  0  0  0  1  0  0  0  0  0  0
  1 16  1  0  0  0  0
  1  3  1  0  0  0  0
  2  1  2  0  0  0  0
  3  4  2  0  0  0  0
  3  7  1  0  0  0  0
  4  9  1  0  0  0  0
  6  8  2  0  0  0  0
  7  6  1  0  0  0  0
  9  5  2  0  0  0  0
  9  8  1  0  0  0  0
 10 13  1  0  0  0  0
 11  2  1  0  0  0  0
 11 13  1  0  0  0  0
 12 10  2  0  0  0  0
 14 15  1  0  0  0  0
 15 12  1  0  0  0  0
 15 11  2  0  0  0  0
 16 18  1  6  0  0  0
 16 23  1  0  0  0  0
 17 18  1  0  0  0  0
 17 19  2  0  0  0  0
 20 17  1  0  0  0  0
 21 20  1  0  0  0  0
 23 22  1  1  0  0  0
 24 23  1  0  0  0  0
 24 25  1  0  0  0  0
M  END
>  <MODEL>
6

>  <REMARK>
 VINA RESULT:      -6.8      5.040      9.192
  Name = 
  7 active torsions:
  status: ('A' for Active; 'I' for Inactive)
    1  A    between atoms: C_1  and  C_2
    2  A    between atoms: C_2  and  C_6
    3  A    between atoms: C_3  and  C_4
    4  A    between atoms: N_5  and  C_6
    5  A    between atoms: C_6  and  C_19
    6  A    between atoms: O_7  and  C_19
    7  A    between atoms: C_9  and  C_20
                            x       y       z     vdW  Elec       q    Type
                         _______ _______ _______ _____ _____    ______ ____

>  <TORSDO>
F 7

$$$$
=
 OpenBabel11042420133D

 25 26  0  0  1  0  0  0  0  0999 V2000
  161.7200  209.6380  150.4570 C   0  0  0  0  0  0  0  0  0  0  0  0
  161.9360  210.3760  149.3550 C   0  0  0  0  0  3  0  0  0  0  0  0
  161.3880  210.2210  151.7730 C   0  0  0  0  0  0  0  0  0  0  0  0
  162.3150  210.1960  152.8230 C   0  0  0  0  0  3  0  0  0  0  0  0
  162.7880  210.7030  155.0150 O   0  0  0  0  0  0  0  0  0  0  0  0
  159.7840  211.2320  153.2700 C   0  0  0  0  0  3  0  0  0  0  0  0
  160.1050  210.7270  152.0080 C   0  0  0  0  0  2  0  0  0  0  0  0
  160.7100  211.2150  154.2660 N   0  0  0  0  0  0  0  0  0  0  0  0
  161.9570  210.7100  154.0700 C   0  0  0  0  0  0  0  0  0  0  0  0
  160.9180  213.7970  149.4370 C   0  0  0  0  0  3  0  0  0  0  0  0
  161.7360  211.8290  149.2140 C   0  0  0  0  0  0  0  0  0  0  0  0
  161.9550  213.9320  148.5210 C   0  0  0  0  0  3  0  0  0  0  0  0
  160.8180  212.5410  149.8200 O   0  0  0  0  0  0  0  0  0  0  0  0
  163.5400  212.2730  147.5540 N   0  0  0  0  0  1  0  0  0  0  0  0
  162.4580  212.6570  148.3950 C   0  0  0  0  0  0  0  0  0  0  0  0
  161.9020  208.1440  150.3860 C   0  0  1  0  0  3  0  0  0  0  0  0
  161.9190  206.4600  152.2840 C   0  0  0  0  0  0  0  0  0  0  0  0
  161.2610  207.4660  151.5120 N   0  0  0  0  0  2  0  0  0  0  0  0
  163.0870  206.0870  151.9920 O   0  0  0  0  0  0  0  0  0  0  0  0
  161.2050  205.8220  153.4220 C   0  0  0  0  0  2  0  0  0  0  0  0
  160.8290  206.8720  154.4490 C   0  0  0  0  0  1  0  0  0  0  0  0
  162.5900  207.0300  148.2590 C   0  0  0  0  0  1  0  0  0  0  0  0
  161.4160  207.5830  149.0490 C   0  0  1  0  0  3  0  0  0  0  0  0
  160.4590  206.5810  149.2400 O   0  0  0  0  0  0  0  0  0  0  0  0
  160.9240  205.4940  148.5000 C   0  0  0  0  0  1  0  0  0  0  0  0
  1  3  1  0  0  0  0
  2  1  2  0  0  0  0
  3  7  1  0  0  0  0
  3  4  2  0  0  0  0
  4  9  1  0  0  0  0
  6  8  2  0  0  0  0
  7  6  1  0  0  0  0
  9  8  1  0  0  0  0
  9  5  2  0  0  0  0
 10 13  1  0  0  0  0
 11  2  1  0  0  0  0
 11 13  1  0  0  0  0
 12 10  2  0  0  0  0
 14 15  1  0  0  0  0
 15 12  1  0  0  0  0
 15 11  2  0  0  0  0
 16  1  1  6  0  0  0
 16 18  1  0  0  0  0
 17 20  1  0  0  0  0
 18 17  1  0  0  0  0
 19 17  2  0  0  0  0
 20 21  1  0  0  0  0
 23 22  1  1  0  0  0
 23 24  1  0  0  0  0
 23 16  1  0  0  0  0
 25 24  1  0  0  0  0
M  END
>  <MODEL>
7

>  <REMARK>
 VINA RESULT:      -6.7      3.077      6.651
  Name = 
  7 active torsions:
  status: ('A' for Active; 'I' for Inactive)
    1  A    between atoms: C_1  and  C_2
    2  A    between atoms: C_2  and  C_6
    3  A    between atoms: C_3  and  C_4
    4  A    between atoms: N_5  and  C_6
    5  A    between atoms: C_6  and  C_19
    6  A    between atoms: O_7  and  C_19
    7  A    between atoms: C_9  and  C_20
                            x       y       z     vdW  Elec       q    Type
                         _______ _______ _______ _____ _____    ______ ____

>  <TORSDO>
F 7

$$$$
=
 OpenBabel11042420133D

 25 26  0  0  1  0  0  0  0  0999 V2000
  161.5530  206.2870  148.9140 C   0  0  0  0  0  0  0  0  0  0  0  0
  161.5090  206.8150  147.6790 C   0  0  0  0  0  3  0  0  0  0  0  0
  161.1780  204.8900  149.2130 C   0  0  0  0  0  0  0  0  0  0  0  0
  161.3860  203.8730  148.2710 C   0  0  0  0  0  3  0  0  0  0  0  0
  161.1730  201.6500  147.7270 O   0  0  0  0  0  0  0  0  0  0  0  0
  160.1350  203.2690  150.6690 C   0  0  0  0  0  3  0  0  0  0  0  0
  160.5290  204.5840  150.4150 C   0  0  0  0  0  2  0  0  0  0  0  0
  160.3680  202.2970  149.7460 N   0  0  0  0  0  0  0  0  0  0  0  0
  160.9780  202.5710  148.5620 C   0  0  0  0  0  0  0  0  0  0  0  0
  160.2370  205.3150  144.7000 C   0  0  0  0  0  3  0  0  0  0  0  0
  161.2470  206.0950  146.4210 C   0  0  0  0  0  0  0  0  0  0  0  0
  161.5170  204.7770  144.6480 C   0  0  0  0  0  3  0  0  0  0  0  0
  160.1150  206.0850  145.7620 O   0  0  0  0  0  0  0  0  0  0  0  0
  163.4820  205.0240  146.1580 N   0  0  0  0  0  1  0  0  0  0  0  0
  162.1400  205.2900  145.7620 C   0  0  0  0  0  0  0  0  0  0  0  0
  161.9200  207.1710  150.0770 C   0  0  1  0  0  3  0  0  0  0  0  0
  162.0850  209.6590  150.5460 C   0  0  0  0  0  0  0  0  0  0  0  0
  161.4900  208.5520  149.8650 N   0  0  0  0  0  2  0  0  0  0  0  0
  162.9930  209.4760  151.3990 O   0  0  0  0  0  0  0  0  0  0  0  0
  161.6010  211.0380  150.2700 C   0  0  0  0  0  2  0  0  0  0  0  0
  162.0710  211.4850  148.9000 C   0  0  0  0  0  1  0  0  0  0  0  0
  162.5260  206.1880  152.2920 C   0  0  0  0  0  1  0  0  0  0  0  0
  161.3770  206.6150  151.3950 C   0  0  1  0  0  3  0  0  0  0  0  0
  160.5880  207.5640  152.0550 O   0  0  0  0  0  0  0  0  0  0  0  0
  160.9110  207.4240  153.4050 C   0  0  0  0  0  1  0  0  0  0  0  0
  1  3  1  0  0  0  0
  2  1  2  0  0  0  0
  3  7  1  0  0  0  0
  4  9  1  0  0  0  0
  4  3  2  0  0  0  0
  5  9  2  0  0  0  0
  7  6  1  0  0  0  0
  8  6  2  0  0  0  0
  9  8  1  0  0  0  0
 10 13  1  0  0  0  0
 11  2  1  0  0  0  0
 12 10  2  0  0  0  0
 12 15  1  0  0  0  0
 13 11  1  0  0  0  0
 15 14  1  0  0  0  0
 15 11  2  0  0  0  0
 16  1  1  6  0  0  0
 16 23  1  0  0  0  0
 17 19  2  0  0  0  0
 18 16  1  0  0  0  0
 18 17  1  0  0  0  0
 20 17  1  0  0  0  0
 21 20  1  0  0  0  0
 23 24  1  0  0  0  0
 23 22  1  1  0  0  0
 24 25  1  0  0  0  0
M  END
>  <MODEL>
8

>  <REMARK>
 VINA RESULT:      -6.3      1.649      5.677
  Name = 
  7 active torsions:
  status: ('A' for Active; 'I' for Inactive)
    1  A    between atoms: C_1  and  C_2
    2  A    between atoms: C_2  and  C_6
    3  A    between atoms: C_3  and  C_4
    4  A    between atoms: N_5  and  C_6
    5  A    between atoms: C_6  and  C_19
    6  A    between atoms: O_7  and  C_19
    7  A    between atoms: C_9  and  C_20
                            x       y       z     vdW  Elec       q    Type
                         _______ _______ _______ _____ _____    ______ ____

>  <TORSDO>
F 7

$$$$
=
 OpenBabel11042420133D

 25 26  0  0  1  0  0  0  0  0999 V2000
  161.9420  206.3700  149.4690 C   0  0  0  0  0  0  0  0  0  0  0  0
  162.1170  206.6960  148.1770 C   0  0  0  0  0  3  0  0  0  0  0  0
  161.6080  205.0050  149.9240 C   0  0  0  0  0  0  0  0  0  0  0  0
  160.8830  204.1320  149.1020 C   0  0  0  0  0  3  0  0  0  0  0  0
  159.9000  202.0710  148.8400 O   0  0  0  0  0  0  0  0  0  0  0  0
  161.5790  203.3270  151.6610 C   0  0  0  0  0  3  0  0  0  0  0  0
  161.9410  204.6020  151.2220 C   0  0  0  0  0  2  0  0  0  0  0  0
  160.8930  202.4910  150.8350 N   0  0  0  0  0  0  0  0  0  0  0  0
  160.5400  202.8650  149.5770 C   0  0  0  0  0  0  0  0  0  0  0  0
  162.8530  204.2770  145.6580 C   0  0  0  0  0  3  0  0  0  0  0  0
  162.1670  205.7700  147.0320 C   0  0  0  0  0  0  0  0  0  0  0  0
  161.6420  204.7210  145.1410 C   0  0  0  0  0  3  0  0  0  0  0  0
  163.1310  204.9210  146.7730 O   0  0  0  0  0  0  0  0  0  0  0  0
  160.0280  206.4390  145.9440 N   0  0  0  0  0  1  0  0  0  0  0  0
  161.2270  205.6780  146.0390 C   0  0  0  0  0  0  0  0  0  0  0  0
  162.0030  207.4540  150.5130 C   0  0  1  0  0  3  0  0  0  0  0  0
  162.2520  209.9790  150.5190 C   0  0  0  0  0  0  0  0  0  0  0  0
  161.7460  208.7740  149.9410 N   0  0  0  0  0  2  0  0  0  0  0  0
  162.9200  209.9480  151.5870 O   0  0  0  0  0  0  0  0  0  0  0  0
  161.9580  211.2860  149.8730 C   0  0  0  0  0  2  0  0  0  0  0  0
  162.0530  211.1490  148.3660 C   0  0  0  0  0  1  0  0  0  0  0  0
  161.8580  206.7840  152.9150 C   0  0  0  0  0  1  0  0  0  0  0  0
  161.0580  207.1600  151.6800 C   0  0  1  0  0  3  0  0  0  0  0  0
  160.2440  208.2630  151.9600 O   0  0  0  0  0  0  0  0  0  0  0  0
  160.4530  208.5300  153.3130 C   0  0  0  0  0  1  0  0  0  0  0  0
  1  3  1  0  0  0  0
  2  1  2  0  0  0  0
  3  7  1  0  0  0  0
  4  9  1  0  0  0  0
  4  3  2  0  0  0  0
  5  9  2  0  0  0  0
  7  6  1  0  0  0  0
  8  6  2  0  0  0  0
  9  8  1  0  0  0  0
 10 13  1  0  0  0  0
 11  2  1  0  0  0  0
 12 10  2  0  0  0  0
 12 15  1  0  0  0  0
 13 11  1  0  0  0  0
 14 15  1  0  0  0  0
 15 11  2  0  0  0  0
 16  1  1  6  0  0  0
 16 23  1  0  0  0  0
 17 19  2  0  0  0  0
 18 16  1  0  0  0  0
 18 17  1  0  0  0  0
 20 17  1  0  0  0  0
 21 20  1  0  0  0  0
 23 24  1  0  0  0  0
 23 22  1  1  0  0  0
 24 25  1  0  0  0  0
M  END
>  <MODEL>
9

>  <REMARK>
 VINA RESULT:      -6.3      1.933      5.816
  Name = 
  7 active torsions:
  status: ('A' for Active; 'I' for Inactive)
    1  A    between atoms: C_1  and  C_2
    2  A    between atoms: C_2  and  C_6
    3  A    between atoms: C_3  and  C_4
    4  A    between atoms: N_5  and  C_6
    5  A    between atoms: C_6  and  C_19
    6  A    between atoms: O_7  and  C_19
    7  A    between atoms: C_9  and  C_20
                            x       y       z     vdW  Elec       q    Type
                         _______ _______ _______ _____ _____    ______ ____

>  <TORSDO>
F 7

$$$$
