=
 OpenBabel11052409573D

 29 31  0  0  0  0  0  0  0  0999 V2000
  161.7240  207.0470  149.1310 N   0  0  0  0  0  0  0  0  0  0  0  0
  161.1210  206.6690  150.2230 C   0  0  0  0  0  0  0  0  0  0  0  0
  160.9800  209.8770  156.7610 C   0  0  0  0  0  1  0  0  0  0  0  0
  161.6470  210.5210  153.1320 C   0  0  0  0  0  3  0  0  0  0  0  0
  161.4140  209.2580  152.6020 C   0  0  0  0  0  0  0  0  0  0  0  0
  161.1680  207.5480  151.4020 C   0  0  0  0  0  0  0  0  0  0  0  0
  161.0500  208.2200  153.3960 C   0  0  0  0  0  0  0  0  0  0  0  0
  161.4960  210.6820  154.4800 N   0  0  0  0  0  0  0  0  0  0  0  0
  160.8840  207.1120  152.6600 N   0  0  0  0  0  0  0  0  0  0  0  0
  161.1280  209.6450  155.3010 C   0  0  0  0  0  0  0  0  0  0  0  0
  160.8920  208.3640  154.7690 C   0  0  0  0  0  3  0  0  0  0  0  0
  161.4990  208.8660  151.3240 N   0  0  0  0  0  2  0  0  0  0  0  0
  160.6390  206.4340  146.6830 S   0  0  0  0  0  0  0  0  0  0  0  0
  162.8320  205.4960  147.4590 C   0  0  0  0  0  3  0  0  0  0  0  0
  161.8140  206.3470  147.8800 C   0  0  0  0  0  0  0  0  0  0  0  0
  161.4750  205.3860  145.6660 C   0  0  0  0  0  0  0  0  0  0  0  0
  162.6340  204.9660  146.2220 N   0  0  0  0  0  0  0  0  0  0  0  0
  161.4390  205.5540  143.3080 O   0  0  0  0  0  0  0  0  0  0  0  0
  161.0150  204.9690  144.3390 C   0  0  0  0  0  0  0  0  0  0  0  0
  160.1290  203.9500  144.2150 F   0  0  0  0  0  0  0  0  0  0  0  0
  160.4270  205.3470  150.3400 C   0  0  0  0  0  2  0  0  0  0  0  0
  161.9110  202.3730  151.8560 O   0  0  0  0  0  0  0  0  0  0  0  0
  160.6250  202.4690  149.9080 N   0  0  0  0  0  2  0  0  0  0  0  0
  161.2600  203.0760  151.0390 C   0  0  0  0  0  0  0  0  0  0  0  0
  161.1670  204.4840  151.2470 N   0  0  0  0  0  2  0  0  0  0  0  0
  160.6670  201.0360  149.6600 C   0  0  0  0  0  2  0  0  0  0  0  0
  161.2340  200.7630  148.2770 C   0  0  0  0  0  2  0  0  0  0  0  0
  160.8130  201.4540  146.0330 O   0  0  0  0  0  1  0  0  0  0  0  0
  160.9230  201.9180  147.3440 C   0  0  0  0  0  2  0  0  0  0  0  0
  1  2  2  0  0  0  0
  2 21  1  0  0  0  0
  2  6  1  0  0  0  0
  4  8  1  0  0  0  0
  5  4  2  0  0  0  0
  5  7  1  0  0  0  0
  6  9  2  0  0  0  0
  7 11  2  0  0  0  0
  8 10  2  0  0  0  0
  9  7  1  0  0  0  0
 10  3  1  0  0  0  0
 11 10  1  0  0  0  0
 12  6  1  0  0  0  0
 12  5  1  0  0  0  0
 13 15  1  0  0  0  0
 14 15  2  0  0  0  0
 15  1  1  0  0  0  0
 16 17  2  0  0  0  0
 16 13  1  0  0  0  0
 17 14  1  0  0  0  0
 18 19  2  0  0  0  0
 19 16  1  0  0  0  0
 20 19  1  0  0  0  0
 21 25  1  0  0  0  0
 23 24  1  0  0  0  0
 24 25  1  0  0  0  0
 24 22  2  0  0  0  0
 26 23  1  0  0  0  0
 27 26  1  0  0  0  0
 28 29  1  0  0  0  0
 29 27  1  0  0  0  0
M  END
>  <MODEL>
1

>  <REMARK>
 VINA RESULT:      -7.5      0.000      0.000
  Name = 
  8 active torsions:
  status: ('A' for Active; 'I' for Inactive)
    1  A    between atoms: C_6  and  C_17
    2  A    between atoms: N_7  and  C_12
    3  A    between atoms: N_8  and  C_22
    4  A    between atoms: C_10  and  C_17
    5  A    between atoms: C_10  and  N_18
    6  A    between atoms: C_12  and  C_20
    7  A    between atoms: C_20  and  C_23
    8  A    between atoms: C_21  and  C_26
                            x       y       z     vdW  Elec       q    Type
                         _______ _______ _______ _____ _____    ______ ____

>  <TORSDO>
F 8

$$$$
=
 OpenBabel11052409573D

 29 31  0  0  0  0  0  0  0  0999 V2000
  161.1120  207.8170  150.6910 N   0  0  0  0  0  0  0  0  0  0  0  0
  161.4740  207.2700  151.8180 C   0  0  0  0  0  0  0  0  0  0  0  0
  159.3980  211.6430  157.2600 C   0  0  0  0  0  1  0  0  0  0  0  0
  160.5530  208.1610  156.5010 C   0  0  0  0  0  3  0  0  0  0  0  0
  160.7210  208.2440  155.1240 C   0  0  0  0  0  0  0  0  0  0  0  0
  161.1000  207.9280  153.0790 C   0  0  0  0  0  0  0  0  0  0  0  0
  160.4680  209.3950  154.4530 C   0  0  0  0  0  0  0  0  0  0  0  0
  160.1240  209.2810  157.1560 N   0  0  0  0  0  0  0  0  0  0  0  0
  160.7010  209.2280  153.1440 N   0  0  0  0  0  0  0  0  0  0  0  0
  159.8630  210.4550  156.4970 C   0  0  0  0  0  0  0  0  0  0  0  0
  160.0300  210.5440  155.1020 C   0  0  0  0  0  3  0  0  0  0  0  0
  161.1270  207.2860  154.2800 N   0  0  0  0  0  2  0  0  0  0  0  0
  160.3100  206.4040  148.4760 S   0  0  0  0  0  0  0  0  0  0  0  0
  162.5170  207.5900  148.5920 C   0  0  0  0  0  3  0  0  0  0  0  0
  161.3760  207.3570  149.3560 C   0  0  0  0  0  0  0  0  0  0  0  0
  161.3400  206.3260  147.1480 C   0  0  0  0  0  0  0  0  0  0  0  0
  162.4850  207.0120  147.3610 N   0  0  0  0  0  0  0  0  0  0  0  0
  160.0960  205.9780  145.1680 O   0  0  0  0  0  0  0  0  0  0  0  0
  161.0460  205.6070  145.9060 C   0  0  0  0  0  0  0  0  0  0  0  0
  161.7950  204.5370  145.5450 F   0  0  0  0  0  0  0  0  0  0  0  0
  162.3060  206.0260  151.8740 C   0  0  0  0  0  2  0  0  0  0  0  0
  160.4150  202.9580  152.4720 O   0  0  0  0  0  0  0  0  0  0  0  0
  161.2700  203.7120  150.4320 N   0  0  0  0  0  2  0  0  0  0  0  0
  161.0540  203.8420  151.8420 C   0  0  0  0  0  0  0  0  0  0  0  0
  161.5640  204.9720  152.5480 N   0  0  0  0  0  2  0  0  0  0  0  0
  160.7510  202.5940  149.6590 C   0  0  0  0  0  2  0  0  0  0  0  0
  161.2110  202.7020  148.2150 C   0  0  0  0  0  2  0  0  0  0  0  0
  160.6530  201.7010  146.1230 O   0  0  0  0  0  1  0  0  0  0  0  0
  160.8990  201.4200  147.4670 C   0  0  0  0  0  2  0  0  0  0  0  0
  1  2  2  0  0  0  0
  2 21  1  0  0  0  0
  2  6  1  0  0  0  0
  4  8  1  0  0  0  0
  5  4  2  0  0  0  0
  6  9  2  0  0  0  0
  6 12  1  0  0  0  0
  7 11  2  0  0  0  0
  7  5  1  0  0  0  0
  9  7  1  0  0  0  0
 10  8  2  0  0  0  0
 10  3  1  0  0  0  0
 11 10  1  0  0  0  0
 12  5  1  0  0  0  0
 13 15  1  0  0  0  0
 14 15  2  0  0  0  0
 15  1  1  0  0  0  0
 16 17  2  0  0  0  0
 16 13  1  0  0  0  0
 17 14  1  0  0  0  0
 18 19  2  0  0  0  0
 19 16  1  0  0  0  0
 20 19  1  0  0  0  0
 21 25  1  0  0  0  0
 23 24  1  0  0  0  0
 24 22  2  0  0  0  0
 24 25  1  0  0  0  0
 26 23  1  0  0  0  0
 27 26  1  0  0  0  0
 28 29  1  0  0  0  0
 29 27  1  0  0  0  0
M  END
>  <MODEL>
2

>  <REMARK>
 VINA RESULT:      -7.5      1.576      2.167
  Name = 
  8 active torsions:
  status: ('A' for Active; 'I' for Inactive)
    1  A    between atoms: C_6  and  C_17
    2  A    between atoms: N_7  and  C_12
    3  A    between atoms: N_8  and  C_22
    4  A    between atoms: C_10  and  C_17
    5  A    between atoms: C_10  and  N_18
    6  A    between atoms: C_12  and  C_20
    7  A    between atoms: C_20  and  C_23
    8  A    between atoms: C_21  and  C_26
                            x       y       z     vdW  Elec       q    Type
                         _______ _______ _______ _____ _____    ______ ____

>  <TORSDO>
F 8

$$$$
=
 OpenBabel11052409573D

 29 31  0  0  0  0  0  0  0  0999 V2000
  160.9830  207.8620  150.3920 N   0  0  0  0  0  0  0  0  0  0  0  0
  161.4790  207.5720  151.5620 C   0  0  0  0  0  0  0  0  0  0  0  0
  160.0430  213.0470  156.1470 C   0  0  0  0  0  1  0  0  0  0  0  0
  160.8350  209.3880  156.0190 C   0  0  0  0  0  3  0  0  0  0  0  0
  160.9540  209.2010  154.6470 C   0  0  0  0  0  0  0  0  0  0  0  0
  161.2190  208.4820  152.6890 C   0  0  0  0  0  0  0  0  0  0  0  0
  160.7830  210.2300  153.7810 C   0  0  0  0  0  0  0  0  0  0  0  0
  160.5400  210.6450  156.4650 N   0  0  0  0  0  0  0  0  0  0  0  0
  160.9460  209.8060  152.5210 N   0  0  0  0  0  0  0  0  0  0  0  0
  160.3630  211.7000  155.6060 C   0  0  0  0  0  0  0  0  0  0  0  0
  160.4820  211.5160  154.2160 C   0  0  0  0  0  3  0  0  0  0  0  0
  161.2340  208.0700  153.9860 N   0  0  0  0  0  2  0  0  0  0  0  0
  162.5530  207.0360  148.2940 S   0  0  0  0  0  0  0  0  0  0  0  0
  160.1330  206.4080  148.4960 C   0  0  0  0  0  3  0  0  0  0  0  0
  161.1200  207.1270  149.1640 C   0  0  0  0  0  0  0  0  0  0  0  0
  161.8650  206.0760  147.0950 C   0  0  0  0  0  0  0  0  0  0  0  0
  160.5600  205.8240  147.3430 N   0  0  0  0  0  0  0  0  0  0  0  0
  162.1260  205.7770  144.7650 O   0  0  0  0  0  0  0  0  0  0  0  0
  162.5790  205.5690  145.9210 C   0  0  0  0  0  0  0  0  0  0  0  0
  163.7320  204.8720  146.0740 F   0  0  0  0  0  0  0  0  0  0  0  0
  162.3500  206.3750  151.7910 C   0  0  0  0  0  2  0  0  0  0  0  0
  160.4600  203.3570  152.6060 O   0  0  0  0  0  0  0  0  0  0  0  0
  161.2980  203.9720  150.5140 N   0  0  0  0  0  2  0  0  0  0  0  0
  161.0950  204.1960  151.9140 C   0  0  0  0  0  0  0  0  0  0  0  0
  161.6130  205.3690  152.5390 N   0  0  0  0  0  2  0  0  0  0  0  0
  160.7720  202.8080  149.8210 C   0  0  0  0  0  2  0  0  0  0  0  0
  161.3030  202.7640  148.3980 C   0  0  0  0  0  2  0  0  0  0  0  0
  161.4450  200.3900  148.2040 O   0  0  0  0  0  1  0  0  0  0  0  0
  160.8050  201.5180  147.6890 C   0  0  0  0  0  2  0  0  0  0  0  0
  1  2  2  0  0  0  0
  2 21  1  0  0  0  0
  2  6  1  0  0  0  0
  4  8  1  0  0  0  0
  5  4  2  0  0  0  0
  6 12  1  0  0  0  0
  7 11  2  0  0  0  0
  7  5  1  0  0  0  0
  9  6  2  0  0  0  0
  9  7  1  0  0  0  0
 10  3  1  0  0  0  0
 10  8  2  0  0  0  0
 11 10  1  0  0  0  0
 12  5  1  0  0  0  0
 13 15  1  0  0  0  0
 14 15  2  0  0  0  0
 15  1  1  0  0  0  0
 16 17  2  0  0  0  0
 16 13  1  0  0  0  0
 17 14  1  0  0  0  0
 18 19  2  0  0  0  0
 19 20  1  0  0  0  0
 19 16  1  0  0  0  0
 21 25  1  0  0  0  0
 23 24  1  0  0  0  0
 24 25  1  0  0  0  0
 24 22  2  0  0  0  0
 26 23  1  0  0  0  0
 27 26  1  0  0  0  0
 29 28  1  0  0  0  0
 29 27  1  0  0  0  0
M  END
>  <MODEL>
3

>  <REMARK>
 VINA RESULT:      -7.5      1.828      2.336
  Name = 
  8 active torsions:
  status: ('A' for Active; 'I' for Inactive)
    1  A    between atoms: C_6  and  C_17
    2  A    between atoms: N_7  and  C_12
    3  A    between atoms: N_8  and  C_22
    4  A    between atoms: C_10  and  C_17
    5  A    between atoms: C_10  and  N_18
    6  A    between atoms: C_12  and  C_20
    7  A    between atoms: C_20  and  C_23
    8  A    between atoms: C_21  and  C_26
                            x       y       z     vdW  Elec       q    Type
                         _______ _______ _______ _____ _____    ______ ____

>  <TORSDO>
F 8

$$$$
=
 OpenBabel11052409573D

 29 31  0  0  0  0  0  0  0  0999 V2000
  160.7650  205.2520  152.2000 N   0  0  0  0  0  0  0  0  0  0  0  0
  161.4990  206.3300  152.1850 C   0  0  0  0  0  0  0  0  0  0  0  0
  159.5760  212.5250  155.4990 C   0  0  0  0  0  1  0  0  0  0  0  0
  160.6660  209.0010  156.1540 C   0  0  0  0  0  3  0  0  0  0  0  0
  160.8130  208.5350  154.8530 C   0  0  0  0  0  0  0  0  0  0  0  0
  161.1550  207.4360  153.0920 C   0  0  0  0  0  0  0  0  0  0  0  0
  160.5670  209.3360  153.7870 C   0  0  0  0  0  0  0  0  0  0  0  0
  160.2650  210.2960  156.3220 N   0  0  0  0  0  0  0  0  0  0  0  0
  160.7760  208.6660  152.6460 N   0  0  0  0  0  0  0  0  0  0  0  0
  160.0110  211.1240  155.2570 C   0  0  0  0  0  0  0  0  0  0  0  0
  160.1580  210.6560  153.9380 C   0  0  0  0  0  3  0  0  0  0  0  0
  161.1900  207.3150  154.4480 N   0  0  0  0  0  2  0  0  0  0  0  0
  160.7110  204.0460  149.7330 S   0  0  0  0  0  0  0  0  0  0  0  0
  161.2120  202.7830  151.8410 C   0  0  0  0  0  3  0  0  0  0  0  0
  160.9110  204.0680  151.4000 C   0  0  0  0  0  0  0  0  0  0  0  0
  161.0220  202.3950  149.6310 C   0  0  0  0  0  0  0  0  0  0  0  0
  161.2730  201.8570  150.8450 N   0  0  0  0  0  0  0  0  0  0  0  0
  160.8270  202.1970  147.2830 O   0  0  0  0  0  0  0  0  0  0  0  0
  161.0230  201.6230  148.3870 C   0  0  0  0  0  0  0  0  0  0  0  0
  161.2330  200.2840  148.4170 F   0  0  0  0  0  0  0  0  0  0  0  0
  162.6470  206.5050  151.2400 C   0  0  0  0  0  2  0  0  0  0  0  0
  162.1190  209.0430  148.6670 O   0  0  0  0  0  0  0  0  0  0  0  0
  161.9270  206.7280  148.4220 N   0  0  0  0  0  2  0  0  0  0  0  0
  162.1940  207.9030  149.1960 C   0  0  0  0  0  0  0  0  0  0  0  0
  162.5420  207.7940  150.5750 N   0  0  0  0  0  2  0  0  0  0  0  0
  161.5920  206.7790  147.0080 C   0  0  0  0  0  2  0  0  0  0  0  0
  162.2370  205.6130  146.2770 C   0  0  0  0  0  2  0  0  0  0  0  0
  160.3090  206.0760  144.9510 O   0  0  0  0  0  1  0  0  0  0  0  0
  161.4550  205.2830  145.0200 C   0  0  0  0  0  2  0  0  0  0  0  0
  2  1  2  0  0  0  0
  2  6  1  0  0  0  0
  4  8  1  0  0  0  0
  5  4  2  0  0  0  0
  6 12  1  0  0  0  0
  7 11  2  0  0  0  0
  7  5  1  0  0  0  0
  9  6  2  0  0  0  0
  9  7  1  0  0  0  0
 10  3  1  0  0  0  0
 10  8  2  0  0  0  0
 11 10  1  0  0  0  0
 12  5  1  0  0  0  0
 13 15  1  0  0  0  0
 15 14  2  0  0  0  0
 15  1  1  0  0  0  0
 16 13  1  0  0  0  0
 16 17  2  0  0  0  0
 17 14  1  0  0  0  0
 18 19  2  0  0  0  0
 19 20  1  0  0  0  0
 19 16  1  0  0  0  0
 21  2  1  0  0  0  0
 22 24  2  0  0  0  0
 23 24  1  0  0  0  0
 24 25  1  0  0  0  0
 25 21  1  0  0  0  0
 26 23  1  0  0  0  0
 27 26  1  0  0  0  0
 28 29  1  0  0  0  0
 29 27  1  0  0  0  0
M  END
>  <MODEL>
4

>  <REMARK>
 VINA RESULT:      -7.2      2.270      4.244
  Name = 
  8 active torsions:
  status: ('A' for Active; 'I' for Inactive)
    1  A    between atoms: C_6  and  C_17
    2  A    between atoms: N_7  and  C_12
    3  A    between atoms: N_8  and  C_22
    4  A    between atoms: C_10  and  C_17
    5  A    between atoms: C_10  and  N_18
    6  A    between atoms: C_12  and  C_20
    7  A    between atoms: C_20  and  C_23
    8  A    between atoms: C_21  and  C_26
                            x       y       z     vdW  Elec       q    Type
                         _______ _______ _______ _____ _____    ______ ____

>  <TORSDO>
F 8

$$$$
=
 OpenBabel11052409573D

 29 31  0  0  0  0  0  0  0  0999 V2000
  160.8460  207.9590  153.8350 N   0  0  0  0  0  0  0  0  0  0  0  0
  161.3060  207.7610  152.6310 C   0  0  0  0  0  0  0  0  0  0  0  0
  160.5430  201.7910  148.5290 C   0  0  0  0  0  1  0  0  0  0  0  0
  161.2230  202.9440  152.0270 C   0  0  0  0  0  3  0  0  0  0  0  0
  161.1780  204.3220  151.8540 C   0  0  0  0  0  0  0  0  0  0  0  0
  161.2000  206.4160  152.0430 C   0  0  0  0  0  0  0  0  0  0  0  0
  160.9340  204.8700  150.6380 C   0  0  0  0  0  0  0  0  0  0  0  0
  161.0120  202.1590  150.9290 N   0  0  0  0  0  0  0  0  0  0  0  0
  160.9410  206.2060  150.7230 N   0  0  0  0  0  0  0  0  0  0  0  0
  160.7640  202.6920  149.6900 C   0  0  0  0  0  0  0  0  0  0  0  0
  160.7180  204.0870  149.5090 C   0  0  0  0  0  3  0  0  0  0  0  0
  161.3530  205.2790  152.7750 N   0  0  0  0  0  2  0  0  0  0  0  0
  159.8680  210.4910  154.2600 S   0  0  0  0  0  0  0  0  0  0  0  0
  161.6610  209.4800  155.6930 C   0  0  0  0  0  3  0  0  0  0  0  0
  160.8560  209.1770  154.5980 C   0  0  0  0  0  0  0  0  0  0  0  0
  160.4970  211.4010  155.5280 C   0  0  0  0  0  0  0  0  0  0  0  0
  161.4510  210.7230  156.2050 N   0  0  0  0  0  0  0  0  0  0  0  0
  160.3770  213.2600  156.9830 O   0  0  0  0  0  0  0  0  0  0  0  0
  160.0750  212.7620  155.8670 C   0  0  0  0  0  0  0  0  0  0  0  0
  159.3560  213.4920  154.9800 F   0  0  0  0  0  0  0  0  0  0  0  0
  161.9890  208.8380  151.8460 C   0  0  0  0  0  2  0  0  0  0  0  0
  162.1480  209.0490  148.2030 O   0  0  0  0  0  0  0  0  0  0  0  0
  162.1000  210.8270  149.7160 N   0  0  0  0  0  2  0  0  0  0  0  0
  162.1000  209.4300  149.4020 C   0  0  0  0  0  0  0  0  0  0  0  0
  162.0500  208.4570  150.4430 N   0  0  0  0  0  2  0  0  0  0  0  0
  162.1250  211.8620  148.6940 C   0  0  0  0  0  2  0  0  0  0  0  0
  161.0500  212.8980  148.9750 C   0  0  0  0  0  2  0  0  0  0  0  0
  162.7220  214.2320  147.9190 O   0  0  0  0  0  1  0  0  0  0  0  0
  161.5890  214.2950  148.7310 C   0  0  0  0  0  2  0  0  0  0  0  0
  1 15  1  0  0  0  0
  2  1  2  0  0  0  0
  3 10  1  0  0  0  0
  5  4  1  0  0  0  0
  5 12  1  0  0  0  0
  6  2  1  0  0  0  0
  6 12  1  0  0  0  0
  7  9  1  0  0  0  0
  7  5  2  0  0  0  0
  8  4  2  0  0  0  0
  9  6  2  0  0  0  0
 10  8  1  0  0  0  0
 11 10  2  0  0  0  0
 11  7  1  0  0  0  0
 13 15  1  0  0  0  0
 13 16  1  0  0  0  0
 14 17  1  0  0  0  0
 15 14  2  0  0  0  0
 16 19  1  0  0  0  0
 16 17  2  0  0  0  0
 19 18  2  0  0  0  0
 20 19  1  0  0  0  0
 21  2  1  0  0  0  0
 22 24  2  0  0  0  0
 24 23  1  0  0  0  0
 24 25  1  0  0  0  0
 25 21  1  0  0  0  0
 26 27  1  0  0  0  0
 26 23  1  0  0  0  0
 28 29  1  0  0  0  0
 29 27  1  0  0  0  0
M  END
>  <MODEL>
5

>  <REMARK>
 VINA RESULT:      -6.5      4.913      9.160
  Name = 
  8 active torsions:
  status: ('A' for Active; 'I' for Inactive)
    1  A    between atoms: C_6  and  C_17
    2  A    between atoms: N_7  and  C_12
    3  A    between atoms: N_8  and  C_22
    4  A    between atoms: C_10  and  C_17
    5  A    between atoms: C_10  and  N_18
    6  A    between atoms: C_12  and  C_20
    7  A    between atoms: C_20  and  C_23
    8  A    between atoms: C_21  and  C_26
                            x       y       z     vdW  Elec       q    Type
                         _______ _______ _______ _____ _____    ______ ____

>  <TORSDO>
F 8

$$$$
=
 OpenBabel11052409573D

 29 31  0  0  0  0  0  0  0  0999 V2000
  160.7970  206.5080  152.5450 N   0  0  0  0  0  0  0  0  0  0  0  0
  161.5610  206.2210  151.5280 C   0  0  0  0  0  0  0  0  0  0  0  0
  160.8240  200.7270  146.8030 C   0  0  0  0  0  1  0  0  0  0  0  0
  160.4580  201.6240  150.4210 C   0  0  0  0  0  3  0  0  0  0  0  0
  160.8370  202.9600  150.3920 C   0  0  0  0  0  0  0  0  0  0  0  0
  161.3310  204.9640  150.8000 C   0  0  0  0  0  0  0  0  0  0  0  0
  161.2040  203.5610  149.2330 C   0  0  0  0  0  0  0  0  0  0  0  0
  160.4660  200.9360  149.2410 N   0  0  0  0  0  0  0  0  0  0  0  0
  161.5250  204.8420  149.4570 N   0  0  0  0  0  0  0  0  0  0  0  0
  160.8330  201.5240  148.0570 C   0  0  0  0  0  0  0  0  0  0  0  0
  161.2190  202.8770  148.0220 C   0  0  0  0  0  3  0  0  0  0  0  0
  160.9070  203.8250  151.4130 N   0  0  0  0  0  2  0  0  0  0  0  0
  160.4780  209.2160  152.8760 S   0  0  0  0  0  0  0  0  0  0  0  0
  161.2200  207.7080  154.7380 C   0  0  0  0  0  3  0  0  0  0  0  0
  160.8500  207.6640  153.3970 C   0  0  0  0  0  0  0  0  0  0  0  0
  160.7970  209.8910  154.3840 C   0  0  0  0  0  0  0  0  0  0  0  0
  161.1850  208.9560  155.2800 N   0  0  0  0  0  0  0  0  0  0  0  0
  160.8720  211.7230  155.8780 O   0  0  0  0  0  0  0  0  0  0  0  0
  160.6750  211.3160  154.7030 C   0  0  0  0  0  0  0  0  0  0  0  0
  160.3470  212.2040  153.7330 F   0  0  0  0  0  0  0  0  0  0  0  0
  162.6990  207.0990  151.1080 C   0  0  0  0  0  2  0  0  0  0  0  0
  161.5770  209.1570  148.3070 O   0  0  0  0  0  0  0  0  0  0  0  0
  162.3300  206.9480  148.2180 N   0  0  0  0  0  2  0  0  0  0  0  0
  162.0160  208.1530  148.9260 C   0  0  0  0  0  0  0  0  0  0  0  0
  162.1920  208.2250  150.3400 N   0  0  0  0  0  2  0  0  0  0  0  0
  162.1930  206.8270  146.7760 C   0  0  0  0  0  2  0  0  0  0  0  0
  160.8310  206.2500  146.4280 C   0  0  0  0  0  2  0  0  0  0  0  0
  162.0670  204.7490  145.0460 O   0  0  0  0  0  1  0  0  0  0  0  0
  160.8970  205.5060  145.1080 C   0  0  0  0  0  2  0  0  0  0  0  0
  1 15  1  0  0  0  0
  2  1  2  0  0  0  0
  3 10  1  0  0  0  0
  5  4  1  0  0  0  0
  5 12  1  0  0  0  0
  6 12  1  0  0  0  0
  6  2  1  0  0  0  0
  7  9  1  0  0  0  0
  7  5  2  0  0  0  0
  8  4  2  0  0  0  0
  9  6  2  0  0  0  0
 10  8  1  0  0  0  0
 11 10  2  0  0  0  0
 11  7  1  0  0  0  0
 13 15  1  0  0  0  0
 13 16  1  0  0  0  0
 14 17  1  0  0  0  0
 15 14  2  0  0  0  0
 16 19  1  0  0  0  0
 16 17  2  0  0  0  0
 19 18  2  0  0  0  0
 20 19  1  0  0  0  0
 21  2  1  0  0  0  0
 22 24  2  0  0  0  0
 23 24  1  0  0  0  0
 24 25  1  0  0  0  0
 25 21  1  0  0  0  0
 26 23  1  0  0  0  0
 27 26  1  0  0  0  0
 28 29  1  0  0  0  0
 29 27  1  0  0  0  0
M  END
>  <MODEL>
6

>  <REMARK>
 VINA RESULT:      -6.5      3.686      7.932
  Name = 
  8 active torsions:
  status: ('A' for Active; 'I' for Inactive)
    1  A    between atoms: C_6  and  C_17
    2  A    between atoms: N_7  and  C_12
    3  A    between atoms: N_8  and  C_22
    4  A    between atoms: C_10  and  C_17
    5  A    between atoms: C_10  and  N_18
    6  A    between atoms: C_12  and  C_20
    7  A    between atoms: C_20  and  C_23
    8  A    between atoms: C_21  and  C_26
                            x       y       z     vdW  Elec       q    Type
                         _______ _______ _______ _____ _____    ______ ____

>  <TORSDO>
F 8

$$$$
=
 OpenBabel11052409573D

 29 31  0  0  0  0  0  0  0  0999 V2000
  160.6070  208.9000  152.0310 N   0  0  0  0  0  0  0  0  0  0  0  0
  161.3760  208.8330  150.9800 C   0  0  0  0  0  0  0  0  0  0  0  0
  161.0110  202.1010  148.2220 C   0  0  0  0  0  1  0  0  0  0  0  0
  161.7840  205.6560  147.3300 C   0  0  0  0  0  3  0  0  0  0  0  0
  161.5780  206.2770  148.5570 C   0  0  0  0  0  0  0  0  0  0  0  0
  161.3810  207.5960  150.1820 C   0  0  0  0  0  0  0  0  0  0  0  0
  161.1980  205.5670  149.6480 C   0  0  0  0  0  0  0  0  0  0  0  0
  161.5910  204.3060  147.2620 N   0  0  0  0  0  0  0  0  0  0  0  0
  161.0640  206.3790  150.7050 N   0  0  0  0  0  0  0  0  0  0  0  0
  161.2070  203.5690  148.3540 C   0  0  0  0  0  0  0  0  0  0  0  0
  160.9960  204.1920  149.5980 C   0  0  0  0  0  3  0  0  0  0  0  0
  161.7050  207.5750  148.8600 N   0  0  0  0  0  2  0  0  0  0  0  0
  159.3110  211.2090  152.7640 S   0  0  0  0  0  0  0  0  0  0  0  0
  161.2060  210.2450  154.0960 C   0  0  0  0  0  3  0  0  0  0  0  0
  160.4560  209.9950  152.9500 C   0  0  0  0  0  0  0  0  0  0  0  0
  159.8090  212.0110  154.1570 C   0  0  0  0  0  0  0  0  0  0  0  0
  160.8350  211.3720  154.7630 N   0  0  0  0  0  0  0  0  0  0  0  0
  158.1400  213.6850  154.1730 O   0  0  0  0  0  0  0  0  0  0  0  0
  159.2150  213.2500  154.6630 C   0  0  0  0  0  0  0  0  0  0  0  0
  159.8200  213.9360  155.6630 F   0  0  0  0  0  0  0  0  0  0  0  0
  162.2960  209.9470  150.5860 C   0  0  0  0  0  2  0  0  0  0  0  0
  161.4040  211.7620  147.5450 O   0  0  0  0  0  0  0  0  0  0  0  0
  161.2070  212.5190  149.7460 N   0  0  0  0  0  2  0  0  0  0  0  0
  161.5600  211.5290  148.7720 C   0  0  0  0  0  0  0  0  0  0  0  0
  162.0970  210.2740  149.1830 N   0  0  0  0  0  2  0  0  0  0  0  0
  160.6340  213.8060  149.3850 C   0  0  0  0  0  2  0  0  0  0  0  0
  159.1570  213.8360  149.7410 C   0  0  0  0  0  2  0  0  0  0  0  0
  158.2700  212.9670  147.7030 O   0  0  0  0  0  1  0  0  0  0  0  0
  158.3240  214.1090  148.5020 C   0  0  0  0  0  2  0  0  0  0  0  0
  1 15  1  0  0  0  0
  2  1  2  0  0  0  0
  3 10  1  0  0  0  0
  4  5  1  0  0  0  0
  5 12  1  0  0  0  0
  5  7  2  0  0  0  0
  6  9  2  0  0  0  0
  6  2  1  0  0  0  0
  7  9  1  0  0  0  0
  8  4  2  0  0  0  0
  8 10  1  0  0  0  0
 10 11  2  0  0  0  0
 11  7  1  0  0  0  0
 12  6  1  0  0  0  0
 13 15  1  0  0  0  0
 13 16  1  0  0  0  0
 14 17  1  0  0  0  0
 15 14  2  0  0  0  0
 16 19  1  0  0  0  0
 16 17  2  0  0  0  0
 18 19  2  0  0  0  0
 19 20  1  0  0  0  0
 21  2  1  0  0  0  0
 22 24  2  0  0  0  0
 24 25  1  0  0  0  0
 24 23  1  0  0  0  0
 25 21  1  0  0  0  0
 26 27  1  0  0  0  0
 26 23  1  0  0  0  0
 28 29  1  0  0  0  0
 29 27  1  0  0  0  0
M  END
>  <MODEL>
7

>  <REMARK>
 VINA RESULT:      -6.3      5.168      9.268
  Name = 
  8 active torsions:
  status: ('A' for Active; 'I' for Inactive)
    1  A    between atoms: C_6  and  C_17
    2  A    between atoms: N_7  and  C_12
    3  A    between atoms: N_8  and  C_22
    4  A    between atoms: C_10  and  C_17
    5  A    between atoms: C_10  and  N_18
    6  A    between atoms: C_12  and  C_20
    7  A    between atoms: C_20  and  C_23
    8  A    between atoms: C_21  and  C_26
                            x       y       z     vdW  Elec       q    Type
                         _______ _______ _______ _____ _____    ______ ____

>  <TORSDO>
F 8

$$$$
=
 OpenBabel11052409573D

 29 31  0  0  0  0  0  0  0  0999 V2000
  161.3950  207.1530  150.9020 N   0  0  0  0  0  0  0  0  0  0  0  0
  160.9800  206.0470  150.3520 C   0  0  0  0  0  0  0  0  0  0  0  0
  161.2060  205.6480  143.0820 C   0  0  0  0  0  1  0  0  0  0  0  0
  163.0030  204.5770  146.1890 C   0  0  0  0  0  3  0  0  0  0  0  0
  162.1890  205.1430  147.1620 C   0  0  0  0  0  0  0  0  0  0  0  0
  161.2600  205.8150  148.9260 C   0  0  0  0  0  0  0  0  0  0  0  0
  161.0850  205.8560  146.8270 C   0  0  0  0  0  0  0  0  0  0  0  0
  162.6530  204.7620  144.8820 N   0  0  0  0  0  0  0  0  0  0  0  0
  160.4670  206.2990  147.9300 N   0  0  0  0  0  0  0  0  0  0  0  0
  161.5400  205.4780  144.5210 C   0  0  0  0  0  0  0  0  0  0  0  0
  160.7120  206.0550  145.5020 C   0  0  0  0  0  3  0  0  0  0  0  0
  162.3320  205.0960  148.4940 N   0  0  0  0  0  2  0  0  0  0  0  0
  160.7810  209.1480  152.6880 S   0  0  0  0  0  0  0  0  0  0  0  0
  161.4050  206.8310  153.4170 C   0  0  0  0  0  3  0  0  0  0  0  0
  161.2250  207.5860  152.2620 C   0  0  0  0  0  0  0  0  0  0  0  0
  160.8290  208.8050  154.3350 C   0  0  0  0  0  0  0  0  0  0  0  0
  161.1800  207.5200  154.5690 N   0  0  0  0  0  0  0  0  0  0  0  0
  161.1600  210.8580  155.4600 O   0  0  0  0  0  0  0  0  0  0  0  0
  160.5310  209.7690  155.3960 C   0  0  0  0  0  0  0  0  0  0  0  0
  159.5750  209.4930  156.3180 F   0  0  0  0  0  0  0  0  0  0  0  0
  160.1820  205.0270  151.1030 C   0  0  0  0  0  2  0  0  0  0  0  0
  161.9900  201.9240  151.7700 O   0  0  0  0  0  0  0  0  0  0  0  0
  160.4490  202.3170  150.0590 N   0  0  0  0  0  2  0  0  0  0  0  0
  161.2040  202.7290  151.2040 C   0  0  0  0  0  0  0  0  0  0  0  0
  161.0760  204.0560  151.7120 N   0  0  0  0  0  2  0  0  0  0  0  0
  160.5210  200.9700  149.5140 C   0  0  0  0  0  2  0  0  0  0  0  0
  161.3830  200.9600  148.2630 C   0  0  0  0  0  2  0  0  0  0  0  0
  160.5550  201.2580  146.0460 O   0  0  0  0  0  1  0  0  0  0  0  0
  160.8320  201.9310  147.2360 C   0  0  0  0  0  2  0  0  0  0  0  0
  1 15  1  0  0  0  0
  2  1  2  0  0  0  0
  2 21  1  0  0  0  0
  3 10  1  0  0  0  0
  4  5  1  0  0  0  0
  5 12  1  0  0  0  0
  6  2  1  0  0  0  0
  7  5  2  0  0  0  0
  7  9  1  0  0  0  0
  8  4  2  0  0  0  0
  9  6  2  0  0  0  0
 10  8  1  0  0  0  0
 10 11  2  0  0  0  0
 11  7  1  0  0  0  0
 12  6  1  0  0  0  0
 13 16  1  0  0  0  0
 14 17  1  0  0  0  0
 15 13  1  0  0  0  0
 15 14  2  0  0  0  0
 16 17  2  0  0  0  0
 16 19  1  0  0  0  0
 19 18  2  0  0  0  0
 19 20  1  0  0  0  0
 21 25  1  0  0  0  0
 23 24  1  0  0  0  0
 24 25  1  0  0  0  0
 24 22  2  0  0  0  0
 26 23  1  0  0  0  0
 27 26  1  0  0  0  0
 28 29  1  0  0  0  0
 29 27  1  0  0  0  0
M  END
>  <MODEL>
8

>  <REMARK>
 VINA RESULT:      -6.2      3.422      7.355
  Name = 
  8 active torsions:
  status: ('A' for Active; 'I' for Inactive)
    1  A    between atoms: C_6  and  C_17
    2  A    between atoms: N_7  and  C_12
    3  A    between atoms: N_8  and  C_22
    4  A    between atoms: C_10  and  C_17
    5  A    between atoms: C_10  and  N_18
    6  A    between atoms: C_12  and  C_20
    7  A    between atoms: C_20  and  C_23
    8  A    between atoms: C_21  and  C_26
                            x       y       z     vdW  Elec       q    Type
                         _______ _______ _______ _____ _____    ______ ____

>  <TORSDO>
F 8

$$$$
=
 OpenBabel11052409573D

 29 31  0  0  0  0  0  0  0  0999 V2000
  160.8560  208.9510  152.0210 N   0  0  0  0  0  0  0  0  0  0  0  0
  161.4570  209.0370  150.8680 C   0  0  0  0  0  0  0  0  0  0  0  0
  161.2060  202.4930  147.6780 C   0  0  0  0  0  1  0  0  0  0  0  0
  161.9610  206.1050  147.0300 C   0  0  0  0  0  3  0  0  0  0  0  0
  161.7270  206.6430  148.2900 C   0  0  0  0  0  0  0  0  0  0  0  0
  161.4880  207.8550  149.9930 C   0  0  0  0  0  0  0  0  0  0  0  0
  161.3350  205.8620  149.3260 C   0  0  0  0  0  0  0  0  0  0  0  0
  161.7820  204.7600  146.8720 N   0  0  0  0  0  0  0  0  0  0  0  0
  161.1730  206.6040  150.4300 N   0  0  0  0  0  0  0  0  0  0  0  0
  161.3860  203.9510  147.9070 C   0  0  0  0  0  0  0  0  0  0  0  0
  161.1470  204.4920  149.1840 C   0  0  0  0  0  3  0  0  0  0  0  0
  161.8360  207.9210  148.6780 N   0  0  0  0  0  2  0  0  0  0  0  0
  159.3960  211.0000  153.1240 S   0  0  0  0  0  0  0  0  0  0  0  0
  161.6160  210.2790  154.0430 C   0  0  0  0  0  3  0  0  0  0  0  0
  160.7160  209.9680  153.0270 C   0  0  0  0  0  0  0  0  0  0  0  0
  160.0160  211.8060  154.4650 C   0  0  0  0  0  0  0  0  0  0  0  0
  161.2140  211.3050  154.8410 N   0  0  0  0  0  0  0  0  0  0  0  0
  159.9030  213.4780  156.1330 O   0  0  0  0  0  0  0  0  0  0  0  0
  159.3500  212.9160  155.1510 C   0  0  0  0  0  0  0  0  0  0  0  0
  158.1340  213.3440  154.7320 F   0  0  0  0  0  0  0  0  0  0  0  0
  162.1650  210.2800  150.4230 C   0  0  0  0  0  2  0  0  0  0  0  0
  160.5080  213.2990  149.2070 O   0  0  0  0  0  0  0  0  0  0  0  0
  162.4820  212.3520  148.3940 N   0  0  0  0  0  2  0  0  0  0  0  0
  161.3640  212.3800  149.2890 C   0  0  0  0  0  0  0  0  0  0  0  0
  161.2070  211.3640  150.2780 N   0  0  0  0  0  2  0  0  0  0  0  0
  162.7050  213.3740  147.3840 C   0  0  0  0  0  2  0  0  0  0  0  0
  162.0730  212.9530  146.0680 C   0  0  0  0  0  2  0  0  0  0  0  0
  162.3810  212.9540  143.7030 O   0  0  0  0  0  1  0  0  0  0  0  0
  162.9750  213.3290  144.9080 C   0  0  0  0  0  2  0  0  0  0  0  0
  1 15  1  0  0  0  0
  2  1  2  0  0  0  0
  3 10  1  0  0  0  0
  4  5  1  0  0  0  0
  5 12  1  0  0  0  0
  5  7  2  0  0  0  0
  6  9  2  0  0  0  0
  6  2  1  0  0  0  0
  7  9  1  0  0  0  0
  8  4  2  0  0  0  0
  8 10  1  0  0  0  0
 10 11  2  0  0  0  0
 11  7  1  0  0  0  0
 12  6  1  0  0  0  0
 13 16  1  0  0  0  0
 14 17  1  0  0  0  0
 15 13  1  0  0  0  0
 15 14  2  0  0  0  0
 16 17  2  0  0  0  0
 16 19  1  0  0  0  0
 19 18  2  0  0  0  0
 20 19  1  0  0  0  0
 21  2  1  0  0  0  0
 22 24  2  0  0  0  0
 23 24  1  0  0  0  0
 24 25  1  0  0  0  0
 25 21  1  0  0  0  0
 26 23  1  0  0  0  0
 27 26  1  0  0  0  0
 28 29  1  0  0  0  0
 29 27  1  0  0  0  0
M  END
>  <MODEL>
9

>  <REMARK>
 VINA RESULT:      -6.1      5.279      9.323
  Name = 
  8 active torsions:
  status: ('A' for Active; 'I' for Inactive)
    1  A    between atoms: C_6  and  C_17
    2  A    between atoms: N_7  and  C_12
    3  A    between atoms: N_8  and  C_22
    4  A    between atoms: C_10  and  C_17
    5  A    between atoms: C_10  and  N_18
    6  A    between atoms: C_12  and  C_20
    7  A    between atoms: C_20  and  C_23
    8  A    between atoms: C_21  and  C_26
                            x       y       z     vdW  Elec       q    Type
                         _______ _______ _______ _____ _____    ______ ____

>  <TORSDO>
F 8

$$$$
