=
 OpenBabel11052409453D

 31 36  0  0  1  0  0  0  0  0999 V2000
  162.2530  205.1450  151.2300 N   0  0  0  0  0  0  0  0  0  0  0  0
  162.2880  206.2200  151.9390 C   0  0  0  0  0  3  0  0  0  0  0  0
  161.4030  204.5360  147.0260 C   0  0  0  0  0  0  0  0  0  0  0  0
  161.3040  205.0220  148.2950 C   0  0  0  0  0  0  0  0  0  0  0  0
  161.6240  206.8610  146.8230 C   0  0  1  0  0  3  0  0  0  0  0  0
  159.6160  201.0870  150.0980 C   0  0  0  0  0  1  0  0  0  0  0  0
  160.7450  202.9700  151.7280 S   0  0  0  0  0  0  0  0  0  0  0  0
  161.3790  206.4980  148.3040 C   0  0  0  0  0  2  0  0  0  0  0  0
  161.5980  205.5990  146.0150 C   0  0  2  0  0  3  0  0  0  0  0  0
  160.5090  206.4940  146.0420 O   0  0  0  0  0  0  0  0  0  0  0  0
  161.3560  203.1990  146.7850 N   0  0  0  0  0  0  0  0  0  0  0  0
  161.1940  202.3400  147.8010 N   0  0  0  0  0  0  0  0  0  0  0  0
  161.0740  202.7900  149.0860 C   0  0  0  0  0  0  0  0  0  0  0  0
  161.1390  204.1420  149.3610 C   0  0  0  0  0  0  0  0  0  0  0  0
  160.8910  201.8950  150.2530 C   0  0  2  0  0  3  0  0  0  0  0  0
  161.0250  204.5230  150.7900 C   0  0  2  0  0  3  0  0  0  0  0  0
  161.0510  206.9470  152.3700 C   0  0  0  0  0  2  0  0  0  0  0  0
  160.8930  208.2070  151.5430 C   0  0  0  0  0  2  0  0  0  0  0  0
  162.6060  209.7990  151.8220 O   0  0  0  0  0  0  0  0  0  0  0  0
  161.5440  209.3640  152.2370 C   0  0  0  0  0  0  0  0  0  0  0  0
  159.5420  210.5440  153.1150 C   0  0  0  0  0  2  0  0  0  0  0  0
  158.9830  211.2130  154.3270 C   0  0  0  0  0  3  0  0  0  0  0  0
  159.8530  209.3530  155.7360 C   0  0  1  0  0  3  0  0  0  0  0  0
  161.3550  209.5040  155.9270 C   0  0  1  0  0  0  0  0  0  0  0  0
  159.1230  210.6660  155.5340 C   0  0  0  0  0  0  0  0  0  0  0  0
  161.9410  208.4760  156.7680 N   0  0  0  0  0  1  0  0  0  0  0  0
  160.9190  209.9840  153.4480 C   0  0  1  0  0  3  0  0  0  0  0  0
  158.5850  211.3140  156.6370 O   0  0  0  0  0  1  0  0  0  0  0  0
  160.8370  208.9640  154.5990 C   0  0  2  0  0  3  0  0  0  0  0  0
  163.3880  210.7560  156.1380 O   0  0  0  0  0  1  0  0  0  0  0  0
  162.0090  210.8880  155.9800 C   0  0  0  0  0  2  0  0  0  0  0  0
  1  2  2  0  0  0  0
  2 17  1  0  0  0  0
  3  4  1  0  0  0  0
  4  8  1  0  0  0  0
  4 14  2  0  0  0  0
  5  8  1  1  0  0  0
  9 10  1  6  0  0  0
  9  5  1  0  0  0  0
  9  3  1  0  0  0  0
 10  5  1  0  0  0  0
 11  3  2  0  0  0  0
 11 12  1  0  0  0  0
 12 13  2  0  0  0  0
 13 14  1  0  0  0  0
 13 15  1  0  0  0  0
 14 16  1  0  0  0  0
 15  6  1  6  0  0  0
 15  7  1  0  0  0  0
 16  1  1  1  0  0  0
 16  7  1  0  0  0  0
 18 20  1  0  0  0  0
 18 17  1  0  0  0  0
 19 20  2  0  0  0  0
 21 27  1  0  0  0  0
 21 22  1  0  0  0  0
 22 25  2  0  0  0  0
 23 25  1  6  0  0  0
 23 24  1  0  0  0  0
 24 31  1  0  0  0  0
 24 26  1  1  0  0  0
 25 28  1  0  0  0  0
 27 20  1  6  0  0  0
 27 29  1  0  0  0  0
 29 23  1  0  0  0  0
 29 24  1  0  0  0  0
 31 30  1  0  0  0  0
M  END
>  <MODEL>
1

>  <REMARK>
 VINA RESULT:      -8.6      0.000      0.000
  Name = 
  6 active torsions:
  status: ('A' for Active; 'I' for Inactive)
    1  A    between atoms: C_2  and  C_5
    2  A    between atoms: C_2  and  C_10
    3  A    between atoms: N_3  and  C_31
    4  A    between atoms: C_5  and  C_14
    5  A    between atoms: C_10  and  C_25
    6  A    between atoms: C_18  and  C_19
                            x       y       z     vdW  Elec       q    Type
                         _______ _______ _______ _____ _____    ______ ____

>  <TORSDO>
F 6

$$$$
=
 OpenBabel11052409453D

 31 36  0  0  1  0  0  0  0  0999 V2000
  160.6730  206.5970  148.7490 N   0  0  0  0  0  0  0  0  0  0  0  0
  160.8200  207.4120  149.7360 C   0  0  0  0  0  3  0  0  0  0  0  0
  160.9050  202.3200  149.3980 C   0  0  0  0  0  0  0  0  0  0  0  0
  161.2220  203.6440  149.4630 C   0  0  0  0  0  0  0  0  0  0  0  0
  160.9340  202.8440  151.6830 C   0  0  1  0  0  3  0  0  0  0  0  0
  162.6510  203.9280  145.0520 C   0  0  0  0  0  1  0  0  0  0  0  0
  161.9670  206.1940  146.4220 S   0  0  0  0  0  0  0  0  0  0  0  0
  161.3210  204.0960  150.8660 C   0  0  0  0  0  2  0  0  0  0  0  0
  160.7090  201.7080  150.7310 C   0  0  2  0  0  3  0  0  0  0  0  0
  161.8910  201.8250  151.4920 O   0  0  0  0  0  0  0  0  0  0  0  0
  160.7640  201.6940  148.2000 N   0  0  0  0  0  0  0  0  0  0  0  0
  160.9530  202.3760  147.0610 N   0  0  0  0  0  0  0  0  0  0  0  0
  161.2860  203.7010  147.0850 C   0  0  0  0  0  0  0  0  0  0  0  0
  161.4160  204.3660  148.2880 C   0  0  0  0  0  0  0  0  0  0  0  0
  161.5110  204.5100  145.8650 C   0  0  2  0  0  3  0  0  0  0  0  0
  161.7550  205.8080  148.2040 C   0  0  2  0  0  3  0  0  0  0  0  0
  162.1300  207.6140  150.4330 C   0  0  0  0  0  2  0  0  0  0  0  0
  161.8820  207.9210  151.8960 C   0  0  0  0  0  2  0  0  0  0  0  0
  162.3970  210.1460  151.3190 O   0  0  0  0  0  0  0  0  0  0  0  0
  161.8410  209.4030  152.1110 C   0  0  0  0  0  0  0  0  0  0  0  0
  159.7990  210.5810  152.8960 C   0  0  0  0  0  2  0  0  0  0  0  0
  159.1680  211.2130  154.0920 C   0  0  0  0  0  3  0  0  0  0  0  0
  159.9150  209.2890  155.4850 C   0  0  1  0  0  3  0  0  0  0  0  0
  161.4030  209.4090  155.7830 C   0  0  1  0  0  0  0  0  0  0  0  0
  159.2180  210.6190  155.2840 C   0  0  0  0  0  0  0  0  0  0  0  0
  161.9160  208.3410  156.6220 N   0  0  0  0  0  1  0  0  0  0  0  0
  161.1430  209.9870  153.3000 C   0  0  1  0  0  3  0  0  0  0  0  0
  158.6150  211.2350  156.3720 O   0  0  0  0  0  1  0  0  0  0  0  0
  160.9700  208.9270  154.4040 C   0  0  2  0  0  3  0  0  0  0  0  0
  163.3660  210.6260  156.4220 O   0  0  0  0  0  1  0  0  0  0  0  0
  162.0690  210.7800  155.9330 C   0  0  0  0  0  2  0  0  0  0  0  0
  1  2  2  0  0  0  0
  2 17  1  0  0  0  0
  3  4  1  0  0  0  0
  4  8  1  0  0  0  0
  5  8  1  6  0  0  0
  7 16  1  0  0  0  0
  9  3  1  6  0  0  0
  9 10  1  0  0  0  0
  9  5  1  0  0  0  0
 10  5  1  0  0  0  0
 11  3  2  0  0  0  0
 12 13  2  0  0  0  0
 12 11  1  0  0  0  0
 13 14  1  0  0  0  0
 14  4  2  0  0  0  0
 15  6  1  1  0  0  0
 15  7  1  0  0  0  0
 15 13  1  0  0  0  0
 16 14  1  0  0  0  0
 16  1  1  6  0  0  0
 17 18  1  0  0  0  0
 18 20  1  0  0  0  0
 19 20  2  0  0  0  0
 21 27  1  0  0  0  0
 21 22  1  0  0  0  0
 22 25  2  0  0  0  0
 23 25  1  6  0  0  0
 23 24  1  0  0  0  0
 24 31  1  0  0  0  0
 24 26  1  1  0  0  0
 25 28  1  0  0  0  0
 27 20  1  6  0  0  0
 27 29  1  0  0  0  0
 29 23  1  0  0  0  0
 29 24  1  0  0  0  0
 31 30  1  0  0  0  0
M  END
>  <MODEL>
2

>  <REMARK>
 VINA RESULT:      -8.5      2.018      3.186
  Name = 
  6 active torsions:
  status: ('A' for Active; 'I' for Inactive)
    1  A    between atoms: C_2  and  C_5
    2  A    between atoms: C_2  and  C_10
    3  A    between atoms: N_3  and  C_31
    4  A    between atoms: C_5  and  C_14
    5  A    between atoms: C_10  and  C_25
    6  A    between atoms: C_18  and  C_19
                            x       y       z     vdW  Elec       q    Type
                         _______ _______ _______ _____ _____    ______ ____

>  <TORSDO>
F 6

$$$$
=
 OpenBabel11052409453D

 31 36  0  0  1  0  0  0  0  0999 V2000
  162.2320  205.2250  151.2990 N   0  0  0  0  0  0  0  0  0  0  0  0
  162.2350  206.2940  152.0170 C   0  0  0  0  0  3  0  0  0  0  0  0
  161.4080  204.6270  147.0880 C   0  0  0  0  0  0  0  0  0  0  0  0
  161.2920  205.1000  148.3610 C   0  0  0  0  0  0  0  0  0  0  0  0
  161.5670  206.9580  146.9040 C   0  0  1  0  0  3  0  0  0  0  0  0
  159.7080  201.1070  150.1280 C   0  0  0  0  0  1  0  0  0  0  0  0
  160.7820  203.0060  151.7760 S   0  0  0  0  0  0  0  0  0  0  0  0
  161.3280  206.5770  148.3810 C   0  0  0  0  0  2  0  0  0  0  0  0
  161.5760  205.7020  146.0850 C   0  0  2  0  0  3  0  0  0  0  0  0
  160.4630  206.5670  146.1170 O   0  0  0  0  0  0  0  0  0  0  0  0
  161.3980  203.2910  146.8370 N   0  0  0  0  0  0  0  0  0  0  0  0
  161.2560  202.4200  147.8450 N   0  0  0  0  0  0  0  0  0  0  0  0
  161.1220  202.8560  149.1330 C   0  0  0  0  0  0  0  0  0  0  0  0
  161.1490  204.2070  149.4190 C   0  0  0  0  0  0  0  0  0  0  0  0
  160.9590  201.9480  150.2920 C   0  0  2  0  0  3  0  0  0  0  0  0
  161.0210  204.5740  150.8510 C   0  0  2  0  0  3  0  0  0  0  0  0
  160.9790  206.9830  152.4530 C   0  0  0  0  0  2  0  0  0  0  0  0
  160.8360  208.2930  151.7050 C   0  0  0  0  0  2  0  0  0  0  0  0
  162.4020  209.9370  152.3310 O   0  0  0  0  0  0  0  0  0  0  0  0
  161.3160  209.4280  152.5570 C   0  0  0  0  0  0  0  0  0  0  0  0
  160.9260  209.2870  155.0060 C   0  0  0  0  0  2  0  0  0  0  0  0
  160.0350  209.7640  156.1050 C   0  0  0  0  0  3  0  0  0  0  0  0
  160.1090  212.0620  155.1470 C   0  0  1  0  0  3  0  0  0  0  0  0
  159.2100  212.1430  153.9210 C   0  0  1  0  0  0  0  0  0  0  0  0
  159.6590  211.0410  156.1730 C   0  0  0  0  0  0  0  0  0  0  0  0
  159.1680  213.4630  153.3180 N   0  0  0  0  0  1  0  0  0  0  0  0
  160.4900  209.9350  153.6970 C   0  0  1  0  0  3  0  0  0  0  0  0
  158.8350  211.4490  157.2120 O   0  0  0  0  0  1  0  0  0  0  0  0
  160.5710  211.4700  153.7870 C   0  0  2  0  0  3  0  0  0  0  0  0
  156.8500  212.0230  154.3230 O   0  0  0  0  0  1  0  0  0  0  0  0
  157.9340  211.3020  153.8210 C   0  0  0  0  0  2  0  0  0  0  0  0
  1  2  2  0  0  0  0
  2 17  1  0  0  0  0
  3  4  1  0  0  0  0
  4  8  1  0  0  0  0
  4 14  2  0  0  0  0
  5  8  1  1  0  0  0
  9 10  1  6  0  0  0
  9  5  1  0  0  0  0
  9  3  1  0  0  0  0
 10  5  1  0  0  0  0
 11  3  2  0  0  0  0
 11 12  1  0  0  0  0
 12 13  2  0  0  0  0
 13 14  1  0  0  0  0
 13 15  1  0  0  0  0
 14 16  1  0  0  0  0
 15  6  1  6  0  0  0
 15  7  1  0  0  0  0
 16  1  1  1  0  0  0
 16  7  1  0  0  0  0
 18 17  1  0  0  0  0
 18 20  1  0  0  0  0
 19 20  2  0  0  0  0
 21 22  1  0  0  0  0
 22 25  2  0  0  0  0
 23 25  1  1  0  0  0
 24 26  1  6  0  0  0
 24 23  1  0  0  0  0
 25 28  1  0  0  0  0
 27 20  1  6  0  0  0
 27 29  1  0  0  0  0
 27 21  1  0  0  0  0
 29 24  1  0  0  0  0
 29 23  1  0  0  0  0
 31 24  1  0  0  0  0
 31 30  1  0  0  0  0
M  END
>  <MODEL>
3

>  <REMARK>
 VINA RESULT:      -8.3      1.481      2.269
  Name = 
  6 active torsions:
  status: ('A' for Active; 'I' for Inactive)
    1  A    between atoms: C_2  and  C_5
    2  A    between atoms: C_2  and  C_10
    3  A    between atoms: N_3  and  C_31
    4  A    between atoms: C_5  and  C_14
    5  A    between atoms: C_10  and  C_25
    6  A    between atoms: C_18  and  C_19
                            x       y       z     vdW  Elec       q    Type
                         _______ _______ _______ _____ _____    ______ ____

>  <TORSDO>
F 6

$$$$
=
 OpenBabel11052409453D

 31 36  0  0  1  0  0  0  0  0999 V2000
  162.1710  205.1210  151.3330 N   0  0  0  0  0  0  0  0  0  0  0  0
  162.1560  206.2130  152.0170 C   0  0  0  0  0  3  0  0  0  0  0  0
  161.4080  204.6360  147.0960 C   0  0  0  0  0  0  0  0  0  0  0  0
  161.2710  205.0710  148.3800 C   0  0  0  0  0  0  0  0  0  0  0  0
  161.5450  206.9730  146.9810 C   0  0  1  0  0  3  0  0  0  0  0  0
  159.7060  201.0130  150.0110 C   0  0  0  0  0  1  0  0  0  0  0  0
  160.7390  202.8750  151.7270 S   0  0  0  0  0  0  0  0  0  0  0  0
  161.2910  206.5470  148.4430 C   0  0  0  0  0  2  0  0  0  0  0  0
  161.5780  205.7410  146.1270 C   0  0  2  0  0  3  0  0  0  0  0  0
  160.4560  206.5930  146.1680 O   0  0  0  0  0  0  0  0  0  0  0  0
  161.4160  203.3070  146.8060 N   0  0  0  0  0  0  0  0  0  0  0  0
  161.2700  202.4060  147.7880 N   0  0  0  0  0  0  0  0  0  0  0  0
  161.1140  202.8040  149.0860 C   0  0  0  0  0  0  0  0  0  0  0  0
  161.1240  204.1470  149.4100 C   0  0  0  0  0  0  0  0  0  0  0  0
  160.9470  201.8610  150.2160 C   0  0  2  0  0  3  0  0  0  0  0  0
  160.9730  204.4710  150.8500 C   0  0  2  0  0  3  0  0  0  0  0  0
  160.8910  206.9310  152.3720 C   0  0  0  0  0  2  0  0  0  0  0  0
  161.2280  208.2450  153.0460 C   0  0  0  0  0  2  0  0  0  0  0  0
  160.4910  207.2150  155.0320 O   0  0  0  0  0  0  0  0  0  0  0  0
  160.6790  208.2650  154.4400 C   0  0  0  0  0  0  0  0  0  0  0  0
  161.4440  209.9730  156.0740 C   0  0  0  0  0  2  0  0  0  0  0  0
  161.0350  211.2270  156.7740 C   0  0  0  0  0  3  0  0  0  0  0  0
  160.1200  212.1070  154.6310 C   0  0  1  0  0  3  0  0  0  0  0  0
  158.7870  211.4400  154.3230 C   0  0  1  0  0  0  0  0  0  0  0  0
  160.4280  212.2110  156.1110 C   0  0  0  0  0  0  0  0  0  0  0  0
  158.1650  211.9220  153.1020 N   0  0  0  0  0  1  0  0  0  0  0  0
  160.3370  209.5590  155.1120 C   0  0  1  0  0  3  0  0  0  0  0  0
  160.0680  213.3640  156.7940 O   0  0  0  0  0  1  0  0  0  0  0  0
  160.0710  210.6600  154.0680 C   0  0  2  0  0  3  0  0  0  0  0  0
  156.5210  211.0610  155.0070 O   0  0  0  0  0  1  0  0  0  0  0  0
  157.8440  211.0040  155.4470 C   0  0  0  0  0  2  0  0  0  0  0  0
  1  2  2  0  0  0  0
  2 17  1  0  0  0  0
  3  4  1  0  0  0  0
  4  8  1  0  0  0  0
  4 14  2  0  0  0  0
  5  8  1  1  0  0  0
  9 10  1  6  0  0  0
  9  5  1  0  0  0  0
  9  3  1  0  0  0  0
 10  5  1  0  0  0  0
 11  3  2  0  0  0  0
 11 12  1  0  0  0  0
 12 13  2  0  0  0  0
 13 14  1  0  0  0  0
 13 15  1  0  0  0  0
 14 16  1  0  0  0  0
 15  6  1  6  0  0  0
 15  7  1  0  0  0  0
 16  1  1  1  0  0  0
 16  7  1  0  0  0  0
 17 18  1  0  0  0  0
 18 20  1  0  0  0  0
 20 19  2  0  0  0  0
 21 22  1  0  0  0  0
 23 25  1  1  0  0  0
 24 26  1  6  0  0  0
 24 23  1  0  0  0  0
 24 31  1  0  0  0  0
 25 22  2  0  0  0  0
 25 28  1  0  0  0  0
 27 20  1  6  0  0  0
 27 21  1  0  0  0  0
 29 24  1  0  0  0  0
 29 23  1  0  0  0  0
 29 27  1  0  0  0  0
 30 31  1  0  0  0  0
M  END
>  <MODEL>
4

>  <REMARK>
 VINA RESULT:      -8.1      1.774      2.535
  Name = 
  6 active torsions:
  status: ('A' for Active; 'I' for Inactive)
    1  A    between atoms: C_2  and  C_5
    2  A    between atoms: C_2  and  C_10
    3  A    between atoms: N_3  and  C_31
    4  A    between atoms: C_5  and  C_14
    5  A    between atoms: C_10  and  C_25
    6  A    between atoms: C_18  and  C_19
                            x       y       z     vdW  Elec       q    Type
                         _______ _______ _______ _____ _____    ______ ____

>  <TORSDO>
F 6

$$$$
=
 OpenBabel11052409453D

 31 36  0  0  1  0  0  0  0  0999 V2000
  162.2780  204.9860  151.2550 N   0  0  0  0  0  0  0  0  0  0  0  0
  162.3080  205.9680  152.0880 C   0  0  0  0  0  3  0  0  0  0  0  0
  161.3900  204.5840  147.0340 C   0  0  0  0  0  0  0  0  0  0  0  0
  161.2980  205.0020  148.3280 C   0  0  0  0  0  0  0  0  0  0  0  0
  161.5790  206.9180  146.9490 C   0  0  1  0  0  3  0  0  0  0  0  0
  159.6810  200.9570  149.9410 C   0  0  0  0  0  1  0  0  0  0  0  0
  160.8040  202.7690  151.6550 S   0  0  0  0  0  0  0  0  0  0  0  0
  161.3550  206.4760  148.4120 C   0  0  0  0  0  2  0  0  0  0  0  0
  161.5600  205.7000  146.0770 C   0  0  2  0  0  3  0  0  0  0  0  0
  160.4600  206.5770  146.1620 O   0  0  0  0  0  0  0  0  0  0  0  0
  161.3580  203.2600  146.7250 N   0  0  0  0  0  0  0  0  0  0  0  0
  161.2170  202.3480  147.6970 N   0  0  0  0  0  0  0  0  0  0  0  0
  161.1060  202.7290  149.0040 C   0  0  0  0  0  0  0  0  0  0  0  0
  161.1570  204.0660  149.3480 C   0  0  0  0  0  0  0  0  0  0  0  0
  160.9470  201.7730  150.1250 C   0  0  2  0  0  3  0  0  0  0  0  0
  161.0530  204.3720  150.7960 C   0  0  2  0  0  3  0  0  0  0  0  0
  161.0680  206.5860  152.6580 C   0  0  0  0  0  2  0  0  0  0  0  0
  161.0990  208.0840  152.4290 C   0  0  0  0  0  2  0  0  0  0  0  0
  161.2400  208.2230  154.7760 O   0  0  0  0  0  0  0  0  0  0  0  0
  160.9830  208.8070  153.7360 C   0  0  0  0  0  0  0  0  0  0  0  0
  160.4490  210.8210  152.3820 C   0  0  0  0  0  2  0  0  0  0  0  0
  160.0680  212.2610  152.4790 C   0  0  0  0  0  3  0  0  0  0  0  0
  158.4340  211.6920  154.2710 C   0  0  1  0  0  3  0  0  0  0  0  0
  159.1660  211.4460  155.5820 C   0  0  1  0  0  0  0  0  0  0  0  0
  159.1390  212.6640  153.3460 C   0  0  0  0  0  0  0  0  0  0  0  0
  158.2820  211.1400  156.6930 N   0  0  0  0  0  1  0  0  0  0  0  0
  160.5350  210.2340  153.7860 C   0  0  1  0  0  3  0  0  0  0  0  0
  158.8070  214.0100  153.4030 O   0  0  0  0  0  1  0  0  0  0  0  0
  159.1840  210.3550  154.5180 C   0  0  2  0  0  3  0  0  0  0  0  0
  160.1550  213.3630  156.6270 O   0  0  0  0  0  1  0  0  0  0  0  0
  160.4560  212.1990  155.9200 C   0  0  0  0  0  2  0  0  0  0  0  0
  1  2  2  0  0  0  0
  2 17  1  0  0  0  0
  3  4  1  0  0  0  0
  4  8  1  0  0  0  0
  4 14  2  0  0  0  0
  5  8  1  1  0  0  0
  9 10  1  6  0  0  0
  9  5  1  0  0  0  0
  9  3  1  0  0  0  0
 10  5  1  0  0  0  0
 11  3  2  0  0  0  0
 11 12  1  0  0  0  0
 12 13  2  0  0  0  0
 13 14  1  0  0  0  0
 13 15  1  0  0  0  0
 14 16  1  0  0  0  0
 15  6  1  6  0  0  0
 15  7  1  0  0  0  0
 16  1  1  1  0  0  0
 16  7  1  0  0  0  0
 18 17  1  0  0  0  0
 18 20  1  0  0  0  0
 20 19  2  0  0  0  0
 21 22  1  0  0  0  0
 21 27  1  0  0  0  0
 22 25  2  0  0  0  0
 23 25  1  6  0  0  0
 23 29  1  0  0  0  0
 23 24  1  0  0  0  0
 24 31  1  0  0  0  0
 24 26  1  1  0  0  0
 25 28  1  0  0  0  0
 27 20  1  6  0  0  0
 27 29  1  0  0  0  0
 29 24  1  0  0  0  0
 31 30  1  0  0  0  0
M  END
>  <MODEL>
5

>  <REMARK>
 VINA RESULT:      -8.0      1.551      1.938
  Name = 
  6 active torsions:
  status: ('A' for Active; 'I' for Inactive)
    1  A    between atoms: C_2  and  C_5
    2  A    between atoms: C_2  and  C_10
    3  A    between atoms: N_3  and  C_31
    4  A    between atoms: C_5  and  C_14
    5  A    between atoms: C_10  and  C_25
    6  A    between atoms: C_18  and  C_19
                            x       y       z     vdW  Elec       q    Type
                         _______ _______ _______ _____ _____    ______ ____

>  <TORSDO>
F 6

$$$$
=
 OpenBabel11052409453D

 31 36  0  0  1  0  0  0  0  0999 V2000
  160.6660  206.6830  148.8080 N   0  0  0  0  0  0  0  0  0  0  0  0
  160.8040  207.5320  149.7670 C   0  0  0  0  0  3  0  0  0  0  0  0
  160.9380  202.4160  149.5090 C   0  0  0  0  0  0  0  0  0  0  0  0
  161.2400  203.7440  149.5600 C   0  0  0  0  0  0  0  0  0  0  0  0
  160.9460  202.9670  151.7870 C   0  0  1  0  0  3  0  0  0  0  0  0
  162.6960  203.9920  145.1560 C   0  0  0  0  0  1  0  0  0  0  0  0
  161.9790  206.2660  146.4940 S   0  0  0  0  0  0  0  0  0  0  0  0
  161.3260  204.2140  150.9580 C   0  0  0  0  0  2  0  0  0  0  0  0
  160.7400  201.8180  150.8470 C   0  0  2  0  0  3  0  0  0  0  0  0
  161.9150  201.9560  151.6150 O   0  0  0  0  0  0  0  0  0  0  0  0
  160.8110  201.7750  148.3170 N   0  0  0  0  0  0  0  0  0  0  0  0
  161.0010  202.4450  147.1710 N   0  0  0  0  0  0  0  0  0  0  0  0
  161.3200  203.7740  147.1820 C   0  0  0  0  0  0  0  0  0  0  0  0
  161.4350  204.4540  148.3780 C   0  0  0  0  0  0  0  0  0  0  0  0
  161.5440  204.5720  145.9540 C   0  0  2  0  0  3  0  0  0  0  0  0
  161.7590  205.8980  148.2790 C   0  0  2  0  0  3  0  0  0  0  0  0
  162.1150  207.7840  150.4450 C   0  0  0  0  0  2  0  0  0  0  0  0
  161.8810  208.0330  151.9210 C   0  0  0  0  0  2  0  0  0  0  0  0
  161.7990  210.3170  151.3540 O   0  0  0  0  0  0  0  0  0  0  0  0
  161.4570  209.4520  152.1430 C   0  0  0  0  0  0  0  0  0  0  0  0
  161.0450  209.0150  154.5540 C   0  0  0  0  0  2  0  0  0  0  0  0
  160.1560  209.3700  155.7000 C   0  0  0  0  0  3  0  0  0  0  0  0
  160.2830  211.7670  155.0360 C   0  0  1  0  0  3  0  0  0  0  0  0
  159.3940  212.0190  153.8260 C   0  0  1  0  0  0  0  0  0  0  0  0
  159.8060  210.6360  155.9250 C   0  0  0  0  0  0  0  0  0  0  0  0
  159.3830  213.4050  153.3920 N   0  0  0  0  0  1  0  0  0  0  0  0
  160.6320  209.8300  153.3340 C   0  0  1  0  0  3  0  0  0  0  0  0
  158.9820  210.9280  157.0030 O   0  0  0  0  0  1  0  0  0  0  0  0
  160.7430  211.3410  153.6150 C   0  0  2  0  0  3  0  0  0  0  0  0
  157.0410  211.8640  154.2560 O   0  0  0  0  0  1  0  0  0  0  0  0
  158.1030  211.2230  153.6160 C   0  0  0  0  0  2  0  0  0  0  0  0
  1  2  2  0  0  0  0
  2 17  1  0  0  0  0
  3  4  1  0  0  0  0
  4  8  1  0  0  0  0
  5  8  1  6  0  0  0
  7 16  1  0  0  0  0
  9  3  1  6  0  0  0
  9 10  1  0  0  0  0
  9  5  1  0  0  0  0
 10  5  1  0  0  0  0
 11  3  2  0  0  0  0
 12 13  2  0  0  0  0
 12 11  1  0  0  0  0
 13 14  1  0  0  0  0
 14  4  2  0  0  0  0
 15  6  1  1  0  0  0
 15  7  1  0  0  0  0
 15 13  1  0  0  0  0
 16 14  1  0  0  0  0
 16  1  1  6  0  0  0
 17 18  1  0  0  0  0
 18 20  1  0  0  0  0
 19 20  2  0  0  0  0
 21 22  1  0  0  0  0
 22 25  2  0  0  0  0
 23 25  1  1  0  0  0
 24 26  1  6  0  0  0
 24 23  1  0  0  0  0
 25 28  1  0  0  0  0
 27 20  1  6  0  0  0
 27 29  1  0  0  0  0
 27 21  1  0  0  0  0
 29 24  1  0  0  0  0
 29 23  1  0  0  0  0
 31 24  1  0  0  0  0
 31 30  1  0  0  0  0
M  END
>  <MODEL>
6

>  <REMARK>
 VINA RESULT:      -7.8      2.449      3.870
  Name = 
  6 active torsions:
  status: ('A' for Active; 'I' for Inactive)
    1  A    between atoms: C_2  and  C_5
    2  A    between atoms: C_2  and  C_10
    3  A    between atoms: N_3  and  C_31
    4  A    between atoms: C_5  and  C_14
    5  A    between atoms: C_10  and  C_25
    6  A    between atoms: C_18  and  C_19
                            x       y       z     vdW  Elec       q    Type
                         _______ _______ _______ _____ _____    ______ ____

>  <TORSDO>
F 6

$$$$
=
 OpenBabel11052409453D

 31 36  0  0  1  0  0  0  0  0999 V2000
  162.1120  205.5510  151.2750 N   0  0  0  0  0  0  0  0  0  0  0  0
  162.1070  206.3770  152.2640 C   0  0  0  0  0  3  0  0  0  0  0  0
  161.3610  204.6400  147.1070 C   0  0  0  0  0  0  0  0  0  0  0  0
  161.2060  205.1840  148.3470 C   0  0  0  0  0  0  0  0  0  0  0  0
  161.3780  206.9610  146.7770 C   0  0  1  0  0  3  0  0  0  0  0  0
  159.8560  201.2190  150.3560 C   0  0  0  0  0  1  0  0  0  0  0  0
  160.7970  203.2820  151.8850 S   0  0  0  0  0  0  0  0  0  0  0  0
  161.1510  206.6590  148.2740 C   0  0  0  0  0  2  0  0  0  0  0  0
  161.4720  205.6590  146.0390 C   0  0  2  0  0  3  0  0  0  0  0  0
  160.3070  206.4540  146.0110 O   0  0  0  0  0  0  0  0  0  0  0  0
  161.4360  203.2930  146.9400 N   0  0  0  0  0  0  0  0  0  0  0  0
  161.3390  202.4800  148.0010 N   0  0  0  0  0  0  0  0  0  0  0  0
  161.1680  202.9870  149.2590 C   0  0  0  0  0  0  0  0  0  0  0  0
  161.1100  204.3520  149.4580 C   0  0  0  0  0  0  0  0  0  0  0  0
  161.0520  202.1450  150.4720 C   0  0  2  0  0  3  0  0  0  0  0  0
  160.9470  204.8000  150.8630 C   0  0  2  0  0  3  0  0  0  0  0  0
  160.8850  206.6540  153.0840 C   0  0  0  0  0  2  0  0  0  0  0  0
  161.2300  206.5530  154.5560 C   0  0  0  0  0  2  0  0  0  0  0  0
  159.5300  206.7480  156.1740 O   0  0  0  0  0  0  0  0  0  0  0  0
  160.2420  207.3290  155.3710 C   0  0  0  0  0  0  0  0  0  0  0  0
  159.6620  209.4620  156.5070 C   0  0  0  0  0  2  0  0  0  0  0  0
  159.4650  210.9230  156.2780 C   0  0  0  0  0  3  0  0  0  0  0  0
  161.5210  210.9650  154.8720 C   0  0  1  0  0  3  0  0  0  0  0  0
  161.2270  210.3650  153.5050 C   0  0  1  0  0  0  0  0  0  0  0  0
  160.3200  211.6180  155.5280 C   0  0  0  0  0  0  0  0  0  0  0  0
  162.3680  210.3810  152.6060 N   0  0  0  0  0  1  0  0  0  0  0  0
  160.1010  208.8090  155.2010 C   0  0  1  0  0  3  0  0  0  0  0  0
  160.1080  212.9770  155.3430 O   0  0  0  0  0  1  0  0  0  0  0  0
  161.4170  209.4260  154.6900 C   0  0  2  0  0  3  0  0  0  0  0  0
  159.8030  211.6570  152.0740 O   0  0  0  0  0  1  0  0  0  0  0  0
  159.8450  210.5060  152.8610 C   0  0  0  0  0  2  0  0  0  0  0  0
  1  2  2  0  0  0  0
  2 17  1  0  0  0  0
  3  4  1  0  0  0  0
  4 14  2  0  0  0  0
  5  8  1  1  0  0  0
  8  4  1  0  0  0  0
  9 10  1  6  0  0  0
  9  5  1  0  0  0  0
  9  3  1  0  0  0  0
 10  5  1  0  0  0  0
 11  3  2  0  0  0  0
 11 12  1  0  0  0  0
 12 13  2  0  0  0  0
 13 14  1  0  0  0  0
 13 15  1  0  0  0  0
 14 16  1  0  0  0  0
 15  6  1  6  0  0  0
 15  7  1  0  0  0  0
 16  1  1  1  0  0  0
 16  7  1  0  0  0  0
 17 18  1  0  0  0  0
 18 20  1  0  0  0  0
 20 19  2  0  0  0  0
 22 21  1  0  0  0  0
 23 25  1  1  0  0  0
 24 26  1  6  0  0  0
 24 29  1  0  0  0  0
 24 23  1  0  0  0  0
 25 22  2  0  0  0  0
 27 20  1  1  0  0  0
 27 21  1  0  0  0  0
 28 25  1  0  0  0  0
 29 23  1  0  0  0  0
 29 27  1  0  0  0  0
 30 31  1  0  0  0  0
 31 24  1  0  0  0  0
M  END
>  <MODEL>
7

>  <REMARK>
 VINA RESULT:      -7.8      1.592      2.393
  Name = 
  6 active torsions:
  status: ('A' for Active; 'I' for Inactive)
    1  A    between atoms: C_2  and  C_5
    2  A    between atoms: C_2  and  C_10
    3  A    between atoms: N_3  and  C_31
    4  A    between atoms: C_5  and  C_14
    5  A    between atoms: C_10  and  C_25
    6  A    between atoms: C_18  and  C_19
                            x       y       z     vdW  Elec       q    Type
                         _______ _______ _______ _____ _____    ______ ____

>  <TORSDO>
F 6

$$$$
=
 OpenBabel11052409453D

 31 36  0  0  1  0  0  0  0  0999 V2000
  160.4280  206.1760  149.4070 N   0  0  0  0  0  0  0  0  0  0  0  0
  160.4720  206.9770  150.4150 C   0  0  0  0  0  3  0  0  0  0  0  0
  160.8440  202.0670  148.1000 C   0  0  0  0  0  0  0  0  0  0  0  0
  161.0730  203.2220  148.7860 C   0  0  0  0  0  0  0  0  0  0  0  0
  160.6040  201.5060  150.3630 C   0  0  1  0  0  3  0  0  0  0  0  0
  162.9330  205.4710  145.1730 C   0  0  0  0  0  1  0  0  0  0  0  0
  161.9770  206.8730  147.3170 S   0  0  0  0  0  0  0  0  0  0  0  0
  160.9990  202.9940  150.2450 C   0  0  0  0  0  2  0  0  0  0  0  0
  160.5480  200.9180  148.9850 C   0  0  2  0  0  3  0  0  0  0  0  0
  161.6340  200.6880  149.8540 O   0  0  0  0  0  0  0  0  0  0  0  0
  160.8650  202.0470  146.7410 N   0  0  0  0  0  0  0  0  0  0  0  0
  161.1310  203.1690  146.0580 N   0  0  0  0  0  0  0  0  0  0  0  0
  161.3810  204.3440  146.7110 C   0  0  0  0  0  0  0  0  0  0  0  0
  161.3450  204.3960  148.0910 C   0  0  0  0  0  0  0  0  0  0  0  0
  161.6820  205.6170  146.0180 C   0  0  2  0  0  3  0  0  0  0  0  0
  161.6050  205.7230  148.7000 C   0  0  2  0  0  3  0  0  0  0  0  0
  161.7570  207.5120  150.9700 C   0  0  0  0  0  2  0  0  0  0  0  0
  162.3550  206.5000  151.9250 C   0  0  0  0  0  2  0  0  0  0  0  0
  161.0060  204.9990  153.1410 O   0  0  0  0  0  0  0  0  0  0  0  0
  161.3660  206.1560  152.9970 C   0  0  0  0  0  0  0  0  0  0  0  0
  160.1940  206.6030  155.1420 C   0  0  0  0  0  2  0  0  0  0  0  0
  159.5750  207.6840  155.9650 C   0  0  0  0  0  3  0  0  0  0  0  0
  161.5170  209.1590  155.4600 C   0  0  1  0  0  3  0  0  0  0  0  0
  161.4020  209.7030  154.0420 C   0  0  1  0  0  0  0  0  0  0  0  0
  160.1830  208.8610  156.1140 C   0  0  0  0  0  0  0  0  0  0  0  0
  162.4810  210.6030  153.6760 N   0  0  0  0  0  1  0  0  0  0  0  0
  160.7950  207.2180  153.8840 C   0  0  1  0  0  3  0  0  0  0  0  0
  159.5800  209.8400  156.8910 O   0  0  0  0  0  1  0  0  0  0  0  0
  161.8680  208.2650  154.2390 C   0  0  2  0  0  3  0  0  0  0  0  0
  160.1970  210.6520  152.2000 O   0  0  0  0  0  1  0  0  0  0  0  0
  160.0340  209.9790  153.4110 C   0  0  0  0  0  2  0  0  0  0  0  0
  1  2  2  0  0  0  0
  2 17  1  0  0  0  0
  3  4  1  0  0  0  0
  4  8  1  0  0  0  0
  5  8  1  6  0  0  0
  7 16  1  0  0  0  0
  9  3  1  6  0  0  0
  9 10  1  0  0  0  0
  9  5  1  0  0  0  0
 10  5  1  0  0  0  0
 11  3  2  0  0  0  0
 12 13  2  0  0  0  0
 12 11  1  0  0  0  0
 13 14  1  0  0  0  0
 14 16  1  0  0  0  0
 14  4  2  0  0  0  0
 15  6  1  1  0  0  0
 15 13  1  0  0  0  0
 15  7  1  0  0  0  0
 16  1  1  6  0  0  0
 17 18  1  0  0  0  0
 18 20  1  0  0  0  0
 20 19  2  0  0  0  0
 21 22  1  0  0  0  0
 22 25  2  0  0  0  0
 23 25  1  6  0  0  0
 24 26  1  6  0  0  0
 24 29  1  0  0  0  0
 24 23  1  0  0  0  0
 25 28  1  0  0  0  0
 27 20  1  6  0  0  0
 27 29  1  0  0  0  0
 27 21  1  0  0  0  0
 29 23  1  0  0  0  0
 30 31  1  0  0  0  0
 31 24  1  0  0  0  0
M  END
>  <MODEL>
8

>  <REMARK>
 VINA RESULT:      -7.7      2.392      3.879
  Name = 
  6 active torsions:
  status: ('A' for Active; 'I' for Inactive)
    1  A    between atoms: C_2  and  C_5
    2  A    between atoms: C_2  and  C_10
    3  A    between atoms: N_3  and  C_31
    4  A    between atoms: C_5  and  C_14
    5  A    between atoms: C_10  and  C_25
    6  A    between atoms: C_18  and  C_19
                            x       y       z     vdW  Elec       q    Type
                         _______ _______ _______ _____ _____    ______ ____

>  <TORSDO>
F 6

$$$$
=
 OpenBabel11052409453D

 31 36  0  0  1  0  0  0  0  0999 V2000
  160.6920  206.9370  149.1590 N   0  0  0  0  0  0  0  0  0  0  0  0
  160.8750  207.7860  150.1110 C   0  0  0  0  0  3  0  0  0  0  0  0
  160.8740  202.6420  149.7000 C   0  0  0  0  0  0  0  0  0  0  0  0
  161.2080  203.9600  149.7940 C   0  0  0  0  0  0  0  0  0  0  0  0
  160.9300  203.1090  151.9960 C   0  0  1  0  0  3  0  0  0  0  0  0
  162.6010  204.3360  145.3790 C   0  0  0  0  0  1  0  0  0  0  0  0
  161.9590  206.5750  146.8110 S   0  0  0  0  0  0  0  0  0  0  0  0
  161.3260  204.3760  151.2070 C   0  0  0  0  0  2  0  0  0  0  0  0
  160.6820  201.9990  151.0190 C   0  0  2  0  0  3  0  0  0  0  0  0
  161.8720  202.0830  151.7720 O   0  0  0  0  0  0  0  0  0  0  0  0
  160.7130  202.0490  148.4880 N   0  0  0  0  0  0  0  0  0  0  0  0
  160.9000  202.7560  147.3650 N   0  0  0  0  0  0  0  0  0  0  0  0
  161.2510  204.0750  147.4180 C   0  0  0  0  0  0  0  0  0  0  0  0
  161.4010  204.7080  148.6370 C   0  0  0  0  0  0  0  0  0  0  0  0
  161.4750  204.9120  146.2170 C   0  0  2  0  0  3  0  0  0  0  0  0
  161.7580  206.1470  148.5850 C   0  0  2  0  0  3  0  0  0  0  0  0
  162.2150  208.0330  150.7310 C   0  0  0  0  0  2  0  0  0  0  0  0
  162.2670  209.4470  151.2750 C   0  0  0  0  0  2  0  0  0  0  0  0
  161.3940  208.6000  153.2920 O   0  0  0  0  0  0  0  0  0  0  0  0
  161.4490  209.5480  152.5250 C   0  0  0  0  0  0  0  0  0  0  0  0
  160.4540  211.6190  151.5790 C   0  0  0  0  0  2  0  0  0  0  0  0
  159.7450  212.8810  151.9450 C   0  0  0  0  0  3  0  0  0  0  0  0
  158.2950  211.5950  153.5090 C   0  0  1  0  0  3  0  0  0  0  0  0
  159.0680  211.2600  154.7770 C   0  0  1  0  0  0  0  0  0  0  0  0
  158.7500  212.8720  152.8310 C   0  0  0  0  0  0  0  0  0  0  0  0
  158.2830  210.5370  155.7620 N   0  0  0  0  0  1  0  0  0  0  0  0
  160.6780  210.7920  152.8400 C   0  0  1  0  0  3  0  0  0  0  0  0
  158.1110  214.0640  153.1420 O   0  0  0  0  0  1  0  0  0  0  0  0
  159.3390  210.4450  153.5180 C   0  0  2  0  0  3  0  0  0  0  0  0
  159.9280  212.4460  156.6740 O   0  0  0  0  0  1  0  0  0  0  0  0
  160.1450  212.2040  155.3180 C   0  0  0  0  0  2  0  0  0  0  0  0
  1  2  2  0  0  0  0
  2 17  1  0  0  0  0
  3  4  1  0  0  0  0
  4  8  1  0  0  0  0
  5  8  1  6  0  0  0
  7 16  1  0  0  0  0
  9  3  1  6  0  0  0
  9 10  1  0  0  0  0
  9  5  1  0  0  0  0
 10  5  1  0  0  0  0
 11  3  2  0  0  0  0
 12 13  2  0  0  0  0
 12 11  1  0  0  0  0
 13 14  1  0  0  0  0
 14  4  2  0  0  0  0
 15  6  1  6  0  0  0
 15  7  1  0  0  0  0
 15 13  1  0  0  0  0
 16 14  1  0  0  0  0
 16  1  1  6  0  0  0
 17 18  1  0  0  0  0
 18 20  1  0  0  0  0
 20 19  2  0  0  0  0
 21 22  1  0  0  0  0
 21 27  1  0  0  0  0
 22 25  2  0  0  0  0
 23 25  1  6  0  0  0
 23 29  1  0  0  0  0
 23 24  1  0  0  0  0
 24 31  1  0  0  0  0
 24 26  1  1  0  0  0
 25 28  1  0  0  0  0
 27 20  1  6  0  0  0
 27 29  1  0  0  0  0
 29 24  1  0  0  0  0
 31 30  1  0  0  0  0
M  END
>  <MODEL>
9

>  <REMARK>
 VINA RESULT:      -7.6      2.509      3.732
  Name = 
  6 active torsions:
  status: ('A' for Active; 'I' for Inactive)
    1  A    between atoms: C_2  and  C_5
    2  A    between atoms: C_2  and  C_10
    3  A    between atoms: N_3  and  C_31
    4  A    between atoms: C_5  and  C_14
    5  A    between atoms: C_10  and  C_25
    6  A    between atoms: C_18  and  C_19
                            x       y       z     vdW  Elec       q    Type
                         _______ _______ _______ _____ _____    ______ ____

>  <TORSDO>
F 6

$$$$
