=
 OpenBabel11042422583D

 32 35  0  0  1  0  0  0  0  0999 V2000
  161.6530  203.9200  152.0870 C   0  0  0  0  0  2  0  0  0  0  0  0
  160.9290  209.4270  154.2300 C   0  0  0  0  0  3  0  0  0  0  0  0
  161.5390  207.1110  154.1030 O   0  0  0  0  0  0  0  0  0  0  0  0
  162.7130  206.3150  151.7370 C   0  0  0  0  0  2  0  0  0  0  0  0
  160.7040  210.6800  153.6500 C   0  0  0  0  0  0  0  0  0  0  0  0
  161.3790  209.7830  151.5020 C   0  0  0  0  0  3  0  0  0  0  0  0
  160.9190  210.8490  152.2770 C   0  0  0  0  0  3  0  0  0  0  0  0
  161.6260  208.5340  152.0790 C   0  0  0  0  0  0  0  0  0  0  0  0
  160.3720  205.9580  152.4040 O   0  0  0  0  0  0  0  0  0  0  0  0
  161.0350  205.8450  153.6500 C   0  0  1  0  0  3  0  0  0  0  0  0
  161.3650  208.3440  153.4580 C   0  0  0  0  0  0  0  0  0  0  0  0
  161.6680  205.4100  152.3850 C   0  0  1  0  0  0  0  0  0  0  0  0
  162.1440  207.5270  151.2540 O   0  0  0  0  0  0  0  0  0  0  0  0
  159.2800  212.6850  153.9840 O   0  0  0  0  0  0  0  0  0  0  0  0
  160.6930  211.9770  155.6380 O   0  0  0  0  0  1  0  0  0  0  0  0
  160.2350  211.8030  154.4770 C   0  0  0  0  0  0  0  0  0  0  0  0
  161.2320  203.6470  150.6430 C   0  0  1  0  0  3  0  0  0  0  0  0
  160.4030  202.3760  150.5460 C   0  0  0  0  0  2  0  0  0  0  0  0
  161.2500  201.2260  150.0280 C   0  0  0  0  0  2  0  0  0  0  0  0
  160.9680  201.0040  148.5850 C   0  0  0  0  0  0  0  0  0  0  0  0
  160.0480  201.6540  148.0210 O   0  0  0  0  0  0  0  0  0  0  0  0
  161.7010  200.0560  147.8760 O   0  0  0  0  0  0  0  0  0  0  0  0
  161.4130  199.7840  146.5970 O   0  0  0  0  0  1  0  0  0  0  0  0
  160.5030  204.8410  150.0140 C   0  0  0  0  0  2  0  0  0  0  0  0
  161.3830  205.4050  145.8430 C   0  0  0  0  0  0  0  0  0  0  0  0
  160.9890  206.6350  146.6180 C   0  0  0  0  0  2  0  0  0  0  0  0
  160.4910  206.2680  147.9940 C   0  0  0  0  0  3  0  0  0  0  0  0
  162.0430  204.3410  147.9830 C   0  0  0  0  0  2  0  0  0  0  0  0
  160.9970  205.2050  148.6430 C   0  0  0  0  0  0  0  0  0  0  0  0
  161.8780  204.3330  146.4830 C   0  0  0  0  0  3  0  0  0  0  0  0
  161.2750  205.4050  144.3560 C   0  0  0  0  0  2  0  0  0  0  0  0
  160.5170  204.3280  143.9360 F   0  0  0  0  0  0  0  0  0  0  0  0
  4 12  1  0  0  0  0
  5  2  1  0  0  0  0
  5 16  1  0  0  0  0
  6  8  2  0  0  0  0
  6  7  1  0  0  0  0
  7  5  2  0  0  0  0
  8 11  1  0  0  0  0
 10  9  1  6  0  0  0
 10  3  1  0  0  0  0
 11  3  1  0  0  0  0
 11  2  2  0  0  0  0
 12  1  1  6  0  0  0
 12  9  1  0  0  0  0
 12 10  1  0  0  0  0
 13  4  1  0  0  0  0
 13  8  1  0  0  0  0
 14 16  2  0  0  0  0
 16 15  1  0  0  0  0
 17 24  1  1  0  0  0
 17  1  1  0  0  0  0
 18 17  1  0  0  0  0
 19 18  1  0  0  0  0
 20 19  1  0  0  0  0
 21 20  2  0  0  0  0
 22 20  1  0  0  0  0
 23 22  1  0  0  0  0
 25 30  2  0  0  0  0
 25 26  1  0  0  0  0
 26 27  1  0  0  0  0
 27 29  2  0  0  0  0
 28 29  1  0  0  0  0
 29 24  1  0  0  0  0
 30 28  1  0  0  0  0
 31 25  1  0  0  0  0
 32 31  1  0  0  0  0
M  END
>  <MODEL>
1

>  <REMARK>
 VINA RESULT:      -8.2      0.000      0.000
  Name = 
  10 active torsions:
  status: ('A' for Active; 'I' for Inactive)
    1  A    between atoms: O_2  and  C_12
    2  A    between atoms: C_4  and  C_5
    3  A    between atoms: C_4  and  C_30
    4  A    between atoms: C_5  and  C_8
    5  A    between atoms: C_5  and  C_15
    6  A    between atoms: C_7  and  C_25
    7  A    between atoms: C_8  and  C_32
    8  A    between atoms: C_12  and  C_32
    9  A    between atoms: C_13  and  C_22
   10  A    between atoms: C_15  and  C_19
                            x       y       z     vdW  Elec       q    Type
                         _______ _______ _______ _____ _____    ______ ____

>  <TORSDO>
F 10

$$$$
=
 OpenBabel11042422583D

 32 35  0  0  1  0  0  0  0  0999 V2000
  161.9590  207.4450  148.3470 C   0  0  0  0  0  2  0  0  0  0  0  0
  161.2430  209.3660  153.9370 C   0  0  0  0  0  3  0  0  0  0  0  0
  161.1650  209.2970  151.5410 O   0  0  0  0  0  0  0  0  0  0  0  0
  160.4510  206.8710  150.4410 C   0  0  0  0  0  2  0  0  0  0  0  0
  161.2540  208.7480  155.1920 C   0  0  0  0  0  0  0  0  0  0  0  0
  161.0230  206.5910  154.1090 C   0  0  0  0  0  3  0  0  0  0  0  0
  161.1560  207.3540  155.2710 C   0  0  0  0  0  3  0  0  0  0  0  0
  160.9910  207.2040  152.8530 C   0  0  0  0  0  0  0  0  0  0  0  0
  162.7280  207.7830  150.6250 O   0  0  0  0  0  0  0  0  0  0  0  0
  161.9760  208.9610  150.4050 C   0  0  1  0  0  3  0  0  0  0  0  0
  161.1370  208.6110  152.7640 C   0  0  0  0  0  0  0  0  0  0  0  0
  161.5910  207.6630  149.8060 C   0  0  1  0  0  0  0  0  0  0  0  0
  160.7940  206.3850  151.7340 O   0  0  0  0  0  0  0  0  0  0  0  0
  160.2580  209.8270  157.1930 O   0  0  0  0  0  1  0  0  0  0  0  0
  162.4970  210.0180  156.7660 O   0  0  0  0  0  0  0  0  0  0  0  0
  161.3780  209.5590  156.4140 C   0  0  0  0  0  0  0  0  0  0  0  0
  161.3530  206.1480  147.8110 C   0  0  1  0  0  3  0  0  0  0  0  0
  160.8420  206.3310  146.3900 C   0  0  0  0  0  2  0  0  0  0  0  0
  161.9040  205.9180  145.3850 C   0  0  0  0  0  2  0  0  0  0  0  0
  161.2810  205.1200  144.2960 C   0  0  0  0  0  0  0  0  0  0  0  0
  161.2730  205.5700  143.1190 O   0  0  0  0  0  0  0  0  0  0  0  0
  160.6860  203.8970  144.5910 O   0  0  0  0  0  0  0  0  0  0  0  0
  159.4400  203.6240  144.1800 O   0  0  0  0  0  1  0  0  0  0  0  0
  162.3270  204.9670  147.9090 C   0  0  0  0  0  2  0  0  0  0  0  0
  159.8930  201.7320  149.3570 C   0  0  0  0  0  0  0  0  0  0  0  0
  160.7170  201.4530  148.1270 C   0  0  0  0  0  2  0  0  0  0  0  0
  161.3380  202.7220  147.5970 C   0  0  0  0  0  3  0  0  0  0  0  0
  161.4610  203.5680  149.9190 C   0  0  0  0  0  2  0  0  0  0  0  0
  161.7050  203.7060  148.4360 C   0  0  0  0  0  0  0  0  0  0  0  0
  160.2440  202.7210  150.1960 C   0  0  0  0  0  3  0  0  0  0  0  0
  158.7200  200.8660  149.6700 C   0  0  0  0  0  2  0  0  0  0  0  0
  157.6160  201.2900  148.9550 F   0  0  0  0  0  0  0  0  0  0  0  0
  2  5  1  0  0  0  0
  3 11  1  0  0  0  0
  4 13  1  0  0  0  0
  5  7  2  0  0  0  0
  5 16  1  0  0  0  0
  6  7  1  0  0  0  0
  8  6  2  0  0  0  0
 10  9  1  1  0  0  0
 10  3  1  0  0  0  0
 11  8  1  0  0  0  0
 11  2  2  0  0  0  0
 12  1  1  6  0  0  0
 12 10  1  0  0  0  0
 12  4  1  0  0  0  0
 12  9  1  0  0  0  0
 13  8  1  0  0  0  0
 16 15  2  0  0  0  0
 16 14  1  0  0  0  0
 17 18  1  6  0  0  0
 17 24  1  0  0  0  0
 17  1  1  0  0  0  0
 19 18  1  0  0  0  0
 20 22  1  0  0  0  0
 20 19  1  0  0  0  0
 21 20  2  0  0  0  0
 23 22  1  0  0  0  0
 24 29  1  0  0  0  0
 25 31  1  0  0  0  0
 25 30  2  0  0  0  0
 26 25  1  0  0  0  0
 27 26  1  0  0  0  0
 27 29  2  0  0  0  0
 28 30  1  0  0  0  0
 29 28  1  0  0  0  0
 32 31  1  0  0  0  0
M  END
>  <MODEL>
2

>  <REMARK>
 VINA RESULT:      -8.0      2.429      4.336
  Name = 
  10 active torsions:
  status: ('A' for Active; 'I' for Inactive)
    1  A    between atoms: O_2  and  C_12
    2  A    between atoms: C_4  and  C_5
    3  A    between atoms: C_4  and  C_30
    4  A    between atoms: C_5  and  C_8
    5  A    between atoms: C_5  and  C_15
    6  A    between atoms: C_7  and  C_25
    7  A    between atoms: C_8  and  C_32
    8  A    between atoms: C_12  and  C_32
    9  A    between atoms: C_13  and  C_22
   10  A    between atoms: C_15  and  C_19
                            x       y       z     vdW  Elec       q    Type
                         _______ _______ _______ _____ _____    ______ ____

>  <TORSDO>
F 10

$$$$
=
 OpenBabel11042422583D

 32 35  0  0  1  0  0  0  0  0999 V2000
  161.6390  208.5820  148.8990 C   0  0  0  0  0  2  0  0  0  0  0  0
  161.5280  203.0560  146.6860 C   0  0  0  0  0  3  0  0  0  0  0  0
  162.2040  205.3250  147.0740 O   0  0  0  0  0  0  0  0  0  0  0  0
  162.2060  206.1330  149.7110 C   0  0  0  0  0  2  0  0  0  0  0  0
  160.9530  201.8500  147.0980 C   0  0  0  0  0  0  0  0  0  0  0  0
  160.6250  202.7860  149.3100 C   0  0  0  0  0  3  0  0  0  0  0  0
  160.4900  201.7250  148.4130 C   0  0  0  0  0  3  0  0  0  0  0  0
  161.2180  203.9870  148.9100 C   0  0  0  0  0  0  0  0  0  0  0  0
  160.4840  206.6320  148.0280 O   0  0  0  0  0  0  0  0  0  0  0  0
  161.6570  206.6420  147.2350 C   0  0  1  0  0  3  0  0  0  0  0  0
  161.6460  204.1360  147.5680 C   0  0  0  0  0  0  0  0  0  0  0  0
  161.6630  207.0840  148.6480 C   0  0  1  0  0  0  0  0  0  0  0  0
  161.3770  204.9880  149.8780 O   0  0  0  0  0  0  0  0  0  0  0  0
  161.4460  199.5140  146.4210 O   0  0  0  0  0  1  0  0  0  0  0  0
  160.1630  200.8600  145.0900 O   0  0  0  0  0  0  0  0  0  0  0  0
  160.8280  200.7300  146.1520 C   0  0  0  0  0  0  0  0  0  0  0  0
  161.9350  208.9050  150.3630 C   0  0  1  0  0  3  0  0  0  0  0  0
  162.5780  210.2760  150.5010 C   0  0  0  0  0  2  0  0  0  0  0  0
  161.5590  211.3710  150.2360 C   0  0  0  0  0  2  0  0  0  0  0  0
  161.8180  211.9860  148.9070 C   0  0  0  0  0  0  0  0  0  0  0  0
  162.9910  212.0150  148.4500 O   0  0  0  0  0  0  0  0  0  0  0  0
  160.7660  212.5530  148.1920 O   0  0  0  0  0  0  0  0  0  0  0  0
  160.5750  212.2530  146.9010 O   0  0  0  0  0  1  0  0  0  0  0  0
  160.6910  208.7770  151.2500 C   0  0  0  0  0  2  0  0  0  0  0  0
  160.7830  207.5410  155.3670 C   0  0  0  0  0  0  0  0  0  0  0  0
  161.3290  206.5620  154.3600 C   0  0  0  0  0  2  0  0  0  0  0  0
  161.0300  207.0160  152.9530 C   0  0  0  0  0  3  0  0  0  0  0  0
  161.1900  209.3590  153.7320 C   0  0  0  0  0  2  0  0  0  0  0  0
  160.9840  208.3250  152.6520 C   0  0  0  0  0  0  0  0  0  0  0  0
  160.7210  208.8500  155.0720 C   0  0  0  0  0  3  0  0  0  0  0  0
  160.3670  207.0570  156.7150 C   0  0  0  0  0  2  0  0  0  0  0  0
  159.0360  206.6860  156.6940 F   0  0  0  0  0  0  0  0  0  0  0  0
  2  5  2  0  0  0  0
  2 11  1  0  0  0  0
  3 11  1  0  0  0  0
  4 13  1  0  0  0  0
  5  7  1  0  0  0  0
  7  6  2  0  0  0  0
  8  6  1  0  0  0  0
  8 13  1  0  0  0  0
  9 12  1  0  0  0  0
 10  3  1  1  0  0  0
 10  9  1  0  0  0  0
 10 12  1  0  0  0  0
 11  8  2  0  0  0  0
 12  1  1  1  0  0  0
 12  4  1  0  0  0  0
 15 16  2  0  0  0  0
 16 14  1  0  0  0  0
 16  5  1  0  0  0  0
 17  1  1  6  0  0  0
 17 18  1  0  0  0  0
 17 24  1  0  0  0  0
 19 18  1  0  0  0  0
 20 19  1  0  0  0  0
 21 20  2  0  0  0  0
 22 20  1  0  0  0  0
 23 22  1  0  0  0  0
 24 29  1  0  0  0  0
 25 31  1  0  0  0  0
 26 25  1  0  0  0  0
 27 26  1  0  0  0  0
 28 30  1  0  0  0  0
 29 27  2  0  0  0  0
 29 28  1  0  0  0  0
 30 25  2  0  0  0  0
 32 31  1  0  0  0  0
M  END
>  <MODEL>
3

>  <REMARK>
 VINA RESULT:      -7.8      3.528      9.269
  Name = 
  10 active torsions:
  status: ('A' for Active; 'I' for Inactive)
    1  A    between atoms: O_2  and  C_12
    2  A    between atoms: C_4  and  C_5
    3  A    between atoms: C_4  and  C_30
    4  A    between atoms: C_5  and  C_8
    5  A    between atoms: C_5  and  C_15
    6  A    between atoms: C_7  and  C_25
    7  A    between atoms: C_8  and  C_32
    8  A    between atoms: C_12  and  C_32
    9  A    between atoms: C_13  and  C_22
   10  A    between atoms: C_15  and  C_19
                            x       y       z     vdW  Elec       q    Type
                         _______ _______ _______ _____ _____    ______ ____

>  <TORSDO>
F 10

$$$$
=
 OpenBabel11042422583D

 32 35  0  0  1  0  0  0  0  0999 V2000
  162.1030  208.5900  152.3220 C   0  0  0  0  0  2  0  0  0  0  0  0
  160.8990  203.5690  149.3580 C   0  0  0  0  0  3  0  0  0  0  0  0
  160.7600  205.3210  150.9900 O   0  0  0  0  0  0  0  0  0  0  0  0
  161.0320  207.8850  150.0110 C   0  0  0  0  0  2  0  0  0  0  0  0
  161.2040  203.0920  148.0790 C   0  0  0  0  0  0  0  0  0  0  0  0
  161.8110  205.3410  147.4080 C   0  0  0  0  0  3  0  0  0  0  0  0
  161.6740  203.9840  147.1080 C   0  0  0  0  0  3  0  0  0  0  0  0
  161.4870  205.8280  148.6770 C   0  0  0  0  0  0  0  0  0  0  0  0
  162.7620  206.5640  151.1570 O   0  0  0  0  0  0  0  0  0  0  0  0
  161.5930  206.1340  151.8310 C   0  0  1  0  0  3  0  0  0  0  0  0
  161.0560  204.9220  149.6780 C   0  0  0  0  0  0  0  0  0  0  0  0
  161.7350  207.5140  151.3140 C   0  0  1  0  0  0  0  0  0  0  0  0
  161.5900  207.2080  148.8910 O   0  0  0  0  0  0  0  0  0  0  0  0
  160.7950  201.2560  146.4590 O   0  0  0  0  0  0  0  0  0  0  0  0
  161.1250  200.7950  148.6750 O   0  0  0  0  0  1  0  0  0  0  0  0
  161.0420  201.6630  147.7650 C   0  0  0  0  0  0  0  0  0  0  0  0
  160.8580  209.3030  152.8500 C   0  0  1  0  0  3  0  0  0  0  0  0
  160.2890  208.5830  154.0630 C   0  0  0  0  0  2  0  0  0  0  0  0
  161.4070  208.0120  154.9170 C   0  0  0  0  0  2  0  0  0  0  0  0
  161.3690  208.6270  156.2710 C   0  0  0  0  0  0  0  0  0  0  0  0
  162.2500  209.4640  156.6020 O   0  0  0  0  0  0  0  0  0  0  0  0
  160.3780  208.2490  157.1720 O   0  0  0  0  0  0  0  0  0  0  0  0
  159.9590  206.9780  157.2370 O   0  0  0  0  0  1  0  0  0  0  0  0
  161.1210  210.7840  153.1510 C   0  0  0  0  0  2  0  0  0  0  0  0
  157.6150  212.0990  155.2640 C   0  0  0  0  0  0  0  0  0  0  0  0
  158.9320  212.6610  155.7340 C   0  0  0  0  0  2  0  0  0  0  0  0
  160.0860  211.9530  155.0690 C   0  0  0  0  0  3  0  0  0  0  0  0
  158.6670  211.6300  153.0690 C   0  0  0  0  0  2  0  0  0  0  0  0
  159.9710  211.4860  153.8140 C   0  0  0  0  0  0  0  0  0  0  0  0
  157.4920  211.6200  154.0150 C   0  0  0  0  0  3  0  0  0  0  0  0
  156.4330  212.1340  156.1720 C   0  0  0  0  0  2  0  0  0  0  0  0
  155.7950  210.9070  156.1650 F   0  0  0  0  0  0  0  0  0  0  0  0
  2 11  1  0  0  0  0
  4 12  1  0  0  0  0
  5  2  2  0  0  0  0
  6  8  1  0  0  0  0
  7  6  2  0  0  0  0
  7  5  1  0  0  0  0
  8 13  1  0  0  0  0
  8 11  2  0  0  0  0
  9 12  1  0  0  0  0
  9 10  1  0  0  0  0
 10  3  1  6  0  0  0
 11  3  1  0  0  0  0
 12 10  1  0  0  0  0
 12  1  1  1  0  0  0
 13  4  1  0  0  0  0
 14 16  2  0  0  0  0
 16  5  1  0  0  0  0
 16 15  1  0  0  0  0
 17  1  1  1  0  0  0
 17 24  1  0  0  0  0
 17 18  1  0  0  0  0
 18 19  1  0  0  0  0
 19 20  1  0  0  0  0
 20 21  2  0  0  0  0
 20 22  1  0  0  0  0
 22 23  1  0  0  0  0
 24 29  1  0  0  0  0
 25 26  1  0  0  0  0
 25 31  1  0  0  0  0
 27 26  1  0  0  0  0
 28 29  1  0  0  0  0
 28 30  1  0  0  0  0
 29 27  2  0  0  0  0
 30 25  2  0  0  0  0
 32 31  1  0  0  0  0
M  END
>  <MODEL>
4

>  <REMARK>
 VINA RESULT:      -7.7      3.220      9.233
  Name = 
  10 active torsions:
  status: ('A' for Active; 'I' for Inactive)
    1  A    between atoms: O_2  and  C_12
    2  A    between atoms: C_4  and  C_5
    3  A    between atoms: C_4  and  C_30
    4  A    between atoms: C_5  and  C_8
    5  A    between atoms: C_5  and  C_15
    6  A    between atoms: C_7  and  C_25
    7  A    between atoms: C_8  and  C_32
    8  A    between atoms: C_12  and  C_32
    9  A    between atoms: C_13  and  C_22
   10  A    between atoms: C_15  and  C_19
                            x       y       z     vdW  Elec       q    Type
                         _______ _______ _______ _____ _____    ______ ____

>  <TORSDO>
F 10

$$$$
=
 OpenBabel11042422583D

 32 35  0  0  1  0  0  0  0  0999 V2000
  162.4420  207.3360  150.7080 C   0  0  0  0  0  2  0  0  0  0  0  0
  159.6600  210.3820  155.0020 C   0  0  0  0  0  3  0  0  0  0  0  0
  161.2020  208.9020  153.9140 O   0  0  0  0  0  0  0  0  0  0  0  0
  162.2890  209.8350  151.5570 C   0  0  0  0  0  2  0  0  0  0  0  0
  158.8350  211.5120  155.0210 C   0  0  0  0  0  0  0  0  0  0  0  0
  159.5510  212.0480  152.7680 C   0  0  0  0  0  3  0  0  0  0  0  0
  158.7750  212.3370  153.8920 C   0  0  0  0  0  3  0  0  0  0  0  0
  160.3930  210.9320  152.7500 C   0  0  0  0  0  0  0  0  0  0  0  0
  160.4500  208.2160  151.7830 O   0  0  0  0  0  0  0  0  0  0  0  0
  161.2500  207.8840  152.9020 C   0  0  1  0  0  3  0  0  0  0  0  0
  160.4230  210.0670  153.8710 C   0  0  0  0  0  0  0  0  0  0  0  0
  161.8400  208.3780  151.6380 C   0  0  1  0  0  0  0  0  0  0  0  0
  161.1880  210.7360  151.6130 O   0  0  0  0  0  0  0  0  0  0  0  0
  156.6560  211.6280  156.2030 O   0  0  0  0  0  0  0  0  0  0  0  0
  158.5840  212.2600  157.2610 O   0  0  0  0  0  1  0  0  0  0  0  0
  158.0330  211.8200  156.2160 C   0  0  0  0  0  0  0  0  0  0  0  0
  161.6890  207.2770  149.3800 C   0  0  1  0  0  3  0  0  0  0  0  0
  162.6320  206.9550  148.2310 C   0  0  0  0  0  2  0  0  0  0  0  0
  161.8960  207.0200  146.9040 C   0  0  0  0  0  2  0  0  0  0  0  0
  162.2740  205.8530  146.0630 C   0  0  0  0  0  0  0  0  0  0  0  0
  163.3240  205.2090  146.3240 O   0  0  0  0  0  0  0  0  0  0  0  0
  161.4800  205.5010  144.9740 O   0  0  0  0  0  0  0  0  0  0  0  0
  160.2240  205.9560  144.8670 O   0  0  0  0  0  1  0  0  0  0  0  0
  160.5060  206.3020  149.4250 C   0  0  0  0  0  2  0  0  0  0  0  0
  160.9290  202.0300  149.6560 C   0  0  0  0  0  0  0  0  0  0  0  0
  161.3120  202.6720  148.3490 C   0  0  0  0  0  2  0  0  0  0  0  0
  160.9050  204.1240  148.3230 C   0  0  0  0  0  3  0  0  0  0  0  0
  161.2830  204.2180  150.7660 C   0  0  0  0  0  2  0  0  0  0  0  0
  160.9080  204.8560  149.4510 C   0  0  0  0  0  0  0  0  0  0  0  0
  160.9180  202.7540  150.7870 C   0  0  0  0  0  3  0  0  0  0  0  0
  160.6200  200.5720  149.6980 C   0  0  0  0  0  2  0  0  0  0  0  0
  161.3520  199.9050  148.7330 F   0  0  0  0  0  0  0  0  0  0  0  0
  2  5  1  0  0  0  0
  4 13  1  0  0  0  0
  4 12  1  0  0  0  0
  5 16  1  0  0  0  0
  6  7  1  0  0  0  0
  7  5  2  0  0  0  0
  8  6  2  0  0  0  0
  8 11  1  0  0  0  0
 10  9  1  6  0  0  0
 10  3  1  0  0  0  0
 11  3  1  0  0  0  0
 11  2  2  0  0  0  0
 12  1  1  6  0  0  0
 12  9  1  0  0  0  0
 12 10  1  0  0  0  0
 13  8  1  0  0  0  0
 14 16  2  0  0  0  0
 16 15  1  0  0  0  0
 17 18  1  6  0  0  0
 17 24  1  0  0  0  0
 17  1  1  0  0  0  0
 19 18  1  0  0  0  0
 20 21  2  0  0  0  0
 20 19  1  0  0  0  0
 22 20  1  0  0  0  0
 23 22  1  0  0  0  0
 24 29  1  0  0  0  0
 25 31  1  0  0  0  0
 25 30  2  0  0  0  0
 26 25  1  0  0  0  0
 27 26  1  0  0  0  0
 27 29  2  0  0  0  0
 28 30  1  0  0  0  0
 29 28  1  0  0  0  0
 32 31  1  0  0  0  0
M  END
>  <MODEL>
5

>  <REMARK>
 VINA RESULT:      -7.7      2.546      4.096
  Name = 
  10 active torsions:
  status: ('A' for Active; 'I' for Inactive)
    1  A    between atoms: O_2  and  C_12
    2  A    between atoms: C_4  and  C_5
    3  A    between atoms: C_4  and  C_30
    4  A    between atoms: C_5  and  C_8
    5  A    between atoms: C_5  and  C_15
    6  A    between atoms: C_7  and  C_25
    7  A    between atoms: C_8  and  C_32
    8  A    between atoms: C_12  and  C_32
    9  A    between atoms: C_13  and  C_22
   10  A    between atoms: C_15  and  C_19
                            x       y       z     vdW  Elec       q    Type
                         _______ _______ _______ _____ _____    ______ ____

>  <TORSDO>
F 10

$$$$
=
 OpenBabel11042422583D

 32 35  0  0  1  0  0  0  0  0999 V2000
  160.8500  207.9020  150.8970 C   0  0  0  0  0  2  0  0  0  0  0  0
  161.2860  203.0850  147.4240 C   0  0  0  0  0  3  0  0  0  0  0  0
  161.6690  205.2850  148.2990 O   0  0  0  0  0  0  0  0  0  0  0  0
  161.8500  205.4600  151.0460 C   0  0  0  0  0  2  0  0  0  0  0  0
  160.9390  201.7380  147.5730 C   0  0  0  0  0  0  0  0  0  0  0  0
  160.7290  202.0790  149.9640 C   0  0  0  0  0  3  0  0  0  0  0  0
  160.6480  201.2420  148.8490 C   0  0  0  0  0  3  0  0  0  0  0  0
  161.0950  203.4200  149.8240 C   0  0  0  0  0  0  0  0  0  0  0  0
  159.8960  206.0380  149.6670 O   0  0  0  0  0  0  0  0  0  0  0  0
  160.9600  206.4220  148.8150 C   0  0  1  0  0  3  0  0  0  0  0  0
  161.3450  203.9400  148.5300 C   0  0  0  0  0  0  0  0  0  0  0  0
  161.0610  206.5250  150.2880 C   0  0  1  0  0  0  0  0  0  0  0  0
  161.2160  204.1860  150.9910 O   0  0  0  0  0  0  0  0  0  0  0  0
  161.4200  199.5820  146.4420 O   0  0  0  0  0  1  0  0  0  0  0  0
  160.3170  201.2520  145.3340 O   0  0  0  0  0  0  0  0  0  0  0  0
  160.8710  200.8590  146.3950 C   0  0  0  0  0  0  0  0  0  0  0  0
  162.0600  208.8050  150.6580 C   0  0  1  0  0  3  0  0  0  0  0  0
  161.9190  209.5720  149.3520 C   0  0  0  0  0  2  0  0  0  0  0  0
  162.2950  211.0300  149.5480 C   0  0  0  0  0  2  0  0  0  0  0  0
  162.2050  211.7520  148.2510 C   0  0  0  0  0  0  0  0  0  0  0  0
  163.1780  212.4450  147.8520 O   0  0  0  0  0  0  0  0  0  0  0  0
  161.0330  211.6800  147.5020 O   0  0  0  0  0  0  0  0  0  0  0  0
  160.5320  212.7710  146.9080 O   0  0  0  0  0  1  0  0  0  0  0  0
  162.3220  209.7500  151.8370 C   0  0  0  0  0  2  0  0  0  0  0  0
  159.3890  210.7550  154.8160 C   0  0  0  0  0  0  0  0  0  0  0  0
  159.0350  211.0820  153.3890 C   0  0  0  0  0  2  0  0  0  0  0  0
  160.2260  210.8930  152.4830 C   0  0  0  0  0  3  0  0  0  0  0  0
  161.0000  209.0730  153.9680 C   0  0  0  0  0  2  0  0  0  0  0  0
  161.1380  209.9400  152.7410 C   0  0  0  0  0  0  0  0  0  0  0  0
  160.3080  209.8130  155.0850 C   0  0  0  0  0  3  0  0  0  0  0  0
  158.6720  211.4420  155.9280 C   0  0  0  0  0  2  0  0  0  0  0  0
  157.3520  211.0310  155.9650 F   0  0  0  0  0  0  0  0  0  0  0  0
  2  5  2  0  0  0  0
  2 11  1  0  0  0  0
  3 11  1  0  0  0  0
  5  7  1  0  0  0  0
  7  6  2  0  0  0  0
  8  6  1  0  0  0  0
  8 13  1  0  0  0  0
  9 12  1  0  0  0  0
 10  3  1  1  0  0  0
 10  9  1  0  0  0  0
 10 12  1  0  0  0  0
 11  8  2  0  0  0  0
 12  1  1  1  0  0  0
 12  4  1  0  0  0  0
 13  4  1  0  0  0  0
 15 16  2  0  0  0  0
 16 14  1  0  0  0  0
 16  5  1  0  0  0  0
 17 18  1  6  0  0  0
 17  1  1  0  0  0  0
 17 24  1  0  0  0  0
 18 19  1  0  0  0  0
 20 19  1  0  0  0  0
 21 20  2  0  0  0  0
 22 20  1  0  0  0  0
 23 22  1  0  0  0  0
 24 29  1  0  0  0  0
 25 30  2  0  0  0  0
 25 31  1  0  0  0  0
 26 25  1  0  0  0  0
 27 29  2  0  0  0  0
 27 26  1  0  0  0  0
 28 30  1  0  0  0  0
 29 28  1  0  0  0  0
 31 32  1  0  0  0  0
M  END
>  <MODEL>
6

>  <REMARK>
 VINA RESULT:      -7.7      3.613      9.282
  Name = 
  10 active torsions:
  status: ('A' for Active; 'I' for Inactive)
    1  A    between atoms: O_2  and  C_12
    2  A    between atoms: C_4  and  C_5
    3  A    between atoms: C_4  and  C_30
    4  A    between atoms: C_5  and  C_8
    5  A    between atoms: C_5  and  C_15
    6  A    between atoms: C_7  and  C_25
    7  A    between atoms: C_8  and  C_32
    8  A    between atoms: C_12  and  C_32
    9  A    between atoms: C_13  and  C_22
   10  A    between atoms: C_15  and  C_19
                            x       y       z     vdW  Elec       q    Type
                         _______ _______ _______ _____ _____    ______ ____

>  <TORSDO>
F 10

$$$$
=
 OpenBabel11042422583D

 32 35  0  0  1  0  0  0  0  0999 V2000
  161.9420  207.2950  151.0790 C   0  0  0  0  0  2  0  0  0  0  0  0
  159.8850  211.7650  154.4310 C   0  0  0  0  0  3  0  0  0  0  0  0
  160.0370  210.1390  152.6740 O   0  0  0  0  0  0  0  0  0  0  0  0
  160.8260  207.6130  153.4530 C   0  0  0  0  0  2  0  0  0  0  0  0
  160.1320  212.2010  155.7370 C   0  0  0  0  0  0  0  0  0  0  0  0
  161.1790  210.0710  156.2280 C   0  0  0  0  0  3  0  0  0  0  0  0
  160.7930  211.3500  156.6310 C   0  0  0  0  0  3  0  0  0  0  0  0
  160.9170  209.6210  154.9300 C   0  0  0  0  0  0  0  0  0  0  0  0
  162.2340  209.3230  152.3820 O   0  0  0  0  0  0  0  0  0  0  0  0
  160.9840  209.5650  151.7620 C   0  0  1  0  0  3  0  0  0  0  0  0
  160.2900  210.4940  154.0080 C   0  0  0  0  0  0  0  0  0  0  0  0
  161.4050  208.2060  152.1710 C   0  0  1  0  0  0  0  0  0  0  0  0
  161.2770  208.3050  154.6120 O   0  0  0  0  0  0  0  0  0  0  0  0
  160.3890  214.2090  157.1730 O   0  0  0  0  0  1  0  0  0  0  0  0
  158.7230  214.1070  155.6100 O   0  0  0  0  0  0  0  0  0  0  0  0
  159.7070  213.5450  156.1600 C   0  0  0  0  0  0  0  0  0  0  0  0
  161.0030  206.1150  150.8290 C   0  0  1  0  0  3  0  0  0  0  0  0
  160.5720  206.0580  149.3710 C   0  0  0  0  0  2  0  0  0  0  0  0
  161.4190  206.9970  148.5300 C   0  0  0  0  0  2  0  0  0  0  0  0
  161.5170  206.4760  147.1400 C   0  0  0  0  0  0  0  0  0  0  0  0
  160.5270  206.5680  146.3680 O   0  0  0  0  0  0  0  0  0  0  0  0
  162.6930  205.8630  146.7150 O   0  0  0  0  0  0  0  0  0  0  0  0
  162.7350  205.1920  145.5560 O   0  0  0  0  0  1  0  0  0  0  0  0
  161.6090  204.7830  151.2870 C   0  0  0  0  0  2  0  0  0  0  0  0
  161.1910  201.3960  148.6710 C   0  0  0  0  0  0  0  0  0  0  0  0
  160.7960  201.1860  150.1100 C   0  0  0  0  0  2  0  0  0  0  0  0
  161.2020  202.3660  150.9570 C   0  0  0  0  0  3  0  0  0  0  0  0
  160.8460  203.8290  148.9940 C   0  0  0  0  0  2  0  0  0  0  0  0
  161.2080  203.6080  150.4420 C   0  0  0  0  0  0  0  0  0  0  0  0
  161.2110  202.6340  148.1500 C   0  0  0  0  0  3  0  0  0  0  0  0
  161.5010  200.2170  147.8130 C   0  0  0  0  0  2  0  0  0  0  0  0
  161.2120  200.5040  146.4920 F   0  0  0  0  0  0  0  0  0  0  0  0
  2  5  1  0  0  0  0
  3 11  1  0  0  0  0
  4 13  1  0  0  0  0
  5 16  1  0  0  0  0
  5  7  2  0  0  0  0
  6  7  1  0  0  0  0
  8  6  2  0  0  0  0
 10 12  1  0  0  0  0
 10  9  1  1  0  0  0
 10  3  1  0  0  0  0
 11  2  2  0  0  0  0
 11  8  1  0  0  0  0
 12  1  1  6  0  0  0
 12  9  1  0  0  0  0
 12  4  1  0  0  0  0
 13  8  1  0  0  0  0
 15 16  2  0  0  0  0
 16 14  1  0  0  0  0
 17 18  1  6  0  0  0
 17  1  1  0  0  0  0
 17 24  1  0  0  0  0
 19 18  1  0  0  0  0
 20 19  1  0  0  0  0
 21 20  2  0  0  0  0
 22 20  1  0  0  0  0
 23 22  1  0  0  0  0
 25 26  1  0  0  0  0
 26 27  1  0  0  0  0
 28 29  1  0  0  0  0
 29 27  2  0  0  0  0
 29 24  1  0  0  0  0
 30 25  2  0  0  0  0
 30 28  1  0  0  0  0
 31 25  1  0  0  0  0
 32 31  1  0  0  0  0
M  END
>  <MODEL>
7

>  <REMARK>
 VINA RESULT:      -7.5      2.379      4.105
  Name = 
  10 active torsions:
  status: ('A' for Active; 'I' for Inactive)
    1  A    between atoms: O_2  and  C_12
    2  A    between atoms: C_4  and  C_5
    3  A    between atoms: C_4  and  C_30
    4  A    between atoms: C_5  and  C_8
    5  A    between atoms: C_5  and  C_15
    6  A    between atoms: C_7  and  C_25
    7  A    between atoms: C_8  and  C_32
    8  A    between atoms: C_12  and  C_32
    9  A    between atoms: C_13  and  C_22
   10  A    between atoms: C_15  and  C_19
                            x       y       z     vdW  Elec       q    Type
                         _______ _______ _______ _____ _____    ______ ____

>  <TORSDO>
F 10

$$$$
=
 OpenBabel11042422583D

 32 35  0  0  1  0  0  0  0  0999 V2000
  161.9480  204.6500  151.2620 C   0  0  0  0  0  2  0  0  0  0  0  0
  160.6920  209.3970  154.6300 C   0  0  0  0  0  3  0  0  0  0  0  0
  161.5880  207.2790  153.9500 O   0  0  0  0  0  0  0  0  0  0  0  0
  162.6500  207.1940  151.4060 C   0  0  0  0  0  2  0  0  0  0  0  0
  160.2550  210.6990  154.3600 C   0  0  0  0  0  0  0  0  0  0  0  0
  160.8560  210.3960  152.0320 C   0  0  0  0  0  3  0  0  0  0  0  0
  160.3280  211.1900  153.0520 C   0  0  0  0  0  3  0  0  0  0  0  0
  161.3140  209.1020  152.2980 C   0  0  0  0  0  0  0  0  0  0  0  0
  160.4420  206.3610  152.1000 O   0  0  0  0  0  0  0  0  0  0  0  0
  161.2180  206.0810  153.2510 C   0  0  1  0  0  3  0  0  0  0  0  0
  161.1990  208.5830  153.6110 C   0  0  0  0  0  0  0  0  0  0  0  0
  161.7920  206.0270  151.8880 C   0  0  1  0  0  0  0  0  0  0  0  0
  161.8870  208.3840  151.2400 O   0  0  0  0  0  0  0  0  0  0  0  0
  160.5600  212.0430  156.4240 O   0  0  0  0  0  1  0  0  0  0  0  0
  158.4840  211.8000  155.4940 O   0  0  0  0  0  0  0  0  0  0  0  0
  159.7150  211.5350  155.4440 C   0  0  0  0  0  0  0  0  0  0  0  0
  160.9690  204.4530  150.1050 C   0  0  1  0  0  3  0  0  0  0  0  0
  161.5850  204.8940  148.7870 C   0  0  0  0  0  2  0  0  0  0  0  0
  160.8220  206.0740  148.2110 C   0  0  0  0  0  2  0  0  0  0  0  0
  161.0450  206.1480  146.7430 C   0  0  0  0  0  0  0  0  0  0  0  0
  160.1070  206.5190  145.9870 O   0  0  0  0  0  0  0  0  0  0  0  0
  162.2780  205.7790  146.2120 O   0  0  0  0  0  0  0  0  0  0  0  0
  162.4980  205.8280  144.8920 O   0  0  0  0  0  1  0  0  0  0  0  0
  160.4450  203.0130  150.0260 C   0  0  0  0  0  2  0  0  0  0  0  0
  161.1080  200.4310  146.6530 C   0  0  0  0  0  0  0  0  0  0  0  0
  160.8350  201.8800  146.3450 C   0  0  0  0  0  2  0  0  0  0  0  0
  160.3980  202.6200  147.5850 C   0  0  0  0  0  3  0  0  0  0  0  0
  161.8290  201.1110  148.9250 C   0  0  0  0  0  2  0  0  0  0  0  0
  160.8770  202.2740  148.7920 C   0  0  0  0  0  0  0  0  0  0  0  0
  161.5750  200.0730  147.8600 C   0  0  0  0  0  3  0  0  0  0  0  0
  160.9130  199.4030  145.5910 C   0  0  0  0  0  2  0  0  0  0  0  0
  161.8000  198.3590  145.7740 F   0  0  0  0  0  0  0  0  0  0  0  0
  4 12  1  0  0  0  0
  5  2  1  0  0  0  0
  5 16  1  0  0  0  0
  6  8  2  0  0  0  0
  6  7  1  0  0  0  0
  7  5  2  0  0  0  0
  8 11  1  0  0  0  0
 10  9  1  6  0  0  0
 10  3  1  0  0  0  0
 11  3  1  0  0  0  0
 11  2  2  0  0  0  0
 12  1  1  6  0  0  0
 12  9  1  0  0  0  0
 12 10  1  0  0  0  0
 13  4  1  0  0  0  0
 13  8  1  0  0  0  0
 16 15  2  0  0  0  0
 16 14  1  0  0  0  0
 17 18  1  6  0  0  0
 17  1  1  0  0  0  0
 19 18  1  0  0  0  0
 20 19  1  0  0  0  0
 21 20  2  0  0  0  0
 22 20  1  0  0  0  0
 23 22  1  0  0  0  0
 24 17  1  0  0  0  0
 25 30  2  0  0  0  0
 26 25  1  0  0  0  0
 26 27  1  0  0  0  0
 27 29  2  0  0  0  0
 29 28  1  0  0  0  0
 29 24  1  0  0  0  0
 30 28  1  0  0  0  0
 31 32  1  0  0  0  0
 31 25  1  0  0  0  0
M  END
>  <MODEL>
8

>  <REMARK>
 VINA RESULT:      -7.3      2.311      3.438
  Name = 
  10 active torsions:
  status: ('A' for Active; 'I' for Inactive)
    1  A    between atoms: O_2  and  C_12
    2  A    between atoms: C_4  and  C_5
    3  A    between atoms: C_4  and  C_30
    4  A    between atoms: C_5  and  C_8
    5  A    between atoms: C_5  and  C_15
    6  A    between atoms: C_7  and  C_25
    7  A    between atoms: C_8  and  C_32
    8  A    between atoms: C_12  and  C_32
    9  A    between atoms: C_13  and  C_22
   10  A    between atoms: C_15  and  C_19
                            x       y       z     vdW  Elec       q    Type
                         _______ _______ _______ _____ _____    ______ ____

>  <TORSDO>
F 10

$$$$
=
 OpenBabel11042422583D

 32 35  0  0  1  0  0  0  0  0999 V2000
  162.7040  206.6210  151.6480 C   0  0  0  0  0  2  0  0  0  0  0  0
  159.2990  211.2290  153.2680 C   0  0  0  0  0  3  0  0  0  0  0  0
  160.0880  209.3140  152.0580 O   0  0  0  0  0  0  0  0  0  0  0  0
  161.0360  207.2350  153.6030 C   0  0  0  0  0  2  0  0  0  0  0  0
  159.1710  211.9860  154.4380 C   0  0  0  0  0  0  0  0  0  0  0  0
  160.3760  210.2710  155.6550 C   0  0  0  0  0  3  0  0  0  0  0  0
  159.7250  211.5050  155.6300 C   0  0  0  0  0  3  0  0  0  0  0  0
  160.4890  209.4990  154.4950 C   0  0  0  0  0  0  0  0  0  0  0  0
  162.3880  208.9060  152.4070 O   0  0  0  0  0  0  0  0  0  0  0  0
  161.2950  208.7500  151.5220 C   0  0  1  0  0  3  0  0  0  0  0  0
  159.9720  210.0020  153.2750 C   0  0  0  0  0  0  0  0  0  0  0  0
  161.8020  207.6280  152.3430 C   0  0  1  0  0  0  0  0  0  0  0  0
  161.1010  208.2440  154.6050 O   0  0  0  0  0  0  0  0  0  0  0  0
  158.2180  213.9110  153.1950 O   0  0  0  0  0  0  0  0  0  0  0  0
  158.0890  213.8260  155.4770 O   0  0  0  0  0  1  0  0  0  0  0  0
  158.4690  213.2790  154.4070 C   0  0  0  0  0  0  0  0  0  0  0  0
  161.9170  205.3930  151.1910 C   0  0  1  0  0  3  0  0  0  0  0  0
  161.3360  204.6440  152.3810 C   0  0  0  0  0  2  0  0  0  0  0  0
  160.3220  203.6130  151.9160 C   0  0  0  0  0  2  0  0  0  0  0  0
  161.0280  202.4170  151.3850 C   0  0  0  0  0  0  0  0  0  0  0  0
  162.1650  202.1130  151.8340 O   0  0  0  0  0  0  0  0  0  0  0  0
  160.4420  201.6620  150.3730 O   0  0  0  0  0  0  0  0  0  0  0  0
  161.1940  200.9280  149.5420 O   0  0  0  0  0  1  0  0  0  0  0  0
  160.8310  205.7470  150.1670 C   0  0  0  0  0  2  0  0  0  0  0  0
  161.3040  205.0380  145.9530 C   0  0  0  0  0  0  0  0  0  0  0  0
  161.7330  206.3910  146.4580 C   0  0  0  0  0  2  0  0  0  0  0  0
  161.3060  206.5900  147.8910 C   0  0  0  0  0  3  0  0  0  0  0  0
  161.5800  204.1580  148.2530 C   0  0  0  0  0  2  0  0  0  0  0  0
  161.2520  205.5480  148.7390 C   0  0  0  0  0  0  0  0  0  0  0  0
  161.2350  203.9940  146.7940 C   0  0  0  0  0  3  0  0  0  0  0  0
  161.0140  204.8520  144.5020 C   0  0  0  0  0  2  0  0  0  0  0  0
  160.0270  203.8980  144.3360 F   0  0  0  0  0  0  0  0  0  0  0  0
  2 11  2  0  0  0  0
  2  5  1  0  0  0  0
  3 11  1  0  0  0  0
  4 13  1  0  0  0  0
  5  7  2  0  0  0  0
  7  6  1  0  0  0  0
  8 13  1  0  0  0  0
  8  6  2  0  0  0  0
 10  3  1  1  0  0  0
 10 12  1  0  0  0  0
 10  9  1  0  0  0  0
 11  8  1  0  0  0  0
 12  1  1  6  0  0  0
 12  9  1  0  0  0  0
 12  4  1  0  0  0  0
 14 16  2  0  0  0  0
 16  5  1  0  0  0  0
 16 15  1  0  0  0  0
 17 24  1  6  0  0  0
 17  1  1  0  0  0  0
 17 18  1  0  0  0  0
 19 18  1  0  0  0  0
 20 21  2  0  0  0  0
 20 19  1  0  0  0  0
 22 20  1  0  0  0  0
 23 22  1  0  0  0  0
 25 26  1  0  0  0  0
 25 30  2  0  0  0  0
 26 27  1  0  0  0  0
 27 29  2  0  0  0  0
 28 29  1  0  0  0  0
 29 24  1  0  0  0  0
 30 28  1  0  0  0  0
 31 25  1  0  0  0  0
 32 31  1  0  0  0  0
M  END
>  <MODEL>
9

>  <REMARK>
 VINA RESULT:      -7.3      1.577      2.637
  Name = 
  10 active torsions:
  status: ('A' for Active; 'I' for Inactive)
    1  A    between atoms: O_2  and  C_12
    2  A    between atoms: C_4  and  C_5
    3  A    between atoms: C_4  and  C_30
    4  A    between atoms: C_5  and  C_8
    5  A    between atoms: C_5  and  C_15
    6  A    between atoms: C_7  and  C_25
    7  A    between atoms: C_8  and  C_32
    8  A    between atoms: C_12  and  C_32
    9  A    between atoms: C_13  and  C_22
   10  A    between atoms: C_15  and  C_19
                            x       y       z     vdW  Elec       q    Type
                         _______ _______ _______ _____ _____    ______ ____

>  <TORSDO>
F 10

$$$$
