=
 OpenBabel11052410393D

 47 52  0  0  1  0  0  0  0  0999 V2000
  160.5740  203.5270  152.1950 C   0  0  0  0  0  1  0  0  0  0  0  0
  161.4580  205.6150  149.3900 C   0  0  0  0  0  0  0  0  0  0  0  0
  162.0940  206.6000  147.3380 N   0  0  0  0  0  0  0  0  0  0  0  0
  160.5420  202.0670  149.3930 C   0  0  0  0  0  1  0  0  0  0  0  0
  160.8500  203.5010  149.6500 C   0  0  0  0  0  0  0  0  0  0  0  0
  160.8640  204.1640  150.8760 C   0  0  0  0  0  0  0  0  0  0  0  0
  161.8550  205.4140  146.6940 C   0  0  0  0  0  3  0  0  0  0  0  0
  161.4240  204.3210  147.3910 N   0  0  0  0  0  0  0  0  0  0  0  0
  161.2320  204.4470  148.7270 C   0  0  0  0  0  0  0  0  0  0  0  0
  161.9150  206.7280  148.6880 C   0  0  0  0  0  0  0  0  0  0  0  0
  161.2290  205.4640  150.7100 N   0  0  0  0  0  0  0  0  0  0  0  0
  160.4890  208.6830  152.5160 C   0  0  0  0  0  2  0  0  0  0  0  0
  160.7830  207.8590  156.0560 C   0  0  2  0  0  3  0  0  0  0  0  0
  161.3490  208.3630  153.7420 C   0  0  2  0  0  3  0  0  0  0  0  0
  161.4460  206.4760  151.7410 C   0  0  2  0  0  3  0  0  0  0  0  0
  160.8060  206.5490  155.3000 C   0  0  0  0  0  2  0  0  0  0  0  0
  159.6610  207.9220  156.8630 F   0  0  0  0  0  0  0  0  0  0  0  0
  161.4750  206.8420  153.9720 C   0  0  1  0  0  3  0  0  0  0  0  0
  160.8590  206.0780  152.9570 O   0  0  0  0  0  0  0  0  0  0  0  0
  160.9340  207.8570  151.3030 C   0  0  0  0  0  2  0  0  0  0  0  0
  160.7290  208.9470  155.0000 C   0  0  2  0  0  3  0  0  0  0  0  0
  161.4280  210.2330  155.4590 C   0  0  0  0  0  2  0  0  0  0  0  0
  160.3480  212.0010  156.9920 C   0  0  0  0  0  1  0  0  0  0  0  0
  160.4980  211.4040  155.6240 C   0  0  0  0  0  0  0  0  0  0  0  0
  159.8650  211.8690  154.5980 N   0  0  0  0  0  0  0  0  0  0  0  0
  158.9480  212.9840  154.6630 C   0  0  0  0  0  2  0  0  0  0  0  0
  157.7300  212.6990  153.8560 C   0  0  0  0  0  0  0  0  0  0  0  0
  157.5800  213.2760  152.5650 N   0  0  0  0  0  1  0  0  0  0  0  0
  156.8220  211.9640  154.3240 O   0  0  0  0  0  0  0  0  0  0  0  0
  162.1510  207.9430  149.3410 O   0  0  0  0  0  0  0  0  0  0  0  0
  161.9500  209.1770  148.7510 N   0  0  0  0  0  2  0  0  0  0  0  0
  162.1650  210.4320  149.4080 C   0  0  0  0  0  0  0  0  0  0  0  0
  162.3880  210.4650  150.6500 O   0  0  0  0  0  0  0  0  0  0  0  0
  160.4260  212.9460  150.1690 C   0  0  0  0  0  1  0  0  0  0  0  0
  161.4650  213.8930  148.0790 C   0  0  0  0  0  3  0  0  0  0  0  0
  162.9160  212.0150  147.2320 S   0  0  0  0  0  0  0  0  0  0  0  0
  162.3340  213.5790  147.0420 C   0  0  0  0  0  0  0  0  0  0  0  0
  161.3210  212.8330  148.9830 C   0  0  0  0  0  0  0  0  0  0  0  0
  162.0710  211.6970  148.6560 C   0  0  0  0  0  0  0  0  0  0  0  0
  162.6990  214.4490  145.9680 N   0  0  0  0  0  2  0  0  0  0  0  0
  160.3990  213.2920  143.3160 O   0  0  0  0  0  0  0  0  0  0  0  0
  162.2190  214.2550  144.6090 C   0  0  1  0  0  3  0  0  0  0  0  0
  163.1840  213.3610  143.8390 C   0  0  0  0  0  2  0  0  0  0  0  0
  160.8100  212.4530  141.2180 O   0  0  0  0  0  0  0  0  0  0  0  0
  161.2730  212.9340  142.2830 C   0  0  0  0  0  0  0  0  0  0  0  0
  162.7390  213.2340  142.3830 C   0  0  0  0  0  2  0  0  0  0  0  0
  160.8590  213.5700  144.6420 C   0  0  0  0  0  2  0  0  0  0  0  0
  2 11  1  0  0  0  0
  3 10  2  0  0  0  0
  4  5  1  0  0  0  0
  5  6  2  0  0  0  0
  6  1  1  0  0  0  0
  7  3  1  0  0  0  0
  7  8  2  0  0  0  0
  8  9  1  0  0  0  0
  9  2  2  0  0  0  0
  9  5  1  0  0  0  0
 10 30  1  0  0  0  0
 10  2  1  0  0  0  0
 11  6  1  0  0  0  0
 13 17  1  1  0  0  0
 14 12  1  6  0  0  0
 14 18  1  0  0  0  0
 14 21  1  0  0  0  0
 15 11  1  6  0  0  0
 15 19  1  0  0  0  0
 16 13  1  0  0  0  0
 18 16  1  1  0  0  0
 19 18  1  0  0  0  0
 20 15  1  0  0  0  0
 20 12  1  0  0  0  0
 21 22  1  1  0  0  0
 21 13  1  0  0  0  0
 22 24  1  0  0  0  0
 24 23  1  0  0  0  0
 25 26  1  0  0  0  0
 25 24  2  0  0  0  0
 27 29  2  0  0  0  0
 27 26  1  0  0  0  0
 28 27  1  0  0  0  0
 31 30  1  0  0  0  0
 31 32  1  0  0  0  0
 32 33  2  0  0  0  0
 35 38  1  0  0  0  0
 36 39  1  0  0  0  0
 37 36  1  0  0  0  0
 37 35  2  0  0  0  0
 38 34  1  0  0  0  0
 39 38  2  0  0  0  0
 39 32  1  0  0  0  0
 40 37  1  0  0  0  0
 41 47  1  0  0  0  0
 42 47  1  0  0  0  0
 42 40  1  1  0  0  0
 43 42  1  0  0  0  0
 44 45  2  0  0  0  0
 45 46  1  0  0  0  0
 45 41  1  0  0  0  0
 46 43  1  0  0  0  0
M  END
>  <MODEL>
1

>  <REMARK>
 VINA RESULT:      -9.0      0.000      0.000
  Name = 
  10 active torsions:
  status: ('A' for Active; 'I' for Inactive)
    1  A    between atoms: C_2  and  C_34
    2  A    between atoms: C_2  and  C_46
    3  A    between atoms: N_6  and  O_10
    4  A    between atoms: C_7  and  N_29
    5  A    between atoms: C_8  and  C_31
    6  A    between atoms: O_10  and  C_42
    7  A    between atoms: C_18  and  N_47
    8  A    between atoms: C_19  and  C_45
    9  A    between atoms: N_29  and  C_37
   10  A    between atoms: C_31  and  N_38
                            x       y       z     vdW  Elec       q    Type
                         _______ _______ _______ _____ _____    ______ ____

>  <TORSDO>
F 10

$$$$
=
 OpenBabel11052410393D

 47 52  0  0  1  0  0  0  0  0999 V2000
  161.0920  205.7410  154.2870 C   0  0  0  0  0  1  0  0  0  0  0  0
  161.0690  209.1710  153.1730 C   0  0  0  0  0  0  0  0  0  0  0  0
  160.8050  211.4900  152.8000 N   0  0  0  0  0  0  0  0  0  0  0  0
  160.1930  207.8390  156.4720 C   0  0  0  0  0  1  0  0  0  0  0  0
  160.6240  208.1310  155.0760 C   0  0  0  0  0  0  0  0  0  0  0  0
  161.0290  207.2210  154.1020 C   0  0  0  0  0  0  0  0  0  0  0  0
  160.3980  211.6530  154.0990 C   0  0  0  0  0  3  0  0  0  0  0  0
  160.3180  210.5790  154.9410 N   0  0  0  0  0  0  0  0  0  0  0  0
  160.6580  209.3590  154.4570 C   0  0  0  0  0  0  0  0  0  0  0  0
  161.1370  210.2600  152.3050 C   0  0  0  0  0  0  0  0  0  0  0  0
  161.3100  207.8660  152.9360 N   0  0  0  0  0  0  0  0  0  0  0  0
  161.4700  205.1050  150.3830 C   0  0  0  0  0  2  0  0  0  0  0  0
  160.7920  206.7380  147.1940 C   0  0  2  0  0  3  0  0  0  0  0  0
  161.9160  206.0030  149.2260 C   0  0  2  0  0  3  0  0  0  0  0  0
  161.6860  207.2790  151.6520 C   0  0  2  0  0  3  0  0  0  0  0  0
  160.4760  207.7470  148.2760 C   0  0  0  0  0  2  0  0  0  0  0  0
  159.6420  206.4150  146.4970 F   0  0  0  0  0  0  0  0  0  0  0  0
  161.4370  207.4580  149.4130 C   0  0  1  0  0  3  0  0  0  0  0  0
  160.7820  207.6690  150.6450 O   0  0  0  0  0  0  0  0  0  0  0  0
  161.7990  205.7490  151.7350 C   0  0  0  0  0  2  0  0  0  0  0  0
  161.3300  205.5140  147.9110 C   0  0  2  0  0  3  0  0  0  0  0  0
  162.3520  204.7490  147.0600 C   0  0  0  0  0  2  0  0  0  0  0  0
  161.5420  204.0240  144.7230 C   0  0  0  0  0  1  0  0  0  0  0  0
  161.7390  203.6990  146.1740 C   0  0  0  0  0  0  0  0  0  0  0  0
  161.4080  202.5540  146.6720 N   0  0  0  0  0  0  0  0  0  0  0  0
  160.8080  201.4900  145.9000 C   0  0  0  0  0  2  0  0  0  0  0  0
  161.1530  200.1670  146.4880 C   0  0  0  0  0  0  0  0  0  0  0  0
  161.5140  200.0700  147.8600 N   0  0  0  0  0  1  0  0  0  0  0  0
  161.1470  199.1360  145.7660 O   0  0  0  0  0  0  0  0  0  0  0  0
  161.5590  210.0980  150.9810 O   0  0  0  0  0  0  0  0  0  0  0  0
  161.3700  211.0530  149.9990 N   0  0  0  0  0  2  0  0  0  0  0  0
  161.9850  211.0150  148.7060 C   0  0  0  0  0  0  0  0  0  0  0  0
  162.8930  210.1740  148.4620 O   0  0  0  0  0  0  0  0  0  0  0  0
  163.4840  213.6990  148.0180 C   0  0  0  0  0  1  0  0  0  0  0  0
  161.6760  213.8850  146.2750 C   0  0  0  0  0  3  0  0  0  0  0  0
  160.2800  211.8190  146.6430 S   0  0  0  0  0  0  0  0  0  0  0  0
  160.5490  213.2380  145.7850 C   0  0  0  0  0  0  0  0  0  0  0  0
  162.2670  213.1830  147.3320 C   0  0  0  0  0  0  0  0  0  0  0  0
  161.6070  211.9940  147.6690 C   0  0  0  0  0  0  0  0  0  0  0  0
  159.7320  213.6910  144.7030 N   0  0  0  0  0  2  0  0  0  0  0  0
  160.6760  211.5400  141.8480 O   0  0  0  0  0  0  0  0  0  0  0  0
  159.5210  212.9000  143.5000 C   0  0  1  0  0  3  0  0  0  0  0  0
  159.0400  213.7970  142.3650 C   0  0  0  0  0  2  0  0  0  0  0  0
  159.9030  211.4700  139.6870 O   0  0  0  0  0  0  0  0  0  0  0  0
  159.8180  211.9800  140.8320 C   0  0  0  0  0  0  0  0  0  0  0  0
  158.7210  212.9590  141.1290 C   0  0  0  0  0  2  0  0  0  0  0  0
  160.8350  212.2580  143.0750 C   0  0  0  0  0  2  0  0  0  0  0  0
  2  9  2  0  0  0  0
  3  7  1  0  0  0  0
  5  4  1  0  0  0  0
  6  1  1  0  0  0  0
  6  5  2  0  0  0  0
  7  8  2  0  0  0  0
  9  8  1  0  0  0  0
  9  5  1  0  0  0  0
 10  3  2  0  0  0  0
 10  2  1  0  0  0  0
 11  2  1  0  0  0  0
 11  6  1  0  0  0  0
 12 20  1  0  0  0  0
 13 17  1  1  0  0  0
 13 21  1  0  0  0  0
 13 16  1  0  0  0  0
 14 18  1  0  0  0  0
 14 12  1  1  0  0  0
 15 20  1  1  0  0  0
 15 11  1  0  0  0  0
 18 16  1  6  0  0  0
 18 19  1  0  0  0  0
 19 15  1  0  0  0  0
 21 22  1  6  0  0  0
 21 14  1  0  0  0  0
 23 24  1  0  0  0  0
 24 25  2  0  0  0  0
 24 22  1  0  0  0  0
 26 27  1  0  0  0  0
 26 25  1  0  0  0  0
 27 28  1  0  0  0  0
 29 27  2  0  0  0  0
 30 10  1  0  0  0  0
 31 30  1  0  0  0  0
 32 31  1  0  0  0  0
 33 32  2  0  0  0  0
 35 38  1  0  0  0  0
 36 39  1  0  0  0  0
 37 35  2  0  0  0  0
 37 36  1  0  0  0  0
 38 39  2  0  0  0  0
 38 34  1  0  0  0  0
 39 32  1  0  0  0  0
 40 37  1  0  0  0  0
 41 47  1  0  0  0  0
 42 40  1  1  0  0  0
 43 42  1  0  0  0  0
 44 45  2  0  0  0  0
 45 46  1  0  0  0  0
 45 41  1  0  0  0  0
 46 43  1  0  0  0  0
 47 42  1  0  0  0  0
M  END
>  <MODEL>
2

>  <REMARK>
 VINA RESULT:      -7.6      2.793      7.396
  Name = 
  10 active torsions:
  status: ('A' for Active; 'I' for Inactive)
    1  A    between atoms: C_2  and  C_34
    2  A    between atoms: C_2  and  C_46
    3  A    between atoms: N_6  and  O_10
    4  A    between atoms: C_7  and  N_29
    5  A    between atoms: C_8  and  C_31
    6  A    between atoms: O_10  and  C_42
    7  A    between atoms: C_18  and  N_47
    8  A    between atoms: C_19  and  C_45
    9  A    between atoms: N_29  and  C_37
   10  A    between atoms: C_31  and  N_38
                            x       y       z     vdW  Elec       q    Type
                         _______ _______ _______ _____ _____    ______ ____

>  <TORSDO>
F 10

$$$$
=
 OpenBabel11052410393D

 47 52  0  0  1  0  0  0  0  0999 V2000
  161.1350  205.4960  153.4800 C   0  0  0  0  0  1  0  0  0  0  0  0
  161.3180  208.8340  152.1280 C   0  0  0  0  0  0  0  0  0  0  0  0
  161.2180  211.1370  151.6080 N   0  0  0  0  0  0  0  0  0  0  0  0
  160.5520  207.8020  155.5590 C   0  0  0  0  0  1  0  0  0  0  0  0
  160.9140  207.9640  154.1240 C   0  0  0  0  0  0  0  0  0  0  0  0
  161.1800  206.9600  153.1940 C   0  0  0  0  0  0  0  0  0  0  0  0
  160.9110  211.4190  152.9130 C   0  0  0  0  0  3  0  0  0  0  0  0
  160.7980  210.4140  153.8320 N   0  0  0  0  0  0  0  0  0  0  0  0
  161.0080  209.1410  153.4180 C   0  0  0  0  0  0  0  0  0  0  0  0
  161.4170  209.8530  151.1820 C   0  0  0  0  0  0  0  0  0  0  0  0
  161.4360  207.5000  151.9710 N   0  0  0  0  0  0  0  0  0  0  0  0
  160.8410  204.7960  149.4220 C   0  0  0  0  0  2  0  0  0  0  0  0
  160.9460  206.5050  146.2020 C   0  0  2  0  0  3  0  0  0  0  0  0
  161.6310  205.4760  148.3010 C   0  0  2  0  0  3  0  0  0  0  0  0
  161.6800  206.8000  150.7130 C   0  0  2  0  0  3  0  0  0  0  0  0
  160.9110  207.5800  147.2650 C   0  0  0  0  0  2  0  0  0  0  0  0
  159.8010  206.5650  145.4290 F   0  0  0  0  0  0  0  0  0  0  0  0
  161.6480  207.0110  148.4620 C   0  0  1  0  0  3  0  0  0  0  0  0
  161.0220  207.4470  149.6500 O   0  0  0  0  0  0  0  0  0  0  0  0
  161.2770  205.3190  150.7950 C   0  0  0  0  0  2  0  0  0  0  0  0
  161.0040  205.1850  146.9480 C   0  0  2  0  0  3  0  0  0  0  0  0
  161.7680  204.1110  146.1630 C   0  0  0  0  0  2  0  0  0  0  0  0
  160.6500  201.9050  145.4410 C   0  0  0  0  0  1  0  0  0  0  0  0
  161.3540  202.7050  146.4970 C   0  0  0  0  0  0  0  0  0  0  0  0
  161.6160  202.2190  147.6650 N   0  0  0  0  0  0  0  0  0  0  0  0
  161.2510  200.8830  148.0750 C   0  0  0  0  0  2  0  0  0  0  0  0
  160.5990  200.9140  149.4140 C   0  0  0  0  0  0  0  0  0  0  0  0
  159.1870  201.0540  149.5160 N   0  0  0  0  0  1  0  0  0  0  0  0
  161.2990  200.8380  150.4570 O   0  0  0  0  0  0  0  0  0  0  0  0
  161.7380  209.5680  149.8510 O   0  0  0  0  0  0  0  0  0  0  0  0
  161.3920  210.3880  148.7920 N   0  0  0  0  0  2  0  0  0  0  0  0
  162.0670  211.6080  148.4610 C   0  0  0  0  0  0  0  0  0  0  0  0
  162.9240  212.0920  149.2510 O   0  0  0  0  0  0  0  0  0  0  0  0
  159.2120  212.6260  147.6040 C   0  0  0  0  0  1  0  0  0  0  0  0
  160.4780  213.5050  145.6120 C   0  0  0  0  0  3  0  0  0  0  0  0
  162.8510  212.7750  146.0460 S   0  0  0  0  0  0  0  0  0  0  0  0
  161.7480  213.5630  145.0530 C   0  0  0  0  0  0  0  0  0  0  0  0
  160.4710  212.8180  146.8320 C   0  0  0  0  0  0  0  0  0  0  0  0
  161.7280  212.3400  147.2260 C   0  0  0  0  0  0  0  0  0  0  0  0
  162.0890  214.2030  143.8210 N   0  0  0  0  0  2  0  0  0  0  0  0
  163.2190  213.7030  140.3370 O   0  0  0  0  0  0  0  0  0  0  0  0
  162.6170  213.4700  142.6810 C   0  0  1  0  0  3  0  0  0  0  0  0
  161.6470  212.3640  142.2790 C   0  0  0  0  0  2  0  0  0  0  0  0
  163.0020  211.9090  138.9200 O   0  0  0  0  0  0  0  0  0  0  0  0
  162.8030  212.3940  140.0620 C   0  0  0  0  0  0  0  0  0  0  0  0
  162.2400  211.5270  141.1480 C   0  0  0  0  0  2  0  0  0  0  0  0
  162.7780  214.4140  141.4980 C   0  0  0  0  0  2  0  0  0  0  0  0
  2  9  2  0  0  0  0
  3  7  1  0  0  0  0
  5  4  1  0  0  0  0
  6  1  1  0  0  0  0
  6  5  2  0  0  0  0
  7  8  2  0  0  0  0
  9  8  1  0  0  0  0
  9  5  1  0  0  0  0
 10  3  2  0  0  0  0
 10  2  1  0  0  0  0
 11  2  1  0  0  0  0
 11  6  1  0  0  0  0
 12 20  1  0  0  0  0
 13 17  1  1  0  0  0
 13 21  1  0  0  0  0
 13 16  1  0  0  0  0
 14 18  1  0  0  0  0
 14 12  1  1  0  0  0
 15 20  1  1  0  0  0
 15 11  1  0  0  0  0
 18 16  1  6  0  0  0
 18 19  1  0  0  0  0
 19 15  1  0  0  0  0
 21 22  1  6  0  0  0
 21 14  1  0  0  0  0
 22 24  1  0  0  0  0
 23 24  1  0  0  0  0
 24 25  2  0  0  0  0
 25 26  1  0  0  0  0
 26 27  1  0  0  0  0
 27 28  1  0  0  0  0
 27 29  2  0  0  0  0
 30 10  1  0  0  0  0
 31 30  1  0  0  0  0
 32 31  1  0  0  0  0
 32 33  2  0  0  0  0
 35 38  1  0  0  0  0
 36 39  1  0  0  0  0
 37 35  2  0  0  0  0
 37 36  1  0  0  0  0
 38 39  2  0  0  0  0
 38 34  1  0  0  0  0
 39 32  1  0  0  0  0
 40 37  1  0  0  0  0
 41 47  1  0  0  0  0
 42 40  1  1  0  0  0
 43 42  1  0  0  0  0
 44 45  2  0  0  0  0
 45 41  1  0  0  0  0
 45 46  1  0  0  0  0
 46 43  1  0  0  0  0
 47 42  1  0  0  0  0
M  END
>  <MODEL>
3

>  <REMARK>
 VINA RESULT:      -7.4      2.836      7.078
  Name = 
  10 active torsions:
  status: ('A' for Active; 'I' for Inactive)
    1  A    between atoms: C_2  and  C_34
    2  A    between atoms: C_2  and  C_46
    3  A    between atoms: N_6  and  O_10
    4  A    between atoms: C_7  and  N_29
    5  A    between atoms: C_8  and  C_31
    6  A    between atoms: O_10  and  C_42
    7  A    between atoms: C_18  and  N_47
    8  A    between atoms: C_19  and  C_45
    9  A    between atoms: N_29  and  C_37
   10  A    between atoms: C_31  and  N_38
                            x       y       z     vdW  Elec       q    Type
                         _______ _______ _______ _____ _____    ______ ____

>  <TORSDO>
F 10

$$$$
=
 OpenBabel11052410393D

 47 52  0  0  1  0  0  0  0  0999 V2000
  160.7320  207.3690  154.2120 C   0  0  0  0  0  1  0  0  0  0  0  0
  160.4130  210.7240  152.9270 C   0  0  0  0  0  0  0  0  0  0  0  0
  159.9880  213.0020  152.4640 N   0  0  0  0  0  0  0  0  0  0  0  0
  159.9550  209.5450  156.3660 C   0  0  0  0  0  1  0  0  0  0  0  0
  160.2220  209.7760  154.9200 C   0  0  0  0  0  0  0  0  0  0  0  0
  160.5720  208.8310  153.9560 C   0  0  0  0  0  0  0  0  0  0  0  0
  159.7110  213.2200  153.7880 C   0  0  0  0  0  3  0  0  0  0  0  0
  159.7750  212.1940  154.6890 N   0  0  0  0  0  0  0  0  0  0  0  0
  160.1280  210.9660  154.2370 C   0  0  0  0  0  0  0  0  0  0  0  0
  160.3320  211.7620  152.0010 C   0  0  0  0  0  0  0  0  0  0  0  0
  160.6960  209.4190  152.7350 N   0  0  0  0  0  0  0  0  0  0  0  0
  162.9090  207.8490  150.1270 C   0  0  0  0  0  2  0  0  0  0  0  0
  161.0400  204.9540  148.9340 C   0  0  2  0  0  3  0  0  0  0  0  0
  161.7630  207.2490  149.3070 C   0  0  2  0  0  3  0  0  0  0  0  0
  160.9670  208.7780  151.4520 C   0  0  2  0  0  3  0  0  0  0  0  0
  160.3200  205.4610  150.1630 C   0  0  0  0  0  2  0  0  0  0  0  0
  161.5370  203.6840  149.1650 F   0  0  0  0  0  0  0  0  0  0  0  0
  160.5230  206.9630  150.1790 C   0  0  1  0  0  3  0  0  0  0  0  0
  160.6730  207.4030  151.5120 O   0  0  0  0  0  0  0  0  0  0  0  0
  162.4130  209.0160  150.9890 C   0  0  0  0  0  2  0  0  0  0  0  0
  162.1810  205.9240  148.6910 C   0  0  2  0  0  3  0  0  0  0  0  0
  162.5240  206.0490  147.2010 C   0  0  0  0  0  2  0  0  0  0  0  0
  160.4800  206.1960  145.6380 C   0  0  0  0  0  1  0  0  0  0  0  0
  161.5420  205.3620  146.2920 C   0  0  0  0  0  0  0  0  0  0  0  0
  161.6380  204.0910  146.0880 N   0  0  0  0  0  0  0  0  0  0  0  0
  160.7370  203.3470  145.2380 C   0  0  0  0  0  2  0  0  0  0  0  0
  160.5560  201.9650  145.7620 C   0  0  0  0  0  0  0  0  0  0  0  0
  160.2410  200.9010  144.8710 N   0  0  0  0  0  1  0  0  0  0  0  0
  160.6590  201.7400  146.9960 O   0  0  0  0  0  0  0  0  0  0  0  0
  160.6230  211.5440  150.6500 O   0  0  0  0  0  0  0  0  0  0  0  0
  159.9980  212.2180  149.6180 N   0  0  0  0  0  2  0  0  0  0  0  0
  160.5340  212.3500  148.2960 C   0  0  0  0  0  0  0  0  0  0  0  0
  161.7210  211.9930  148.0570 O   0  0  0  0  0  0  0  0  0  0  0  0
  157.5420  213.3140  148.4990 C   0  0  0  0  0  1  0  0  0  0  0  0
  157.9280  213.9660  146.0960 C   0  0  0  0  0  3  0  0  0  0  0  0
  160.3050  213.2510  145.6620 S   0  0  0  0  0  0  0  0  0  0  0  0
  158.8870  213.9480  145.0920 C   0  0  0  0  0  0  0  0  0  0  0  0
  158.4060  213.4080  147.2890 C   0  0  0  0  0  0  0  0  0  0  0  0
  159.7300  212.9550  147.2180 C   0  0  0  0  0  0  0  0  0  0  0  0
  158.7140  214.4530  143.7660 N   0  0  0  0  0  2  0  0  0  0  0  0
  159.6000  212.1860  140.9830 O   0  0  0  0  0  0  0  0  0  0  0  0
  158.4750  213.5830  142.6250 C   0  0  1  0  0  3  0  0  0  0  0  0
  157.8810  214.3860  141.4730 C   0  0  0  0  0  2  0  0  0  0  0  0
  158.7060  211.9510  138.8810 O   0  0  0  0  0  0  0  0  0  0  0  0
  158.6620  212.5230  139.9990 C   0  0  0  0  0  0  0  0  0  0  0  0
  157.5340  213.4620  140.3080 C   0  0  0  0  0  2  0  0  0  0  0  0
  159.7940  212.9830  142.1560 C   0  0  0  0  0  2  0  0  0  0  0  0
  2  9  2  0  0  0  0
  3  7  1  0  0  0  0
  5  4  1  0  0  0  0
  6  1  1  0  0  0  0
  6  5  2  0  0  0  0
  7  8  2  0  0  0  0
  9  8  1  0  0  0  0
  9  5  1  0  0  0  0
 10  3  2  0  0  0  0
 10  2  1  0  0  0  0
 11  2  1  0  0  0  0
 11  6  1  0  0  0  0
 12 20  1  0  0  0  0
 13 17  1  1  0  0  0
 13 16  1  0  0  0  0
 14 12  1  1  0  0  0
 14 18  1  0  0  0  0
 15 20  1  1  0  0  0
 15 19  1  0  0  0  0
 15 11  1  0  0  0  0
 18 16  1  1  0  0  0
 18 19  1  0  0  0  0
 21 22  1  6  0  0  0
 21 13  1  0  0  0  0
 21 14  1  0  0  0  0
 23 24  1  0  0  0  0
 24 22  1  0  0  0  0
 25 24  2  0  0  0  0
 26 27  1  0  0  0  0
 26 25  1  0  0  0  0
 27 29  2  0  0  0  0
 28 27  1  0  0  0  0
 30 10  1  0  0  0  0
 31 30  1  0  0  0  0
 32 31  1  0  0  0  0
 33 32  2  0  0  0  0
 35 38  1  0  0  0  0
 36 39  1  0  0  0  0
 37 36  1  0  0  0  0
 37 35  2  0  0  0  0
 38 34  1  0  0  0  0
 39 38  2  0  0  0  0
 39 32  1  0  0  0  0
 40 37  1  0  0  0  0
 41 47  1  0  0  0  0
 42 40  1  1  0  0  0
 43 42  1  0  0  0  0
 44 45  2  0  0  0  0
 45 46  1  0  0  0  0
 45 41  1  0  0  0  0
 46 43  1  0  0  0  0
 47 42  1  0  0  0  0
M  END
>  <MODEL>
4

>  <REMARK>
 VINA RESULT:      -7.3      2.901      7.327
  Name = 
  10 active torsions:
  status: ('A' for Active; 'I' for Inactive)
    1  A    between atoms: C_2  and  C_34
    2  A    between atoms: C_2  and  C_46
    3  A    between atoms: N_6  and  O_10
    4  A    between atoms: C_7  and  N_29
    5  A    between atoms: C_8  and  C_31
    6  A    between atoms: O_10  and  C_42
    7  A    between atoms: C_18  and  N_47
    8  A    between atoms: C_19  and  C_45
    9  A    between atoms: N_29  and  C_37
   10  A    between atoms: C_31  and  N_38
                            x       y       z     vdW  Elec       q    Type
                         _______ _______ _______ _____ _____    ______ ____

>  <TORSDO>
F 10

$$$$
=
 OpenBabel11052410393D

 47 52  0  0  1  0  0  0  0  0999 V2000
  160.6240  202.0770  150.4450 C   0  0  0  0  0  1  0  0  0  0  0  0
  161.4830  205.0100  148.5300 C   0  0  0  0  0  0  0  0  0  0  0  0
  162.1920  206.6420  146.9740 N   0  0  0  0  0  0  0  0  0  0  0  0
  161.1750  201.5440  147.3790 C   0  0  0  0  0  1  0  0  0  0  0  0
  161.2070  202.8590  148.0780 C   0  0  0  0  0  0  0  0  0  0  0  0
  160.9610  203.1140  149.4260 C   0  0  0  0  0  0  0  0  0  0  0  0
  162.2330  205.6880  145.9910 C   0  0  0  0  0  3  0  0  0  0  0  0
  161.9080  204.3900  146.2700 N   0  0  0  0  0  0  0  0  0  0  0  0
  161.5360  204.0800  147.5360 C   0  0  0  0  0  0  0  0  0  0  0  0
  161.8310  206.3310  148.2560 C   0  0  0  0  0  0  0  0  0  0  0  0
  161.1240  204.4380  149.6970 N   0  0  0  0  0  0  0  0  0  0  0  0
  162.5480  205.8580  152.8780 C   0  0  0  0  0  2  0  0  0  0  0  0
  160.7940  209.0190  153.3610 C   0  0  2  0  0  3  0  0  0  0  0  0
  161.2880  206.6360  153.2680 C   0  0  2  0  0  3  0  0  0  0  0  0
  161.0430  205.1070  150.9930 C   0  0  2  0  0  3  0  0  0  0  0  0
  160.4550  208.5410  151.9660 C   0  0  0  0  0  2  0  0  0  0  0  0
  161.5030  210.2050  153.2960 F   0  0  0  0  0  0  0  0  0  0  0  0
  160.4510  207.0260  152.0310 C   0  0  1  0  0  3  0  0  0  0  0  0
  160.9700  206.5030  150.8270 O   0  0  0  0  0  0  0  0  0  0  0  0
  162.2120  204.7180  151.9110 C   0  0  0  0  0  2  0  0  0  0  0  0
  161.6530  207.9300  153.9760 C   0  0  2  0  0  3  0  0  0  0  0  0
  161.4690  207.8410  155.4970 C   0  0  0  0  0  2  0  0  0  0  0  0
  162.3530  210.0370  156.5150 C   0  0  0  0  0  1  0  0  0  0  0  0
  161.1880  209.1640  156.1530 C   0  0  0  0  0  0  0  0  0  0  0  0
  159.9670  209.5210  156.3790 N   0  0  0  0  0  0  0  0  0  0  0  0
  159.6030  210.7690  157.0100 C   0  0  0  0  0  2  0  0  0  0  0  0
  158.8840  211.6460  156.0440 C   0  0  0  0  0  0  0  0  0  0  0  0
  159.6190  212.4520  155.1310 N   0  0  0  0  0  1  0  0  0  0  0  0
  157.6270  211.6910  156.0500 O   0  0  0  0  0  0  0  0  0  0  0  0
  161.7810  207.3090  149.2560 O   0  0  0  0  0  0  0  0  0  0  0  0
  161.5420  208.6460  149.0010 N   0  0  0  0  0  2  0  0  0  0  0  0
  162.1800  209.7270  149.6920 C   0  0  0  0  0  0  0  0  0  0  0  0
  162.8800  209.4980  150.7170 O   0  0  0  0  0  0  0  0  0  0  0  0
  160.3970  211.9060  151.1060 C   0  0  0  0  0  1  0  0  0  0  0  0
  161.2400  213.3520  149.2230 C   0  0  0  0  0  3  0  0  0  0  0  0
  162.7030  211.7950  147.8880 S   0  0  0  0  0  0  0  0  0  0  0  0
  162.0430  213.3260  148.0910 C   0  0  0  0  0  0  0  0  0  0  0  0
  161.2060  212.1120  149.8720 C   0  0  0  0  0  0  0  0  0  0  0  0
  161.9780  211.1210  149.2520 C   0  0  0  0  0  0  0  0  0  0  0  0
  162.2930  214.4330  147.2210 N   0  0  0  0  0  2  0  0  0  0  0  0
  160.1950  213.7690  144.2510 O   0  0  0  0  0  0  0  0  0  0  0  0
  161.9500  214.4060  145.8080 C   0  0  1  0  0  3  0  0  0  0  0  0
  162.8950  213.4710  145.0610 C   0  0  0  0  0  2  0  0  0  0  0  0
  160.7470  213.0600  142.1380 O   0  0  0  0  0  0  0  0  0  0  0  0
  161.1370  213.3960  143.2840 C   0  0  0  0  0  0  0  0  0  0  0  0
  162.6060  213.5150  143.5620 C   0  0  0  0  0  2  0  0  0  0  0  0
  160.5300  213.8840  145.6370 C   0  0  0  0  0  2  0  0  0  0  0  0
  2 11  1  0  0  0  0
  3 10  2  0  0  0  0
  4  5  1  0  0  0  0
  5  6  2  0  0  0  0
  6 11  1  0  0  0  0
  6  1  1  0  0  0  0
  7  8  2  0  0  0  0
  7  3  1  0  0  0  0
  8  9  1  0  0  0  0
  9  5  1  0  0  0  0
  9  2  2  0  0  0  0
 10  2  1  0  0  0  0
 10 30  1  0  0  0  0
 13 17  1  6  0  0  0
 13 21  1  0  0  0  0
 14 12  1  6  0  0  0
 14 21  1  0  0  0  0
 15 11  1  6  0  0  0
 15 20  1  0  0  0  0
 16 13  1  0  0  0  0
 18 16  1  6  0  0  0
 18 14  1  0  0  0  0
 19 15  1  0  0  0  0
 19 18  1  0  0  0  0
 20 12  1  0  0  0  0
 21 22  1  1  0  0  0
 22 24  1  0  0  0  0
 24 25  2  0  0  0  0
 24 23  1  0  0  0  0
 25 26  1  0  0  0  0
 27 29  2  0  0  0  0
 27 26  1  0  0  0  0
 28 27  1  0  0  0  0
 31 30  1  0  0  0  0
 31 32  1  0  0  0  0
 32 33  2  0  0  0  0
 35 38  1  0  0  0  0
 36 37  1  0  0  0  0
 36 39  1  0  0  0  0
 37 35  2  0  0  0  0
 38 34  1  0  0  0  0
 39 32  1  0  0  0  0
 39 38  2  0  0  0  0
 40 37  1  0  0  0  0
 41 47  1  0  0  0  0
 42 40  1  1  0  0  0
 43 42  1  0  0  0  0
 44 45  2  0  0  0  0
 45 46  1  0  0  0  0
 45 41  1  0  0  0  0
 46 43  1  0  0  0  0
 47 42  1  0  0  0  0
M  END
>  <MODEL>
5

>  <REMARK>
 VINA RESULT:      -7.1      1.442      2.033
  Name = 
  10 active torsions:
  status: ('A' for Active; 'I' for Inactive)
    1  A    between atoms: C_2  and  C_34
    2  A    between atoms: C_2  and  C_46
    3  A    between atoms: N_6  and  O_10
    4  A    between atoms: C_7  and  N_29
    5  A    between atoms: C_8  and  C_31
    6  A    between atoms: O_10  and  C_42
    7  A    between atoms: C_18  and  N_47
    8  A    between atoms: C_19  and  C_45
    9  A    between atoms: N_29  and  C_37
   10  A    between atoms: C_31  and  N_38
                            x       y       z     vdW  Elec       q    Type
                         _______ _______ _______ _____ _____    ______ ____

>  <TORSDO>
F 10

$$$$
=
 OpenBabel11052410393D

 47 52  0  0  1  0  0  0  0  0999 V2000
  158.7210  213.7470  154.7120 C   0  0  0  0  0  1  0  0  0  0  0  0
  159.9260  210.4140  154.0420 C   0  0  0  0  0  0  0  0  0  0  0  0
  160.7800  208.2100  154.0410 N   0  0  0  0  0  0  0  0  0  0  0  0
  158.8950  211.8660  157.2450 C   0  0  0  0  0  1  0  0  0  0  0  0
  159.2260  211.5040  155.8390 C   0  0  0  0  0  0  0  0  0  0  0  0
  159.1500  212.3170  154.7090 C   0  0  0  0  0  0  0  0  0  0  0  0
  160.5600  208.1240  155.3910 C   0  0  0  0  0  3  0  0  0  0  0  0
  160.0310  209.1800  156.0770 N   0  0  0  0  0  0  0  0  0  0  0  0
  159.7220  210.3040  155.3840 C   0  0  0  0  0  0  0  0  0  0  0  0
  160.4820  209.3460  153.3400 C   0  0  0  0  0  0  0  0  0  0  0  0
  159.5730  211.6400  153.6060 N   0  0  0  0  0  0  0  0  0  0  0  0
  160.4860  214.2310  151.0330 C   0  0  0  0  0  2  0  0  0  0  0  0
  162.2490  212.3840  148.4300 C   0  0  2  0  0  3  0  0  0  0  0  0
  160.4740  213.2660  149.8440 C   0  0  2  0  0  3  0  0  0  0  0  0
  159.7280  212.1470  152.2450 C   0  0  2  0  0  3  0  0  0  0  0  0
  162.0980  211.4430  149.6050 C   0  0  0  0  0  2  0  0  0  0  0  0
  163.5880  212.6450  148.2010 F   0  0  0  0  0  0  0  0  0  0  0  0
  160.7920  211.8190  150.2780 C   0  0  1  0  0  3  0  0  0  0  0  0
  160.9280  211.6800  151.6760 O   0  0  0  0  0  0  0  0  0  0  0  0
  159.6500  213.6810  152.1950 C   0  0  0  0  0  2  0  0  0  0  0  0
  161.5270  213.6590  148.8220 C   0  0  2  0  0  3  0  0  0  0  0  0
  160.9290  214.3810  147.6080 C   0  0  0  0  0  2  0  0  0  0  0  0
  158.6550  213.2370  147.2070 C   0  0  0  0  0  1  0  0  0  0  0  0
  160.0580  213.5060  146.7500 C   0  0  0  0  0  0  0  0  0  0  0  0
  160.5260  213.0180  145.6490 N   0  0  0  0  0  0  0  0  0  0  0  0
  159.7660  212.1630  144.7660 C   0  0  0  0  0  2  0  0  0  0  0  0
  159.5740  212.8240  143.4460 C   0  0  0  0  0  0  0  0  0  0  0  0
  160.4410  212.5130  142.3610 N   0  0  0  0  0  1  0  0  0  0  0  0
  158.6590  213.6750  143.2940 O   0  0  0  0  0  0  0  0  0  0  0  0
  160.6990  209.4290  151.9600 O   0  0  0  0  0  0  0  0  0  0  0  0
  160.5560  208.3540  151.1020 N   0  0  0  0  0  2  0  0  0  0  0  0
  161.6490  207.6490  150.5010 C   0  0  0  0  0  0  0  0  0  0  0  0
  162.8230  208.1040  150.5950 O   0  0  0  0  0  0  0  0  0  0  0  0
  161.2430  204.7420  151.6460 C   0  0  0  0  0  1  0  0  0  0  0  0
  160.9740  204.1690  149.2080 C   0  0  0  0  0  3  0  0  0  0  0  0
  161.2960  206.3780  148.0390 S   0  0  0  0  0  0  0  0  0  0  0  0
  160.9930  204.7290  147.9370 C   0  0  0  0  0  0  0  0  0  0  0  0
  161.2080  205.1230  150.2060 C   0  0  0  0  0  0  0  0  0  0  0  0
  161.4100  206.4210  149.7200 C   0  0  0  0  0  0  0  0  0  0  0  0
  160.7760  204.0240  146.7120 N   0  0  0  0  0  2  0  0  0  0  0  0
  160.8150  200.6480  145.2070 O   0  0  0  0  0  0  0  0  0  0  0  0
  161.2350  202.6590  146.5070 C   0  0  1  0  0  3  0  0  0  0  0  0
  161.0100  201.8380  147.7720 C   0  0  0  0  0  2  0  0  0  0  0  0
  161.2330  198.5860  146.1280 O   0  0  0  0  0  0  0  0  0  0  0  0
  161.1650  199.8310  146.2890 C   0  0  0  0  0  0  0  0  0  0  0  0
  161.5810  200.4320  147.5980 C   0  0  0  0  0  2  0  0  0  0  0  0
  160.4400  202.0190  145.3770 C   0  0  0  0  0  2  0  0  0  0  0  0
  2  9  2  0  0  0  0
  3  7  1  0  0  0  0
  5  4  1  0  0  0  0
  6  1  1  0  0  0  0
  6  5  2  0  0  0  0
  7  8  2  0  0  0  0
  9  5  1  0  0  0  0
  9  8  1  0  0  0  0
 10  3  2  0  0  0  0
 10  2  1  0  0  0  0
 11  2  1  0  0  0  0
 11  6  1  0  0  0  0
 12 20  1  0  0  0  0
 13 17  1  1  0  0  0
 13 21  1  0  0  0  0
 13 16  1  0  0  0  0
 14 18  1  0  0  0  0
 14 12  1  1  0  0  0
 15 20  1  1  0  0  0
 15 11  1  0  0  0  0
 18 16  1  6  0  0  0
 18 19  1  0  0  0  0
 19 15  1  0  0  0  0
 21 22  1  6  0  0  0
 21 14  1  0  0  0  0
 24 23  1  0  0  0  0
 24 22  1  0  0  0  0
 25 24  2  0  0  0  0
 26 25  1  0  0  0  0
 27 26  1  0  0  0  0
 28 27  1  0  0  0  0
 29 27  2  0  0  0  0
 30 10  1  0  0  0  0
 31 30  1  0  0  0  0
 32 33  2  0  0  0  0
 32 31  1  0  0  0  0
 35 38  1  0  0  0  0
 36 39  1  0  0  0  0
 37 36  1  0  0  0  0
 37 35  2  0  0  0  0
 38 34  1  0  0  0  0
 39 38  2  0  0  0  0
 39 32  1  0  0  0  0
 40 37  1  0  0  0  0
 41 47  1  0  0  0  0
 41 45  1  0  0  0  0
 42 40  1  1  0  0  0
 42 43  1  0  0  0  0
 44 45  2  0  0  0  0
 45 46  1  0  0  0  0
 46 43  1  0  0  0  0
 47 42  1  0  0  0  0
M  END
>  <MODEL>
6

>  <REMARK>
 VINA RESULT:      -6.9      3.262      9.154
  Name = 
  10 active torsions:
  status: ('A' for Active; 'I' for Inactive)
    1  A    between atoms: C_2  and  C_34
    2  A    between atoms: C_2  and  C_46
    3  A    between atoms: N_6  and  O_10
    4  A    between atoms: C_7  and  N_29
    5  A    between atoms: C_8  and  C_31
    6  A    between atoms: O_10  and  C_42
    7  A    between atoms: C_18  and  N_47
    8  A    between atoms: C_19  and  C_45
    9  A    between atoms: N_29  and  C_37
   10  A    between atoms: C_31  and  N_38
                            x       y       z     vdW  Elec       q    Type
                         _______ _______ _______ _____ _____    ______ ____

>  <TORSDO>
F 10

$$$$
=
 OpenBabel11052410393D

 47 52  0  0  1  0  0  0  0  0999 V2000
  156.1490  214.3290  148.7910 C   0  0  0  0  0  1  0  0  0  0  0  0
  159.1200  213.1150  147.1440 C   0  0  0  0  0  0  0  0  0  0  0  0
  160.8090  212.3020  145.7050 N   0  0  0  0  0  0  0  0  0  0  0  0
  156.0600  214.4530  145.6350 C   0  0  0  0  0  1  0  0  0  0  0  0
  157.1930  213.9820  146.4790 C   0  0  0  0  0  0  0  0  0  0  0  0
  157.2530  213.9260  147.8700 C   0  0  0  0  0  0  0  0  0  0  0  0
  160.0570  212.6640  144.6180 C   0  0  0  0  0  3  0  0  0  0  0  0
  158.8320  213.2450  144.7830 N   0  0  0  0  0  0  0  0  0  0  0  0
  158.3900  213.4610  146.0470 C   0  0  0  0  0  0  0  0  0  0  0  0
  160.3620  212.5060  146.9810 C   0  0  0  0  0  0  0  0  0  0  0  0
  158.4420  213.4000  148.2750 N   0  0  0  0  0  0  0  0  0  0  0  0
  159.7250  214.2710  151.7040 C   0  0  0  0  0  2  0  0  0  0  0  0
  157.7460  212.2320  153.9890 C   0  0  2  0  0  3  0  0  0  0  0  0
  159.3940  212.9140  152.3320 C   0  0  2  0  0  3  0  0  0  0  0  0
  158.8730  213.0940  149.6360 C   0  0  2  0  0  3  0  0  0  0  0  0
  157.0930  212.1210  152.6300 C   0  0  0  0  0  2  0  0  0  0  0  0
  156.8870  212.8500  154.8800 F   0  0  0  0  0  0  0  0  0  0  0  0
  158.2150  212.2240  151.6150 C   0  0  1  0  0  3  0  0  0  0  0  0
  157.7620  212.9380  150.4850 O   0  0  0  0  0  0  0  0  0  0  0  0
  159.8420  214.1560  150.1800 C   0  0  0  0  0  2  0  0  0  0  0  0
  158.9870  213.0800  153.7870 C   0  0  2  0  0  3  0  0  0  0  0  0
  160.1110  212.7010  154.7600 C   0  0  0  0  0  2  0  0  0  0  0  0
  159.2280  211.9250  157.0530 C   0  0  0  0  0  1  0  0  0  0  0  0
  159.7530  211.5760  155.6920 C   0  0  0  0  0  0  0  0  0  0  0  0
  159.8940  210.3520  155.3030 N   0  0  0  0  0  0  0  0  0  0  0  0
  159.5830  209.2100  156.1320 C   0  0  0  0  0  2  0  0  0  0  0  0
  160.6200  208.1540  155.9660 C   0  0  0  0  0  0  0  0  0  0  0  0
  161.7480  208.1220  156.8320 N   0  0  0  0  0  1  0  0  0  0  0  0
  160.5100  207.3020  155.0460 O   0  0  0  0  0  0  0  0  0  0  0  0
  161.1350  212.1440  148.0900 O   0  0  0  0  0  0  0  0  0  0  0  0
  161.3170  210.8350  148.4970 N   0  0  0  0  0  2  0  0  0  0  0  0
  161.6940  210.4460  149.8230 C   0  0  0  0  0  0  0  0  0  0  0  0
  162.0580  211.3180  150.6590 O   0  0  0  0  0  0  0  0  0  0  0  0
  161.9160  209.2920  152.7460 C   0  0  0  0  0  1  0  0  0  0  0  0
  161.7650  207.0850  151.5390 C   0  0  0  0  0  3  0  0  0  0  0  0
  161.6090  207.7460  149.1120 S   0  0  0  0  0  0  0  0  0  0  0  0
  161.6610  206.5300  150.2700 C   0  0  0  0  0  0  0  0  0  0  0  0
  161.7960  208.4850  151.4990 C   0  0  0  0  0  0  0  0  0  0  0  0
  161.7170  209.0220  150.2080 C   0  0  0  0  0  0  0  0  0  0  0  0
  161.5940  205.1330  149.9750 N   0  0  0  0  0  2  0  0  0  0  0  0
  160.4990  202.5900  147.5250 O   0  0  0  0  0  0  0  0  0  0  0  0
  161.1270  204.6280  148.6940 C   0  0  1  0  0  3  0  0  0  0  0  0
  162.1860  204.8660  147.6230 C   0  0  0  0  0  2  0  0  0  0  0  0
  160.8630  202.4130  145.2650 O   0  0  0  0  0  0  0  0  0  0  0  0
  161.0240  203.0750  146.3210 C   0  0  0  0  0  0  0  0  0  0  0  0
  161.6630  204.4300  146.2560 C   0  0  0  0  0  2  0  0  0  0  0  0
  160.8810  203.1290  148.7950 C   0  0  0  0  0  2  0  0  0  0  0  0
  2 11  1  0  0  0  0
  3 10  2  0  0  0  0
  4  5  1  0  0  0  0
  5  6  2  0  0  0  0
  6 11  1  0  0  0  0
  6  1  1  0  0  0  0
  7  8  2  0  0  0  0
  7  3  1  0  0  0  0
  8  9  1  0  0  0  0
  9  5  1  0  0  0  0
  9  2  2  0  0  0  0
 10  2  1  0  0  0  0
 10 30  1  0  0  0  0
 13 17  1  1  0  0  0
 14 12  1  6  0  0  0
 14 21  1  0  0  0  0
 15 11  1  6  0  0  0
 15 20  1  0  0  0  0
 15 19  1  0  0  0  0
 16 13  1  0  0  0  0
 18 14  1  0  0  0  0
 18 16  1  1  0  0  0
 19 18  1  0  0  0  0
 20 12  1  0  0  0  0
 21 13  1  0  0  0  0
 21 22  1  1  0  0  0
 22 24  1  0  0  0  0
 24 23  1  0  0  0  0
 25 24  2  0  0  0  0
 25 26  1  0  0  0  0
 27 26  1  0  0  0  0
 27 28  1  0  0  0  0
 29 27  2  0  0  0  0
 30 31  1  0  0  0  0
 31 32  1  0  0  0  0
 32 39  1  0  0  0  0
 32 33  2  0  0  0  0
 36 39  1  0  0  0  0
 36 37  1  0  0  0  0
 37 35  2  0  0  0  0
 38 35  1  0  0  0  0
 38 34  1  0  0  0  0
 39 38  2  0  0  0  0
 40 37  1  0  0  0  0
 41 47  1  0  0  0  0
 42 47  1  0  0  0  0
 42 40  1  1  0  0  0
 43 42  1  0  0  0  0
 44 45  2  0  0  0  0
 45 41  1  0  0  0  0
 46 45  1  0  0  0  0
 46 43  1  0  0  0  0
M  END
>  <MODEL>
7

>  <REMARK>
 VINA RESULT:      -6.9      2.919      7.624
  Name = 
  10 active torsions:
  status: ('A' for Active; 'I' for Inactive)
    1  A    between atoms: C_2  and  C_34
    2  A    between atoms: C_2  and  C_46
    3  A    between atoms: N_6  and  O_10
    4  A    between atoms: C_7  and  N_29
    5  A    between atoms: C_8  and  C_31
    6  A    between atoms: O_10  and  C_42
    7  A    between atoms: C_18  and  N_47
    8  A    between atoms: C_19  and  C_45
    9  A    between atoms: N_29  and  C_37
   10  A    between atoms: C_31  and  N_38
                            x       y       z     vdW  Elec       q    Type
                         _______ _______ _______ _____ _____    ______ ____

>  <TORSDO>
F 10

$$$$
=
 OpenBabel11052410393D

 47 52  0  0  1  0  0  0  0  0999 V2000
  158.3720  214.4530  154.2190 C   0  0  0  0  0  1  0  0  0  0  0  0
  159.7250  211.1100  154.2390 C   0  0  0  0  0  0  0  0  0  0  0  0
  160.6800  208.9940  154.6820 N   0  0  0  0  0  0  0  0  0  0  0  0
  158.6490  213.1510  157.0850 C   0  0  0  0  0  1  0  0  0  0  0  0
  158.9870  212.5190  155.7800 C   0  0  0  0  0  0  0  0  0  0  0  0
  158.8670  213.0740  154.5070 C   0  0  0  0  0  0  0  0  0  0  0  0
  160.4740  209.1820  156.0240 C   0  0  0  0  0  3  0  0  0  0  0  0
  159.9000  210.3340  156.4840 N   0  0  0  0  0  0  0  0  0  0  0  0
  159.5360  211.2740  155.5770 C   0  0  0  0  0  0  0  0  0  0  0  0
  160.3260  209.9450  153.7660 C   0  0  0  0  0  0  0  0  0  0  0  0
  159.3130  212.2020  153.5630 N   0  0  0  0  0  0  0  0  0  0  0  0
  159.8550  214.2940  150.4810 C   0  0  0  0  0  2  0  0  0  0  0  0
  162.0460  212.2910  148.3630 C   0  0  2  0  0  3  0  0  0  0  0  0
  160.0750  213.1090  149.5380 C   0  0  2  0  0  3  0  0  0  0  0  0
  159.4360  212.4190  152.1240 C   0  0  2  0  0  3  0  0  0  0  0  0
  162.0150  211.6180  149.7180 C   0  0  0  0  0  2  0  0  0  0  0  0
  163.3230  212.7450  148.0880 F   0  0  0  0  0  0  0  0  0  0  0  0
  160.6330  211.8780  150.2840 C   0  0  1  0  0  3  0  0  0  0  0  0
  160.7270  212.0750  151.6790 O   0  0  0  0  0  0  0  0  0  0  0  0
  159.0810  213.8620  151.7320 C   0  0  0  0  0  2  0  0  0  0  0  0
  161.0850  213.4620  148.4580 C   0  0  2  0  0  3  0  0  0  0  0  0
  160.4220  213.7760  147.1110 C   0  0  0  0  0  2  0  0  0  0  0  0
  162.6070  214.4520  145.9240 C   0  0  0  0  0  1  0  0  0  0  0  0
  161.3470  213.6380  145.9330 C   0  0  0  0  0  0  0  0  0  0  0  0
  161.0460  212.8280  144.9730 N   0  0  0  0  0  0  0  0  0  0  0  0
  161.8690  212.6370  143.8010 C   0  0  0  0  0  2  0  0  0  0  0  0
  161.0330  212.6750  142.5700 C   0  0  0  0  0  0  0  0  0  0  0  0
  159.6490  212.9960  142.6590 N   0  0  0  0  0  1  0  0  0  0  0  0
  161.5430  212.4030  141.4520 O   0  0  0  0  0  0  0  0  0  0  0  0
  160.5290  209.7470  152.3950 O   0  0  0  0  0  0  0  0  0  0  0  0
  160.4890  208.5040  151.7920 N   0  0  0  0  0  2  0  0  0  0  0  0
  161.6250  207.8500  151.2120 C   0  0  0  0  0  0  0  0  0  0  0  0
  162.7100  208.4770  151.0680 O   0  0  0  0  0  0  0  0  0  0  0  0
  161.3310  205.2570  152.9770 C   0  0  0  0  0  1  0  0  0  0  0  0
  161.2710  204.1240  150.7280 C   0  0  0  0  0  3  0  0  0  0  0  0
  161.5290  206.0280  149.0970 S   0  0  0  0  0  0  0  0  0  0  0  0
  161.3420  204.3800  149.3650 C   0  0  0  0  0  0  0  0  0  0  0  0
  161.3720  205.2950  151.4880 C   0  0  0  0  0  0  0  0  0  0  0  0
  161.5210  206.4610  150.7260 C   0  0  0  0  0  0  0  0  0  0  0  0
  161.2590  203.4000  148.3270 N   0  0  0  0  0  2  0  0  0  0  0  0
  162.3850  205.4680  145.4780 O   0  0  0  0  0  0  0  0  0  0  0  0
  161.5620  203.7070  146.9380 C   0  0  1  0  0  3  0  0  0  0  0  0
  160.2850  203.6700  146.1060 C   0  0  0  0  0  2  0  0  0  0  0  0
  161.6270  205.6020  143.3140 O   0  0  0  0  0  0  0  0  0  0  0  0
  161.5360  205.0570  144.4430 C   0  0  0  0  0  0  0  0  0  0  0  0
  160.6090  203.8930  144.6300 C   0  0  0  0  0  2  0  0  0  0  0  0
  162.1530  205.1070  146.8430 C   0  0  0  0  0  2  0  0  0  0  0  0
  1  6  1  0  0  0  0
  2  9  2  0  0  0  0
  3  7  1  0  0  0  0
  5  4  1  0  0  0  0
  6  5  2  0  0  0  0
  7  8  2  0  0  0  0
  9  5  1  0  0  0  0
  9  8  1  0  0  0  0
 10  2  1  0  0  0  0
 10  3  2  0  0  0  0
 11  2  1  0  0  0  0
 11  6  1  0  0  0  0
 12 20  1  0  0  0  0
 13 17  1  1  0  0  0
 13 21  1  0  0  0  0
 13 16  1  0  0  0  0
 14 18  1  0  0  0  0
 14 12  1  1  0  0  0
 15 20  1  1  0  0  0
 15 11  1  0  0  0  0
 18 16  1  6  0  0  0
 18 19  1  0  0  0  0
 19 15  1  0  0  0  0
 21 22  1  6  0  0  0
 21 14  1  0  0  0  0
 23 24  1  0  0  0  0
 24 22  1  0  0  0  0
 25 24  2  0  0  0  0
 26 25  1  0  0  0  0
 27 28  1  0  0  0  0
 27 26  1  0  0  0  0
 29 27  2  0  0  0  0
 30 10  1  0  0  0  0
 31 30  1  0  0  0  0
 32 31  1  0  0  0  0
 33 32  2  0  0  0  0
 35 38  1  0  0  0  0
 36 37  1  0  0  0  0
 36 39  1  0  0  0  0
 37 35  2  0  0  0  0
 38 34  1  0  0  0  0
 39 32  1  0  0  0  0
 39 38  2  0  0  0  0
 40 37  1  0  0  0  0
 41 47  1  0  0  0  0
 42 40  1  1  0  0  0
 43 42  1  0  0  0  0
 44 45  2  0  0  0  0
 45 46  1  0  0  0  0
 45 41  1  0  0  0  0
 46 43  1  0  0  0  0
 47 42  1  0  0  0  0
M  END
>  <MODEL>
8

>  <REMARK>
 VINA RESULT:      -6.7      2.779      8.923
  Name = 
  10 active torsions:
  status: ('A' for Active; 'I' for Inactive)
    1  A    between atoms: C_2  and  C_34
    2  A    between atoms: C_2  and  C_46
    3  A    between atoms: N_6  and  O_10
    4  A    between atoms: C_7  and  N_29
    5  A    between atoms: C_8  and  C_31
    6  A    between atoms: O_10  and  C_42
    7  A    between atoms: C_18  and  N_47
    8  A    between atoms: C_19  and  C_45
    9  A    between atoms: N_29  and  C_37
   10  A    between atoms: C_31  and  N_38
                            x       y       z     vdW  Elec       q    Type
                         _______ _______ _______ _____ _____    ______ ____

>  <TORSDO>
F 10

$$$$
=
 OpenBabel11052410393D

 47 52  0  0  1  0  0  0  0  0999 V2000
  155.8270  214.3170  149.4870 C   0  0  0  0  0  1  0  0  0  0  0  0
  159.2640  213.2990  149.0910 C   0  0  0  0  0  0  0  0  0  0  0  0
  161.4140  212.6010  148.4020 N   0  0  0  0  0  0  0  0  0  0  0  0
  156.9170  214.4530  146.5240 C   0  0  0  0  0  1  0  0  0  0  0  0
  157.6780  214.0480  147.7390 C   0  0  0  0  0  0  0  0  0  0  0  0
  157.2160  213.9880  149.0520 C   0  0  0  0  0  0  0  0  0  0  0  0
  161.1030  212.9210  147.1060 C   0  0  0  0  0  3  0  0  0  0  0  0
  159.8720  213.4240  146.7910 N   0  0  0  0  0  0  0  0  0  0  0  0
  158.9790  213.6050  147.7940 C   0  0  0  0  0  0  0  0  0  0  0  0
  160.5110  212.7690  149.4150 C   0  0  0  0  0  0  0  0  0  0  0  0
  158.1970  213.5350  149.8810 N   0  0  0  0  0  0  0  0  0  0  0  0
  158.6050  214.3380  153.5350 C   0  0  0  0  0  2  0  0  0  0  0  0
  155.5540  213.1090  155.1100 C   0  0  2  0  0  3  0  0  0  0  0  0
  157.7390  213.1790  154.0360 C   0  0  2  0  0  3  0  0  0  0  0  0
  158.1050  213.2490  151.3100 C   0  0  2  0  0  3  0  0  0  0  0  0
  155.3250  213.0540  153.6150 C   0  0  0  0  0  2  0  0  0  0  0  0
  154.6800  214.0100  155.6910 F   0  0  0  0  0  0  0  0  0  0  0  0
  156.6780  212.7650  152.9940 C   0  0  1  0  0  3  0  0  0  0  0  0
  156.7960  213.4700  151.7770 O   0  0  0  0  0  0  0  0  0  0  0  0
  159.1280  214.0590  152.1210 C   0  0  0  0  0  2  0  0  0  0  0  0
  156.9850  213.5760  155.2950 C   0  0  2  0  0  3  0  0  0  0  0  0
  157.6200  213.0010  156.5680 C   0  0  0  0  0  2  0  0  0  0  0  0
  159.7510  214.4480  156.4680 C   0  0  0  0  0  1  0  0  0  0  0  0
  159.1210  213.0920  156.5910 C   0  0  0  0  0  0  0  0  0  0  0  0
  159.8270  212.0180  156.7220 N   0  0  0  0  0  0  0  0  0  0  0  0
  161.2710  212.0080  156.7480 C   0  0  0  0  0  2  0  0  0  0  0  0
  161.7850  210.6610  156.3760 C   0  0  0  0  0  0  0  0  0  0  0  0
  161.4620  209.5290  157.1750 N   0  0  0  0  0  1  0  0  0  0  0  0
  162.5250  210.5260  155.3660 O   0  0  0  0  0  0  0  0  0  0  0  0
  160.8340  212.4500  150.7380 O   0  0  0  0  0  0  0  0  0  0  0  0
  160.7260  211.1740  151.2610 N   0  0  0  0  0  2  0  0  0  0  0  0
  161.6620  210.1180  151.0150 C   0  0  0  0  0  0  0  0  0  0  0  0
  162.5610  210.2600  150.1400 O   0  0  0  0  0  0  0  0  0  0  0  0
  160.0080  209.5730  153.6390 C   0  0  0  0  0  1  0  0  0  0  0  0
  160.8820  207.2330  153.3190 C   0  0  0  0  0  3  0  0  0  0  0  0
  162.3030  207.4080  151.2450 S   0  0  0  0  0  0  0  0  0  0  0  0
  161.6870  206.4630  152.4890 C   0  0  0  0  0  0  0  0  0  0  0  0
  160.8090  208.5640  152.8910 C   0  0  0  0  0  0  0  0  0  0  0  0
  161.5510  208.8360  151.7350 C   0  0  0  0  0  0  0  0  0  0  0  0
  161.9530  205.0670  152.6470 N   0  0  0  0  0  2  0  0  0  0  0  0
  160.6450  203.7510  149.4500 O   0  0  0  0  0  0  0  0  0  0  0  0
  161.8010  204.1160  151.5580 C   0  0  1  0  0  3  0  0  0  0  0  0
  161.1750  202.8260  152.0760 C   0  0  0  0  0  2  0  0  0  0  0  0
  160.0950  201.6170  148.8050 O   0  0  0  0  0  0  0  0  0  0  0  0
  160.5520  202.3760  149.6970 C   0  0  0  0  0  0  0  0  0  0  0  0
  161.1050  201.7860  150.9600 C   0  0  0  0  0  2  0  0  0  0  0  0
  160.8780  204.6990  150.4960 C   0  0  0  0  0  2  0  0  0  0  0  0
  2 10  1  0  0  0  0
  2 11  1  0  0  0  0
  3 10  2  0  0  0  0
  4  5  1  0  0  0  0
  5  9  1  0  0  0  0
  5  6  2  0  0  0  0
  6  1  1  0  0  0  0
  6 11  1  0  0  0  0
  7  3  1  0  0  0  0
  8  7  2  0  0  0  0
  8  9  1  0  0  0  0
  9  2  2  0  0  0  0
 10 30  1  0  0  0  0
 13 21  1  0  0  0  0
 13 17  1  1  0  0  0
 14 12  1  6  0  0  0
 14 21  1  0  0  0  0
 15 11  1  6  0  0  0
 15 19  1  0  0  0  0
 15 20  1  0  0  0  0
 16 13  1  0  0  0  0
 18 16  1  1  0  0  0
 18 14  1  0  0  0  0
 19 18  1  0  0  0  0
 20 12  1  0  0  0  0
 21 22  1  1  0  0  0
 22 24  1  0  0  0  0
 23 24  1  0  0  0  0
 24 25  2  0  0  0  0
 25 26  1  0  0  0  0
 27 26  1  0  0  0  0
 27 28  1  0  0  0  0
 29 27  2  0  0  0  0
 30 31  1  0  0  0  0
 32 31  1  0  0  0  0
 32 39  1  0  0  0  0
 33 32  2  0  0  0  0
 36 39  1  0  0  0  0
 36 37  1  0  0  0  0
 37 40  1  0  0  0  0
 37 35  2  0  0  0  0
 38 35  1  0  0  0  0
 38 34  1  0  0  0  0
 39 38  2  0  0  0  0
 41 45  1  0  0  0  0
 41 47  1  0  0  0  0
 42 43  1  0  0  0  0
 42 40  1  1  0  0  0
 44 45  2  0  0  0  0
 45 46  1  0  0  0  0
 46 43  1  0  0  0  0
 47 42  1  0  0  0  0
M  END
>  <MODEL>
9

>  <REMARK>
 VINA RESULT:      -6.5      3.343      8.339
  Name = 
  10 active torsions:
  status: ('A' for Active; 'I' for Inactive)
    1  A    between atoms: C_2  and  C_34
    2  A    between atoms: C_2  and  C_46
    3  A    between atoms: N_6  and  O_10
    4  A    between atoms: C_7  and  N_29
    5  A    between atoms: C_8  and  C_31
    6  A    between atoms: O_10  and  C_42
    7  A    between atoms: C_18  and  N_47
    8  A    between atoms: C_19  and  C_45
    9  A    between atoms: N_29  and  C_37
   10  A    between atoms: C_31  and  N_38
                            x       y       z     vdW  Elec       q    Type
                         _______ _______ _______ _____ _____    ______ ____

>  <TORSDO>
F 10

$$$$
