=
 OpenBabel11042422303D

 34 38  0  0  1  0  0  0  0  0999 V2000
  161.1510  206.0360  149.8110 C   0  0  0  0  0  2  0  0  0  0  0  0
  159.5250  213.7310  147.8330 C   0  0  1  0  0  3  0  0  0  0  0  0
  157.6780  213.7370  149.4460 C   0  0  0  0  0  0  0  0  0  0  0  0
  162.3060  209.4560  153.3080 C   0  0  0  0  0  2  0  0  0  0  0  0
  162.1760  211.1500  148.9130 C   0  0  0  0  0  2  0  0  0  0  0  0
  162.3660  205.9200  152.0170 C   0  0  0  0  0  2  0  0  0  0  0  0
  157.5120  213.8830  150.7360 C   0  0  0  0  0  3  0  0  0  0  0  0
  161.5130  210.5310  154.0150 C   0  0  0  0  0  2  0  0  0  0  0  0
  159.3610  212.9550  145.5340 O   0  0  0  0  0  0  0  0  0  0  0  0
  160.0220  209.4790  152.4160 C   0  0  0  0  0  2  0  0  0  0  0  0
  159.1190  211.2140  153.9660 C   0  0  0  0  0  2  0  0  0  0  0  0
  158.1480  213.4410  153.1560 C   0  0  1  0  0  3  0  0  0  0  0  0
  160.5100  213.1770  148.8430 C   0  0  0  0  0  0  0  0  0  0  0  0
  162.4430  209.1380  150.3330 C   0  0  0  0  0  2  0  0  0  0  0  0
  159.1190  212.7330  154.1240 C   0  0  1  0  0  3  0  0  0  0  0  0
  159.9280  213.4970  151.3580 C   0  0  0  0  0  3  0  0  0  0  0  0
  161.4380  210.1140  149.7380 C   0  0  0  0  0  2  0  0  0  0  0  0
  160.6800  207.3460  150.4350 C   0  0  0  0  0  2  0  0  0  0  0  0
  158.4790  213.1830  151.6740 C   0  0  2  0  0  3  0  0  0  0  0  0
  161.7310  205.1140  150.8820 C   0  0  0  0  0  2  0  0  0  0  0  0
  159.8710  212.8500  146.6800 C   0  0  0  0  0  0  0  0  0  0  0  0
  160.3430  213.3240  150.1320 C   0  0  0  0  0  0  0  0  0  0  0  0
  160.8490  211.8650  146.9950 N   0  0  0  0  0  0  0  0  0  0  0  0
  162.8860  207.1360  151.5240 O   0  0  0  0  0  0  0  0  0  0  0  0
  160.3100  210.7840  153.1300 C   0  0  1  0  0  3  0  0  0  0  0  0
  161.2790  208.6260  152.5520 C   0  0  1  0  0  3  0  0  0  0  0  0
  158.0680  213.5330  148.2130 C   0  0  0  0  0  3  0  0  0  0  0  0
  161.2040  212.0480  148.2230 C   0  0  0  0  0  0  0  0  0  0  0  0
  161.8260  208.0400  151.2220 C   0  0  1  0  0  0  0  0  0  0  0  0
  156.6650  213.2070  153.4990 C   0  0  0  0  0  2  0  0  0  0  0  0
  155.9740  214.4530  154.0350 C   0  0  0  0  0  1  0  0  0  0  0  0
  158.8550  213.1320  155.5710 C   0  0  0  0  0  2  0  0  0  0  0  0
  157.3280  212.2540  157.0930 C   0  0  0  0  0  1  0  0  0  0  0  0
  158.5470  211.9550  156.3640 N   0  0  0  0  0  2  0  0  0  0  0  0
  1 18  1  0  0  0  0
  1 20  1  0  0  0  0
  2 27  1  1  0  0  0
  2 13  1  0  0  0  0
  3  7  2  0  0  0  0
  4  8  1  0  0  0  0
  5 17  1  0  0  0  0
  9 21  2  0  0  0  0
 11 15  1  0  0  0  0
 12 30  1  1  0  0  0
 12 15  1  0  0  0  0
 13 22  2  0  0  0  0
 15 32  1  1  0  0  0
 16 19  1  0  0  0  0
 17 14  1  0  0  0  0
 18 29  1  0  0  0  0
 19  7  1  6  0  0  0
 19 12  1  0  0  0  0
 20  6  1  0  0  0  0
 21 23  1  0  0  0  0
 21  2  1  0  0  0  0
 22 16  2  0  0  0  0
 23 28  2  0  0  0  0
 24  6  1  0  0  0  0
 25 10  1  1  0  0  0
 25 11  1  0  0  0  0
 25  8  1  0  0  0  0
 26 10  1  6  0  0  0
 26  4  1  0  0  0  0
 27  3  2  0  0  0  0
 28 13  1  0  0  0  0
 28  5  1  0  0  0  0
 29 14  1  6  0  0  0
 29 24  1  0  0  0  0
 29 26  1  0  0  0  0
 30 31  1  0  0  0  0
 32 34  1  0  0  0  0
 34 33  1  0  0  0  0
M  END
>  <MODEL>
1

>  <REMARK>
 VINA RESULT:      -6.0      0.000      0.000
  Name = 
  3 active torsions:
  status: ('A' for Active; 'I' for Inactive)
    1  A    between atoms: C_6  and  C_13
    2  A    between atoms: C_17  and  C_33
    3  A    between atoms: N_26  and  C_33
                            x       y       z     vdW  Elec       q    Type
                         _______ _______ _______ _____ _____    ______ ____

>  <TORSDO>
F 3

$$$$
=
 OpenBabel11042422303D

 34 38  0  0  1  0  0  0  0  0999 V2000
  160.4160  205.9590  146.5580 C   0  0  0  0  0  2  0  0  0  0  0  0
  160.3670  213.4650  149.6270 C   0  0  1  0  0  3  0  0  0  0  0  0
  158.8870  212.7010  151.4270 C   0  0  0  0  0  0  0  0  0  0  0  0
  162.9530  206.5520  150.8570 C   0  0  0  0  0  2  0  0  0  0  0  0
  162.4670  210.5030  148.3340 C   0  0  0  0  0  2  0  0  0  0  0  0
  161.9340  204.4560  147.8990 C   0  0  0  0  0  2  0  0  0  0  0  0
  158.9890  212.0780  152.5730 C   0  0  0  0  0  3  0  0  0  0  0  0
  162.5770  207.0790  152.2220 C   0  0  0  0  0  2  0  0  0  0  0  0
  159.6210  214.2040  147.4330 O   0  0  0  0  0  0  0  0  0  0  0  0
  160.6210  207.3100  150.8060 C   0  0  0  0  0  2  0  0  0  0  0  0
  160.4470  207.8850  153.2280 C   0  0  0  0  0  2  0  0  0  0  0  0
  159.9130  210.2440  154.0690 C   0  0  1  0  0  3  0  0  0  0  0  0
  161.3510  212.3340  149.8480 C   0  0  0  0  0  0  0  0  0  0  0  0
  162.4870  208.0260  148.2920 C   0  0  0  0  0  2  0  0  0  0  0  0
  160.8390  209.0150  154.1780 C   0  0  1  0  0  3  0  0  0  0  0  0
  161.3120  211.1730  152.1760 C   0  0  0  0  0  3  0  0  0  0  0  0
  161.6570  209.2560  148.6330 C   0  0  0  0  0  2  0  0  0  0  0  0
  160.3900  206.6920  147.8960 C   0  0  0  0  0  2  0  0  0  0  0  0
  159.9080  210.8730  152.6640 C   0  0  2  0  0  3  0  0  0  0  0  0
  160.9360  204.5340  146.7420 C   0  0  0  0  0  2  0  0  0  0  0  0
  160.2840  213.3990  148.1400 C   0  0  0  0  0  0  0  0  0  0  0  0
  161.4520  211.7130  150.9950 C   0  0  0  0  0  0  0  0  0  0  0  0
  161.0360  212.3280  147.5790 N   0  0  0  0  0  0  0  0  0  0  0  0
  162.6370  205.6750  148.0230 O   0  0  0  0  0  0  0  0  0  0  0  0
  161.3350  207.9150  151.9980 C   0  0  1  0  0  3  0  0  0  0  0  0
  161.6400  206.4250  150.0970 C   0  0  1  0  0  3  0  0  0  0  0  0
  158.9950  213.2220  150.2300 C   0  0  0  0  0  3  0  0  0  0  0  0
  161.6330  211.7220  148.5500 C   0  0  0  0  0  0  0  0  0  0  0  0
  161.7890  206.6800  148.5730 C   0  0  1  0  0  0  0  0  0  0  0  0
  158.5010  209.9960  154.6320 C   0  0  0  0  0  2  0  0  0  0  0  0
  158.1670  210.8900  155.8170 C   0  0  0  0  0  1  0  0  0  0  0  0
  160.9360  208.5140  155.6140 C   0  0  0  0  0  2  0  0  0  0  0  0
  160.0730  206.9430  157.0990 C   0  0  0  0  0  1  0  0  0  0  0  0
  160.4130  207.1620  155.7060 N   0  0  0  0  0  2  0  0  0  0  0  0
  1 20  1  0  0  0  0
  1 18  1  0  0  0  0
  2 13  1  0  0  0  0
  2 27  1  1  0  0  0
  3  7  2  0  0  0  0
  4  8  1  0  0  0  0
  5 28  1  0  0  0  0
  5 17  1  0  0  0  0
  6 24  1  0  0  0  0
  7 19  1  0  0  0  0
  9 21  2  0  0  0  0
 11 15  1  0  0  0  0
 12 15  1  0  0  0  0
 12 30  1  6  0  0  0
 13 22  2  0  0  0  0
 14 29  1  0  0  0  0
 14 17  1  0  0  0  0
 15 32  1  1  0  0  0
 19 16  1  1  0  0  0
 19 12  1  0  0  0  0
 20  6  1  0  0  0  0
 21  2  1  0  0  0  0
 22 16  2  0  0  0  0
 23 21  1  0  0  0  0
 23 28  2  0  0  0  0
 24 29  1  0  0  0  0
 25 10  1  6  0  0  0
 25  8  1  0  0  0  0
 25 11  1  0  0  0  0
 26 10  1  1  0  0  0
 26  4  1  0  0  0  0
 27  3  2  0  0  0  0
 28 13  1  0  0  0  0
 29 18  1  6  0  0  0
 29 26  1  0  0  0  0
 30 31  1  0  0  0  0
 32 34  1  0  0  0  0
 34 33  1  0  0  0  0
M  END
>  <MODEL>
2

>  <REMARK>
 VINA RESULT:      -4.4      2.137      3.308
  Name = 
  3 active torsions:
  status: ('A' for Active; 'I' for Inactive)
    1  A    between atoms: C_6  and  C_13
    2  A    between atoms: C_17  and  C_33
    3  A    between atoms: N_26  and  C_33
                            x       y       z     vdW  Elec       q    Type
                         _______ _______ _______ _____ _____    ______ ____

>  <TORSDO>
F 3

$$$$
=
 OpenBabel11042422303D

 34 38  0  0  1  0  0  0  0  0999 V2000
  160.7210  206.1450  147.0080 C   0  0  0  0  0  2  0  0  0  0  0  0
  159.7800  213.9220  149.1080 C   0  0  1  0  0  3  0  0  0  0  0  0
  158.1820  213.2420  150.8400 C   0  0  0  0  0  0  0  0  0  0  0  0
  162.7410  207.4510  151.4220 C   0  0  0  0  0  2  0  0  0  0  0  0
  162.2230  211.0270  148.3960 C   0  0  0  0  0  2  0  0  0  0  0  0
  162.2000  204.9470  148.6620 C   0  0  0  0  0  2  0  0  0  0  0  0
  158.2110  212.7670  152.0590 C   0  0  0  0  0  3  0  0  0  0  0  0
  162.1850  208.0960  152.6700 C   0  0  0  0  0  2  0  0  0  0  0  0
  159.2140  214.3340  146.7790 O   0  0  0  0  0  0  0  0  0  0  0  0
  160.3770  207.9900  151.0570 C   0  0  0  0  0  2  0  0  0  0  0  0
  159.9060  208.8220  153.3620 C   0  0  0  0  0  2  0  0  0  0  0  0
  159.1090  211.2070  153.8510 C   0  0  1  0  0  3  0  0  0  0  0  0
  160.8180  212.9150  149.5590 C   0  0  0  0  0  0  0  0  0  0  0  0
  162.4360  208.5730  148.6620 C   0  0  0  0  0  2  0  0  0  0  0  0
  160.1100  210.0840  154.1980 C   0  0  1  0  0  3  0  0  0  0  0  0
  160.6240  212.0300  151.9980 C   0  0  0  0  0  3  0  0  0  0  0  0
  161.4830  209.7560  148.7680 C   0  0  0  0  0  2  0  0  0  0  0  0
  160.5000  207.0220  148.2360 C   0  0  0  0  0  2  0  0  0  0  0  0
  159.2040  211.6660  152.3840 C   0  0  2  0  0  3  0  0  0  0  0  0
  161.3260  204.8020  147.4150 C   0  0  0  0  0  2  0  0  0  0  0  0
  159.8580  213.6770  147.6390 C   0  0  0  0  0  0  0  0  0  0  0  0
  160.8460  212.4410  150.7780 C   0  0  0  0  0  0  0  0  0  0  0  0
  160.7450  212.6200  147.2880 N   0  0  0  0  0  0  0  0  0  0  0  0
  162.7910  206.2290  148.7000 O   0  0  0  0  0  0  0  0  0  0  0  0
  160.9140  208.7880  152.2270 C   0  0  1  0  0  3  0  0  0  0  0  0
  161.5290  207.1220  150.5620 C   0  0  1  0  0  3  0  0  0  0  0  0
  158.3750  213.6290  149.6040 C   0  0  0  0  0  3  0  0  0  0  0  0
  161.2810  212.1850  148.3790 C   0  0  0  0  0  0  0  0  0  0  0  0
  161.8170  207.2120  149.0390 C   0  0  1  0  0  0  0  0  0  0  0  0
  157.6690  210.9020  154.3030 C   0  0  0  0  0  2  0  0  0  0  0  0
  156.9040  212.1450  154.7310 C   0  0  0  0  0  1  0  0  0  0  0  0
  160.0940  209.7620  155.6870 C   0  0  0  0  0  2  0  0  0  0  0  0
  162.0550  208.9090  156.6060 C   0  0  0  0  0  1  0  0  0  0  0  0
  160.8230  208.5320  155.9390 N   0  0  0  0  0  2  0  0  0  0  0  0
  1 20  1  0  0  0  0
  1 18  1  0  0  0  0
  2 13  1  0  0  0  0
  2 27  1  1  0  0  0
  3  7  2  0  0  0  0
  4  8  1  0  0  0  0
  5 17  1  0  0  0  0
  6 24  1  0  0  0  0
  7 19  1  0  0  0  0
  9 21  2  0  0  0  0
 11 15  1  0  0  0  0
 12 15  1  0  0  0  0
 12 30  1  6  0  0  0
 13 22  2  0  0  0  0
 14 17  1  0  0  0  0
 14 29  1  0  0  0  0
 15 32  1  1  0  0  0
 19 16  1  1  0  0  0
 19 12  1  0  0  0  0
 20  6  1  0  0  0  0
 21  2  1  0  0  0  0
 22 16  2  0  0  0  0
 23 21  1  0  0  0  0
 23 28  2  0  0  0  0
 24 29  1  0  0  0  0
 25 10  1  6  0  0  0
 25  8  1  0  0  0  0
 25 11  1  0  0  0  0
 26 10  1  1  0  0  0
 26  4  1  0  0  0  0
 27  3  2  0  0  0  0
 28  5  1  0  0  0  0
 28 13  1  0  0  0  0
 29 18  1  6  0  0  0
 29 26  1  0  0  0  0
 30 31  1  0  0  0  0
 32 34  1  0  0  0  0
 34 33  1  0  0  0  0
M  END
>  <MODEL>
3

>  <REMARK>
 VINA RESULT:      -3.1      1.696      2.487
  Name = 
  3 active torsions:
  status: ('A' for Active; 'I' for Inactive)
    1  A    between atoms: C_6  and  C_13
    2  A    between atoms: C_17  and  C_33
    3  A    between atoms: N_26  and  C_33
                            x       y       z     vdW  Elec       q    Type
                         _______ _______ _______ _____ _____    ______ ____

>  <TORSDO>
F 3

$$$$
=
 OpenBabel11042422303D

 34 38  0  0  1  0  0  0  0  0999 V2000
  156.0420  211.1170  154.7000 C   0  0  0  0  0  2  0  0  0  0  0  0
  162.3810  207.5430  151.1200 C   0  0  1  0  0  3  0  0  0  0  0  0
  161.5630  208.3150  148.9410 C   0  0  0  0  0  0  0  0  0  0  0  0
  159.5350  214.2370  152.8740 C   0  0  0  0  0  2  0  0  0  0  0  0
  161.1330  209.9210  153.8850 C   0  0  0  0  0  2  0  0  0  0  0  0
  156.3910  213.6100  154.8490 C   0  0  0  0  0  2  0  0  0  0  0  0
  161.5900  209.4080  148.2220 C   0  0  0  0  0  3  0  0  0  0  0  0
  160.1540  214.4200  151.5080 C   0  0  0  0  0  2  0  0  0  0  0  0
  161.6710  205.4970  152.2270 O   0  0  0  0  0  0  0  0  0  0  0  0
  158.6150  212.5530  151.3480 C   0  0  0  0  0  2  0  0  0  0  0  0
  159.7630  213.3650  149.2870 C   0  0  0  0  0  2  0  0  0  0  0  0
  161.3930  211.9240  147.9350 C   0  0  1  0  0  3  0  0  0  0  0  0
  162.2680  208.9210  151.7390 C   0  0  0  0  0  0  0  0  0  0  0  0
  159.3850  211.6200  154.3230 C   0  0  0  0  0  2  0  0  0  0  0  0
  161.1350  213.2830  148.6210 C   0  0  1  0  0  3  0  0  0  0  0  0
  162.2430  210.9500  150.1100 C   0  0  0  0  0  3  0  0  0  0  0  0
  159.8600  210.5490  153.3520 C   0  0  0  0  0  2  0  0  0  0  0  0
  157.0130  211.3120  153.5400 C   0  0  0  0  0  2  0  0  0  0  0  0
  161.3380  210.7360  148.9130 C   0  0  2  0  0  3  0  0  0  0  0  0
  155.4230  212.4530  155.1070 C   0  0  0  0  0  2  0  0  0  0  0  0
  161.7600  206.7530  152.2220 C   0  0  0  0  0  0  0  0  0  0  0  0
  162.2950  210.0130  151.0190 C   0  0  0  0  0  0  0  0  0  0  0  0
  161.2730  207.5600  153.2900 N   0  0  0  0  0  0  0  0  0  0  0  0
  157.7260  213.1750  154.9960 O   0  0  0  0  0  0  0  0  0  0  0  0
  159.8990  213.1190  150.7780 C   0  0  1  0  0  3  0  0  0  0  0  0
  158.3690  213.2810  152.6650 C   0  0  1  0  0  3  0  0  0  0  0  0
  161.5760  207.3670  149.8450 C   0  0  0  0  0  3  0  0  0  0  0  0
  161.5550  208.7880  153.0090 C   0  0  0  0  0  0  0  0  0  0  0  0
  158.1050  212.3620  153.8880 C   0  0  1  0  0  0  0  0  0  0  0  0
  160.5450  211.7100  146.6670 C   0  0  0  0  0  2  0  0  0  0  0  0
  159.1390  212.2810  146.7880 C   0  0  0  0  0  1  0  0  0  0  0  0
  161.3460  214.4440  147.6570 C   0  0  0  0  0  2  0  0  0  0  0  0
  162.5890  214.4520  145.6890 C   0  0  0  0  0  1  0  0  0  0  0  0
  162.7010  214.4180  147.1350 N   0  0  0  0  0  2  0  0  0  0  0  0
  1 20  1  0  0  0  0
  2 27  1  6  0  0  0
  2 13  1  0  0  0  0
  2 21  1  0  0  0  0
  3 27  2  0  0  0  0
  6 24  1  0  0  0  0
  6 20  1  0  0  0  0
  7  3  2  0  0  0  0
  8  4  1  0  0  0  0
 12 30  1  6  0  0  0
 12 15  1  0  0  0  0
 12 19  1  0  0  0  0
 13 28  1  0  0  0  0
 15 32  1  6  0  0  0
 15 11  1  0  0  0  0
 16 22  2  0  0  0  0
 17  5  1  0  0  0  0
 17 14  1  0  0  0  0
 18  1  1  0  0  0  0
 19  7  1  6  0  0  0
 19 16  1  0  0  0  0
 21  9  2  0  0  0  0
 21 23  1  0  0  0  0
 22 13  2  0  0  0  0
 25 11  1  6  0  0  0
 25 10  1  0  0  0  0
 25  8  1  0  0  0  0
 26 10  1  6  0  0  0
 26  4  1  0  0  0  0
 26 29  1  0  0  0  0
 28 23  2  0  0  0  0
 28  5  1  0  0  0  0
 29 18  1  6  0  0  0
 29 14  1  0  0  0  0
 29 24  1  0  0  0  0
 30 31  1  0  0  0  0
 33 34  1  0  0  0  0
 34 32  1  0  0  0  0
M  END
>  <MODEL>
4

>  <REMARK>
 VINA RESULT:      -3.1      2.390      7.171
  Name = 
  3 active torsions:
  status: ('A' for Active; 'I' for Inactive)
    1  A    between atoms: C_6  and  C_13
    2  A    between atoms: C_17  and  C_33
    3  A    between atoms: N_26  and  C_33
                            x       y       z     vdW  Elec       q    Type
                         _______ _______ _______ _____ _____    ______ ____

>  <TORSDO>
F 3

$$$$
