=
 OpenBabel11042422093D

 50 57  0  0  1  0  0  0  0  0999 V2000
  162.0050  208.0530  147.5900 C   0  0  0  0  0  2  0  0  0  0  0  0
  161.0990  207.3980  146.5490 C   0  0  0  0  0  2  0  0  0  0  0  0
  163.1830  205.0860  146.7810 O   0  0  0  0  0  0  0  0  0  0  0  0
  160.4590  205.5960  148.0960 C   0  0  0  0  0  2  0  0  0  0  0  0
  162.0400  205.1290  146.2490 C   0  0  0  0  0  0  0  0  0  0  0  0
  161.0330  205.9670  146.8100 N   0  0  0  0  0  0  0  0  0  0  0  0
  161.1620  206.3170  149.2250 C   0  0  0  0  0  0  0  0  0  0  0  0
  161.8260  207.4600  148.9690 C   0  0  0  0  0  3  0  0  0  0  0  0
  161.0090  206.5710  151.7950 C   0  0  0  0  0  0  0  0  0  0  0  0
  161.1180  204.3770  150.8070 C   0  0  0  0  0  0  0  0  0  0  0  0
  161.0440  204.5680  153.1740 N   0  0  0  0  0  0  0  0  0  0  0  0
  161.1990  203.4220  149.9110 O   0  0  0  0  0  0  0  0  0  0  0  0
  161.1580  202.4550  151.9270 C   0  0  0  0  0  3  0  0  0  0  0  0
  161.0810  205.7670  150.6110 C   0  0  0  0  0  0  0  0  0  0  0  0
  161.0090  205.9250  153.0630 C   0  0  0  0  0  3  0  0  0  0  0  0
  161.0900  203.8220  152.0460 C   0  0  0  0  0  0  0  0  0  0  0  0
  161.2220  202.2610  150.5420 C   0  0  0  0  0  3  0  0  0  0  0  0
  162.2090  208.7950  152.2190 C   0  0  0  0  0  2  0  0  0  0  0  0
  160.9160  208.8430  153.0160 C   0  0  1  0  0  0  0  0  0  0  0  0
  160.9470  208.0900  151.6940 C   0  0  2  0  0  3  0  0  0  0  0  0
  160.8830  208.0500  154.1720 O   0  0  0  0  0  1  0  0  0  0  0  0
  160.1440  210.1600  152.9990 C   0  0  0  0  0  2  0  0  0  0  0  0
  157.3060  211.8710  156.0060 C   0  0  0  0  0  0  0  0  0  0  0  0
  157.9800  214.1090  156.7950 C   0  0  0  0  0  1  0  0  0  0  0  0
  159.0370  212.9970  154.8450 C   0  0  0  0  0  2  0  0  0  0  0  0
  158.2430  210.8130  155.5700 C   0  0  0  0  0  2  0  0  0  0  0  0
  161.5600  211.0950  154.6770 O   0  0  0  0  0  0  0  0  0  0  0  0
  156.3220  211.6580  156.7020 O   0  0  0  0  0  0  0  0  0  0  0  0
  157.7240  213.2370  155.5810 C   0  0  1  0  0  3  0  0  0  0  0  0
  159.2970  211.5670  154.9220 N   0  0  0  0  0  0  0  0  0  0  0  0
  160.3860  210.9500  154.2440 C   0  0  0  0  0  0  0  0  0  0  0  0
  161.7600  204.3730  144.9870 C   0  0  1  0  0  3  0  0  0  0  0  0
  160.9560  203.2050  145.2920 N   0  0  0  0  0  1  0  0  0  0  0  0
  161.0250  205.2320  143.9690 C   0  0  0  0  0  2  0  0  0  0  0  0
  161.9980  206.0290  143.1110 C   0  0  0  0  0  2  0  0  0  0  0  0
  161.5770  205.9950  141.6520 C   0  0  0  0  0  2  0  0  0  0  0  0
  162.1750  207.1890  140.9220 C   0  0  0  0  0  2  0  0  0  0  0  0
  161.5430  207.3990  139.6840 O   0  0  0  0  0  0  0  0  0  0  0  0
  162.8960  210.6960  139.7390 C   0  0  0  0  0  2  0  0  0  0  0  0
  162.2850  208.4110  137.1890 O   0  0  0  0  0  1  0  0  0  0  0  0
  160.4270  211.7320  138.8240 C   0  0  2  0  0  3  0  0  0  0  0  0
  161.5520  211.7590  137.9680 O   0  0  0  0  0  0  0  0  0  0  0  0
  162.4300  210.6840  138.2790 C   0  0  2  0  0  3  0  0  0  0  0  0
  160.2890  209.1910  138.4820 C   0  0  1  0  0  0  0  0  0  0  0  0
  159.5230  210.5220  138.5530 C   0  0  0  0  0  2  0  0  0  0  0  0
  159.6220  213.0080  138.6590 C   0  0  0  0  0  1  0  0  0  0  0  0
  161.9460  209.7720  140.4940 C   0  0  0  0  0  2  0  0  0  0  0  0
  161.7420  209.3410  138.0760 C   0  0  1  0  0  0  0  0  0  0  0  0
  161.4090  208.7910  139.4570 C   0  0  1  0  0  0  0  0  0  0  0  0
  159.6470  208.1400  137.8230 O   0  0  0  0  0  1  0  0  0  0  0  0
  1  8  1  0  0  0  0
  2  6  1  0  0  0  0
  2  1  1  0  0  0  0
  4  7  1  0  0  0  0
  5  3  2  0  0  0  0
  5  6  1  0  0  0  0
  6  4  1  0  0  0  0
  7 14  1  0  0  0  0
  8  7  2  0  0  0  0
  9 15  1  0  0  0  0
 10 16  2  0  0  0  0
 12 17  1  0  0  0  0
 12 10  1  0  0  0  0
 13 16  1  0  0  0  0
 14 10  1  0  0  0  0
 14  9  2  0  0  0  0
 15 11  2  0  0  0  0
 16 11  1  0  0  0  0
 17 13  2  0  0  0  0
 18 19  1  0  0  0  0
 19 21  1  1  0  0  0
 20  9  1  1  0  0  0
 20 18  1  0  0  0  0
 20 19  1  0  0  0  0
 22 19  1  0  0  0  0
 22 31  1  0  0  0  0
 23 28  2  0  0  0  0
 25 30  1  0  0  0  0
 25 29  1  0  0  0  0
 26 23  1  0  0  0  0
 29 23  1  0  0  0  0
 29 24  1  1  0  0  0
 30 26  1  0  0  0  0
 31 27  2  0  0  0  0
 31 30  1  0  0  0  0
 32 33  1  1  0  0  0
 32  5  1  0  0  0  0
 34 32  1  0  0  0  0
 35 34  1  0  0  0  0
 36 35  1  0  0  0  0
 37 36  1  0  0  0  0
 38 37  1  0  0  0  0
 39 47  1  0  0  0  0
 41 46  1  6  0  0  0
 42 43  1  0  0  0  0
 42 41  1  0  0  0  0
 43 39  1  1  0  0  0
 44 50  1  6  0  0  0
 44 45  1  0  0  0  0
 44 49  1  0  0  0  0
 45 41  1  0  0  0  0
 48 40  1  6  0  0  0
 48 43  1  0  0  0  0
 48 44  1  0  0  0  0
 48 49  1  0  0  0  0
 49 38  1  1  0  0  0
 49 47  1  0  0  0  0
M  END
>  <MODEL>
1

>  <REMARK>
 VINA RESULT:      -6.7      0.000      0.000
  Name = 
  11 active torsions:
  status: ('A' for Active; 'I' for Inactive)
    1  A    between atoms: C_1  and  C_25
    2  A    between atoms: C_3  and  C_43
    3  A    between atoms: C_3  and  C_44
    4  A    between atoms: C_9  and  C_33
    5  A    between atoms: C_12  and  C_28
    6  A    between atoms: C_12  and  C_34
    7  A    between atoms: C_24  and  C_49
    8  A    between atoms: C_28  and  C_43
    9  A    between atoms: C_33  and  C_48
   10  A    between atoms: C_34  and  O_36
   11  A    between atoms: O_36  and  C_40
                            x       y       z     vdW  Elec       q    Type
                         _______ _______ _______ _____ _____    ______ ____

>  <TORSDO>
F 11

$$$$
=
 OpenBabel11042422093D

 50 57  0  0  1  0  0  0  0  0999 V2000
  162.2370  207.7030  147.8480 C   0  0  0  0  0  2  0  0  0  0  0  0
  161.2630  207.4840  146.6910 C   0  0  0  0  0  2  0  0  0  0  0  0
  163.1110  205.0310  146.1320 O   0  0  0  0  0  0  0  0  0  0  0  0
  160.4590  205.3620  147.6380 C   0  0  0  0  0  2  0  0  0  0  0  0
  161.9740  205.3400  145.6810 C   0  0  0  0  0  0  0  0  0  0  0  0
  161.0580  206.0540  146.5060 N   0  0  0  0  0  0  0  0  0  0  0  0
  161.2380  205.6340  148.9060 C   0  0  0  0  0  0  0  0  0  0  0  0
  162.0090  206.7340  148.9860 C   0  0  0  0  0  3  0  0  0  0  0  0
  161.1650  205.0970  151.4360 C   0  0  0  0  0  0  0  0  0  0  0  0
  160.9730  203.3190  149.8230 C   0  0  0  0  0  0  0  0  0  0  0  0
  160.9670  202.7760  152.1360 N   0  0  0  0  0  0  0  0  0  0  0  0
  160.9140  202.6860  148.6760 O   0  0  0  0  0  0  0  0  0  0  0  0
  160.7870  201.1540  150.3010 C   0  0  0  0  0  3  0  0  0  0  0  0
  161.1110  204.6960  150.0620 C   0  0  0  0  0  0  0  0  0  0  0  0
  161.1050  204.0960  152.4460 C   0  0  0  0  0  3  0  0  0  0  0  0
  160.8970  202.4160  150.8330 C   0  0  0  0  0  0  0  0  0  0  0  0
  160.7990  201.3920  148.9210 C   0  0  0  0  0  3  0  0  0  0  0  0
  162.5020  206.8720  152.7120 C   0  0  0  0  0  2  0  0  0  0  0  0
  161.0910  206.9060  153.2760 C   0  0  1  0  0  0  0  0  0  0  0  0
  161.2970  206.5700  151.8060 C   0  0  2  0  0  3  0  0  0  0  0  0
  160.7410  205.8320  154.1070 O   0  0  0  0  0  1  0  0  0  0  0  0
  160.4910  208.2830  153.5520 C   0  0  0  0  0  2  0  0  0  0  0  0
  158.8690  211.6520  156.0100 C   0  0  0  0  0  0  0  0  0  0  0  0
  160.6260  212.8780  157.2330 C   0  0  0  0  0  1  0  0  0  0  0  0
  161.1330  211.2240  155.4550 C   0  0  0  0  0  2  0  0  0  0  0  0
  158.9280  210.2150  155.6680 C   0  0  0  0  0  2  0  0  0  0  0  0
  161.6560  208.1090  155.6280 O   0  0  0  0  0  0  0  0  0  0  0  0
  157.8600  212.2090  156.4190 O   0  0  0  0  0  0  0  0  0  0  0  0
  160.1870  212.3390  155.8860 C   0  0  1  0  0  3  0  0  0  0  0  0
  160.3360  210.0070  155.3950 N   0  0  0  0  0  0  0  0  0  0  0  0
  160.8590  208.7740  154.9150 C   0  0  0  0  0  0  0  0  0  0  0  0
  161.6120  205.0350  144.2590 C   0  0  1  0  0  3  0  0  0  0  0  0
  160.2540  204.5300  144.2050 N   0  0  0  0  0  1  0  0  0  0  0  0
  161.7210  206.2700  143.3760 C   0  0  0  0  0  2  0  0  0  0  0  0
  161.6160  205.9060  141.9020 C   0  0  0  0  0  2  0  0  0  0  0  0
  162.5480  206.7710  141.0700 C   0  0  0  0  0  2  0  0  0  0  0  0
  161.7470  207.4910  139.9930 C   0  0  0  0  0  2  0  0  0  0  0  0
  161.3140  208.7530  140.4370 O   0  0  0  0  0  0  0  0  0  0  0  0
  161.1110  209.9050  137.0710 C   0  0  0  0  0  2  0  0  0  0  0  0
  159.4600  210.7940  139.9990 O   0  0  0  0  0  1  0  0  0  0  0  0
  162.6490  212.1820  137.7500 C   0  0  2  0  0  3  0  0  0  0  0  0
  161.2830  212.3390  137.4220 O   0  0  0  0  0  0  0  0  0  0  0  0
  160.5600  211.1600  137.7570 C   0  0  2  0  0  3  0  0  0  0  0  0
  161.9400  211.1250  139.9810 C   0  0  1  0  0  0  0  0  0  0  0  0
  162.8750  212.1140  139.2660 C   0  0  0  0  0  2  0  0  0  0  0  0
  163.4550  213.3300  137.1720 C   0  0  0  0  0  1  0  0  0  0  0  0
  162.0710  209.2650  138.0680 C   0  0  0  0  0  2  0  0  0  0  0  0
  160.6340  210.8810  139.2510 C   0  0  1  0  0  0  0  0  0  0  0  0
  161.6040  209.7220  139.4460 C   0  0  1  0  0  0  0  0  0  0  0  0
  161.7680  211.3130  141.3540 O   0  0  0  0  0  1  0  0  0  0  0  0
  1  8  1  0  0  0  0
  2  1  1  0  0  0  0
  4  7  1  0  0  0  0
  5  3  2  0  0  0  0
  5  6  1  0  0  0  0
  6  2  1  0  0  0  0
  6  4  1  0  0  0  0
  7  8  2  0  0  0  0
  7 14  1  0  0  0  0
  9 15  1  0  0  0  0
 10 14  1  0  0  0  0
 10 16  2  0  0  0  0
 11 15  2  0  0  0  0
 12 17  1  0  0  0  0
 12 10  1  0  0  0  0
 13 16  1  0  0  0  0
 14  9  2  0  0  0  0
 16 11  1  0  0  0  0
 17 13  2  0  0  0  0
 18 19  1  0  0  0  0
 19 22  1  0  0  0  0
 19 21  1  1  0  0  0
 20  9  1  1  0  0  0
 20 18  1  0  0  0  0
 20 19  1  0  0  0  0
 22 31  1  0  0  0  0
 23 28  2  0  0  0  0
 25 29  1  0  0  0  0
 26 23  1  0  0  0  0
 29 23  1  0  0  0  0
 29 24  1  1  0  0  0
 30 25  1  0  0  0  0
 30 26  1  0  0  0  0
 31 30  1  0  0  0  0
 31 27  2  0  0  0  0
 32 33  1  1  0  0  0
 32  5  1  0  0  0  0
 34 32  1  0  0  0  0
 35 34  1  0  0  0  0
 36 35  1  0  0  0  0
 37 38  1  0  0  0  0
 37 36  1  0  0  0  0
 39 47  1  0  0  0  0
 41 46  1  1  0  0  0
 41 45  1  0  0  0  0
 42 41  1  0  0  0  0
 42 43  1  0  0  0  0
 43 39  1  6  0  0  0
 43 48  1  0  0  0  0
 44 50  1  1  0  0  0
 45 44  1  0  0  0  0
 47 49  1  0  0  0  0
 48 49  1  0  0  0  0
 48 44  1  0  0  0  0
 48 40  1  1  0  0  0
 49 44  1  0  0  0  0
 49 38  1  1  0  0  0
M  END
>  <MODEL>
2

>  <REMARK>
 VINA RESULT:      -6.6      1.485      2.163
  Name = 
  11 active torsions:
  status: ('A' for Active; 'I' for Inactive)
    1  A    between atoms: C_1  and  C_25
    2  A    between atoms: C_3  and  C_43
    3  A    between atoms: C_3  and  C_44
    4  A    between atoms: C_9  and  C_33
    5  A    between atoms: C_12  and  C_28
    6  A    between atoms: C_12  and  C_34
    7  A    between atoms: C_24  and  C_49
    8  A    between atoms: C_28  and  C_43
    9  A    between atoms: C_33  and  C_48
   10  A    between atoms: C_34  and  O_36
   11  A    between atoms: O_36  and  C_40
                            x       y       z     vdW  Elec       q    Type
                         _______ _______ _______ _____ _____    ______ ____

>  <TORSDO>
F 11

$$$$
=
 OpenBabel11042422093D

 50 57  0  0  1  0  0  0  0  0999 V2000
  161.7240  203.0240  151.7520 C   0  0  0  0  0  2  0  0  0  0  0  0
  160.5480  203.7000  152.4570 C   0  0  0  0  0  2  0  0  0  0  0  0
  162.5450  206.0940  152.6170 O   0  0  0  0  0  0  0  0  0  0  0  0
  160.2990  205.3620  150.6610 C   0  0  0  0  0  2  0  0  0  0  0  0
  161.3030  206.0280  152.8240 C   0  0  0  0  0  0  0  0  0  0  0  0
  160.5120  205.1060  152.0780 N   0  0  0  0  0  0  0  0  0  0  0  0
  161.3050  204.6050  149.8220 C   0  0  0  0  0  0  0  0  0  0  0  0
  161.9080  203.5160  150.3340 C   0  0  0  0  0  3  0  0  0  0  0  0
  161.9620  206.3940  148.0730 C   0  0  0  0  0  0  0  0  0  0  0  0
  161.4450  204.1520  147.3630 C   0  0  0  0  0  0  0  0  0  0  0  0
  161.9790  205.7800  145.7190 N   0  0  0  0  0  0  0  0  0  0  0  0
  161.1000  202.8870  147.4020 O   0  0  0  0  0  0  0  0  0  0  0  0
  161.4170  203.4350  145.2580 C   0  0  0  0  0  3  0  0  0  0  0  0
  161.5870  205.0580  148.4270 C   0  0  0  0  0  0  0  0  0  0  0  0
  162.1330  206.7170  146.6970 C   0  0  0  0  0  3  0  0  0  0  0  0
  161.6460  204.5170  146.0720 C   0  0  0  0  0  0  0  0  0  0  0  0
  161.0760  202.4240  146.1640 C   0  0  0  0  0  3  0  0  0  0  0  0
  160.8430  207.9910  149.7360 C   0  0  0  0  0  2  0  0  0  0  0  0
  161.6790  208.8530  148.8040 C   0  0  1  0  0  0  0  0  0  0  0  0
  162.1600  207.4520  149.1510 C   0  0  2  0  0  3  0  0  0  0  0  0
  161.1680  209.0220  147.5090 O   0  0  0  0  0  1  0  0  0  0  0  0
  162.4700  209.9920  149.4420 C   0  0  0  0  0  2  0  0  0  0  0  0
  159.8080  213.5780  149.1600 C   0  0  0  0  0  0  0  0  0  0  0  0
  159.4070  214.2920  146.8330 C   0  0  0  0  0  1  0  0  0  0  0  0
  160.4750  212.1280  147.4080 C   0  0  0  0  0  2  0  0  0  0  0  0
  161.0440  212.9210  149.6380 C   0  0  0  0  0  2  0  0  0  0  0  0
  163.5220  211.3760  147.8070 O   0  0  0  0  0  0  0  0  0  0  0  0
  159.2230  214.4530  149.7830 O   0  0  0  0  0  0  0  0  0  0  0  0
  159.3920  213.1260  147.8010 C   0  0  1  0  0  3  0  0  0  0  0  0
  161.4270  212.0980  148.5090 N   0  0  0  0  0  0  0  0  0  0  0  0
  162.5210  211.1880  148.5480 C   0  0  0  0  0  0  0  0  0  0  0  0
  160.6660  206.8510  153.9020 C   0  0  1  0  0  3  0  0  0  0  0  0
  161.2740  206.5260  155.1780 N   0  0  0  0  0  1  0  0  0  0  0  0
  160.8270  208.3410  153.6390 C   0  0  0  0  0  2  0  0  0  0  0  0
  160.9580  209.1210  154.9390 C   0  0  0  0  0  2  0  0  0  0  0  0
  161.8940  210.3040  154.7610 C   0  0  0  0  0  2  0  0  0  0  0  0
  161.3440  211.5060  155.5170 C   0  0  0  0  0  2  0  0  0  0  0  0
  160.4380  212.2350  154.7260 O   0  0  0  0  0  0  0  0  0  0  0  0
  158.3370  213.8440  157.1120 C   0  0  0  0  0  2  0  0  0  0  0  0
  158.4630  213.8820  153.6370 O   0  0  0  0  0  1  0  0  0  0  0  0
  156.2920  211.9580  156.5930 C   0  0  2  0  0  3  0  0  0  0  0  0
  156.1170  213.3020  156.1890 O   0  0  0  0  0  0  0  0  0  0  0  0
  157.3790  213.9000  155.9170 C   0  0  2  0  0  3  0  0  0  0  0  0
  158.0090  211.6650  154.7060 C   0  0  1  0  0  0  0  0  0  0  0  0
  156.8010  211.0720  155.4500 C   0  0  0  0  0  2  0  0  0  0  0  0
  154.9800  211.4010  157.1160 C   0  0  0  0  0  1  0  0  0  0  0  0
  159.1950  212.6000  156.9100 C   0  0  0  0  0  2  0  0  0  0  0  0
  158.0920  213.1770  154.7820 C   0  0  1  0  0  0  0  0  0  0  0  0
  159.2010  212.3400  155.4060 C   0  0  1  0  0  0  0  0  0  0  0  0
  158.2530  211.1720  153.4230 O   0  0  0  0  0  1  0  0  0  0  0  0
  1  2  1  0  0  0  0
  3  5  2  0  0  0  0
  4  6  1  0  0  0  0
  5 32  1  0  0  0  0
  6  2  1  0  0  0  0
  6  5  1  0  0  0  0
  7  8  2  0  0  0  0
  7  4  1  0  0  0  0
  8  1  1  0  0  0  0
  9 14  1  0  0  0  0
 10 12  1  0  0  0  0
 10 14  2  0  0  0  0
 11 16  2  0  0  0  0
 11 15  1  0  0  0  0
 13 16  1  0  0  0  0
 13 17  2  0  0  0  0
 14  7  1  0  0  0  0
 15  9  2  0  0  0  0
 16 10  1  0  0  0  0
 17 12  1  0  0  0  0
 19 21  1  6  0  0  0
 19 20  1  0  0  0  0
 19 22  1  0  0  0  0
 19 18  1  0  0  0  0
 20  9  1  6  0  0  0
 20 18  1  0  0  0  0
 23 26  1  0  0  0  0
 23 28  2  0  0  0  0
 25 29  1  0  0  0  0
 25 30  1  0  0  0  0
 27 31  2  0  0  0  0
 29 24  1  6  0  0  0
 29 23  1  0  0  0  0
 30 31  1  0  0  0  0
 30 26  1  0  0  0  0
 31 22  1  0  0  0  0
 32 33  1  1  0  0  0
 34 32  1  0  0  0  0
 34 35  1  0  0  0  0
 36 35  1  0  0  0  0
 36 37  1  0  0  0  0
 38 37  1  0  0  0  0
 41 46  1  6  0  0  0
 42 41  1  0  0  0  0
 43 42  1  0  0  0  0
 43 39  1  1  0  0  0
 44 50  1  6  0  0  0
 44 48  1  0  0  0  0
 44 49  1  0  0  0  0
 44 45  1  0  0  0  0
 45 41  1  0  0  0  0
 47 39  1  0  0  0  0
 48 40  1  6  0  0  0
 48 49  1  0  0  0  0
 48 43  1  0  0  0  0
 49 38  1  6  0  0  0
 49 47  1  0  0  0  0
M  END
>  <MODEL>
3

>  <REMARK>
 VINA RESULT:      -6.5      4.862     10.915
  Name = 
  11 active torsions:
  status: ('A' for Active; 'I' for Inactive)
    1  A    between atoms: C_1  and  C_25
    2  A    between atoms: C_3  and  C_43
    3  A    between atoms: C_3  and  C_44
    4  A    between atoms: C_9  and  C_33
    5  A    between atoms: C_12  and  C_28
    6  A    between atoms: C_12  and  C_34
    7  A    between atoms: C_24  and  C_49
    8  A    between atoms: C_28  and  C_43
    9  A    between atoms: C_33  and  C_48
   10  A    between atoms: C_34  and  O_36
   11  A    between atoms: O_36  and  C_40
                            x       y       z     vdW  Elec       q    Type
                         _______ _______ _______ _____ _____    ______ ____

>  <TORSDO>
F 11

$$$$
=
 OpenBabel11042422093D

 50 57  0  0  1  0  0  0  0  0999 V2000
  162.1910  207.6690  147.8510 C   0  0  0  0  0  2  0  0  0  0  0  0
  161.2180  207.3460  146.7170 C   0  0  0  0  0  2  0  0  0  0  0  0
  163.0410  204.8300  146.4130 O   0  0  0  0  0  0  0  0  0  0  0  0
  160.3890  205.3370  147.8680 C   0  0  0  0  0  2  0  0  0  0  0  0
  161.9090  205.1040  145.9290 C   0  0  0  0  0  0  0  0  0  0  0  0
  160.9980  205.9070  146.6750 N   0  0  0  0  0  0  0  0  0  0  0  0
  161.1660  205.7260  149.1060 C   0  0  0  0  0  0  0  0  0  0  0  0
  161.9490  206.8210  149.0790 C   0  0  0  0  0  3  0  0  0  0  0  0
  160.8880  205.4590  151.6650 C   0  0  0  0  0  0  0  0  0  0  0  0
  161.0740  203.5080  150.2650 C   0  0  0  0  0  0  0  0  0  0  0  0
  160.8850  203.2210  152.6150 N   0  0  0  0  0  0  0  0  0  0  0  0
  161.2110  202.7530  149.2010 O   0  0  0  0  0  0  0  0  0  0  0  0
  161.0880  201.4010  150.9780 C   0  0  0  0  0  3  0  0  0  0  0  0
  161.0270  204.9100  150.3490 C   0  0  0  0  0  0  0  0  0  0  0  0
  160.8360  204.5720  152.7770 C   0  0  0  0  0  3  0  0  0  0  0  0
  160.9950  202.7170  151.3640 C   0  0  0  0  0  0  0  0  0  0  0  0
  161.2200  201.4890  149.5880 C   0  0  0  0  0  3  0  0  0  0  0  0
  162.1800  207.6650  151.8430 C   0  0  0  0  0  2  0  0  0  0  0  0
  161.4250  207.4990  153.1520 C   0  0  1  0  0  0  0  0  0  0  0  0
  160.8090  206.9680  151.8670 C   0  0  2  0  0  3  0  0  0  0  0  0
  161.9360  206.5330  154.0320 O   0  0  0  0  0  1  0  0  0  0  0  0
  160.7600  208.7460  153.7290 C   0  0  0  0  0  2  0  0  0  0  0  0
  159.1270  212.8550  153.0410 C   0  0  0  0  0  0  0  0  0  0  0  0
  160.0070  213.9050  150.9890 C   0  0  0  0  0  1  0  0  0  0  0  0
  160.3330  211.5020  151.5140 C   0  0  0  0  0  2  0  0  0  0  0  0
  159.8660  211.8820  153.8730 C   0  0  0  0  0  2  0  0  0  0  0  0
  162.6610  210.0310  153.0710 O   0  0  0  0  0  0  0  0  0  0  0  0
  158.4500  213.7630  153.5030 O   0  0  0  0  0  0  0  0  0  0  0  0
  159.3550  212.6700  151.5790 C   0  0  1  0  0  3  0  0  0  0  0  0
  160.6200  211.1280  152.8920 N   0  0  0  0  0  0  0  0  0  0  0  0
  161.4110  209.9930  153.2260 C   0  0  0  0  0  0  0  0  0  0  0  0
  161.5480  204.6630  144.5430 C   0  0  1  0  0  3  0  0  0  0  0  0
  160.4260  203.7460  144.6060 N   0  0  0  0  0  1  0  0  0  0  0  0
  161.1780  205.8440  143.6580 C   0  0  0  0  0  2  0  0  0  0  0  0
  162.2640  206.1260  142.6290 C   0  0  0  0  0  2  0  0  0  0  0  0
  161.6800  206.1480  141.2270 C   0  0  0  0  0  2  0  0  0  0  0  0
  162.4540  207.1400  140.3700 C   0  0  0  0  0  2  0  0  0  0  0  0
  161.7190  207.5130  139.2310 O   0  0  0  0  0  0  0  0  0  0  0  0
  162.6220  210.8740  139.9930 C   0  0  0  0  0  2  0  0  0  0  0  0
  162.2310  209.1290  137.0120 O   0  0  0  0  0  1  0  0  0  0  0  0
  160.0060  211.7330  139.3400 C   0  0  2  0  0  3  0  0  0  0  0  0
  161.0870  212.0980  138.5040 O   0  0  0  0  0  0  0  0  0  0  0  0
  162.1110  211.1120  138.5680 C   0  0  2  0  0  3  0  0  0  0  0  0
  160.1950  209.3310  138.4540 C   0  0  1  0  0  0  0  0  0  0  0  0
  159.2630  210.4980  138.8180 C   0  0  0  0  0  2  0  0  0  0  0  0
  159.0330  212.8920  139.4610 C   0  0  0  0  0  1  0  0  0  0  0  0
  161.8310  209.6890  140.5350 C   0  0  0  0  0  2  0  0  0  0  0  0
  161.6000  209.7630  138.0820 C   0  0  1  0  0  0  0  0  0  0  0  0
  161.3930  208.8890  139.3120 C   0  0  1  0  0  0  0  0  0  0  0  0
  159.6760  208.3670  137.5860 O   0  0  0  0  0  1  0  0  0  0  0  0
  1  8  1  0  0  0  0
  2  1  1  0  0  0  0
  4  7  1  0  0  0  0
  5  3  2  0  0  0  0
  5  6  1  0  0  0  0
  6  2  1  0  0  0  0
  6  4  1  0  0  0  0
  7 14  1  0  0  0  0
  8  7  2  0  0  0  0
  9 15  1  0  0  0  0
 10 14  1  0  0  0  0
 10 16  2  0  0  0  0
 11 15  2  0  0  0  0
 12 17  1  0  0  0  0
 12 10  1  0  0  0  0
 13 16  1  0  0  0  0
 14  9  2  0  0  0  0
 16 11  1  0  0  0  0
 17 13  2  0  0  0  0
 18 20  1  0  0  0  0
 18 19  1  0  0  0  0
 19 22  1  0  0  0  0
 19 21  1  1  0  0  0
 20  9  1  1  0  0  0
 20 19  1  0  0  0  0
 23 28  2  0  0  0  0
 23 26  1  0  0  0  0
 25 29  1  0  0  0  0
 25 30  1  0  0  0  0
 27 31  2  0  0  0  0
 29 24  1  1  0  0  0
 29 23  1  0  0  0  0
 30 31  1  0  0  0  0
 30 26  1  0  0  0  0
 31 22  1  0  0  0  0
 32 33  1  1  0  0  0
 32  5  1  0  0  0  0
 34 32  1  0  0  0  0
 35 34  1  0  0  0  0
 36 35  1  0  0  0  0
 37 36  1  0  0  0  0
 38 37  1  0  0  0  0
 39 47  1  0  0  0  0
 41 46  1  6  0  0  0
 42 43  1  0  0  0  0
 42 41  1  0  0  0  0
 43 39  1  1  0  0  0
 44 50  1  6  0  0  0
 44 45  1  0  0  0  0
 44 49  1  0  0  0  0
 45 41  1  0  0  0  0
 48 40  1  6  0  0  0
 48 44  1  0  0  0  0
 48 43  1  0  0  0  0
 48 49  1  0  0  0  0
 49 38  1  6  0  0  0
 49 47  1  0  0  0  0
M  END
>  <MODEL>
4

>  <REMARK>
 VINA RESULT:      -6.3      1.438      1.775
  Name = 
  11 active torsions:
  status: ('A' for Active; 'I' for Inactive)
    1  A    between atoms: C_1  and  C_25
    2  A    between atoms: C_3  and  C_43
    3  A    between atoms: C_3  and  C_44
    4  A    between atoms: C_9  and  C_33
    5  A    between atoms: C_12  and  C_28
    6  A    between atoms: C_12  and  C_34
    7  A    between atoms: C_24  and  C_49
    8  A    between atoms: C_28  and  C_43
    9  A    between atoms: C_33  and  C_48
   10  A    between atoms: C_34  and  O_36
   11  A    between atoms: O_36  and  C_40
                            x       y       z     vdW  Elec       q    Type
                         _______ _______ _______ _____ _____    ______ ____

>  <TORSDO>
F 11

$$$$
=
 OpenBabel11042422093D

 50 57  0  0  1  0  0  0  0  0999 V2000
  162.1430  208.7420  150.2520 C   0  0  0  0  0  2  0  0  0  0  0  0
  161.2010  207.5590  150.0310 C   0  0  0  0  0  2  0  0  0  0  0  0
  163.0680  206.2000  152.1310 O   0  0  0  0  0  0  0  0  0  0  0  0
  160.3770  207.6560  152.3470 C   0  0  0  0  0  2  0  0  0  0  0  0
  161.9430  205.8620  151.6720 C   0  0  0  0  0  0  0  0  0  0  0  0
  161.0040  206.8660  151.2970 N   0  0  0  0  0  0  0  0  0  0  0  0
  161.1210  208.9570  152.5560 C   0  0  0  0  0  0  0  0  0  0  0  0
  161.8880  209.4480  151.5640 C   0  0  0  0  0  3  0  0  0  0  0  0
  160.6620  211.0890  153.9480 C   0  0  0  0  0  0  0  0  0  0  0  0
  161.1700  209.0130  155.0590 C   0  0  0  0  0  0  0  0  0  0  0  0
  160.8190  210.9610  156.3720 N   0  0  0  0  0  0  0  0  0  0  0  0
  161.4730  207.7510  155.2520 O   0  0  0  0  0  0  0  0  0  0  0  0
  161.3490  208.7330  157.2580 C   0  0  0  0  0  3  0  0  0  0  0  0
  160.9670  209.6920  153.8460 C   0  0  0  0  0  0  0  0  0  0  0  0
  160.6130  211.6880  155.2380 C   0  0  0  0  0  3  0  0  0  0  0  0
  161.0850  209.6390  156.2590 C   0  0  0  0  0  0  0  0  0  0  0  0
  161.5850  207.5470  156.5540 C   0  0  0  0  0  3  0  0  0  0  0  0
  159.7180  213.2630  152.9740 C   0  0  0  0  0  2  0  0  0  0  0  0
  158.9470  212.1270  152.3220 C   0  0  1  0  0  0  0  0  0  0  0  0
  160.4070  211.9160  152.6940 C   0  0  2  0  0  3  0  0  0  0  0  0
  158.0070  211.4810  153.1390 O   0  0  0  0  0  1  0  0  0  0  0  0
  158.6660  212.2520  150.8270 C   0  0  0  0  0  2  0  0  0  0  0  0
  160.1500  212.9390  146.6620 C   0  0  0  0  0  0  0  0  0  0  0  0
  162.3800  213.9930  146.6010 C   0  0  0  0  0  1  0  0  0  0  0  0
  161.3850  213.0740  148.6800 C   0  0  0  0  0  2  0  0  0  0  0  0
  159.1470  213.1510  147.7270 C   0  0  0  0  0  2  0  0  0  0  0  0
  159.5870  214.4520  150.8880 O   0  0  0  0  0  0  0  0  0  0  0  0
  159.8740  212.8950  145.4710 O   0  0  0  0  0  0  0  0  0  0  0  0
  161.5470  212.8650  147.1790 C   0  0  1  0  0  3  0  0  0  0  0  0
  159.9640  213.2810  148.9160 N   0  0  0  0  0  0  0  0  0  0  0  0
  159.4150  213.3950  150.2250 C   0  0  0  0  0  0  0  0  0  0  0  0
  161.6200  204.4170  151.4400 C   0  0  1  0  0  3  0  0  0  0  0  0
  160.8330  203.9150  152.5510 N   0  0  0  0  0  1  0  0  0  0  0  0
  160.8420  204.2170  150.1480 C   0  0  0  0  0  2  0  0  0  0  0  0
  160.1400  202.8670  150.1290 C   0  0  0  0  0  2  0  0  0  0  0  0
  160.9160  201.8720  149.2840 C   0  0  0  0  0  2  0  0  0  0  0  0
  160.8430  202.2820  147.8200 C   0  0  0  0  0  2  0  0  0  0  0  0
  161.9050  203.1370  147.4760 O   0  0  0  0  0  0  0  0  0  0  0  0
  159.6040  203.9370  144.8750 C   0  0  0  0  0  2  0  0  0  0  0  0
  160.7880  205.6920  147.6330 O   0  0  0  0  0  1  0  0  0  0  0  0
  161.5950  205.4730  143.5770 C   0  0  2  0  0  3  0  0  0  0  0  0
  160.4830  206.1250  144.1590 O   0  0  0  0  0  0  0  0  0  0  0  0
  159.9930  205.3690  145.2590 C   0  0  2  0  0  3  0  0  0  0  0  0
  162.4970  205.0100  145.9360 C   0  0  1  0  0  0  0  0  0  0  0  0
  162.8160  205.4720  144.5050 C   0  0  0  0  0  2  0  0  0  0  0  0
  161.9600  206.1460  142.2660 C   0  0  0  0  0  1  0  0  0  0  0  0
  160.8220  203.0710  145.1800 C   0  0  0  0  0  2  0  0  0  0  0  0
  161.0530  205.2320  146.3430 C   0  0  1  0  0  0  0  0  0  0  0  0
  161.5940  203.8100  146.2690 C   0  0  1  0  0  0  0  0  0  0  0  0
  163.4050  205.3860  146.9280 O   0  0  0  0  0  1  0  0  0  0  0  0
  1  8  1  0  0  0  0
  2  1  1  0  0  0  0
  2  6  1  0  0  0  0
  4  7  1  0  0  0  0
  5  3  2  0  0  0  0
  6  5  1  0  0  0  0
  6  4  1  0  0  0  0
  7 14  1  0  0  0  0
  8  7  2  0  0  0  0
  9 15  1  0  0  0  0
 10 12  1  0  0  0  0
 10 16  2  0  0  0  0
 12 17  1  0  0  0  0
 14  9  2  0  0  0  0
 14 10  1  0  0  0  0
 15 11  2  0  0  0  0
 16 11  1  0  0  0  0
 16 13  1  0  0  0  0
 17 13  2  0  0  0  0
 19 20  1  0  0  0  0
 19 18  1  0  0  0  0
 19 21  1  1  0  0  0
 20 18  1  0  0  0  0
 20  9  1  1  0  0  0
 22 19  1  0  0  0  0
 23 29  1  0  0  0  0
 23 26  1  0  0  0  0
 25 30  1  0  0  0  0
 26 30  1  0  0  0  0
 28 23  2  0  0  0  0
 29 24  1  6  0  0  0
 29 25  1  0  0  0  0
 30 31  1  0  0  0  0
 31 22  1  0  0  0  0
 31 27  2  0  0  0  0
 32  5  1  0  0  0  0
 32 33  1  1  0  0  0
 34 32  1  0  0  0  0
 35 34  1  0  0  0  0
 36 35  1  0  0  0  0
 37 36  1  0  0  0  0
 38 37  1  0  0  0  0
 39 47  1  0  0  0  0
 41 46  1  6  0  0  0
 41 42  1  0  0  0  0
 41 45  1  0  0  0  0
 42 43  1  0  0  0  0
 43 39  1  6  0  0  0
 43 48  1  0  0  0  0
 44 49  1  0  0  0  0
 44 48  1  0  0  0  0
 44 50  1  1  0  0  0
 45 44  1  0  0  0  0
 47 49  1  0  0  0  0
 48 40  1  1  0  0  0
 49 48  1  0  0  0  0
 49 38  1  1  0  0  0
M  END
>  <MODEL>
5

>  <REMARK>
 VINA RESULT:      -6.2      3.706      7.335
  Name = 
  11 active torsions:
  status: ('A' for Active; 'I' for Inactive)
    1  A    between atoms: C_1  and  C_25
    2  A    between atoms: C_3  and  C_43
    3  A    between atoms: C_3  and  C_44
    4  A    between atoms: C_9  and  C_33
    5  A    between atoms: C_12  and  C_28
    6  A    between atoms: C_12  and  C_34
    7  A    between atoms: C_24  and  C_49
    8  A    between atoms: C_28  and  C_43
    9  A    between atoms: C_33  and  C_48
   10  A    between atoms: C_34  and  O_36
   11  A    between atoms: O_36  and  C_40
                            x       y       z     vdW  Elec       q    Type
                         _______ _______ _______ _____ _____    ______ ____

>  <TORSDO>
F 11

$$$$
=
 OpenBabel11042422093D

 50 57  0  0  1  0  0  0  0  0999 V2000
  160.3910  204.6480  149.2570 C   0  0  0  0  0  2  0  0  0  0  0  0
  161.6330  204.4310  148.3940 C   0  0  0  0  0  2  0  0  0  0  0  0
  160.3740  206.7420  146.7150 O   0  0  0  0  0  0  0  0  0  0  0  0
  162.5080  206.6700  148.9180 C   0  0  0  0  0  2  0  0  0  0  0  0
  161.5240  206.2230  146.6910 C   0  0  0  0  0  0  0  0  0  0  0  0
  162.0950  205.7190  147.8950 N   0  0  0  0  0  0  0  0  0  0  0  0
  161.4170  206.8530  149.9510 C   0  0  0  0  0  0  0  0  0  0  0  0
  160.4880  205.8920  150.1100 C   0  0  0  0  0  3  0  0  0  0  0  0
  161.5580  209.4130  150.2940 C   0  0  0  0  0  0  0  0  0  0  0  0
  161.2900  207.9580  152.1940 C   0  0  0  0  0  0  0  0  0  0  0  0
  161.4810  210.2970  152.5590 N   0  0  0  0  0  0  0  0  0  0  0  0
  161.1600  206.8690  152.9140 O   0  0  0  0  0  0  0  0  0  0  0  0
  161.2020  208.6080  154.3200 C   0  0  0  0  0  3  0  0  0  0  0  0
  161.4080  208.0810  150.8000 C   0  0  0  0  0  0  0  0  0  0  0  0
  161.6050  210.4960  151.2170 C   0  0  0  0  0  3  0  0  0  0  0  0
  161.3190  209.0350  153.0190 C   0  0  0  0  0  0  0  0  0  0  0  0
  161.1010  207.2180  154.1880 C   0  0  0  0  0  3  0  0  0  0  0  0
  162.9060  210.4990  148.4050 C   0  0  0  0  0  2  0  0  0  0  0  0
  161.5140  211.1050  148.3460 C   0  0  1  0  0  0  0  0  0  0  0  0
  161.6770  209.6610  148.7950 C   0  0  2  0  0  3  0  0  0  0  0  0
  161.2090  212.0310  149.3550 O   0  0  0  0  0  1  0  0  0  0  0  0
  160.9010  211.2930  146.9610 C   0  0  0  0  0  2  0  0  0  0  0  0
  159.5970  213.3360  143.1990 C   0  0  0  0  0  0  0  0  0  0  0  0
  161.4610  214.4280  142.0060 C   0  0  0  0  0  1  0  0  0  0  0  0
  161.8110  212.8540  143.8920 C   0  0  0  0  0  2  0  0  0  0  0  0
  159.5230  213.1600  144.6650 C   0  0  0  0  0  2  0  0  0  0  0  0
  162.0470  213.3850  147.0020 O   0  0  0  0  0  0  0  0  0  0  0  0
  158.6440  213.6690  142.5090 O   0  0  0  0  0  0  0  0  0  0  0  0
  160.9720  213.1460  142.6530 C   0  0  1  0  0  3  0  0  0  0  0  0
  160.9060  212.9260  145.0300 N   0  0  0  0  0  0  0  0  0  0  0  0
  161.3130  212.5940  146.3530 C   0  0  0  0  0  0  0  0  0  0  0  0
  162.2560  206.0570  145.3940 C   0  0  1  0  0  3  0  0  0  0  0  0
  163.2120  204.9730  145.5160 N   0  0  0  0  0  1  0  0  0  0  0  0
  161.3030  205.7560  144.2470 C   0  0  0  0  0  2  0  0  0  0  0  0
  162.0430  205.6830  142.9180 C   0  0  0  0  0  2  0  0  0  0  0  0
  161.3440  206.5310  141.8700 C   0  0  0  0  0  2  0  0  0  0  0  0
  162.3430  206.9370  140.7960 C   0  0  0  0  0  2  0  0  0  0  0  0
  161.6950  207.2410  139.5850 O   0  0  0  0  0  0  0  0  0  0  0  0
  162.9310  210.5700  139.8880 C   0  0  0  0  0  2  0  0  0  0  0  0
  162.2750  208.5090  137.1650 O   0  0  0  0  0  1  0  0  0  0  0  0
  160.3830  211.5860  139.1900 C   0  0  2  0  0  3  0  0  0  0  0  0
  161.4620  211.7380  138.2890 O   0  0  0  0  0  0  0  0  0  0  0  0
  162.3930  210.6750  138.4560 C   0  0  2  0  0  3  0  0  0  0  0  0
  160.3190  209.0840  138.6170 C   0  0  1  0  0  0  0  0  0  0  0  0
  159.5110  210.3710  138.8490 C   0  0  0  0  0  2  0  0  0  0  0  0
  159.5250  212.8390  139.1840 C   0  0  0  0  0  1  0  0  0  0  0  0
  162.0530  209.5440  140.5960 C   0  0  0  0  0  2  0  0  0  0  0  0
  161.7440  209.3300  138.1590 C   0  0  1  0  0  0  0  0  0  0  0  0
  161.5010  208.6410  139.4960 C   0  0  1  0  0  0  0  0  0  0  0  0
  159.6840  208.0730  137.8920 O   0  0  0  0  0  1  0  0  0  0  0  0
  1  8  1  0  0  0  0
  2  1  1  0  0  0  0
  4  7  1  0  0  0  0
  5  3  2  0  0  0  0
  5  6  1  0  0  0  0
  6  2  1  0  0  0  0
  6  4  1  0  0  0  0
  7  8  2  0  0  0  0
  7 14  1  0  0  0  0
  9 14  2  0  0  0  0
  9 15  1  0  0  0  0
 10 12  1  0  0  0  0
 10 16  2  0  0  0  0
 11 16  1  0  0  0  0
 12 17  1  0  0  0  0
 14 10  1  0  0  0  0
 15 11  2  0  0  0  0
 16 13  1  0  0  0  0
 17 13  2  0  0  0  0
 18 20  1  0  0  0  0
 19 18  1  0  0  0  0
 19 20  1  0  0  0  0
 19 21  1  1  0  0  0
 20  9  1  1  0  0  0
 22 19  1  0  0  0  0
 23 26  1  0  0  0  0
 25 30  1  0  0  0  0
 26 30  1  0  0  0  0
 28 23  2  0  0  0  0
 29 24  1  1  0  0  0
 29 23  1  0  0  0  0
 29 25  1  0  0  0  0
 30 31  1  0  0  0  0
 31 22  1  0  0  0  0
 31 27  2  0  0  0  0
 32 33  1  1  0  0  0
 32  5  1  0  0  0  0
 34 32  1  0  0  0  0
 35 34  1  0  0  0  0
 36 35  1  0  0  0  0
 37 36  1  0  0  0  0
 38 37  1  0  0  0  0
 39 47  1  0  0  0  0
 41 46  1  6  0  0  0
 42 43  1  0  0  0  0
 42 41  1  0  0  0  0
 43 39  1  1  0  0  0
 44 50  1  6  0  0  0
 44 45  1  0  0  0  0
 44 49  1  0  0  0  0
 45 41  1  0  0  0  0
 48 40  1  6  0  0  0
 48 43  1  0  0  0  0
 48 44  1  0  0  0  0
 48 49  1  0  0  0  0
 49 38  1  1  0  0  0
 49 47  1  0  0  0  0
M  END
>  <MODEL>
6

>  <REMARK>
 VINA RESULT:      -5.4      2.856      5.833
  Name = 
  11 active torsions:
  status: ('A' for Active; 'I' for Inactive)
    1  A    between atoms: C_1  and  C_25
    2  A    between atoms: C_3  and  C_43
    3  A    between atoms: C_3  and  C_44
    4  A    between atoms: C_9  and  C_33
    5  A    between atoms: C_12  and  C_28
    6  A    between atoms: C_12  and  C_34
    7  A    between atoms: C_24  and  C_49
    8  A    between atoms: C_28  and  C_43
    9  A    between atoms: C_33  and  C_48
   10  A    between atoms: C_34  and  O_36
   11  A    between atoms: O_36  and  C_40
                            x       y       z     vdW  Elec       q    Type
                         _______ _______ _______ _____ _____    ______ ____

>  <TORSDO>
F 11

$$$$
=
 OpenBabel11042422093D

 50 57  0  0  1  0  0  0  0  0999 V2000
  161.9330  209.1900  148.3740 C   0  0  0  0  0  2  0  0  0  0  0  0
  162.6720  210.5240  148.4630 C   0  0  0  0  0  2  0  0  0  0  0  0
  159.8820  211.5440  149.4210 O   0  0  0  0  0  0  0  0  0  0  0  0
  162.4020  210.6220  150.9060 C   0  0  0  0  0  2  0  0  0  0  0  0
  161.0240  212.0800  149.4560 C   0  0  0  0  0  0  0  0  0  0  0  0
  162.1800  211.2630  149.6170 N   0  0  0  0  0  0  0  0  0  0  0  0
  161.8620  209.2090  150.9020 C   0  0  0  0  0  0  0  0  0  0  0  0
  161.6980  208.5660  149.7310 C   0  0  0  0  0  3  0  0  0  0  0  0
  161.2360  207.1460  152.3330 C   0  0  0  0  0  0  0  0  0  0  0  0
  161.5160  209.2970  153.3800 C   0  0  0  0  0  0  0  0  0  0  0  0
  160.8770  207.4420  154.7200 N   0  0  0  0  0  0  0  0  0  0  0  0
  161.7440  210.5780  153.5400 O   0  0  0  0  0  0  0  0  0  0  0  0
  161.2250  209.7290  155.5430 C   0  0  0  0  0  3  0  0  0  0  0  0
  161.5520  208.5380  152.1990 C   0  0  0  0  0  0  0  0  0  0  0  0
  160.8870  206.6420  153.6170 C   0  0  0  0  0  3  0  0  0  0  0  0
  161.1980  208.7490  154.5810 C   0  0  0  0  0  0  0  0  0  0  0  0
  161.5830  210.8730  154.8190 C   0  0  0  0  0  3  0  0  0  0  0  0
  159.9590  205.4370  150.9130 C   0  0  0  0  0  2  0  0  0  0  0  0
  161.2140  204.7370  151.4090 C   0  0  1  0  0  0  0  0  0  0  0  0
  161.2620  206.2290  151.1160 C   0  0  2  0  0  3  0  0  0  0  0  0
  161.2160  204.3770  152.7640 O   0  0  0  0  0  1  0  0  0  0  0  0
  161.9510  203.8510  150.4070 C   0  0  0  0  0  2  0  0  0  0  0  0
  162.3400  205.3730  146.2180 C   0  0  0  0  0  0  0  0  0  0  0  0
  160.1650  205.9210  145.1910 C   0  0  0  0  0  1  0  0  0  0  0  0
  160.4260  205.4450  147.6110 C   0  0  0  0  0  2  0  0  0  0  0  0
  162.5510  204.3200  147.2340 C   0  0  0  0  0  2  0  0  0  0  0  0
  160.2230  202.7220  149.2090 O   0  0  0  0  0  0  0  0  0  0  0  0
  163.1030  205.5740  145.2820 O   0  0  0  0  0  0  0  0  0  0  0  0
  161.0600  206.1160  146.3990 C   0  0  1  0  0  3  0  0  0  0  0  0
  161.3310  204.3780  148.0130 N   0  0  0  0  0  0  0  0  0  0  0  0
  161.1240  203.6010  149.1880 C   0  0  0  0  0  0  0  0  0  0  0  0
  161.1780  213.5550  149.2460 C   0  0  1  0  0  3  0  0  0  0  0  0
  162.4640  213.8220  148.6300 N   0  0  0  0  0  1  0  0  0  0  0  0
  160.0750  214.1140  148.3590 C   0  0  0  0  0  2  0  0  0  0  0  0
  160.5910  214.4160  146.9590 C   0  0  0  0  0  2  0  0  0  0  0  0
  160.1350  213.3480  145.9790 C   0  0  0  0  0  2  0  0  0  0  0  0
  159.8530  213.9870  144.6270 C   0  0  0  0  0  2  0  0  0  0  0  0
  160.9480  213.8440  143.7560 O   0  0  0  0  0  0  0  0  0  0  0  0
  159.0020  214.1320  140.7840 C   0  0  0  0  0  2  0  0  0  0  0  0
  162.4000  214.4530  141.4500 O   0  0  0  0  0  1  0  0  0  0  0  0
  159.8380  211.5510  139.9790 C   0  0  2  0  0  3  0  0  0  0  0  0
  160.2930  212.6830  139.2640 O   0  0  0  0  0  0  0  0  0  0  0  0
  160.3490  213.8150  140.1240 C   0  0  2  0  0  3  0  0  0  0  0  0
  161.3850  212.2140  141.9180 C   0  0  1  0  0  0  0  0  0  0  0  0
  160.8560  211.0800  141.0250 C   0  0  0  0  0  2  0  0  0  0  0  0
  159.5440  210.4160  139.0150 C   0  0  0  0  0  1  0  0  0  0  0  0
  159.0250  213.4450  142.1450 C   0  0  0  0  0  2  0  0  0  0  0  0
  161.3260  213.5830  141.2690 C   0  0  1  0  0  0  0  0  0  0  0  0
  160.4990  213.3170  142.5210 C   0  0  1  0  0  0  0  0  0  0  0  0
  162.5950  211.9760  142.5730 O   0  0  0  0  0  1  0  0  0  0  0  0
  1  2  1  0  0  0  0
  1  8  1  0  0  0  0
  2  6  1  0  0  0  0
  3  5  2  0  0  0  0
  5  6  1  0  0  0  0
  6  4  1  0  0  0  0
  7  4  1  0  0  0  0
  7 14  1  0  0  0  0
  8  7  2  0  0  0  0
  9 15  1  0  0  0  0
 10 12  1  0  0  0  0
 10 16  2  0  0  0  0
 12 17  1  0  0  0  0
 14  9  2  0  0  0  0
 14 10  1  0  0  0  0
 15 11  2  0  0  0  0
 16 11  1  0  0  0  0
 16 13  1  0  0  0  0
 17 13  2  0  0  0  0
 18 20  1  0  0  0  0
 18 19  1  0  0  0  0
 19 21  1  1  0  0  0
 20 19  1  0  0  0  0
 20  9  1  1  0  0  0
 22 19  1  0  0  0  0
 23 29  1  0  0  0  0
 23 26  1  0  0  0  0
 25 30  1  0  0  0  0
 26 30  1  0  0  0  0
 28 23  2  0  0  0  0
 29 24  1  6  0  0  0
 29 25  1  0  0  0  0
 30 31  1  0  0  0  0
 31 27  2  0  0  0  0
 31 22  1  0  0  0  0
 32 33  1  6  0  0  0
 32  5  1  0  0  0  0
 34 32  1  0  0  0  0
 35 34  1  0  0  0  0
 36 35  1  0  0  0  0
 37 36  1  0  0  0  0
 38 37  1  0  0  0  0
 39 47  1  0  0  0  0
 41 46  1  6  0  0  0
 41 45  1  0  0  0  0
 42 41  1  0  0  0  0
 42 43  1  0  0  0  0
 43 39  1  1  0  0  0
 43 48  1  0  0  0  0
 44 49  1  0  0  0  0
 44 50  1  1  0  0  0
 45 44  1  0  0  0  0
 47 49  1  0  0  0  0
 48 40  1  1  0  0  0
 48 44  1  0  0  0  0
 48 49  1  0  0  0  0
 49 38  1  1  0  0  0
M  END
>  <MODEL>
7

>  <REMARK>
 VINA RESULT:      -5.0      3.271      7.460
  Name = 
  11 active torsions:
  status: ('A' for Active; 'I' for Inactive)
    1  A    between atoms: C_1  and  C_25
    2  A    between atoms: C_3  and  C_43
    3  A    between atoms: C_3  and  C_44
    4  A    between atoms: C_9  and  C_33
    5  A    between atoms: C_12  and  C_28
    6  A    between atoms: C_12  and  C_34
    7  A    between atoms: C_24  and  C_49
    8  A    between atoms: C_28  and  C_43
    9  A    between atoms: C_33  and  C_48
   10  A    between atoms: C_34  and  O_36
   11  A    between atoms: O_36  and  C_40
                            x       y       z     vdW  Elec       q    Type
                         _______ _______ _______ _____ _____    ______ ____

>  <TORSDO>
F 11

$$$$
=
 OpenBabel11042422093D

 50 57  0  0  1  0  0  0  0  0999 V2000
  162.3410  209.0460  150.1540 C   0  0  0  0  0  2  0  0  0  0  0  0
  161.4670  207.8700  150.5890 C   0  0  0  0  0  2  0  0  0  0  0  0
  162.5160  208.6620  153.4200 O   0  0  0  0  0  0  0  0  0  0  0  0
  159.9590  209.3340  151.8650 C   0  0  0  0  0  2  0  0  0  0  0  0
  161.5800  207.8960  153.0610 C   0  0  0  0  0  0  0  0  0  0  0  0
  160.8510  208.1840  151.8700 N   0  0  0  0  0  0  0  0  0  0  0  0
  160.6530  210.5490  151.2900 C   0  0  0  0  0  0  0  0  0  0  0  0
  161.7140  210.3830  150.4780 C   0  0  0  0  0  3  0  0  0  0  0  0
  160.3760  213.0750  150.8050 C   0  0  0  0  0  0  0  0  0  0  0  0
  159.3810  212.1130  152.7760 C   0  0  0  0  0  0  0  0  0  0  0  0
  159.1580  214.4480  152.4020 N   0  0  0  0  0  0  0  0  0  0  0  0
  159.0280  211.2360  153.6860 O   0  0  0  0  0  0  0  0  0  0  0  0
  158.2410  213.2280  154.3270 C   0  0  0  0  0  3  0  0  0  0  0  0
  160.1300  211.9120  151.6050 C   0  0  0  0  0  0  0  0  0  0  0  0
  159.8810  214.3330  151.2530 C   0  0  0  0  0  3  0  0  0  0  0  0
  158.9170  213.3360  153.1350 C   0  0  0  0  0  0  0  0  0  0  0  0
  158.3440  211.8650  154.6250 C   0  0  0  0  0  3  0  0  0  0  0  0
  161.2570  214.2900  148.7280 C   0  0  0  0  0  2  0  0  0  0  0  0
  160.3650  213.1660  148.2260 C   0  0  1  0  0  0  0  0  0  0  0  0
  161.1640  212.9660  149.5050 C   0  0  2  0  0  3  0  0  0  0  0  0
  158.9860  213.3640  148.3880 O   0  0  0  0  0  1  0  0  0  0  0  0
  160.8630  212.3790  147.0160 C   0  0  0  0  0  2  0  0  0  0  0  0
  159.3910  213.1650  142.8640 C   0  0  0  0  0  0  0  0  0  0  0  0
  161.2230  213.4190  141.2300 C   0  0  0  0  0  1  0  0  0  0  0  0
  161.5860  212.5740  143.5340 C   0  0  0  0  0  2  0  0  0  0  0  0
  159.4810  213.5320  144.2930 C   0  0  0  0  0  2  0  0  0  0  0  0
  162.2870  214.1150  146.2070 O   0  0  0  0  0  0  0  0  0  0  0  0
  158.4140  213.3970  142.1660 O   0  0  0  0  0  0  0  0  0  0  0  0
  160.6460  212.5550  142.3350 C   0  0  1  0  0  3  0  0  0  0  0  0
  160.8520  213.2000  144.6240 N   0  0  0  0  0  0  0  0  0  0  0  0
  161.3730  213.2880  145.9460 C   0  0  0  0  0  0  0  0  0  0  0  0
  161.2860  206.6430  153.8280 C   0  0  1  0  0  3  0  0  0  0  0  0
  160.4580  206.9640  154.9750 N   0  0  0  0  0  1  0  0  0  0  0  0
  160.5680  205.6140  152.9680 C   0  0  0  0  0  2  0  0  0  0  0  0
  161.5580  204.7180  152.2370 C   0  0  0  0  0  2  0  0  0  0  0  0
  160.8250  203.6970  151.3830 C   0  0  0  0  0  2  0  0  0  0  0  0
  160.4460  204.3270  150.0510 C   0  0  0  0  0  2  0  0  0  0  0  0
  160.7010  203.4520  148.9800 O   0  0  0  0  0  0  0  0  0  0  0  0
  162.2120  206.3060  147.4740 C   0  0  0  0  0  2  0  0  0  0  0  0
  163.1690  202.9750  147.7630 O   0  0  0  0  0  1  0  0  0  0  0  0
  161.3860  205.4040  144.9210 C   0  0  2  0  0  3  0  0  0  0  0  0
  162.7620  205.3970  145.2490 O   0  0  0  0  0  0  0  0  0  0  0  0
  162.9300  205.2290  146.6520 C   0  0  2  0  0  3  0  0  0  0  0  0
  161.0480  203.4150  146.5090 C   0  0  1  0  0  0  0  0  0  0  0  0
  160.7340  204.0330  145.1370 C   0  0  0  0  0  2  0  0  0  0  0  0
  161.2020  205.8270  143.4750 C   0  0  0  0  0  1  0  0  0  0  0  0
  160.8550  205.7190  147.8470 C   0  0  0  0  0  2  0  0  0  0  0  0
  162.3500  203.9000  147.1160 C   0  0  1  0  0  0  0  0  0  0  0  0
  161.0390  204.2040  147.8290 C   0  0  1  0  0  0  0  0  0  0  0  0
  160.8790  202.0330  146.6220 O   0  0  0  0  0  1  0  0  0  0  0  0
  1  8  1  0  0  0  0
  1  2  1  0  0  0  0
  2  6  1  0  0  0  0
  4  6  1  0  0  0  0
  5  3  2  0  0  0  0
  5 32  1  0  0  0  0
  6  5  1  0  0  0  0
  7 14  1  0  0  0  0
  7  4  1  0  0  0  0
  8  7  2  0  0  0  0
  9 15  2  0  0  0  0
  9 14  1  0  0  0  0
 10 16  1  0  0  0  0
 10 12  1  0  0  0  0
 11 16  2  0  0  0  0
 12 17  1  0  0  0  0
 13 17  2  0  0  0  0
 14 10  2  0  0  0  0
 15 11  1  0  0  0  0
 16 13  1  0  0  0  0
 18 20  1  0  0  0  0
 19 21  1  1  0  0  0
 19 18  1  0  0  0  0
 19 20  1  0  0  0  0
 20  9  1  1  0  0  0
 22 19  1  0  0  0  0
 23 26  1  0  0  0  0
 25 30  1  0  0  0  0
 26 30  1  0  0  0  0
 28 23  2  0  0  0  0
 29 24  1  6  0  0  0
 29 23  1  0  0  0  0
 29 25  1  0  0  0  0
 30 31  1  0  0  0  0
 31 27  2  0  0  0  0
 31 22  1  0  0  0  0
 32 33  1  1  0  0  0
 34 32  1  0  0  0  0
 35 34  1  0  0  0  0
 36 35  1  0  0  0  0
 37 36  1  0  0  0  0
 38 37  1  0  0  0  0
 39 47  1  0  0  0  0
 41 46  1  6  0  0  0
 41 45  1  0  0  0  0
 41 42  1  0  0  0  0
 42 43  1  0  0  0  0
 43 48  1  0  0  0  0
 43 39  1  1  0  0  0
 44 50  1  1  0  0  0
 44 48  1  0  0  0  0
 44 49  1  0  0  0  0
 45 44  1  0  0  0  0
 48 40  1  1  0  0  0
 48 49  1  0  0  0  0
 49 47  1  0  0  0  0
 49 38  1  1  0  0  0
M  END
>  <MODEL>
8

>  <REMARK>
 VINA RESULT:      -4.5      3.444      9.357
  Name = 
  11 active torsions:
  status: ('A' for Active; 'I' for Inactive)
    1  A    between atoms: C_1  and  C_25
    2  A    between atoms: C_3  and  C_43
    3  A    between atoms: C_3  and  C_44
    4  A    between atoms: C_9  and  C_33
    5  A    between atoms: C_12  and  C_28
    6  A    between atoms: C_12  and  C_34
    7  A    between atoms: C_24  and  C_49
    8  A    between atoms: C_28  and  C_43
    9  A    between atoms: C_33  and  C_48
   10  A    between atoms: C_34  and  O_36
   11  A    between atoms: O_36  and  C_40
                            x       y       z     vdW  Elec       q    Type
                         _______ _______ _______ _____ _____    ______ ____

>  <TORSDO>
F 11

$$$$
=
 OpenBabel11042422093D

 50 57  0  0  1  0  0  0  0  0999 V2000
  162.6180  214.2300  148.6860 C   0  0  0  0  0  2  0  0  0  0  0  0
  163.1070  212.8020  148.4450 C   0  0  0  0  0  2  0  0  0  0  0  0
  161.2050  212.1780  150.8400 O   0  0  0  0  0  0  0  0  0  0  0  0
  160.8610  212.0380  147.7950 C   0  0  0  0  0  2  0  0  0  0  0  0
  161.7780  211.4210  150.0100 C   0  0  0  0  0  0  0  0  0  0  0  0
  162.0070  211.8770  148.6790 N   0  0  0  0  0  0  0  0  0  0  0  0
  160.3720  213.4690  147.8060 C   0  0  0  0  0  0  0  0  0  0  0  0
  161.2110  214.4530  148.1780 C   0  0  0  0  0  3  0  0  0  0  0  0
  157.8850  214.0150  148.2670 C   0  0  0  0  0  0  0  0  0  0  0  0
  158.6650  213.7840  146.0000 C   0  0  0  0  0  0  0  0  0  0  0  0
  156.3620  214.2210  146.3820 N   0  0  0  0  0  0  0  0  0  0  0  0
  159.4590  213.5790  144.9760 O   0  0  0  0  0  0  0  0  0  0  0  0
  157.4030  213.9440  144.1760 C   0  0  0  0  0  3  0  0  0  0  0  0
  158.9760  213.7720  147.3700 C   0  0  0  0  0  0  0  0  0  0  0  0
  156.5850  214.2210  147.7260 C   0  0  0  0  0  3  0  0  0  0  0  0
  157.4060  214.0110  145.5480 C   0  0  0  0  0  0  0  0  0  0  0  0
  158.7410  213.6690  143.8700 C   0  0  0  0  0  3  0  0  0  0  0  0
  157.9510  212.6670  150.4450 C   0  0  0  0  0  2  0  0  0  0  0  0
  156.8980  213.7470  150.6370 C   0  0  1  0  0  0  0  0  0  0  0  0
  158.1160  214.0410  149.7740 C   0  0  2  0  0  3  0  0  0  0  0  0
  155.6920  213.5500  149.9480 O   0  0  0  0  0  1  0  0  0  0  0  0
  156.8710  214.4520  151.9900 C   0  0  0  0  0  2  0  0  0  0  0  0
  159.4710  212.7850  155.2280 C   0  0  0  0  0  0  0  0  0  0  0  0
  159.0280  210.4000  155.6800 C   0  0  0  0  0  1  0  0  0  0  0  0
  158.1080  211.5860  153.7050 C   0  0  0  0  0  2  0  0  0  0  0  0
  158.4600  213.7540  154.7540 C   0  0  0  0  0  2  0  0  0  0  0  0
  155.3830  213.1480  153.3240 O   0  0  0  0  0  0  0  0  0  0  0  0
  160.3020  213.0410  156.0880 O   0  0  0  0  0  0  0  0  0  0  0  0
  159.3240  211.4350  154.6120 C   0  0  1  0  0  3  0  0  0  0  0  0
  157.6320  212.9510  153.8780 N   0  0  0  0  0  0  0  0  0  0  0  0
  156.5720  213.4960  153.0980 C   0  0  0  0  0  0  0  0  0  0  0  0
  162.2950  210.0800  150.4350 C   0  0  1  0  0  3  0  0  0  0  0  0
  161.8280  209.7860  151.7760 N   0  0  0  0  0  1  0  0  0  0  0  0
  161.8320  208.9770  149.4940 C   0  0  0  0  0  2  0  0  0  0  0  0
  161.1240  207.8640  150.2520 C   0  0  0  0  0  2  0  0  0  0  0  0
  161.9930  206.6200  150.3120 C   0  0  0  0  0  2  0  0  0  0  0  0
  161.5320  205.6260  149.2540 C   0  0  0  0  0  2  0  0  0  0  0  0
  162.2600  205.7760  148.0610 O   0  0  0  0  0  0  0  0  0  0  0  0
  160.1630  206.4460  145.2590 C   0  0  0  0  0  2  0  0  0  0  0  0
  163.4900  205.4850  145.5710 O   0  0  0  0  0  1  0  0  0  0  0  0
  159.8440  203.6680  144.8250 C   0  0  2  0  0  3  0  0  0  0  0  0
  160.5840  204.4360  143.8960 O   0  0  0  0  0  0  0  0  0  0  0  0
  161.1830  205.5490  144.5480 C   0  0  2  0  0  3  0  0  0  0  0  0
  161.7870  203.8980  146.4880 C   0  0  1  0  0  0  0  0  0  0  0  0
  160.7490  202.9640  145.8440 C   0  0  0  0  0  2  0  0  0  0  0  0
  159.0120  202.6320  144.0910 C   0  0  0  0  0  1  0  0  0  0  0  0
  160.1200  205.9730  146.7080 C   0  0  0  0  0  2  0  0  0  0  0  0
  162.1530  205.0910  145.6290 C   0  0  1  0  0  0  0  0  0  0  0  0
  161.4750  205.3240  146.9730 C   0  0  1  0  0  0  0  0  0  0  0  0
  162.8990  203.2840  147.0680 O   0  0  0  0  0  1  0  0  0  0  0  0
  2  6  1  0  0  0  0
  2  1  1  0  0  0  0
  4  7  1  0  0  0  0
  4  6  1  0  0  0  0
  5 32  1  0  0  0  0
  5  3  2  0  0  0  0
  6  5  1  0  0  0  0
  7  8  2  0  0  0  0
  8  1  1  0  0  0  0
 10 14  1  0  0  0  0
 11 15  2  0  0  0  0
 12 10  1  0  0  0  0
 13 16  1  0  0  0  0
 14  7  1  0  0  0  0
 14  9  2  0  0  0  0
 15  9  1  0  0  0  0
 16 10  2  0  0  0  0
 16 11  1  0  0  0  0
 17 13  2  0  0  0  0
 17 12  1  0  0  0  0
 18 19  1  0  0  0  0
 19 21  1  6  0  0  0
 19 22  1  0  0  0  0
 20  9  1  6  0  0  0
 20 18  1  0  0  0  0
 20 19  1  0  0  0  0
 22 31  1  0  0  0  0
 23 28  2  0  0  0  0
 25 30  1  0  0  0  0
 25 29  1  0  0  0  0
 26 23  1  0  0  0  0
 29 23  1  0  0  0  0
 29 24  1  1  0  0  0
 30 26  1  0  0  0  0
 31 27  2  0  0  0  0
 31 30  1  0  0  0  0
 32 33  1  1  0  0  0
 34 35  1  0  0  0  0
 34 32  1  0  0  0  0
 35 36  1  0  0  0  0
 37 36  1  0  0  0  0
 38 37  1  0  0  0  0
 39 47  1  0  0  0  0
 41 46  1  6  0  0  0
 41 45  1  0  0  0  0
 42 43  1  0  0  0  0
 42 41  1  0  0  0  0
 43 39  1  1  0  0  0
 43 48  1  0  0  0  0
 44 49  1  0  0  0  0
 44 50  1  1  0  0  0
 45 44  1  0  0  0  0
 47 49  1  0  0  0  0
 48 40  1  6  0  0  0
 48 44  1  0  0  0  0
 48 49  1  0  0  0  0
 49 38  1  1  0  0  0
M  END
>  <MODEL>
9

>  <REMARK>
 VINA RESULT:      -4.5      4.323      8.380
  Name = 
  11 active torsions:
  status: ('A' for Active; 'I' for Inactive)
    1  A    between atoms: C_1  and  C_25
    2  A    between atoms: C_3  and  C_43
    3  A    between atoms: C_3  and  C_44
    4  A    between atoms: C_9  and  C_33
    5  A    between atoms: C_12  and  C_28
    6  A    between atoms: C_12  and  C_34
    7  A    between atoms: C_24  and  C_49
    8  A    between atoms: C_28  and  C_43
    9  A    between atoms: C_33  and  C_48
   10  A    between atoms: C_34  and  O_36
   11  A    between atoms: O_36  and  C_40
                            x       y       z     vdW  Elec       q    Type
                         _______ _______ _______ _____ _____    ______ ____

>  <TORSDO>
F 11

$$$$
