=
 OpenBabel11052410383D

 47 51  0  0  1  0  0  0  0  0999 V2000
  159.5490  212.0350  153.9620 C   0  0  2  0  0  3  0  0  0  0  0  0
  157.0730  212.0370  154.3100 C   0  0  0  0  0  3  0  0  0  0  0  0
  157.3580  212.7610  156.9970 C   0  0  0  0  0  3  0  0  0  0  0  0
  158.3520  212.2290  154.8460 C   0  0  0  0  0  0  0  0  0  0  0  0
  158.4900  212.5910  156.1960 C   0  0  0  0  0  3  0  0  0  0  0  0
  154.9590  212.7400  157.2500 O   0  0  0  0  0  1  0  0  0  0  0  0
  155.9410  212.2090  155.1120 C   0  0  0  0  0  3  0  0  0  0  0  0
  156.0830  212.5700  156.4550 C   0  0  0  0  0  0  0  0  0  0  0  0
  158.4200  213.7080  152.4090 C   0  0  0  0  0  2  0  0  0  0  0  0
  159.4500  212.8460  152.7090 C   0  0  0  0  0  0  0  0  0  0  0  0
  158.6870  214.2600  151.2100 N   0  0  0  0  0  0  0  0  0  0  0  0
  159.8560  213.7090  150.8310 C   0  0  0  0  0  0  0  0  0  0  0  0
  160.3660  212.8400  151.7240 N   0  0  0  0  0  0  0  0  0  0  0  0
  160.5540  214.0780  149.5650 C   0  0  0  0  0  2  0  0  0  0  0  0
  160.4670  213.1680  147.1940 C   0  0  0  0  0  0  0  0  0  0  0  0
  158.4260  213.3790  148.4690 C   0  0  0  0  0  3  0  0  0  0  0  0
  159.7440  212.6660  146.1540 N   0  0  0  0  0  0  0  0  0  0  0  0
  158.3950  212.5100  146.2260 C   0  0  0  0  0  0  0  0  0  0  0  0
  157.7110  212.8640  147.3890 C   0  0  0  0  0  3  0  0  0  0  0  0
  159.8100  213.5420  148.3820 C   0  0  0  0  0  0  0  0  0  0  0  0
  157.7170  212.0040  145.1690 F   0  0  0  0  0  0  0  0  0  0  0  0
  161.9500  213.3120  147.0560 C   0  0  0  0  0  3  0  0  0  0  0  0
  162.5900  212.2000  147.6020 O   0  0  0  0  0  1  0  0  0  0  0  0
  162.2960  213.4400  145.7100 O   0  0  0  0  0  1  0  0  0  0  0  0
  159.7950  210.5670  153.6400 C   0  0  0  0  0  2  0  0  0  0  0  0
  159.9820  209.8150  154.8690 N   0  0  0  0  0  2  0  0  0  0  0  0
  161.2510  207.9870  155.8200 C   0  0  0  0  0  2  0  0  0  0  0  0
  161.1410  208.9650  154.6680 C   0  0  1  0  0  3  0  0  0  0  0  0
  160.6770  207.5340  154.4950 C   0  0  1  0  0  3  0  0  0  0  0  0
  161.7320  206.7630  153.7260 C   0  0  0  0  0  2  0  0  0  0  0  0
  161.1450  206.2250  152.4220 C   0  0  2  0  0  3  0  0  0  0  0  0
  161.9860  205.2910  151.7750 O   0  0  0  0  0  0  0  0  0  0  0  0
  161.3210  204.0560  151.6840 C   0  0  0  0  0  1  0  0  0  0  0  0
  160.6680  207.3590  151.5050 C   0  0  0  0  0  2  0  0  0  0  0  0
  161.7210  207.8160  150.4930 C   0  0  2  0  0  3  0  0  0  0  0  0
  161.9260  210.1200  149.8380 F   0  0  0  0  0  0  0  0  0  0  0  0
  162.2760  209.2040  150.8140 C   0  0  0  0  0  2  0  0  0  0  0  0
  161.2350  207.6970  149.0490 C   0  0  0  0  0  2  0  0  0  0  0  0
  162.1980  206.8770  148.2040 C   0  0  0  0  0  2  0  0  0  0  0  0
  160.7000  206.0840  146.4040 C   0  0  1  0  0  3  0  0  0  0  0  0
  161.8550  207.0080  146.7220 C   0  0  2  0  0  3  0  0  0  0  0  0
  159.9350  206.6420  145.3810 O   0  0  0  0  0  1  0  0  0  0  0  0
  162.0820  205.7490  145.8690 C   0  0  1  0  0  3  0  0  0  0  0  0
  162.6820  204.5730  146.5970 C   0  0  0  0  0  0  0  0  0  0  0  0
  163.8790  204.3400  146.5100 O   0  0  0  0  0  0  0  0  0  0  0  0
  161.3160  202.6450  146.7140 O   0  0  0  0  0  1  0  0  0  0  0  0
  161.8200  203.7090  147.4600 C   0  0  0  0  0  2  0  0  0  0  0  0
  1 25  1  6  0  0  0
  1  4  1  0  0  0  0
  2  4  2  0  0  0  0
  2  7  1  0  0  0  0
  4  5  1  0  0  0  0
  5  3  2  0  0  0  0
  7  8  2  0  0  0  0
  8  3  1  0  0  0  0
  8  6  1  0  0  0  0
  9 10  1  0  0  0  0
 10  1  1  0  0  0  0
 11  9  1  0  0  0  0
 12 11  2  0  0  0  0
 12 13  1  0  0  0  0
 13 10  2  0  0  0  0
 14 12  1  0  0  0  0
 15 20  1  0  0  0  0
 17 18  1  0  0  0  0
 17 15  2  0  0  0  0
 18 19  2  0  0  0  0
 19 16  1  0  0  0  0
 20 16  2  0  0  0  0
 20 14  1  0  0  0  0
 21 18  1  0  0  0  0
 22 15  1  0  0  0  0
 22 23  1  0  0  0  0
 24 22  1  0  0  0  0
 25 26  1  0  0  0  0
 28 26  1  1  0  0  0
 28 27  1  0  0  0  0
 29 30  1  6  0  0  0
 29 28  1  0  0  0  0
 29 27  1  0  0  0  0
 31 34  1  6  0  0  0
 31 30  1  0  0  0  0
 32 31  1  0  0  0  0
 33 32  1  0  0  0  0
 35 38  1  6  0  0  0
 35 37  1  0  0  0  0
 35 34  1  0  0  0  0
 36 37  1  0  0  0  0
 39 38  1  0  0  0  0
 40 42  1  6  0  0  0
 40 41  1  0  0  0  0
 41 39  1  1  0  0  0
 43 40  1  0  0  0  0
 43 44  1  1  0  0  0
 43 41  1  0  0  0  0
 44 47  1  0  0  0  0
 45 44  2  0  0  0  0
 46 47  1  0  0  0  0
M  END
>  <MODEL>
1

>  <REMARK>
 VINA RESULT:      -6.3      0.000      0.000
  Name = 
  19 active torsions:
  status: ('A' for Active; 'I' for Inactive)
    1  A    between atoms: C_2  and  C_40
    2  A    between atoms: C_2  and  C_47
    3  A    between atoms: C_7  and  CA_12
    4  A    between atoms: O_9  and  C_26
    5  A    between atoms: C_10  and  C_26
    6  A    between atoms: C_10  and  C_41
    7  A    between atoms: C_11  and  C_24
    8  A    between atoms: C_14  and  C_41
    9  A    between atoms: C_15  and  C_45
   10  A    between atoms: C_16  and  C_45
   11  A    between atoms: N_20  and  C_33
   12  A    between atoms: N_20  and  C_44
   13  A    between atoms: C_22  and  C_26
   14  A    between atoms: C_22  and  C_38
   15  A    between atoms: C_24  and  C_35
   16  A    between atoms: C_30  and  C_36
   17  A    between atoms: C_35  and  C_41
   18  A    between atoms: C_36  and  C_37
   19  A    between atoms: C_44  and  C_45
                            x       y       z     vdW  Elec       q    Type
                         _______ _______ _______ _____ _____    ______ ____

>  <TORSDO>
F 19

$$$$
=
 OpenBabel11052410383D

 47 51  0  0  1  0  0  0  0  0999 V2000
  161.4990  209.5230  152.3330 C   0  0  2  0  0  3  0  0  0  0  0  0
  160.7670  207.4870  153.5860 C   0  0  0  0  0  3  0  0  0  0  0  0
  161.0630  208.7830  156.0480 C   0  0  0  0  0  3  0  0  0  0  0  0
  161.1980  208.8180  153.6230 C   0  0  0  0  0  0  0  0  0  0  0  0
  161.3470  209.4640  154.8610 C   0  0  0  0  0  3  0  0  0  0  0  0
  160.3480  206.7770  157.1820 O   0  0  0  0  0  1  0  0  0  0  0  0
  160.4830  206.8070  154.7740 C   0  0  0  0  0  3  0  0  0  0  0  0
  160.6310  207.4540  156.0040 C   0  0  0  0  0  0  0  0  0  0  0  0
  159.4830  210.9880  152.8540 C   0  0  0  0  0  2  0  0  0  0  0  0
  160.6320  210.7270  152.1440 C   0  0  0  0  0  0  0  0  0  0  0  0
  158.9890  212.1610  152.4130 N   0  0  0  0  0  0  0  0  0  0  0  0
  159.8490  212.5580  151.4550 C   0  0  0  0  0  0  0  0  0  0  0  0
  160.8790  211.7120  151.2600 N   0  0  0  0  0  0  0  0  0  0  0  0
  159.7080  213.8490  150.7220 C   0  0  0  0  0  2  0  0  0  0  0  0
  159.8170  213.5630  148.2000 C   0  0  0  0  0  0  0  0  0  0  0  0
  157.6820  213.4470  149.3260 C   0  0  0  0  0  3  0  0  0  0  0  0
  159.1840  213.3370  147.0150 N   0  0  0  0  0  0  0  0  0  0  0  0
  157.8360  213.1680  146.9410 C   0  0  0  0  0  0  0  0  0  0  0  0
  157.0600  213.2190  148.0990 C   0  0  0  0  0  3  0  0  0  0  0  0
  159.0660  213.6270  149.3890 C   0  0  0  0  0  0  0  0  0  0  0  0
  157.2480  212.9440  145.7420 F   0  0  0  0  0  0  0  0  0  0  0  0
  161.3020  213.7370  148.2170 C   0  0  0  0  0  3  0  0  0  0  0  0
  161.9280  212.4920  148.2670 O   0  0  0  0  0  1  0  0  0  0  0  0
  161.7180  214.4260  147.0760 O   0  0  0  0  0  1  0  0  0  0  0  0
  161.4030  208.5920  151.1310 C   0  0  0  0  0  2  0  0  0  0  0  0
  162.1250  209.1600  150.0060 N   0  0  0  0  0  2  0  0  0  0  0  0
  163.0260  207.9040  148.1440 C   0  0  0  0  0  2  0  0  0  0  0  0
  161.7660  208.3770  148.8380 C   0  0  1  0  0  3  0  0  0  0  0  0
  162.2500  206.9550  149.0320 C   0  0  1  0  0  3  0  0  0  0  0  0
  161.4150  206.0280  148.1690 C   0  0  0  0  0  2  0  0  0  0  0  0
  162.0180  205.9260  146.7700 C   0  0  2  0  0  3  0  0  0  0  0  0
  161.0940  206.2190  145.7410 O   0  0  0  0  0  0  0  0  0  0  0  0
  159.8440  206.5100  146.3120 C   0  0  0  0  0  1  0  0  0  0  0  0
  162.7620  204.5990  146.5670 C   0  0  0  0  0  2  0  0  0  0  0  0
  161.8430  203.4270  146.2180 C   0  0  2  0  0  3  0  0  0  0  0  0
  160.2310  202.5950  144.6390 F   0  0  0  0  0  0  0  0  0  0  0  0
  161.0270  203.6830  144.9500 C   0  0  0  0  0  2  0  0  0  0  0  0
  160.9740  202.9940  147.3980 C   0  0  0  0  0  2  0  0  0  0  0  0
  161.8190  202.4540  148.5420 C   0  0  0  0  0  2  0  0  0  0  0  0
  159.5770  201.8810  149.4130 C   0  0  1  0  0  3  0  0  0  0  0  0
  161.0240  201.4420  149.3640 C   0  0  2  0  0  3  0  0  0  0  0  0
  158.7590  200.7560  149.4870 O   0  0  0  0  0  1  0  0  0  0  0  0
  160.4190  201.9730  150.6740 C   0  0  1  0  0  3  0  0  0  0  0  0
  160.7520  203.4040  151.0090 C   0  0  0  0  0  0  0  0  0  0  0  0
  160.1360  204.3200  150.4800 O   0  0  0  0  0  0  0  0  0  0  0  0
  162.1350  205.0650  151.9710 O   0  0  0  0  0  1  0  0  0  0  0  0
  161.8090  203.7100  152.0200 C   0  0  0  0  0  2  0  0  0  0  0  0
  1 25  1  6  0  0  0
  1  4  1  0  0  0  0
  2  4  2  0  0  0  0
  2  7  1  0  0  0  0
  4  5  1  0  0  0  0
  5  3  2  0  0  0  0
  7  8  2  0  0  0  0
  8  3  1  0  0  0  0
  8  6  1  0  0  0  0
 10  1  1  0  0  0  0
 10  9  1  0  0  0  0
 11  9  1  0  0  0  0
 12 11  2  0  0  0  0
 13 12  1  0  0  0  0
 13 10  2  0  0  0  0
 14 12  1  0  0  0  0
 15 22  1  0  0  0  0
 15 20  1  0  0  0  0
 16 20  2  0  0  0  0
 17 15  2  0  0  0  0
 18 17  1  0  0  0  0
 18 19  2  0  0  0  0
 19 16  1  0  0  0  0
 20 14  1  0  0  0  0
 21 18  1  0  0  0  0
 22 23  1  0  0  0  0
 24 22  1  0  0  0  0
 26 25  1  0  0  0  0
 27 28  1  0  0  0  0
 27 29  1  0  0  0  0
 28 29  1  0  0  0  0
 28 26  1  1  0  0  0
 29 30  1  6  0  0  0
 31 34  1  6  0  0  0
 31 30  1  0  0  0  0
 32 33  1  0  0  0  0
 32 31  1  0  0  0  0
 35 37  1  6  0  0  0
 35 34  1  0  0  0  0
 35 38  1  0  0  0  0
 36 37  1  0  0  0  0
 38 39  1  0  0  0  0
 40 42  1  1  0  0  0
 40 43  1  0  0  0  0
 41 39  1  6  0  0  0
 41 40  1  0  0  0  0
 41 43  1  0  0  0  0
 43 44  1  6  0  0  0
 44 47  1  0  0  0  0
 45 44  2  0  0  0  0
 46 47  1  0  0  0  0
M  END
>  <MODEL>
2

>  <REMARK>
 VINA RESULT:      -6.1      2.536      4.997
  Name = 
  19 active torsions:
  status: ('A' for Active; 'I' for Inactive)
    1  A    between atoms: C_2  and  C_40
    2  A    between atoms: C_2  and  C_47
    3  A    between atoms: C_7  and  CA_12
    4  A    between atoms: O_9  and  C_26
    5  A    between atoms: C_10  and  C_26
    6  A    between atoms: C_10  and  C_41
    7  A    between atoms: C_11  and  C_24
    8  A    between atoms: C_14  and  C_41
    9  A    between atoms: C_15  and  C_45
   10  A    between atoms: C_16  and  C_45
   11  A    between atoms: N_20  and  C_33
   12  A    between atoms: N_20  and  C_44
   13  A    between atoms: C_22  and  C_26
   14  A    between atoms: C_22  and  C_38
   15  A    between atoms: C_24  and  C_35
   16  A    between atoms: C_30  and  C_36
   17  A    between atoms: C_35  and  C_41
   18  A    between atoms: C_36  and  C_37
   19  A    between atoms: C_44  and  C_45
                            x       y       z     vdW  Elec       q    Type
                         _______ _______ _______ _____ _____    ______ ____

>  <TORSDO>
F 19

$$$$
=
 OpenBabel11052410383D

 47 51  0  0  1  0  0  0  0  0999 V2000
  162.3530  209.8380  149.5950 C   0  0  2  0  0  3  0  0  0  0  0  0
  161.1270  208.3720  151.2070 C   0  0  0  0  0  3  0  0  0  0  0  0
  161.7920  210.0270  153.3620 C   0  0  0  0  0  3  0  0  0  0  0  0
  161.8950  209.5210  150.9880 C   0  0  0  0  0  0  0  0  0  0  0  0
  162.2280  210.3490  152.0730 C   0  0  0  0  0  3  0  0  0  0  0  0
  160.5880  208.5600  154.8510 O   0  0  0  0  0  1  0  0  0  0  0  0
  160.6910  208.0520  152.4950 C   0  0  0  0  0  3  0  0  0  0  0  0
  161.0230  208.8790  153.5720 C   0  0  0  0  0  0  0  0  0  0  0  0
  160.9410  211.9480  149.8040 C   0  0  0  0  0  2  0  0  0  0  0  0
  161.8880  211.1890  149.1530 C   0  0  0  0  0  0  0  0  0  0  0  0
  160.7980  213.0970  149.1170 N   0  0  0  0  0  0  0  0  0  0  0  0
  161.6520  212.9880  148.0810 C   0  0  0  0  0  0  0  0  0  0  0  0
  162.3480  211.8360  148.0660 N   0  0  0  0  0  0  0  0  0  0  0  0
  161.8540  214.0730  147.0780 C   0  0  0  0  0  2  0  0  0  0  0  0
  160.3580  213.3470  145.1570 C   0  0  0  0  0  0  0  0  0  0  0  0
  162.7590  213.2850  144.8930 C   0  0  0  0  0  3  0  0  0  0  0  0
  160.2240  212.8890  143.8810 N   0  0  0  0  0  0  0  0  0  0  0  0
  161.3020  212.6200  143.0970 C   0  0  0  0  0  0  0  0  0  0  0  0
  162.5910  212.8150  143.5900 C   0  0  0  0  0  3  0  0  0  0  0  0
  161.6450  213.5500  145.6920 C   0  0  0  0  0  0  0  0  0  0  0  0
  161.1220  212.1680  141.8330 F   0  0  0  0  0  0  0  0  0  0  0  0
  159.1330  213.6290  145.9680 C   0  0  0  0  0  3  0  0  0  0  0  0
  158.1540  214.2140  145.1660 O   0  0  0  0  0  1  0  0  0  0  0  0
  158.6410  212.4450  146.5220 O   0  0  0  0  0  1  0  0  0  0  0  0
  161.9380  208.7670  148.5940 C   0  0  0  0  0  2  0  0  0  0  0  0
  163.0120  207.8030  148.4270 N   0  0  0  0  0  2  0  0  0  0  0  0
  161.4410  205.9690  148.5860 C   0  0  0  0  0  2  0  0  0  0  0  0
  162.4540  206.6740  147.7070 C   0  0  1  0  0  3  0  0  0  0  0  0
  160.9730  206.9090  147.4960 C   0  0  1  0  0  3  0  0  0  0  0  0
  160.5100  206.1010  146.2980 C   0  0  0  0  0  2  0  0  0  0  0  0
  161.3810  204.8570  146.1360 C   0  0  2  0  0  3  0  0  0  0  0  0
  161.9020  204.7060  144.8300 O   0  0  0  0  0  0  0  0  0  0  0  0
  161.2580  205.6110  143.9690 C   0  0  0  0  0  1  0  0  0  0  0  0
  160.6790  203.5990  146.6650 C   0  0  0  0  0  2  0  0  0  0  0  0
  161.0900  202.3150  145.9400 C   0  0  2  0  0  3  0  0  0  0  0  0
  159.4170  202.7790  144.2770 F   0  0  0  0  0  0  0  0  0  0  0  0
  159.9800  201.7720  145.0410 C   0  0  0  0  0  2  0  0  0  0  0  0
  161.6440  201.2570  146.8930 C   0  0  0  0  0  2  0  0  0  0  0  0
  161.5490  201.7100  148.3430 C   0  0  0  0  0  2  0  0  0  0  0  0
  159.3360  201.7310  149.4460 C   0  0  1  0  0  3  0  0  0  0  0  0
  160.5290  200.8660  149.1020 C   0  0  2  0  0  3  0  0  0  0  0  0
  158.1880  200.9430  149.4620 O   0  0  0  0  0  1  0  0  0  0  0  0
  160.2680  201.2820  150.5590 C   0  0  1  0  0  3  0  0  0  0  0  0
  161.1080  202.4270  151.0660 C   0  0  0  0  0  0  0  0  0  0  0  0
  162.2310  202.2200  151.5030 O   0  0  0  0  0  0  0  0  0  0  0  0
  160.8190  204.4780  152.2100 O   0  0  0  0  0  1  0  0  0  0  0  0
  160.5850  203.8250  151.0000 C   0  0  0  0  0  2  0  0  0  0  0  0
  1 25  1  6  0  0  0
  1  4  1  0  0  0  0
  2  7  1  0  0  0  0
  3  8  1  0  0  0  0
  4  2  2  0  0  0  0
  4  5  1  0  0  0  0
  5  3  2  0  0  0  0
  7  8  2  0  0  0  0
  8  6  1  0  0  0  0
 10  1  1  0  0  0  0
 10  9  1  0  0  0  0
 11  9  1  0  0  0  0
 12 11  2  0  0  0  0
 13 12  1  0  0  0  0
 13 10  2  0  0  0  0
 14 12  1  0  0  0  0
 15 20  1  0  0  0  0
 15 22  1  0  0  0  0
 16 20  2  0  0  0  0
 17 15  2  0  0  0  0
 18 19  2  0  0  0  0
 18 17  1  0  0  0  0
 19 16  1  0  0  0  0
 20 14  1  0  0  0  0
 21 18  1  0  0  0  0
 22 24  1  0  0  0  0
 23 22  1  0  0  0  0
 26 25  1  0  0  0  0
 28 26  1  1  0  0  0
 28 27  1  0  0  0  0
 29 30  1  6  0  0  0
 29 28  1  0  0  0  0
 29 27  1  0  0  0  0
 31 30  1  6  0  0  0
 31 34  1  0  0  0  0
 32 31  1  0  0  0  0
 33 32  1  0  0  0  0
 35 37  1  1  0  0  0
 35 34  1  0  0  0  0
 35 38  1  0  0  0  0
 36 37  1  0  0  0  0
 38 39  1  0  0  0  0
 40 42  1  1  0  0  0
 40 43  1  0  0  0  0
 41 39  1  6  0  0  0
 41 40  1  0  0  0  0
 41 43  1  0  0  0  0
 43 44  1  6  0  0  0
 44 45  2  0  0  0  0
 47 44  1  0  0  0  0
 47 46  1  0  0  0  0
M  END
>  <MODEL>
3

>  <REMARK>
 VINA RESULT:      -6.0      3.479      5.989
  Name = 
  19 active torsions:
  status: ('A' for Active; 'I' for Inactive)
    1  A    between atoms: C_2  and  C_40
    2  A    between atoms: C_2  and  C_47
    3  A    between atoms: C_7  and  CA_12
    4  A    between atoms: O_9  and  C_26
    5  A    between atoms: C_10  and  C_26
    6  A    between atoms: C_10  and  C_41
    7  A    between atoms: C_11  and  C_24
    8  A    between atoms: C_14  and  C_41
    9  A    between atoms: C_15  and  C_45
   10  A    between atoms: C_16  and  C_45
   11  A    between atoms: N_20  and  C_33
   12  A    between atoms: N_20  and  C_44
   13  A    between atoms: C_22  and  C_26
   14  A    between atoms: C_22  and  C_38
   15  A    between atoms: C_24  and  C_35
   16  A    between atoms: C_30  and  C_36
   17  A    between atoms: C_35  and  C_41
   18  A    between atoms: C_36  and  C_37
   19  A    between atoms: C_44  and  C_45
                            x       y       z     vdW  Elec       q    Type
                         _______ _______ _______ _____ _____    ______ ____

>  <TORSDO>
F 19

$$$$
=
 OpenBabel11052410383D

 47 51  0  0  1  0  0  0  0  0999 V2000
  161.5700  209.4190  149.1660 C   0  0  2  0  0  3  0  0  0  0  0  0
  163.0200  207.5360  148.3910 C   0  0  0  0  0  3  0  0  0  0  0  0
  161.0740  206.6570  146.5830 C   0  0  0  0  0  3  0  0  0  0  0  0
  161.8050  208.2230  148.2910 C   0  0  0  0  0  0  0  0  0  0  0  0
  160.8300  207.7780  147.3830 C   0  0  0  0  0  3  0  0  0  0  0  0
  162.5350  204.8660  145.8920 O   0  0  0  0  0  1  0  0  0  0  0  0
  163.2640  206.4160  147.5900 C   0  0  0  0  0  3  0  0  0  0  0  0
  162.2910  205.9770  146.6870 C   0  0  0  0  0  0  0  0  0  0  0  0
  163.1640  211.2030  148.2920 C   0  0  0  0  0  2  0  0  0  0  0  0
  161.8950  210.6960  148.4570 C   0  0  0  0  0  0  0  0  0  0  0  0
  163.0550  212.3530  147.5990 N   0  0  0  0  0  0  0  0  0  0  0  0
  161.7340  212.4990  147.3790 C   0  0  0  0  0  0  0  0  0  0  0  0
  160.9830  211.5010  147.8810 N   0  0  0  0  0  0  0  0  0  0  0  0
  161.1630  213.6310  146.5940 C   0  0  0  0  0  2  0  0  0  0  0  0
  159.5270  213.1080  144.7220 C   0  0  0  0  0  0  0  0  0  0  0  0
  161.9020  212.8930  144.3300 C   0  0  0  0  0  3  0  0  0  0  0  0
  159.2980  212.7260  143.4340 N   0  0  0  0  0  0  0  0  0  0  0  0
  160.3150  212.4220  142.5830 C   0  0  0  0  0  0  0  0  0  0  0  0
  161.6380  212.5020  143.0170 C   0  0  0  0  0  3  0  0  0  0  0  0
  160.8500  213.1950  145.1970 C   0  0  0  0  0  0  0  0  0  0  0  0
  160.0420  212.0480  141.3110 F   0  0  0  0  0  0  0  0  0  0  0  0
  158.3670  213.4330  145.6080 C   0  0  0  0  0  3  0  0  0  0  0  0
  157.3940  214.1250  144.8860 O   0  0  0  0  0  1  0  0  0  0  0  0
  157.8190  212.2600  146.1300 O   0  0  0  0  0  1  0  0  0  0  0  0
  162.3230  209.3250  150.4860 C   0  0  0  0  0  2  0  0  0  0  0  0
  162.1050  210.5310  151.2670 N   0  0  0  0  0  2  0  0  0  0  0  0
  160.1010  210.5380  152.6250 C   0  0  0  0  0  2  0  0  0  0  0  0
  161.5520  210.1110  152.5410 C   0  0  1  0  0  3  0  0  0  0  0  0
  160.4490  209.1030  152.2920 C   0  0  1  0  0  3  0  0  0  0  0  0
  160.2770  208.2430  153.5290 C   0  0  0  0  0  2  0  0  0  0  0  0
  160.7860  206.8290  153.2600 C   0  0  2  0  0  3  0  0  0  0  0  0
  161.8640  206.4550  154.0960 O   0  0  0  0  0  0  0  0  0  0  0  0
  161.6420  206.9580  155.3890 C   0  0  0  0  0  1  0  0  0  0  0  0
  161.0580  206.5970  151.7680 C   0  0  0  0  0  2  0  0  0  0  0  0
  160.7530  205.1710  151.3020 C   0  0  2  0  0  3  0  0  0  0  0  0
  160.6960  203.2770  152.7820 F   0  0  0  0  0  0  0  0  0  0  0  0
  161.5410  204.1200  152.0840 C   0  0  0  0  0  2  0  0  0  0  0  0
  160.8960  205.0070  149.7900 C   0  0  0  0  0  2  0  0  0  0  0  0
  161.2320  203.5710  149.4150 C   0  0  0  0  0  2  0  0  0  0  0  0
  160.4270  201.3180  150.0390 C   0  0  1  0  0  3  0  0  0  0  0  0
  159.9970  202.6820  149.5420 C   0  0  2  0  0  3  0  0  0  0  0  0
  159.4030  200.7680  150.8080 O   0  0  0  0  0  1  0  0  0  0  0  0
  159.9520  201.4640  148.6030 C   0  0  1  0  0  3  0  0  0  0  0  0
  161.0990  201.3510  147.6320 C   0  0  0  0  0  0  0  0  0  0  0  0
  162.1000  200.7160  147.9320 O   0  0  0  0  0  0  0  0  0  0  0  0
  159.8410  201.5500  145.6390 O   0  0  0  0  0  1  0  0  0  0  0  0
  161.0010  201.9820  146.2810 C   0  0  0  0  0  2  0  0  0  0  0  0
  1 25  1  1  0  0  0
  3  8  2  0  0  0  0
  3  5  1  0  0  0  0
  4  2  1  0  0  0  0
  4  1  1  0  0  0  0
  5  4  2  0  0  0  0
  6  8  1  0  0  0  0
  7  2  2  0  0  0  0
  8  7  1  0  0  0  0
  9 10  1  0  0  0  0
 10  1  1  0  0  0  0
 11  9  1  0  0  0  0
 12 11  2  0  0  0  0
 12 13  1  0  0  0  0
 13 10  2  0  0  0  0
 14 12  1  0  0  0  0
 15 20  1  0  0  0  0
 15 22  1  0  0  0  0
 16 20  2  0  0  0  0
 17 15  2  0  0  0  0
 18 19  2  0  0  0  0
 18 17  1  0  0  0  0
 19 16  1  0  0  0  0
 20 14  1  0  0  0  0
 21 18  1  0  0  0  0
 22 24  1  0  0  0  0
 23 22  1  0  0  0  0
 25 26  1  0  0  0  0
 28 26  1  6  0  0  0
 28 27  1  0  0  0  0
 29 28  1  0  0  0  0
 29 27  1  0  0  0  0
 29 30  1  1  0  0  0
 31 34  1  6  0  0  0
 31 30  1  0  0  0  0
 31 32  1  0  0  0  0
 32 33  1  0  0  0  0
 35 38  1  6  0  0  0
 35 34  1  0  0  0  0
 35 37  1  0  0  0  0
 37 36  1  0  0  0  0
 39 38  1  0  0  0  0
 40 42  1  1  0  0  0
 41 39  1  6  0  0  0
 41 40  1  0  0  0  0
 43 44  1  6  0  0  0
 43 41  1  0  0  0  0
 43 40  1  0  0  0  0
 44 45  2  0  0  0  0
 46 47  1  0  0  0  0
 47 44  1  0  0  0  0
M  END
>  <MODEL>
4

>  <REMARK>
 VINA RESULT:      -5.1      3.348      6.199
  Name = 
  19 active torsions:
  status: ('A' for Active; 'I' for Inactive)
    1  A    between atoms: C_2  and  C_40
    2  A    between atoms: C_2  and  C_47
    3  A    between atoms: C_7  and  CA_12
    4  A    between atoms: O_9  and  C_26
    5  A    between atoms: C_10  and  C_26
    6  A    between atoms: C_10  and  C_41
    7  A    between atoms: C_11  and  C_24
    8  A    between atoms: C_14  and  C_41
    9  A    between atoms: C_15  and  C_45
   10  A    between atoms: C_16  and  C_45
   11  A    between atoms: N_20  and  C_33
   12  A    between atoms: N_20  and  C_44
   13  A    between atoms: C_22  and  C_26
   14  A    between atoms: C_22  and  C_38
   15  A    between atoms: C_24  and  C_35
   16  A    between atoms: C_30  and  C_36
   17  A    between atoms: C_35  and  C_41
   18  A    between atoms: C_36  and  C_37
   19  A    between atoms: C_44  and  C_45
                            x       y       z     vdW  Elec       q    Type
                         _______ _______ _______ _____ _____    ______ ____

>  <TORSDO>
F 19

$$$$
=
 OpenBabel11052410383D

 47 51  0  0  1  0  0  0  0  0999 V2000
  160.7660  207.2350  151.5880 C   0  0  2  0  0  3  0  0  0  0  0  0
  161.6560  209.5300  151.1530 C   0  0  0  0  0  3  0  0  0  0  0  0
  161.9370  209.0040  148.4200 C   0  0  0  0  0  3  0  0  0  0  0  0
  161.2940  208.2770  150.6460 C   0  0  0  0  0  0  0  0  0  0  0  0
  161.4380  208.0170  149.2740 C   0  0  0  0  0  3  0  0  0  0  0  0
  162.7890  211.2360  148.0850 O   0  0  0  0  0  1  0  0  0  0  0  0
  162.1540  210.5180  150.2980 C   0  0  0  0  0  3  0  0  0  0  0  0
  162.2950  210.2550  148.9320 C   0  0  0  0  0  0  0  0  0  0  0  0
  160.9700  206.9600  154.1120 C   0  0  0  0  0  2  0  0  0  0  0  0
  160.7260  207.7320  152.9980 C   0  0  0  0  0  0  0  0  0  0  0  0
  160.8540  207.7560  155.1920 N   0  0  0  0  0  0  0  0  0  0  0  0
  160.5400  208.9680  154.6950 C   0  0  0  0  0  0  0  0  0  0  0  0
  160.4580  209.0020  153.3510 N   0  0  0  0  0  0  0  0  0  0  0  0
  160.3630  210.1760  155.5510 C   0  0  0  0  0  2  0  0  0  0  0  0
  158.3730  211.6940  155.1160 C   0  0  0  0  0  0  0  0  0  0  0  0
  160.3480  211.8880  153.7380 C   0  0  0  0  0  3  0  0  0  0  0  0
  157.7980  212.7030  154.4020 N   0  0  0  0  0  0  0  0  0  0  0  0
  158.4440  213.3130  153.3730 C   0  0  0  0  0  0  0  0  0  0  0  0
  159.7350  212.9160  153.0240 C   0  0  0  0  0  3  0  0  0  0  0  0
  159.6720  211.2620  154.7880 C   0  0  0  0  0  0  0  0  0  0  0  0
  157.8370  214.3130  152.6920 F   0  0  0  0  0  0  0  0  0  0  0  0
  157.6120  211.0650  156.2400 C   0  0  0  0  0  3  0  0  0  0  0  0
  157.3000  212.0250  157.2020 O   0  0  0  0  0  1  0  0  0  0  0  0
  156.4380  210.4830  155.7580 O   0  0  0  0  0  1  0  0  0  0  0  0
  161.5420  205.9270  151.4950 C   0  0  0  0  0  2  0  0  0  0  0  0
  160.7160  204.9060  150.8730 N   0  0  0  0  0  2  0  0  0  0  0  0
  160.7610  203.1050  149.2570 C   0  0  0  0  0  2  0  0  0  0  0  0
  161.5660  204.1920  149.9390 C   0  0  1  0  0  3  0  0  0  0  0  0
  161.0410  204.4050  148.5340 C   0  0  1  0  0  3  0  0  0  0  0  0
  162.1740  204.1980  147.5470 C   0  0  0  0  0  2  0  0  0  0  0  0
  161.6170  204.0330  146.1350 C   0  0  2  0  0  3  0  0  0  0  0  0
  161.4090  202.6820  145.7710 O   0  0  0  0  0  0  0  0  0  0  0  0
  160.2360  202.5860  145.0040 C   0  0  0  0  0  1  0  0  0  0  0  0
  162.4330  204.8270  145.1060 C   0  0  0  0  0  2  0  0  0  0  0  0
  161.6220  205.8990  144.3740 C   0  0  2  0  0  3  0  0  0  0  0  0
  160.5130  206.7610  146.3250 F   0  0  0  0  0  0  0  0  0  0  0  0
  160.3000  206.2100  145.0740 C   0  0  0  0  0  2  0  0  0  0  0  0
  161.4410  205.5830  142.8900 C   0  0  0  0  0  2  0  0  0  0  0  0
  161.9640  206.7110  142.0130 C   0  0  0  0  0  2  0  0  0  0  0  0
  162.7360  206.6930  139.6650 C   0  0  1  0  0  3  0  0  0  0  0  0
  161.5330  206.5060  140.5630 C   0  0  2  0  0  3  0  0  0  0  0  0
  162.6020  205.8760  138.5440 O   0  0  0  0  0  1  0  0  0  0  0  0
  161.6370  207.7420  139.6540 C   0  0  1  0  0  3  0  0  0  0  0  0
  162.0840  209.0110  140.3340 C   0  0  0  0  0  0  0  0  0  0  0  0
  163.2720  209.2130  140.5430 O   0  0  0  0  0  0  0  0  0  0  0  0
  161.5570  211.3160  140.3960 O   0  0  0  0  0  1  0  0  0  0  0  0
  161.0790  210.0470  140.7190 C   0  0  0  0  0  2  0  0  0  0  0  0
  1 25  1  1  0  0  0
  1 10  1  0  0  0  0
  3  8  2  0  0  0  0
  3  5  1  0  0  0  0
  4  2  1  0  0  0  0
  4  1  1  0  0  0  0
  5  4  2  0  0  0  0
  6  8  1  0  0  0  0
  7  2  2  0  0  0  0
  8  7  1  0  0  0  0
  9 11  1  0  0  0  0
 10 13  2  0  0  0  0
 10  9  1  0  0  0  0
 12 11  2  0  0  0  0
 12 14  1  0  0  0  0
 13 12  1  0  0  0  0
 15 22  1  0  0  0  0
 16 20  2  0  0  0  0
 17 15  2  0  0  0  0
 18 17  1  0  0  0  0
 19 18  2  0  0  0  0
 19 16  1  0  0  0  0
 20 15  1  0  0  0  0
 20 14  1  0  0  0  0
 21 18  1  0  0  0  0
 22 23  1  0  0  0  0
 24 22  1  0  0  0  0
 26 25  1  0  0  0  0
 27 28  1  0  0  0  0
 28 26  1  1  0  0  0
 29 30  1  6  0  0  0
 29 27  1  0  0  0  0
 29 28  1  0  0  0  0
 31 34  1  6  0  0  0
 31 30  1  0  0  0  0
 32 31  1  0  0  0  0
 33 32  1  0  0  0  0
 35 38  1  6  0  0  0
 35 37  1  0  0  0  0
 35 34  1  0  0  0  0
 37 36  1  0  0  0  0
 39 38  1  0  0  0  0
 40 42  1  6  0  0  0
 40 41  1  0  0  0  0
 41 39  1  1  0  0  0
 43 40  1  0  0  0  0
 43 44  1  1  0  0  0
 43 41  1  0  0  0  0
 44 45  2  0  0  0  0
 44 47  1  0  0  0  0
 46 47  1  0  0  0  0
M  END
>  <MODEL>
5

>  <REMARK>
 VINA RESULT:      -4.8      3.423      7.665
  Name = 
  19 active torsions:
  status: ('A' for Active; 'I' for Inactive)
    1  A    between atoms: C_2  and  C_40
    2  A    between atoms: C_2  and  C_47
    3  A    between atoms: C_7  and  CA_12
    4  A    between atoms: O_9  and  C_26
    5  A    between atoms: C_10  and  C_26
    6  A    between atoms: C_10  and  C_41
    7  A    between atoms: C_11  and  C_24
    8  A    between atoms: C_14  and  C_41
    9  A    between atoms: C_15  and  C_45
   10  A    between atoms: C_16  and  C_45
   11  A    between atoms: N_20  and  C_33
   12  A    between atoms: N_20  and  C_44
   13  A    between atoms: C_22  and  C_26
   14  A    between atoms: C_22  and  C_38
   15  A    between atoms: C_24  and  C_35
   16  A    between atoms: C_30  and  C_36
   17  A    between atoms: C_35  and  C_41
   18  A    between atoms: C_36  and  C_37
   19  A    between atoms: C_44  and  C_45
                            x       y       z     vdW  Elec       q    Type
                         _______ _______ _______ _____ _____    ______ ____

>  <TORSDO>
F 19

$$$$
=
 OpenBabel11052410383D

 47 51  0  0  1  0  0  0  0  0999 V2000
  161.2450  212.6440  149.2300 C   0  0  2  0  0  3  0  0  0  0  0  0
  162.4560  213.3920  147.1750 C   0  0  0  0  0  3  0  0  0  0  0  0
  160.0910  213.4240  145.6800 C   0  0  0  0  0  3  0  0  0  0  0  0
  161.2450  213.0390  147.7820 C   0  0  0  0  0  0  0  0  0  0  0  0
  160.0610  213.0560  147.0280 C   0  0  0  0  0  3  0  0  0  0  0  0
  161.3340  214.1460  143.7420 O   0  0  0  0  0  1  0  0  0  0  0  0
  162.4850  213.7620  145.8270 C   0  0  0  0  0  3  0  0  0  0  0  0
  161.3030  213.7780  145.0800 C   0  0  0  0  0  0  0  0  0  0  0  0
  161.7880  210.5870  150.6300 C   0  0  0  0  0  2  0  0  0  0  0  0
  161.6520  211.2160  149.4140 C   0  0  0  0  0  0  0  0  0  0  0  0
  162.1550  209.3140  150.3920 N   0  0  0  0  0  0  0  0  0  0  0  0
  162.2330  209.2240  149.0500 C   0  0  0  0  0  0  0  0  0  0  0  0
  161.9260  210.3670  148.4070 N   0  0  0  0  0  0  0  0  0  0  0  0
  162.5680  207.9560  148.3390 C   0  0  0  0  0  2  0  0  0  0  0  0
  161.3800  205.7120  148.2390 C   0  0  0  0  0  0  0  0  0  0  0  0
  161.7580  206.7710  150.3780 C   0  0  0  0  0  3  0  0  0  0  0  0
  160.7810  204.6700  148.8810 N   0  0  0  0  0  0  0  0  0  0  0  0
  160.6500  204.6400  150.2340 C   0  0  0  0  0  0  0  0  0  0  0  0
  161.1390  205.6920  151.0080 C   0  0  0  0  0  3  0  0  0  0  0  0
  161.8800  206.7960  148.9870 C   0  0  0  0  0  0  0  0  0  0  0  0
  160.0500  203.5830  150.8310 F   0  0  0  0  0  0  0  0  0  0  0  0
  161.4980  205.6860  146.7480 C   0  0  0  0  0  3  0  0  0  0  0  0
  161.8500  204.4060  146.3200 O   0  0  0  0  0  1  0  0  0  0  0  0
  160.2860  206.0600  146.1640 O   0  0  0  0  0  1  0  0  0  0  0  0
  159.9050  212.9160  149.9010 C   0  0  0  0  0  2  0  0  0  0  0  0
  159.8870  214.2650  150.4410 N   0  0  0  0  0  2  0  0  0  0  0  0
  157.7990  213.1620  150.9700 C   0  0  0  0  0  2  0  0  0  0  0  0
  158.5870  214.4530  151.0560 C   0  0  1  0  0  3  0  0  0  0  0  0
  158.4790  213.5480  152.2660 C   0  0  1  0  0  3  0  0  0  0  0  0
  157.4510  214.1230  153.2220 C   0  0  0  0  0  2  0  0  0  0  0  0
  156.6240  212.9990  153.8410 C   0  0  2  0  0  3  0  0  0  0  0  0
  155.9300  213.3940  155.0090 O   0  0  0  0  0  0  0  0  0  0  0  0
  154.9040  214.2870  154.6560 C   0  0  0  0  0  1  0  0  0  0  0  0
  157.4510  211.7190  154.0240 C   0  0  0  0  0  2  0  0  0  0  0  0
  157.0790  210.9210  155.2760 C   0  0  2  0  0  3  0  0  0  0  0  0
  155.1570  209.7110  154.4850 F   0  0  0  0  0  0  0  0  0  0  0  0
  155.5740  210.6750  155.3860 C   0  0  0  0  0  2  0  0  0  0  0  0
  157.6700  211.5230  156.5490 C   0  0  0  0  0  2  0  0  0  0  0  0
  158.9170  210.7730  156.9930 C   0  0  0  0  0  2  0  0  0  0  0  0
  160.0900  212.7820  156.1560 C   0  0  1  0  0  3  0  0  0  0  0  0
  160.0630  211.7460  157.2590 C   0  0  2  0  0  3  0  0  0  0  0  0
  160.5600  213.9880  156.6720 O   0  0  0  0  0  1  0  0  0  0  0  0
  161.1970  211.7440  156.2210 C   0  0  1  0  0  3  0  0  0  0  0  0
  161.0620  210.7280  155.1150 C   0  0  0  0  0  0  0  0  0  0  0  0
  160.7910  211.0880  153.9780 O   0  0  0  0  0  0  0  0  0  0  0  0
  161.3260  208.5620  154.2010 O   0  0  0  0  0  1  0  0  0  0  0  0
  161.3000  209.2800  155.3970 C   0  0  0  0  0  2  0  0  0  0  0  0
  1 10  1  0  0  0  0
  1 25  1  6  0  0  0
  2  4  1  0  0  0  0
  3  5  1  0  0  0  0
  4  1  1  0  0  0  0
  5  4  2  0  0  0  0
  6  8  1  0  0  0  0
  7  2  2  0  0  0  0
  8  3  2  0  0  0  0
  8  7  1  0  0  0  0
 10  9  1  0  0  0  0
 11  9  1  0  0  0  0
 12 11  2  0  0  0  0
 13 12  1  0  0  0  0
 13 10  2  0  0  0  0
 14 20  1  0  0  0  0
 14 12  1  0  0  0  0
 15 17  2  0  0  0  0
 15 20  1  0  0  0  0
 16 19  1  0  0  0  0
 17 18  1  0  0  0  0
 18 21  1  0  0  0  0
 18 19  2  0  0  0  0
 20 16  2  0  0  0  0
 22 15  1  0  0  0  0
 23 22  1  0  0  0  0
 24 22  1  0  0  0  0
 25 26  1  0  0  0  0
 27 28  1  0  0  0  0
 27 29  1  0  0  0  0
 28 26  1  6  0  0  0
 28 29  1  0  0  0  0
 29 30  1  1  0  0  0
 31 30  1  1  0  0  0
 31 34  1  0  0  0  0
 31 32  1  0  0  0  0
 33 32  1  0  0  0  0
 35 34  1  6  0  0  0
 35 37  1  0  0  0  0
 35 38  1  0  0  0  0
 36 37  1  0  0  0  0
 38 39  1  0  0  0  0
 40 43  1  0  0  0  0
 40 42  1  1  0  0  0
 40 41  1  0  0  0  0
 41 39  1  6  0  0  0
 43 44  1  6  0  0  0
 43 41  1  0  0  0  0
 44 47  1  0  0  0  0
 45 44  2  0  0  0  0
 46 47  1  0  0  0  0
M  END
>  <MODEL>
6

>  <REMARK>
 VINA RESULT:      -4.6      2.917      9.005
  Name = 
  19 active torsions:
  status: ('A' for Active; 'I' for Inactive)
    1  A    between atoms: C_2  and  C_40
    2  A    between atoms: C_2  and  C_47
    3  A    between atoms: C_7  and  CA_12
    4  A    between atoms: O_9  and  C_26
    5  A    between atoms: C_10  and  C_26
    6  A    between atoms: C_10  and  C_41
    7  A    between atoms: C_11  and  C_24
    8  A    between atoms: C_14  and  C_41
    9  A    between atoms: C_15  and  C_45
   10  A    between atoms: C_16  and  C_45
   11  A    between atoms: N_20  and  C_33
   12  A    between atoms: N_20  and  C_44
   13  A    between atoms: C_22  and  C_26
   14  A    between atoms: C_22  and  C_38
   15  A    between atoms: C_24  and  C_35
   16  A    between atoms: C_30  and  C_36
   17  A    between atoms: C_35  and  C_41
   18  A    between atoms: C_36  and  C_37
   19  A    between atoms: C_44  and  C_45
                            x       y       z     vdW  Elec       q    Type
                         _______ _______ _______ _____ _____    ______ ____

>  <TORSDO>
F 19

$$$$
=
 OpenBabel11052410383D

 47 51  0  0  1  0  0  0  0  0999 V2000
  160.8890  210.9560  152.4250 C   0  0  2  0  0  3  0  0  0  0  0  0
  158.4380  211.3230  152.7580 C   0  0  0  0  0  3  0  0  0  0  0  0
  158.8340  212.2230  155.3770 C   0  0  0  0  0  3  0  0  0  0  0  0
  159.7340  211.3830  153.2830 C   0  0  0  0  0  0  0  0  0  0  0  0
  159.9280  211.8350  154.5980 C   0  0  0  0  0  3  0  0  0  0  0  0
  156.4560  212.5490  155.6170 O   0  0  0  0  0  1  0  0  0  0  0  0
  157.3450  211.7120  153.5370 C   0  0  0  0  0  3  0  0  0  0  0  0
  157.5420  212.1620  154.8450 C   0  0  0  0  0  0  0  0  0  0  0  0
  160.3060  212.9180  150.9100 C   0  0  0  0  0  2  0  0  0  0  0  0
  160.9310  211.7130  151.1360 C   0  0  0  0  0  0  0  0  0  0  0  0
  160.5820  213.2890  149.6450 N   0  0  0  0  0  0  0  0  0  0  0  0
  161.3520  212.2980  149.1560 C   0  0  0  0  0  0  0  0  0  0  0  0
  161.5990  211.3110  150.0380 N   0  0  0  0  0  0  0  0  0  0  0  0
  161.9300  212.3230  147.7810 C   0  0  0  0  0  2  0  0  0  0  0  0
  161.3030  213.6620  145.7150 C   0  0  0  0  0  0  0  0  0  0  0  0
  159.5850  212.4970  146.9510 C   0  0  0  0  0  3  0  0  0  0  0  0
  160.3540  214.0970  144.8400 N   0  0  0  0  0  0  0  0  0  0  0  0
  159.0420  213.7660  144.9800 C   0  0  0  0  0  0  0  0  0  0  0  0
  158.6340  212.9570  146.0410 C   0  0  0  0  0  3  0  0  0  0  0  0
  160.9280  212.8490  146.8010 C   0  0  0  0  0  0  0  0  0  0  0  0
  158.1320  214.2180  144.0860 F   0  0  0  0  0  0  0  0  0  0  0  0
  162.7310  214.0570  145.5040 C   0  0  0  0  0  3  0  0  0  0  0  0
  163.5760  213.0210  145.9030 O   0  0  0  0  0  1  0  0  0  0  0  0
  162.9540  214.3530  144.1580 O   0  0  0  0  0  1  0  0  0  0  0  0
  160.8940  209.4540  152.1720 C   0  0  0  0  0  2  0  0  0  0  0  0
  160.8970  208.7390  153.4370 N   0  0  0  0  0  2  0  0  0  0  0  0
  161.2770  206.4870  154.2380 C   0  0  0  0  0  2  0  0  0  0  0  0
  161.7020  207.5480  153.2440 C   0  0  1  0  0  3  0  0  0  0  0  0
  160.8030  206.4120  152.8030 C   0  0  1  0  0  3  0  0  0  0  0  0
  161.6320  205.3890  152.0510 C   0  0  0  0  0  2  0  0  0  0  0  0
  160.7750  204.6880  151.0000 C   0  0  2  0  0  3  0  0  0  0  0  0
  160.3780  203.3840  151.3810 O   0  0  0  0  0  0  0  0  0  0  0  0
  161.4970  202.6820  151.8590 C   0  0  0  0  0  1  0  0  0  0  0  0
  161.4190  204.7500  149.6080 C   0  0  0  0  0  2  0  0  0  0  0  0
  161.7400  206.1720  149.1430 C   0  0  2  0  0  3  0  0  0  0  0  0
  160.8060  208.3400  148.6860 F   0  0  0  0  0  0  0  0  0  0  0  0
  160.5360  207.1080  149.2550 C   0  0  0  0  0  2  0  0  0  0  0  0
  162.3810  206.2030  147.7570 C   0  0  0  0  0  2  0  0  0  0  0  0
  161.3830  205.8200  146.6740 C   0  0  0  0  0  2  0  0  0  0  0  0
  161.0670  205.3340  144.2710 C   0  0  1  0  0  3  0  0  0  0  0  0
  162.1010  205.5480  145.3550 C   0  0  2  0  0  3  0  0  0  0  0  0
  161.5790  205.7820  143.0540 O   0  0  0  0  0  1  0  0  0  0  0  0
  161.8880  204.1490  144.7530 C   0  0  1  0  0  3  0  0  0  0  0  0
  161.0540  203.2070  145.5840 C   0  0  0  0  0  0  0  0  0  0  0  0
  159.9350  202.8830  145.2110 O   0  0  0  0  0  0  0  0  0  0  0  0
  160.6140  202.5830  147.8230 O   0  0  0  0  0  1  0  0  0  0  0  0
  161.6090  202.6330  146.8470 C   0  0  0  0  0  2  0  0  0  0  0  0
  1 25  1  6  0  0  0
  1  4  1  0  0  0  0
  2  4  2  0  0  0  0
  2  7  1  0  0  0  0
  4  5  1  0  0  0  0
  5  3  2  0  0  0  0
  7  8  2  0  0  0  0
  8  3  1  0  0  0  0
  8  6  1  0  0  0  0
  9 10  1  0  0  0  0
 10  1  1  0  0  0  0
 11  9  1  0  0  0  0
 12 11  2  0  0  0  0
 12 13  1  0  0  0  0
 13 10  2  0  0  0  0
 14 12  1  0  0  0  0
 15 20  1  0  0  0  0
 17 18  1  0  0  0  0
 17 15  2  0  0  0  0
 18 19  2  0  0  0  0
 19 16  1  0  0  0  0
 20 16  2  0  0  0  0
 20 14  1  0  0  0  0
 21 18  1  0  0  0  0
 22 15  1  0  0  0  0
 22 23  1  0  0  0  0
 24 22  1  0  0  0  0
 25 26  1  0  0  0  0
 28 26  1  1  0  0  0
 28 27  1  0  0  0  0
 29 30  1  6  0  0  0
 29 28  1  0  0  0  0
 29 27  1  0  0  0  0
 31 34  1  6  0  0  0
 31 32  1  0  0  0  0
 31 30  1  0  0  0  0
 32 33  1  0  0  0  0
 35 38  1  6  0  0  0
 35 37  1  0  0  0  0
 35 34  1  0  0  0  0
 36 37  1  0  0  0  0
 39 38  1  0  0  0  0
 40 42  1  6  0  0  0
 40 43  1  0  0  0  0
 40 41  1  0  0  0  0
 41 39  1  1  0  0  0
 43 41  1  0  0  0  0
 43 44  1  1  0  0  0
 44 47  1  0  0  0  0
 45 44  2  0  0  0  0
 47 46  1  0  0  0  0
M  END
>  <MODEL>
7

>  <REMARK>
 VINA RESULT:      -4.6      1.770      2.313
  Name = 
  19 active torsions:
  status: ('A' for Active; 'I' for Inactive)
    1  A    between atoms: C_2  and  C_40
    2  A    between atoms: C_2  and  C_47
    3  A    between atoms: C_7  and  CA_12
    4  A    between atoms: O_9  and  C_26
    5  A    between atoms: C_10  and  C_26
    6  A    between atoms: C_10  and  C_41
    7  A    between atoms: C_11  and  C_24
    8  A    between atoms: C_14  and  C_41
    9  A    between atoms: C_15  and  C_45
   10  A    between atoms: C_16  and  C_45
   11  A    between atoms: N_20  and  C_33
   12  A    between atoms: N_20  and  C_44
   13  A    between atoms: C_22  and  C_26
   14  A    between atoms: C_22  and  C_38
   15  A    between atoms: C_24  and  C_35
   16  A    between atoms: C_30  and  C_36
   17  A    between atoms: C_35  and  C_41
   18  A    between atoms: C_36  and  C_37
   19  A    between atoms: C_44  and  C_45
                            x       y       z     vdW  Elec       q    Type
                         _______ _______ _______ _____ _____    ______ ____

>  <TORSDO>
F 19

$$$$
=
 OpenBabel11052410383D

 47 51  0  0  1  0  0  0  0  0999 V2000
  161.1800  210.1630  152.5600 C   0  0  2  0  0  3  0  0  0  0  0  0
  160.8110  207.9420  153.6460 C   0  0  0  0  0  3  0  0  0  0  0  0
  160.3810  209.1300  156.1420 C   0  0  0  0  0  3  0  0  0  0  0  0
  160.8750  209.3340  153.7730 C   0  0  0  0  0  0  0  0  0  0  0  0
  160.6590  209.9260  155.0280 C   0  0  0  0  0  3  0  0  0  0  0  0
  160.0390  206.9480  157.1140 O   0  0  0  0  0  1  0  0  0  0  0  0
  160.5320  207.1460  154.7610 C   0  0  0  0  0  3  0  0  0  0  0  0
  160.3170  207.7400  156.0080 C   0  0  0  0  0  0  0  0  0  0  0  0
  159.8960  212.0600  153.6740 C   0  0  0  0  0  2  0  0  0  0  0  0
  160.4050  211.4430  152.5540 C   0  0  0  0  0  0  0  0  0  0  0  0
  159.2760  213.1860  153.2730 N   0  0  0  0  0  0  0  0  0  0  0  0
  159.4260  213.2030  151.9340 C   0  0  0  0  0  0  0  0  0  0  0  0
  160.1190  212.1550  151.4490 N   0  0  0  0  0  0  0  0  0  0  0  0
  158.9240  214.3140  151.0750 C   0  0  0  0  0  2  0  0  0  0  0  0
  158.7290  214.0900  148.5520 C   0  0  0  0  0  0  0  0  0  0  0  0
  160.9090  214.3240  149.5680 C   0  0  0  0  0  3  0  0  0  0  0  0
  159.3250  214.0400  147.3280 N   0  0  0  0  0  0  0  0  0  0  0  0
  160.6750  214.1230  147.1810 C   0  0  0  0  0  0  0  0  0  0  0  0
  161.4920  214.2680  148.3020 C   0  0  0  0  0  3  0  0  0  0  0  0
  159.5230  214.2300  149.7070 C   0  0  0  0  0  0  0  0  0  0  0  0
  161.2250  214.0710  145.9450 F   0  0  0  0  0  0  0  0  0  0  0  0
  157.2390  213.9970  148.6470 C   0  0  0  0  0  3  0  0  0  0  0  0
  156.6720  214.1090  147.3780 O   0  0  0  0  0  1  0  0  0  0  0  0
  156.8700  212.7800  149.2210 O   0  0  0  0  0  1  0  0  0  0  0  0
  160.9620  209.3920  151.2650 C   0  0  0  0  0  2  0  0  0  0  0  0
  162.2380  208.9360  150.7400 N   0  0  0  0  0  2  0  0  0  0  0  0
  162.7160  206.6740  150.0250 C   0  0  0  0  0  2  0  0  0  0  0  0
  161.9430  207.9420  149.7250 C   0  0  1  0  0  3  0  0  0  0  0  0
  161.2470  206.7650  150.3760 C   0  0  1  0  0  3  0  0  0  0  0  0
  160.4320  206.0320  149.3280 C   0  0  0  0  0  2  0  0  0  0  0  0
  161.3480  205.4980  148.2290 C   0  0  2  0  0  3  0  0  0  0  0  0
  160.8690  205.7650  146.9250 O   0  0  0  0  0  0  0  0  0  0  0  0
  161.9550  206.0660  146.0870 C   0  0  0  0  0  1  0  0  0  0  0  0
  161.7130  204.0260  148.4590 C   0  0  0  0  0  2  0  0  0  0  0  0
  160.7360  203.2860  149.3760 C   0  0  2  0  0  3  0  0  0  0  0  0
  160.4970  202.5760  151.6610 F   0  0  0  0  0  0  0  0  0  0  0  0
  161.4120  202.7470  150.6370 C   0  0  0  0  0  2  0  0  0  0  0  0
  159.9360  202.2160  148.6350 C   0  0  0  0  0  2  0  0  0  0  0  0
  160.8420  201.3190  147.8060 C   0  0  0  0  0  2  0  0  0  0  0  0
  159.9400  202.2150  145.6850 C   0  0  1  0  0  3  0  0  0  0  0  0
  161.2050  201.9960  146.4870 C   0  0  2  0  0  3  0  0  0  0  0  0
  160.0810  203.3660  144.9120 O   0  0  0  0  0  1  0  0  0  0  0  0
  160.9400  201.1710  145.2160 C   0  0  1  0  0  3  0  0  0  0  0  0
  160.4230  199.7740  145.4470 C   0  0  0  0  0  0  0  0  0  0  0  0
  159.2500  199.5070  145.2270 O   0  0  0  0  0  0  0  0  0  0  0  0
  162.1260  198.2500  144.8360 O   0  0  0  0  0  1  0  0  0  0  0  0
  161.3530  198.6980  145.9060 C   0  0  0  0  0  2  0  0  0  0  0  0
  1 25  1  6  0  0  0
  1  4  1  0  0  0  0
  2  4  2  0  0  0  0
  2  7  1  0  0  0  0
  4  5  1  0  0  0  0
  5  3  2  0  0  0  0
  7  8  2  0  0  0  0
  8  3  1  0  0  0  0
  8  6  1  0  0  0  0
 10  1  1  0  0  0  0
 10  9  1  0  0  0  0
 11  9  1  0  0  0  0
 12 11  2  0  0  0  0
 13 12  1  0  0  0  0
 13 10  2  0  0  0  0
 14 12  1  0  0  0  0
 15 22  1  0  0  0  0
 15 20  1  0  0  0  0
 16 20  2  0  0  0  0
 17 15  2  0  0  0  0
 18 17  1  0  0  0  0
 18 19  2  0  0  0  0
 19 16  1  0  0  0  0
 20 14  1  0  0  0  0
 21 18  1  0  0  0  0
 22 24  1  0  0  0  0
 23 22  1  0  0  0  0
 26 25  1  0  0  0  0
 27 29  1  0  0  0  0
 28 27  1  0  0  0  0
 28 29  1  0  0  0  0
 28 26  1  1  0  0  0
 29 30  1  6  0  0  0
 31 34  1  1  0  0  0
 31 30  1  0  0  0  0
 32 31  1  0  0  0  0
 33 32  1  0  0  0  0
 35 34  1  6  0  0  0
 35 37  1  0  0  0  0
 37 36  1  0  0  0  0
 38 35  1  0  0  0  0
 39 38  1  0  0  0  0
 40 42  1  6  0  0  0
 40 41  1  0  0  0  0
 41 39  1  1  0  0  0
 43 44  1  1  0  0  0
 43 40  1  0  0  0  0
 43 41  1  0  0  0  0
 44 47  1  0  0  0  0
 45 44  2  0  0  0  0
 46 47  1  0  0  0  0
M  END
>  <MODEL>
8

>  <REMARK>
 VINA RESULT:      -4.2      2.894      4.748
  Name = 
  19 active torsions:
  status: ('A' for Active; 'I' for Inactive)
    1  A    between atoms: C_2  and  C_40
    2  A    between atoms: C_2  and  C_47
    3  A    between atoms: C_7  and  CA_12
    4  A    between atoms: O_9  and  C_26
    5  A    between atoms: C_10  and  C_26
    6  A    between atoms: C_10  and  C_41
    7  A    between atoms: C_11  and  C_24
    8  A    between atoms: C_14  and  C_41
    9  A    between atoms: C_15  and  C_45
   10  A    between atoms: C_16  and  C_45
   11  A    between atoms: N_20  and  C_33
   12  A    between atoms: N_20  and  C_44
   13  A    between atoms: C_22  and  C_26
   14  A    between atoms: C_22  and  C_38
   15  A    between atoms: C_24  and  C_35
   16  A    between atoms: C_30  and  C_36
   17  A    between atoms: C_35  and  C_41
   18  A    between atoms: C_36  and  C_37
   19  A    between atoms: C_44  and  C_45
                            x       y       z     vdW  Elec       q    Type
                         _______ _______ _______ _____ _____    ______ ____

>  <TORSDO>
F 19

$$$$
=
 OpenBabel11052410383D

 47 51  0  0  1  0  0  0  0  0999 V2000
  161.1670  209.8580  152.5170 C   0  0  2  0  0  3  0  0  0  0  0  0
  160.9880  207.6630  153.7020 C   0  0  0  0  0  3  0  0  0  0  0  0
  160.0990  208.8980  156.0500 C   0  0  0  0  0  3  0  0  0  0  0  0
  160.8390  209.0540  153.7420 C   0  0  0  0  0  0  0  0  0  0  0  0
  160.3940  209.6700  154.9230 C   0  0  0  0  0  3  0  0  0  0  0  0
  159.9550  206.7410  157.1210 O   0  0  0  0  0  1  0  0  0  0  0  0
  160.6920  206.8920  154.8300 C   0  0  0  0  0  3  0  0  0  0  0  0
  160.2490  207.5080  156.0030 C   0  0  0  0  0  0  0  0  0  0  0  0
  160.3010  211.9930  151.4320 C   0  0  0  0  0  2  0  0  0  0  0  0
  160.4950  211.1940  152.5360 C   0  0  0  0  0  0  0  0  0  0  0  0
  159.6570  213.1020  151.8400 N   0  0  0  0  0  0  0  0  0  0  0  0
  159.4930  212.9370  153.1670 C   0  0  0  0  0  0  0  0  0  0  0  0
  159.9860  211.7750  153.6370 N   0  0  0  0  0  0  0  0  0  0  0  0
  158.7740  213.9220  154.0250 C   0  0  0  0  0  2  0  0  0  0  0  0
  156.3820  213.3700  154.6780 C   0  0  0  0  0  0  0  0  0  0  0  0
  158.2150  212.3920  155.9130 C   0  0  0  0  0  3  0  0  0  0  0  0
  155.5080  212.6990  155.4790 N   0  0  0  0  0  0  0  0  0  0  0  0
  155.9330  211.8880  156.4850 C   0  0  0  0  0  0  0  0  0  0  0  0
  157.2980  211.7190  156.7190 C   0  0  0  0  0  3  0  0  0  0  0  0
  157.7670  213.2290  154.8870 C   0  0  0  0  0  0  0  0  0  0  0  0
  155.0290  211.2380  157.2560 F   0  0  0  0  0  0  0  0  0  0  0  0
  155.8530  214.2440  153.5850 C   0  0  0  0  0  3  0  0  0  0  0  0
  156.2590  213.7550  152.3440 O   0  0  0  0  0  1  0  0  0  0  0  0
  154.4590  214.2890  153.6390 O   0  0  0  0  0  1  0  0  0  0  0  0
  160.8450  209.1070  151.2320 C   0  0  0  0  0  2  0  0  0  0  0  0
  161.8600  209.3850  150.2300 N   0  0  0  0  0  2  0  0  0  0  0  0
  162.7770  208.0240  148.4510 C   0  0  0  0  0  2  0  0  0  0  0  0
  161.5150  208.6040  149.0560 C   0  0  1  0  0  3  0  0  0  0  0  0
  161.8780  207.1550  149.3040 C   0  0  1  0  0  3  0  0  0  0  0  0
  161.0310  206.2730  148.4080 C   0  0  0  0  0  2  0  0  0  0  0  0
  161.2140  206.6780  146.9470 C   0  0  2  0  0  3  0  0  0  0  0  0
  159.9930  206.9430  146.2830 O   0  0  0  0  0  0  0  0  0  0  0  0
  159.8230  206.0140  145.2430 C   0  0  0  0  0  1  0  0  0  0  0  0
  162.1210  205.6950  146.1940 C   0  0  0  0  0  2  0  0  0  0  0  0
  162.9010  204.7530  147.1140 C   0  0  2  0  0  3  0  0  0  0  0  0
  163.9350  204.2280  145.0070 F   0  0  0  0  0  0  0  0  0  0  0  0
  163.9150  203.9000  146.3500 C   0  0  0  0  0  2  0  0  0  0  0  0
  161.9860  203.9170  148.0080 C   0  0  0  0  0  2  0  0  0  0  0  0
  161.2100  202.8870  147.2010 C   0  0  0  0  0  2  0  0  0  0  0  0
  160.7880  200.4520  147.1220 C   0  0  1  0  0  3  0  0  0  0  0  0
  161.8510  201.5080  147.3360 C   0  0  2  0  0  3  0  0  0  0  0  0
  161.3710  199.3250  146.5460 O   0  0  0  0  0  1  0  0  0  0  0  0
  161.3590  200.6540  148.5160 C   0  0  1  0  0  3  0  0  0  0  0  0
  160.3590  201.3210  149.4260 C   0  0  0  0  0  0  0  0  0  0  0  0
  159.1630  201.2620  149.1770 O   0  0  0  0  0  0  0  0  0  0  0  0
  160.4300  203.3610  150.6220 O   0  0  0  0  0  1  0  0  0  0  0  0
  160.8240  202.0240  150.6600 C   0  0  0  0  0  2  0  0  0  0  0  0
  1 25  1  6  0  0  0
  1 10  1  0  0  0  0
  1  4  1  0  0  0  0
  2  4  2  0  0  0  0
  2  7  1  0  0  0  0
  4  5  1  0  0  0  0
  5  3  2  0  0  0  0
  7  8  2  0  0  0  0
  8  3  1  0  0  0  0
  8  6  1  0  0  0  0
  9 11  1  0  0  0  0
  9 10  1  0  0  0  0
 10 13  2  0  0  0  0
 11 12  2  0  0  0  0
 12 13  1  0  0  0  0
 12 14  1  0  0  0  0
 14 20  1  0  0  0  0
 15 20  2  0  0  0  0
 15 17  1  0  0  0  0
 16 19  2  0  0  0  0
 17 18  2  0  0  0  0
 18 19  1  0  0  0  0
 18 21  1  0  0  0  0
 20 16  1  0  0  0  0
 22 24  1  0  0  0  0
 22 15  1  0  0  0  0
 23 22  1  0  0  0  0
 26 25  1  0  0  0  0
 27 28  1  0  0  0  0
 27 29  1  0  0  0  0
 28 29  1  0  0  0  0
 28 26  1  1  0  0  0
 29 30  1  6  0  0  0
 31 34  1  6  0  0  0
 31 30  1  0  0  0  0
 32 31  1  0  0  0  0
 33 32  1  0  0  0  0
 35 34  1  6  0  0  0
 35 38  1  0  0  0  0
 36 37  1  0  0  0  0
 37 35  1  0  0  0  0
 39 38  1  0  0  0  0
 40 42  1  6  0  0  0
 40 41  1  0  0  0  0
 40 43  1  0  0  0  0
 41 39  1  1  0  0  0
 41 43  1  0  0  0  0
 43 44  1  1  0  0  0
 44 47  1  0  0  0  0
 45 44  2  0  0  0  0
 46 47  1  0  0  0  0
M  END
>  <MODEL>
9

>  <REMARK>
 VINA RESULT:      -4.0      3.314      6.443
  Name = 
  19 active torsions:
  status: ('A' for Active; 'I' for Inactive)
    1  A    between atoms: C_2  and  C_40
    2  A    between atoms: C_2  and  C_47
    3  A    between atoms: C_7  and  CA_12
    4  A    between atoms: O_9  and  C_26
    5  A    between atoms: C_10  and  C_26
    6  A    between atoms: C_10  and  C_41
    7  A    between atoms: C_11  and  C_24
    8  A    between atoms: C_14  and  C_41
    9  A    between atoms: C_15  and  C_45
   10  A    between atoms: C_16  and  C_45
   11  A    between atoms: N_20  and  C_33
   12  A    between atoms: N_20  and  C_44
   13  A    between atoms: C_22  and  C_26
   14  A    between atoms: C_22  and  C_38
   15  A    between atoms: C_24  and  C_35
   16  A    between atoms: C_30  and  C_36
   17  A    between atoms: C_35  and  C_41
   18  A    between atoms: C_36  and  C_37
   19  A    between atoms: C_44  and  C_45
                            x       y       z     vdW  Elec       q    Type
                         _______ _______ _______ _____ _____    ______ ____

>  <TORSDO>
F 19

$$$$
