=
 OpenBabel11052411343D

 66 71  0  0  1  0  0  0  0  0999 V2000
  161.5850  207.8070  149.0710 C   0  0  2  0  0  3  0  0  0  0  0  0
  162.4430  211.5840  148.9100 C   0  0  2  0  0  3  0  0  0  0  0  0
  161.3770  209.3190  149.2290 C   0  0  2  0  0  3  0  0  0  0  0  0
  162.0220  210.2500  147.7920 S   0  0  0  0  0  0  0  0  0  0  0  0
  162.1180  209.8370  150.4630 C   0  0  0  0  0  2  0  0  0  0  0  0
  162.4300  211.2650  150.1970 C   0  0  0  0  0  2  0  0  0  0  0  0
  162.6490  212.9970  148.4540 C   0  0  1  0  0  3  0  0  0  0  0  0
  163.8810  213.1010  147.8010 O   0  0  0  0  0  1  0  0  0  0  0  0
  159.7060  213.1900  145.2960 C   0  0  0  0  0  2  0  0  0  0  0  0
  161.5100  213.4460  147.5350 C   0  0  2  0  0  3  0  0  0  0  0  0
  159.1860  212.9290  146.7140 C   0  0  1  0  0  3  0  0  0  0  0  0
  160.3250  212.4760  147.6250 C   0  0  0  0  0  2  0  0  0  0  0  0
  161.9780  213.5100  146.1500 N   0  0  0  0  0  2  0  0  0  0  0  0
  160.9270  214.1060  145.3290 C   0  0  0  0  0  2  0  0  0  0  0  0
  158.4940  214.1560  147.2960 C   0  0  0  0  0  2  0  0  0  0  0  0
  156.5070  213.0810  146.0350 N   0  0  0  0  0  1  0  0  0  0  0  0
  156.7390  213.8120  147.6240 S   0  0  0  0  0  0  0  0  0  0  0  0
  161.4830  206.0260  150.7230 N   0  0  0  0  0  0  0  0  0  0  0  0
  161.9930  207.1470  150.3560 C   0  0  0  0  0  3  0  0  0  0  0  0
  161.9040  205.4050  151.9500 C   0  0  1  0  0  3  0  0  0  0  0  0
  161.8930  206.4230  153.0790 C   0  0  0  0  0  2  0  0  0  0  0  0
  160.6100  206.3120  153.8810 C   0  0  0  0  0  2  0  0  0  0  0  0
  160.1430  207.6380  154.2530 N   0  0  0  0  0  2  0  0  0  0  0  0
  161.2870  208.5450  154.2010 C   0  0  1  0  0  3  0  0  0  0  0  0
  161.0500  209.6050  153.2250 N   0  0  0  0  0  2  0  0  0  0  0  0
  159.1210  210.7610  154.4550 C   0  0  0  0  0  3  0  0  0  0  0  0
  158.3890  211.8260  154.1700 C   0  0  0  0  0  0  0  0  0  0  0  0
  159.9190  211.5550  152.4620 N   0  0  0  0  0  0  0  0  0  0  0  0
  158.8300  212.4260  152.8720 C   0  0  0  0  0  2  0  0  0  0  0  0
  160.0650  210.6360  153.3550 C   0  0  0  0  0  0  0  0  0  0  0  0
  155.2510  213.6050  155.2960 C   0  0  0  0  0  0  0  0  0  0  0  0
  154.1460  214.4140  154.7240 C   0  0  0  0  0  1  0  0  0  0  0  0
  157.2880  212.0830  156.3910 C   0  0  0  0  0  3  0  0  0  0  0  0
  155.2780  213.3180  156.6580 C   0  0  0  0  0  3  0  0  0  0  0  0
  157.3060  212.3520  155.0180 C   0  0  0  0  0  0  0  0  0  0  0  0
  156.2880  212.5670  157.1730 N   0  0  0  0  0  0  0  0  0  0  0  0
  156.2690  213.1240  154.4740 C   0  0  0  0  0  3  0  0  0  0  0  0
  160.5740  210.7520  157.2600 C   0  0  0  0  0  2  0  0  0  0  0  0
  162.1460  210.5020  155.4710 N   0  0  0  0  0  2  0  0  0  0  0  0
  161.9650  211.0910  156.7840 C   0  0  0  0  0  2  0  0  0  0  0  0
  160.2220  209.0730  156.6910 S   0  0  0  0  0  0  0  0  0  0  0  0
  161.6550  209.1330  155.5710 C   0  0  1  0  0  3  0  0  0  0  0  0
  161.0390  204.3550  152.2560 O   0  0  0  0  0  0  0  0  0  0  0  0
  160.4060  204.0440  151.0500 C   0  0  0  0  0  2  0  0  0  0  0  0
  160.3580  202.1580  149.2910 C   0  0  0  0  0  1  0  0  0  0  0  0
  161.5410  201.9040  151.4120 C   0  0  0  0  0  2  0  0  0  0  0  0
  160.7640  202.6560  150.6360 C   0  0  0  0  0  0  0  0  0  0  0  0
  162.6140  207.5120  147.9890 C   0  0  0  0  0  2  0  0  0  0  0  0
  162.7490  206.1330  145.9760 C   0  0  0  0  0  3  0  0  0  0  0  0
  162.0410  206.5350  147.0250 C   0  0  0  0  0  3  0  0  0  0  0  0
  162.1750  205.1450  145.0080 C   0  0  2  0  0  3  0  0  0  0  0  0
  161.6110  205.8590  143.8190 C   0  0  0  0  0  0  0  0  0  0  0  0
  160.5290  206.5010  143.9170 O   0  0  0  0  0  0  0  0  0  0  0  0
  162.3240  205.8260  142.5800 N   0  0  0  0  0  2  0  0  0  0  0  0
  162.5940  205.9120  140.1460 C   0  0  0  0  0  1  0  0  0  0  0  0
  161.8640  206.4690  141.3530 C   0  0  2  0  0  3  0  0  0  0  0  0
  162.0510  207.9100  141.4420 N   0  0  0  0  0  2  0  0  0  0  0  0
  162.7300  209.8450  140.1560 C   0  0  0  0  0  1  0  0  0  0  0  0
  162.2020  208.4280  140.0920 C   0  0  2  0  0  3  0  0  0  0  0  0
  160.5950  208.4240  139.2380 S   0  0  0  0  0  1  0  0  0  0  0  0
  161.1640  204.2450  145.6640 C   0  0  0  0  0  0  0  0  0  0  0  0
  160.6510  204.5790  146.7670 O   0  0  0  0  0  0  0  0  0  0  0  0
  160.8620  203.0040  145.0980 O   0  0  0  0  0  0  0  0  0  0  0  0
  160.1480  202.0080  145.8150 C   0  0  0  0  0  3  0  0  0  0  0  0
  160.0060  200.7760  144.9450 C   0  0  0  0  0  2  0  0  0  0  0  0
  161.0510  200.8100  146.0360 C   0  0  0  0  0  2  0  0  0  0  0  0
  1 48  1  6  0  0  0
  1 19  1  0  0  0  0
  2  7  1  1  0  0  0
  2  6  1  0  0  0  0
  3  1  1  6  0  0  0
  3  5  1  0  0  0  0
  4  2  1  0  0  0  0
  4  3  1  0  0  0  0
  6  5  1  0  0  0  0
  7  8  1  6  0  0  0
  9 14  1  0  0  0  0
  9 11  1  0  0  0  0
 10 12  1  0  0  0  0
 10  7  1  1  0  0  0
 11 15  1  1  0  0  0
 11 12  1  0  0  0  0
 13 10  1  0  0  0  0
 14 13  1  0  0  0  0
 15 17  1  0  0  0  0
 16 17  1  0  0  0  0
 18 20  1  0  0  0  0
 19 18  2  0  0  0  0
 20 43  1  0  0  0  0
 20 21  1  1  0  0  0
 21 22  1  0  0  0  0
 22 23  1  0  0  0  0
 24 25  1  6  0  0  0
 24 23  1  0  0  0  0
 25 30  1  0  0  0  0
 27 26  2  0  0  0  0
 27 35  1  0  0  0  0
 28 29  1  0  0  0  0
 28 30  2  0  0  0  0
 29 27  1  0  0  0  0
 30 26  1  0  0  0  0
 31 34  1  0  0  0  0
 32 31  1  0  0  0  0
 33 36  1  0  0  0  0
 34 36  2  0  0  0  0
 35 33  2  0  0  0  0
 37 35  1  0  0  0  0
 37 31  2  0  0  0  0
 39 42  1  0  0  0  0
 39 40  1  0  0  0  0
 40 38  1  0  0  0  0
 41 38  1  0  0  0  0
 42 24  1  6  0  0  0
 42 41  1  0  0  0  0
 44 43  1  0  0  0  0
 45 47  1  0  0  0  0
 47 44  1  0  0  0  0
 47 46  2  0  0  0  0
 49 50  2  0  0  0  0
 50 48  1  0  0  0  0
 51 61  1  0  0  0  0
 51 49  1  1  0  0  0
 52 53  2  0  0  0  0
 52 51  1  0  0  0  0
 54 52  1  0  0  0  0
 56 55  1  6  0  0  0
 56 57  1  0  0  0  0
 56 54  1  0  0  0  0
 59 58  1  1  0  0  0
 59 57  1  0  0  0  0
 60 59  1  0  0  0  0
 61 62  2  0  0  0  0
 63 61  1  0  0  0  0
 63 64  1  0  0  0  0
 64 66  1  0  0  0  0
 65 64  1  0  0  0  0
 65 66  1  0  0  0  0
M  END
>  <MODEL>
1

>  <REMARK>
 VINA RESULT:      -3.0      0.000      0.000
  Name = 
  27 active torsions:
  status: ('A' for Active; 'I' for Inactive)
    1  A    between atoms: C_3  and  C_5
    2  A    between atoms: C_3  and  C_14
    3  A    between atoms: C_6  and  N_10
    4  A    between atoms: C_6  and  N_50
    5  A    between atoms: C_6  and  C_61
    6  A    between atoms: O_7  and  C_37
    7  A    between atoms: O_7  and  C_45
    8  A    between atoms: C_8  and  C_17
    9  A    between atoms: C_9  and  C_42
   10  A    between atoms: N_11  and  C_37
   11  A    between atoms: C_13  and  C_42
   12  A    between atoms: C_13  and  O_53
   13  A    between atoms: C_17  and  C_18
   14  A    between atoms: C_17  and  C_26
   15  A    between atoms: C_18  and  C_48
   16  A    between atoms: C_23  and  C_49
   17  A    between atoms: C_27  and  C_28
   18  A    between atoms: C_27  and  C_37
   19  A    between atoms: C_28  and  N_50
   20  A    between atoms: C_29  and  C_55
   21  A    between atoms: C_31  and  C_42
   22  A    between atoms: C_35  and  O_53
   23  A    between atoms: C_44  and  C_45
   24  A    between atoms: C_46  and  N_59
   25  A    between atoms: C_46  and  N_66
   26  A    between atoms: C_51  and  N_59
   27  A    between atoms: C_55  and  S_60
                            x       y       z     vdW  Elec       q    Type
                         _______ _______ _______ _____ _____    ______ ____

>  <TORSDO>
F 27

$$$$
=
 OpenBabel11052411343D

 66 71  0  0  1  0  0  0  0  0999 V2000
  161.6120  207.8570  149.1600 C   0  0  2  0  0  3  0  0  0  0  0  0
  162.0150  211.6720  148.6040 C   0  0  2  0  0  3  0  0  0  0  0  0
  161.3160  209.3540  149.3160 C   0  0  2  0  0  3  0  0  0  0  0  0
  161.4120  210.2380  147.7170 S   0  0  0  0  0  0  0  0  0  0  0  0
  162.3360  210.0100  150.2470 C   0  0  0  0  0  2  0  0  0  0  0  0
  162.4160  211.4380  149.8450 C   0  0  0  0  0  2  0  0  0  0  0  0
  161.9380  213.0640  148.0520 C   0  0  1  0  0  3  0  0  0  0  0  0
  163.1150  213.7530  148.3610 O   0  0  0  0  0  1  0  0  0  0  0  0
  160.5560  213.9700  144.0600 C   0  0  0  0  0  2  0  0  0  0  0  0
  161.7050  213.0400  146.5400 C   0  0  2  0  0  3  0  0  0  0  0  0
  162.0210  214.2870  144.3750 C   0  0  1  0  0  3  0  0  0  0  0  0
  162.2480  214.3170  145.8860 C   0  0  0  0  0  2  0  0  0  0  0  0
  160.2740  212.9230  146.2550 N   0  0  0  0  0  2  0  0  0  0  0  0
  160.0980  212.7260  144.8190 C   0  0  0  0  0  2  0  0  0  0  0  0
  162.9700  213.2950  143.7130 C   0  0  0  0  0  2  0  0  0  0  0  0
  162.4310  214.0730  141.3040 N   0  0  0  0  0  1  0  0  0  0  0  0
  162.2170  212.5800  142.2210 S   0  0  0  0  0  0  0  0  0  0  0  0
  161.6110  206.2080  150.9470 N   0  0  0  0  0  0  0  0  0  0  0  0
  162.1550  207.2460  150.4200 C   0  0  0  0  0  3  0  0  0  0  0  0
  162.1620  205.6300  152.1440 C   0  0  1  0  0  3  0  0  0  0  0  0
  162.0960  206.6350  153.2840 C   0  0  0  0  0  2  0  0  0  0  0  0
  160.7800  206.5070  154.0280 C   0  0  0  0  0  2  0  0  0  0  0  0
  160.2330  207.8280  154.2940 N   0  0  0  0  0  2  0  0  0  0  0  0
  161.3180  208.7960  154.1620 C   0  0  1  0  0  3  0  0  0  0  0  0
  160.9230  209.8840  153.2720 N   0  0  0  0  0  2  0  0  0  0  0  0
  158.9650  210.7620  154.6730 C   0  0  0  0  0  3  0  0  0  0  0  0
  158.1180  211.7630  154.4970 C   0  0  0  0  0  0  0  0  0  0  0  0
  159.5650  211.7520  152.6980 N   0  0  0  0  0  0  0  0  0  0  0  0
  158.4220  212.4820  153.2200 C   0  0  0  0  0  2  0  0  0  0  0  0
  159.8510  210.8000  153.5200 C   0  0  0  0  0  0  0  0  0  0  0  0
  155.1090  211.5330  156.7730 C   0  0  0  0  0  0  0  0  0  0  0  0
  154.1380  210.5230  157.2600 C   0  0  0  0  0  1  0  0  0  0  0  0
  156.9180  213.4390  155.8990 C   0  0  0  0  0  3  0  0  0  0  0  0
  155.0240  212.8550  157.2040 C   0  0  0  0  0  3  0  0  0  0  0  0
  157.0380  212.1250  155.4330 C   0  0  0  0  0  0  0  0  0  0  0  0
  155.9240  213.7730  156.7620 N   0  0  0  0  0  0  0  0  0  0  0  0
  156.1170  211.1680  155.8820 C   0  0  0  0  0  3  0  0  0  0  0  0
  160.9660  211.0410  157.2570 C   0  0  0  0  0  2  0  0  0  0  0  0
  162.4120  210.6640  155.3860 N   0  0  0  0  0  2  0  0  0  0  0  0
  162.3540  211.2590  156.7070 C   0  0  0  0  0  2  0  0  0  0  0  0
  160.4380  209.4020  156.7060 S   0  0  0  0  0  0  0  0  0  0  0  0
  161.8100  209.3420  155.5110 C   0  0  1  0  0  3  0  0  0  0  0  0
  161.4350  204.4890  152.4820 O   0  0  0  0  0  0  0  0  0  0  0  0
  162.0160  203.4580  151.7400 C   0  0  0  0  0  2  0  0  0  0  0  0
  161.3310  202.1240  149.6410 C   0  0  0  0  0  1  0  0  0  0  0  0
  159.7420  202.6030  151.4320 C   0  0  0  0  0  2  0  0  0  0  0  0
  160.9680  202.7600  150.9390 C   0  0  0  0  0  0  0  0  0  0  0  0
  162.5780  207.6120  148.0100 C   0  0  0  0  0  2  0  0  0  0  0  0
  162.8260  205.9860  146.2020 C   0  0  0  0  0  3  0  0  0  0  0  0
  162.0930  206.4600  147.2030 C   0  0  0  0  0  3  0  0  0  0  0  0
  162.3410  204.8230  145.3930 C   0  0  2  0  0  3  0  0  0  0  0  0
  161.5830  205.3100  144.1970 C   0  0  0  0  0  0  0  0  0  0  0  0
  160.3280  205.1930  144.1480 O   0  0  0  0  0  0  0  0  0  0  0  0
  162.2950  205.9310  143.1230 N   0  0  0  0  0  2  0  0  0  0  0  0
  161.5770  205.3310  140.8580 C   0  0  0  0  0  1  0  0  0  0  0  0
  161.6670  206.4280  141.9030 C   0  0  2  0  0  3  0  0  0  0  0  0
  162.4100  207.5670  141.3840 N   0  0  0  0  0  2  0  0  0  0  0  0
  162.8470  207.3300  139.0150 C   0  0  0  0  0  1  0  0  0  0  0  0
  161.8950  207.8740  140.0600 C   0  0  2  0  0  3  0  0  0  0  0  0
  161.7400  209.6750  139.8520 S   0  0  0  0  0  1  0  0  0  0  0  0
  161.5350  203.8630  146.2240 C   0  0  0  0  0  0  0  0  0  0  0  0
  160.8820  204.2890  147.2160 O   0  0  0  0  0  0  0  0  0  0  0  0
  161.5840  202.4940  145.9530 O   0  0  0  0  0  0  0  0  0  0  0  0
  160.5580  201.6090  146.3810 C   0  0  0  0  0  3  0  0  0  0  0  0
  159.7820  201.1280  145.1720 C   0  0  0  0  0  2  0  0  0  0  0  0
  160.8190  200.2300  145.8070 C   0  0  0  0  0  2  0  0  0  0  0  0
  1 48  1  6  0  0  0
  1 19  1  0  0  0  0
  2  7  1  1  0  0  0
  2  6  1  0  0  0  0
  3  1  1  6  0  0  0
  3  5  1  0  0  0  0
  4  2  1  0  0  0  0
  4  3  1  0  0  0  0
  6  5  1  0  0  0  0
  7  8  1  6  0  0  0
  9 11  1  0  0  0  0
  9 14  1  0  0  0  0
 10  7  1  1  0  0  0
 11 15  1  6  0  0  0
 11 12  1  0  0  0  0
 12 10  1  0  0  0  0
 13 10  1  0  0  0  0
 14 13  1  0  0  0  0
 16 17  1  0  0  0  0
 17 15  1  0  0  0  0
 18 20  1  0  0  0  0
 19 18  2  0  0  0  0
 20 43  1  0  0  0  0
 20 21  1  1  0  0  0
 21 22  1  0  0  0  0
 22 23  1  0  0  0  0
 24 25  1  6  0  0  0
 24 23  1  0  0  0  0
 25 30  1  0  0  0  0
 27 26  2  0  0  0  0
 27 35  1  0  0  0  0
 28 29  1  0  0  0  0
 28 30  2  0  0  0  0
 29 27  1  0  0  0  0
 30 26  1  0  0  0  0
 31 34  1  0  0  0  0
 31 32  1  0  0  0  0
 33 36  1  0  0  0  0
 35 37  1  0  0  0  0
 35 33  2  0  0  0  0
 36 34  2  0  0  0  0
 37 31  2  0  0  0  0
 39 42  1  0  0  0  0
 39 40  1  0  0  0  0
 40 38  1  0  0  0  0
 41 38  1  0  0  0  0
 42 24  1  6  0  0  0
 42 41  1  0  0  0  0
 44 43  1  0  0  0  0
 45 47  1  0  0  0  0
 47 46  2  0  0  0  0
 47 44  1  0  0  0  0
 49 50  2  0  0  0  0
 50 48  1  0  0  0  0
 51 49  1  1  0  0  0
 51 61  1  0  0  0  0
 52 51  1  0  0  0  0
 53 52  2  0  0  0  0
 54 52  1  0  0  0  0
 56 55  1  6  0  0  0
 56 54  1  0  0  0  0
 57 56  1  0  0  0  0
 59 58  1  6  0  0  0
 59 57  1  0  0  0  0
 60 59  1  0  0  0  0
 61 62  2  0  0  0  0
 63 61  1  0  0  0  0
 63 64  1  0  0  0  0
 65 66  1  0  0  0  0
 65 64  1  0  0  0  0
 66 64  1  0  0  0  0
M  END
>  <MODEL>
2

>  <REMARK>
 VINA RESULT:      -2.4      1.346      1.991
  Name = 
  27 active torsions:
  status: ('A' for Active; 'I' for Inactive)
    1  A    between atoms: C_3  and  C_5
    2  A    between atoms: C_3  and  C_14
    3  A    between atoms: C_6  and  N_10
    4  A    between atoms: C_6  and  N_50
    5  A    between atoms: C_6  and  C_61
    6  A    between atoms: O_7  and  C_37
    7  A    between atoms: O_7  and  C_45
    8  A    between atoms: C_8  and  C_17
    9  A    between atoms: C_9  and  C_42
   10  A    between atoms: N_11  and  C_37
   11  A    between atoms: C_13  and  C_42
   12  A    between atoms: C_13  and  O_53
   13  A    between atoms: C_17  and  C_18
   14  A    between atoms: C_17  and  C_26
   15  A    between atoms: C_18  and  C_48
   16  A    between atoms: C_23  and  C_49
   17  A    between atoms: C_27  and  C_28
   18  A    between atoms: C_27  and  C_37
   19  A    between atoms: C_28  and  N_50
   20  A    between atoms: C_29  and  C_55
   21  A    between atoms: C_31  and  C_42
   22  A    between atoms: C_35  and  O_53
   23  A    between atoms: C_44  and  C_45
   24  A    between atoms: C_46  and  N_59
   25  A    between atoms: C_46  and  N_66
   26  A    between atoms: C_51  and  N_59
   27  A    between atoms: C_55  and  S_60
                            x       y       z     vdW  Elec       q    Type
                         _______ _______ _______ _____ _____    ______ ____

>  <TORSDO>
F 27

$$$$
=
 OpenBabel11052411343D

 66 71  0  0  1  0  0  0  0  0999 V2000
  162.0480  209.9510  150.4270 C   0  0  2  0  0  3  0  0  0  0  0  0
  162.3340  212.4880  147.5090 C   0  0  2  0  0  3  0  0  0  0  0  0
  162.1260  211.3190  149.7370 C   0  0  2  0  0  3  0  0  0  0  0  0
  161.1220  211.3690  148.2070 S   0  0  0  0  0  0  0  0  0  0  0  0
  163.5660  211.6350  149.3330 C   0  0  0  0  0  2  0  0  0  0  0  0
  163.4840  212.5520  148.1650 C   0  0  0  0  0  2  0  0  0  0  0  0
  162.0330  213.4030  146.3600 C   0  0  1  0  0  3  0  0  0  0  0  0
  162.9200  213.1400  145.3110 O   0  0  0  0  0  1  0  0  0  0  0  0
  157.8680  214.1150  145.4620 C   0  0  0  0  0  2  0  0  0  0  0  0
  160.5840  213.2400  145.8970 C   0  0  2  0  0  3  0  0  0  0  0  0
  158.8280  214.0250  144.2720 C   0  0  1  0  0  3  0  0  0  0  0  0
  160.2730  214.1940  144.7380 C   0  0  0  0  0  2  0  0  0  0  0  0
  159.6690  213.5130  147.0070 N   0  0  0  0  0  2  0  0  0  0  0  0
  158.3110  213.1800  146.5860 C   0  0  0  0  0  2  0  0  0  0  0  0
  158.6630  212.7140  143.5110 C   0  0  0  0  0  2  0  0  0  0  0  0
  160.1790  212.7640  141.4140 N   0  0  0  0  0  1  0  0  0  0  0  0
  160.2820  212.0450  143.0220 S   0  0  0  0  0  0  0  0  0  0  0  0
  161.0830  207.8160  149.7800 N   0  0  0  0  0  0  0  0  0  0  0  0
  161.7970  208.8320  149.4560 C   0  0  0  0  0  3  0  0  0  0  0  0
  160.8420  206.7660  148.8250 C   0  0  1  0  0  3  0  0  0  0  0  0
  161.5470  207.0820  147.5160 C   0  0  0  0  0  2  0  0  0  0  0  0
  160.7060  206.6310  146.3370 C   0  0  0  0  0  2  0  0  0  0  0  0
  161.5360  206.5260  145.1480 N   0  0  0  0  0  2  0  0  0  0  0  0
  160.8600  205.6380  144.2070 C   0  0  1  0  0  3  0  0  0  0  0  0
  161.7610  205.2660  143.1210 N   0  0  0  0  0  2  0  0  0  0  0  0
  161.2620  207.2540  141.5820 C   0  0  0  0  0  3  0  0  0  0  0  0
  161.7270  207.6030  140.3930 C   0  0  0  0  0  0  0  0  0  0  0  0
  162.7860  205.6460  141.0070 N   0  0  0  0  0  0  0  0  0  0  0  0
  162.7380  206.6070  139.9180 C   0  0  0  0  0  2  0  0  0  0  0  0
  161.9590  206.0230  141.9220 C   0  0  0  0  0  0  0  0  0  0  0  0
  159.6270  210.4070  138.9740 C   0  0  0  0  0  0  0  0  0  0  0  0
  158.2260  210.8940  139.0060 C   0  0  0  0  0  1  0  0  0  0  0  0
  162.2540  209.5350  138.9090 C   0  0  0  0  0  3  0  0  0  0  0  0
  160.5930  211.0930  138.2420 C   0  0  0  0  0  3  0  0  0  0  0  0
  161.3170  208.8090  139.6520 C   0  0  0  0  0  0  0  0  0  0  0  0
  161.8770  210.6470  138.2260 N   0  0  0  0  0  0  0  0  0  0  0  0
  159.9900  209.2590  139.6780 C   0  0  0  0  0  3  0  0  0  0  0  0
  161.0000  201.9550  145.2800 C   0  0  0  0  0  2  0  0  0  0  0  0
  159.7290  203.4440  143.9020 N   0  0  0  0  0  2  0  0  0  0  0  0
  159.6830  202.1610  144.5740 C   0  0  0  0  0  2  0  0  0  0  0  0
  161.5110  203.5690  145.9130 S   0  0  0  0  0  0  0  0  0  0  0  0
  160.2620  204.3910  144.8750 C   0  0  1  0  0  3  0  0  0  0  0  0
  161.3200  205.5600  149.3360 O   0  0  0  0  0  0  0  0  0  0  0  0
  160.3790  205.1740  150.2940 C   0  0  0  0  0  2  0  0  0  0  0  0
  161.0750  204.2340  152.5920 C   0  0  0  0  0  1  0  0  0  0  0  0
  161.1760  202.8740  150.5670 C   0  0  0  0  0  2  0  0  0  0  0  0
  160.9280  204.0590  151.1200 C   0  0  0  0  0  0  0  0  0  0  0  0
  160.9750  209.9480  151.5060 C   0  0  0  0  0  2  0  0  0  0  0  0
  160.3420  211.8330  152.9280 C   0  0  0  0  0  3  0  0  0  0  0  0
  160.4790  211.3370  151.7030 C   0  0  0  0  0  3  0  0  0  0  0  0
  159.8500  213.2320  153.1280 C   0  0  2  0  0  3  0  0  0  0  0  0
  158.9440  213.2920  154.3200 C   0  0  0  0  0  0  0  0  0  0  0  0
  159.2880  212.7530  155.4070 O   0  0  0  0  0  0  0  0  0  0  0  0
  157.7000  213.9880  154.2170 N   0  0  0  0  0  2  0  0  0  0  0  0
  157.3960  213.8530  156.6460 C   0  0  0  0  0  1  0  0  0  0  0  0
  156.7310  214.0980  155.3040 C   0  0  2  0  0  3  0  0  0  0  0  0
  155.6380  213.1600  155.0980 N   0  0  0  0  0  2  0  0  0  0  0  0
  155.7960  210.7730  154.7240 C   0  0  0  0  0  1  0  0  0  0  0  0
  156.0060  211.8970  155.7170 C   0  0  2  0  0  3  0  0  0  0  0  0
  154.9760  211.5990  157.1880 S   0  0  0  0  0  1  0  0  0  0  0  0
  159.1940  213.7750  151.8880 C   0  0  0  0  0  0  0  0  0  0  0  0
  159.8700  214.4530  151.0670 O   0  0  0  0  0  0  0  0  0  0  0  0
  157.8210  213.6040  151.6920 O   0  0  0  0  0  0  0  0  0  0  0  0
  157.0760  214.4530  150.8310 C   0  0  0  0  0  3  0  0  0  0  0  0
  156.1180  213.6120  150.0140 C   0  0  0  0  0  2  0  0  0  0  0  0
  155.6100  214.3840  151.2100 C   0  0  0  0  0  2  0  0  0  0  0  0
  1 19  1  6  0  0  0
  1 48  1  0  0  0  0
  2  7  1  1  0  0  0
  2  6  1  0  0  0  0
  2  4  1  0  0  0  0
  3  1  1  6  0  0  0
  4  3  1  0  0  0  0
  5  3  1  0  0  0  0
  6  5  1  0  0  0  0
  7  8  1  6  0  0  0
  9 14  1  0  0  0  0
 10  7  1  1  0  0  0
 10 13  1  0  0  0  0
 11 15  1  1  0  0  0
 11 12  1  0  0  0  0
 11  9  1  0  0  0  0
 12 10  1  0  0  0  0
 14 13  1  0  0  0  0
 16 17  1  0  0  0  0
 17 15  1  0  0  0  0
 19 18  2  0  0  0  0
 20 21  1  6  0  0  0
 20 43  1  0  0  0  0
 20 18  1  0  0  0  0
 22 21  1  0  0  0  0
 23 22  1  0  0  0  0
 24 25  1  6  0  0  0
 24 23  1  0  0  0  0
 26 30  1  0  0  0  0
 27 26  2  0  0  0  0
 28 30  2  0  0  0  0
 29 27  1  0  0  0  0
 29 28  1  0  0  0  0
 30 25  1  0  0  0  0
 31 32  1  0  0  0  0
 31 37  1  0  0  0  0
 33 35  1  0  0  0  0
 34 31  2  0  0  0  0
 35 37  2  0  0  0  0
 35 27  1  0  0  0  0
 36 34  1  0  0  0  0
 36 33  2  0  0  0  0
 38 41  1  0  0  0  0
 39 40  1  0  0  0  0
 39 42  1  0  0  0  0
 40 38  1  0  0  0  0
 42 24  1  6  0  0  0
 42 41  1  0  0  0  0
 43 44  1  0  0  0  0
 44 47  1  0  0  0  0
 46 47  2  0  0  0  0
 47 45  1  0  0  0  0
 48 50  1  0  0  0  0
 50 49  2  0  0  0  0
 51 49  1  6  0  0  0
 51 52  1  0  0  0  0
 52 53  2  0  0  0  0
 54 52  1  0  0  0  0
 54 56  1  0  0  0  0
 56 55  1  1  0  0  0
 57 56  1  0  0  0  0
 57 59  1  0  0  0  0
 59 58  1  6  0  0  0
 59 60  1  0  0  0  0
 61 51  1  0  0  0  0
 62 61  2  0  0  0  0
 63 61  1  0  0  0  0
 64 66  1  0  0  0  0
 64 63  1  0  0  0  0
 65 64  1  0  0  0  0
 65 66  1  0  0  0  0
M  END
>  <MODEL>
3

>  <REMARK>
 VINA RESULT:      -2.2      2.858     11.297
  Name = 
  27 active torsions:
  status: ('A' for Active; 'I' for Inactive)
    1  A    between atoms: C_3  and  C_5
    2  A    between atoms: C_3  and  C_14
    3  A    between atoms: C_6  and  N_10
    4  A    between atoms: C_6  and  N_50
    5  A    between atoms: C_6  and  C_61
    6  A    between atoms: O_7  and  C_37
    7  A    between atoms: O_7  and  C_45
    8  A    between atoms: C_8  and  C_17
    9  A    between atoms: C_9  and  C_42
   10  A    between atoms: N_11  and  C_37
   11  A    between atoms: C_13  and  C_42
   12  A    between atoms: C_13  and  O_53
   13  A    between atoms: C_17  and  C_18
   14  A    between atoms: C_17  and  C_26
   15  A    between atoms: C_18  and  C_48
   16  A    between atoms: C_23  and  C_49
   17  A    between atoms: C_27  and  C_28
   18  A    between atoms: C_27  and  C_37
   19  A    between atoms: C_28  and  N_50
   20  A    between atoms: C_29  and  C_55
   21  A    between atoms: C_31  and  C_42
   22  A    between atoms: C_35  and  O_53
   23  A    between atoms: C_44  and  C_45
   24  A    between atoms: C_46  and  N_59
   25  A    between atoms: C_46  and  N_66
   26  A    between atoms: C_51  and  N_59
   27  A    between atoms: C_55  and  S_60
                            x       y       z     vdW  Elec       q    Type
                         _______ _______ _______ _____ _____    ______ ____

>  <TORSDO>
F 27

$$$$
=
 OpenBabel11052411343D

 66 71  0  0  1  0  0  0  0  0999 V2000
  161.9220  210.1890  149.7230 C   0  0  2  0  0  3  0  0  0  0  0  0
  160.8890  210.4790  153.4490 C   0  0  2  0  0  3  0  0  0  0  0  0
  161.7570  209.7660  151.1880 C   0  0  2  0  0  3  0  0  0  0  0  0
  160.1160  210.2310  151.8520 S   0  0  0  0  0  0  0  0  0  0  0  0
  162.8020  210.4530  152.0670 C   0  0  0  0  0  2  0  0  0  0  0  0
  162.2120  210.5450  153.4290 C   0  0  0  0  0  2  0  0  0  0  0  0
  160.1220  210.4630  154.7370 C   0  0  1  0  0  3  0  0  0  0  0  0
  161.0100  210.3050  155.8060 O   0  0  0  0  0  1  0  0  0  0  0  0
  158.5170  214.4440  154.2420 C   0  0  0  0  0  2  0  0  0  0  0  0
  159.3020  211.7450  154.9000 C   0  0  2  0  0  3  0  0  0  0  0  0
  157.6170  213.2770  153.8250 C   0  0  1  0  0  3  0  0  0  0  0  0
  158.4400  212.0000  153.6570 C   0  0  0  0  0  2  0  0  0  0  0  0
  160.1930  212.8870  155.1130 N   0  0  0  0  0  2  0  0  0  0  0  0
  159.3830  214.0570  155.4390 C   0  0  0  0  0  2  0  0  0  0  0  0
  156.4840  213.0520  154.8200 C   0  0  0  0  0  2  0  0  0  0  0  0
  155.6360  214.2850  152.7080 N   0  0  0  0  0  1  0  0  0  0  0  0
  154.9980  213.9740  154.3240 S   0  0  0  0  0  0  0  0  0  0  0  0
  161.6910  207.8630  149.0580 N   0  0  0  0  0  0  0  0  0  0  0  0
  162.1850  209.0230  148.8150 C   0  0  0  0  0  3  0  0  0  0  0  0
  161.9430  206.7650  148.1630 C   0  0  1  0  0  3  0  0  0  0  0  0
  161.2190  205.5200  148.6500 C   0  0  0  0  0  2  0  0  0  0  0  0
  161.2030  205.4740  150.1660 C   0  0  0  0  0  2  0  0  0  0  0  0
  160.0740  204.6810  150.6240 N   0  0  0  0  0  2  0  0  0  0  0  0
  160.2990  204.3530  152.0300 C   0  0  1  0  0  3  0  0  0  0  0  0
  160.8840  203.0220  152.1540 N   0  0  0  0  0  2  0  0  0  0  0  0
  160.6950  202.3480  149.6880 C   0  0  0  0  0  3  0  0  0  0  0  0
  161.0400  201.2520  149.0320 C   0  0  0  0  0  0  0  0  0  0  0  0
  161.6240  200.9500  151.2450 N   0  0  0  0  0  0  0  0  0  0  0  0
  161.6610  200.2610  149.9660 C   0  0  0  0  0  2  0  0  0  0  0  0
  161.0830  202.1080  151.0700 C   0  0  0  0  0  0  0  0  0  0  0  0
  160.9790  199.6460  145.6120 C   0  0  0  0  0  0  0  0  0  0  0  0
  161.3050  198.3490  144.9680 C   0  0  0  0  0  1  0  0  0  0  0  0
  160.3440  202.0720  146.7840 C   0  0  0  0  0  3  0  0  0  0  0  0
  160.4760  200.7000  144.8520 C   0  0  0  0  0  3  0  0  0  0  0  0
  160.8540  201.0450  147.5850 C   0  0  0  0  0  0  0  0  0  0  0  0
  160.1700  201.8810  145.4500 N   0  0  0  0  0  0  0  0  0  0  0  0
  161.1720  199.8200  146.9810 C   0  0  0  0  0  3  0  0  0  0  0  0
  160.9200  206.8300  154.8970 C   0  0  0  0  0  2  0  0  0  0  0  0
  160.6940  206.7600  152.5140 N   0  0  0  0  0  2  0  0  0  0  0  0
  161.2030  207.5630  153.6090 C   0  0  0  0  0  2  0  0  0  0  0  0
  161.1480  205.0690  154.5560 S   0  0  0  0  0  0  0  0  0  0  0  0
  161.1510  205.3980  152.7650 C   0  0  1  0  0  3  0  0  0  0  0  0
  161.4930  207.0990  146.8860 O   0  0  0  0  0  0  0  0  0  0  0  0
  160.9410  205.9210  146.3760 C   0  0  0  0  0  2  0  0  0  0  0  0
  162.7740  204.6440  145.0880 C   0  0  0  0  0  1  0  0  0  0  0  0
  161.0890  205.9810  143.9330 C   0  0  0  0  0  2  0  0  0  0  0  0
  161.6050  205.5690  145.0880 C   0  0  0  0  0  0  0  0  0  0  0  0
  163.0340  211.2180  149.5780 C   0  0  0  0  0  2  0  0  0  0  0  0
  162.7620  212.3570  147.4330 C   0  0  0  0  0  3  0  0  0  0  0  0
  162.5470  212.3490  148.7440 C   0  0  0  0  0  3  0  0  0  0  0  0
  162.2670  213.4920  146.5910 C   0  0  2  0  0  3  0  0  0  0  0  0
  160.9250  213.9460  147.0800 C   0  0  0  0  0  0  0  0  0  0  0  0
  160.0930  214.4500  146.2780 O   0  0  0  0  0  0  0  0  0  0  0  0
  160.5910  213.7780  148.4600 N   0  0  0  0  0  2  0  0  0  0  0  0
  159.4270  214.2440  150.5660 C   0  0  0  0  0  1  0  0  0  0  0  0
  159.3250  214.1970  149.0530 C   0  0  2  0  0  3  0  0  0  0  0  0
  158.2570  213.2980  148.6410 N   0  0  0  0  0  2  0  0  0  0  0  0
  156.3480  214.2700  147.5140 C   0  0  0  0  0  1  0  0  0  0  0  0
  157.7610  213.7500  147.3520 C   0  0  2  0  0  3  0  0  0  0  0  0
  157.7600  212.3700  146.1640 S   0  0  0  0  0  1  0  0  0  0  0  0
  162.2480  213.1360  145.1300 C   0  0  0  0  0  0  0  0  0  0  0  0
  163.2450  213.4090  144.4060 O   0  0  0  0  0  0  0  0  0  0  0  0
  161.0970  212.5880  144.5590 O   0  0  0  0  0  0  0  0  0  0  0  0
  160.4620  213.1820  143.4360 C   0  0  0  0  0  3  0  0  0  0  0  0
  161.4440  213.2400  142.2850 C   0  0  0  0  0  2  0  0  0  0  0  0
  160.3810  212.1650  142.3150 C   0  0  0  0  0  2  0  0  0  0  0  0
  1 19  1  6  0  0  0
  2  7  1  1  0  0  0
  3  1  1  6  0  0  0
  3  4  1  0  0  0  0
  3  5  1  0  0  0  0
  4  2  1  0  0  0  0
  5  6  1  0  0  0  0
  6  2  1  0  0  0  0
  7  8  1  1  0  0  0
  9 14  1  0  0  0  0
 10  7  1  6  0  0  0
 10 13  1  0  0  0  0
 11  9  1  0  0  0  0
 11 15  1  1  0  0  0
 12 11  1  0  0  0  0
 12 10  1  0  0  0  0
 13 14  1  0  0  0  0
 16 17  1  0  0  0  0
 17 15  1  0  0  0  0
 19 18  2  0  0  0  0
 20 21  1  1  0  0  0
 20 18  1  0  0  0  0
 21 22  1  0  0  0  0
 22 23  1  0  0  0  0
 24 23  1  6  0  0  0
 24 25  1  0  0  0  0
 26 30  1  0  0  0  0
 27 26  2  0  0  0  0
 27 29  1  0  0  0  0
 29 28  1  0  0  0  0
 30 28  2  0  0  0  0
 30 25  1  0  0  0  0
 31 37  1  0  0  0  0
 32 31  1  0  0  0  0
 33 35  1  0  0  0  0
 34 36  1  0  0  0  0
 34 31  2  0  0  0  0
 35 27  1  0  0  0  0
 36 33  2  0  0  0  0
 37 35  2  0  0  0  0
 39 42  1  0  0  0  0
 39 40  1  0  0  0  0
 40 38  1  0  0  0  0
 41 38  1  0  0  0  0
 42 24  1  6  0  0  0
 42 41  1  0  0  0  0
 43 20  1  0  0  0  0
 44 43  1  0  0  0  0
 46 47  2  0  0  0  0
 47 45  1  0  0  0  0
 47 44  1  0  0  0  0
 48  1  1  0  0  0  0
 49 50  2  0  0  0  0
 50 48  1  0  0  0  0
 51 52  1  0  0  0  0
 51 49  1  1  0  0  0
 52 54  1  0  0  0  0
 53 52  2  0  0  0  0
 54 56  1  0  0  0  0
 56 55  1  1  0  0  0
 57 56  1  0  0  0  0
 59 58  1  1  0  0  0
 59 57  1  0  0  0  0
 60 59  1  0  0  0  0
 61 51  1  0  0  0  0
 62 61  2  0  0  0  0
 63 61  1  0  0  0  0
 64 63  1  0  0  0  0
 65 66  1  0  0  0  0
 65 64  1  0  0  0  0
 66 64  1  0  0  0  0
M  END
>  <MODEL>
4

>  <REMARK>
 VINA RESULT:      -2.0      2.770      9.244
  Name = 
  27 active torsions:
  status: ('A' for Active; 'I' for Inactive)
    1  A    between atoms: C_3  and  C_5
    2  A    between atoms: C_3  and  C_14
    3  A    between atoms: C_6  and  N_10
    4  A    between atoms: C_6  and  N_50
    5  A    between atoms: C_6  and  C_61
    6  A    between atoms: O_7  and  C_37
    7  A    between atoms: O_7  and  C_45
    8  A    between atoms: C_8  and  C_17
    9  A    between atoms: C_9  and  C_42
   10  A    between atoms: N_11  and  C_37
   11  A    between atoms: C_13  and  C_42
   12  A    between atoms: C_13  and  O_53
   13  A    between atoms: C_17  and  C_18
   14  A    between atoms: C_17  and  C_26
   15  A    between atoms: C_18  and  C_48
   16  A    between atoms: C_23  and  C_49
   17  A    between atoms: C_27  and  C_28
   18  A    between atoms: C_27  and  C_37
   19  A    between atoms: C_28  and  N_50
   20  A    between atoms: C_29  and  C_55
   21  A    between atoms: C_31  and  C_42
   22  A    between atoms: C_35  and  O_53
   23  A    between atoms: C_44  and  C_45
   24  A    between atoms: C_46  and  N_59
   25  A    between atoms: C_46  and  N_66
   26  A    between atoms: C_51  and  N_59
   27  A    between atoms: C_55  and  S_60
                            x       y       z     vdW  Elec       q    Type
                         _______ _______ _______ _____ _____    ______ ____

>  <TORSDO>
F 27

$$$$
=
 OpenBabel11052411343D

 66 71  0  0  1  0  0  0  0  0999 V2000
  161.7230  209.5850  149.1110 C   0  0  2  0  0  3  0  0  0  0  0  0
  162.2510  206.2160  147.2660 C   0  0  2  0  0  3  0  0  0  0  0  0
  162.3910  208.2510  148.7530 C   0  0  2  0  0  3  0  0  0  0  0  0
  162.4250  207.9690  146.9450 S   0  0  0  0  0  0  0  0  0  0  0  0
  161.6220  207.0820  149.3690 C   0  0  0  0  0  2  0  0  0  0  0  0
  161.8770  205.9040  148.4990 C   0  0  0  0  0  2  0  0  0  0  0  0
  162.6390  205.1620  146.2730 C   0  0  1  0  0  3  0  0  0  0  0  0
  163.8320  204.5560  146.6780 O   0  0  0  0  0  1  0  0  0  0  0  0
  160.1860  201.9020  144.8510 C   0  0  0  0  0  2  0  0  0  0  0  0
  161.5280  204.1200  146.1200 C   0  0  2  0  0  3  0  0  0  0  0  0
  160.9740  201.6640  146.1430 C   0  0  1  0  0  3  0  0  0  0  0  0
  162.0860  202.7020  146.2890 C   0  0  0  0  0  2  0  0  0  0  0  0
  160.9060  204.2410  144.8000 N   0  0  0  0  0  2  0  0  0  0  0  0
  159.7430  203.3590  144.7490 C   0  0  0  0  0  2  0  0  0  0  0  0
  160.0680  201.6780  147.3690 C   0  0  0  0  0  2  0  0  0  0  0  0
  159.5240  201.2090  149.8550 N   0  0  0  0  0  1  0  0  0  0  0  0
  160.9580  201.0720  148.8340 S   0  0  0  0  0  0  0  0  0  0  0  0
  161.0220  210.7030  151.1520 N   0  0  0  0  0  0  0  0  0  0  0  0
  161.1920  209.6010  150.5160 C   0  0  0  0  0  3  0  0  0  0  0  0
  160.4940  210.6930  152.4900 C   0  0  1  0  0  3  0  0  0  0  0  0
  161.4110  211.4780  153.4160 C   0  0  0  0  0  2  0  0  0  0  0  0
  161.3510  210.9170  154.8240 C   0  0  0  0  0  2  0  0  0  0  0  0
  160.6070  211.8210  155.6850 N   0  0  0  0  0  2  0  0  0  0  0  0
  159.3090  211.2100  155.9600 C   0  0  1  0  0  3  0  0  0  0  0  0
  159.4660  210.0550  156.8380 N   0  0  0  0  0  2  0  0  0  0  0  0
  160.3200  208.4090  155.0680 C   0  0  0  0  0  3  0  0  0  0  0  0
  160.6890  207.1400  155.1320 C   0  0  0  0  0  0  0  0  0  0  0  0
  160.0820  207.7950  157.2610 N   0  0  0  0  0  0  0  0  0  0  0  0
  160.5680  206.6340  156.5350 C   0  0  0  0  0  2  0  0  0  0  0  0
  159.9510  208.7710  156.4280 C   0  0  0  0  0  0  0  0  0  0  0  0
  161.0330  204.3900  152.5620 C   0  0  0  0  0  0  0  0  0  0  0  0
  160.4000  203.0980  152.2010 C   0  0  0  0  0  1  0  0  0  0  0  0
  162.2260  206.8070  153.1970 C   0  0  0  0  0  3  0  0  0  0  0  0
  162.0960  204.8860  151.8100 C   0  0  0  0  0  3  0  0  0  0  0  0
  161.1660  206.3450  153.9860 C   0  0  0  0  0  0  0  0  0  0  0  0
  162.6650  206.0750  152.1410 N   0  0  0  0  0  0  0  0  0  0  0  0
  160.5700  205.1200  153.6550 C   0  0  0  0  0  3  0  0  0  0  0  0
  156.7170  214.0180  155.5940 C   0  0  0  0  0  2  0  0  0  0  0  0
  158.8200  213.5520  156.6380 N   0  0  0  0  0  2  0  0  0  0  0  0
  157.6720  214.4370  156.6830 C   0  0  0  0  0  2  0  0  0  0  0  0
  156.7780  212.2130  155.5110 S   0  0  0  0  0  0  0  0  0  0  0  0
  158.2840  212.2000  156.5330 C   0  0  1  0  0  3  0  0  0  0  0  0
  159.2240  211.2690  152.4900 O   0  0  0  0  0  0  0  0  0  0  0  0
  159.2720  212.2520  151.4990 C   0  0  0  0  0  2  0  0  0  0  0  0
  157.2450  213.8450  151.4510 C   0  0  0  0  0  1  0  0  0  0  0  0
  159.1260  214.2090  152.9640 C   0  0  0  0  0  2  0  0  0  0  0  0
  158.5910  213.4890  151.9810 C   0  0  0  0  0  0  0  0  0  0  0  0
  160.6030  209.9100  148.1330 C   0  0  0  0  0  2  0  0  0  0  0  0
  159.8620  211.8490  146.8410 C   0  0  0  0  0  3  0  0  0  0  0  0
  160.7450  211.3200  147.6820 C   0  0  0  0  0  3  0  0  0  0  0  0
  160.0000  213.2700  146.3920 C   0  0  2  0  0  3  0  0  0  0  0  0
  160.4650  213.3160  144.9690 C   0  0  0  0  0  0  0  0  0  0  0  0
  160.8980  214.3930  144.4760 O   0  0  0  0  0  0  0  0  0  0  0  0
  160.4360  212.1200  144.1860 N   0  0  0  0  0  2  0  0  0  0  0  0
  162.3270  212.3510  142.6430 C   0  0  0  0  0  1  0  0  0  0  0  0
  160.8470  212.0470  142.7870 C   0  0  2  0  0  3  0  0  0  0  0  0
  160.0570  212.9690  141.9840 N   0  0  0  0  0  2  0  0  0  0  0  0
  159.5800  213.6690  139.7160 C   0  0  0  0  0  1  0  0  0  0  0  0
  160.4970  212.8540  140.6040 C   0  0  2  0  0  3  0  0  0  0  0  0
  160.4500  211.1120  140.0770 S   0  0  0  0  0  1  0  0  0  0  0  0
  160.8940  214.0600  147.3080 C   0  0  0  0  0  0  0  0  0  0  0  0
  160.4630  214.4390  148.4310 O   0  0  0  0  0  0  0  0  0  0  0  0
  162.1660  214.4480  146.8790 O   0  0  0  0  0  0  0  0  0  0  0  0
  163.3380  214.1080  147.6050 C   0  0  0  0  0  3  0  0  0  0  0  0
  163.0120  212.9970  148.5820 C   0  0  0  0  0  2  0  0  0  0  0  0
  163.7240  212.6770  147.2880 C   0  0  0  0  0  2  0  0  0  0  0  0
  1 48  1  6  0  0  0
  1 19  1  0  0  0  0
  2  7  1  1  0  0  0
  2  6  1  0  0  0  0
  3  1  1  6  0  0  0
  3  5  1  0  0  0  0
  4  2  1  0  0  0  0
  4  3  1  0  0  0  0
  6  5  1  0  0  0  0
  7  8  1  1  0  0  0
  9 11  1  0  0  0  0
 10  7  1  6  0  0  0
 10 12  1  0  0  0  0
 11 12  1  0  0  0  0
 11 15  1  1  0  0  0
 13 10  1  0  0  0  0
 14 13  1  0  0  0  0
 14  9  1  0  0  0  0
 15 17  1  0  0  0  0
 17 16  1  0  0  0  0
 18 20  1  0  0  0  0
 19 18  2  0  0  0  0
 20 21  1  1  0  0  0
 21 22  1  0  0  0  0
 22 23  1  0  0  0  0
 24 23  1  1  0  0  0
 24 25  1  0  0  0  0
 26 27  2  0  0  0  0
 26 30  1  0  0  0  0
 27 29  1  0  0  0  0
 29 28  1  0  0  0  0
 30 25  1  0  0  0  0
 30 28  2  0  0  0  0
 31 37  1  0  0  0  0
 32 31  1  0  0  0  0
 33 35  1  0  0  0  0
 34 36  1  0  0  0  0
 34 31  2  0  0  0  0
 35 27  1  0  0  0  0
 36 33  2  0  0  0  0
 37 35  2  0  0  0  0
 38 40  1  0  0  0  0
 39 40  1  0  0  0  0
 41 38  1  0  0  0  0
 41 42  1  0  0  0  0
 42 24  1  6  0  0  0
 42 39  1  0  0  0  0
 43 20  1  0  0  0  0
 44 47  1  0  0  0  0
 44 43  1  0  0  0  0
 45 47  1  0  0  0  0
 47 46  2  0  0  0  0
 49 50  2  0  0  0  0
 50 48  1  0  0  0  0
 51 49  1  1  0  0  0
 51 61  1  0  0  0  0
 52 51  1  0  0  0  0
 53 52  2  0  0  0  0
 54 52  1  0  0  0  0
 56 55  1  1  0  0  0
 56 54  1  0  0  0  0
 57 56  1  0  0  0  0
 59 58  1  6  0  0  0
 59 57  1  0  0  0  0
 60 59  1  0  0  0  0
 61 62  2  0  0  0  0
 63 61  1  0  0  0  0
 63 64  1  0  0  0  0
 64 65  1  0  0  0  0
 66 64  1  0  0  0  0
 66 65  1  0  0  0  0
M  END
>  <MODEL>
5

>  <REMARK>
 VINA RESULT:      -1.4      2.681      8.165
  Name = 
  27 active torsions:
  status: ('A' for Active; 'I' for Inactive)
    1  A    between atoms: C_3  and  C_5
    2  A    between atoms: C_3  and  C_14
    3  A    between atoms: C_6  and  N_10
    4  A    between atoms: C_6  and  N_50
    5  A    between atoms: C_6  and  C_61
    6  A    between atoms: O_7  and  C_37
    7  A    between atoms: O_7  and  C_45
    8  A    between atoms: C_8  and  C_17
    9  A    between atoms: C_9  and  C_42
   10  A    between atoms: N_11  and  C_37
   11  A    between atoms: C_13  and  C_42
   12  A    between atoms: C_13  and  O_53
   13  A    between atoms: C_17  and  C_18
   14  A    between atoms: C_17  and  C_26
   15  A    between atoms: C_18  and  C_48
   16  A    between atoms: C_23  and  C_49
   17  A    between atoms: C_27  and  C_28
   18  A    between atoms: C_27  and  C_37
   19  A    between atoms: C_28  and  N_50
   20  A    between atoms: C_29  and  C_55
   21  A    between atoms: C_31  and  C_42
   22  A    between atoms: C_35  and  O_53
   23  A    between atoms: C_44  and  C_45
   24  A    between atoms: C_46  and  N_59
   25  A    between atoms: C_46  and  N_66
   26  A    between atoms: C_51  and  N_59
   27  A    between atoms: C_55  and  S_60
                            x       y       z     vdW  Elec       q    Type
                         _______ _______ _______ _____ _____    ______ ____

>  <TORSDO>
F 27

$$$$
=
 OpenBabel11052411343D

 66 71  0  0  1  0  0  0  0  0999 V2000
  162.5530  211.1540  149.4160 C   0  0  2  0  0  3  0  0  0  0  0  0
  160.4970  212.7650  146.5510 C   0  0  2  0  0  3  0  0  0  0  0  0
  161.4030  211.9210  148.7510 C   0  0  2  0  0  3  0  0  0  0  0  0
  160.8730  211.1330  147.1860 S   0  0  0  0  0  0  0  0  0  0  0  0
  161.8370  213.3460  148.4050 C   0  0  0  0  0  2  0  0  0  0  0  0
  161.0030  213.7710  147.2500 C   0  0  0  0  0  2  0  0  0  0  0  0
  159.5580  212.9980  145.4060 C   0  0  1  0  0  3  0  0  0  0  0  0
  158.7520  214.1070  145.6820 O   0  0  0  0  0  1  0  0  0  0  0  0
  162.3680  212.5890  142.1500 C   0  0  0  0  0  2  0  0  0  0  0  0
  160.3290  213.1990  144.1000 C   0  0  2  0  0  3  0  0  0  0  0  0
  160.9140  212.1990  141.8650 C   0  0  1  0  0  3  0  0  0  0  0  0
  160.1500  211.9920  143.1710 C   0  0  0  0  0  2  0  0  0  0  0  0
  161.7530  213.3860  144.3820 N   0  0  0  0  0  2  0  0  0  0  0  0
  162.4310  213.7490  143.1410 C   0  0  0  0  0  2  0  0  0  0  0  0
  160.2120  213.2350  140.9950 C   0  0  0  0  0  2  0  0  0  0  0  0
  159.6560  214.3780  138.7400 N   0  0  0  0  0  1  0  0  0  0  0  0
  160.7400  213.0870  139.2610 S   0  0  0  0  0  0  0  0  0  0  0  0
  162.0870  209.0910  148.2170 N   0  0  0  0  0  0  0  0  0  0  0  0
  162.3760  209.6650  149.3290 C   0  0  0  0  0  3  0  0  0  0  0  0
  161.9410  207.6610  148.1570 C   0  0  1  0  0  3  0  0  0  0  0  0
  161.1000  207.1740  149.3270 C   0  0  0  0  0  2  0  0  0  0  0  0
  160.0590  206.1780  148.8540 C   0  0  0  0  0  2  0  0  0  0  0  0
  160.4580  204.8310  149.2270 N   0  0  0  0  0  2  0  0  0  0  0  0
  160.4230  204.7420  150.6850 C   0  0  1  0  0  3  0  0  0  0  0  0
  160.8010  203.4010  151.1210 N   0  0  0  0  0  2  0  0  0  0  0  0
  160.6910  202.2630  148.8270 C   0  0  0  0  0  3  0  0  0  0  0  0
  160.9210  201.0210  148.4330 C   0  0  0  0  0  0  0  0  0  0  0  0
  161.2970  201.1100  150.7100 N   0  0  0  0  0  0  0  0  0  0  0  0
  161.3250  200.1740  149.5990 C   0  0  0  0  0  2  0  0  0  0  0  0
  160.9420  202.2660  150.2600 C   0  0  0  0  0  0  0  0  0  0  0  0
  161.1950  198.8670  145.3400 C   0  0  0  0  0  0  0  0  0  0  0  0
  161.7240  197.5430  144.9310 C   0  0  0  0  0  1  0  0  0  0  0  0
  160.1790  201.3360  146.0750 C   0  0  0  0  0  3  0  0  0  0  0  0
  160.5660  199.6910  144.4090 C   0  0  0  0  0  3  0  0  0  0  0  0
  160.8090  200.5460  147.0430 C   0  0  0  0  0  0  0  0  0  0  0  0
  160.0740  200.8980  144.7930 N   0  0  0  0  0  0  0  0  0  0  0  0
  161.3190  199.2980  146.6600 C   0  0  0  0  0  3  0  0  0  0  0  0
  161.7250  206.5680  153.8000 C   0  0  0  0  0  2  0  0  0  0  0  0
  160.5060  206.9730  151.7800 N   0  0  0  0  0  2  0  0  0  0  0  0
  161.2700  207.6250  152.8250 C   0  0  0  0  0  2  0  0  0  0  0  0
  162.1240  205.0980  152.8280 S   0  0  0  0  0  0  0  0  0  0  0  0
  161.2850  205.8080  151.3770 C   0  0  1  0  0  3  0  0  0  0  0  0
  161.3220  207.3110  146.9570 O   0  0  0  0  0  0  0  0  0  0  0  0
  162.2680  206.5440  146.2720 C   0  0  0  0  0  2  0  0  0  0  0  0
  161.2030  205.8370  144.0320 C   0  0  0  0  0  1  0  0  0  0  0  0
  161.4000  204.2840  145.9060 C   0  0  0  0  0  2  0  0  0  0  0  0
  161.5770  205.5170  145.4390 C   0  0  0  0  0  0  0  0  0  0  0  0
  162.7130  211.5710  150.8710 C   0  0  0  0  0  2  0  0  0  0  0  0
  161.0410  211.8050  152.6390 C   0  0  0  0  0  3  0  0  0  0  0  0
  161.5460  211.0760  151.6500 C   0  0  0  0  0  3  0  0  0  0  0  0
  159.8630  211.3100  153.4200 C   0  0  2  0  0  3  0  0  0  0  0  0
  158.8610  212.4110  153.5890 C   0  0  0  0  0  0  0  0  0  0  0  0
  158.9970  213.2580  154.5140 O   0  0  0  0  0  0  0  0  0  0  0  0
  157.7650  212.5040  152.6760 N   0  0  0  0  0  2  0  0  0  0  0  0
  156.7580  214.4250  151.5360 C   0  0  0  0  0  1  0  0  0  0  0  0
  156.7200  213.5200  152.7530 C   0  0  2  0  0  3  0  0  0  0  0  0
  156.8670  214.3000  153.9730 N   0  0  0  0  0  2  0  0  0  0  0  0
  155.9140  213.2090  155.9120 C   0  0  0  0  0  1  0  0  0  0  0  0
  155.6500  214.1470  154.7530 C   0  0  2  0  0  3  0  0  0  0  0  0
  154.3240  213.4580  153.7140 S   0  0  0  0  0  1  0  0  0  0  0  0
  160.2790  210.7130  154.7360 C   0  0  0  0  0  0  0  0  0  0  0  0
  159.6970  209.6790  155.1660 O   0  0  0  0  0  0  0  0  0  0  0  0
  161.2410  211.3520  155.5210 O   0  0  0  0  0  0  0  0  0  0  0  0
  161.6650  210.8200  156.7680 C   0  0  0  0  0  3  0  0  0  0  0  0
  162.7670  209.8080  156.5260 C   0  0  0  0  0  2  0  0  0  0  0  0
  163.1140  211.1990  157.0040 C   0  0  0  0  0  2  0  0  0  0  0  0
  1 19  1  1  0  0  0
  1 48  1  0  0  0  0
  2  7  1  1  0  0  0
  2  4  1  0  0  0  0
  2  6  1  0  0  0  0
  3  1  1  6  0  0  0
  4  3  1  0  0  0  0
  5  3  1  0  0  0  0
  6  5  1  0  0  0  0
  7  8  1  1  0  0  0
  9 14  1  0  0  0  0
 10 13  1  0  0  0  0
 10  7  1  1  0  0  0
 11 15  1  1  0  0  0
 11  9  1  0  0  0  0
 11 12  1  0  0  0  0
 12 10  1  0  0  0  0
 14 13  1  0  0  0  0
 16 17  1  0  0  0  0
 17 15  1  0  0  0  0
 18 19  2  0  0  0  0
 20 18  1  0  0  0  0
 20 21  1  1  0  0  0
 22 23  1  0  0  0  0
 22 21  1  0  0  0  0
 24 23  1  6  0  0  0
 24 25  1  0  0  0  0
 26 30  1  0  0  0  0
 27 26  2  0  0  0  0
 27 29  1  0  0  0  0
 29 28  1  0  0  0  0
 30 28  2  0  0  0  0
 30 25  1  0  0  0  0
 31 37  1  0  0  0  0
 32 31  1  0  0  0  0
 33 35  1  0  0  0  0
 34 36  1  0  0  0  0
 34 31  2  0  0  0  0
 35 27  1  0  0  0  0
 36 33  2  0  0  0  0
 37 35  2  0  0  0  0
 39 40  1  0  0  0  0
 40 38  1  0  0  0  0
 41 38  1  0  0  0  0
 42 24  1  1  0  0  0
 42 39  1  0  0  0  0
 42 41  1  0  0  0  0
 43 20  1  0  0  0  0
 44 43  1  0  0  0  0
 45 47  1  0  0  0  0
 47 46  2  0  0  0  0
 47 44  1  0  0  0  0
 48 50  1  0  0  0  0
 50 49  2  0  0  0  0
 51 49  1  1  0  0  0
 51 52  1  0  0  0  0
 51 61  1  0  0  0  0
 52 53  2  0  0  0  0
 54 56  1  0  0  0  0
 54 52  1  0  0  0  0
 56 55  1  6  0  0  0
 56 57  1  0  0  0  0
 57 59  1  0  0  0  0
 59 58  1  1  0  0  0
 60 59  1  0  0  0  0
 61 62  2  0  0  0  0
 61 63  1  0  0  0  0
 63 64  1  0  0  0  0
 64 66  1  0  0  0  0
 65 64  1  0  0  0  0
 65 66  1  0  0  0  0
M  END
>  <MODEL>
6

>  <REMARK>
 VINA RESULT:      -1.0      3.036     10.339
  Name = 
  27 active torsions:
  status: ('A' for Active; 'I' for Inactive)
    1  A    between atoms: C_3  and  C_5
    2  A    between atoms: C_3  and  C_14
    3  A    between atoms: C_6  and  N_10
    4  A    between atoms: C_6  and  N_50
    5  A    between atoms: C_6  and  C_61
    6  A    between atoms: O_7  and  C_37
    7  A    between atoms: O_7  and  C_45
    8  A    between atoms: C_8  and  C_17
    9  A    between atoms: C_9  and  C_42
   10  A    between atoms: N_11  and  C_37
   11  A    between atoms: C_13  and  C_42
   12  A    between atoms: C_13  and  O_53
   13  A    between atoms: C_17  and  C_18
   14  A    between atoms: C_17  and  C_26
   15  A    between atoms: C_18  and  C_48
   16  A    between atoms: C_23  and  C_49
   17  A    between atoms: C_27  and  C_28
   18  A    between atoms: C_27  and  C_37
   19  A    between atoms: C_28  and  N_50
   20  A    between atoms: C_29  and  C_55
   21  A    between atoms: C_31  and  C_42
   22  A    between atoms: C_35  and  O_53
   23  A    between atoms: C_44  and  C_45
   24  A    between atoms: C_46  and  N_59
   25  A    between atoms: C_46  and  N_66
   26  A    between atoms: C_51  and  N_59
   27  A    between atoms: C_55  and  S_60
                            x       y       z     vdW  Elec       q    Type
                         _______ _______ _______ _____ _____    ______ ____

>  <TORSDO>
F 27

$$$$
