=
 OpenBabel11042420383D

 45 49  0  0  1  0  0  0  0  0999 V2000
  160.6240  205.8070  150.1840 C   0  0  2  0  0  3  0  0  0  0  0  0
  161.4260  203.3520  151.9690 F   0  0  0  0  0  0  0  0  0  0  0  0
  161.1300  202.9050  145.4950 N   0  0  0  0  0  1  0  0  0  0  0  0
  161.0050  201.9600  150.1510 N   0  0  0  0  0  0  0  0  0  0  0  0
  161.1290  200.9040  146.9120 N   0  0  0  0  0  0  0  0  0  0  0  0
  161.2850  204.4610  149.8180 C   0  0  2  0  0  3  0  0  0  0  0  0
  161.1250  204.1250  148.3440 C   0  0  0  0  0  3  0  0  0  0  0  0
  161.1240  200.6340  148.2160 N   0  0  0  0  0  2  0  0  0  0  0  0
  160.7990  203.2950  150.7390 C   0  0  2  0  0  3  0  0  0  0  0  0
  161.0870  202.2460  146.7560 C   0  0  0  0  0  0  0  0  0  0  0  0
  161.0820  201.8120  148.8660 C   0  0  0  0  0  0  0  0  0  0  0  0
  161.0820  202.8500  147.9870 C   0  0  0  0  0  0  0  0  0  0  0  0
  160.5310  206.4100  147.8110 O   0  0  0  0  0  1  0  0  0  0  0  0
  160.8580  206.8760  149.0910 C   0  0  2  0  0  3  0  0  0  0  0  0
  162.3150  207.3070  149.0970 C   0  0  0  0  0  2  0  0  0  0  0  0
  162.4850  208.4970  148.2820 N   0  0  0  0  0  2  0  0  0  0  0  0
  162.3560  210.8700  148.7130 C   0  0  1  0  0  3  0  0  0  0  0  0
  162.4030  210.1520  150.0460 C   0  0  0  0  0  2  0  0  0  0  0  0
  161.6630  209.5320  148.8800 C   0  0  2  0  0  3  0  0  0  0  0  0
  161.3130  211.9650  148.7770 C   0  0  0  0  0  2  0  0  0  0  0  0
  161.6690  213.0260  147.8470 N   0  0  0  0  0  2  0  0  0  0  0  0
  160.0420  212.3440  144.5640 C   0  0  0  0  0  3  0  0  0  0  0  0
  160.2500  212.4630  145.9420 C   0  0  0  0  0  3  0  0  0  0  0  0
  162.2950  213.1320  144.1550 C   0  0  0  0  0  3  0  0  0  0  0  0
  161.4800  212.9150  146.4330 C   0  0  0  0  0  0  0  0  0  0  0  0
  162.5040  213.2510  145.5330 C   0  0  0  0  0  3  0  0  0  0  0  0
  161.0650  212.6790  143.6710 C   0  0  0  0  0  3  0  0  0  0  0  0
  160.7090  207.4270  152.0460 C   0  0  0  0  0  3  0  0  0  0  0  0
  161.1130  206.2650  151.5300 C   0  0  0  0  0  3  0  0  0  0  0  0
  161.1910  207.8860  153.3830 C   0  0  0  0  0  2  0  0  0  0  0  0
  161.2790  209.4000  153.4250 C   0  0  0  0  0  2  0  0  0  0  0  0
  160.2330  209.9500  154.4020 C   0  0  1  0  0  3  0  0  0  0  0  0
  160.9420  209.3660  156.6100 C   0  0  0  0  0  2  0  0  0  0  0  0
  160.8750  210.4530  155.6350 N   0  0  0  0  0  0  0  0  0  0  0  0
  163.0590  210.4990  156.6290 C   0  0  0  0  0  2  0  0  0  0  0  0
  162.2730  210.8020  155.3800 C   0  0  0  0  0  2  0  0  0  0  0  0
  162.3140  209.3580  157.2590 C   0  0  0  0  0  2  0  0  0  0  0  0
  159.4290  211.0680  153.6900 C   0  0  2  0  0  3  0  0  0  0  0  0
  160.2070  211.7570  152.5660 C   0  0  0  0  0  2  0  0  0  0  0  0
  159.4570  212.9560  152.0060 C   0  0  0  0  0  1  0  0  0  0  0  0
  158.9560  212.0750  154.6350 N   0  0  0  0  0  2  0  0  0  0  0  0
  157.5140  211.9170  154.7520 C   0  0  0  0  0  2  0  0  0  0  0  0
  156.9750  214.2250  154.4990 O   0  0  0  0  0  0  0  0  0  0  0  0
  156.9030  213.1930  155.2180 C   0  0  0  0  0  0  0  0  0  0  0  0
  156.2240  213.2370  156.4290 O   0  0  0  0  0  1  0  0  0  0  0  0
  1 29  1  1  0  0  0
  3 10  1  0  0  0  0
  4  9  1  0  0  0  0
  5  8  1  0  0  0  0
  6  1  1  1  0  0  0
  6  9  1  0  0  0  0
  7  6  1  0  0  0  0
  8 11  1  0  0  0  0
  9  2  1  1  0  0  0
 10  5  2  0  0  0  0
 10 12  1  0  0  0  0
 11  4  2  0  0  0  0
 12  7  2  0  0  0  0
 12 11  1  0  0  0  0
 14 13  1  6  0  0  0
 14 15  1  0  0  0  0
 14  1  1  0  0  0  0
 16 15  1  0  0  0  0
 17 20  1  1  0  0  0
 17 19  1  0  0  0  0
 17 18  1  0  0  0  0
 19 16  1  6  0  0  0
 19 18  1  0  0  0  0
 21 20  1  0  0  0  0
 22 23  1  0  0  0  0
 23 25  2  0  0  0  0
 24 26  2  0  0  0  0
 25 21  1  0  0  0  0
 26 25  1  0  0  0  0
 27 24  1  0  0  0  0
 27 22  2  0  0  0  0
 28 30  1  0  0  0  0
 29 28  2  0  0  0  0
 30 31  1  0  0  0  0
 32 31  1  6  0  0  0
 32 34  1  0  0  0  0
 33 37  1  0  0  0  0
 34 33  1  0  0  0  0
 35 37  1  0  0  0  0
 36 34  1  0  0  0  0
 36 35  1  0  0  0  0
 38 39  1  6  0  0  0
 38 32  1  0  0  0  0
 38 41  1  0  0  0  0
 40 39  1  0  0  0  0
 41 42  1  0  0  0  0
 42 44  1  0  0  0  0
 43 44  2  0  0  0  0
 44 45  1  0  0  0  0
M  END
>  <MODEL>
1

>  <REMARK>
 VINA RESULT:      -7.6      0.000      0.000
  Name = 
  18 active torsions:
  status: ('A' for Active; 'I' for Inactive)
    1  A    between atoms: C_6  and  C_12
    2  A    between atoms: C_6  and  C_17
    3  A    between atoms: C_6  and  C_30
    4  A    between atoms: N_8  and  C_23
    5  A    between atoms: N_8  and  C_44
    6  A    between atoms: C_9  and  C_13
    7  A    between atoms: C_10  and  C_39
    8  A    between atoms: C_13  and  C_45
    9  A    between atoms: N_14  and  C_21
   10  A    between atoms: N_14  and  C_39
   11  A    between atoms: C_18  and  C_44
   12  A    between atoms: C_20  and  C_21
   13  A    between atoms: C_22  and  N_27
   14  A    between atoms: C_22  and  C_39
   15  A    between atoms: C_22  and  C_45
   16  A    between atoms: C_30  and  C_41
   17  A    between atoms: C_38  and  N_40
   18  A    between atoms: N_40  and  C_41
                            x       y       z     vdW  Elec       q    Type
                         _______ _______ _______ _____ _____    ______ ____

>  <TORSDO>
F 18

$$$$
=
 OpenBabel11042420383D

 45 49  0  0  1  0  0  0  0  0999 V2000
  161.9200  208.5590  151.3190 C   0  0  2  0  0  3  0  0  0  0  0  0
  160.8470  205.6820  151.9740 F   0  0  0  0  0  0  0  0  0  0  0  0
  160.3890  210.5450  156.2580 N   0  0  0  0  0  1  0  0  0  0  0  0
  160.8040  206.2680  154.2270 N   0  0  0  0  0  0  0  0  0  0  0  0
  160.1500  208.2050  156.9540 N   0  0  0  0  0  0  0  0  0  0  0  0
  160.9780  208.0580  152.4360 C   0  0  2  0  0  3  0  0  0  0  0  0
  160.9200  209.0200  153.6110 C   0  0  0  0  0  3  0  0  0  0  0  0
  160.2360  207.0060  156.3830 N   0  0  0  0  0  2  0  0  0  0  0  0
  161.3220  206.6020  152.8890 C   0  0  2  0  0  3  0  0  0  0  0  0
  160.4330  209.1420  156.0210 C   0  0  0  0  0  0  0  0  0  0  0  0
  160.5690  207.2020  155.0940 C   0  0  0  0  0  0  0  0  0  0  0  0
  160.6800  208.5290  154.8190 C   0  0  0  0  0  0  0  0  0  0  0  0
  160.6820  210.6670  151.4940 O   0  0  0  0  0  1  0  0  0  0  0  0
  161.9380  210.1040  151.2360 C   0  0  2  0  0  3  0  0  0  0  0  0
  162.3940  210.5380  149.8530 C   0  0  0  0  0  2  0  0  0  0  0  0
  161.7110  211.7600  149.4660 N   0  0  0  0  0  2  0  0  0  0  0  0
  161.8450  213.2780  147.5920 C   0  0  1  0  0  3  0  0  0  0  0  0
  160.5310  212.5300  147.4980 C   0  0  0  0  0  2  0  0  0  0  0  0
  161.7660  211.8260  148.0170 C   0  0  2  0  0  3  0  0  0  0  0  0
  162.4750  213.3450  146.2180 C   0  0  0  0  0  2  0  0  0  0  0  0
  161.4440  213.6100  145.2250 N   0  0  0  0  0  2  0  0  0  0  0  0
  162.4440  212.2470  141.9030 C   0  0  0  0  0  3  0  0  0  0  0  0
  162.4900  212.9170  143.1310 C   0  0  0  0  0  3  0  0  0  0  0  0
  160.1630  211.5720  142.3550 C   0  0  0  0  0  3  0  0  0  0  0  0
  161.3740  212.9170  143.9760 C   0  0  0  0  0  0  0  0  0  0  0  0
  160.2080  212.2410  143.5820 C   0  0  0  0  0  3  0  0  0  0  0  0
  161.2810  211.5750  141.5160 C   0  0  0  0  0  3  0  0  0  0  0  0
  162.3090  207.0030  149.4420 C   0  0  0  0  0  3  0  0  0  0  0  0
  161.5350  207.9300  150.0090 C   0  0  0  0  0  3  0  0  0  0  0  0
  161.9320  206.3750  148.1410 C   0  0  0  0  0  2  0  0  0  0  0  0
  160.8850  205.2970  148.3550 C   0  0  0  0  0  2  0  0  0  0  0  0
  161.4410  203.9430  147.8980 C   0  0  1  0  0  3  0  0  0  0  0  0
  161.4820  201.6190  148.4580 C   0  0  0  0  0  2  0  0  0  0  0  0
  160.6610  202.8280  148.4780 N   0  0  0  0  0  0  0  0  0  0  0  0
  160.4010  201.7360  150.6000 C   0  0  0  0  0  2  0  0  0  0  0  0
  160.4000  203.0700  149.8970 C   0  0  0  0  0  2  0  0  0  0  0  0
  161.3480  200.9000  149.7890 C   0  0  0  0  0  2  0  0  0  0  0  0
  161.4190  203.8970  146.3480 C   0  0  2  0  0  3  0  0  0  0  0  0
  161.0610  202.5200  145.7830 C   0  0  0  0  0  2  0  0  0  0  0  0
  159.8330  202.5740  144.8870 C   0  0  0  0  0  1  0  0  0  0  0  0
  162.6900  204.3350  145.7800 N   0  0  0  0  0  2  0  0  0  0  0  0
  162.5140  205.7040  145.3230 C   0  0  0  0  0  2  0  0  0  0  0  0
  160.2120  206.2460  145.0200 O   0  0  0  0  0  1  0  0  0  0  0  0
  161.2740  205.8080  144.5030 C   0  0  0  0  0  0  0  0  0  0  0  0
  161.2970  205.4520  143.1600 O   0  0  0  0  0  0  0  0  0  0  0  0
  1 29  1  6  0  0  0
  4 11  2  0  0  0  0
  6  1  1  6  0  0  0
  6  9  1  0  0  0  0
  6  7  1  0  0  0  0
  7 12  2  0  0  0  0
  8  5  1  0  0  0  0
  9  2  1  6  0  0  0
  9  4  1  0  0  0  0
 10  3  1  0  0  0  0
 10  5  2  0  0  0  0
 11  8  1  0  0  0  0
 12 11  1  0  0  0  0
 12 10  1  0  0  0  0
 14  1  1  0  0  0  0
 14 13  1  6  0  0  0
 15 14  1  0  0  0  0
 16 15  1  0  0  0  0
 17 20  1  6  0  0  0
 17 19  1  0  0  0  0
 18 17  1  0  0  0  0
 18 19  1  0  0  0  0
 19 16  1  1  0  0  0
 21 20  1  0  0  0  0
 22 23  1  0  0  0  0
 23 25  2  0  0  0  0
 24 26  2  0  0  0  0
 25 21  1  0  0  0  0
 26 25  1  0  0  0  0
 27 22  2  0  0  0  0
 27 24  1  0  0  0  0
 28 29  2  0  0  0  0
 30 31  1  0  0  0  0
 30 28  1  0  0  0  0
 32 31  1  6  0  0  0
 32 34  1  0  0  0  0
 33 34  1  0  0  0  0
 33 37  1  0  0  0  0
 34 36  1  0  0  0  0
 36 35  1  0  0  0  0
 37 35  1  0  0  0  0
 38 39  1  1  0  0  0
 38 32  1  0  0  0  0
 40 39  1  0  0  0  0
 41 38  1  0  0  0  0
 42 41  1  0  0  0  0
 44 43  1  0  0  0  0
 44 42  1  0  0  0  0
 45 44  2  0  0  0  0
M  END
>  <MODEL>
2

>  <REMARK>
 VINA RESULT:      -7.1      2.457      8.299
  Name = 
  18 active torsions:
  status: ('A' for Active; 'I' for Inactive)
    1  A    between atoms: C_6  and  C_12
    2  A    between atoms: C_6  and  C_17
    3  A    between atoms: C_6  and  C_30
    4  A    between atoms: N_8  and  C_23
    5  A    between atoms: N_8  and  C_44
    6  A    between atoms: C_9  and  C_13
    7  A    between atoms: C_10  and  C_39
    8  A    between atoms: C_13  and  C_45
    9  A    between atoms: N_14  and  C_21
   10  A    between atoms: N_14  and  C_39
   11  A    between atoms: C_18  and  C_44
   12  A    between atoms: C_20  and  C_21
   13  A    between atoms: C_22  and  N_27
   14  A    between atoms: C_22  and  C_39
   15  A    between atoms: C_22  and  C_45
   16  A    between atoms: C_30  and  C_41
   17  A    between atoms: C_38  and  N_40
   18  A    between atoms: N_40  and  C_41
                            x       y       z     vdW  Elec       q    Type
                         _______ _______ _______ _____ _____    ______ ____

>  <TORSDO>
F 18

$$$$
=
 OpenBabel11042420383D

 45 49  0  0  1  0  0  0  0  0999 V2000
  162.1510  208.8010  151.5330 C   0  0  2  0  0  3  0  0  0  0  0  0
  161.1410  205.9160  152.2500 F   0  0  0  0  0  0  0  0  0  0  0  0
  160.2170  210.9440  156.2590 N   0  0  0  0  0  1  0  0  0  0  0  0
  160.9240  206.6000  154.4650 N   0  0  0  0  0  0  0  0  0  0  0  0
  160.0160  208.6310  157.0480 N   0  0  0  0  0  0  0  0  0  0  0  0
  161.1540  208.3140  152.6070 C   0  0  2  0  0  3  0  0  0  0  0  0
  160.9810  209.3240  153.7290 C   0  0  0  0  0  3  0  0  0  0  0  0
  160.1840  207.4110  156.5410 N   0  0  0  0  0  2  0  0  0  0  0  0
  161.5190  206.8940  153.1500 C   0  0  2  0  0  3  0  0  0  0  0  0
  160.3270  209.5350  156.0920 C   0  0  0  0  0  0  0  0  0  0  0  0
  160.5970  207.5620  155.2700 C   0  0  0  0  0  0  0  0  0  0  0  0
  160.6780  208.8790  154.9400 C   0  0  0  0  0  0  0  0  0  0  0  0
  160.7410  210.8050  151.5520 O   0  0  0  0  0  1  0  0  0  0  0  0
  162.0290  210.3230  151.2870 C   0  0  2  0  0  3  0  0  0  0  0  0
  162.3830  210.6400  149.8440 C   0  0  0  0  0  2  0  0  0  0  0  0
  161.3650  211.4960  149.2590 N   0  0  0  0  0  2  0  0  0  0  0  0
  161.9950  212.6070  147.2090 C   0  0  1  0  0  3  0  0  0  0  0  0
  163.2620  212.2030  147.9340 C   0  0  0  0  0  2  0  0  0  0  0  0
  162.0530  212.6550  148.7230 C   0  0  2  0  0  3  0  0  0  0  0  0
  162.1580  214.0140  146.6750 C   0  0  0  0  0  2  0  0  0  0  0  0
  161.2450  214.2160  145.5600 N   0  0  0  0  0  2  0  0  0  0  0  0
  160.0370  211.8880  142.9110 C   0  0  0  0  0  3  0  0  0  0  0  0
  160.0640  212.7120  144.0410 C   0  0  0  0  0  3  0  0  0  0  0  0
  162.3670  212.3940  142.4850 C   0  0  0  0  0  3  0  0  0  0  0  0
  161.2410  213.3800  144.3990 C   0  0  0  0  0  0  0  0  0  0  0  0
  162.3950  213.2170  143.6150 C   0  0  0  0  0  3  0  0  0  0  0  0
  161.1890  211.7290  142.1330 C   0  0  0  0  0  3  0  0  0  0  0  0
  160.7660  207.5210  149.9390 C   0  0  0  0  0  3  0  0  0  0  0  0
  161.9630  208.0110  150.2680 C   0  0  0  0  0  3  0  0  0  0  0  0
  160.5740  206.7360  148.6830 C   0  0  0  0  0  2  0  0  0  0  0  0
  161.5290  205.5570  148.6420 C   0  0  0  0  0  2  0  0  0  0  0  0
  160.8670  204.3840  147.9100 C   0  0  1  0  0  3  0  0  0  0  0  0
  160.6850  204.5260  145.5300 C   0  0  0  0  0  2  0  0  0  0  0  0
  161.5530  204.1060  146.6290 N   0  0  0  0  0  0  0  0  0  0  0  0
  162.9130  205.2750  145.0330 C   0  0  0  0  0  2  0  0  0  0  0  0
  162.7460  204.9430  146.4940 C   0  0  0  0  0  2  0  0  0  0  0  0
  161.5100  205.2760  144.4980 C   0  0  0  0  0  2  0  0  0  0  0  0
  160.8900  203.1440  148.8400 C   0  0  2  0  0  3  0  0  0  0  0  0
  161.4960  203.4250  150.2170 C   0  0  0  0  0  2  0  0  0  0  0  0
  160.6880  202.7870  151.3360 C   0  0  0  0  0  1  0  0  0  0  0  0
  161.5940  202.0230  148.2230 N   0  0  0  0  0  2  0  0  0  0  0  0
  160.5940  201.0330  147.8530 C   0  0  0  0  0  2  0  0  0  0  0  0
  161.5790  199.3920  146.4320 O   0  0  0  0  0  1  0  0  0  0  0  0
  160.9200  200.4620  146.5160 C   0  0  0  0  0  0  0  0  0  0  0  0
  160.4680  201.0920  145.3630 O   0  0  0  0  0  0  0  0  0  0  0  0
  1 29  1  6  0  0  0
  4 11  2  0  0  0  0
  6  1  1  6  0  0  0
  6  9  1  0  0  0  0
  6  7  1  0  0  0  0
  7 12  2  0  0  0  0
  8  5  1  0  0  0  0
  9  2  1  6  0  0  0
  9  4  1  0  0  0  0
 10  3  1  0  0  0  0
 10  5  2  0  0  0  0
 11  8  1  0  0  0  0
 12 11  1  0  0  0  0
 12 10  1  0  0  0  0
 14  1  1  0  0  0  0
 14 13  1  6  0  0  0
 15 14  1  0  0  0  0
 16 15  1  0  0  0  0
 17 20  1  6  0  0  0
 17 18  1  0  0  0  0
 17 19  1  0  0  0  0
 18 19  1  0  0  0  0
 19 16  1  1  0  0  0
 21 20  1  0  0  0  0
 22 23  1  0  0  0  0
 23 25  2  0  0  0  0
 24 26  2  0  0  0  0
 25 21  1  0  0  0  0
 26 25  1  0  0  0  0
 27 24  1  0  0  0  0
 27 22  2  0  0  0  0
 28 29  2  0  0  0  0
 30 28  1  0  0  0  0
 31 30  1  0  0  0  0
 32 31  1  1  0  0  0
 32 38  1  0  0  0  0
 33 34  1  0  0  0  0
 34 32  1  0  0  0  0
 35 36  1  0  0  0  0
 36 34  1  0  0  0  0
 37 35  1  0  0  0  0
 37 33  1  0  0  0  0
 38 39  1  1  0  0  0
 39 40  1  0  0  0  0
 41 38  1  0  0  0  0
 42 41  1  0  0  0  0
 43 44  1  0  0  0  0
 44 42  1  0  0  0  0
 45 44  2  0  0  0  0
M  END
>  <MODEL>
3

>  <REMARK>
 VINA RESULT:      -6.9      2.500      8.650
  Name = 
  18 active torsions:
  status: ('A' for Active; 'I' for Inactive)
    1  A    between atoms: C_6  and  C_12
    2  A    between atoms: C_6  and  C_17
    3  A    between atoms: C_6  and  C_30
    4  A    between atoms: N_8  and  C_23
    5  A    between atoms: N_8  and  C_44
    6  A    between atoms: C_9  and  C_13
    7  A    between atoms: C_10  and  C_39
    8  A    between atoms: C_13  and  C_45
    9  A    between atoms: N_14  and  C_21
   10  A    between atoms: N_14  and  C_39
   11  A    between atoms: C_18  and  C_44
   12  A    between atoms: C_20  and  C_21
   13  A    between atoms: C_22  and  N_27
   14  A    between atoms: C_22  and  C_39
   15  A    between atoms: C_22  and  C_45
   16  A    between atoms: C_30  and  C_41
   17  A    between atoms: C_38  and  N_40
   18  A    between atoms: N_40  and  C_41
                            x       y       z     vdW  Elec       q    Type
                         _______ _______ _______ _____ _____    ______ ____

>  <TORSDO>
F 18

$$$$
=
 OpenBabel11042420383D

 45 49  0  0  1  0  0  0  0  0999 V2000
  161.8070  208.7950  151.4810 C   0  0  2  0  0  3  0  0  0  0  0  0
  160.6350  206.0740  152.5210 F   0  0  0  0  0  0  0  0  0  0  0  0
  160.8880  211.3440  156.3120 N   0  0  0  0  0  1  0  0  0  0  0  0
  160.8480  206.8740  154.6970 N   0  0  0  0  0  0  0  0  0  0  0  0
  160.5800  209.1040  157.2610 N   0  0  0  0  0  0  0  0  0  0  0  0
  160.9510  208.4690  152.7250 C   0  0  2  0  0  3  0  0  0  0  0  0
  161.0650  209.5400  153.7960 C   0  0  0  0  0  3  0  0  0  0  0  0
  160.5380  207.8520  156.8090 N   0  0  0  0  0  2  0  0  0  0  0  0
  161.2510  207.0420  153.2900 C   0  0  2  0  0  3  0  0  0  0  0  0
  160.8250  209.9250  156.2150 C   0  0  0  0  0  0  0  0  0  0  0  0
  160.7550  207.9000  155.4820 C   0  0  0  0  0  0  0  0  0  0  0  0
  160.9160  209.1840  155.0640 C   0  0  0  0  0  0  0  0  0  0  0  0
  160.7670  211.0110  151.5730 O   0  0  0  0  0  1  0  0  0  0  0  0
  161.9450  210.3200  151.2660 C   0  0  2  0  0  3  0  0  0  0  0  0
  162.3150  210.6020  149.8190 C   0  0  0  0  0  2  0  0  0  0  0  0
  161.6850  211.8340  149.3770 N   0  0  0  0  0  2  0  0  0  0  0  0
  161.7470  213.2950  147.4540 C   0  0  1  0  0  3  0  0  0  0  0  0
  160.5110  212.4260  147.3450 C   0  0  0  0  0  2  0  0  0  0  0  0
  161.7850  211.8560  147.9290 C   0  0  2  0  0  3  0  0  0  0  0  0
  162.4180  213.3730  146.0990 C   0  0  0  0  0  2  0  0  0  0  0  0
  161.4150  213.6370  145.0780 N   0  0  0  0  0  2  0  0  0  0  0  0
  160.0470  211.6500  142.2370 C   0  0  0  0  0  3  0  0  0  0  0  0
  160.1320  212.3630  143.4380 C   0  0  0  0  0  3  0  0  0  0  0  0
  162.4050  212.0350  141.8400 C   0  0  0  0  0  3  0  0  0  0  0  0
  161.3530  212.9140  143.8460 C   0  0  0  0  0  0  0  0  0  0  0  0
  162.4910  212.7470  143.0410 C   0  0  0  0  0  3  0  0  0  0  0  0
  161.1840  211.4860  141.4390 C   0  0  0  0  0  3  0  0  0  0  0  0
  161.8860  207.1020  149.6850 C   0  0  0  0  0  3  0  0  0  0  0  0
  161.2340  208.1060  150.2740 C   0  0  0  0  0  3  0  0  0  0  0  0
  161.3210  206.4140  148.4860 C   0  0  0  0  0  2  0  0  0  0  0  0
  162.0570  205.1130  148.2240 C   0  0  0  0  0  2  0  0  0  0  0  0
  161.1300  204.1370  147.4890 C   0  0  1  0  0  3  0  0  0  0  0  0
  160.4750  204.7780  145.2810 C   0  0  0  0  0  2  0  0  0  0  0  0
  161.4810  204.0540  146.0550 N   0  0  0  0  0  0  0  0  0  0  0  0
  162.6340  205.3710  144.4120 C   0  0  0  0  0  2  0  0  0  0  0  0
  162.7300  204.7690  145.7910 C   0  0  0  0  0  2  0  0  0  0  0  0
  161.1660  205.6290  144.2300 C   0  0  0  0  0  2  0  0  0  0  0  0
  161.2290  202.7500  148.1740 C   0  0  2  0  0  3  0  0  0  0  0  0
  160.9410  201.5810  147.2280 C   0  0  0  0  0  2  0  0  0  0  0  0
  161.5340  200.2760  147.7390 C   0  0  0  0  0  1  0  0  0  0  0  0
  160.3480  202.6590  149.3340 N   0  0  0  0  0  2  0  0  0  0  0  0
  160.8270  203.6150  150.3200 C   0  0  0  0  0  2  0  0  0  0  0  0
  160.4440  203.1200  152.6200 O   0  0  0  0  0  1  0  0  0  0  0  0
  161.1440  202.9110  151.5940 C   0  0  0  0  0  0  0  0  0  0  0  0
  162.1910  201.9980  151.6420 O   0  0  0  0  0  0  0  0  0  0  0  0
  1 29  1  6  0  0  0
  4 11  2  0  0  0  0
  6  1  1  6  0  0  0
  6  9  1  0  0  0  0
  6  7  1  0  0  0  0
  7 12  2  0  0  0  0
  8  5  1  0  0  0  0
  9  2  1  6  0  0  0
  9  4  1  0  0  0  0
 10  3  1  0  0  0  0
 10  5  2  0  0  0  0
 11  8  1  0  0  0  0
 12 11  1  0  0  0  0
 12 10  1  0  0  0  0
 14  1  1  0  0  0  0
 14 13  1  6  0  0  0
 15 14  1  0  0  0  0
 16 15  1  0  0  0  0
 17 20  1  6  0  0  0
 17 19  1  0  0  0  0
 18 17  1  0  0  0  0
 18 19  1  0  0  0  0
 19 16  1  1  0  0  0
 21 20  1  0  0  0  0
 22 23  1  0  0  0  0
 23 25  2  0  0  0  0
 24 26  2  0  0  0  0
 25 21  1  0  0  0  0
 26 25  1  0  0  0  0
 27 24  1  0  0  0  0
 27 22  2  0  0  0  0
 28 29  2  0  0  0  0
 30 28  1  0  0  0  0
 31 30  1  0  0  0  0
 32 38  1  0  0  0  0
 32 31  1  1  0  0  0
 33 34  1  0  0  0  0
 34 32  1  0  0  0  0
 35 36  1  0  0  0  0
 36 34  1  0  0  0  0
 37 35  1  0  0  0  0
 37 33  1  0  0  0  0
 38 39  1  6  0  0  0
 38 41  1  0  0  0  0
 39 40  1  0  0  0  0
 41 42  1  0  0  0  0
 42 44  1  0  0  0  0
 44 45  2  0  0  0  0
 44 43  1  0  0  0  0
M  END
>  <MODEL>
4

>  <REMARK>
 VINA RESULT:      -6.7      2.491      8.405
  Name = 
  18 active torsions:
  status: ('A' for Active; 'I' for Inactive)
    1  A    between atoms: C_6  and  C_12
    2  A    between atoms: C_6  and  C_17
    3  A    between atoms: C_6  and  C_30
    4  A    between atoms: N_8  and  C_23
    5  A    between atoms: N_8  and  C_44
    6  A    between atoms: C_9  and  C_13
    7  A    between atoms: C_10  and  C_39
    8  A    between atoms: C_13  and  C_45
    9  A    between atoms: N_14  and  C_21
   10  A    between atoms: N_14  and  C_39
   11  A    between atoms: C_18  and  C_44
   12  A    between atoms: C_20  and  C_21
   13  A    between atoms: C_22  and  N_27
   14  A    between atoms: C_22  and  C_39
   15  A    between atoms: C_22  and  C_45
   16  A    between atoms: C_30  and  C_41
   17  A    between atoms: C_38  and  N_40
   18  A    between atoms: N_40  and  C_41
                            x       y       z     vdW  Elec       q    Type
                         _______ _______ _______ _____ _____    ______ ____

>  <TORSDO>
F 18

$$$$
=
 OpenBabel11042420383D

 45 49  0  0  1  0  0  0  0  0999 V2000
  162.0280  209.6710  151.3930 C   0  0  2  0  0  3  0  0  0  0  0  0
  159.1690  210.9050  151.7960 F   0  0  0  0  0  0  0  0  0  0  0  0
  163.5080  210.7130  156.6280 N   0  0  0  0  0  1  0  0  0  0  0  0
  159.4840  210.7510  154.0980 N   0  0  0  0  0  0  0  0  0  0  0  0
  161.1230  211.0750  157.0690 N   0  0  0  0  0  0  0  0  0  0  0  0
  161.4600  210.5690  152.5140 C   0  0  2  0  0  3  0  0  0  0  0  0
  162.2770  210.4760  153.7920 C   0  0  0  0  0  3  0  0  0  0  0  0
  159.9960  211.1160  156.3600 N   0  0  0  0  0  2  0  0  0  0  0  0
  159.9410  210.3020  152.7710 C   0  0  2  0  0  3  0  0  0  0  0  0
  162.1430  210.7880  156.2300 C   0  0  0  0  0  0  0  0  0  0  0  0
  160.3220  210.8570  155.0810 C   0  0  0  0  0  0  0  0  0  0  0  0
  161.6620  210.6690  154.9510 C   0  0  0  0  0  0  0  0  0  0  0  0
  162.3400  209.5320  148.9670 O   0  0  0  0  0  1  0  0  0  0  0  0
  161.6660  210.2100  149.9900 C   0  0  2  0  0  3  0  0  0  0  0  0
  162.0080  211.6890  149.9050 C   0  0  0  0  0  2  0  0  0  0  0  0
  162.5440  211.9990  148.5910 N   0  0  0  0  0  2  0  0  0  0  0  0
  161.9480  213.0660  146.5080 C   0  0  1  0  0  3  0  0  0  0  0  0
  162.4260  214.1380  147.4650 C   0  0  0  0  0  2  0  0  0  0  0  0
  161.6370  212.9580  147.9870 C   0  0  2  0  0  3  0  0  0  0  0  0
  160.7100  213.5600  145.7900 C   0  0  0  0  0  2  0  0  0  0  0  0
  160.2600  212.5450  144.8490 N   0  0  0  0  0  2  0  0  0  0  0  0
  162.2290  212.5620  141.6850 C   0  0  0  0  0  3  0  0  0  0  0  0
  161.9040  212.5180  143.0450 C   0  0  0  0  0  3  0  0  0  0  0  0
  159.8800  212.7500  141.1280 C   0  0  0  0  0  3  0  0  0  0  0  0
  160.5670  212.5900  143.4530 C   0  0  0  0  0  0  0  0  0  0  0  0
  159.5540  212.7060  142.4880 C   0  0  0  0  0  3  0  0  0  0  0  0
  161.2170  212.6780  140.7270 C   0  0  0  0  0  3  0  0  0  0  0  0
  161.5440  207.3930  150.5710 C   0  0  0  0  0  3  0  0  0  0  0  0
  161.5600  208.2550  151.5890 C   0  0  0  0  0  3  0  0  0  0  0  0
  161.0810  205.9860  150.7590 C   0  0  0  0  0  2  0  0  0  0  0  0
  160.3700  205.4900  149.5140 C   0  0  0  0  0  2  0  0  0  0  0  0
  161.2030  204.3850  148.8520 C   0  0  1  0  0  3  0  0  0  0  0  0
  161.0470  202.1800  147.9410 C   0  0  0  0  0  2  0  0  0  0  0  0
  160.5360  203.0710  148.9810 N   0  0  0  0  0  0  0  0  0  0  0  0
  160.9620  200.9370  149.9940 C   0  0  0  0  0  2  0  0  0  0  0  0
  160.9180  202.4240  150.2370 C   0  0  0  0  0  2  0  0  0  0  0  0
  161.3340  200.8170  148.5450 C   0  0  0  0  0  2  0  0  0  0  0  0
  161.4260  204.7590  147.3640 C   0  0  2  0  0  3  0  0  0  0  0  0
  162.8000  205.3750  147.0890 C   0  0  0  0  0  2  0  0  0  0  0  0
  163.6820  204.4530  146.2590 C   0  0  0  0  0  1  0  0  0  0  0  0
  160.3870  205.6610  146.8750 N   0  0  0  0  0  2  0  0  0  0  0  0
  160.8950  206.2950  145.6680 C   0  0  0  0  0  2  0  0  0  0  0  0
  160.1320  204.2870  144.6340 O   0  0  0  0  0  1  0  0  0  0  0  0
  160.8040  205.3470  144.5230 C   0  0  0  0  0  0  0  0  0  0  0  0
  161.4320  205.6470  143.3200 O   0  0  0  0  0  0  0  0  0  0  0  0
  1 29  1  1  0  0  0
  4 11  2  0  0  0  0
  6  1  1  6  0  0  0
  6  9  1  0  0  0  0
  6  7  1  0  0  0  0
  7 12  2  0  0  0  0
  8  5  1  0  0  0  0
  9  2  1  6  0  0  0
  9  4  1  0  0  0  0
 10  3  1  0  0  0  0
 10  5  2  0  0  0  0
 11  8  1  0  0  0  0
 12 11  1  0  0  0  0
 12 10  1  0  0  0  0
 14 13  1  6  0  0  0
 14  1  1  0  0  0  0
 15 14  1  0  0  0  0
 16 15  1  0  0  0  0
 17 20  1  6  0  0  0
 17 18  1  0  0  0  0
 17 19  1  0  0  0  0
 18 19  1  0  0  0  0
 19 16  1  1  0  0  0
 21 20  1  0  0  0  0
 22 23  1  0  0  0  0
 23 25  2  0  0  0  0
 24 26  2  0  0  0  0
 25 21  1  0  0  0  0
 26 25  1  0  0  0  0
 27 24  1  0  0  0  0
 27 22  2  0  0  0  0
 28 30  1  0  0  0  0
 28 29  2  0  0  0  0
 31 30  1  0  0  0  0
 32 34  1  0  0  0  0
 32 31  1  6  0  0  0
 33 37  1  0  0  0  0
 33 34  1  0  0  0  0
 34 36  1  0  0  0  0
 35 36  1  0  0  0  0
 37 35  1  0  0  0  0
 38 39  1  1  0  0  0
 38 32  1  0  0  0  0
 40 39  1  0  0  0  0
 41 38  1  0  0  0  0
 42 41  1  0  0  0  0
 44 43  1  0  0  0  0
 44 42  1  0  0  0  0
 45 44  2  0  0  0  0
M  END
>  <MODEL>
5

>  <REMARK>
 VINA RESULT:      -6.7      2.951      8.707
  Name = 
  18 active torsions:
  status: ('A' for Active; 'I' for Inactive)
    1  A    between atoms: C_6  and  C_12
    2  A    between atoms: C_6  and  C_17
    3  A    between atoms: C_6  and  C_30
    4  A    between atoms: N_8  and  C_23
    5  A    between atoms: N_8  and  C_44
    6  A    between atoms: C_9  and  C_13
    7  A    between atoms: C_10  and  C_39
    8  A    between atoms: C_13  and  C_45
    9  A    between atoms: N_14  and  C_21
   10  A    between atoms: N_14  and  C_39
   11  A    between atoms: C_18  and  C_44
   12  A    between atoms: C_20  and  C_21
   13  A    between atoms: C_22  and  N_27
   14  A    between atoms: C_22  and  C_39
   15  A    between atoms: C_22  and  C_45
   16  A    between atoms: C_30  and  C_41
   17  A    between atoms: C_38  and  N_40
   18  A    between atoms: N_40  and  C_41
                            x       y       z     vdW  Elec       q    Type
                         _______ _______ _______ _____ _____    ______ ____

>  <TORSDO>
F 18

$$$$
=
 OpenBabel11042420383D

 45 49  0  0  1  0  0  0  0  0999 V2000
  161.2730  212.7890  149.7900 C   0  0  2  0  0  3  0  0  0  0  0  0
  163.2290  214.1000  147.7130 F   0  0  0  0  0  0  0  0  0  0  0  0
  157.1990  212.3280  146.0660 N   0  0  0  0  0  1  0  0  0  0  0  0
  161.8440  213.3340  146.0050 N   0  0  0  0  0  0  0  0  0  0  0  0
  158.9130  212.7520  144.3640 N   0  0  0  0  0  0  0  0  0  0  0  0
  161.0090  213.4100  148.4010 C   0  0  2  0  0  3  0  0  0  0  0  0
  159.7010  212.9280  147.7970 C   0  0  0  0  0  3  0  0  0  0  0  0
  160.2080  213.0630  144.3420 N   0  0  0  0  0  2  0  0  0  0  0  0
  162.2130  213.2070  147.4250 C   0  0  2  0  0  3  0  0  0  0  0  0
  158.5320  212.6110  145.6540 C   0  0  0  0  0  0  0  0  0  0  0  0
  160.6260  213.1170  145.6200 C   0  0  0  0  0  0  0  0  0  0  0  0
  159.6000  212.8640  146.4760 C   0  0  0  0  0  0  0  0  0  0  0  0
  161.7090  210.7600  148.4890 O   0  0  0  0  0  1  0  0  0  0  0  0
  162.0070  211.4320  149.6800 C   0  0  2  0  0  3  0  0  0  0  0  0
  161.6240  210.5450  150.8520 C   0  0  0  0  0  2  0  0  0  0  0  0
  162.3450  209.2860  150.7790 N   0  0  0  0  0  2  0  0  0  0  0  0
  162.0370  206.8930  150.8760 C   0  0  1  0  0  3  0  0  0  0  0  0
  161.5700  207.3720  149.5170 C   0  0  0  0  0  2  0  0  0  0  0  0
  161.3460  208.2350  150.7400 C   0  0  2  0  0  3  0  0  0  0  0  0
  161.0400  205.8900  151.4150 C   0  0  0  0  0  2  0  0  0  0  0  0
  161.6410  204.5640  151.4160 N   0  0  0  0  0  2  0  0  0  0  0  0
  160.6050  201.2770  149.9970 C   0  0  0  0  0  3  0  0  0  0  0  0
  160.9430  202.2790  150.9130 C   0  0  0  0  0  3  0  0  0  0  0  0
  160.9740  202.8210  148.1680 C   0  0  0  0  0  3  0  0  0  0  0  0
  161.2980  203.5560  150.4610 C   0  0  0  0  0  0  0  0  0  0  0  0
  161.3120  203.8240  149.0830 C   0  0  0  0  0  3  0  0  0  0  0  0
  160.6210  201.5480  148.6250 C   0  0  0  0  0  3  0  0  0  0  0  0
  159.6790  213.5230  151.5270 C   0  0  0  0  0  3  0  0  0  0  0  0
  159.9800  212.6690  150.5480 C   0  0  0  0  0  3  0  0  0  0  0  0
  158.3960  213.4090  152.2830 C   0  0  0  0  0  2  0  0  0  0  0  0
  158.3830  212.1420  153.1180 C   0  0  0  0  0  2  0  0  0  0  0  0
  158.1430  212.4990  154.5900 C   0  0  1  0  0  3  0  0  0  0  0  0
  156.2840  211.2720  155.4580 C   0  0  0  0  0  2  0  0  0  0  0  0
  156.6960  212.5550  154.8910 N   0  0  0  0  0  0  0  0  0  0  0  0
  155.2730  213.0120  156.7690 C   0  0  0  0  0  2  0  0  0  0  0  0
  156.4310  213.5260  155.9530 C   0  0  0  0  0  2  0  0  0  0  0  0
  155.3830  211.5200  156.6550 C   0  0  0  0  0  2  0  0  0  0  0  0
  158.8620  211.4500  155.4770 C   0  0  2  0  0  3  0  0  0  0  0  0
  159.8900  212.0610  156.4330 C   0  0  0  0  0  2  0  0  0  0  0  0
  159.9920  213.5700  156.2710 C   0  0  0  0  0  1  0  0  0  0  0  0
  159.5080  210.4180  154.6720 N   0  0  0  0  0  2  0  0  0  0  0  0
  160.5140  209.7810  155.5070 C   0  0  0  0  0  2  0  0  0  0  0  0
  161.2770  207.8590  154.3200 O   0  0  0  0  0  0  0  0  0  0  0  0
  160.5430  208.3170  155.2360 C   0  0  0  0  0  0  0  0  0  0  0  0
  159.7860  207.4510  156.0160 O   0  0  0  0  0  1  0  0  0  0  0  0
  1 29  1  6  0  0  0
  4  9  1  0  0  0  0
  5 10  2  0  0  0  0
  6  1  1  1  0  0  0
  7  6  1  0  0  0  0
  8  5  1  0  0  0  0
  8 11  1  0  0  0  0
  9  2  1  1  0  0  0
  9  6  1  0  0  0  0
 10  3  1  0  0  0  0
 10 12  1  0  0  0  0
 11  4  2  0  0  0  0
 11 12  1  0  0  0  0
 12  7  2  0  0  0  0
 14 13  1  6  0  0  0
 14  1  1  0  0  0  0
 14 15  1  0  0  0  0
 16 15  1  0  0  0  0
 17 20  1  1  0  0  0
 18 19  1  0  0  0  0
 18 17  1  0  0  0  0
 19 16  1  6  0  0  0
 19 17  1  0  0  0  0
 20 21  1  0  0  0  0
 22 23  1  0  0  0  0
 24 27  1  0  0  0  0
 24 26  2  0  0  0  0
 25 23  2  0  0  0  0
 25 21  1  0  0  0  0
 26 25  1  0  0  0  0
 27 22  2  0  0  0  0
 28 30  1  0  0  0  0
 29 28  2  0  0  0  0
 30 31  1  0  0  0  0
 32 31  1  6  0  0  0
 32 34  1  0  0  0  0
 32 38  1  0  0  0  0
 33 37  1  0  0  0  0
 34 33  1  0  0  0  0
 34 36  1  0  0  0  0
 36 35  1  0  0  0  0
 37 35  1  0  0  0  0
 38 39  1  6  0  0  0
 40 39  1  0  0  0  0
 41 38  1  0  0  0  0
 41 42  1  0  0  0  0
 43 44  2  0  0  0  0
 44 42  1  0  0  0  0
 44 45  1  0  0  0  0
M  END
>  <MODEL>
6

>  <REMARK>
 VINA RESULT:      -6.7      3.194      8.077
  Name = 
  18 active torsions:
  status: ('A' for Active; 'I' for Inactive)
    1  A    between atoms: C_6  and  C_12
    2  A    between atoms: C_6  and  C_17
    3  A    between atoms: C_6  and  C_30
    4  A    between atoms: N_8  and  C_23
    5  A    between atoms: N_8  and  C_44
    6  A    between atoms: C_9  and  C_13
    7  A    between atoms: C_10  and  C_39
    8  A    between atoms: C_13  and  C_45
    9  A    between atoms: N_14  and  C_21
   10  A    between atoms: N_14  and  C_39
   11  A    between atoms: C_18  and  C_44
   12  A    between atoms: C_20  and  C_21
   13  A    between atoms: C_22  and  N_27
   14  A    between atoms: C_22  and  C_39
   15  A    between atoms: C_22  and  C_45
   16  A    between atoms: C_30  and  C_41
   17  A    between atoms: C_38  and  N_40
   18  A    between atoms: N_40  and  C_41
                            x       y       z     vdW  Elec       q    Type
                         _______ _______ _______ _____ _____    ______ ____

>  <TORSDO>
F 18

$$$$
=
 OpenBabel11042420383D

 45 49  0  0  1  0  0  0  0  0999 V2000
  161.7290  208.3220  152.9950 C   0  0  2  0  0  3  0  0  0  0  0  0
  160.3970  207.1900  155.6030 F   0  0  0  0  0  0  0  0  0  0  0  0
  158.5670  212.8690  153.0320 N   0  0  0  0  0  1  0  0  0  0  0  0
  159.5550  209.3180  156.0330 N   0  0  0  0  0  0  0  0  0  0  0  0
  158.0140  212.2800  155.3470 N   0  0  0  0  0  0  0  0  0  0  0  0
  160.4290  208.7230  153.7250 C   0  0  2  0  0  3  0  0  0  0  0  0
  159.9770  210.1270  153.3620 C   0  0  0  0  0  3  0  0  0  0  0  0
  158.2630  211.2730  156.1830 N   0  0  0  0  0  2  0  0  0  0  0  0
  160.5360  208.5250  155.2720 C   0  0  2  0  0  3  0  0  0  0  0  0
  158.6480  212.0310  154.1800 C   0  0  0  0  0  0  0  0  0  0  0  0
  159.0500  210.4000  155.5290 C   0  0  0  0  0  0  0  0  0  0  0  0
  159.2970  210.8250  154.2610 C   0  0  0  0  0  0  0  0  0  0  0  0
  162.3260  210.6980  152.9670 O   0  0  0  0  0  1  0  0  0  0  0  0
  162.3410  209.5130  152.2210 C   0  0  2  0  0  3  0  0  0  0  0  0
  161.5720  209.7360  150.9300 C   0  0  0  0  0  2  0  0  0  0  0  0
  161.6230  211.1400  150.5580 N   0  0  0  0  0  2  0  0  0  0  0  0
  161.8320  212.4480  148.5390 C   0  0  1  0  0  3  0  0  0  0  0  0
  161.2680  211.0940  148.1640 C   0  0  0  0  0  2  0  0  0  0  0  0
  162.2920  211.2050  149.2720 C   0  0  2  0  0  3  0  0  0  0  0  0
  162.8950  212.8370  147.5330 C   0  0  0  0  0  2  0  0  0  0  0  0
  162.3050  213.6900  146.5120 N   0  0  0  0  0  2  0  0  0  0  0  0
  162.3310  212.5780  142.9550 C   0  0  0  0  0  3  0  0  0  0  0  0
  162.7570  213.0630  144.1970 C   0  0  0  0  0  3  0  0  0  0  0  0
  160.0800  212.3430  143.8170 C   0  0  0  0  0  3  0  0  0  0  0  0
  161.8470  213.1910  145.2530 C   0  0  0  0  0  0  0  0  0  0  0  0
  160.5050  212.8280  145.0580 C   0  0  0  0  0  3  0  0  0  0  0  0
  160.9930  212.2180  142.7660 C   0  0  0  0  0  3  0  0  0  0  0  0
  161.9550  205.9380  152.3920 C   0  0  0  0  0  3  0  0  0  0  0  0
  161.4670  207.1440  152.0980 C   0  0  0  0  0  3  0  0  0  0  0  0
  161.6970  204.7650  151.5050 C   0  0  0  0  0  2  0  0  0  0  0  0
  160.7860  205.1570  150.3570 C   0  0  0  0  0  2  0  0  0  0  0  0
  161.3410  204.5940  149.0430 C   0  0  1  0  0  3  0  0  0  0  0  0
  161.4370  202.5350  147.8310 C   0  0  0  0  0  2  0  0  0  0  0  0
  160.5620  203.4170  148.6010 N   0  0  0  0  0  0  0  0  0  0  0  0
  160.1480  201.1660  149.3260 C   0  0  0  0  0  2  0  0  0  0  0  0
  160.1530  202.6120  149.7530 C   0  0  0  0  0  2  0  0  0  0  0  0
  161.2080  201.0980  148.2650 C   0  0  0  0  0  2  0  0  0  0  0  0
  161.3190  205.7170  147.9740 C   0  0  2  0  0  3  0  0  0  0  0  0
  161.4400  207.1240  148.5640 C   0  0  0  0  0  2  0  0  0  0  0  0
  162.7960  207.7480  148.2750 C   0  0  0  0  0  1  0  0  0  0  0  0
  160.1190  205.6440  147.1450 N   0  0  0  0  0  2  0  0  0  0  0  0
  160.4560  206.2030  145.8450 C   0  0  0  0  0  2  0  0  0  0  0  0
  162.7060  205.8250  145.1540 O   0  0  0  0  0  1  0  0  0  0  0  0
  161.5260  205.3870  145.2060 C   0  0  0  0  0  0  0  0  0  0  0  0
  161.2310  204.1280  144.6970 O   0  0  0  0  0  0  0  0  0  0  0  0
  1 29  1  6  0  0  0
  3 10  1  0  0  0  0
  5  8  1  0  0  0  0
  6  1  1  6  0  0  0
  6  9  1  0  0  0  0
  7  6  1  0  0  0  0
  7 12  2  0  0  0  0
  9  2  1  6  0  0  0
  9  4  1  0  0  0  0
 10 12  1  0  0  0  0
 10  5  2  0  0  0  0
 11  4  2  0  0  0  0
 11  8  1  0  0  0  0
 12 11  1  0  0  0  0
 14 13  1  1  0  0  0
 14  1  1  0  0  0  0
 15 14  1  0  0  0  0
 16 15  1  0  0  0  0
 17 20  1  6  0  0  0
 17 19  1  0  0  0  0
 18 17  1  0  0  0  0
 18 19  1  0  0  0  0
 19 16  1  1  0  0  0
 21 20  1  0  0  0  0
 22 23  1  0  0  0  0
 23 25  2  0  0  0  0
 24 26  2  0  0  0  0
 25 21  1  0  0  0  0
 26 25  1  0  0  0  0
 27 22  2  0  0  0  0
 27 24  1  0  0  0  0
 29 28  2  0  0  0  0
 30 28  1  0  0  0  0
 31 30  1  0  0  0  0
 32 31  1  1  0  0  0
 33 37  1  0  0  0  0
 33 34  1  0  0  0  0
 34 32  1  0  0  0  0
 34 36  1  0  0  0  0
 35 36  1  0  0  0  0
 37 35  1  0  0  0  0
 38 39  1  1  0  0  0
 38 32  1  0  0  0  0
 40 39  1  0  0  0  0
 41 38  1  0  0  0  0
 42 41  1  0  0  0  0
 43 44  1  0  0  0  0
 44 42  1  0  0  0  0
 45 44  2  0  0  0  0
M  END
>  <MODEL>
7

>  <REMARK>
 VINA RESULT:      -6.6      2.424      8.283
  Name = 
  18 active torsions:
  status: ('A' for Active; 'I' for Inactive)
    1  A    between atoms: C_6  and  C_12
    2  A    between atoms: C_6  and  C_17
    3  A    between atoms: C_6  and  C_30
    4  A    between atoms: N_8  and  C_23
    5  A    between atoms: N_8  and  C_44
    6  A    between atoms: C_9  and  C_13
    7  A    between atoms: C_10  and  C_39
    8  A    between atoms: C_13  and  C_45
    9  A    between atoms: N_14  and  C_21
   10  A    between atoms: N_14  and  C_39
   11  A    between atoms: C_18  and  C_44
   12  A    between atoms: C_20  and  C_21
   13  A    between atoms: C_22  and  N_27
   14  A    between atoms: C_22  and  C_39
   15  A    between atoms: C_22  and  C_45
   16  A    between atoms: C_30  and  C_41
   17  A    between atoms: C_38  and  N_40
   18  A    between atoms: N_40  and  C_41
                            x       y       z     vdW  Elec       q    Type
                         _______ _______ _______ _____ _____    ______ ____

>  <TORSDO>
F 18

$$$$
=
 OpenBabel11042420383D

 45 49  0  0  1  0  0  0  0  0999 V2000
  161.1750  208.1610  151.4240 C   0  0  2  0  0  3  0  0  0  0  0  0
  161.9500  206.8820  154.1850 F   0  0  0  0  0  0  0  0  0  0  0  0
  160.8250  203.2280  148.9320 N   0  0  0  0  0  1  0  0  0  0  0  0
  161.1790  204.8330  153.3920 N   0  0  0  0  0  0  0  0  0  0  0  0
  160.8050  202.2610  151.1860 N   0  0  0  0  0  0  0  0  0  0  0  0
  161.6550  206.7380  151.7830 C   0  0  2  0  0  3  0  0  0  0  0  0
  161.2840  205.7220  150.7150 C   0  0  0  0  0  3  0  0  0  0  0  0
  160.9330  202.7020  152.4360 N   0  0  0  0  0  2  0  0  0  0  0  0
  161.1750  206.2940  153.2030 C   0  0  2  0  0  3  0  0  0  0  0  0
  160.8730  203.3230  150.3520 C   0  0  0  0  0  0  0  0  0  0  0  0
  161.0840  204.0380  152.3730 C   0  0  0  0  0  0  0  0  0  0  0  0
  161.0760  204.4660  151.0820 C   0  0  0  0  0  0  0  0  0  0  0  0
  162.0400  210.3770  150.8350 O   0  0  0  0  0  1  0  0  0  0  0  0
  162.3060  209.0030  150.7890 C   0  0  2  0  0  3  0  0  0  0  0  0
  162.5010  208.5900  149.3400 C   0  0  0  0  0  2  0  0  0  0  0  0
  161.2590  208.0620  148.8020 N   0  0  0  0  0  2  0  0  0  0  0  0
  160.7440  206.3940  147.1330 C   0  0  1  0  0  3  0  0  0  0  0  0
  162.2220  206.2990  147.4520 C   0  0  0  0  0  2  0  0  0  0  0  0
  161.5380  207.6490  147.4400 C   0  0  2  0  0  3  0  0  0  0  0  0
  160.5550  206.2980  145.6340 C   0  0  0  0  0  2  0  0  0  0  0  0
  161.3330  205.1800  145.1200 N   0  0  0  0  0  2  0  0  0  0  0  0
  161.0710  201.5550  145.9470 C   0  0  0  0  0  3  0  0  0  0  0  0
  161.5180  202.8800  145.9190 C   0  0  0  0  0  3  0  0  0  0  0  0
  159.2900  202.1220  144.4060 C   0  0  0  0  0  3  0  0  0  0  0  0
  160.8550  203.8310  145.1340 C   0  0  0  0  0  0  0  0  0  0  0  0
  159.7370  203.4470  144.3770 C   0  0  0  0  0  3  0  0  0  0  0  0
  159.9570  201.1760  145.1910 C   0  0  0  0  0  3  0  0  0  0  0  0
  160.1230  210.0720  152.5830 C   0  0  0  0  0  3  0  0  0  0  0  0
  160.5960  208.8260  152.6430 C   0  0  0  0  0  3  0  0  0  0  0  0
  159.5470  210.7360  153.7900 C   0  0  0  0  0  2  0  0  0  0  0  0
  158.3970  211.6450  153.3980 C   0  0  0  0  0  2  0  0  0  0  0  0
  158.7970  213.1080  153.6270 C   0  0  1  0  0  3  0  0  0  0  0  0
  158.7600  213.3240  151.2470 C   0  0  0  0  0  2  0  0  0  0  0  0
  158.3580  213.9590  152.5000 N   0  0  0  0  0  0  0  0  0  0  0  0
  156.5050  214.1060  150.9810 C   0  0  0  0  0  2  0  0  0  0  0  0
  156.8960  214.0070  152.4330 C   0  0  0  0  0  2  0  0  0  0  0  0
  157.6100  213.3930  150.2580 C   0  0  0  0  0  2  0  0  0  0  0  0
  158.1780  213.5850  154.9660 C   0  0  2  0  0  3  0  0  0  0  0  0
  159.1520  214.3790  155.8400 C   0  0  0  0  0  2  0  0  0  0  0  0
  160.1220  213.4720  156.5820 C   0  0  0  0  0  1  0  0  0  0  0  0
  157.6400  212.4680  155.7380 N   0  0  0  0  0  2  0  0  0  0  0  0
  156.2120  212.6960  155.8940 C   0  0  0  0  0  2  0  0  0  0  0  0
  155.5610  210.5180  155.1760 O   0  0  0  0  0  0  0  0  0  0  0  0
  155.5100  211.3950  156.0790 C   0  0  0  0  0  0  0  0  0  0  0  0
  154.8270  211.1360  157.2610 O   0  0  0  0  0  1  0  0  0  0  0  0
  1 29  1  1  0  0  0
  3 10  1  0  0  0  0
  5  8  1  0  0  0  0
  6  1  1  6  0  0  0
  6  9  1  0  0  0  0
  7 12  2  0  0  0  0
  7  6  1  0  0  0  0
  9  4  1  0  0  0  0
  9  2  1  1  0  0  0
 10 12  1  0  0  0  0
 10  5  2  0  0  0  0
 11  8  1  0  0  0  0
 11  4  2  0  0  0  0
 12 11  1  0  0  0  0
 14 13  1  6  0  0  0
 14  1  1  0  0  0  0
 15 14  1  0  0  0  0
 16 15  1  0  0  0  0
 17 20  1  6  0  0  0
 17 19  1  0  0  0  0
 17 18  1  0  0  0  0
 19 18  1  0  0  0  0
 19 16  1  1  0  0  0
 21 25  1  0  0  0  0
 21 20  1  0  0  0  0
 23 22  1  0  0  0  0
 24 27  1  0  0  0  0
 25 23  2  0  0  0  0
 26 24  2  0  0  0  0
 26 25  1  0  0  0  0
 27 22  2  0  0  0  0
 28 29  2  0  0  0  0
 28 30  1  0  0  0  0
 31 30  1  0  0  0  0
 32 31  1  6  0  0  0
 32 38  1  0  0  0  0
 33 34  1  0  0  0  0
 34 32  1  0  0  0  0
 35 36  1  0  0  0  0
 36 34  1  0  0  0  0
 37 35  1  0  0  0  0
 37 33  1  0  0  0  0
 38 41  1  0  0  0  0
 38 39  1  1  0  0  0
 39 40  1  0  0  0  0
 41 42  1  0  0  0  0
 42 44  1  0  0  0  0
 43 44  2  0  0  0  0
 44 45  1  0  0  0  0
M  END
>  <MODEL>
8

>  <REMARK>
 VINA RESULT:      -6.5      3.203      5.748
  Name = 
  18 active torsions:
  status: ('A' for Active; 'I' for Inactive)
    1  A    between atoms: C_6  and  C_12
    2  A    between atoms: C_6  and  C_17
    3  A    between atoms: C_6  and  C_30
    4  A    between atoms: N_8  and  C_23
    5  A    between atoms: N_8  and  C_44
    6  A    between atoms: C_9  and  C_13
    7  A    between atoms: C_10  and  C_39
    8  A    between atoms: C_13  and  C_45
    9  A    between atoms: N_14  and  C_21
   10  A    between atoms: N_14  and  C_39
   11  A    between atoms: C_18  and  C_44
   12  A    between atoms: C_20  and  C_21
   13  A    between atoms: C_22  and  N_27
   14  A    between atoms: C_22  and  C_39
   15  A    between atoms: C_22  and  C_45
   16  A    between atoms: C_30  and  C_41
   17  A    between atoms: C_38  and  N_40
   18  A    between atoms: N_40  and  C_41
                            x       y       z     vdW  Elec       q    Type
                         _______ _______ _______ _____ _____    ______ ____

>  <TORSDO>
F 18

$$$$
=
 OpenBabel11042420383D

 45 49  0  0  1  0  0  0  0  0999 V2000
  161.6240  208.9880  153.3620 C   0  0  2  0  0  3  0  0  0  0  0  0
  162.9260  209.8950  156.0710 F   0  0  0  0  0  0  0  0  0  0  0  0
  156.6860  211.0980  154.7190 N   0  0  0  0  0  1  0  0  0  0  0  0
  161.1290  211.3410  156.3890 N   0  0  0  0  0  0  0  0  0  0  0  0
  157.8640  212.3140  156.4930 N   0  0  0  0  0  0  0  0  0  0  0  0
  160.9850  209.4670  154.6830 C   0  0  2  0  0  3  0  0  0  0  0  0
  159.5640  209.9670  154.4840 C   0  0  0  0  0  3  0  0  0  0  0  0
  159.1010  212.3640  156.9840 N   0  0  0  0  0  2  0  0  0  0  0  0
  161.8760  210.5170  155.4230 C   0  0  2  0  0  3  0  0  0  0  0  0
  157.8530  211.4450  155.4580 C   0  0  0  0  0  0  0  0  0  0  0  0
  159.8540  211.5220  156.2520 C   0  0  0  0  0  0  0  0  0  0  0  0
  159.1040  210.9070  155.2990 C   0  0  0  0  0  0  0  0  0  0  0  0
  160.3290  208.9990  151.2820 O   0  0  0  0  0  1  0  0  0  0  0  0
  161.0960  209.7880  152.1480 C   0  0  2  0  0  3  0  0  0  0  0  0
  162.2640  210.3730  151.3720 C   0  0  0  0  0  2  0  0  0  0  0  0
  161.9580  210.3910  149.9520 N   0  0  0  0  0  2  0  0  0  0  0  0
  161.2290  211.9090  148.2190 C   0  0  1  0  0  3  0  0  0  0  0  0
  162.7430  211.9340  148.2610 C   0  0  0  0  0  2  0  0  0  0  0  0
  161.9560  211.7840  149.5440 C   0  0  2  0  0  3  0  0  0  0  0  0
  160.7140  213.3250  148.0840 C   0  0  0  0  0  2  0  0  0  0  0  0
  159.2810  213.2960  147.8290 N   0  0  0  0  0  2  0  0  0  0  0  0
  155.9960  214.0810  149.4060 C   0  0  0  0  0  3  0  0  0  0  0  0
  156.9640  213.7480  148.4520 C   0  0  0  0  0  3  0  0  0  0  0  0
  157.7120  214.1890  151.1110 C   0  0  0  0  0  3  0  0  0  0  0  0
  158.3090  213.6350  148.8230 C   0  0  0  0  0  0  0  0  0  0  0  0
  158.6800  213.8570  150.1580 C   0  0  0  0  0  3  0  0  0  0  0  0
  156.3700  214.3010  150.7350 C   0  0  0  0  0  3  0  0  0  0  0  0
  161.8730  206.8640  152.1270 C   0  0  0  0  0  3  0  0  0  0  0  0
  161.4070  207.5090  153.1980 C   0  0  0  0  0  3  0  0  0  0  0  0
  161.6610  205.3950  151.9600 C   0  0  0  0  0  2  0  0  0  0  0  0
  160.6580  205.1260  150.8530 C   0  0  0  0  0  2  0  0  0  0  0  0
  161.3390  204.3500  149.7200 C   0  0  1  0  0  3  0  0  0  0  0  0
  161.2170  202.4770  148.2380 C   0  0  0  0  0  2  0  0  0  0  0  0
  160.5350  203.1720  149.3290 N   0  0  0  0  0  0  0  0  0  0  0  0
  160.4560  200.8190  149.8000 C   0  0  0  0  0  2  0  0  0  0  0  0
  160.4960  202.1940  150.4170 C   0  0  0  0  0  2  0  0  0  0  0  0
  161.1920  200.9820  148.5030 C   0  0  0  0  0  2  0  0  0  0  0  0
  161.5500  205.3100  148.5200 C   0  0  2  0  0  3  0  0  0  0  0  0
  160.7370  206.6020  148.6230 C   0  0  0  0  0  2  0  0  0  0  0  0
  161.6040  207.8370  148.4270 C   0  0  0  0  0  1  0  0  0  0  0  0
  161.2530  204.6540  147.2500 N   0  0  0  0  0  2  0  0  0  0  0  0
  162.0270  205.3310  146.2210 C   0  0  0  0  0  2  0  0  0  0  0  0
  160.0390  206.2030  145.2350 O   0  0  0  0  0  1  0  0  0  0  0  0
  161.1530  205.6430  145.0550 C   0  0  0  0  0  0  0  0  0  0  0  0
  161.5810  205.3480  143.7660 O   0  0  0  0  0  0  0  0  0  0  0  0
  1 29  1  6  0  0  0
  3 10  1  0  0  0  0
  5  8  1  0  0  0  0
  6  1  1  6  0  0  0
  6  9  1  0  0  0  0
  7  6  1  0  0  0  0
  7 12  2  0  0  0  0
  9  2  1  1  0  0  0
  9  4  1  0  0  0  0
 10  5  2  0  0  0  0
 11  4  2  0  0  0  0
 11  8  1  0  0  0  0
 12 10  1  0  0  0  0
 12 11  1  0  0  0  0
 14 13  1  6  0  0  0
 14  1  1  0  0  0  0
 15 14  1  0  0  0  0
 16 15  1  0  0  0  0
 17 20  1  1  0  0  0
 17 18  1  0  0  0  0
 17 19  1  0  0  0  0
 18 19  1  0  0  0  0
 19 16  1  6  0  0  0
 21 20  1  0  0  0  0
 21 25  1  0  0  0  0
 22 27  1  0  0  0  0
 23 25  1  0  0  0  0
 23 22  2  0  0  0  0
 25 26  2  0  0  0  0
 26 24  1  0  0  0  0
 27 24  2  0  0  0  0
 28 29  2  0  0  0  0
 30 28  1  0  0  0  0
 31 30  1  0  0  0  0
 32 31  1  1  0  0  0
 33 37  1  0  0  0  0
 33 34  1  0  0  0  0
 34 32  1  0  0  0  0
 34 36  1  0  0  0  0
 35 36  1  0  0  0  0
 37 35  1  0  0  0  0
 38 39  1  1  0  0  0
 38 32  1  0  0  0  0
 40 39  1  0  0  0  0
 41 38  1  0  0  0  0
 42 41  1  0  0  0  0
 44 43  1  0  0  0  0
 44 42  1  0  0  0  0
 45 44  2  0  0  0  0
M  END
>  <MODEL>
9

>  <REMARK>
 VINA RESULT:      -6.4      2.761      8.830
  Name = 
  18 active torsions:
  status: ('A' for Active; 'I' for Inactive)
    1  A    between atoms: C_6  and  C_12
    2  A    between atoms: C_6  and  C_17
    3  A    between atoms: C_6  and  C_30
    4  A    between atoms: N_8  and  C_23
    5  A    between atoms: N_8  and  C_44
    6  A    between atoms: C_9  and  C_13
    7  A    between atoms: C_10  and  C_39
    8  A    between atoms: C_13  and  C_45
    9  A    between atoms: N_14  and  C_21
   10  A    between atoms: N_14  and  C_39
   11  A    between atoms: C_18  and  C_44
   12  A    between atoms: C_20  and  C_21
   13  A    between atoms: C_22  and  N_27
   14  A    between atoms: C_22  and  C_39
   15  A    between atoms: C_22  and  C_45
   16  A    between atoms: C_30  and  C_41
   17  A    between atoms: C_38  and  N_40
   18  A    between atoms: N_40  and  C_41
                            x       y       z     vdW  Elec       q    Type
                         _______ _______ _______ _____ _____    ______ ____

>  <TORSDO>
F 18

$$$$
