=
 OpenBabel11052410553D

 30 32  0  0  1  0  0  0  0  0999 V2000
  161.7730  205.7560  152.3590 C   0  0  0  0  0  0  0  0  0  0  0  0
  161.0040  209.3830  152.8990 C   0  0  0  0  0  1  0  0  0  0  0  0
  161.2200  207.9060  152.9290 C   0  0  0  0  0  0  0  0  0  0  0  0
  161.7130  207.1230  151.7580 C   0  0  2  0  0  3  0  0  0  0  0  0
  161.0300  207.1120  153.9830 C   0  0  0  0  0  0  0  0  0  0  0  0
  161.3850  205.7450  153.6280 C   0  0  0  0  0  3  0  0  0  0  0  0
  161.2650  208.2430  156.0670 O   0  0  0  0  0  0  0  0  0  0  0  0
  159.2920  207.0650  155.7920 N   0  0  0  0  0  1  0  0  0  0  0  0
  160.5600  207.5110  155.3250 C   0  0  0  0  0  0  0  0  0  0  0  0
  162.2480  204.6060  151.6550 N   0  0  0  0  0  2  0  0  0  0  0  0
  161.5500  203.3290  151.6780 C   0  0  0  0  0  2  0  0  0  0  0  0
  160.3210  203.3920  150.7910 C   0  0  0  0  0  2  0  0  0  0  0  0
  160.6170  202.7590  149.4420 C   0  0  0  0  0  2  0  0  0  0  0  0
  160.9290  201.2820  149.6010 C   0  0  0  0  0  2  0  0  0  0  0  0
  161.2910  200.6730  148.2560 C   0  0  0  0  0  2  0  0  0  0  0  0
  160.8920  201.6070  147.1250 C   0  0  0  0  0  2  0  0  0  0  0  0
  161.1750  199.5700  145.7960 O   0  0  0  0  0  0  0  0  0  0  0  0
  160.7150  200.8620  145.8900 N   0  0  0  0  0  0  0  0  0  0  0  0
  160.0500  201.3510  144.9560 O   0  0  0  0  0  0  0  0  0  0  0  0
  160.6870  207.1730  150.6320 C   0  0  0  0  0  2  0  0  0  0  0  0
  162.3750  208.8120  149.8760 N   0  0  0  0  0  2  0  0  0  0  0  0
  162.5110  207.5600  149.1180 C   0  0  2  0  0  3  0  0  0  0  0  0
  161.3810  207.4050  148.1240 C   0  0  2  0  0  3  0  0  0  0  0  0
  161.1770  208.0550  149.4890 C   0  0  1  0  0  0  0  0  0  0  0  0
  160.9680  205.9390  148.0530 C   0  0  0  0  0  2  0  0  0  0  0  0
  161.5670  205.3020  146.8460 C   0  0  0  0  0  0  0  0  0  0  0  0
  162.6420  204.6530  146.9580 O   0  0  0  0  0  0  0  0  0  0  0  0
  160.8960  205.4010  145.5440 C   0  0  0  0  0  0  0  0  0  0  0  0
  160.0360  206.2980  145.3390 O   0  0  0  0  0  1  0  0  0  0  0  0
  161.2060  204.5050  144.5270 O   0  0  0  0  0  0  0  0  0  0  0  0
  1  6  2  0  0  0  0
  2  3  1  0  0  0  0
  3  5  2  0  0  0  0
  4 20  1  6  0  0  0
  4  1  1  0  0  0  0
  4  3  1  0  0  0  0
  5  9  1  0  0  0  0
  6  5  1  0  0  0  0
  9  8  1  0  0  0  0
  9  7  2  0  0  0  0
 10 11  1  0  0  0  0
 10  1  1  0  0  0  0
 12 11  1  0  0  0  0
 13 14  1  0  0  0  0
 13 12  1  0  0  0  0
 15 14  1  0  0  0  0
 16 15  1  0  0  0  0
 17 18  2  0  0  0  0
 18 16  1  0  0  0  0
 19 18  2  0  0  0  0
 22 24  1  0  0  0  0
 22 21  1  6  0  0  0
 23 25  1  1  0  0  0
 23 22  1  0  0  0  0
 23 24  1  0  0  0  0
 24 21  1  0  0  0  0
 24 20  1  1  0  0  0
 26 27  2  0  0  0  0
 26 25  1  0  0  0  0
 28 26  1  0  0  0  0
 29 28  1  0  0  0  0
 30 28  2  0  0  0  0
M  END
>  <MODEL>
1

>  <REMARK>
 VINA RESULT:      -7.6      0.000      0.000
  Name = 
  14 active torsions:
  status: ('A' for Active; 'I' for Inactive)
    1  A    between atoms: C_2  and  N_8
    2  A    between atoms: C_2  and  C_10
    3  A    between atoms: C_4  and  N_8
    4  A    between atoms: C_5  and  C_22
    5  A    between atoms: C_10  and  C_12
    6  A    between atoms: C_11  and  C_15
    7  A    between atoms: C_11  and  C_22
    8  A    between atoms: C_12  and  C_28
    9  A    between atoms: N_13  and  C_18
   10  A    between atoms: C_18  and  C_25
   11  A    between atoms: C_21  and  C_24
   12  A    between atoms: C_23  and  C_24
   13  A    between atoms: C_25  and  C_28
   14  A    between atoms: C_27  and  C_29
                            x       y       z     vdW  Elec       q    Type
                         _______ _______ _______ _____ _____    ______ ____

>  <TORSDO>
F 14

$$$$
=
 OpenBabel11052410553D

 30 32  0  0  1  0  0  0  0  0999 V2000
  161.4000  206.4450  149.4200 C   0  0  0  0  0  0  0  0  0  0  0  0
  162.3790  206.1060  153.0210 C   0  0  0  0  0  1  0  0  0  0  0  0
  161.8840  206.0010  151.6160 C   0  0  1  0  0  3  0  0  0  0  0  0
  162.0020  207.1050  150.6180 C   0  0  2  0  0  3  0  0  0  0  0  0
  161.3090  204.9290  151.0710 C   0  0  0  0  0  0  0  0  0  0  0  0
  161.0040  205.2040  149.6740 C   0  0  0  0  0  3  0  0  0  0  0  0
  160.0220  203.4950  152.4720 O   0  0  0  0  0  0  0  0  0  0  0  0
  161.9030  202.5340  151.5260 N   0  0  0  0  0  1  0  0  0  0  0  0
  161.0280  203.6380  151.7290 C   0  0  0  0  0  0  0  0  0  0  0  0
  161.3130  207.0690  148.1370 N   0  0  0  0  0  0  0  0  0  0  0  0
  160.8670  206.3580  146.9480 C   0  0  0  0  0  2  0  0  0  0  0  0
  162.0640  205.8990  146.1370 C   0  0  0  0  0  2  0  0  0  0  0  0
  162.2280  204.3940  146.2550 C   0  0  0  0  0  2  0  0  0  0  0  0
  161.2420  203.6740  145.3520 C   0  0  0  0  0  2  0  0  0  0  0  0
  160.9150  202.3030  145.9180 C   0  0  0  0  0  2  0  0  0  0  0  0
  161.0800  202.2980  147.4300 C   0  0  0  0  0  2  0  0  0  0  0  0
  161.5790  199.9230  147.1020 O   0  0  0  0  0  0  0  0  0  0  0  0
  161.1500  200.9340  147.9280 N   0  0  0  0  0  0  0  0  0  0  0  0
  160.9290  200.6980  149.1320 O   0  0  0  0  0  0  0  0  0  0  0  0
  161.1580  208.2950  151.0600 C   0  0  0  0  0  2  0  0  0  0  0  0
  162.0020  210.5110  150.3640 N   0  0  0  0  0  2  0  0  0  0  0  0
  161.1510  210.6450  151.5540 C   0  0  2  0  0  3  0  0  0  0  0  0
  161.8590  210.1270  152.7860 C   0  0  2  0  0  3  0  0  0  0  0  0
  162.0430  209.4860  151.4150 C   0  0  1  0  0  0  0  0  0  0  0  0
  160.8530  209.4190  153.6870 C   0  0  0  0  0  2  0  0  0  0  0  0
  161.3050  209.4900  155.1050 C   0  0  0  0  0  0  0  0  0  0  0  0
  161.7220  210.5860  155.5670 O   0  0  0  0  0  0  0  0  0  0  0  0
  161.2350  208.3040  155.9680 C   0  0  0  0  0  0  0  0  0  0  0  0
  162.0770  208.1400  156.8910 O   0  0  0  0  0  1  0  0  0  0  0  0
  160.2400  207.3540  155.7720 O   0  0  0  0  0  0  0  0  0  0  0  0
  1  6  1  0  0  0  0
  1  4  1  0  0  0  0
  3  2  1  6  0  0  0
  4 20  1  1  0  0  0
  4  3  1  0  0  0  0
  5  3  1  0  0  0  0
  5  9  1  0  0  0  0
  6  5  2  0  0  0  0
  8  9  1  0  0  0  0
  9  7  2  0  0  0  0
 10  1  2  0  0  0  0
 11 10  1  0  0  0  0
 12 13  1  0  0  0  0
 12 11  1  0  0  0  0
 14 15  1  0  0  0  0
 14 13  1  0  0  0  0
 15 16  1  0  0  0  0
 16 18  1  0  0  0  0
 17 18  2  0  0  0  0
 18 19  2  0  0  0  0
 21 24  1  0  0  0  0
 22 21  1  6  0  0  0
 22 23  1  0  0  0  0
 23 25  1  1  0  0  0
 24 20  1  6  0  0  0
 24 22  1  0  0  0  0
 24 23  1  0  0  0  0
 25 26  1  0  0  0  0
 26 27  2  0  0  0  0
 26 28  1  0  0  0  0
 28 29  1  0  0  0  0
 30 28  2  0  0  0  0
M  END
>  <MODEL>
2

>  <REMARK>
 VINA RESULT:      -6.8      2.641      5.820
  Name = 
  14 active torsions:
  status: ('A' for Active; 'I' for Inactive)
    1  A    between atoms: C_2  and  N_8
    2  A    between atoms: C_2  and  C_10
    3  A    between atoms: C_4  and  N_8
    4  A    between atoms: C_5  and  C_22
    5  A    between atoms: C_10  and  C_12
    6  A    between atoms: C_11  and  C_15
    7  A    between atoms: C_11  and  C_22
    8  A    between atoms: C_12  and  C_28
    9  A    between atoms: N_13  and  C_18
   10  A    between atoms: C_18  and  C_25
   11  A    between atoms: C_21  and  C_24
   12  A    between atoms: C_23  and  C_24
   13  A    between atoms: C_25  and  C_28
   14  A    between atoms: C_27  and  C_29
                            x       y       z     vdW  Elec       q    Type
                         _______ _______ _______ _____ _____    ______ ____

>  <TORSDO>
F 14

$$$$
=
 OpenBabel11052410553D

 30 32  0  0  1  0  0  0  0  0999 V2000
  161.7140  208.2690  149.4870 C   0  0  0  0  0  0  0  0  0  0  0  0
  160.4520  204.9070  150.5560 C   0  0  0  0  0  1  0  0  0  0  0  0
  161.0080  206.2820  150.3860 C   0  0  1  0  0  3  0  0  0  0  0  0
  161.1740  206.9430  149.0580 C   0  0  2  0  0  3  0  0  0  0  0  0
  161.3970  207.0920  151.3700 C   0  0  0  0  0  0  0  0  0  0  0  0
  161.8420  208.3590  150.8050 C   0  0  0  0  0  3  0  0  0  0  0  0
  161.7960  205.7100  153.2690 O   0  0  0  0  0  0  0  0  0  0  0  0
  160.8760  207.7840  153.7250 N   0  0  0  0  0  1  0  0  0  0  0  0
  161.3760  206.8080  152.8190 C   0  0  0  0  0  0  0  0  0  0  0  0
  162.0050  209.3330  148.5780 N   0  0  0  0  0  0  0  0  0  0  0  0
  162.1720  210.7120  149.0120 C   0  0  0  0  0  2  0  0  0  0  0  0
  161.7000  211.6600  147.9260 C   0  0  0  0  0  2  0  0  0  0  0  0
  161.6540  213.0820  148.4570 C   0  0  0  0  0  2  0  0  0  0  0  0
  162.0810  214.0680  147.3850 C   0  0  0  0  0  2  0  0  0  0  0  0
  162.5340  213.3270  146.1380 C   0  0  0  0  0  2  0  0  0  0  0  0
  161.7590  213.8090  144.9220 C   0  0  0  0  0  2  0  0  0  0  0  0
  159.8310  212.3000  144.9640 O   0  0  0  0  0  0  0  0  0  0  0  0
  160.9860  212.7200  144.3480 N   0  0  0  0  0  0  0  0  0  0  0  0
  161.3060  212.2420  143.2430 O   0  0  0  0  0  0  0  0  0  0  0  0
  162.2040  206.1850  148.2280 C   0  0  0  0  0  2  0  0  0  0  0  0
  162.3220  206.1950  145.7590 N   0  0  0  0  0  2  0  0  0  0  0  0
  162.6050  204.8480  146.2730 C   0  0  2  0  0  3  0  0  0  0  0  0
  161.3430  204.1860  146.7810 C   0  0  2  0  0  3  0  0  0  0  0  0
  161.5880  205.6850  146.9250 C   0  0  1  0  0  0  0  0  0  0  0  0
  161.6660  203.3690  148.0270 C   0  0  0  0  0  2  0  0  0  0  0  0
  160.9900  202.0430  147.9530 C   0  0  0  0  0  0  0  0  0  0  0  0
  160.8960  201.4590  146.8400 O   0  0  0  0  0  0  0  0  0  0  0  0
  160.4670  201.4070  149.1680 C   0  0  0  0  0  0  0  0  0  0  0  0
  161.2570  200.9120  150.0160 O   0  0  0  0  0  1  0  0  0  0  0  0
  159.0970  201.3480  149.3930 O   0  0  0  0  0  0  0  0  0  0  0  0
  1  6  1  0  0  0  0
  3  2  1  1  0  0  0
  3  5  1  0  0  0  0
  4 20  1  6  0  0  0
  4  1  1  0  0  0  0
  4  3  1  0  0  0  0
  5  9  1  0  0  0  0
  6  5  2  0  0  0  0
  9  7  2  0  0  0  0
  9  8  1  0  0  0  0
 10 11  1  0  0  0  0
 10  1  2  0  0  0  0
 12 13  1  0  0  0  0
 12 11  1  0  0  0  0
 14 13  1  0  0  0  0
 15 14  1  0  0  0  0
 16 15  1  0  0  0  0
 18 16  1  0  0  0  0
 18 17  2  0  0  0  0
 19 18  2  0  0  0  0
 21 24  1  0  0  0  0
 22 21  1  6  0  0  0
 22 23  1  0  0  0  0
 22 24  1  0  0  0  0
 23 24  1  0  0  0  0
 23 25  1  1  0  0  0
 24 20  1  1  0  0  0
 26 25  1  0  0  0  0
 26 28  1  0  0  0  0
 27 26  2  0  0  0  0
 28 30  2  0  0  0  0
 28 29  1  0  0  0  0
M  END
>  <MODEL>
3

>  <REMARK>
 VINA RESULT:      -6.5      3.737      7.154
  Name = 
  14 active torsions:
  status: ('A' for Active; 'I' for Inactive)
    1  A    between atoms: C_2  and  N_8
    2  A    between atoms: C_2  and  C_10
    3  A    between atoms: C_4  and  N_8
    4  A    between atoms: C_5  and  C_22
    5  A    between atoms: C_10  and  C_12
    6  A    between atoms: C_11  and  C_15
    7  A    between atoms: C_11  and  C_22
    8  A    between atoms: C_12  and  C_28
    9  A    between atoms: N_13  and  C_18
   10  A    between atoms: C_18  and  C_25
   11  A    between atoms: C_21  and  C_24
   12  A    between atoms: C_23  and  C_24
   13  A    between atoms: C_25  and  C_28
   14  A    between atoms: C_27  and  C_29
                            x       y       z     vdW  Elec       q    Type
                         _______ _______ _______ _____ _____    ______ ____

>  <TORSDO>
F 14

$$$$
=
 OpenBabel11052410553D

 30 32  0  0  1  0  0  0  0  0999 V2000
  161.6690  206.1370  152.4570 C   0  0  0  0  0  0  0  0  0  0  0  0
  161.6160  209.8330  153.0670 C   0  0  0  0  0  1  0  0  0  0  0  0
  161.4980  208.3450  153.0470 C   0  0  0  0  0  0  0  0  0  0  0  0
  162.0180  207.4940  151.9370 C   0  0  2  0  0  3  0  0  0  0  0  0
  160.9490  207.5950  154.0030 C   0  0  0  0  0  0  0  0  0  0  0  0
  161.0600  206.1890  153.6350 C   0  0  0  0  0  3  0  0  0  0  0  0
  159.4290  207.3990  155.8270 O   0  0  0  0  0  0  0  0  0  0  0  0
  160.7740  209.2830  155.8510 N   0  0  0  0  0  1  0  0  0  0  0  0
  160.3370  208.0630  155.2610 C   0  0  0  0  0  0  0  0  0  0  0  0
  162.0050  204.9230  151.7810 N   0  0  0  0  0  2  0  0  0  0  0  0
  161.0440  203.8500  151.5700 C   0  0  0  0  0  2  0  0  0  0  0  0
  160.7230  203.7230  150.0940 C   0  0  0  0  0  2  0  0  0  0  0  0
  160.5980  202.2590  149.7100 C   0  0  0  0  0  2  0  0  0  0  0  0
  160.9230  202.0600  148.2400 C   0  0  0  0  0  2  0  0  0  0  0  0
  161.5820  203.3070  147.6740 C   0  0  0  0  0  2  0  0  0  0  0  0
  161.3670  203.3860  146.1710 C   0  0  0  0  0  2  0  0  0  0  0  0
  161.2040  205.4800  144.9120 O   0  0  0  0  0  0  0  0  0  0  0  0
  161.9690  204.5960  145.6350 N   0  0  0  0  0  0  0  0  0  0  0  0
  163.1460  204.8870  145.9240 O   0  0  0  0  0  0  0  0  0  0  0  0
  161.2530  207.7920  150.6530 C   0  0  0  0  0  2  0  0  0  0  0  0
  161.7850  206.6800  148.5110 N   0  0  0  0  0  2  0  0  0  0  0  0
  161.3600  208.0660  148.2690 C   0  0  2  0  0  3  0  0  0  0  0  0
  162.4370  209.0430  148.6880 C   0  0  2  0  0  3  0  0  0  0  0  0
  162.1810  207.7430  149.4440 C   0  0  1  0  0  0  0  0  0  0  0  0
  161.7890  210.2750  149.3090 C   0  0  0  0  0  2  0  0  0  0  0  0
  162.0250  211.4630  148.4420 C   0  0  0  0  0  0  0  0  0  0  0  0
  163.2000  211.7450  148.0850 O   0  0  0  0  0  0  0  0  0  0  0  0
  160.8960  212.2810  147.9810 C   0  0  0  0  0  0  0  0  0  0  0  0
  160.4240  213.1860  148.7200 O   0  0  0  0  0  1  0  0  0  0  0  0
  160.3410  212.0640  146.7250 O   0  0  0  0  0  0  0  0  0  0  0  0
  1  6  2  0  0  0  0
  3  2  1  0  0  0  0
  3  5  2  0  0  0  0
  4 20  1  6  0  0  0
  4  1  1  0  0  0  0
  4  3  1  0  0  0  0
  5  9  1  0  0  0  0
  6  5  1  0  0  0  0
  9  7  2  0  0  0  0
  9  8  1  0  0  0  0
 10  1  1  0  0  0  0
 11 10  1  0  0  0  0
 12 11  1  0  0  0  0
 13 12  1  0  0  0  0
 14 13  1  0  0  0  0
 15 14  1  0  0  0  0
 16 15  1  0  0  0  0
 17 18  2  0  0  0  0
 18 19  2  0  0  0  0
 18 16  1  0  0  0  0
 21 24  1  0  0  0  0
 22 21  1  6  0  0  0
 22 23  1  0  0  0  0
 22 24  1  0  0  0  0
 23 25  1  1  0  0  0
 23 24  1  0  0  0  0
 24 20  1  1  0  0  0
 26 25  1  0  0  0  0
 27 26  2  0  0  0  0
 28 26  1  0  0  0  0
 28 29  1  0  0  0  0
 30 28  2  0  0  0  0
M  END
>  <MODEL>
4

>  <REMARK>
 VINA RESULT:      -6.5      2.791      3.685
  Name = 
  14 active torsions:
  status: ('A' for Active; 'I' for Inactive)
    1  A    between atoms: C_2  and  N_8
    2  A    between atoms: C_2  and  C_10
    3  A    between atoms: C_4  and  N_8
    4  A    between atoms: C_5  and  C_22
    5  A    between atoms: C_10  and  C_12
    6  A    between atoms: C_11  and  C_15
    7  A    between atoms: C_11  and  C_22
    8  A    between atoms: C_12  and  C_28
    9  A    between atoms: N_13  and  C_18
   10  A    between atoms: C_18  and  C_25
   11  A    between atoms: C_21  and  C_24
   12  A    between atoms: C_23  and  C_24
   13  A    between atoms: C_25  and  C_28
   14  A    between atoms: C_27  and  C_29
                            x       y       z     vdW  Elec       q    Type
                         _______ _______ _______ _____ _____    ______ ____

>  <TORSDO>
F 14

$$$$
=
 OpenBabel11052410553D

 30 32  0  0  1  0  0  0  0  0999 V2000
  161.8160  206.9700  148.7040 C   0  0  0  0  0  0  0  0  0  0  0  0
  161.2670  203.2860  148.2980 C   0  0  0  0  0  1  0  0  0  0  0  0
  161.4390  204.7650  148.2010 C   0  0  0  0  0  0  0  0  0  0  0  0
  161.6910  205.6430  149.3810 C   0  0  2  0  0  3  0  0  0  0  0  0
  161.4170  205.4800  147.0750 C   0  0  0  0  0  0  0  0  0  0  0  0
  161.6610  206.8810  147.3890 C   0  0  0  0  0  3  0  0  0  0  0  0
  161.8100  203.9490  145.2920 O   0  0  0  0  0  0  0  0  0  0  0  0
  160.3120  205.6520  144.8290 N   0  0  0  0  0  1  0  0  0  0  0  0
  161.2070  204.9750  145.7040 C   0  0  0  0  0  0  0  0  0  0  0  0
  162.1210  208.1820  149.3960 N   0  0  0  0  0  2  0  0  0  0  0  0
  162.1450  209.4790  148.7350 C   0  0  0  0  0  2  0  0  0  0  0  0
  162.0640  210.5890  149.7640 C   0  0  0  0  0  2  0  0  0  0  0  0
  161.7700  211.9140  149.0820 C   0  0  0  0  0  2  0  0  0  0  0  0
  162.8070  212.2090  148.0130 C   0  0  0  0  0  2  0  0  0  0  0  0
  162.5440  213.5670  147.3840 C   0  0  0  0  0  2  0  0  0  0  0  0
  161.1000  213.6660  146.9200 C   0  0  0  0  0  2  0  0  0  0  0  0
  161.8280  212.9220  144.7030 O   0  0  0  0  0  0  0  0  0  0  0  0
  160.8990  212.8780  145.7150 N   0  0  0  0  0  0  0  0  0  0  0  0
  159.9460  212.0780  145.6460 O   0  0  0  0  0  0  0  0  0  0  0  0
  160.4810  205.6230  150.3090 C   0  0  0  0  0  2  0  0  0  0  0  0
  161.9690  204.1260  151.5940 N   0  0  0  0  0  2  0  0  0  0  0  0
  162.2370  205.5270  151.9440 C   0  0  2  0  0  3  0  0  0  0  0  0
  161.1240  206.0940  152.7970 C   0  0  2  0  0  3  0  0  0  0  0  0
  160.8610  205.0850  151.6850 C   0  0  1  0  0  0  0  0  0  0  0  0
  160.8770  207.5470  152.4060 C   0  0  0  0  0  2  0  0  0  0  0  0
  161.0160  208.4250  153.6020 C   0  0  0  0  0  0  0  0  0  0  0  0
  161.2440  207.9060  154.7270 O   0  0  0  0  0  0  0  0  0  0  0  0
  160.9220  209.8840  153.4670 C   0  0  0  0  0  0  0  0  0  0  0  0
  161.7750  210.6290  154.0190 O   0  0  0  0  0  1  0  0  0  0  0  0
  159.8920  210.4530  152.7270 O   0  0  0  0  0  0  0  0  0  0  0  0
  1  4  1  0  0  0  0
  1 10  1  0  0  0  0
  3  2  1  0  0  0  0
  3  4  1  0  0  0  0
  4 20  1  1  0  0  0
  5  6  1  0  0  0  0
  5  3  2  0  0  0  0
  6  1  2  0  0  0  0
  7  9  2  0  0  0  0
  8  9  1  0  0  0  0
  9  5  1  0  0  0  0
 11 10  1  0  0  0  0
 11 12  1  0  0  0  0
 13 12  1  0  0  0  0
 14 13  1  0  0  0  0
 15 14  1  0  0  0  0
 16 15  1  0  0  0  0
 17 18  2  0  0  0  0
 18 16  1  0  0  0  0
 19 18  2  0  0  0  0
 21 24  1  0  0  0  0
 22 21  1  1  0  0  0
 22 23  1  0  0  0  0
 23 25  1  6  0  0  0
 24 20  1  6  0  0  0
 24 22  1  0  0  0  0
 24 23  1  0  0  0  0
 25 26  1  0  0  0  0
 26 27  2  0  0  0  0
 28 26  1  0  0  0  0
 28 29  1  0  0  0  0
 30 28  2  0  0  0  0
M  END
>  <MODEL>
5

>  <REMARK>
 VINA RESULT:      -6.4      3.224      8.483
  Name = 
  14 active torsions:
  status: ('A' for Active; 'I' for Inactive)
    1  A    between atoms: C_2  and  N_8
    2  A    between atoms: C_2  and  C_10
    3  A    between atoms: C_4  and  N_8
    4  A    between atoms: C_5  and  C_22
    5  A    between atoms: C_10  and  C_12
    6  A    between atoms: C_11  and  C_15
    7  A    between atoms: C_11  and  C_22
    8  A    between atoms: C_12  and  C_28
    9  A    between atoms: N_13  and  C_18
   10  A    between atoms: C_18  and  C_25
   11  A    between atoms: C_21  and  C_24
   12  A    between atoms: C_23  and  C_24
   13  A    between atoms: C_25  and  C_28
   14  A    between atoms: C_27  and  C_29
                            x       y       z     vdW  Elec       q    Type
                         _______ _______ _______ _____ _____    ______ ____

>  <TORSDO>
F 14

$$$$
=
 OpenBabel11052410553D

 30 32  0  0  1  0  0  0  0  0999 V2000
  161.4320  206.5530  152.6540 C   0  0  0  0  0  0  0  0  0  0  0  0
  160.1580  210.0760  152.6090 C   0  0  0  0  0  1  0  0  0  0  0  0
  160.8020  208.7440  152.4130 C   0  0  0  0  0  0  0  0  0  0  0  0
  160.6190  207.5960  153.3500 C   0  0  2  0  0  3  0  0  0  0  0  0
  161.5850  208.4000  151.3900 C   0  0  0  0  0  0  0  0  0  0  0  0
  161.9850  207.0070  151.5360 C   0  0  0  0  0  3  0  0  0  0  0  0
  162.3820  210.4340  150.4390 O   0  0  0  0  0  0  0  0  0  0  0  0
  161.9450  208.7340  148.9300 N   0  0  0  0  0  1  0  0  0  0  0  0
  161.9920  209.2510  150.2550 C   0  0  0  0  0  0  0  0  0  0  0  0
  161.5510  205.2070  153.1190 N   0  0  0  0  0  2  0  0  0  0  0  0
  160.8820  204.0890  152.4680 C   0  0  0  0  0  2  0  0  0  0  0  0
  161.5560  203.7800  151.1450 C   0  0  0  0  0  2  0  0  0  0  0  0
  160.5480  203.8690  150.0130 C   0  0  0  0  0  2  0  0  0  0  0  0
  161.2510  203.8680  148.6680 C   0  0  0  0  0  2  0  0  0  0  0  0
  161.2940  205.2750  148.0940 C   0  0  0  0  0  2  0  0  0  0  0  0
  162.0400  205.2870  146.7700 C   0  0  0  0  0  2  0  0  0  0  0  0
  160.2680  206.3140  145.4280 O   0  0  0  0  0  0  0  0  0  0  0  0
  161.1030  205.2470  145.6590 N   0  0  0  0  0  0  0  0  0  0  0  0
  161.1340  204.2990  144.8510 O   0  0  0  0  0  0  0  0  0  0  0  0
  161.2230  207.9350  154.7080 C   0  0  0  0  0  2  0  0  0  0  0  0
  160.1280  206.8570  156.6440 N   0  0  0  0  0  2  0  0  0  0  0  0
  160.8250  208.0780  157.0720 C   0  0  2  0  0  3  0  0  0  0  0  0
  160.0830  209.3130  156.6120 C   0  0  2  0  0  3  0  0  0  0  0  0
  160.1380  208.0400  155.7740 C   0  0  1  0  0  0  0  0  0  0  0  0
  161.0880  210.3840  156.2030 C   0  0  0  0  0  2  0  0  0  0  0  0
  160.4920  211.7370  156.3910 C   0  0  0  0  0  0  0  0  0  0  0  0
  160.9760  212.5120  157.2580 O   0  0  0  0  0  0  0  0  0  0  0  0
  159.3700  212.1760  155.5510 C   0  0  0  0  0  0  0  0  0  0  0  0
  159.5600  213.0020  154.6190 O   0  0  0  0  0  0  0  0  0  0  0  0
  158.0910  211.6820  155.7780 O   0  0  0  0  0  1  0  0  0  0  0  0
  1 10  1  0  0  0  0
  1  4  1  0  0  0  0
  3  2  1  0  0  0  0
  3  4  1  0  0  0  0
  4 20  1  1  0  0  0
  5  6  1  0  0  0  0
  5  3  2  0  0  0  0
  6  1  2  0  0  0  0
  8  9  1  0  0  0  0
  9  7  2  0  0  0  0
  9  5  1  0  0  0  0
 11 10  1  0  0  0  0
 12 11  1  0  0  0  0
 13 12  1  0  0  0  0
 14 13  1  0  0  0  0
 15 14  1  0  0  0  0
 16 15  1  0  0  0  0
 17 18  2  0  0  0  0
 18 16  1  0  0  0  0
 19 18  2  0  0  0  0
 22 21  1  1  0  0  0
 23 25  1  6  0  0  0
 23 22  1  0  0  0  0
 24 20  1  6  0  0  0
 24 23  1  0  0  0  0
 24 21  1  0  0  0  0
 24 22  1  0  0  0  0
 25 26  1  0  0  0  0
 26 27  2  0  0  0  0
 28 30  1  0  0  0  0
 28 26  1  0  0  0  0
 29 28  2  0  0  0  0
M  END
>  <MODEL>
6

>  <REMARK>
 VINA RESULT:      -6.4      2.591      6.806
  Name = 
  14 active torsions:
  status: ('A' for Active; 'I' for Inactive)
    1  A    between atoms: C_2  and  N_8
    2  A    between atoms: C_2  and  C_10
    3  A    between atoms: C_4  and  N_8
    4  A    between atoms: C_5  and  C_22
    5  A    between atoms: C_10  and  C_12
    6  A    between atoms: C_11  and  C_15
    7  A    between atoms: C_11  and  C_22
    8  A    between atoms: C_12  and  C_28
    9  A    between atoms: N_13  and  C_18
   10  A    between atoms: C_18  and  C_25
   11  A    between atoms: C_21  and  C_24
   12  A    between atoms: C_23  and  C_24
   13  A    between atoms: C_25  and  C_28
   14  A    between atoms: C_27  and  C_29
                            x       y       z     vdW  Elec       q    Type
                         _______ _______ _______ _____ _____    ______ ____

>  <TORSDO>
F 14

$$$$
=
 OpenBabel11052410553D

 30 32  0  0  1  0  0  0  0  0999 V2000
  160.9730  205.6630  151.9740 C   0  0  0  0  0  0  0  0  0  0  0  0
  160.9030  203.7780  148.7360 C   0  0  0  0  0  1  0  0  0  0  0  0
  160.9970  204.2970  150.1330 C   0  0  0  0  0  0  0  0  0  0  0  0
  160.8200  205.7360  150.4890 C   0  0  2  0  0  3  0  0  0  0  0  0
  161.2190  203.5630  151.2230 C   0  0  0  0  0  0  0  0  0  0  0  0
  161.2000  204.4260  152.3970 C   0  0  0  0  0  3  0  0  0  0  0  0
  162.3380  201.6120  152.0090 O   0  0  0  0  0  0  0  0  0  0  0  0
  160.6040  201.2340  150.5220 N   0  0  0  0  0  1  0  0  0  0  0  0
  161.4320  202.1040  151.2860 C   0  0  0  0  0  0  0  0  0  0  0  0
  160.8350  206.7940  152.8370 N   0  0  0  0  0  2  0  0  0  0  0  0
  161.2210  206.7620  154.2400 C   0  0  0  0  0  2  0  0  0  0  0  0
  160.0930  207.2980  155.1010 C   0  0  0  0  0  2  0  0  0  0  0  0
  160.6190  207.6740  156.4760 C   0  0  0  0  0  2  0  0  0  0  0  0
  161.4460  208.9450  156.4040 C   0  0  0  0  0  2  0  0  0  0  0  0
  160.6670  210.0400  155.6930 C   0  0  0  0  0  2  0  0  0  0  0  0
  161.5590  210.7680  154.7000 C   0  0  0  0  0  2  0  0  0  0  0  0
  160.0820  210.2110  152.8280 O   0  0  0  0  0  0  0  0  0  0  0  0
  161.3500  210.2520  153.3580 N   0  0  0  0  0  0  0  0  0  0  0  0
  162.3280  209.9530  152.6450 O   0  0  0  0  0  0  0  0  0  0  0  0
  161.9410  206.5630  149.8710 C   0  0  0  0  0  2  0  0  0  0  0  0
  161.8810  209.0150  149.5630 N   0  0  0  0  0  2  0  0  0  0  0  0
  162.5170  208.3750  148.4030 C   0  0  2  0  0  3  0  0  0  0  0  0
  161.4920  207.6680  147.5460 C   0  0  2  0  0  3  0  0  0  0  0  0
  161.3760  207.7290  149.0650 C   0  0  1  0  0  0  0  0  0  0  0  0
  162.0890  206.3720  147.0080 C   0  0  0  0  0  2  0  0  0  0  0  0
  161.2250  205.8290  145.9220 C   0  0  0  0  0  0  0  0  0  0  0  0
  160.1690  206.4400  145.6070 O   0  0  0  0  0  0  0  0  0  0  0  0
  161.6160  204.6100  145.2030 C   0  0  0  0  0  0  0  0  0  0  0  0
  160.7660  203.9720  144.5250 O   0  0  0  0  0  0  0  0  0  0  0  0
  162.9270  204.1520  145.2630 O   0  0  0  0  0  1  0  0  0  0  0  0
  1  6  2  0  0  0  0
  1 10  1  0  0  0  0
  2  3  1  0  0  0  0
  3  4  1  0  0  0  0
  3  5  2  0  0  0  0
  4 20  1  6  0  0  0
  4  1  1  0  0  0  0
  5  9  1  0  0  0  0
  5  6  1  0  0  0  0
  8  9  1  0  0  0  0
  9  7  2  0  0  0  0
 10 11  1  0  0  0  0
 11 12  1  0  0  0  0
 12 13  1  0  0  0  0
 14 13  1  0  0  0  0
 15 14  1  0  0  0  0
 16 15  1  0  0  0  0
 17 18  2  0  0  0  0
 18 16  1  0  0  0  0
 19 18  2  0  0  0  0
 22 24  1  0  0  0  0
 22 21  1  6  0  0  0
 23 25  1  1  0  0  0
 23 22  1  0  0  0  0
 23 24  1  0  0  0  0
 24 21  1  0  0  0  0
 24 20  1  1  0  0  0
 26 25  1  0  0  0  0
 27 26  2  0  0  0  0
 28 30  1  0  0  0  0
 28 26  1  0  0  0  0
 29 28  2  0  0  0  0
M  END
>  <MODEL>
7

>  <REMARK>
 VINA RESULT:      -6.2      2.193      6.512
  Name = 
  14 active torsions:
  status: ('A' for Active; 'I' for Inactive)
    1  A    between atoms: C_2  and  N_8
    2  A    between atoms: C_2  and  C_10
    3  A    between atoms: C_4  and  N_8
    4  A    between atoms: C_5  and  C_22
    5  A    between atoms: C_10  and  C_12
    6  A    between atoms: C_11  and  C_15
    7  A    between atoms: C_11  and  C_22
    8  A    between atoms: C_12  and  C_28
    9  A    between atoms: N_13  and  C_18
   10  A    between atoms: C_18  and  C_25
   11  A    between atoms: C_21  and  C_24
   12  A    between atoms: C_23  and  C_24
   13  A    between atoms: C_25  and  C_28
   14  A    between atoms: C_27  and  C_29
                            x       y       z     vdW  Elec       q    Type
                         _______ _______ _______ _____ _____    ______ ____

>  <TORSDO>
F 14

$$$$
=
 OpenBabel11052410553D

 30 32  0  0  1  0  0  0  0  0999 V2000
  161.7530  208.3830  149.2880 C   0  0  0  0  0  0  0  0  0  0  0  0
  160.4840  205.0710  150.4940 C   0  0  0  0  0  1  0  0  0  0  0  0
  161.0460  206.4350  150.2670 C   0  0  1  0  0  3  0  0  0  0  0  0
  161.2000  207.0460  148.9140 C   0  0  2  0  0  3  0  0  0  0  0  0
  161.4530  207.2770  151.2160 C   0  0  0  0  0  0  0  0  0  0  0  0
  161.8980  208.5200  150.6000 C   0  0  0  0  0  3  0  0  0  0  0  0
  162.0720  206.0750  153.1780 O   0  0  0  0  0  0  0  0  0  0  0  0
  160.7310  207.9290  153.5300 N   0  0  0  0  0  1  0  0  0  0  0  0
  161.4480  207.0460  152.6740 C   0  0  0  0  0  0  0  0  0  0  0  0
  162.0400  209.4110  148.3370 N   0  0  0  0  0  0  0  0  0  0  0  0
  162.2350  210.8020  148.7210 C   0  0  0  0  0  2  0  0  0  0  0  0
  161.3420  211.7010  147.8870 C   0  0  0  0  0  2  0  0  0  0  0  0
  161.1080  213.0170  148.6080 C   0  0  0  0  0  2  0  0  0  0  0  0
  160.6350  212.7730  150.0300 C   0  0  0  0  0  2  0  0  0  0  0  0
  159.7050  213.8900  150.4740 C   0  0  0  0  0  2  0  0  0  0  0  0
  158.4300  213.3160  151.0700 C   0  0  0  0  0  2  0  0  0  0  0  0
  157.3180  214.2770  153.0280 O   0  0  0  0  0  0  0  0  0  0  0  0
  158.3750  213.5760  152.4990 N   0  0  0  0  0  0  0  0  0  0  0  0
  159.2250  213.0710  153.2580 O   0  0  0  0  0  0  0  0  0  0  0  0
  162.2140  206.2510  148.0990 C   0  0  0  0  0  2  0  0  0  0  0  0
  162.2950  206.1920  145.6300 N   0  0  0  0  0  2  0  0  0  0  0  0
  162.5910  204.8600  146.1770 C   0  0  2  0  0  3  0  0  0  0  0  0
  161.3390  204.2100  146.7230 C   0  0  2  0  0  3  0  0  0  0  0  0
  161.5810  205.7120  146.8200 C   0  0  1  0  0  0  0  0  0  0  0  0
  161.6840  203.4300  147.9870 C   0  0  0  0  0  2  0  0  0  0  0  0
  160.9870  202.1130  147.9750 C   0  0  0  0  0  0  0  0  0  0  0  0
  160.8800  201.4790  146.8920 O   0  0  0  0  0  0  0  0  0  0  0  0
  160.4560  201.5430  149.2200 C   0  0  0  0  0  0  0  0  0  0  0  0
  159.2130  201.4100  149.3780 O   0  0  0  0  0  0  0  0  0  0  0  0
  161.3210  201.1450  150.2320 O   0  0  0  0  0  1  0  0  0  0  0  0
  1  6  1  0  0  0  0
  3  2  1  1  0  0  0
  3  5  1  0  0  0  0
  4 20  1  6  0  0  0
  4  1  1  0  0  0  0
  4  3  1  0  0  0  0
  5  9  1  0  0  0  0
  6  5  2  0  0  0  0
  9  7  2  0  0  0  0
  9  8  1  0  0  0  0
 10 11  1  0  0  0  0
 10  1  2  0  0  0  0
 12 13  1  0  0  0  0
 12 11  1  0  0  0  0
 13 14  1  0  0  0  0
 14 15  1  0  0  0  0
 15 16  1  0  0  0  0
 16 18  1  0  0  0  0
 18 17  2  0  0  0  0
 18 19  2  0  0  0  0
 21 24  1  0  0  0  0
 22 21  1  6  0  0  0
 22 23  1  0  0  0  0
 22 24  1  0  0  0  0
 23 24  1  0  0  0  0
 23 25  1  1  0  0  0
 24 20  1  1  0  0  0
 26 25  1  0  0  0  0
 26 28  1  0  0  0  0
 27 26  2  0  0  0  0
 28 29  2  0  0  0  0
 28 30  1  0  0  0  0
M  END
>  <MODEL>
8

>  <REMARK>
 VINA RESULT:      -6.2      3.559      7.729
  Name = 
  14 active torsions:
  status: ('A' for Active; 'I' for Inactive)
    1  A    between atoms: C_2  and  N_8
    2  A    between atoms: C_2  and  C_10
    3  A    between atoms: C_4  and  N_8
    4  A    between atoms: C_5  and  C_22
    5  A    between atoms: C_10  and  C_12
    6  A    between atoms: C_11  and  C_15
    7  A    between atoms: C_11  and  C_22
    8  A    between atoms: C_12  and  C_28
    9  A    between atoms: N_13  and  C_18
   10  A    between atoms: C_18  and  C_25
   11  A    between atoms: C_21  and  C_24
   12  A    between atoms: C_23  and  C_24
   13  A    between atoms: C_25  and  C_28
   14  A    between atoms: C_27  and  C_29
                            x       y       z     vdW  Elec       q    Type
                         _______ _______ _______ _____ _____    ______ ____

>  <TORSDO>
F 14

$$$$
=
 OpenBabel11052410553D

 30 32  0  0  1  0  0  0  0  0999 V2000
  161.3360  207.3370  152.2340 C   0  0  0  0  0  0  0  0  0  0  0  0
  162.7100  207.5830  148.7570 C   0  0  0  0  0  1  0  0  0  0  0  0
  162.1090  207.7410  150.1140 C   0  0  0  0  0  0  0  0  0  0  0  0
  161.9150  206.6070  151.0650 C   0  0  2  0  0  3  0  0  0  0  0  0
  161.7000  208.8890  150.6560 C   0  0  0  0  0  0  0  0  0  0  0  0
  161.2120  208.6380  152.0050 C   0  0  0  0  0  3  0  0  0  0  0  0
  161.5730  211.2670  150.7300 O   0  0  0  0  0  0  0  0  0  0  0  0
  161.9610  210.3570  148.6380 N   0  0  0  0  0  1  0  0  0  0  0  0
  161.7370  210.2290  150.0370 C   0  0  0  0  0  0  0  0  0  0  0  0
  161.0060  206.7040  153.4720 N   0  0  0  0  0  2  0  0  0  0  0  0
  161.2430  207.3350  154.7630 C   0  0  0  0  0  2  0  0  0  0  0  0
  159.9870  207.2740  155.6100 C   0  0  0  0  0  2  0  0  0  0  0  0
  159.7710  208.5980  156.3220 C   0  0  0  0  0  2  0  0  0  0  0  0
  160.3950  209.7370  155.5350 C   0  0  0  0  0  2  0  0  0  0  0  0
  159.3440  210.7850  155.2050 C   0  0  0  0  0  2  0  0  0  0  0  0
  159.7510  211.5760  153.9720 C   0  0  0  0  0  2  0  0  0  0  0  0
  157.4790  212.4890  153.9280 O   0  0  0  0  0  0  0  0  0  0  0  0
  158.5740  212.0190  153.2430 N   0  0  0  0  0  0  0  0  0  0  0  0
  158.5980  212.0800  151.9990 O   0  0  0  0  0  0  0  0  0  0  0  0
  160.9060  205.6190  150.4920 C   0  0  0  0  0  2  0  0  0  0  0  0
  160.9900  203.2720  151.2630 N   0  0  0  0  0  2  0  0  0  0  0  0
  160.4600  203.3360  149.8940 C   0  0  2  0  0  3  0  0  0  0  0  0
  161.5580  203.6500  148.9030 C   0  0  2  0  0  3  0  0  0  0  0  0
  161.5390  204.2430  150.3080 C   0  0  1  0  0  0  0  0  0  0  0  0
  161.0120  204.5720  147.8180 C   0  0  0  0  0  2  0  0  0  0  0  0
  161.8260  204.4330  146.5780 C   0  0  0  0  0  0  0  0  0  0  0  0
  163.0590  204.6910  146.6140 O   0  0  0  0  0  0  0  0  0  0  0  0
  161.2050  203.9670  145.3310 C   0  0  0  0  0  0  0  0  0  0  0  0
  160.8270  202.7710  145.2180 O   0  0  0  0  0  1  0  0  0  0  0  0
  161.0300  204.8440  144.2670 O   0  0  0  0  0  0  0  0  0  0  0  0
  1 10  1  0  0  0  0
  2  3  1  0  0  0  0
  3  5  2  0  0  0  0
  3  4  1  0  0  0  0
  4 20  1  6  0  0  0
  4  1  1  0  0  0  0
  5  6  1  0  0  0  0
  6  1  2  0  0  0  0
  8  9  1  0  0  0  0
  9  5  1  0  0  0  0
  9  7  2  0  0  0  0
 10 11  1  0  0  0  0
 11 12  1  0  0  0  0
 12 13  1  0  0  0  0
 14 13  1  0  0  0  0
 15 14  1  0  0  0  0
 16 15  1  0  0  0  0
 18 17  2  0  0  0  0
 18 16  1  0  0  0  0
 19 18  2  0  0  0  0
 22 24  1  0  0  0  0
 22 21  1  1  0  0  0
 23 25  1  6  0  0  0
 23 22  1  0  0  0  0
 23 24  1  0  0  0  0
 24 20  1  1  0  0  0
 24 21  1  0  0  0  0
 26 27  2  0  0  0  0
 26 25  1  0  0  0  0
 28 26  1  0  0  0  0
 29 28  1  0  0  0  0
 30 28  2  0  0  0  0
M  END
>  <MODEL>
9

>  <REMARK>
 VINA RESULT:      -6.0      2.673      7.010
  Name = 
  14 active torsions:
  status: ('A' for Active; 'I' for Inactive)
    1  A    between atoms: C_2  and  N_8
    2  A    between atoms: C_2  and  C_10
    3  A    between atoms: C_4  and  N_8
    4  A    between atoms: C_5  and  C_22
    5  A    between atoms: C_10  and  C_12
    6  A    between atoms: C_11  and  C_15
    7  A    between atoms: C_11  and  C_22
    8  A    between atoms: C_12  and  C_28
    9  A    between atoms: N_13  and  C_18
   10  A    between atoms: C_18  and  C_25
   11  A    between atoms: C_21  and  C_24
   12  A    between atoms: C_23  and  C_24
   13  A    between atoms: C_25  and  C_28
   14  A    between atoms: C_27  and  C_29
                            x       y       z     vdW  Elec       q    Type
                         _______ _______ _______ _____ _____    ______ ____

>  <TORSDO>
F 14

$$$$
