=
 OpenBabel11052411053D

 34 39  0  0  0  0  0  0  0  0999 V2000
  161.6910  206.4140  150.1450 C   0  0  0  0  0  0  0  0  0  0  0  0
  161.3990  203.5300  147.8430 C   0  0  0  0  0  3  0  0  0  0  0  0
  161.0080  203.6930  150.1030 N   0  0  0  0  0  0  0  0  0  0  0  0
  161.9030  208.3120  151.5910 C   0  0  0  0  0  0  0  0  0  0  0  0
  161.9080  207.7550  150.3270 N   0  0  0  0  0  0  0  0  0  0  0  0
  161.4260  206.1530  152.5150 C   0  0  0  0  0  0  0  0  0  0  0  0
  161.0180  205.1080  153.4040 N   0  0  0  0  0  0  0  0  0  0  0  0
  161.6380  207.5130  152.7390 C   0  0  0  0  0  3  0  0  0  0  0  0
  161.1040  204.3870  151.2620 C   0  0  0  0  0  0  0  0  0  0  0  0
  161.4720  205.6660  151.2650 C   0  0  0  0  0  0  0  0  0  0  0  0
  160.8120  203.9620  152.5940 N   0  0  0  0  0  0  0  0  0  0  0  0
  161.9960  203.9120  146.5310 C   0  0  0  0  0  2  0  0  0  0  0  0
  161.2510  205.0030  145.8480 C   0  0  0  0  0  0  0  0  0  0  0  0
  161.1350  206.2000  146.4190 C   0  0  0  0  0  3  0  0  0  0  0  0
  161.2880  204.3270  148.9100 C   0  0  0  0  0  0  0  0  0  0  0  0
  161.4950  206.5500  147.8040 C   0  0  0  0  0  3  0  0  0  0  0  0
  161.5550  205.7590  148.8940 C   0  0  0  0  0  0  0  0  0  0  0  0
  160.8030  204.8040  144.4980 N   0  0  0  0  0  0  0  0  0  0  0  0
  161.3040  205.5870  143.4830 O   0  0  0  0  0  0  0  0  0  0  0  0
  159.9700  203.9140  144.2250 O   0  0  0  0  0  0  0  0  0  0  0  0
  162.1750  209.7670  151.7580 C   0  0  0  0  0  2  0  0  0  0  0  0
  160.9990  210.8970  155.1180 C   0  0  0  0  0  3  0  0  0  0  0  0
  160.0050  210.7480  152.5240 C   0  0  0  0  0  3  0  0  0  0  0  0
  157.5830  212.2460  155.6150 C   0  0  0  0  0  0  0  0  0  0  0  0
  158.8910  211.8220  155.8870 C   0  0  0  0  0  3  0  0  0  0  0  0
  159.6970  211.3260  154.8590 C   0  0  0  0  0  0  0  0  0  0  0  0
  157.8910  211.6700  153.2710 C   0  0  0  0  0  3  0  0  0  0  0  0
  159.1950  211.2490  153.5440 C   0  0  0  0  0  0  0  0  0  0  0  0
  157.0890  212.1660  154.3030 C   0  0  0  0  0  3  0  0  0  0  0  0
  161.3060  210.3360  152.8280 C   0  0  0  0  0  0  0  0  0  0  0  0
  161.7680  210.4120  154.1060 N   0  0  0  0  0  0  0  0  0  0  0  0
  156.7370  212.7660  156.7010 C   0  0  0  0  0  0  0  0  0  0  0  0
  156.9200  213.9280  157.1540 O   0  0  0  0  0  0  0  0  0  0  0  0
  155.7250  211.9770  157.2390 O   0  0  0  0  0  1  0  0  0  0  0  0
  1  5  2  0  0  0  0
  1 10  1  0  0  0  0
  2 15  2  0  0  0  0
  3  9  2  0  0  0  0
  4 21  1  0  0  0  0
  4  8  2  0  0  0  0
  5  4  1  0  0  0  0
  6  8  1  0  0  0  0
  6  7  1  0  0  0  0
  9 10  1  0  0  0  0
  9 11  1  0  0  0  0
 10  6  2  0  0  0  0
 11  7  2  0  0  0  0
 12  2  1  0  0  0  0
 13 14  2  0  0  0  0
 13 12  1  0  0  0  0
 14 16  1  0  0  0  0
 15  3  1  0  0  0  0
 16 17  2  0  0  0  0
 17 15  1  0  0  0  0
 17  1  1  0  0  0  0
 18 13  1  0  0  0  0
 19 18  2  0  0  0  0
 20 18  2  0  0  0  0
 21 30  1  0  0  0  0
 23 30  2  0  0  0  0
 23 28  1  0  0  0  0
 24 25  1  0  0  0  0
 24 32  1  0  0  0  0
 26 22  1  0  0  0  0
 26 25  2  0  0  0  0
 27 28  2  0  0  0  0
 27 29  1  0  0  0  0
 28 26  1  0  0  0  0
 29 24  2  0  0  0  0
 30 31  1  0  0  0  0
 31 22  2  0  0  0  0
 32 33  2  0  0  0  0
 32 34  1  0  0  0  0
M  END
>  <MODEL>
1

>  <REMARK>
 VINA RESULT:     -10.1      0.000      0.000
  Name = 
  4 active torsions:
  status: ('A' for Active; 'I' for Inactive)
    1  A    between atoms: N_3  and  C_25
    2  A    between atoms: C_7  and  C_11
    3  A    between atoms: C_8  and  C_18
    4  A    between atoms: C_18  and  C_30
                            x       y       z     vdW  Elec       q    Type
                         _______ _______ _______ _____ _____    ______ ____

>  <TORSDO>
F 4

$$$$
=
 OpenBabel11052411053D

 34 39  0  0  0  0  0  0  0  0999 V2000
  160.7350  209.1670  152.8630 C   0  0  0  0  0  0  0  0  0  0  0  0
  160.4250  212.5750  151.4500 C   0  0  0  0  0  3  0  0  0  0  0  0
  160.2290  211.8220  153.6150 N   0  0  0  0  0  0  0  0  0  0  0  0
  160.9410  206.9410  153.7220 C   0  0  0  0  0  0  0  0  0  0  0  0
  161.0460  207.8440  152.6820 N   0  0  0  0  0  0  0  0  0  0  0  0
  160.2270  208.7170  155.1640 C   0  0  0  0  0  0  0  0  0  0  0  0
  159.9180  209.4900  156.3280 N   0  0  0  0  0  0  0  0  0  0  0  0
  160.5380  207.3650  155.0200 C   0  0  0  0  0  3  0  0  0  0  0  0
  160.1200  210.7980  154.4950 C   0  0  0  0  0  0  0  0  0  0  0  0
  160.3210  209.5400  154.1080 C   0  0  0  0  0  0  0  0  0  0  0  0
  159.8440  210.8380  155.8950 N   0  0  0  0  0  0  0  0  0  0  0  0
  160.4110  212.4690  149.9630 C   0  0  0  0  0  2  0  0  0  0  0  0
  161.6890  211.9560  149.4040 C   0  0  0  0  0  0  0  0  0  0  0  0
  162.1280  210.7420  149.7290 C   0  0  0  0  0  3  0  0  0  0  0  0
  160.5630  211.5550  152.3030 C   0  0  0  0  0  0  0  0  0  0  0  0
  161.5870  209.8670  150.7840 C   0  0  0  0  0  3  0  0  0  0  0  0
  160.9200  210.1990  151.9070 C   0  0  0  0  0  0  0  0  0  0  0  0
  162.3590  212.7130  148.3840 N   0  0  0  0  0  0  0  0  0  0  0  0
  161.8030  213.8800  147.9130 O   0  0  0  0  0  0  0  0  0  0  0  0
  163.4570  212.3340  147.9240 O   0  0  0  0  0  0  0  0  0  0  0  0
  161.2540  205.5030  153.4850 C   0  0  0  0  0  2  0  0  0  0  0  0
  161.5540  206.0270  149.7990 C   0  0  0  0  0  3  0  0  0  0  0  0
  161.0800  203.9220  151.5550 C   0  0  0  0  0  3  0  0  0  0  0  0
  161.1380  203.2230  147.4110 C   0  0  0  0  0  0  0  0  0  0  0  0
  161.3580  204.5140  147.9120 C   0  0  0  0  0  3  0  0  0  0  0  0
  161.3410  204.7460  149.2890 C   0  0  0  0  0  0  0  0  0  0  0  0
  160.8790  202.3940  149.6840 C   0  0  0  0  0  3  0  0  0  0  0  0
  161.1000  203.6800  150.1810 C   0  0  0  0  0  0  0  0  0  0  0  0
  160.8990  202.1670  148.3040 C   0  0  0  0  0  3  0  0  0  0  0  0
  161.3050  205.2200  152.0220 C   0  0  0  0  0  0  0  0  0  0  0  0
  161.5280  206.2350  151.1430 N   0  0  0  0  0  0  0  0  0  0  0  0
  161.1560  202.9830  145.9590 C   0  0  0  0  0  0  0  0  0  0  0  0
  161.7550  203.7790  145.1870 O   0  0  0  0  0  0  0  0  0  0  0  0
  160.5090  201.8750  145.4250 O   0  0  0  0  0  1  0  0  0  0  0  0
  1 10  1  0  0  0  0
  2 15  2  0  0  0  0
  3  9  2  0  0  0  0
  4  8  2  0  0  0  0
  5  1  2  0  0  0  0
  5  4  1  0  0  0  0
  6  7  1  0  0  0  0
  8  6  1  0  0  0  0
  9 11  1  0  0  0  0
 10  9  1  0  0  0  0
 10  6  2  0  0  0  0
 11  7  2  0  0  0  0
 12  2  1  0  0  0  0
 13 14  2  0  0  0  0
 13 12  1  0  0  0  0
 14 16  1  0  0  0  0
 15  3  1  0  0  0  0
 16 17  2  0  0  0  0
 17 15  1  0  0  0  0
 17  1  1  0  0  0  0
 18 13  1  0  0  0  0
 19 18  2  0  0  0  0
 20 18  2  0  0  0  0
 21  4  1  0  0  0  0
 22 31  1  0  0  0  0
 23 30  1  0  0  0  0
 24 25  2  0  0  0  0
 24 29  1  0  0  0  0
 25 26  1  0  0  0  0
 26 22  2  0  0  0  0
 26 28  1  0  0  0  0
 27 28  1  0  0  0  0
 28 23  2  0  0  0  0
 29 27  2  0  0  0  0
 30 21  1  0  0  0  0
 31 30  2  0  0  0  0
 32 24  1  0  0  0  0
 33 32  2  0  0  0  0
 34 32  1  0  0  0  0
M  END
>  <MODEL>
2

>  <REMARK>
 VINA RESULT:      -9.3      3.465      8.717
  Name = 
  4 active torsions:
  status: ('A' for Active; 'I' for Inactive)
    1  A    between atoms: N_3  and  C_25
    2  A    between atoms: C_7  and  C_11
    3  A    between atoms: C_8  and  C_18
    4  A    between atoms: C_18  and  C_30
                            x       y       z     vdW  Elec       q    Type
                         _______ _______ _______ _____ _____    ______ ____

>  <TORSDO>
F 4

$$$$
=
 OpenBabel11052411053D

 34 39  0  0  0  0  0  0  0  0999 V2000
  160.8010  209.2400  152.7540 C   0  0  0  0  0  0  0  0  0  0  0  0
  160.3830  212.6320  151.3320 C   0  0  0  0  0  3  0  0  0  0  0  0
  160.1600  211.8700  153.4900 N   0  0  0  0  0  0  0  0  0  0  0  0
  161.0780  207.0240  153.6200 C   0  0  0  0  0  0  0  0  0  0  0  0
  161.1740  207.9320  152.5830 N   0  0  0  0  0  0  0  0  0  0  0  0
  160.2470  208.7660  155.0400 C   0  0  0  0  0  0  0  0  0  0  0  0
  159.8720  209.5240  156.1950 N   0  0  0  0  0  0  0  0  0  0  0  0
  160.6210  207.4300  154.9050 C   0  0  0  0  0  3  0  0  0  0  0  0
  160.0690  210.8420  154.3670 C   0  0  0  0  0  0  0  0  0  0  0  0
  160.3360  209.5930  153.9870 C   0  0  0  0  0  0  0  0  0  0  0  0
  159.7530  210.8680  155.7590 N   0  0  0  0  0  0  0  0  0  0  0  0
  160.4160  212.5270  149.8450 C   0  0  0  0  0  2  0  0  0  0  0  0
  161.7300  212.0700  149.3220 C   0  0  0  0  0  0  0  0  0  0  0  0
  162.2120  210.8760  149.6600 C   0  0  0  0  0  3  0  0  0  0  0  0
  160.5410  211.6180  152.1890 C   0  0  0  0  0  0  0  0  0  0  0  0
  161.6800  209.9770  150.7000 C   0  0  0  0  0  3  0  0  0  0  0  0
  160.9680  210.2790  151.8030 C   0  0  0  0  0  0  0  0  0  0  0  0
  162.3960  212.8550  148.3220 N   0  0  0  0  0  0  0  0  0  0  0  0
  162.0350  214.1690  148.1230 O   0  0  0  0  0  0  0  0  0  0  0  0
  163.3160  212.3670  147.6320 O   0  0  0  0  0  0  0  0  0  0  0  0
  161.4600  205.6020  153.3930 C   0  0  0  0  0  2  0  0  0  0  0  0
  160.8910  203.6320  150.2700 C   0  0  0  0  0  3  0  0  0  0  0  0
  161.6270  206.2210  150.9750 C   0  0  0  0  0  3  0  0  0  0  0  0
  161.3580  205.1490  146.9200 C   0  0  0  0  0  0  0  0  0  0  0  0
  161.0760  204.2060  147.9190 C   0  0  0  0  0  3  0  0  0  0  0  0
  161.1640  204.5630  149.2670 C   0  0  0  0  0  0  0  0  0  0  0  0
  161.8190  206.8150  148.6320 C   0  0  0  0  0  3  0  0  0  0  0  0
  161.5370  205.8740  149.6260 C   0  0  0  0  0  0  0  0  0  0  0  0
  161.7290  206.4530  147.2850 C   0  0  0  0  0  3  0  0  0  0  0  0
  161.3380  205.2590  151.9470 C   0  0  0  0  0  0  0  0  0  0  0  0
  160.9870  203.9960  151.5770 N   0  0  0  0  0  0  0  0  0  0  0  0
  161.2660  204.7680  145.5020 C   0  0  0  0  0  0  0  0  0  0  0  0
  161.3450  205.6430  144.5980 O   0  0  0  0  0  0  0  0  0  0  0  0
  161.0890  203.4350  145.1450 O   0  0  0  0  0  1  0  0  0  0  0  0
  1 10  1  0  0  0  0
  2 15  2  0  0  0  0
  3  9  2  0  0  0  0
  4  8  2  0  0  0  0
  5  1  2  0  0  0  0
  5  4  1  0  0  0  0
  6  7  1  0  0  0  0
  8  6  1  0  0  0  0
  9 11  1  0  0  0  0
 10  9  1  0  0  0  0
 10  6  2  0  0  0  0
 11  7  2  0  0  0  0
 12  2  1  0  0  0  0
 13 14  2  0  0  0  0
 13 12  1  0  0  0  0
 14 16  1  0  0  0  0
 15  3  1  0  0  0  0
 16 17  2  0  0  0  0
 17 15  1  0  0  0  0
 17  1  1  0  0  0  0
 18 13  1  0  0  0  0
 19 18  2  0  0  0  0
 20 18  2  0  0  0  0
 21  4  1  0  0  0  0
 22 31  1  0  0  0  0
 23 30  1  0  0  0  0
 24 29  1  0  0  0  0
 24 25  2  0  0  0  0
 25 26  1  0  0  0  0
 26 28  1  0  0  0  0
 26 22  2  0  0  0  0
 27 28  1  0  0  0  0
 28 23  2  0  0  0  0
 29 27  2  0  0  0  0
 30 21  1  0  0  0  0
 31 30  2  0  0  0  0
 32 24  1  0  0  0  0
 33 32  2  0  0  0  0
 34 32  1  0  0  0  0
M  END
>  <MODEL>
3

>  <REMARK>
 VINA RESULT:      -9.3      3.348      8.431
  Name = 
  4 active torsions:
  status: ('A' for Active; 'I' for Inactive)
    1  A    between atoms: N_3  and  C_25
    2  A    between atoms: C_7  and  C_11
    3  A    between atoms: C_8  and  C_18
    4  A    between atoms: C_18  and  C_30
                            x       y       z     vdW  Elec       q    Type
                         _______ _______ _______ _____ _____    ______ ____

>  <TORSDO>
F 4

$$$$
=
 OpenBabel11052411053D

 34 39  0  0  0  0  0  0  0  0999 V2000
  160.8310  208.9780  153.2320 C   0  0  0  0  0  0  0  0  0  0  0  0
  159.9980  212.4880  154.0650 C   0  0  0  0  0  3  0  0  0  0  0  0
  160.8360  211.5610  152.1350 N   0  0  0  0  0  0  0  0  0  0  0  0
  161.3590  206.6930  152.7490 C   0  0  0  0  0  0  0  0  0  0  0  0
  160.8150  207.6530  153.5800 N   0  0  0  0  0  0  0  0  0  0  0  0
  161.9230  208.4080  151.1730 C   0  0  0  0  0  0  0  0  0  0  0  0
  162.2840  209.0890  149.9670 N   0  0  0  0  0  0  0  0  0  0  0  0
  161.9210  207.0500  151.4910 C   0  0  0  0  0  3  0  0  0  0  0  0
  161.3780  210.5060  151.4790 C   0  0  0  0  0  0  0  0  0  0  0  0
  161.4050  209.2960  152.0360 C   0  0  0  0  0  0  0  0  0  0  0  0
  161.9350  210.4490  150.1660 N   0  0  0  0  0  0  0  0  0  0  0  0
  159.7120  212.5710  155.5250 C   0  0  0  0  0  2  0  0  0  0  0  0
  158.5040  211.8020  155.9260 C   0  0  0  0  0  0  0  0  0  0  0  0
  158.4510  210.4850  155.7430 C   0  0  0  0  0  3  0  0  0  0  0  0
  160.2990  211.3730  153.3910 C   0  0  0  0  0  0  0  0  0  0  0  0
  159.4040  209.6680  154.9700 C   0  0  0  0  0  3  0  0  0  0  0  0
  160.2000  210.0300  153.9460 C   0  0  0  0  0  0  0  0  0  0  0  0
  157.4660  212.4670  156.6620 N   0  0  0  0  0  0  0  0  0  0  0  0
  157.4280  213.8410  156.7140 O   0  0  0  0  0  0  0  0  0  0  0  0
  156.5780  211.8130  157.2490 O   0  0  0  0  0  0  0  0  0  0  0  0
  161.3550  205.2640  153.1700 C   0  0  0  0  0  2  0  0  0  0  0  0
  160.8370  202.1940  151.1060 C   0  0  0  0  0  3  0  0  0  0  0  0
  161.3250  204.9020  150.6950 C   0  0  0  0  0  3  0  0  0  0  0  0
  160.9580  202.3150  147.4040 C   0  0  0  0  0  0  0  0  0  0  0  0
  160.8340  201.8170  148.7090 C   0  0  0  0  0  3  0  0  0  0  0  0
  160.9540  202.6780  149.8020 C   0  0  0  0  0  0  0  0  0  0  0  0
  161.3270  204.5480  148.2970 C   0  0  0  0  0  3  0  0  0  0  0  0
  161.2020  204.0510  149.5970 C   0  0  0  0  0  0  0  0  0  0  0  0
  161.2050  203.6830  147.2060 C   0  0  0  0  0  3  0  0  0  0  0  0
  161.1940  204.3750  151.9840 C   0  0  0  0  0  0  0  0  0  0  0  0
  160.9620  203.0450  152.1600 N   0  0  0  0  0  0  0  0  0  0  0  0
  160.8320  201.4050  146.2540 C   0  0  0  0  0  0  0  0  0  0  0  0
  160.4040  201.8280  145.1470 O   0  0  0  0  0  0  0  0  0  0  0  0
  161.1840  200.0650  146.3800 O   0  0  0  0  0  1  0  0  0  0  0  0
  1  5  1  0  0  0  0
  1 17  1  0  0  0  0
  2 12  1  0  0  0  0
  3 15  1  0  0  0  0
  4 21  1  0  0  0  0
  4  5  2  0  0  0  0
  6  8  2  0  0  0  0
  6 10  1  0  0  0  0
  7 11  2  0  0  0  0
  7  6  1  0  0  0  0
  8  4  1  0  0  0  0
  9 10  1  0  0  0  0
  9  3  2  0  0  0  0
 10  1  2  0  0  0  0
 11  9  1  0  0  0  0
 12 13  1  0  0  0  0
 13 18  1  0  0  0  0
 14 13  2  0  0  0  0
 15 17  1  0  0  0  0
 15  2  2  0  0  0  0
 16 14  1  0  0  0  0
 17 16  2  0  0  0  0
 18 19  2  0  0  0  0
 18 20  2  0  0  0  0
 22 31  1  0  0  0  0
 23 30  1  0  0  0  0
 24 25  2  0  0  0  0
 25 26  1  0  0  0  0
 26 22  2  0  0  0  0
 27 28  1  0  0  0  0
 28 26  1  0  0  0  0
 28 23  2  0  0  0  0
 29 24  1  0  0  0  0
 29 27  2  0  0  0  0
 30 31  2  0  0  0  0
 30 21  1  0  0  0  0
 32 34  1  0  0  0  0
 32 24  1  0  0  0  0
 33 32  2  0  0  0  0
M  END
>  <MODEL>
4

>  <REMARK>
 VINA RESULT:      -9.1      2.056     10.172
  Name = 
  4 active torsions:
  status: ('A' for Active; 'I' for Inactive)
    1  A    between atoms: N_3  and  C_25
    2  A    between atoms: C_7  and  C_11
    3  A    between atoms: C_8  and  C_18
    4  A    between atoms: C_18  and  C_30
                            x       y       z     vdW  Elec       q    Type
                         _______ _______ _______ _____ _____    ______ ____

>  <TORSDO>
F 4

$$$$
=
 OpenBabel11052411053D

 34 39  0  0  0  0  0  0  0  0999 V2000
  160.1870  210.5700  152.6690 C   0  0  0  0  0  0  0  0  0  0  0  0
  158.5960  213.9110  152.5460 C   0  0  0  0  0  3  0  0  0  0  0  0
  160.0010  212.8610  151.0590 N   0  0  0  0  0  0  0  0  0  0  0  0
  161.1940  208.4010  152.8020 C   0  0  0  0  0  0  0  0  0  0  0  0
  160.3180  209.3540  153.2860 N   0  0  0  0  0  0  0  0  0  0  0  0
  161.8030  209.8950  151.0290 C   0  0  0  0  0  0  0  0  0  0  0  0
  162.3090  210.4150  149.7960 N   0  0  0  0  0  0  0  0  0  0  0  0
  161.9600  208.6450  151.6280 C   0  0  0  0  0  3  0  0  0  0  0  0
  160.8520  211.8480  150.7640 C   0  0  0  0  0  0  0  0  0  0  0  0
  160.9570  210.7890  151.5640 C   0  0  0  0  0  0  0  0  0  0  0  0
  161.6960  211.6820  149.6250 N   0  0  0  0  0  0  0  0  0  0  0  0
  157.9730  214.1850  153.8720 C   0  0  0  0  0  2  0  0  0  0  0  0
  156.8540  213.2590  154.1920 C   0  0  0  0  0  0  0  0  0  0  0  0
  157.0710  211.9490  154.2930 C   0  0  0  0  0  3  0  0  0  0  0  0
  159.2300  212.7860  152.2000 C   0  0  0  0  0  0  0  0  0  0  0  0
  158.3010  211.2320  153.9120 C   0  0  0  0  0  3  0  0  0  0  0  0
  159.2380  211.5700  153.0040 C   0  0  0  0  0  0  0  0  0  0  0  0
  155.5770  213.8040  154.5550 N   0  0  0  0  0  0  0  0  0  0  0  0
  155.2380  213.9440  155.8810 O   0  0  0  0  0  0  0  0  0  0  0  0
  154.7670  214.1730  153.6780 O   0  0  0  0  0  0  0  0  0  0  0  0
  161.3390  207.1010  153.5150 C   0  0  0  0  0  2  0  0  0  0  0  0
  161.0030  203.6300  152.1770 C   0  0  0  0  0  3  0  0  0  0  0  0
  161.2880  206.2110  151.1780 C   0  0  0  0  0  3  0  0  0  0  0  0
  161.0460  202.9540  148.5320 C   0  0  0  0  0  0  0  0  0  0  0  0
  160.9820  202.7440  149.9170 C   0  0  0  0  0  3  0  0  0  0  0  0
  161.0610  203.8270  150.7960 C   0  0  0  0  0  0  0  0  0  0  0  0
  161.2710  205.3470  148.9130 C   0  0  0  0  0  3  0  0  0  0  0  0
  161.2060  205.1360  150.2930 C   0  0  0  0  0  0  0  0  0  0  0  0
  161.1910  204.2600  148.0370 C   0  0  0  0  0  3  0  0  0  0  0  0
  161.2190  205.9680  152.5530 C   0  0  0  0  0  0  0  0  0  0  0  0
  161.0860  204.6950  153.0180 N   0  0  0  0  0  0  0  0  0  0  0  0
  160.9650  201.8110  147.6100 C   0  0  0  0  0  0  0  0  0  0  0  0
  160.7040  201.9910  146.3900 O   0  0  0  0  0  0  0  0  0  0  0  0
  161.1730  200.5180  148.0780 O   0  0  0  0  0  1  0  0  0  0  0  0
  1 17  1  0  0  0  0
  1  5  1  0  0  0  0
  2 12  1  0  0  0  0
  3 15  1  0  0  0  0
  4  5  2  0  0  0  0
  4 21  1  0  0  0  0
  6 10  1  0  0  0  0
  6  8  2  0  0  0  0
  7  6  1  0  0  0  0
  8  4  1  0  0  0  0
  9  3  2  0  0  0  0
  9 10  1  0  0  0  0
 10  1  2  0  0  0  0
 11  7  2  0  0  0  0
 11  9  1  0  0  0  0
 12 13  1  0  0  0  0
 13 14  2  0  0  0  0
 13 18  1  0  0  0  0
 15  2  2  0  0  0  0
 15 17  1  0  0  0  0
 16 14  1  0  0  0  0
 17 16  2  0  0  0  0
 18 19  2  0  0  0  0
 20 18  2  0  0  0  0
 22 31  1  0  0  0  0
 23 30  1  0  0  0  0
 24 25  2  0  0  0  0
 25 26  1  0  0  0  0
 26 22  2  0  0  0  0
 27 28  1  0  0  0  0
 28 26  1  0  0  0  0
 28 23  2  0  0  0  0
 29 24  1  0  0  0  0
 29 27  2  0  0  0  0
 30 31  2  0  0  0  0
 30 21  1  0  0  0  0
 32 34  1  0  0  0  0
 32 24  1  0  0  0  0
 33 32  2  0  0  0  0
M  END
>  <MODEL>
5

>  <REMARK>
 VINA RESULT:      -8.9      2.387      9.854
  Name = 
  4 active torsions:
  status: ('A' for Active; 'I' for Inactive)
    1  A    between atoms: N_3  and  C_25
    2  A    between atoms: C_7  and  C_11
    3  A    between atoms: C_8  and  C_18
    4  A    between atoms: C_18  and  C_30
                            x       y       z     vdW  Elec       q    Type
                         _______ _______ _______ _____ _____    ______ ____

>  <TORSDO>
F 4

$$$$
=
 OpenBabel11052411053D

 34 39  0  0  0  0  0  0  0  0999 V2000
  160.6760  208.8520  152.5000 C   0  0  0  0  0  0  0  0  0  0  0  0
  159.0820  210.2370  155.5410 C   0  0  0  0  0  3  0  0  0  0  0  0
  160.3570  208.3470  155.2410 N   0  0  0  0  0  0  0  0  0  0  0  0
  161.6810  207.9990  150.5010 C   0  0  0  0  0  0  0  0  0  0  0  0
  160.9990  208.9930  151.1760 N   0  0  0  0  0  0  0  0  0  0  0  0
  161.7470  206.7060  152.5180 C   0  0  0  0  0  0  0  0  0  0  0  0
  162.1050  205.7330  153.5050 N   0  0  0  0  0  0  0  0  0  0  0  0
  162.0970  206.8150  151.1720 C   0  0  0  0  0  3  0  0  0  0  0  0
  160.9560  207.4550  154.4160 C   0  0  0  0  0  0  0  0  0  0  0  0
  161.0580  207.6940  153.1100 C   0  0  0  0  0  0  0  0  0  0  0  0
  161.5890  206.2160  154.7350 N   0  0  0  0  0  0  0  0  0  0  0  0
  158.1800  211.3520  155.1340 C   0  0  0  0  0  2  0  0  0  0  0  0
  158.9090  212.5060  154.5450 C   0  0  0  0  0  0  0  0  0  0  0  0
  159.6240  212.3550  153.4330 C   0  0  0  0  0  3  0  0  0  0  0  0
  159.8570  209.5210  154.7190 C   0  0  0  0  0  0  0  0  0  0  0  0
  159.9720  211.0800  152.7800 C   0  0  0  0  0  3  0  0  0  0  0  0
  160.0890  209.8510  153.3190 C   0  0  0  0  0  0  0  0  0  0  0  0
  158.7010  213.8170  155.0920 N   0  0  0  0  0  0  0  0  0  0  0  0
  159.7190  214.4530  155.7650 O   0  0  0  0  0  0  0  0  0  0  0  0
  157.6060  214.4010  154.9530 O   0  0  0  0  0  0  0  0  0  0  0  0
  161.9890  208.1670  149.0530 C   0  0  0  0  0  2  0  0  0  0  0  0
  162.1230  205.5980  146.3440 C   0  0  0  0  0  3  0  0  0  0  0  0
  161.3750  205.7420  149.0200 C   0  0  0  0  0  3  0  0  0  0  0  0
  161.0040  202.1140  146.9320 C   0  0  0  0  0  0  0  0  0  0  0  0
  161.5050  203.2520  146.2840 C   0  0  0  0  0  3  0  0  0  0  0  0
  161.6300  204.4570  146.9790 C   0  0  0  0  0  0  0  0  0  0  0  0
  160.7500  203.4000  148.9810 C   0  0  0  0  0  3  0  0  0  0  0  0
  161.2510  204.5330  148.3350 C   0  0  0  0  0  0  0  0  0  0  0  0
  160.6280  202.1960  148.2820 C   0  0  0  0  0  3  0  0  0  0  0  0
  161.8800  206.8580  148.3460 C   0  0  0  0  0  0  0  0  0  0  0  0
  162.2330  206.7650  147.0350 N   0  0  0  0  0  0  0  0  0  0  0  0
  160.8720  200.8460  146.1960 C   0  0  0  0  0  0  0  0  0  0  0  0
  160.2000  200.7920  145.1310 O   0  0  0  0  0  0  0  0  0  0  0  0
  161.4890  199.6940  146.6700 O   0  0  0  0  0  1  0  0  0  0  0  0
  1 10  1  0  0  0  0
  1 17  1  0  0  0  0
  4  8  2  0  0  0  0
  4  5  1  0  0  0  0
  5  1  2  0  0  0  0
  6 10  2  0  0  0  0
  6  7  1  0  0  0  0
  7 11  2  0  0  0  0
  8  6  1  0  0  0  0
  9 11  1  0  0  0  0
  9  3  2  0  0  0  0
 10  9  1  0  0  0  0
 12  2  1  0  0  0  0
 13 18  1  0  0  0  0
 13 12  1  0  0  0  0
 14 13  2  0  0  0  0
 15  3  1  0  0  0  0
 15  2  2  0  0  0  0
 16 17  2  0  0  0  0
 16 14  1  0  0  0  0
 17 15  1  0  0  0  0
 18 19  2  0  0  0  0
 20 18  2  0  0  0  0
 21  4  1  0  0  0  0
 22 26  2  0  0  0  0
 22 31  1  0  0  0  0
 24 29  1  0  0  0  0
 25 24  2  0  0  0  0
 25 26  1  0  0  0  0
 26 28  1  0  0  0  0
 28 27  1  0  0  0  0
 28 23  2  0  0  0  0
 29 27  2  0  0  0  0
 30 23  1  0  0  0  0
 30 21  1  0  0  0  0
 31 30  2  0  0  0  0
 32 34  1  0  0  0  0
 32 24  1  0  0  0  0
 33 32  2  0  0  0  0
M  END
>  <MODEL>
6

>  <REMARK>
 VINA RESULT:      -8.9      2.097      9.907
  Name = 
  4 active torsions:
  status: ('A' for Active; 'I' for Inactive)
    1  A    between atoms: N_3  and  C_25
    2  A    between atoms: C_7  and  C_11
    3  A    between atoms: C_8  and  C_18
    4  A    between atoms: C_18  and  C_30
                            x       y       z     vdW  Elec       q    Type
                         _______ _______ _______ _____ _____    ______ ____

>  <TORSDO>
F 4

$$$$
=
 OpenBabel11052411053D

 34 39  0  0  0  0  0  0  0  0999 V2000
  161.9060  208.2670  149.1410 C   0  0  0  0  0  0  0  0  0  0  0  0
  161.3390  204.6240  148.8050 C   0  0  0  0  0  3  0  0  0  0  0  0
  160.9760  206.0440  150.5770 N   0  0  0  0  0  0  0  0  0  0  0  0
  162.2990  210.6240  149.3040 C   0  0  0  0  0  0  0  0  0  0  0  0
  162.2470  209.4610  148.5600 N   0  0  0  0  0  0  0  0  0  0  0  0
  161.6300  209.3860  151.2440 C   0  0  0  0  0  0  0  0  0  0  0  0
  161.1320  209.0460  152.5430 N   0  0  0  0  0  0  0  0  0  0  0  0
  161.9670  210.6200  150.6880 C   0  0  0  0  0  3  0  0  0  0  0  0
  161.1410  207.2540  151.1630 C   0  0  0  0  0  0  0  0  0  0  0  0
  161.6250  208.2860  150.4750 C   0  0  0  0  0  0  0  0  0  0  0  0
  160.8180  207.6650  152.4920 N   0  0  0  0  0  0  0  0  0  0  0  0
  161.9620  204.1650  147.5310 C   0  0  0  0  0  2  0  0  0  0  0  0
  161.3180  204.7480  146.3250 C   0  0  0  0  0  0  0  0  0  0  0  0
  161.3140  206.0660  146.1320 C   0  0  0  0  0  3  0  0  0  0  0  0
  161.3070  205.8850  149.2480 C   0  0  0  0  0  0  0  0  0  0  0  0
  161.7120  207.0960  147.1090 C   0  0  0  0  0  3  0  0  0  0  0  0
  161.7050  207.0410  148.4550 C   0  0  0  0  0  0  0  0  0  0  0  0
  160.8460  203.8710  145.2910 N   0  0  0  0  0  0  0  0  0  0  0  0
  160.8410  202.5090  145.4910 O   0  0  0  0  0  0  0  0  0  0  0  0
  160.4230  204.3270  144.2080 O   0  0  0  0  0  0  0  0  0  0  0  0
  162.7040  211.9000  148.6510 C   0  0  0  0  0  2  0  0  0  0  0  0
  159.5340  212.3530  146.7280 C   0  0  0  0  0  3  0  0  0  0  0  0
  162.2670  212.6530  146.3050 C   0  0  0  0  0  3  0  0  0  0  0  0
  159.5620  213.4770  143.1970 C   0  0  0  0  0  0  0  0  0  0  0  0
  159.0910  213.0520  144.4470 C   0  0  0  0  0  3  0  0  0  0  0  0
  159.9900  212.7800  145.4810 C   0  0  0  0  0  0  0  0  0  0  0  0
  161.8470  213.3530  144.0230 C   0  0  0  0  0  3  0  0  0  0  0  0
  161.3760  212.9310  145.2690 C   0  0  0  0  0  0  0  0  0  0  0  0
  160.9430  213.6250  142.9920 C   0  0  0  0  0  3  0  0  0  0  0  0
  161.7660  212.2330  147.5410 C   0  0  0  0  0  0  0  0  0  0  0  0
  160.4240  212.0880  147.7220 N   0  0  0  0  0  0  0  0  0  0  0  0
  158.6110  213.7610  142.1100 C   0  0  0  0  0  0  0  0  0  0  0  0
  157.5780  214.4490  142.3270 O   0  0  0  0  0  1  0  0  0  0  0  0
  158.8440  213.2690  140.8300 O   0  0  0  0  0  0  0  0  0  0  0  0
  1 10  1  0  0  0  0
  2 15  2  0  0  0  0
  3  9  2  0  0  0  0
  4  8  2  0  0  0  0
  5  1  2  0  0  0  0
  5  4  1  0  0  0  0
  6  7  1  0  0  0  0
  8  6  1  0  0  0  0
  9 11  1  0  0  0  0
 10  9  1  0  0  0  0
 10  6  2  0  0  0  0
 11  7  2  0  0  0  0
 12  2  1  0  0  0  0
 13 12  1  0  0  0  0
 14 13  2  0  0  0  0
 14 16  1  0  0  0  0
 15  3  1  0  0  0  0
 16 17  2  0  0  0  0
 17  1  1  0  0  0  0
 17 15  1  0  0  0  0
 18 19  2  0  0  0  0
 18 13  1  0  0  0  0
 20 18  2  0  0  0  0
 21  4  1  0  0  0  0
 22 31  1  0  0  0  0
 23 30  1  0  0  0  0
 24 25  2  0  0  0  0
 25 26  1  0  0  0  0
 26 22  2  0  0  0  0
 27 28  1  0  0  0  0
 28 26  1  0  0  0  0
 28 23  2  0  0  0  0
 29 24  1  0  0  0  0
 29 27  2  0  0  0  0
 30 31  2  0  0  0  0
 30 21  1  0  0  0  0
 32 33  1  0  0  0  0
 32 24  1  0  0  0  0
 34 32  2  0  0  0  0
M  END
>  <MODEL>
7

>  <REMARK>
 VINA RESULT:      -8.8      4.778      7.201
  Name = 
  4 active torsions:
  status: ('A' for Active; 'I' for Inactive)
    1  A    between atoms: N_3  and  C_25
    2  A    between atoms: C_7  and  C_11
    3  A    between atoms: C_8  and  C_18
    4  A    between atoms: C_18  and  C_30
                            x       y       z     vdW  Elec       q    Type
                         _______ _______ _______ _____ _____    ______ ____

>  <TORSDO>
F 4

$$$$
=
 OpenBabel11052411053D

 34 39  0  0  0  0  0  0  0  0999 V2000
  161.2890  205.0610  149.5950 C   0  0  0  0  0  0  0  0  0  0  0  0
  161.1200  203.6880  146.1610 C   0  0  0  0  0  3  0  0  0  0  0  0
  161.8880  205.7140  146.9320 N   0  0  0  0  0  0  0  0  0  0  0  0
  161.3690  205.9020  151.8360 C   0  0  0  0  0  0  0  0  0  0  0  0
  161.1380  204.8720  150.9440 N   0  0  0  0  0  0  0  0  0  0  0  0
  161.9410  207.3340  150.0010 C   0  0  0  0  0  0  0  0  0  0  0  0
  162.4660  208.4170  149.2260 N   0  0  0  0  0  0  0  0  0  0  0  0
  161.8030  207.1790  151.3800 C   0  0  0  0  0  3  0  0  0  0  0  0
  162.0050  206.6200  147.9330 C   0  0  0  0  0  0  0  0  0  0  0  0
  161.6730  206.3030  149.1830 C   0  0  0  0  0  0  0  0  0  0  0  0
  162.5040  207.9560  147.8860 N   0  0  0  0  0  0  0  0  0  0  0  0
  160.3220  202.4300  146.1950 C   0  0  0  0  0  2  0  0  0  0  0  0
  160.9680  201.3510  146.9890 C   0  0  0  0  0  0  0  0  0  0  0  0
  161.2080  201.5220  148.2880 C   0  0  0  0  0  3  0  0  0  0  0  0
  161.4280  204.4450  147.2190 C   0  0  0  0  0  0  0  0  0  0  0  0
  161.0940  202.7820  149.0430 C   0  0  0  0  0  3  0  0  0  0  0  0
  161.1970  204.0510  148.6020 C   0  0  0  0  0  0  0  0  0  0  0  0
  161.1790  200.0680  146.3820 N   0  0  0  0  0  0  0  0  0  0  0  0
  160.5350  199.7440  145.2100 O   0  0  0  0  0  0  0  0  0  0  0  0
  161.9560  199.2370  146.8970 O   0  0  0  0  0  0  0  0  0  0  0  0
  161.1650  205.6740  153.2940 C   0  0  0  0  0  2  0  0  0  0  0  0
  160.1160  208.0950  155.9380 C   0  0  0  0  0  3  0  0  0  0  0  0
  160.8310  208.1540  153.2510 C   0  0  0  0  0  3  0  0  0  0  0  0
  159.7590  211.7120  155.2120 C   0  0  0  0  0  0  0  0  0  0  0  0
  159.7590  210.4960  155.9090 C   0  0  0  0  0  3  0  0  0  0  0  0
  160.1170  209.3130  155.2570 C   0  0  0  0  0  0  0  0  0  0  0  0
  160.4790  210.5510  153.1980 C   0  0  0  0  0  3  0  0  0  0  0  0
  160.4800  209.3400  153.8950 C   0  0  0  0  0  0  0  0  0  0  0  0
  160.1210  211.7320  153.8550 C   0  0  0  0  0  3  0  0  0  0  0  0
  160.8230  206.9570  153.9740 C   0  0  0  0  0  0  0  0  0  0  0  0
  160.4630  206.9530  155.2870 N   0  0  0  0  0  0  0  0  0  0  0  0
  159.3790  212.9550  155.9010 C   0  0  0  0  0  0  0  0  0  0  0  0
  160.1930  213.5350  156.6710 O   0  0  0  0  0  1  0  0  0  0  0  0
  158.1150  213.5030  155.7110 O   0  0  0  0  0  0  0  0  0  0  0  0
  1  5  1  0  0  0  0
  2 12  1  0  0  0  0
  2 15  2  0  0  0  0
  3 15  1  0  0  0  0
  3  9  2  0  0  0  0
  4 21  1  0  0  0  0
  5  4  2  0  0  0  0
  6  8  2  0  0  0  0
  7  6  1  0  0  0  0
  8  4  1  0  0  0  0
  9 10  1  0  0  0  0
 10  1  2  0  0  0  0
 10  6  1  0  0  0  0
 11  9  1  0  0  0  0
 11  7  2  0  0  0  0
 12 13  1  0  0  0  0
 13 14  2  0  0  0  0
 14 16  1  0  0  0  0
 15 17  1  0  0  0  0
 17 16  2  0  0  0  0
 17  1  1  0  0  0  0
 18 20  2  0  0  0  0
 18 13  1  0  0  0  0
 19 18  2  0  0  0  0
 21 30  1  0  0  0  0
 23 28  2  0  0  0  0
 23 30  1  0  0  0  0
 24 32  1  0  0  0  0
 24 25  2  0  0  0  0
 26 25  1  0  0  0  0
 26 22  2  0  0  0  0
 27 29  2  0  0  0  0
 27 28  1  0  0  0  0
 28 26  1  0  0  0  0
 29 24  1  0  0  0  0
 30 31  2  0  0  0  0
 31 22  1  0  0  0  0
 32 33  1  0  0  0  0
 34 32  2  0  0  0  0
M  END
>  <MODEL>
8

>  <REMARK>
 VINA RESULT:      -8.4      2.219      3.565
  Name = 
  4 active torsions:
  status: ('A' for Active; 'I' for Inactive)
    1  A    between atoms: N_3  and  C_25
    2  A    between atoms: C_7  and  C_11
    3  A    between atoms: C_8  and  C_18
    4  A    between atoms: C_18  and  C_30
                            x       y       z     vdW  Elec       q    Type
                         _______ _______ _______ _____ _____    ______ ____

>  <TORSDO>
F 4

$$$$
=
 OpenBabel11052411053D

 34 39  0  0  0  0  0  0  0  0999 V2000
  160.4280  212.7540  145.9090 C   0  0  0  0  0  0  0  0  0  0  0  0
  159.0330  213.3350  142.5300 C   0  0  0  0  0  3  0  0  0  0  0  0
  158.2560  213.9560  144.6030 N   0  0  0  0  0  0  0  0  0  0  0  0
  161.3720  212.3440  148.0720 C   0  0  0  0  0  0  0  0  0  0  0  0
  161.4550  212.2970  146.6930 N   0  0  0  0  0  0  0  0  0  0  0  0
  159.2050  213.3500  147.8850 C   0  0  0  0  0  0  0  0  0  0  0  0
  158.0000  214.0630  148.1840 N   0  0  0  0  0  0  0  0  0  0  0  0
  160.2310  212.9000  148.7160 C   0  0  0  0  0  3  0  0  0  0  0  0
  158.3140  213.8650  145.9530 C   0  0  0  0  0  0  0  0  0  0  0  0
  159.3330  213.2510  146.5530 C   0  0  0  0  0  0  0  0  0  0  0  0
  157.4210  214.3940  146.9330 N   0  0  0  0  0  0  0  0  0  0  0  0
  159.8100  212.5200  141.5520 C   0  0  0  0  0  2  0  0  0  0  0  0
  161.2310  212.9440  141.4400 C   0  0  0  0  0  0  0  0  0  0  0  0
  162.0370  212.8870  142.4980 C   0  0  0  0  0  3  0  0  0  0  0  0
  159.2710  213.4140  143.8430 C   0  0  0  0  0  0  0  0  0  0  0  0
  161.6360  212.6340  143.8940 C   0  0  0  0  0  3  0  0  0  0  0  0
  160.4530  212.8650  144.4950 C   0  0  0  0  0  0  0  0  0  0  0  0
  161.7660  213.2560  140.1450 N   0  0  0  0  0  0  0  0  0  0  0  0
  160.9440  213.2660  139.0420 O   0  0  0  0  0  0  0  0  0  0  0  0
  162.9750  213.5370  140.0040 O   0  0  0  0  0  0  0  0  0  0  0  0
  162.4920  211.8090  148.8970 C   0  0  0  0  0  2  0  0  0  0  0  0
  161.7530  209.0500  151.3040 C   0  0  0  0  0  3  0  0  0  0  0  0
  161.9600  209.3890  148.5510 C   0  0  0  0  0  3  0  0  0  0  0  0
  161.0750  205.5980  150.1350 C   0  0  0  0  0  0  0  0  0  0  0  0
  161.2650  206.6930  150.9900 C   0  0  0  0  0  3  0  0  0  0  0  0
  161.5580  207.9530  150.4630 C   0  0  0  0  0  0  0  0  0  0  0  0
  161.4750  207.0380  148.2150 C   0  0  0  0  0  3  0  0  0  0  0  0
  161.6630  208.1280  149.0680 C   0  0  0  0  0  0  0  0  0  0  0  0
  161.1820  205.7780  148.7470 C   0  0  0  0  0  3  0  0  0  0  0  0
  162.1420  210.4610  149.4290 C   0  0  0  0  0  0  0  0  0  0  0  0
  162.0420  210.2680  150.7740 N   0  0  0  0  0  0  0  0  0  0  0  0
  160.7690  204.2720  150.6940 C   0  0  0  0  0  0  0  0  0  0  0  0
  160.4570  203.3150  149.9360 O   0  0  0  0  0  0  0  0  0  0  0  0
  160.8210  204.0630  152.0680 O   0  0  0  0  0  1  0  0  0  0  0  0
  1 10  2  0  0  0  0
  1  5  1  0  0  0  0
  2 15  2  0  0  0  0
  3  9  2  0  0  0  0
  4  8  1  0  0  0  0
  4 21  1  0  0  0  0
  5  4  2  0  0  0  0
  6  7  1  0  0  0  0
  6  8  2  0  0  0  0
  9 10  1  0  0  0  0
  9 11  1  0  0  0  0
 10  6  1  0  0  0  0
 11  7  2  0  0  0  0
 12  2  1  0  0  0  0
 13 12  1  0  0  0  0
 13 14  2  0  0  0  0
 14 16  1  0  0  0  0
 15 17  1  0  0  0  0
 15  3  1  0  0  0  0
 16 17  2  0  0  0  0
 17  1  1  0  0  0  0
 18 13  1  0  0  0  0
 19 18  2  0  0  0  0
 20 18  2  0  0  0  0
 21 30  1  0  0  0  0
 23 28  2  0  0  0  0
 23 30  1  0  0  0  0
 24 32  1  0  0  0  0
 24 25  2  0  0  0  0
 26 25  1  0  0  0  0
 26 22  2  0  0  0  0
 27 29  2  0  0  0  0
 27 28  1  0  0  0  0
 28 26  1  0  0  0  0
 29 24  1  0  0  0  0
 30 31  2  0  0  0  0
 31 22  1  0  0  0  0
 32 34  1  0  0  0  0
 33 32  2  0  0  0  0
M  END
>  <MODEL>
9

>  <REMARK>
 VINA RESULT:      -8.3      6.128      8.789
  Name = 
  4 active torsions:
  status: ('A' for Active; 'I' for Inactive)
    1  A    between atoms: N_3  and  C_25
    2  A    between atoms: C_7  and  C_11
    3  A    between atoms: C_8  and  C_18
    4  A    between atoms: C_18  and  C_30
                            x       y       z     vdW  Elec       q    Type
                         _______ _______ _______ _____ _____    ______ ____

>  <TORSDO>
F 4

$$$$
