=
 OpenBabel11042423073D

 37 39  0  0  1  0  0  0  0  0999 V2000
  161.6070  209.0940  151.7450 C   0  0  0  0  0  2  0  0  0  0  0  0
  161.3830  206.3060  151.0820 C   0  0  0  0  0  0  0  0  0  0  0  0
  161.2680  208.6860  150.3130 C   0  0  0  0  0  2  0  0  0  0  0  0
  161.0820  208.0930  152.7470 C   0  0  0  0  0  0  0  0  0  0  0  0
  161.5210  205.0350  150.8920 N   0  0  0  0  0  2  0  0  0  0  0  0
  161.0320  206.7910  152.4260 C   0  0  0  0  0  3  0  0  0  0  0  0
  161.8090  207.2870  150.0150 C   0  0  2  0  0  3  0  0  0  0  0  0
  160.5640  210.5490  155.6350 C   0  0  1  0  0  3  0  0  0  0  0  0
  159.9560  208.7280  157.1220 N   0  0  0  0  0  0  0  0  0  0  0  0
  160.7200  208.5380  154.1150 C   0  0  0  0  0  0  0  0  0  0  0  0
  160.4470  207.6980  156.4950 C   0  0  0  0  0  0  0  0  0  0  0  0
  160.7350  207.6560  155.0810 N   0  0  0  0  0  0  0  0  0  0  0  0
  159.5210  209.9960  156.5670 C   0  0  0  0  0  2  0  0  0  0  0  0
  160.2830  209.9660  154.2760 C   0  0  0  0  0  2  0  0  0  0  0  0
  160.7500  206.5380  157.2600 N   0  0  0  0  0  1  0  0  0  0  0  0
  160.4940  212.3760  155.5800 S   0  0  0  0  0  0  0  0  0  0  0  0
  156.7670  212.6040  153.8310 C   0  0  0  0  0  2  0  0  0  0  0  0
  156.5030  212.7340  155.2250 O   0  0  0  0  0  0  0  0  0  0  0  0
  158.7910  212.4720  155.0850 N   0  0  0  0  0  0  0  0  0  0  0  0
  158.3010  212.4550  153.7140 C   0  0  2  0  0  3  0  0  0  0  0  0
  157.7490  212.7720  157.2540 C   0  0  0  0  0  2  0  0  0  0  0  0
  157.6780  212.6590  155.9340 C   0  0  0  0  0  0  0  0  0  0  0  0
  158.9100  213.5850  152.8830 C   0  0  0  0  0  2  0  0  0  0  0  0
  158.5440  213.2940  150.4510 C   0  0  0  0  0  1  0  0  0  0  0  0
  159.5270  213.0900  151.5840 C   0  0  0  0  0  2  0  0  0  0  0  0
  161.3760  206.8560  148.6420 C   0  0  0  0  0  0  0  0  0  0  0  0
  160.2360  206.4590  148.4470 O   0  0  0  0  0  0  0  0  0  0  0  0
  162.3560  206.8780  147.5140 C   0  0  0  0  0  2  0  0  0  0  0  0
  161.4430  205.3660  145.8740 N   0  0  0  0  0  0  0  0  0  0  0  0
  162.3350  205.5840  146.7680 C   0  0  0  0  0  3  0  0  0  0  0  0
  161.4230  204.1160  145.1650 C   0  0  0  0  0  2  0  0  0  0  0  0
  161.6590  203.0210  146.0930 N   0  0  0  0  0  2  0  0  0  0  0  0
  159.8940  201.7130  145.3050 O   0  0  0  0  0  0  0  0  0  0  0  0
  160.8610  201.8330  146.1040 C   0  0  0  0  0  0  0  0  0  0  0  0
  160.9960  200.9520  148.5150 C   0  0  0  0  0  1  0  0  0  0  0  0
  161.1660  200.7510  147.0490 C   0  0  0  0  0  0  0  0  0  0  0  0
  161.5750  199.6380  146.6250 O   0  0  0  0  0  0  0  0  0  0  0  0
  1  4  1  0  0  0  0
  2  6  1  0  0  0  0
  3  1  1  0  0  0  0
  4 10  1  0  0  0  0
  5  2  2  0  0  0  0
  6  4  2  0  0  0  0
  7 26  1  6  0  0  0
  7  3  1  0  0  0  0
  7  2  1  0  0  0  0
  8 16  1  6  0  0  0
  8 13  1  0  0  0  0
 10 14  1  0  0  0  0
 10 12  2  0  0  0  0
 11  9  2  0  0  0  0
 11 15  1  0  0  0  0
 12 11  1  0  0  0  0
 13  9  1  0  0  0  0
 14  8  1  0  0  0  0
 17 18  1  0  0  0  0
 18 22  1  0  0  0  0
 19 16  1  0  0  0  0
 19 22  1  0  0  0  0
 20 23  1  6  0  0  0
 20 17  1  0  0  0  0
 20 19  1  0  0  0  0
 22 21  2  0  0  0  0
 24 25  1  0  0  0  0
 25 23  1  0  0  0  0
 27 26  2  0  0  0  0
 28 26  1  0  0  0  0
 29 30  2  0  0  0  0
 30 28  1  0  0  0  0
 31 29  1  0  0  0  0
 31 32  1  0  0  0  0
 32 34  1  0  0  0  0
 33 34  2  0  0  0  0
 34 36  1  0  0  0  0
 36 35  1  0  0  0  0
 37 36  2  0  0  0  0
M  END
>  <MODEL>
1

>  <REMARK>
 VINA RESULT:      -6.8      0.000      0.000
  Name = 
  11 active torsions:
  status: ('A' for Active; 'I' for Inactive)
    1  A    between atoms: C_2  and  C_7
    2  A    between atoms: C_2  and  C_33
    3  A    between atoms: C_3  and  S_37
    4  A    between atoms: N_6  and  C_16
    5  A    between atoms: C_7  and  C_24
    6  A    between atoms: C_8  and  C_27
    7  A    between atoms: C_10  and  C_25
    8  A    between atoms: C_12  and  C_28
    9  A    between atoms: C_16  and  N_18
   10  A    between atoms: N_26  and  S_37
   11  A    between atoms: C_27  and  C_31
                            x       y       z     vdW  Elec       q    Type
                         _______ _______ _______ _____ _____    ______ ____

>  <TORSDO>
F 11

$$$$
=
 OpenBabel11042423073D

 37 39  0  0  1  0  0  0  0  0999 V2000
  160.4960  207.0810  154.5630 C   0  0  0  0  0  2  0  0  0  0  0  0
  161.0860  207.2690  151.7560 C   0  0  0  0  0  0  0  0  0  0  0  0
  161.1230  205.8890  153.8450 C   0  0  0  0  0  2  0  0  0  0  0  0
  160.9200  208.3900  153.9400 C   0  0  0  0  0  0  0  0  0  0  0  0
  161.1000  207.4270  150.4740 N   0  0  0  0  0  2  0  0  0  0  0  0
  161.1440  208.4590  152.6200 C   0  0  0  0  0  3  0  0  0  0  0  0
  160.7730  205.9190  152.3560 C   0  0  2  0  0  3  0  0  0  0  0  0
  160.2700  212.0340  154.9120 C   0  0  1  0  0  3  0  0  0  0  0  0
  161.6480  211.7880  156.8960 N   0  0  0  0  0  0  0  0  0  0  0  0
  160.9870  209.6160  154.7730 C   0  0  0  0  0  0  0  0  0  0  0  0
  162.3480  210.7300  156.6040 C   0  0  0  0  0  0  0  0  0  0  0  0
  161.9610  209.7280  155.6390 N   0  0  0  0  0  0  0  0  0  0  0  0
  160.3320  212.1600  156.4090 C   0  0  0  0  0  2  0  0  0  0  0  0
  159.8750  210.6130  154.6130 C   0  0  0  0  0  2  0  0  0  0  0  0
  163.5990  210.5610  157.2600 N   0  0  0  0  0  1  0  0  0  0  0  0
  159.0540  213.2030  154.2040 S   0  0  0  0  0  0  0  0  0  0  0  0
  155.7630  212.0000  156.3760 C   0  0  0  0  0  2  0  0  0  0  0  0
  156.4590  212.8740  157.2610 O   0  0  0  0  0  0  0  0  0  0  0  0
  157.7540  212.8210  155.3510 N   0  0  0  0  0  0  0  0  0  0  0  0
  156.6010  211.9730  155.0780 C   0  0  2  0  0  3  0  0  0  0  0  0
  158.4420  214.1930  157.2270 C   0  0  0  0  0  2  0  0  0  0  0  0
  157.6020  213.3410  156.6550 C   0  0  0  0  0  0  0  0  0  0  0  0
  155.7950  212.4830  153.8820 C   0  0  0  0  0  2  0  0  0  0  0  0
  154.2860  214.2180  152.9650 C   0  0  0  0  0  1  0  0  0  0  0  0
  155.1610  213.8410  154.1400 C   0  0  0  0  0  2  0  0  0  0  0  0
  161.4840  204.8030  151.6440 C   0  0  0  0  0  0  0  0  0  0  0  0
  162.6730  204.8940  151.3790 O   0  0  0  0  0  0  0  0  0  0  0  0
  160.7220  203.5870  151.2230 C   0  0  0  0  0  2  0  0  0  0  0  0
  161.0550  202.2390  149.2530 N   0  0  0  0  0  0  0  0  0  0  0  0
  160.8040  203.3960  149.7440 C   0  0  0  0  0  3  0  0  0  0  0  0
  161.1400  202.0620  147.8290 C   0  0  0  0  0  2  0  0  0  0  0  0
  161.4530  203.3330  147.1950 N   0  0  0  0  0  2  0  0  0  0  0  0
  160.6040  202.7230  145.1070 O   0  0  0  0  0  0  0  0  0  0  0  0
  161.1460  203.6070  145.8240 C   0  0  0  0  0  0  0  0  0  0  0  0
  160.4040  205.9520  145.0770 C   0  0  0  0  0  1  0  0  0  0  0  0
  161.4630  204.9200  145.2470 C   0  0  0  0  0  0  0  0  0  0  0  0
  162.6410  205.1840  144.8890 O   0  0  0  0  0  0  0  0  0  0  0  0
  2  7  1  0  0  0  0
  2  6  1  0  0  0  0
  3  1  1  0  0  0  0
  4  1  1  0  0  0  0
  4 10  1  0  0  0  0
  5  2  2  0  0  0  0
  6  4  2  0  0  0  0
  7 26  1  6  0  0  0
  7  3  1  0  0  0  0
  8 16  1  1  0  0  0
  8 13  1  0  0  0  0
 10 12  2  0  0  0  0
 11  9  2  0  0  0  0
 11 15  1  0  0  0  0
 12 11  1  0  0  0  0
 13  9  1  0  0  0  0
 14 10  1  0  0  0  0
 14  8  1  0  0  0  0
 16 19  1  0  0  0  0
 17 18  1  0  0  0  0
 19 22  1  0  0  0  0
 20 23  1  6  0  0  0
 20 19  1  0  0  0  0
 20 17  1  0  0  0  0
 22 21  2  0  0  0  0
 22 18  1  0  0  0  0
 23 25  1  0  0  0  0
 24 25  1  0  0  0  0
 27 26  2  0  0  0  0
 28 26  1  0  0  0  0
 29 30  2  0  0  0  0
 30 28  1  0  0  0  0
 31 29  1  0  0  0  0
 32 31  1  0  0  0  0
 33 34  2  0  0  0  0
 34 32  1  0  0  0  0
 35 36  1  0  0  0  0
 36 34  1  0  0  0  0
 37 36  2  0  0  0  0
M  END
>  <MODEL>
2

>  <REMARK>
 VINA RESULT:      -6.5      2.231      3.349
  Name = 
  11 active torsions:
  status: ('A' for Active; 'I' for Inactive)
    1  A    between atoms: C_2  and  C_7
    2  A    between atoms: C_2  and  C_33
    3  A    between atoms: C_3  and  S_37
    4  A    between atoms: N_6  and  C_16
    5  A    between atoms: C_7  and  C_24
    6  A    between atoms: C_8  and  C_27
    7  A    between atoms: C_10  and  C_25
    8  A    between atoms: C_12  and  C_28
    9  A    between atoms: C_16  and  N_18
   10  A    between atoms: N_26  and  S_37
   11  A    between atoms: C_27  and  C_31
                            x       y       z     vdW  Elec       q    Type
                         _______ _______ _______ _____ _____    ______ ____

>  <TORSDO>
F 11

$$$$
=
 OpenBabel11042423073D

 37 39  0  0  1  0  0  0  0  0999 V2000
  157.4900  213.4000  150.5590 C   0  0  0  0  0  2  0  0  0  0  0  0
  160.0260  213.8630  149.2870 C   0  0  0  0  0  0  0  0  0  0  0  0
  157.6230  213.2000  149.0520 C   0  0  0  0  0  2  0  0  0  0  0  0
  158.7880  213.1070  151.2750 C   0  0  0  0  0  0  0  0  0  0  0  0
  161.1530  214.3050  148.8360 N   0  0  0  0  0  2  0  0  0  0  0  0
  159.9570  213.3770  150.6740 C   0  0  0  0  0  3  0  0  0  0  0  0
  158.7550  214.0660  148.4970 C   0  0  2  0  0  3  0  0  0  0  0  0
  160.0260  211.2520  154.3850 C   0  0  1  0  0  3  0  0  0  0  0  0
  158.0050  211.8510  155.5900 N   0  0  0  0  0  0  0  0  0  0  0  0
  158.7650  212.6190  152.6760 C   0  0  0  0  0  0  0  0  0  0  0  0
  157.1960  212.1560  154.6170 C   0  0  0  0  0  0  0  0  0  0  0  0
  157.6140  212.5550  153.2940 N   0  0  0  0  0  0  0  0  0  0  0  0
  159.4540  211.9130  155.6090 C   0  0  0  0  0  2  0  0  0  0  0  0
  160.0880  212.3070  153.3130 C   0  0  0  0  0  2  0  0  0  0  0  0
  155.7980  212.0640  154.8630 N   0  0  0  0  0  1  0  0  0  0  0  0
  161.6910  210.5740  154.7210 S   0  0  0  0  0  0  0  0  0  0  0  0
  160.9240  206.7790  153.3040 C   0  0  0  0  0  2  0  0  0  0  0  0
  160.3700  206.7760  154.6170 O   0  0  0  0  0  0  0  0  0  0  0  0
  161.2690  208.8860  154.3670 N   0  0  0  0  0  0  0  0  0  0  0  0
  161.5080  208.1960  153.1060 C   0  0  2  0  0  3  0  0  0  0  0  0
  160.1470  208.2990  156.4340 C   0  0  0  0  0  2  0  0  0  0  0  0
  160.5740  207.9970  155.2150 C   0  0  0  0  0  0  0  0  0  0  0  0
  160.8400  208.9160  151.9340 C   0  0  0  0  0  2  0  0  0  0  0  0
  162.0610  208.6240  149.7990 C   0  0  0  0  0  1  0  0  0  0  0  0
  161.8470  209.5440  150.9820 C   0  0  0  0  0  2  0  0  0  0  0  0
  158.9440  213.7790  147.0340 C   0  0  0  0  0  0  0  0  0  0  0  0
  158.3710  214.4530  146.1900 O   0  0  0  0  0  0  0  0  0  0  0  0
  159.8120  212.6390  146.6080 C   0  0  0  0  0  2  0  0  0  0  0  0
  161.8370  213.0190  145.3570 N   0  0  0  0  0  0  0  0  0  0  0  0
  160.5550  212.9770  145.3580 C   0  0  0  0  0  3  0  0  0  0  0  0
  162.5460  213.3520  144.1520 C   0  0  0  0  0  2  0  0  0  0  0  0
  162.2500  212.3720  143.1200 N   0  0  0  0  0  2  0  0  0  0  0  0
  162.8730  213.7580  141.3480 O   0  0  0  0  0  0  0  0  0  0  0  0
  162.4490  212.6330  141.7270 C   0  0  0  0  0  0  0  0  0  0  0  0
  163.0150  211.4260  139.5290 C   0  0  0  0  0  1  0  0  0  0  0  0
  162.1540  211.5920  140.7330 C   0  0  0  0  0  0  0  0  0  0  0  0
  161.1660  210.8280  140.8920 O   0  0  0  0  0  0  0  0  0  0  0  0
  1  4  1  0  0  0  0
  2  6  1  0  0  0  0
  3  1  1  0  0  0  0
  4 10  1  0  0  0  0
  5  2  2  0  0  0  0
  6  4  2  0  0  0  0
  7 26  1  6  0  0  0
  7  3  1  0  0  0  0
  7  2  1  0  0  0  0
  8 16  1  1  0  0  0
  8 13  1  0  0  0  0
  9 13  1  0  0  0  0
 10 12  2  0  0  0  0
 10 14  1  0  0  0  0
 11 15  1  0  0  0  0
 11  9  2  0  0  0  0
 12 11  1  0  0  0  0
 14  8  1  0  0  0  0
 17 18  1  0  0  0  0
 18 22  1  0  0  0  0
 19 16  1  0  0  0  0
 19 22  1  0  0  0  0
 20 23  1  6  0  0  0
 20 17  1  0  0  0  0
 20 19  1  0  0  0  0
 22 21  2  0  0  0  0
 24 25  1  0  0  0  0
 25 23  1  0  0  0  0
 27 26  2  0  0  0  0
 28 26  1  0  0  0  0
 29 30  2  0  0  0  0
 30 28  1  0  0  0  0
 31 29  1  0  0  0  0
 32 31  1  0  0  0  0
 33 34  2  0  0  0  0
 34 32  1  0  0  0  0
 35 36  1  0  0  0  0
 36 37  2  0  0  0  0
 36 34  1  0  0  0  0
M  END
>  <MODEL>
3

>  <REMARK>
 VINA RESULT:      -6.4      4.784      7.587
  Name = 
  11 active torsions:
  status: ('A' for Active; 'I' for Inactive)
    1  A    between atoms: C_2  and  C_7
    2  A    between atoms: C_2  and  C_33
    3  A    between atoms: C_3  and  S_37
    4  A    between atoms: N_6  and  C_16
    5  A    between atoms: C_7  and  C_24
    6  A    between atoms: C_8  and  C_27
    7  A    between atoms: C_10  and  C_25
    8  A    between atoms: C_12  and  C_28
    9  A    between atoms: C_16  and  N_18
   10  A    between atoms: N_26  and  S_37
   11  A    between atoms: C_27  and  C_31
                            x       y       z     vdW  Elec       q    Type
                         _______ _______ _______ _____ _____    ______ ____

>  <TORSDO>
F 11

$$$$
=
 OpenBabel11042423073D

 37 39  0  0  1  0  0  0  0  0999 V2000
  161.2070  209.9100  151.5200 C   0  0  0  0  0  2  0  0  0  0  0  0
  161.7430  207.5350  149.9930 C   0  0  0  0  0  0  0  0  0  0  0  0
  161.7560  208.6720  152.2230 C   0  0  0  0  0  2  0  0  0  0  0  0
  161.6840  209.9930  150.0890 C   0  0  0  0  0  0  0  0  0  0  0  0
  161.7360  206.4960  149.2240 N   0  0  0  0  0  2  0  0  0  0  0  0
  161.8810  208.8680  149.3850 C   0  0  0  0  0  3  0  0  0  0  0  0
  161.3750  207.4070  151.4520 C   0  0  2  0  0  3  0  0  0  0  0  0
  160.6300  213.4670  148.8790 C   0  0  1  0  0  3  0  0  0  0  0  0
  162.7860  213.7880  147.8080 N   0  0  0  0  0  0  0  0  0  0  0  0
  161.8330  211.3160  149.4350 C   0  0  0  0  0  0  0  0  0  0  0  0
  163.2200  212.5630  147.7140 C   0  0  0  0  0  0  0  0  0  0  0  0
  162.7710  211.4650  148.5360 N   0  0  0  0  0  0  0  0  0  0  0  0
  161.8510  214.3390  148.7710 C   0  0  0  0  0  2  0  0  0  0  0  0
  160.9360  212.4210  149.9170 C   0  0  0  0  0  2  0  0  0  0  0  0
  164.1860  212.2780  146.7090 N   0  0  0  0  0  1  0  0  0  0  0  0
  159.1640  214.4470  149.3630 S   0  0  0  0  0  0  0  0  0  0  0  0
  157.3650  213.1730  145.8790 C   0  0  0  0  0  2  0  0  0  0  0  0
  156.2730  213.5640  146.7080 O   0  0  0  0  0  0  0  0  0  0  0  0
  158.1500  213.9330  147.9990 N   0  0  0  0  0  0  0  0  0  0  0  0
  158.6350  213.4390  146.7170 C   0  0  2  0  0  3  0  0  0  0  0  0
  155.9590  214.4530  148.8950 C   0  0  0  0  0  2  0  0  0  0  0  0
  156.7420  214.0030  147.9240 C   0  0  0  0  0  0  0  0  0  0  0  0
  159.5540  214.4530  146.0330 C   0  0  0  0  0  2  0  0  0  0  0  0
  161.0190  213.9680  144.0960 C   0  0  0  0  0  1  0  0  0  0  0  0
  159.6000  214.2760  144.5230 C   0  0  0  0  0  2  0  0  0  0  0  0
  162.0110  206.2080  152.0950 C   0  0  0  0  0  0  0  0  0  0  0  0
  163.2270  206.1270  152.1920 O   0  0  0  0  0  0  0  0  0  0  0  0
  161.1530  205.0880  152.5880 C   0  0  0  0  0  2  0  0  0  0  0  0
  160.7360  203.6060  150.7340 N   0  0  0  0  0  0  0  0  0  0  0  0
  161.4030  203.8430  151.8030 C   0  0  0  0  0  3  0  0  0  0  0  0
  160.9760  202.4020  149.9860 C   0  0  0  0  0  2  0  0  0  0  0  0
  161.0810  202.7160  148.5700 N   0  0  0  0  0  2  0  0  0  0  0  0
  160.7240  200.5230  147.8550 O   0  0  0  0  0  0  0  0  0  0  0  0
  160.9320  201.7270  147.5470 C   0  0  0  0  0  0  0  0  0  0  0  0
  161.7140  203.3680  145.7290 C   0  0  0  0  0  1  0  0  0  0  0  0
  161.0240  202.1120  146.1320 C   0  0  0  0  0  0  0  0  0  0  0  0
  160.5160  201.3780  145.2440 O   0  0  0  0  0  0  0  0  0  0  0  0
  1  3  1  0  0  0  0
  2  7  1  0  0  0  0
  4  1  1  0  0  0  0
  5  2  2  0  0  0  0
  6  2  1  0  0  0  0
  6  4  2  0  0  0  0
  7 26  1  1  0  0  0
  7  3  1  0  0  0  0
  8 16  1  1  0  0  0
  8 14  1  0  0  0  0
  9 13  1  0  0  0  0
 10 14  1  0  0  0  0
 10  4  1  0  0  0  0
 11  9  2  0  0  0  0
 11 12  1  0  0  0  0
 12 10  2  0  0  0  0
 13  8  1  0  0  0  0
 15 11  1  0  0  0  0
 17 18  1  0  0  0  0
 17 20  1  0  0  0  0
 18 22  1  0  0  0  0
 19 16  1  0  0  0  0
 20 23  1  6  0  0  0
 20 19  1  0  0  0  0
 22 19  1  0  0  0  0
 22 21  2  0  0  0  0
 24 25  1  0  0  0  0
 25 23  1  0  0  0  0
 26 27  2  0  0  0  0
 26 28  1  0  0  0  0
 29 30  2  0  0  0  0
 30 28  1  0  0  0  0
 31 29  1  0  0  0  0
 32 31  1  0  0  0  0
 34 33  2  0  0  0  0
 34 32  1  0  0  0  0
 35 36  1  0  0  0  0
 36 34  1  0  0  0  0
 37 36  2  0  0  0  0
M  END
>  <MODEL>
4

>  <REMARK>
 VINA RESULT:      -5.9      4.163      6.249
  Name = 
  11 active torsions:
  status: ('A' for Active; 'I' for Inactive)
    1  A    between atoms: C_2  and  C_7
    2  A    between atoms: C_2  and  C_33
    3  A    between atoms: C_3  and  S_37
    4  A    between atoms: N_6  and  C_16
    5  A    between atoms: C_7  and  C_24
    6  A    between atoms: C_8  and  C_27
    7  A    between atoms: C_10  and  C_25
    8  A    between atoms: C_12  and  C_28
    9  A    between atoms: C_16  and  N_18
   10  A    between atoms: N_26  and  S_37
   11  A    between atoms: C_27  and  C_31
                            x       y       z     vdW  Elec       q    Type
                         _______ _______ _______ _____ _____    ______ ____

>  <TORSDO>
F 11

$$$$
=
 OpenBabel11042423073D

 37 39  0  0  1  0  0  0  0  0999 V2000
  161.2900  209.3590  151.3460 C   0  0  0  0  0  2  0  0  0  0  0  0
  161.2280  207.5500  153.5800 C   0  0  0  0  0  0  0  0  0  0  0  0
  161.4750  207.8630  151.1080 C   0  0  0  0  0  2  0  0  0  0  0  0
  160.4070  209.6260  152.5430 C   0  0  0  0  0  0  0  0  0  0  0  0
  161.3830  206.8970  154.6840 N   0  0  0  0  0  2  0  0  0  0  0  0
  160.4330  208.7890  153.5910 C   0  0  0  0  0  3  0  0  0  0  0  0
  162.0400  207.1890  152.3580 C   0  0  2  0  0  3  0  0  0  0  0  0
  159.5090  213.2880  151.8920 C   0  0  1  0  0  3  0  0  0  0  0  0
  157.4910  213.0670  153.2240 N   0  0  0  0  0  0  0  0  0  0  0  0
  159.5930  210.8640  152.5980 C   0  0  0  0  0  0  0  0  0  0  0  0
  157.7500  212.0010  153.9250 C   0  0  0  0  0  0  0  0  0  0  0  0
  158.7070  210.9850  153.5530 N   0  0  0  0  0  0  0  0  0  0  0  0
  158.0130  213.4390  151.9220 C   0  0  0  0  0  2  0  0  0  0  0  0
  159.7930  211.8640  151.4960 C   0  0  0  0  0  2  0  0  0  0  0  0
  157.0630  211.8350  155.1590 N   0  0  0  0  0  1  0  0  0  0  0  0
  160.2630  214.4530  150.7000 S   0  0  0  0  0  0  0  0  0  0  0  0
  159.5640  212.2920  147.2580 C   0  0  0  0  0  2  0  0  0  0  0  0
  158.3260  212.9520  147.5090 O   0  0  0  0  0  0  0  0  0  0  0  0
  159.6990  213.6050  149.2450 N   0  0  0  0  0  0  0  0  0  0  0  0
  160.5080  212.7390  148.3970 C   0  0  2  0  0  3  0  0  0  0  0  0
  157.4310  214.4520  149.1280 C   0  0  0  0  0  2  0  0  0  0  0  0
  158.4200  213.7060  148.6550 C   0  0  0  0  0  0  0  0  0  0  0  0
  161.7350  213.4720  147.8510 C   0  0  0  0  0  2  0  0  0  0  0  0
  162.6960  211.3070  148.5740 C   0  0  0  0  0  1  0  0  0  0  0  0
  162.9810  212.6010  147.8420 C   0  0  0  0  0  2  0  0  0  0  0  0
  162.1160  205.7030  152.1460 C   0  0  0  0  0  0  0  0  0  0  0  0
  163.1760  205.1720  151.8520 O   0  0  0  0  0  0  0  0  0  0  0  0
  160.8780  204.8740  152.2600 C   0  0  0  0  0  2  0  0  0  0  0  0
  160.5510  203.7000  150.1810 N   0  0  0  0  0  0  0  0  0  0  0  0
  160.9700  203.6620  151.3920 C   0  0  0  0  0  3  0  0  0  0  0  0
  160.6350  202.5280  149.3520 C   0  0  0  0  0  2  0  0  0  0  0  0
  161.3180  202.8530  148.1100 N   0  0  0  0  0  2  0  0  0  0  0  0
  160.9140  205.1480  148.2590 O   0  0  0  0  0  0  0  0  0  0  0  0
  161.4350  204.1930  147.6210 C   0  0  0  0  0  0  0  0  0  0  0  0
  161.5000  204.2600  145.0530 C   0  0  0  0  0  1  0  0  0  0  0  0
  162.1600  204.4610  146.3720 C   0  0  0  0  0  0  0  0  0  0  0  0
  163.3530  204.8630  146.4080 O   0  0  0  0  0  0  0  0  0  0  0  0
  1  4  1  0  0  0  0
  2  6  1  0  0  0  0
  2  5  2  0  0  0  0
  3  1  1  0  0  0  0
  3  7  1  0  0  0  0
  4 10  1  0  0  0  0
  4  6  2  0  0  0  0
  7 26  1  6  0  0  0
  7  2  1  0  0  0  0
  8 16  1  6  0  0  0
  8 13  1  0  0  0  0
  9 11  2  0  0  0  0
 10 12  2  0  0  0  0
 11 15  1  0  0  0  0
 12 11  1  0  0  0  0
 13  9  1  0  0  0  0
 14  8  1  0  0  0  0
 14 10  1  0  0  0  0
 17 18  1  0  0  0  0
 17 20  1  0  0  0  0
 18 22  1  0  0  0  0
 19 16  1  0  0  0  0
 20 23  1  6  0  0  0
 20 19  1  0  0  0  0
 22 21  2  0  0  0  0
 22 19  1  0  0  0  0
 25 23  1  0  0  0  0
 25 24  1  0  0  0  0
 26 28  1  0  0  0  0
 27 26  2  0  0  0  0
 29 30  2  0  0  0  0
 30 28  1  0  0  0  0
 31 29  1  0  0  0  0
 32 31  1  0  0  0  0
 34 32  1  0  0  0  0
 34 33  2  0  0  0  0
 35 36  1  0  0  0  0
 36 37  2  0  0  0  0
 36 34  1  0  0  0  0
M  END
>  <MODEL>
5

>  <REMARK>
 VINA RESULT:      -5.9      2.806      4.968
  Name = 
  11 active torsions:
  status: ('A' for Active; 'I' for Inactive)
    1  A    between atoms: C_2  and  C_7
    2  A    between atoms: C_2  and  C_33
    3  A    between atoms: C_3  and  S_37
    4  A    between atoms: N_6  and  C_16
    5  A    between atoms: C_7  and  C_24
    6  A    between atoms: C_8  and  C_27
    7  A    between atoms: C_10  and  C_25
    8  A    between atoms: C_12  and  C_28
    9  A    between atoms: C_16  and  N_18
   10  A    between atoms: N_26  and  S_37
   11  A    between atoms: C_27  and  C_31
                            x       y       z     vdW  Elec       q    Type
                         _______ _______ _______ _____ _____    ______ ____

>  <TORSDO>
F 11

$$$$
=
 OpenBabel11042423073D

 37 39  0  0  1  0  0  0  0  0999 V2000
  160.2180  206.3870  154.5500 C   0  0  0  0  0  2  0  0  0  0  0  0
  161.4350  206.6460  151.9600 C   0  0  0  0  0  0  0  0  0  0  0  0
  160.9160  205.1830  153.9240 C   0  0  0  0  0  2  0  0  0  0  0  0
  160.8510  207.6870  154.1120 C   0  0  0  0  0  0  0  0  0  0  0  0
  161.7470  206.8540  150.7230 N   0  0  0  0  0  2  0  0  0  0  0  0
  161.3700  207.7930  152.8790 C   0  0  0  0  0  3  0  0  0  0  0  0
  160.9130  205.2990  152.3990 C   0  0  2  0  0  3  0  0  0  0  0  0
  159.3070  210.6990  155.8970 C   0  0  1  0  0  3  0  0  0  0  0  0
  161.4550  211.2640  156.8780 N   0  0  0  0  0  0  0  0  0  0  0  0
  160.8030  208.8700  155.0050 C   0  0  0  0  0  0  0  0  0  0  0  0
  162.2790  210.6210  156.1010 C   0  0  0  0  0  0  0  0  0  0  0  0
  161.9250  209.4800  155.2910 N   0  0  0  0  0  0  0  0  0  0  0  0
  160.0670  210.9570  157.1690 C   0  0  0  0  0  2  0  0  0  0  0  0
  159.4670  209.2350  155.5860 C   0  0  0  0  0  2  0  0  0  0  0  0
  163.6190  211.0910  156.0230 N   0  0  0  0  0  1  0  0  0  0  0  0
  157.5390  211.1280  156.0890 S   0  0  0  0  0  0  0  0  0  0  0  0
  157.7760  213.5930  152.7930 C   0  0  0  0  0  2  0  0  0  0  0  0
  157.3200  214.4530  153.8340 O   0  0  0  0  0  0  0  0  0  0  0  0
  157.5240  212.3810  154.8310 N   0  0  0  0  0  0  0  0  0  0  0  0
  157.9460  212.2040  153.4480 C   0  0  2  0  0  3  0  0  0  0  0  0
  156.7970  214.2800  156.1510 C   0  0  0  0  0  2  0  0  0  0  0  0
  157.1830  213.7410  155.0030 C   0  0  0  0  0  0  0  0  0  0  0  0
  159.3930  211.7170  153.3570 C   0  0  0  0  0  2  0  0  0  0  0  0
  161.2770  210.9980  151.9200 C   0  0  0  0  0  1  0  0  0  0  0  0
  159.8450  211.4880  151.9230 C   0  0  0  0  0  2  0  0  0  0  0  0
  161.6960  204.1640  151.8010 C   0  0  0  0  0  0  0  0  0  0  0  0
  162.8990  204.2710  151.6150 O   0  0  0  0  0  0  0  0  0  0  0  0
  160.9920  202.9090  151.3970 C   0  0  0  0  0  2  0  0  0  0  0  0
  160.8600  201.7260  149.3010 N   0  0  0  0  0  0  0  0  0  0  0  0
  160.8220  202.8510  149.9140 C   0  0  0  0  0  3  0  0  0  0  0  0
  160.7040  201.6770  147.8730 C   0  0  0  0  0  2  0  0  0  0  0  0
  161.2290  202.8960  147.2790 N   0  0  0  0  0  2  0  0  0  0  0  0
  160.8090  202.2380  145.0790 O   0  0  0  0  0  0  0  0  0  0  0  0
  161.2420  203.1230  145.8660 C   0  0  0  0  0  0  0  0  0  0  0  0
  163.1210  204.8680  145.7020 C   0  0  0  0  0  1  0  0  0  0  0  0
  161.7630  204.3860  145.3280 C   0  0  0  0  0  0  0  0  0  0  0  0
  161.0610  205.0750  144.5430 O   0  0  0  0  0  0  0  0  0  0  0  0
  2  7  1  0  0  0  0
  2  6  1  0  0  0  0
  3  1  1  0  0  0  0
  4  1  1  0  0  0  0
  4 10  1  0  0  0  0
  5  2  2  0  0  0  0
  6  4  2  0  0  0  0
  7 26  1  6  0  0  0
  7  3  1  0  0  0  0
  8 16  1  1  0  0  0
  8 13  1  0  0  0  0
  9 13  1  0  0  0  0
 10 12  2  0  0  0  0
 10 14  1  0  0  0  0
 11  9  2  0  0  0  0
 12 11  1  0  0  0  0
 14  8  1  0  0  0  0
 15 11  1  0  0  0  0
 17 20  1  0  0  0  0
 17 18  1  0  0  0  0
 18 22  1  0  0  0  0
 19 22  1  0  0  0  0
 19 16  1  0  0  0  0
 20 23  1  1  0  0  0
 20 19  1  0  0  0  0
 22 21  2  0  0  0  0
 24 25  1  0  0  0  0
 25 23  1  0  0  0  0
 27 26  2  0  0  0  0
 28 26  1  0  0  0  0
 29 30  2  0  0  0  0
 30 28  1  0  0  0  0
 31 29  1  0  0  0  0
 32 31  1  0  0  0  0
 33 34  2  0  0  0  0
 34 32  1  0  0  0  0
 36 35  1  0  0  0  0
 36 34  1  0  0  0  0
 37 36  2  0  0  0  0
M  END
>  <MODEL>
6

>  <REMARK>
 VINA RESULT:      -5.7      2.146      3.234
  Name = 
  11 active torsions:
  status: ('A' for Active; 'I' for Inactive)
    1  A    between atoms: C_2  and  C_7
    2  A    between atoms: C_2  and  C_33
    3  A    between atoms: C_3  and  S_37
    4  A    between atoms: N_6  and  C_16
    5  A    between atoms: C_7  and  C_24
    6  A    between atoms: C_8  and  C_27
    7  A    between atoms: C_10  and  C_25
    8  A    between atoms: C_12  and  C_28
    9  A    between atoms: C_16  and  N_18
   10  A    between atoms: N_26  and  S_37
   11  A    between atoms: C_27  and  C_31
                            x       y       z     vdW  Elec       q    Type
                         _______ _______ _______ _____ _____    ______ ____

>  <TORSDO>
F 11

$$$$
=
 OpenBabel11042423073D

 37 39  0  0  1  0  0  0  0  0999 V2000
  159.7770  213.4390  148.6410 C   0  0  0  0  0  2  0  0  0  0  0  0
  162.0820  213.0380  146.9710 C   0  0  0  0  0  0  0  0  0  0  0  0
  159.6200  213.4710  147.1230 C   0  0  0  0  0  2  0  0  0  0  0  0
  160.8970  212.5180  149.0650 C   0  0  0  0  0  0  0  0  0  0  0  0
  163.2220  213.0510  146.3640 N   0  0  0  0  0  2  0  0  0  0  0  0
  161.9820  212.3870  148.2870 C   0  0  0  0  0  3  0  0  0  0  0  0
  160.9360  213.8800  146.4600 C   0  0  2  0  0  3  0  0  0  0  0  0
  161.4660  209.7410  151.6340 C   0  0  1  0  0  3  0  0  0  0  0  0
  160.2470  210.9990  153.3170 N   0  0  0  0  0  0  0  0  0  0  0  0
  160.8410  211.8450  150.3850 C   0  0  0  0  0  0  0  0  0  0  0  0
  159.5720  211.8370  152.5840 C   0  0  0  0  0  0  0  0  0  0  0  0
  159.9290  212.2290  151.2410 N   0  0  0  0  0  0  0  0  0  0  0  0
  161.5070  210.3470  153.0100 C   0  0  0  0  0  2  0  0  0  0  0  0
  161.8960  210.8170  150.6740 C   0  0  0  0  0  2  0  0  0  0  0  0
  158.3800  212.3860  153.1320 N   0  0  0  0  0  1  0  0  0  0  0  0
  162.5770  208.2930  151.5220 S   0  0  0  0  0  0  0  0  0  0  0  0
  160.1950  205.9000  149.1550 C   0  0  0  0  0  2  0  0  0  0  0  0
  160.8070  206.7980  148.2330 O   0  0  0  0  0  0  0  0  0  0  0  0
  161.6220  207.4330  150.2960 N   0  0  0  0  0  0  0  0  0  0  0  0
  160.7510  206.2920  150.5430 C   0  0  2  0  0  3  0  0  0  0  0  0
  162.3500  208.6100  148.3060 C   0  0  0  0  0  2  0  0  0  0  0  0
  161.6280  207.6720  148.9050 C   0  0  0  0  0  0  0  0  0  0  0  0
  161.5100  205.1310  151.1880 C   0  0  0  0  0  2  0  0  0  0  0  0
  161.1770  202.7710  151.8590 C   0  0  0  0  0  1  0  0  0  0  0  0
  160.9950  203.7730  150.7390 C   0  0  0  0  0  2  0  0  0  0  0  0
  160.7980  213.8030  144.9650 C   0  0  0  0  0  0  0  0  0  0  0  0
  161.5390  214.4490  144.2400 O   0  0  0  0  0  0  0  0  0  0  0  0
  159.7230  212.9570  144.3620 C   0  0  0  0  0  2  0  0  0  0  0  0
  160.7520  212.2220  142.3100 N   0  0  0  0  0  0  0  0  0  0  0  0
  159.8430  212.9290  142.8740 C   0  0  0  0  0  3  0  0  0  0  0  0
  160.8680  212.2050  140.8770 C   0  0  0  0  0  2  0  0  0  0  0  0
  160.5770  210.8710  140.3770 N   0  0  0  0  0  2  0  0  0  0  0  0
  162.8150  210.2980  140.0390 O   0  0  0  0  0  0  0  0  0  0  0  0
  161.6030  209.9540  139.9830 C   0  0  0  0  0  0  0  0  0  0  0  0
  161.9680  207.4100  140.0150 C   0  0  0  0  0  1  0  0  0  0  0  0
  161.2470  208.6100  139.5090 C   0  0  0  0  0  0  0  0  0  0  0  0
  160.3240  208.4620  138.6660 O   0  0  0  0  0  0  0  0  0  0  0  0
  1  4  1  0  0  0  0
  2  6  1  0  0  0  0
  3  1  1  0  0  0  0
  4 10  1  0  0  0  0
  5  2  2  0  0  0  0
  6  4  2  0  0  0  0
  7 26  1  6  0  0  0
  7  2  1  0  0  0  0
  7  3  1  0  0  0  0
  8 16  1  1  0  0  0
  8 13  1  0  0  0  0
 10 14  1  0  0  0  0
 10 12  2  0  0  0  0
 11 15  1  0  0  0  0
 11  9  2  0  0  0  0
 12 11  1  0  0  0  0
 13  9  1  0  0  0  0
 14  8  1  0  0  0  0
 17 20  1  0  0  0  0
 18 22  1  0  0  0  0
 18 17  1  0  0  0  0
 19 20  1  0  0  0  0
 19 16  1  0  0  0  0
 20 23  1  6  0  0  0
 21 22  2  0  0  0  0
 22 19  1  0  0  0  0
 25 23  1  0  0  0  0
 25 24  1  0  0  0  0
 27 26  2  0  0  0  0
 28 26  1  0  0  0  0
 29 30  2  0  0  0  0
 30 28  1  0  0  0  0
 31 29  1  0  0  0  0
 32 31  1  0  0  0  0
 34 33  2  0  0  0  0
 34 32  1  0  0  0  0
 36 34  1  0  0  0  0
 36 35  1  0  0  0  0
 37 36  2  0  0  0  0
M  END
>  <MODEL>
7

>  <REMARK>
 VINA RESULT:      -5.6      5.231      8.238
  Name = 
  11 active torsions:
  status: ('A' for Active; 'I' for Inactive)
    1  A    between atoms: C_2  and  C_7
    2  A    between atoms: C_2  and  C_33
    3  A    between atoms: C_3  and  S_37
    4  A    between atoms: N_6  and  C_16
    5  A    between atoms: C_7  and  C_24
    6  A    between atoms: C_8  and  C_27
    7  A    between atoms: C_10  and  C_25
    8  A    between atoms: C_12  and  C_28
    9  A    between atoms: C_16  and  N_18
   10  A    between atoms: N_26  and  S_37
   11  A    between atoms: C_27  and  C_31
                            x       y       z     vdW  Elec       q    Type
                         _______ _______ _______ _____ _____    ______ ____

>  <TORSDO>
F 11

$$$$
=
 OpenBabel11042423073D

 37 39  0  0  1  0  0  0  0  0999 V2000
  160.2990  206.6570  154.8340 C   0  0  0  0  0  2  0  0  0  0  0  0
  161.2250  206.8630  152.1200 C   0  0  0  0  0  0  0  0  0  0  0  0
  160.9440  205.4450  154.1650 C   0  0  0  0  0  2  0  0  0  0  0  0
  160.8610  207.9520  154.2970 C   0  0  0  0  0  0  0  0  0  0  0  0
  161.3980  207.0430  150.8520 N   0  0  0  0  0  2  0  0  0  0  0  0
  161.2420  208.0330  153.0130 C   0  0  0  0  0  3  0  0  0  0  0  0
  160.7740  205.5210  152.6470 C   0  0  2  0  0  3  0  0  0  0  0  0
  159.5340  211.1250  155.9740 C   0  0  1  0  0  3  0  0  0  0  0  0
  161.7000  211.5370  156.9910 N   0  0  0  0  0  0  0  0  0  0  0  0
  160.8930  209.1570  155.1610 C   0  0  0  0  0  0  0  0  0  0  0  0
  162.4840  210.8090  156.2490 C   0  0  0  0  0  0  0  0  0  0  0  0
  162.0540  209.6810  155.4570 N   0  0  0  0  0  0  0  0  0  0  0  0
  160.2850  211.3520  157.2570 C   0  0  0  0  0  2  0  0  0  0  0  0
  159.5790  209.6460  155.7020 C   0  0  0  0  0  2  0  0  0  0  0  0
  163.8600  211.1660  156.1900 N   0  0  0  0  0  1  0  0  0  0  0  0
  157.8040  211.7020  156.1160 S   0  0  0  0  0  0  0  0  0  0  0  0
  157.6050  214.4530  153.0510 C   0  0  0  0  0  2  0  0  0  0  0  0
  158.0060  213.2460  152.4060 O   0  0  0  0  0  0  0  0  0  0  0  0
  157.8250  212.6860  154.6380 N   0  0  0  0  0  0  0  0  0  0  0  0
  157.4510  214.0910  154.5450 C   0  0  2  0  0  3  0  0  0  0  0  0
  158.4620  210.9920  153.0240 C   0  0  0  0  0  2  0  0  0  0  0  0
  158.1250  212.2370  153.3330 C   0  0  0  0  0  0  0  0  0  0  0  0
  156.0210  214.3270  155.0330 C   0  0  0  0  0  2  0  0  0  0  0  0
  154.6120  213.8750  157.0190 C   0  0  0  0  0  1  0  0  0  0  0  0
  155.9300  214.4490  156.5460 C   0  0  0  0  0  2  0  0  0  0  0  0
  161.5050  204.3810  151.9950 C   0  0  0  0  0  0  0  0  0  0  0  0
  162.6400  204.5350  151.5680 O   0  0  0  0  0  0  0  0  0  0  0  0
  160.8260  203.0590  151.8360 C   0  0  0  0  0  2  0  0  0  0  0  0
  160.7060  203.0230  149.4290 N   0  0  0  0  0  0  0  0  0  0  0  0
  161.1320  202.4640  150.5010 C   0  0  0  0  0  3  0  0  0  0  0  0
  160.9970  202.4420  148.1470 C   0  0  0  0  0  2  0  0  0  0  0  0
  161.5510  203.4550  147.2630 N   0  0  0  0  0  2  0  0  0  0  0  0
  160.5470  205.2490  148.3680 O   0  0  0  0  0  0  0  0  0  0  0  0
  161.2970  204.8530  147.4350 C   0  0  0  0  0  0  0  0  0  0  0  0
  162.0160  205.5450  145.0670 C   0  0  0  0  0  1  0  0  0  0  0  0
  161.9060  205.8300  146.5240 C   0  0  0  0  0  0  0  0  0  0  0  0
  162.3440  206.9230  146.9700 O   0  0  0  0  0  0  0  0  0  0  0  0
  2  7  1  0  0  0  0
  2  6  1  0  0  0  0
  3  1  1  0  0  0  0
  4  1  1  0  0  0  0
  4 10  1  0  0  0  0
  5  2  2  0  0  0  0
  6  4  2  0  0  0  0
  7 26  1  6  0  0  0
  7  3  1  0  0  0  0
  8 16  1  1  0  0  0
  8 13  1  0  0  0  0
  9 13  1  0  0  0  0
 10 12  2  0  0  0  0
 10 14  1  0  0  0  0
 11  9  2  0  0  0  0
 12 11  1  0  0  0  0
 14  8  1  0  0  0  0
 15 11  1  0  0  0  0
 17 20  1  0  0  0  0
 18 17  1  0  0  0  0
 18 22  1  0  0  0  0
 19 16  1  0  0  0  0
 20 19  1  0  0  0  0
 20 23  1  6  0  0  0
 21 22  2  0  0  0  0
 22 19  1  0  0  0  0
 23 25  1  0  0  0  0
 25 24  1  0  0  0  0
 27 26  2  0  0  0  0
 28 26  1  0  0  0  0
 29 30  2  0  0  0  0
 30 28  1  0  0  0  0
 31 29  1  0  0  0  0
 32 34  1  0  0  0  0
 32 31  1  0  0  0  0
 34 33  2  0  0  0  0
 35 36  1  0  0  0  0
 36 37  2  0  0  0  0
 36 34  1  0  0  0  0
M  END
>  <MODEL>
8

>  <REMARK>
 VINA RESULT:      -5.5      2.299      3.964
  Name = 
  11 active torsions:
  status: ('A' for Active; 'I' for Inactive)
    1  A    between atoms: C_2  and  C_7
    2  A    between atoms: C_2  and  C_33
    3  A    between atoms: C_3  and  S_37
    4  A    between atoms: N_6  and  C_16
    5  A    between atoms: C_7  and  C_24
    6  A    between atoms: C_8  and  C_27
    7  A    between atoms: C_10  and  C_25
    8  A    between atoms: C_12  and  C_28
    9  A    between atoms: C_16  and  N_18
   10  A    between atoms: N_26  and  S_37
   11  A    between atoms: C_27  and  C_31
                            x       y       z     vdW  Elec       q    Type
                         _______ _______ _______ _____ _____    ______ ____

>  <TORSDO>
F 11

$$$$
=
 OpenBabel11042423073D

 37 39  0  0  1  0  0  0  0  0999 V2000
  161.9520  210.6260  149.3950 C   0  0  0  0  0  2  0  0  0  0  0  0
  160.7650  213.2410  149.2600 C   0  0  0  0  0  0  0  0  0  0  0  0
  162.6250  211.7160  148.5650 C   0  0  0  0  0  2  0  0  0  0  0  0
  161.2060  211.2070  150.5730 C   0  0  0  0  0  0  0  0  0  0  0  0
  160.0150  214.2850  149.1280 N   0  0  0  0  0  2  0  0  0  0  0  0
  160.6220  212.4100  150.4660 C   0  0  0  0  0  3  0  0  0  0  0  0
  161.5950  212.7450  148.0990 C   0  0  2  0  0  3  0  0  0  0  0  0
  161.2960  208.0920  152.7940 C   0  0  1  0  0  3  0  0  0  0  0  0
  160.2980  209.3280  154.6300 N   0  0  0  0  0  0  0  0  0  0  0  0
  161.0340  210.4030  151.8070 C   0  0  0  0  0  0  0  0  0  0  0  0
  159.7740  210.3460  154.0110 C   0  0  0  0  0  0  0  0  0  0  0  0
  160.1950  210.8290  152.7170 N   0  0  0  0  0  0  0  0  0  0  0  0
  161.4330  208.5180  154.2300 C   0  0  0  0  0  2  0  0  0  0  0  0
  161.9020  209.1870  151.9580 C   0  0  0  0  0  2  0  0  0  0  0  0
  158.6880  211.0180  154.6390 N   0  0  0  0  0  1  0  0  0  0  0  0
  162.1510  206.5030  152.4950 S   0  0  0  0  0  0  0  0  0  0  0  0
  160.3430  205.5340  148.9190 C   0  0  0  0  0  2  0  0  0  0  0  0
  161.3730  206.4480  148.5490 O   0  0  0  0  0  0  0  0  0  0  0  0
  161.5370  206.2790  150.8440 N   0  0  0  0  0  0  0  0  0  0  0  0
  160.4540  205.3860  150.4530 C   0  0  2  0  0  3  0  0  0  0  0  0
  163.0820  207.7020  149.6330 C   0  0  0  0  0  2  0  0  0  0  0  0
  162.0530  206.8660  149.6680 C   0  0  0  0  0  0  0  0  0  0  0  0
  160.7440  203.9390  150.8550 C   0  0  0  0  0  2  0  0  0  0  0  0
  160.7730  201.5720  150.1270 C   0  0  0  0  0  1  0  0  0  0  0  0
  160.8500  203.0090  149.6560 C   0  0  0  0  0  2  0  0  0  0  0  0
  162.2860  213.8660  147.3760 C   0  0  0  0  0  0  0  0  0  0  0  0
  163.2250  214.4530  147.8940 O   0  0  0  0  0  0  0  0  0  0  0  0
  161.7990  214.2920  146.0280 C   0  0  0  0  0  2  0  0  0  0  0  0
  160.7150  213.2550  144.1410 N   0  0  0  0  0  0  0  0  0  0  0  0
  160.9870  213.2110  145.3930 C   0  0  0  0  0  3  0  0  0  0  0  0
  159.9270  212.2160  143.5370 C   0  0  0  0  0  2  0  0  0  0  0  0
  160.7470  211.4520  142.6120 N   0  0  0  0  0  2  0  0  0  0  0  0
  160.3770  212.8760  140.7990 O   0  0  0  0  0  0  0  0  0  0  0  0
  160.9450  211.8440  141.2500 C   0  0  0  0  0  0  0  0  0  0  0  0
  163.0480  211.6240  139.7890 C   0  0  0  0  0  1  0  0  0  0  0  0
  161.8060  211.0430  140.3700 C   0  0  0  0  0  0  0  0  0  0  0  0
  161.4990  209.8530  140.0980 O   0  0  0  0  0  0  0  0  0  0  0  0
  1  4  1  0  0  0  0
  2  6  1  0  0  0  0
  3  1  1  0  0  0  0
  4 10  1  0  0  0  0
  5  2  2  0  0  0  0
  6  4  2  0  0  0  0
  7 26  1  1  0  0  0
  7  3  1  0  0  0  0
  7  2  1  0  0  0  0
  8 16  1  1  0  0  0
  8 13  1  0  0  0  0
 10 14  1  0  0  0  0
 10 12  2  0  0  0  0
 11  9  2  0  0  0  0
 11 15  1  0  0  0  0
 12 11  1  0  0  0  0
 13  9  1  0  0  0  0
 14  8  1  0  0  0  0
 17 20  1  0  0  0  0
 18 17  1  0  0  0  0
 18 22  1  0  0  0  0
 19 16  1  0  0  0  0
 20 19  1  0  0  0  0
 20 23  1  6  0  0  0
 21 22  2  0  0  0  0
 22 19  1  0  0  0  0
 25 24  1  0  0  0  0
 25 23  1  0  0  0  0
 26 27  2  0  0  0  0
 28 26  1  0  0  0  0
 29 30  2  0  0  0  0
 30 28  1  0  0  0  0
 31 29  1  0  0  0  0
 32 31  1  0  0  0  0
 33 34  2  0  0  0  0
 34 32  1  0  0  0  0
 35 36  1  0  0  0  0
 36 34  1  0  0  0  0
 37 36  2  0  0  0  0
M  END
>  <MODEL>
9

>  <REMARK>
 VINA RESULT:      -5.4      4.943      8.236
  Name = 
  11 active torsions:
  status: ('A' for Active; 'I' for Inactive)
    1  A    between atoms: C_2  and  C_7
    2  A    between atoms: C_2  and  C_33
    3  A    between atoms: C_3  and  S_37
    4  A    between atoms: N_6  and  C_16
    5  A    between atoms: C_7  and  C_24
    6  A    between atoms: C_8  and  C_27
    7  A    between atoms: C_10  and  C_25
    8  A    between atoms: C_12  and  C_28
    9  A    between atoms: C_16  and  N_18
   10  A    between atoms: N_26  and  S_37
   11  A    between atoms: C_27  and  C_31
                            x       y       z     vdW  Elec       q    Type
                         _______ _______ _______ _____ _____    ______ ____

>  <TORSDO>
F 11

$$$$
