=
 OpenBabel11052410093D

 54 61  0  0  1  0  0  0  0  0999 V2000
  161.4840  209.1140  152.2110 C   0  0  0  0  0  0  0  0  0  0  0  0
  160.8880  209.5980  154.5270 C   0  0  0  0  0  3  0  0  0  0  0  0
  160.8020  210.2770  151.8430 C   0  0  0  0  0  0  0  0  0  0  0  0
  160.6340  210.7430  150.5980 N   0  0  0  0  0  0  0  0  0  0  0  0
  159.6080  212.1320  152.0870 C   0  0  0  0  0  3  0  0  0  0  0  0
  160.1900  211.0830  152.7710 C   0  0  0  0  0  0  0  0  0  0  0  0
  160.2050  210.7770  154.1490 C   0  0  0  0  0  0  0  0  0  0  0  0
  161.5190  208.7780  153.5720 C   0  0  0  0  0  2  0  0  0  0  0  0
  159.9040  211.8730  150.7480 C   0  0  0  0  0  0  0  0  0  0  0  0
  159.5000  212.7430  149.6170 C   0  0  0  0  0  0  0  0  0  0  0  0
  160.5730  214.0920  146.0980 C   0  0  2  0  0  3  0  0  0  0  0  0
  161.5960  212.3230  148.5200 O   0  0  0  0  0  0  0  0  0  0  0  0
  160.3440  212.9680  148.4970 C   0  0  0  0  0  0  0  0  0  0  0  0
  160.0600  213.5460  143.7110 C   0  0  0  0  0  0  0  0  0  0  0  0
  159.8740  213.8100  147.4310 C   0  0  0  0  0  0  0  0  0  0  0  0
  159.6220  213.8460  144.9430 C   0  0  0  0  0  3  0  0  0  0  0  0
  157.8340  214.2440  148.6990 C   0  0  0  0  0  3  0  0  0  0  0  0
  158.2580  213.3820  149.6990 C   0  0  0  0  0  3  0  0  0  0  0  0
  162.7700  213.8030  146.8900 C   0  0  0  0  0  2  0  0  0  0  0  0
  163.9190  212.1620  148.2340 C   0  0  0  0  0  2  0  0  0  0  0  0
  158.6350  214.4530  147.5850 C   0  0  0  0  0  3  0  0  0  0  0  0
  162.3940  213.8120  144.6050 C   0  0  0  0  0  2  0  0  0  0  0  0
  161.8320  213.3740  145.8800 N   0  0  2  0  0  0  0  0  0  0  0  0
  162.7780  212.7550  147.9210 C   0  0  0  0  0  0  0  0  0  0  0  0
  161.5290  213.2990  143.4550 C   0  0  0  0  0  2  0  0  0  0  0  0
  159.0490  213.2720  142.6310 C   0  0  1  0  0  3  0  0  0  0  0  0
  158.2430  214.3900  142.3980 O   0  0  0  0  0  1  0  0  0  0  0  0
  159.7000  212.8590  141.3940 N   0  0  0  0  0  0  0  0  0  0  0  0
  160.9470  213.9430  139.5990 C   0  0  0  0  0  3  0  0  0  0  0  0
  162.2320  212.1650  140.7940 N   0  0  0  0  0  2  0  0  0  0  0  0
  159.8980  211.4290  141.1290 C   0  0  0  0  0  2  0  0  0  0  0  0
  159.8580  213.8500  140.3710 C   0  0  0  0  0  2  0  0  0  0  0  0
  162.1030  213.1060  139.7560 N   0  0  0  0  0  0  0  0  0  0  0  0
  161.2700  211.1060  140.5300 C   0  0  0  0  0  2  0  0  0  0  0  0
  160.2450  212.5600  155.9390 C   0  0  0  0  0  3  0  0  0  0  0  0
  158.2290  213.1760  157.1300 C   0  0  0  0  0  3  0  0  0  0  0  0
  159.5330  211.6070  155.1890 C   0  0  0  0  0  0  0  0  0  0  0  0
  158.1590  211.4500  155.4360 C   0  0  0  0  0  3  0  0  0  0  0  0
  157.5100  212.2280  156.3990 C   0  0  0  0  0  3  0  0  0  0  0  0
  159.5980  213.3390  156.9020 C   0  0  0  0  0  3  0  0  0  0  0  0
  162.1200  208.2810  151.2350 N   0  0  0  0  0  0  0  0  0  0  0  0
  162.4610  208.7970  150.0210 O   0  0  0  0  0  0  0  0  0  0  0  0
  162.9730  207.7230  149.2800 C   0  0  0  0  0  2  0  0  0  0  0  0
  162.5470  207.8360  147.8980 N   0  0  0  0  0  1  0  0  0  0  0  0
  162.4730  206.9020  151.5940 C   0  0  0  0  0  2  0  0  0  0  0  0
  160.4550  203.7970  152.2850 C   0  0  0  0  0  2  0  0  0  0  0  0
  161.1010  205.5200  153.9220 C   0  0  0  0  0  1  0  0  0  0  0  0
  161.0950  204.0370  149.9520 C   0  0  0  0  0  0  0  0  0  0  0  0
  161.1640  205.5310  150.1250 C   0  0  1  0  0  3  0  0  0  0  0  0
  161.4270  204.9350  152.5590 C   0  0  2  0  0  3  0  0  0  0  0  0
  160.7660  203.2190  151.0290 O   0  0  0  0  0  0  0  0  0  0  0  0
  161.3180  203.5250  148.8260 O   0  0  0  0  0  0  0  0  0  0  0  0
  159.9240  206.1750  149.5250 C   0  0  0  0  0  1  0  0  0  0  0  0
  161.3240  205.9860  151.5250 N   0  0  0  0  0  0  0  0  0  0  0  0
  1  8  1  0  0  0  0
  3  1  2  0  0  0  0
  3  6  1  0  0  0  0
  4  9  2  0  0  0  0
  4  3  1  0  0  0  0
  5  6  2  0  0  0  0
  6  7  1  0  0  0  0
  7  2  2  0  0  0  0
  7 37  1  0  0  0  0
  8  2  1  0  0  0  0
  9  5  1  0  0  0  0
 10 18  1  0  0  0  0
 10  9  1  0  0  0  0
 11 16  1  6  0  0  0
 11 15  1  0  0  0  0
 13 12  1  0  0  0  0
 13 10  2  0  0  0  0
 14 16  2  0  0  0  0
 15 21  2  0  0  0  0
 15 13  1  0  0  0  0
 17 18  2  0  0  0  0
 19 24  1  0  0  0  0
 21 17  1  0  0  0  0
 23 22  1  6  0  0  0
 23 11  1  0  0  0  0
 23 19  1  0  0  0  0
 24 20  2  0  0  0  0
 24 12  1  0  0  0  0
 25 14  1  0  0  0  0
 25 22  1  0  0  0  0
 26 27  1  6  0  0  0
 26 14  1  0  0  0  0
 28 26  1  0  0  0  0
 29 33  2  0  0  0  0
 29 32  1  0  0  0  0
 31 28  1  0  0  0  0
 32 28  1  0  0  0  0
 33 30  1  0  0  0  0
 34 30  1  0  0  0  0
 34 31  1  0  0  0  0
 35 40  1  0  0  0  0
 37 38  1  0  0  0  0
 37 35  2  0  0  0  0
 38 39  2  0  0  0  0
 39 36  1  0  0  0  0
 40 36  2  0  0  0  0
 41 45  1  0  0  0  0
 41  1  1  0  0  0  0
 42 41  1  0  0  0  0
 43 42  1  0  0  0  0
 44 43  1  0  0  0  0
 46 50  1  0  0  0  0
 48 49  1  0  0  0  0
 48 51  1  0  0  0  0
 49 53  1  1  0  0  0
 49 54  1  0  0  0  0
 50 47  1  1  0  0  0
 51 46  1  0  0  0  0
 52 48  2  0  0  0  0
 54 45  1  0  0  0  0
 54 50  1  0  0  0  0
M  END
>  <MODEL>
1

>  <REMARK>
 VINA RESULT:      -5.4      0.000      0.000
  Name = 
  9 active torsions:
  status: ('A' for Active; 'I' for Inactive)
    1  A    between atoms: N_1  and  C_14
    2  A    between atoms: C_3  and  N_19
    3  A    between atoms: C_5  and  C_52
    4  A    between atoms: C_14  and  C_20
    5  A    between atoms: N_19  and  O_29
    6  A    between atoms: N_19  and  C_38
    7  A    between atoms: C_23  and  O_29
    8  A    between atoms: C_28  and  C_42
    9  A    between atoms: C_38  and  N_51
                            x       y       z     vdW  Elec       q    Type
                         _______ _______ _______ _____ _____    ______ ____

>  <TORSDO>
F 9

$$$$
=
 OpenBabel11052410093D

 54 61  0  0  1  0  0  0  0  0999 V2000
  159.6310  213.5450  150.5740 C   0  0  0  0  0  0  0  0  0  0  0  0
  159.1020  213.7880  152.9440 C   0  0  0  0  0  3  0  0  0  0  0  0
  160.0780  212.2520  150.8570 C   0  0  0  0  0  0  0  0  0  0  0  0
  160.6050  211.3820  149.9840 N   0  0  0  0  0  0  0  0  0  0  0  0
  160.5520  210.4520  152.0650 C   0  0  0  0  0  3  0  0  0  0  0  0
  160.0360  211.7310  152.1270 C   0  0  0  0  0  0  0  0  0  0  0  0
  159.5490  212.4770  153.2210 C   0  0  0  0  0  0  0  0  0  0  0  0
  159.1410  214.3150  151.6390 C   0  0  0  0  0  2  0  0  0  0  0  0
  160.8960  210.2860  150.7220 C   0  0  0  0  0  0  0  0  0  0  0  0
  161.4800  209.0470  150.1550 C   0  0  0  0  0  0  0  0  0  0  0  0
  162.0230  205.2140  150.7680 C   0  0  2  0  0  3  0  0  0  0  0  0
  160.8680  207.8300  152.1340 O   0  0  0  0  0  0  0  0  0  0  0  0
  161.4640  207.8130  150.8580 C   0  0  0  0  0  0  0  0  0  0  0  0
  160.9420  203.0860  150.0210 C   0  0  0  0  0  0  0  0  0  0  0  0
  162.0340  206.6500  150.2350 C   0  0  0  0  0  0  0  0  0  0  0  0
  161.5030  204.2630  149.7080 C   0  0  0  0  0  3  0  0  0  0  0  0
  162.6990  208.0220  148.3290 C   0  0  0  0  0  3  0  0  0  0  0  0
  162.0950  209.1310  148.9010 C   0  0  0  0  0  3  0  0  0  0  0  0
  161.9660  205.7850  153.0500 C   0  0  0  0  0  2  0  0  0  0  0  0
  160.6940  207.3140  154.4160 C   0  0  0  0  0  2  0  0  0  0  0  0
  162.6690  206.8020  148.9920 C   0  0  0  0  0  3  0  0  0  0  0  0
  161.4520  203.6160  152.4240 C   0  0  0  0  0  2  0  0  0  0  0  0
  161.3000  205.0130  152.0280 N   0  0  2  0  0  0  0  0  0  0  0  0
  161.1780  207.0150  153.2210 C   0  0  0  0  0  0  0  0  0  0  0  0
  160.6740  202.7190  151.4620 C   0  0  0  0  0  2  0  0  0  0  0  0
  160.4100  202.2200  148.9110 C   0  0  1  0  0  3  0  0  0  0  0  0
  159.0220  202.3370  148.7980 O   0  0  0  0  0  1  0  0  0  0  0  0
  161.0430  202.5490  147.6390 N   0  0  0  0  0  0  0  0  0  0  0  0
  160.6130  202.1110  145.2780 C   0  0  0  0  0  3  0  0  0  0  0  0
  160.6730  204.5390  145.8640 N   0  0  0  0  0  2  0  0  0  0  0  0
  162.1150  203.5510  147.6080 C   0  0  0  0  0  2  0  0  0  0  0  0
  160.7870  201.6770  146.5320 C   0  0  0  0  0  2  0  0  0  0  0  0
  160.5940  203.5010  144.9170 N   0  0  0  0  0  0  0  0  0  0  0  0
  162.0190  204.5090  146.4170 C   0  0  0  0  0  2  0  0  0  0  0  0
  158.3780  211.2980  155.1250 C   0  0  0  0  0  3  0  0  0  0  0  0
  159.4740  210.9840  157.2610 C   0  0  0  0  0  3  0  0  0  0  0  0
  159.5090  211.9620  154.6210 C   0  0  0  0  0  0  0  0  0  0  0  0
  160.6180  212.1340  155.4660 C   0  0  0  0  0  3  0  0  0  0  0  0
  160.6020  211.6490  156.7760 C   0  0  0  0  0  3  0  0  0  0  0  0
  158.3600  210.8110  156.4350 C   0  0  0  0  0  3  0  0  0  0  0  0
  159.6770  214.0790  149.2460 N   0  0  0  0  0  0  0  0  0  0  0  0
  158.5200  214.4010  148.6030 O   0  0  0  0  0  0  0  0  0  0  0  0
  157.5840  213.4350  148.9980 C   0  0  0  0  0  2  0  0  0  0  0  0
  156.3290  214.0810  149.3330 N   0  0  0  0  0  1  0  0  0  0  0  0
  160.9820  214.3500  148.6310 C   0  0  0  0  0  2  0  0  0  0  0  0
  163.0140  212.7970  145.8650 C   0  0  0  0  0  2  0  0  0  0  0  0
  163.5350  212.7490  148.2720 C   0  0  0  0  0  1  0  0  0  0  0  0
  160.9920  213.8970  145.0820 C   0  0  0  0  0  0  0  0  0  0  0  0
  160.3470  213.6650  146.4220 C   0  0  1  0  0  3  0  0  0  0  0  0
  162.7350  213.4710  147.2010 C   0  0  2  0  0  3  0  0  0  0  0  0
  162.3000  213.4790  144.8490 O   0  0  0  0  0  0  0  0  0  0  0  0
  160.3430  214.4530  144.1610 O   0  0  0  0  0  0  0  0  0  0  0  0
  159.3740  212.5000  146.3300 C   0  0  0  0  0  1  0  0  0  0  0  0
  161.2960  213.4230  147.5330 N   0  0  0  0  0  0  0  0  0  0  0  0
  1  3  2  0  0  0  0
  1  8  1  0  0  0  0
  2  7  2  0  0  0  0
  3  6  1  0  0  0  0
  4  9  2  0  0  0  0
  4  3  1  0  0  0  0
  5  6  2  0  0  0  0
  6  7  1  0  0  0  0
  7 37  1  0  0  0  0
  8  2  1  0  0  0  0
  9  5  1  0  0  0  0
 10  9  1  0  0  0  0
 10 13  1  0  0  0  0
 11 16  1  6  0  0  0
 11 23  1  0  0  0  0
 12 24  1  0  0  0  0
 13 12  1  0  0  0  0
 14 25  1  0  0  0  0
 15 11  1  0  0  0  0
 15 13  2  0  0  0  0
 16 14  2  0  0  0  0
 17 18  1  0  0  0  0
 17 21  2  0  0  0  0
 18 10  2  0  0  0  0
 19 24  1  0  0  0  0
 21 15  1  0  0  0  0
 23 22  1  1  0  0  0
 23 19  1  0  0  0  0
 24 20  2  0  0  0  0
 25 22  1  0  0  0  0
 26 27  1  6  0  0  0
 26 14  1  0  0  0  0
 28 26  1  0  0  0  0
 29 32  1  0  0  0  0
 30 34  1  0  0  0  0
 31 28  1  0  0  0  0
 32 28  1  0  0  0  0
 33 29  2  0  0  0  0
 33 30  1  0  0  0  0
 34 31  1  0  0  0  0
 35 40  1  0  0  0  0
 37 35  2  0  0  0  0
 37 38  1  0  0  0  0
 38 39  2  0  0  0  0
 39 36  1  0  0  0  0
 40 36  2  0  0  0  0
 41  1  1  0  0  0  0
 42 43  1  0  0  0  0
 42 41  1  0  0  0  0
 43 44  1  0  0  0  0
 45 41  1  0  0  0  0
 46 50  1  0  0  0  0
 48 49  1  0  0  0  0
 49 53  1  6  0  0  0
 49 54  1  0  0  0  0
 50 54  1  0  0  0  0
 50 47  1  1  0  0  0
 51 48  1  0  0  0  0
 51 46  1  0  0  0  0
 52 48  2  0  0  0  0
 54 45  1  0  0  0  0
M  END
>  <MODEL>
2

>  <REMARK>
 VINA RESULT:      -4.7      2.758      8.620
  Name = 
  9 active torsions:
  status: ('A' for Active; 'I' for Inactive)
    1  A    between atoms: N_1  and  C_14
    2  A    between atoms: C_3  and  N_19
    3  A    between atoms: C_5  and  C_52
    4  A    between atoms: C_14  and  C_20
    5  A    between atoms: N_19  and  O_29
    6  A    between atoms: N_19  and  C_38
    7  A    between atoms: C_23  and  O_29
    8  A    between atoms: C_28  and  C_42
    9  A    between atoms: C_38  and  N_51
                            x       y       z     vdW  Elec       q    Type
                         _______ _______ _______ _____ _____    ______ ____

>  <TORSDO>
F 9

$$$$
=
 OpenBabel11052410093D

 54 61  0  0  1  0  0  0  0  0999 V2000
  160.8210  213.1280  149.0540 C   0  0  0  0  0  0  0  0  0  0  0  0
  160.0430  213.8000  151.2660 C   0  0  0  0  0  3  0  0  0  0  0  0
  161.0010  211.8390  149.5610 C   0  0  0  0  0  0  0  0  0  0  0  0
  161.4780  210.7790  148.8950 N   0  0  0  0  0  0  0  0  0  0  0  0
  161.0000  210.1880  151.0450 C   0  0  0  0  0  3  0  0  0  0  0  0
  160.7080  211.5260  150.8660 C   0  0  0  0  0  0  0  0  0  0  0  0
  160.2200  212.4920  151.7720 C   0  0  0  0  0  0  0  0  0  0  0  0
  160.3390  214.1140  149.9260 C   0  0  0  0  0  2  0  0  0  0  0  0
  161.4790  209.7730  149.8000 C   0  0  0  0  0  0  0  0  0  0  0  0
  161.9100  208.3890  149.4880 C   0  0  0  0  0  0  0  0  0  0  0  0
  161.9190  204.6910  150.7850 C   0  0  2  0  0  3  0  0  0  0  0  0
  161.0820  207.6330  151.6140 O   0  0  0  0  0  0  0  0  0  0  0  0
  161.7090  207.3140  150.3930 C   0  0  0  0  0  0  0  0  0  0  0  0
  160.5870  202.6170  150.3630 C   0  0  0  0  0  0  0  0  0  0  0  0
  162.1370  205.9950  150.0120 C   0  0  0  0  0  0  0  0  0  0  0  0
  161.3090  203.6390  149.8800 C   0  0  0  0  0  3  0  0  0  0  0  0
  163.0360  206.9090  147.9350 C   0  0  0  0  0  3  0  0  0  0  0  0
  162.5670  208.1700  148.2740 C   0  0  0  0  0  3  0  0  0  0  0  0
  161.8710  205.6640  152.9270 C   0  0  0  0  0  2  0  0  0  0  0  0
  160.7740  207.5600  153.9380 C   0  0  0  0  0  2  0  0  0  0  0  0
  162.8230  205.8420  148.7970 C   0  0  0  0  0  3  0  0  0  0  0  0
  161.0910  203.5000  152.6610 C   0  0  0  0  0  2  0  0  0  0  0  0
  161.1390  204.8120  152.0210 N   0  0  2  0  0  0  0  0  0  0  0  0
  161.2480  206.9940  152.8410 C   0  0  0  0  0  0  0  0  0  0  0  0
  160.2300  202.5500  151.8300 C   0  0  0  0  0  2  0  0  0  0  0  0
  159.9780  201.6400  149.3940 C   0  0  1  0  0  3  0  0  0  0  0  0
  158.6620  201.9910  149.0820 O   0  0  0  0  0  1  0  0  0  0  0  0
  160.7720  201.5470  148.1740 N   0  0  0  0  0  0  0  0  0  0  0  0
  161.4820  199.7780  146.6520 C   0  0  0  0  0  3  0  0  0  0  0  0
  160.1300  201.5710  145.5590 N   0  0  0  0  0  2  0  0  0  0  0  0
  161.1420  202.7760  147.4630 C   0  0  0  0  0  2  0  0  0  0  0  0
  161.3900  200.2870  147.8860 C   0  0  0  0  0  2  0  0  0  0  0  0
  160.9130  200.4040  145.4920 N   0  0  0  0  0  0  0  0  0  0  0  0
  161.0180  202.6580  145.9400 C   0  0  0  0  0  2  0  0  0  0  0  0
  158.7470  212.6950  153.8150 C   0  0  0  0  0  3  0  0  0  0  0  0
  159.3530  211.6240  155.9000 C   0  0  0  0  0  3  0  0  0  0  0  0
  159.9140  212.2040  153.2020 C   0  0  0  0  0  0  0  0  0  0  0  0
  160.7960  211.4250  153.9680 C   0  0  0  0  0  3  0  0  0  0  0  0
  160.5200  211.1360  155.3080 C   0  0  0  0  0  3  0  0  0  0  0  0
  158.4680  212.4060  155.1540 C   0  0  0  0  0  3  0  0  0  0  0  0
  161.1280  213.4450  147.6910 N   0  0  0  0  0  0  0  0  0  0  0  0
  162.1150  214.3410  147.4080 O   0  0  0  0  0  0  0  0  0  0  0  0
  163.2890  213.7990  147.9500 C   0  0  0  0  0  2  0  0  0  0  0  0
  163.6950  212.6420  147.1750 N   0  0  0  0  0  1  0  0  0  0  0  0
  160.4290  212.7300  146.6160 C   0  0  0  0  0  2  0  0  0  0  0  0
  158.4030  214.1940  143.7980 C   0  0  0  0  0  2  0  0  0  0  0  0
  157.9630  214.4510  146.2080 C   0  0  0  0  0  1  0  0  0  0  0  0
  160.3310  212.9190  143.0450 C   0  0  0  0  0  0  0  0  0  0  0  0
  161.0310  213.2100  144.3450 C   0  0  1  0  0  3  0  0  0  0  0  0
  158.6850  213.6050  145.1740 C   0  0  2  0  0  3  0  0  0  0  0  0
  159.0430  213.3960  142.8170 O   0  0  0  0  0  0  0  0  0  0  0  0
  160.9170  212.2570  142.1510 O   0  0  0  0  0  0  0  0  0  0  0  0
  162.0670  214.3030  144.1380 C   0  0  0  0  0  1  0  0  0  0  0  0
  160.1340  213.5900  145.4600 N   0  0  0  0  0  0  0  0  0  0  0  0
  1  3  2  0  0  0  0
  1  8  1  0  0  0  0
  2  7  2  0  0  0  0
  3  6  1  0  0  0  0
  4  3  1  0  0  0  0
  4  9  2  0  0  0  0
  6  5  2  0  0  0  0
  6  7  1  0  0  0  0
  7 37  1  0  0  0  0
  8  2  1  0  0  0  0
  9  5  1  0  0  0  0
 10  9  1  0  0  0  0
 10 13  1  0  0  0  0
 11 16  1  6  0  0  0
 11 23  1  0  0  0  0
 12 24  1  0  0  0  0
 13 12  1  0  0  0  0
 14 25  1  0  0  0  0
 15 13  2  0  0  0  0
 15 11  1  0  0  0  0
 16 14  2  0  0  0  0
 17 18  1  0  0  0  0
 17 21  2  0  0  0  0
 18 10  2  0  0  0  0
 21 15  1  0  0  0  0
 23 22  1  1  0  0  0
 23 19  1  0  0  0  0
 24 19  1  0  0  0  0
 24 20  2  0  0  0  0
 25 22  1  0  0  0  0
 26 27  1  6  0  0  0
 26 14  1  0  0  0  0
 28 26  1  0  0  0  0
 29 32  1  0  0  0  0
 30 34  1  0  0  0  0
 31 28  1  0  0  0  0
 32 28  1  0  0  0  0
 33 30  1  0  0  0  0
 33 29  2  0  0  0  0
 34 31  1  0  0  0  0
 35 40  1  0  0  0  0
 37 35  2  0  0  0  0
 37 38  1  0  0  0  0
 38 39  2  0  0  0  0
 39 36  1  0  0  0  0
 40 36  2  0  0  0  0
 41  1  1  0  0  0  0
 42 41  1  0  0  0  0
 42 43  1  0  0  0  0
 44 43  1  0  0  0  0
 45 41  1  0  0  0  0
 46 50  1  0  0  0  0
 48 49  1  0  0  0  0
 49 53  1  6  0  0  0
 49 54  1  0  0  0  0
 50 54  1  0  0  0  0
 50 47  1  1  0  0  0
 51 48  1  0  0  0  0
 51 46  1  0  0  0  0
 52 48  2  0  0  0  0
 54 45  1  0  0  0  0
M  END
>  <MODEL>
3

>  <REMARK>
 VINA RESULT:      -4.6      2.513      9.291
  Name = 
  9 active torsions:
  status: ('A' for Active; 'I' for Inactive)
    1  A    between atoms: N_1  and  C_14
    2  A    between atoms: C_3  and  N_19
    3  A    between atoms: C_5  and  C_52
    4  A    between atoms: C_14  and  C_20
    5  A    between atoms: N_19  and  O_29
    6  A    between atoms: N_19  and  C_38
    7  A    between atoms: C_23  and  O_29
    8  A    between atoms: C_28  and  C_42
    9  A    between atoms: C_38  and  N_51
                            x       y       z     vdW  Elec       q    Type
                         _______ _______ _______ _____ _____    ______ ____

>  <TORSDO>
F 9

$$$$
=
 OpenBabel11052410093D

 54 61  0  0  1  0  0  0  0  0999 V2000
  160.5360  213.5220  150.2290 C   0  0  0  0  0  0  0  0  0  0  0  0
  159.5050  213.9620  152.3960 C   0  0  0  0  0  3  0  0  0  0  0  0
  160.6700  212.1870  150.6170 C   0  0  0  0  0  0  0  0  0  0  0  0
  161.2300  211.2010  149.9040 N   0  0  0  0  0  0  0  0  0  0  0  0
  160.5170  210.3910  151.9130 C   0  0  0  0  0  3  0  0  0  0  0  0
  160.2330  211.7400  151.8400 C   0  0  0  0  0  0  0  0  0  0  0  0
  159.6360  212.6080  152.7800 C   0  0  0  0  0  0  0  0  0  0  0  0
  159.9480  214.4130  151.1380 C   0  0  0  0  0  2  0  0  0  0  0  0
  161.1390  210.1070  150.6950 C   0  0  0  0  0  0  0  0  0  0  0  0
  161.6160  208.7620  150.2930 C   0  0  0  0  0  0  0  0  0  0  0  0
  161.7150  204.9820  151.3210 C   0  0  2  0  0  3  0  0  0  0  0  0
  160.7760  207.8310  152.3420 O   0  0  0  0  0  0  0  0  0  0  0  0
  161.4320  207.6180  151.1150 C   0  0  0  0  0  0  0  0  0  0  0  0
  160.4530  202.9050  150.7270 C   0  0  0  0  0  0  0  0  0  0  0  0
  161.9060  206.3440  150.6480 C   0  0  0  0  0  0  0  0  0  0  0  0
  161.1520  203.9800  150.3320 C   0  0  0  0  0  3  0  0  0  0  0  0
  162.8120  207.4310  148.6590 C   0  0  0  0  0  3  0  0  0  0  0  0
  162.3000  208.6490  149.0780 C   0  0  0  0  0  3  0  0  0  0  0  0
  161.6010  205.7960  153.5260 C   0  0  0  0  0  2  0  0  0  0  0  0
  160.4310  207.5820  154.6500 C   0  0  0  0  0  2  0  0  0  0  0  0
  162.6170  206.2980  149.4380 C   0  0  0  0  0  3  0  0  0  0  0  0
  160.8920  203.6350  153.0910 C   0  0  0  0  0  2  0  0  0  0  0  0
  160.9110  204.9900  152.5480 N   0  0  2  0  0  0  0  0  0  0  0  0
  160.9410  207.1100  153.5240 C   0  0  0  0  0  0  0  0  0  0  0  0
  160.0740  202.7230  152.1780 C   0  0  0  0  0  2  0  0  0  0  0  0
  159.8900  201.9840  149.6790 C   0  0  1  0  0  3  0  0  0  0  0  0
  158.6050  202.3780  149.2970 O   0  0  0  0  0  1  0  0  0  0  0  0
  160.7610  201.9230  148.5110 N   0  0  0  0  0  0  0  0  0  0  0  0
  161.5470  200.2000  146.9740 C   0  0  0  0  0  3  0  0  0  0  0  0
  160.2920  202.0520  145.8630 N   0  0  0  0  0  2  0  0  0  0  0  0
  161.1930  203.1710  147.8710 C   0  0  0  0  0  2  0  0  0  0  0  0
  161.3800  200.6650  148.2180 C   0  0  0  0  0  2  0  0  0  0  0  0
  161.0630  200.8770  145.8030 N   0  0  0  0  0  0  0  0  0  0  0  0
  161.1670  203.1110  146.3410 C   0  0  0  0  0  2  0  0  0  0  0  0
  157.9420  212.6080  154.6550 C   0  0  0  0  0  3  0  0  0  0  0  0
  158.3140  211.3180  156.6700 C   0  0  0  0  0  3  0  0  0  0  0  0
  159.1720  212.1740  154.1290 C   0  0  0  0  0  0  0  0  0  0  0  0
  159.9650  211.3110  154.9020 C   0  0  0  0  0  3  0  0  0  0  0  0
  159.5410  210.8840  156.1640 C   0  0  0  0  0  3  0  0  0  0  0  0
  157.5160  212.1830  155.9170 C   0  0  0  0  0  3  0  0  0  0  0  0
  160.9930  213.9780  148.9500 N   0  0  0  0  0  0  0  0  0  0  0  0
  162.3150  213.8910  148.6320 O   0  0  0  0  0  0  0  0  0  0  0  0
  162.3890  214.1060  147.2490 C   0  0  0  0  0  2  0  0  0  0  0  0
  163.4750  213.3220  146.6910 N   0  0  0  0  0  1  0  0  0  0  0  0
  160.0110  214.4530  147.9680 C   0  0  0  0  0  2  0  0  0  0  0  0
  157.9280  212.3030  145.6800 C   0  0  0  0  0  2  0  0  0  0  0  0
  160.3820  212.2680  145.8950 C   0  0  0  0  0  1  0  0  0  0  0  0
  156.6100  213.8100  147.0600 C   0  0  0  0  0  0  0  0  0  0  0  0
  157.7030  213.8160  148.0960 C   0  0  1  0  0  3  0  0  0  0  0  0
  159.1370  213.0990  146.1530 C   0  0  2  0  0  3  0  0  0  0  0  0
  156.7600  213.0780  145.8850 O   0  0  0  0  0  0  0  0  0  0  0  0
  155.5490  214.4530  147.2630 O   0  0  0  0  0  0  0  0  0  0  0  0
  157.3140  212.9160  149.2580 C   0  0  0  0  0  1  0  0  0  0  0  0
  159.0360  213.4170  147.5930 N   0  0  0  0  0  0  0  0  0  0  0  0
  1  3  2  0  0  0  0
  1  8  1  0  0  0  0
  2  7  2  0  0  0  0
  3  6  1  0  0  0  0
  4  3  1  0  0  0  0
  4  9  2  0  0  0  0
  6  5  2  0  0  0  0
  6  7  1  0  0  0  0
  7 37  1  0  0  0  0
  8  2  1  0  0  0  0
  9  5  1  0  0  0  0
 10  9  1  0  0  0  0
 10 13  1  0  0  0  0
 11 16  1  6  0  0  0
 11 23  1  0  0  0  0
 12 24  1  0  0  0  0
 13 12  1  0  0  0  0
 14 25  1  0  0  0  0
 15 13  2  0  0  0  0
 15 11  1  0  0  0  0
 16 14  2  0  0  0  0
 17 18  1  0  0  0  0
 17 21  2  0  0  0  0
 18 10  2  0  0  0  0
 21 15  1  0  0  0  0
 23 22  1  1  0  0  0
 23 19  1  0  0  0  0
 24 19  1  0  0  0  0
 24 20  2  0  0  0  0
 25 22  1  0  0  0  0
 26 27  1  6  0  0  0
 26 14  1  0  0  0  0
 28 26  1  0  0  0  0
 29 32  1  0  0  0  0
 30 34  1  0  0  0  0
 31 28  1  0  0  0  0
 32 28  1  0  0  0  0
 33 30  1  0  0  0  0
 33 29  2  0  0  0  0
 34 31  1  0  0  0  0
 35 40  1  0  0  0  0
 37 35  2  0  0  0  0
 37 38  1  0  0  0  0
 38 39  2  0  0  0  0
 39 36  1  0  0  0  0
 40 36  2  0  0  0  0
 41  1  1  0  0  0  0
 42 41  1  0  0  0  0
 43 42  1  0  0  0  0
 44 43  1  0  0  0  0
 45 41  1  0  0  0  0
 46 51  1  0  0  0  0
 46 50  1  0  0  0  0
 48 52  2  0  0  0  0
 48 49  1  0  0  0  0
 49 53  1  1  0  0  0
 50 47  1  1  0  0  0
 50 54  1  0  0  0  0
 51 48  1  0  0  0  0
 54 45  1  0  0  0  0
 54 49  1  0  0  0  0
M  END
>  <MODEL>
4

>  <REMARK>
 VINA RESULT:      -4.3      2.833      9.015
  Name = 
  9 active torsions:
  status: ('A' for Active; 'I' for Inactive)
    1  A    between atoms: N_1  and  C_14
    2  A    between atoms: C_3  and  N_19
    3  A    between atoms: C_5  and  C_52
    4  A    between atoms: C_14  and  C_20
    5  A    between atoms: N_19  and  O_29
    6  A    between atoms: N_19  and  C_38
    7  A    between atoms: C_23  and  O_29
    8  A    between atoms: C_28  and  C_42
    9  A    between atoms: C_38  and  N_51
                            x       y       z     vdW  Elec       q    Type
                         _______ _______ _______ _____ _____    ______ ____

>  <TORSDO>
F 9

$$$$
=
 OpenBabel11052410093D

 54 61  0  0  1  0  0  0  0  0999 V2000
  160.6530  209.6150  152.8420 C   0  0  0  0  0  0  0  0  0  0  0  0
  159.9850  210.3980  155.0540 C   0  0  0  0  0  3  0  0  0  0  0  0
  160.0400  210.7520  152.3080 C   0  0  0  0  0  0  0  0  0  0  0  0
  159.9450  211.0700  151.0100 N   0  0  0  0  0  0  0  0  0  0  0  0
  158.9220  212.6690  152.2750 C   0  0  0  0  0  3  0  0  0  0  0  0
  159.4280  211.6880  153.1050 C   0  0  0  0  0  0  0  0  0  0  0  0
  159.3730  211.5490  154.5080 C   0  0  0  0  0  0  0  0  0  0  0  0
  160.6170  209.4450  154.2330 C   0  0  0  0  0  2  0  0  0  0  0  0
  159.2620  212.2380  150.9900 C   0  0  0  0  0  0  0  0  0  0  0  0
  158.9440  212.9820  149.7470 C   0  0  0  0  0  0  0  0  0  0  0  0
  160.3470  214.1080  146.2660 C   0  0  2  0  0  3  0  0  0  0  0  0
  161.1780  212.6220  148.9390 O   0  0  0  0  0  0  0  0  0  0  0  0
  159.9010  213.1720  148.7150 C   0  0  0  0  0  0  0  0  0  0  0  0
  160.1590  213.3320  143.8960 C   0  0  0  0  0  0  0  0  0  0  0  0
  159.5130  213.8880  147.5310 C   0  0  0  0  0  0  0  0  0  0  0  0
  159.5580  213.7010  145.0370 C   0  0  0  0  0  3  0  0  0  0  0  0
  157.3130  214.2800  148.5130 C   0  0  0  0  0  3  0  0  0  0  0  0
  157.6650  213.5360  149.6280 C   0  0  0  0  0  3  0  0  0  0  0  0
  162.4470  214.0400  147.3270 C   0  0  0  0  0  2  0  0  0  0  0  0
  163.5240  212.6010  148.9350 C   0  0  0  0  0  2  0  0  0  0  0  0
  158.2280  214.4530  147.4830 C   0  0  0  0  0  3  0  0  0  0  0  0
  162.3480  213.8340  145.0220 C   0  0  0  0  0  2  0  0  0  0  0  0
  161.6650  213.4640  146.2590 N   0  0  2  0  0  0  0  0  0  0  0  0
  162.3950  213.0840  148.4420 C   0  0  0  0  0  0  0  0  0  0  0  0
  161.6600  213.1690  143.8320 C   0  0  0  0  0  2  0  0  0  0  0  0
  159.3030  212.8990  142.7360 C   0  0  1  0  0  3  0  0  0  0  0  0
  158.2450  213.7880  142.5290 O   0  0  0  0  0  1  0  0  0  0  0  0
  160.0930  212.7710  141.5180 N   0  0  0  0  0  0  0  0  0  0  0  0
  160.9750  214.2740  139.8110 C   0  0  0  0  0  3  0  0  0  0  0  0
  162.7310  212.9640  141.0120 N   0  0  0  0  0  2  0  0  0  0  0  0
  160.7560  211.4960  141.2230 C   0  0  0  0  0  2  0  0  0  0  0  0
  159.9520  213.8000  140.5310 C   0  0  0  0  0  2  0  0  0  0  0  0
  162.3360  213.8530  139.9950 N   0  0  0  0  0  0  0  0  0  0  0  0
  162.1770  211.6610  140.6760 C   0  0  0  0  0  2  0  0  0  0  0  0
  157.3140  212.4600  155.6560 C   0  0  0  0  0  3  0  0  0  0  0  0
  157.4550  214.3710  157.1360 C   0  0  0  0  0  3  0  0  0  0  0  0
  158.6970  212.5250  155.4100 C   0  0  0  0  0  0  0  0  0  0  0  0
  159.4430  213.5360  156.0380 C   0  0  0  0  0  3  0  0  0  0  0  0
  158.8280  214.4530  156.8950 C   0  0  0  0  0  3  0  0  0  0  0  0
  156.6970  213.3760  156.5130 C   0  0  0  0  0  3  0  0  0  0  0  0
  161.2900  208.6460  152.0020 N   0  0  0  0  0  0  0  0  0  0  0  0
  162.6010  208.7980  151.6640 O   0  0  0  0  0  0  0  0  0  0  0  0
  162.6670  209.9810  150.9160 C   0  0  0  0  0  2  0  0  0  0  0  0
  162.4870  209.6790  149.5090 N   0  0  0  0  0  1  0  0  0  0  0  0
  160.5390  207.4540  151.5890 C   0  0  0  0  0  2  0  0  0  0  0  0
  161.3590  205.1550  148.7200 C   0  0  0  0  0  2  0  0  0  0  0  0
  161.0110  207.5900  148.5940 C   0  0  0  0  0  1  0  0  0  0  0  0
  161.2210  204.0170  150.8640 C   0  0  0  0  0  0  0  0  0  0  0  0
  161.5880  205.2970  151.5670 C   0  0  1  0  0  3  0  0  0  0  0  0
  160.7520  206.3530  149.4370 C   0  0  2  0  0  3  0  0  0  0  0  0
  161.0980  203.9860  149.4780 O   0  0  0  0  0  0  0  0  0  0  0  0
  161.0420  202.9650  151.5290 O   0  0  0  0  0  0  0  0  0  0  0  0
  163.0470  205.2510  151.9900 C   0  0  0  0  0  1  0  0  0  0  0  0
  161.3450  206.5270  150.7790 N   0  0  0  0  0  0  0  0  0  0  0  0
  1  8  1  0  0  0  0
  3  1  2  0  0  0  0
  3  6  1  0  0  0  0
  4  3  1  0  0  0  0
  5  6  2  0  0  0  0
  6  7  1  0  0  0  0
  7  2  2  0  0  0  0
  7 37  1  0  0  0  0
  8  2  1  0  0  0  0
  9  4  2  0  0  0  0
  9  5  1  0  0  0  0
 10  9  1  0  0  0  0
 11 16  1  6  0  0  0
 11 15  1  0  0  0  0
 13 12  1  0  0  0  0
 13 10  2  0  0  0  0
 14 16  2  0  0  0  0
 15 13  1  0  0  0  0
 17 18  2  0  0  0  0
 18 10  1  0  0  0  0
 19 24  1  0  0  0  0
 21 15  2  0  0  0  0
 21 17  1  0  0  0  0
 23 22  1  6  0  0  0
 23 11  1  0  0  0  0
 23 19  1  0  0  0  0
 24 20  2  0  0  0  0
 24 12  1  0  0  0  0
 25 14  1  0  0  0  0
 25 22  1  0  0  0  0
 26 27  1  6  0  0  0
 26 14  1  0  0  0  0
 28 26  1  0  0  0  0
 29 33  2  0  0  0  0
 29 32  1  0  0  0  0
 31 28  1  0  0  0  0
 32 28  1  0  0  0  0
 33 30  1  0  0  0  0
 34 30  1  0  0  0  0
 34 31  1  0  0  0  0
 35 40  1  0  0  0  0
 37 35  2  0  0  0  0
 37 38  1  0  0  0  0
 38 39  2  0  0  0  0
 39 36  1  0  0  0  0
 40 36  2  0  0  0  0
 41  1  1  0  0  0  0
 42 41  1  0  0  0  0
 43 42  1  0  0  0  0
 44 43  1  0  0  0  0
 45 41  1  0  0  0  0
 46 50  1  0  0  0  0
 46 51  1  0  0  0  0
 48 52  2  0  0  0  0
 48 49  1  0  0  0  0
 49 53  1  6  0  0  0
 50 47  1  6  0  0  0
 50 54  1  0  0  0  0
 51 48  1  0  0  0  0
 54 49  1  0  0  0  0
 54 45  1  0  0  0  0
M  END
>  <MODEL>
5

>  <REMARK>
 VINA RESULT:      -3.9      1.015      1.761
  Name = 
  9 active torsions:
  status: ('A' for Active; 'I' for Inactive)
    1  A    between atoms: N_1  and  C_14
    2  A    between atoms: C_3  and  N_19
    3  A    between atoms: C_5  and  C_52
    4  A    between atoms: C_14  and  C_20
    5  A    between atoms: N_19  and  O_29
    6  A    between atoms: N_19  and  C_38
    7  A    between atoms: C_23  and  O_29
    8  A    between atoms: C_28  and  C_42
    9  A    between atoms: C_38  and  N_51
                            x       y       z     vdW  Elec       q    Type
                         _______ _______ _______ _____ _____    ______ ____

>  <TORSDO>
F 9

$$$$
=
 OpenBabel11052410093D

 54 61  0  0  1  0  0  0  0  0999 V2000
  160.9240  209.4370  152.9910 C   0  0  0  0  0  0  0  0  0  0  0  0
  160.3150  210.2580  155.2060 C   0  0  0  0  0  3  0  0  0  0  0  0
  160.3910  210.6150  152.4610 C   0  0  0  0  0  0  0  0  0  0  0  0
  160.3170  210.9430  151.1640 N   0  0  0  0  0  0  0  0  0  0  0  0
  159.4110  212.6060  152.4350 C   0  0  0  0  0  3  0  0  0  0  0  0
  159.8480  211.5890  153.2610 C   0  0  0  0  0  0  0  0  0  0  0  0
  159.7850  211.4510  154.6640 C   0  0  0  0  0  0  0  0  0  0  0  0
  160.8780  209.2650  154.3820 C   0  0  0  0  0  2  0  0  0  0  0  0
  159.7170  212.1560  151.1480 C   0  0  0  0  0  0  0  0  0  0  0  0
  159.4500  212.9230  149.9080 C   0  0  0  0  0  0  0  0  0  0  0  0
  160.8660  213.8490  146.3730 C   0  0  2  0  0  3  0  0  0  0  0  0
  161.5980  212.2930  149.0350 O   0  0  0  0  0  0  0  0  0  0  0  0
  160.3890  212.9900  148.8450 C   0  0  0  0  0  0  0  0  0  0  0  0
  160.5100  213.0840  144.0180 C   0  0  0  0  0  0  0  0  0  0  0  0
  160.0510  213.7390  147.6650 C   0  0  0  0  0  0  0  0  0  0  0  0
  159.9950  213.5300  145.1740 C   0  0  0  0  0  3  0  0  0  0  0  0
  157.9460  214.3970  148.7100 C   0  0  0  0  0  3  0  0  0  0  0  0
  158.2430  213.6250  149.8230 C   0  0  0  0  0  3  0  0  0  0  0  0
  162.9750  213.5390  147.3690 C   0  0  0  0  0  2  0  0  0  0  0  0
  163.9240  211.9930  148.9590 C   0  0  0  0  0  2  0  0  0  0  0  0
  158.8420  214.4520  147.6510 C   0  0  0  0  0  3  0  0  0  0  0  0
  162.7790  213.3300  145.0710 C   0  0  0  0  0  2  0  0  0  0  0  0
  162.0960  213.0530  146.3320 N   0  0  2  0  0  0  0  0  0  0  0  0
  162.8460  212.6040  148.4960 C   0  0  0  0  0  0  0  0  0  0  0  0
  161.9780  212.7420  143.9100 C   0  0  0  0  0  2  0  0  0  0  0  0
  159.5720  212.7480  142.8910 C   0  0  1  0  0  3  0  0  0  0  0  0
  158.5640  213.7080  142.7680 O   0  0  0  0  0  1  0  0  0  0  0  0
  160.2920  212.6160  141.6290 N   0  0  0  0  0  0  0  0  0  0  0  0
  160.6720  210.8600  139.9790 C   0  0  0  0  0  3  0  0  0  0  0  0
  159.5530  212.8940  139.0560 N   0  0  0  0  0  2  0  0  0  0  0  0
  160.8090  213.8210  140.9690 C   0  0  0  0  0  2  0  0  0  0  0  0
  160.7060  211.3000  141.2430 C   0  0  0  0  0  2  0  0  0  0  0  0
  160.1530  211.6330  138.8850 N   0  0  0  0  0  0  0  0  0  0  0  0
  160.6060  213.8160  139.4510 C   0  0  0  0  0  2  0  0  0  0  0  0
  159.9560  213.4920  156.1440 C   0  0  0  0  0  3  0  0  0  0  0  0
  158.0040  214.3920  157.2580 C   0  0  0  0  0  3  0  0  0  0  0  0
  159.1800  212.4700  155.5700 C   0  0  0  0  0  0  0  0  0  0  0  0
  157.8080  212.4250  155.8630 C   0  0  0  0  0  3  0  0  0  0  0  0
  157.2220  213.3780  156.7010 C   0  0  0  0  0  3  0  0  0  0  0  0
  159.3720  214.4470  156.9820 C   0  0  0  0  0  3  0  0  0  0  0  0
  161.4910  208.4270  152.1480 N   0  0  0  0  0  0  0  0  0  0  0  0
  162.6710  207.8400  152.4920 O   0  0  0  0  0  0  0  0  0  0  0  0
  162.3320  206.7520  153.3080 C   0  0  0  0  0  2  0  0  0  0  0  0
  160.9070  206.7720  153.5810 N   0  0  0  0  0  1  0  0  0  0  0  0
  160.7420  207.9800  150.9670 C   0  0  0  0  0  2  0  0  0  0  0  0
  162.0230  206.6700  147.6750 C   0  0  0  0  0  2  0  0  0  0  0  0
  162.3160  208.9510  148.5600 C   0  0  0  0  0  1  0  0  0  0  0  0
  160.8380  205.0010  148.9870 C   0  0  0  0  0  0  0  0  0  0  0  0
  161.1990  205.7380  150.2500 C   0  0  1  0  0  3  0  0  0  0  0  0
  161.4850  207.6840  148.6750 C   0  0  2  0  0  3  0  0  0  0  0  0
  161.2380  205.4930  147.7470 O   0  0  0  0  0  0  0  0  0  0  0  0
  160.1870  203.9270  149.0510 O   0  0  0  0  0  0  0  0  0  0  0  0
  162.3420  205.0230  150.9520 C   0  0  0  0  0  1  0  0  0  0  0  0
  161.5570  207.1610  150.0560 N   0  0  0  0  0  0  0  0  0  0  0  0
  1  8  1  0  0  0  0
  3  1  2  0  0  0  0
  3  6  1  0  0  0  0
  4  3  1  0  0  0  0
  5  6  2  0  0  0  0
  6  7  1  0  0  0  0
  7  2  2  0  0  0  0
  7 37  1  0  0  0  0
  8  2  1  0  0  0  0
  9  4  2  0  0  0  0
  9  5  1  0  0  0  0
 10  9  1  0  0  0  0
 11 16  1  6  0  0  0
 11 15  1  0  0  0  0
 13 12  1  0  0  0  0
 13 10  2  0  0  0  0
 14 16  2  0  0  0  0
 15 13  1  0  0  0  0
 17 18  2  0  0  0  0
 18 10  1  0  0  0  0
 19 24  1  0  0  0  0
 21 15  2  0  0  0  0
 21 17  1  0  0  0  0
 23 22  1  6  0  0  0
 23 11  1  0  0  0  0
 23 19  1  0  0  0  0
 24 20  2  0  0  0  0
 24 12  1  0  0  0  0
 25 14  1  0  0  0  0
 25 22  1  0  0  0  0
 26 27  1  6  0  0  0
 26 14  1  0  0  0  0
 28 26  1  0  0  0  0
 29 32  1  0  0  0  0
 30 34  1  0  0  0  0
 31 28  1  0  0  0  0
 32 28  1  0  0  0  0
 33 30  1  0  0  0  0
 33 29  2  0  0  0  0
 34 31  1  0  0  0  0
 35 40  1  0  0  0  0
 37 38  1  0  0  0  0
 37 35  2  0  0  0  0
 38 39  2  0  0  0  0
 39 36  1  0  0  0  0
 40 36  2  0  0  0  0
 41 42  1  0  0  0  0
 41  1  1  0  0  0  0
 42 43  1  0  0  0  0
 43 44  1  0  0  0  0
 45 41  1  0  0  0  0
 46 51  1  0  0  0  0
 46 50  1  0  0  0  0
 48 52  2  0  0  0  0
 48 49  1  0  0  0  0
 49 53  1  6  0  0  0
 50 47  1  1  0  0  0
 50 54  1  0  0  0  0
 51 48  1  0  0  0  0
 54 49  1  0  0  0  0
 54 45  1  0  0  0  0
M  END
>  <MODEL>
6

>  <REMARK>
 VINA RESULT:      -2.6      1.207      2.225
  Name = 
  9 active torsions:
  status: ('A' for Active; 'I' for Inactive)
    1  A    between atoms: N_1  and  C_14
    2  A    between atoms: C_3  and  N_19
    3  A    between atoms: C_5  and  C_52
    4  A    between atoms: C_14  and  C_20
    5  A    between atoms: N_19  and  O_29
    6  A    between atoms: N_19  and  C_38
    7  A    between atoms: C_23  and  O_29
    8  A    between atoms: C_28  and  C_42
    9  A    between atoms: C_38  and  N_51
                            x       y       z     vdW  Elec       q    Type
                         _______ _______ _______ _____ _____    ______ ____

>  <TORSDO>
F 9

$$$$
