=
 OpenBabel11052411163D

 27 31  0  0  1  0  0  0  0  0999 V2000
  161.1080  203.2500  151.9530 C   0  0  0  0  0  3  0  0  0  0  0  0
  161.0500  203.2910  150.5460 C   0  0  0  0  0  3  0  0  0  0  0  0
  160.9820  207.1140  150.1160 C   0  0  1  0  0  3  0  0  0  0  0  0
  161.0830  205.6440  152.0030 C   0  0  0  0  0  0  0  0  0  0  0  0
  160.9410  209.2320  151.6410 C   0  0  0  0  0  3  0  0  0  0  0  0
  161.6820  210.7060  157.2610 N   0  0  0  0  0  1  0  0  0  0  0  0
  161.9070  210.2330  155.9390 C   0  0  0  0  0  0  0  0  0  0  0  0
  162.8620  210.7010  155.2640 O   0  0  0  0  0  0  0  0  0  0  0  0
  161.0630  208.7740  154.0390 C   0  0  0  0  0  0  0  0  0  0  0  0
  160.8060  211.1660  153.1900 C   0  0  0  0  0  1  0  0  0  0  0  0
  161.0070  204.5210  149.8680 C   0  0  0  0  0  3  0  0  0  0  0  0
  161.1230  204.4390  152.7000 C   0  0  0  0  0  3  0  0  0  0  0  0
  161.0750  209.1970  155.4090 N   0  0  0  0  0  2  0  0  0  0  0  0
  161.0280  205.6960  150.6220 C   0  0  0  0  0  0  0  0  0  0  0  0
  161.0890  207.4340  153.7760 N   0  0  0  0  0  0  0  0  0  0  0  0
  160.9670  209.7020  152.9630 C   0  0  0  0  0  0  0  0  0  0  0  0
  161.0730  206.9980  152.4920 C   0  0  0  0  0  0  0  0  0  0  0  0
  161.0120  207.8600  151.4230 C   0  0  0  0  0  0  0  0  0  0  0  0
  162.1880  207.4000  149.3520 N   0  0  0  0  0  2  0  0  0  0  0  0
  162.6130  205.7500  147.2340 C   0  0  0  0  0  0  0  0  0  0  0  0
  161.0190  205.1580  145.1420 C   0  0  0  0  0  0  0  0  0  0  0  0
  160.4940  206.0870  146.0390 N   0  0  0  0  0  0  0  0  0  0  0  0
  162.3490  204.5400  145.3210 C   0  0  0  0  0  3  0  0  0  0  0  0
  160.2460  204.7860  144.0070 N   0  0  0  0  0  1  0  0  0  0  0  0
  161.3720  206.2910  147.0160 C   0  0  0  0  0  0  0  0  0  0  0  0
  162.0990  206.6860  148.1500 N   0  0  0  0  0  0  0  0  0  0  0  0
  163.2280  204.8350  146.4330 C   0  0  0  0  0  3  0  0  0  0  0  0
  1 12  1  0  0  0  0
  2  1  2  0  0  0  0
  3 19  1  6  0  0  0
  3 14  1  0  0  0  0
  3 18  1  0  0  0  0
  4 17  1  0  0  0  0
  4 12  2  0  0  0  0
  5 16  2  0  0  0  0
  7  6  1  0  0  0  0
  8  7  2  0  0  0  0
  9 13  1  0  0  0  0
 11  2  1  0  0  0  0
 11 14  2  0  0  0  0
 13  7  1  0  0  0  0
 14  4  1  0  0  0  0
 15  9  2  0  0  0  0
 16 10  1  0  0  0  0
 16  9  1  0  0  0  0
 17 15  1  0  0  0  0
 18  5  1  0  0  0  0
 18 17  2  0  0  0  0
 20 26  1  0  0  0  0
 21 23  2  0  0  0  0
 21 22  1  0  0  0  0
 22 25  2  0  0  0  0
 23 27  1  0  0  0  0
 24 21  1  0  0  0  0
 25 20  1  0  0  0  0
 25 26  1  0  0  0  0
 26 19  1  0  0  0  0
 27 20  2  0  0  0  0
M  END
>  <MODEL>
1

>  <REMARK>
 VINA RESULT:     -10.5      0.000      0.000
  Name = 
  2 active torsions:
  status: ('A' for Active; 'I' for Inactive)
    1  A    between atoms: C_3  and  N_12
    2  A    between atoms: N_12  and  N_23
                            x       y       z     vdW  Elec       q    Type
                         _______ _______ _______ _____ _____    ______ ____

>  <TORSDO>
F 2

$$$$
=
 OpenBabel11052411163D

 27 31  0  0  1  0  0  0  0  0999 V2000
  162.3340  208.6340  148.3080 C   0  0  0  0  0  3  0  0  0  0  0  0
  162.0570  209.2120  149.5620 C   0  0  0  0  0  3  0  0  0  0  0  0
  160.7370  206.0640  151.3370 C   0  0  1  0  0  3  0  0  0  0  0  0
  161.5710  206.5210  149.1390 C   0  0  0  0  0  0  0  0  0  0  0  0
  160.2650  203.5660  150.7470 C   0  0  0  0  0  3  0  0  0  0  0  0
  161.3370  199.7030  146.4760 N   0  0  0  0  0  1  0  0  0  0  0  0
  161.4990  200.6330  147.5390 C   0  0  0  0  0  0  0  0  0  0  0  0
  162.1490  200.3000  148.5660 O   0  0  0  0  0  0  0  0  0  0  0  0
  160.8790  202.9130  148.4720 C   0  0  0  0  0  0  0  0  0  0  0  0
  159.7660  201.2390  150.0430 C   0  0  0  0  0  1  0  0  0  0  0  0
  161.5320  208.4350  150.6090 C   0  0  0  0  0  3  0  0  0  0  0  0
  162.0880  207.2690  148.0840 C   0  0  0  0  0  3  0  0  0  0  0  0
  160.9620  201.9530  147.4110 N   0  0  0  0  0  2  0  0  0  0  0  0
  161.2980  207.0790  150.3750 C   0  0  0  0  0  0  0  0  0  0  0  0
  161.2830  204.1930  148.2200 N   0  0  0  0  0  0  0  0  0  0  0  0
  160.3400  202.5830  149.7480 C   0  0  0  0  0  0  0  0  0  0  0  0
  161.2120  205.1280  149.1990 C   0  0  0  0  0  0  0  0  0  0  0  0
  160.7270  204.8440  150.4540 C   0  0  0  0  0  0  0  0  0  0  0  0
  161.6670  205.8720  152.4410 N   0  0  0  0  0  2  0  0  0  0  0  0
  160.7060  206.8630  154.7820 C   0  0  0  0  0  0  0  0  0  0  0  0
  160.6190  209.4000  155.6920 C   0  0  0  0  0  0  0  0  0  0  0  0
  161.1520  209.2510  154.4130 N   0  0  0  0  0  0  0  0  0  0  0  0
  160.1370  208.2560  156.4940 C   0  0  0  0  0  3  0  0  0  0  0  0
  160.5340  210.7040  156.2530 N   0  0  0  0  0  1  0  0  0  0  0  0
  161.1370  207.9620  154.0840 C   0  0  0  0  0  0  0  0  0  0  0  0
  161.2410  206.6950  153.4920 N   0  0  0  0  0  0  0  0  0  0  0  0
  160.1710  206.8830  156.0350 C   0  0  0  0  0  3  0  0  0  0  0  0
  1  2  1  0  0  0  0
  2 11  2  0  0  0  0
  3 19  1  1  0  0  0
  4 17  1  0  0  0  0
  4 14  2  0  0  0  0
  6  7  1  0  0  0  0
  7  8  2  0  0  0  0
  9 16  1  0  0  0  0
 12  1  2  0  0  0  0
 12  4  1  0  0  0  0
 13  7  1  0  0  0  0
 13  9  1  0  0  0  0
 14 11  1  0  0  0  0
 14  3  1  0  0  0  0
 15  9  2  0  0  0  0
 15 17  1  0  0  0  0
 16 10  1  0  0  0  0
 16  5  2  0  0  0  0
 17 18  2  0  0  0  0
 18  5  1  0  0  0  0
 18  3  1  0  0  0  0
 19 26  1  0  0  0  0
 20 27  1  0  0  0  0
 21 24  1  0  0  0  0
 21 23  1  0  0  0  0
 22 21  2  0  0  0  0
 25 22  1  0  0  0  0
 25 20  2  0  0  0  0
 26 25  1  0  0  0  0
 26 20  1  0  0  0  0
 27 23  2  0  0  0  0
M  END
>  <MODEL>
2

>  <REMARK>
 VINA RESULT:      -9.7      3.301      8.493
  Name = 
  2 active torsions:
  status: ('A' for Active; 'I' for Inactive)
    1  A    between atoms: C_3  and  N_12
    2  A    between atoms: N_12  and  N_23
                            x       y       z     vdW  Elec       q    Type
                         _______ _______ _______ _____ _____    ______ ____

>  <TORSDO>
F 2

$$$$
=
 OpenBabel11052411163D

 27 31  0  0  1  0  0  0  0  0999 V2000
  162.2020  208.7030  148.4060 C   0  0  0  0  0  3  0  0  0  0  0  0
  162.2330  207.3500  148.0150 C   0  0  0  0  0  3  0  0  0  0  0  0
  161.4910  205.7740  151.4450 C   0  0  1  0  0  3  0  0  0  0  0  0
  161.7260  208.0200  150.6520 C   0  0  0  0  0  0  0  0  0  0  0  0
  161.1060  206.5740  153.8990 C   0  0  0  0  0  3  0  0  0  0  0  0
  160.1440  211.5200  156.8870 N   0  0  0  0  0  1  0  0  0  0  0  0
  160.0070  210.4260  155.9890 C   0  0  0  0  0  0  0  0  0  0  0  0
  158.9660  209.7170  156.0250 O   0  0  0  0  0  0  0  0  0  0  0  0
  161.1140  209.0000  154.2020 C   0  0  0  0  0  0  0  0  0  0  0  0
  160.8520  207.4470  156.2090 C   0  0  0  0  0  1  0  0  0  0  0  0
  162.0080  206.3280  148.9530 C   0  0  0  0  0  3  0  0  0  0  0  0
  161.9480  209.0520  149.7430 C   0  0  0  0  0  3  0  0  0  0  0  0
  161.0300  210.1730  155.0230 N   0  0  0  0  0  2  0  0  0  0  0  0
  161.7500  206.6890  150.2770 C   0  0  0  0  0  0  0  0  0  0  0  0
  161.3660  209.1600  152.8690 N   0  0  0  0  0  0  0  0  0  0  0  0
  160.9990  207.6890  154.7460 C   0  0  0  0  0  0  0  0  0  0  0  0
  161.4570  208.0720  152.0650 C   0  0  0  0  0  0  0  0  0  0  0  0
  161.3220  206.7900  152.5430 C   0  0  0  0  0  0  0  0  0  0  0  0
  160.2420  205.0550  151.2360 N   0  0  0  0  0  2  0  0  0  0  0  0
  160.7810  202.5570  150.3120 C   0  0  0  0  0  0  0  0  0  0  0  0
  161.0270  201.6510  147.7840 C   0  0  0  0  0  0  0  0  0  0  0  0
  160.7820  203.0190  147.8990 N   0  0  0  0  0  0  0  0  0  0  0  0
  161.1420  200.7600  148.9560 C   0  0  0  0  0  3  0  0  0  0  0  0
  161.1710  201.0870  146.4860 N   0  0  0  0  0  1  0  0  0  0  0  0
  160.6840  203.3350  149.1870 C   0  0  0  0  0  0  0  0  0  0  0  0
  160.5340  203.9350  150.4460 N   0  0  0  0  0  0  0  0  0  0  0  0
  161.0140  201.2140  150.3250 C   0  0  0  0  0  3  0  0  0  0  0  0
  1 12  1  0  0  0  0
  2  1  2  0  0  0  0
  2 11  1  0  0  0  0
  3 19  1  6  0  0  0
  3 18  1  0  0  0  0
  4 17  1  0  0  0  0
  5 16  2  0  0  0  0
  7  8  2  0  0  0  0
  7  6  1  0  0  0  0
  9 16  1  0  0  0  0
  9 13  1  0  0  0  0
 11 14  2  0  0  0  0
 12  4  2  0  0  0  0
 13  7  1  0  0  0  0
 14  4  1  0  0  0  0
 14  3  1  0  0  0  0
 15  9  2  0  0  0  0
 16 10  1  0  0  0  0
 17 18  2  0  0  0  0
 17 15  1  0  0  0  0
 18  5  1  0  0  0  0
 20 27  1  0  0  0  0
 20 26  1  0  0  0  0
 21 22  2  0  0  0  0
 21 23  1  0  0  0  0
 22 25  1  0  0  0  0
 23 27  2  0  0  0  0
 24 21  1  0  0  0  0
 25 20  2  0  0  0  0
 25 26  1  0  0  0  0
 26 19  1  0  0  0  0
M  END
>  <MODEL>
3

>  <REMARK>
 VINA RESULT:      -9.6      2.403      3.712
  Name = 
  2 active torsions:
  status: ('A' for Active; 'I' for Inactive)
    1  A    between atoms: C_3  and  N_12
    2  A    between atoms: N_12  and  N_23
                            x       y       z     vdW  Elec       q    Type
                         _______ _______ _______ _____ _____    ______ ____

>  <TORSDO>
F 2

$$$$
=
 OpenBabel11052411163D

 27 31  0  0  1  0  0  0  0  0999 V2000
  162.2780  209.4400  148.6340 C   0  0  0  0  0  3  0  0  0  0  0  0
  162.3010  208.1190  148.1430 C   0  0  0  0  0  3  0  0  0  0  0  0
  161.4710  206.3010  151.4300 C   0  0  1  0  0  3  0  0  0  0  0  0
  161.7470  208.5980  150.8120 C   0  0  0  0  0  0  0  0  0  0  0  0
  161.0440  206.9210  153.9300 C   0  0  0  0  0  3  0  0  0  0  0  0
  160.0780  211.6410  157.2600 N   0  0  0  0  0  1  0  0  0  0  0  0
  159.9470  210.6200  156.2800 C   0  0  0  0  0  0  0  0  0  0  0  0
  158.8980  209.9230  156.2430 O   0  0  0  0  0  0  0  0  0  0  0  0
  161.0740  209.3170  154.4130 C   0  0  0  0  0  0  0  0  0  0  0  0
  160.7530  207.6210  156.2930 C   0  0  0  0  0  1  0  0  0  0  0  0
  162.0450  207.0340  148.9980 C   0  0  0  0  0  3  0  0  0  0  0  0
  162.0000  209.6910  149.9880 C   0  0  0  0  0  3  0  0  0  0  0  0
  160.9870  210.4260  155.3180 N   0  0  0  0  0  2  0  0  0  0  0  0
  161.7640  207.2980  150.3390 C   0  0  0  0  0  0  0  0  0  0  0  0
  161.3550  209.5720  153.1020 N   0  0  0  0  0  0  0  0  0  0  0  0
  160.9330  207.9700  154.8550 C   0  0  0  0  0  0  0  0  0  0  0  0
  161.4510  208.5470  152.2200 C   0  0  0  0  0  0  0  0  0  0  0  0
  161.2910  207.2350  152.5980 C   0  0  0  0  0  0  0  0  0  0  0  0
  160.2180  205.6170  151.1430 N   0  0  0  0  0  2  0  0  0  0  0  0
  160.8630  204.2250  148.9000 C   0  0  0  0  0  0  0  0  0  0  0  0
  161.2450  201.5800  148.5420 C   0  0  0  0  0  0  0  0  0  0  0  0
  160.8810  201.9530  149.8350 N   0  0  0  0  0  0  0  0  0  0  0  0
  161.4120  202.5560  147.4460 C   0  0  0  0  0  3  0  0  0  0  0  0
  161.4660  200.2030  148.2620 N   0  0  0  0  0  1  0  0  0  0  0  0
  160.7230  203.2730  149.8770 C   0  0  0  0  0  0  0  0  0  0  0  0
  160.4950  204.6190  150.1990 N   0  0  0  0  0  0  0  0  0  0  0  0
  161.2160  203.9820  147.6060 C   0  0  0  0  0  3  0  0  0  0  0  0
  1 12  1  0  0  0  0
  2  1  2  0  0  0  0
  2 11  1  0  0  0  0
  3 19  1  6  0  0  0
  3 18  1  0  0  0  0
  4 17  1  0  0  0  0
  5 16  2  0  0  0  0
  7  6  1  0  0  0  0
  8  7  2  0  0  0  0
  9 16  1  0  0  0  0
  9 13  1  0  0  0  0
 11 14  2  0  0  0  0
 12  4  2  0  0  0  0
 13  7  1  0  0  0  0
 14  4  1  0  0  0  0
 14  3  1  0  0  0  0
 15  9  2  0  0  0  0
 16 10  1  0  0  0  0
 17 18  2  0  0  0  0
 17 15  1  0  0  0  0
 18  5  1  0  0  0  0
 20 25  1  0  0  0  0
 20 26  1  0  0  0  0
 21 22  1  0  0  0  0
 22 25  2  0  0  0  0
 23 27  1  0  0  0  0
 23 21  2  0  0  0  0
 24 21  1  0  0  0  0
 25 26  1  0  0  0  0
 26 19  1  0  0  0  0
 27 20  2  0  0  0  0
M  END
>  <MODEL>
4

>  <REMARK>
 VINA RESULT:      -8.6      2.574      3.735
  Name = 
  2 active torsions:
  status: ('A' for Active; 'I' for Inactive)
    1  A    between atoms: C_3  and  N_12
    2  A    between atoms: N_12  and  N_23
                            x       y       z     vdW  Elec       q    Type
                         _______ _______ _______ _____ _____    ______ ____

>  <TORSDO>
F 2

$$$$
=
 OpenBabel11052411163D

 27 31  0  0  1  0  0  0  0  0999 V2000
  161.2850  203.8040  150.7740 C   0  0  0  0  0  3  0  0  0  0  0  0
  161.2180  204.0810  149.3940 C   0  0  0  0  0  3  0  0  0  0  0  0
  161.0710  207.9190  149.6140 C   0  0  1  0  0  3  0  0  0  0  0  0
  161.2110  206.1550  151.2270 C   0  0  0  0  0  0  0  0  0  0  0  0
  160.9950  209.7480  151.4740 C   0  0  0  0  0  3  0  0  0  0  0  0
  161.7340  210.2700  157.2610 N   0  0  0  0  0  1  0  0  0  0  0  0
  161.9620  210.0310  155.8780 C   0  0  0  0  0  0  0  0  0  0  0  0
  162.9040  210.6260  155.2900 O   0  0  0  0  0  0  0  0  0  0  0  0
  161.1380  208.8950  153.7610 C   0  0  0  0  0  0  0  0  0  0  0  0
  160.8280  211.3910  153.3270 C   0  0  0  0  0  1  0  0  0  0  0  0
  161.1470  205.4060  148.9320 C   0  0  0  0  0  3  0  0  0  0  0  0
  161.2790  204.8500  151.7110 C   0  0  0  0  0  3  0  0  0  0  0  0
  161.1480  209.0830  155.1820 N   0  0  0  0  0  2  0  0  0  0  0  0
  161.1480  206.4370  149.8740 C   0  0  0  0  0  0  0  0  0  0  0  0
  161.1900  207.6200  153.2750 N   0  0  0  0  0  0  0  0  0  0  0  0
  161.0180  209.9890  152.8560 C   0  0  0  0  0  0  0  0  0  0  0  0
  161.1760  207.4060  151.9370 C   0  0  0  0  0  0  0  0  0  0  0  0
  161.0920  208.4350  151.0280 C   0  0  0  0  0  0  0  0  0  0  0  0
  162.2680  208.3540  148.9070 N   0  0  0  0  0  2  0  0  0  0  0  0
  162.5230  211.0380  148.5690 C   0  0  0  0  0  0  0  0  0  0  0  0
  160.9990  212.7690  147.1710 C   0  0  0  0  0  0  0  0  0  0  0  0
  160.5510  211.4480  147.1610 N   0  0  0  0  0  0  0  0  0  0  0  0
  162.2180  213.1930  147.8900 C   0  0  0  0  0  3  0  0  0  0  0  0
  160.2560  213.7510  146.4590 N   0  0  0  0  0  1  0  0  0  0  0  0
  161.3830  210.7030  147.8830 C   0  0  0  0  0  0  0  0  0  0  0  0
  162.0850  209.7010  148.5700 N   0  0  0  0  0  0  0  0  0  0  0  0
  163.0580  212.2890  148.6480 C   0  0  0  0  0  3  0  0  0  0  0  0
  1 12  1  0  0  0  0
  2  1  2  0  0  0  0
  3 19  1  6  0  0  0
  3 14  1  0  0  0  0
  3 18  1  0  0  0  0
  4 12  2  0  0  0  0
  4 17  1  0  0  0  0
  5 16  2  0  0  0  0
  7  6  1  0  0  0  0
  8  7  2  0  0  0  0
  9 13  1  0  0  0  0
 11  2  1  0  0  0  0
 11 14  2  0  0  0  0
 13  7  1  0  0  0  0
 14  4  1  0  0  0  0
 15  9  2  0  0  0  0
 16 10  1  0  0  0  0
 16  9  1  0  0  0  0
 17 15  1  0  0  0  0
 18  5  1  0  0  0  0
 18 17  2  0  0  0  0
 20 26  1  0  0  0  0
 20 27  1  0  0  0  0
 21 23  1  0  0  0  0
 22 21  2  0  0  0  0
 22 25  1  0  0  0  0
 23 27  2  0  0  0  0
 24 21  1  0  0  0  0
 25 20  2  0  0  0  0
 25 26  1  0  0  0  0
 26 19  1  0  0  0  0
M  END
>  <MODEL>
5

>  <REMARK>
 VINA RESULT:      -8.1      2.783      3.812
  Name = 
  2 active torsions:
  status: ('A' for Active; 'I' for Inactive)
    1  A    between atoms: C_3  and  N_12
    2  A    between atoms: N_12  and  N_23
                            x       y       z     vdW  Elec       q    Type
                         _______ _______ _______ _____ _____    ______ ____

>  <TORSDO>
F 2

$$$$
=
 OpenBabel11052411163D

 27 31  0  0  1  0  0  0  0  0999 V2000
  160.8060  203.4730  152.8580 C   0  0  0  0  0  3  0  0  0  0  0  0
  161.1960  204.7860  153.1890 C   0  0  0  0  0  3  0  0  0  0  0  0
  161.8620  206.0720  149.6250 C   0  0  1  0  0  3  0  0  0  0  0  0
  161.1330  203.9830  150.5410 C   0  0  0  0  0  0  0  0  0  0  0  0
  161.8240  205.1310  147.1900 C   0  0  0  0  0  3  0  0  0  0  0  0
  159.9940  200.4050  144.2540 N   0  0  0  0  0  1  0  0  0  0  0  0
  160.0240  201.5900  145.0390 C   0  0  0  0  0  0  0  0  0  0  0  0
  159.3220  202.5800  144.7000 O   0  0  0  0  0  0  0  0  0  0  0  0
  161.0880  202.8080  146.9970 C   0  0  0  0  0  0  0  0  0  0  0  0
  161.8470  204.1010  144.9330 C   0  0  0  0  0  1  0  0  0  0  0  0
  161.5560  205.7000  152.1840 C   0  0  0  0  0  3  0  0  0  0  0  0
  160.7740  203.0570  151.5160 C   0  0  0  0  0  3  0  0  0  0  0  0
  160.8130  201.6280  146.2310 N   0  0  0  0  0  2  0  0  0  0  0  0
  161.5140  205.2760  150.8550 C   0  0  0  0  0  0  0  0  0  0  0  0
  160.9480  202.7460  148.3540 N   0  0  0  0  0  0  0  0  0  0  0  0
  161.5530  204.0100  146.3910 C   0  0  0  0  0  0  0  0  0  0  0  0
  161.2060  203.8420  149.1100 C   0  0  0  0  0  0  0  0  0  0  0  0
  161.6270  205.0310  148.5630 C   0  0  0  0  0  0  0  0  0  0  0  0
  160.9150  207.1670  149.4670 N   0  0  0  0  0  2  0  0  0  0  0  0
  161.8180  209.1240  151.1210 C   0  0  0  0  0  0  0  0  0  0  0  0
  160.8350  210.0090  153.4700 C   0  0  0  0  0  0  0  0  0  0  0  0
  160.1330  208.9480  152.9000 N   0  0  0  0  0  0  0  0  0  0  0  0
  162.0280  210.6090  152.8380 C   0  0  0  0  0  3  0  0  0  0  0  0
  160.3860  210.5400  154.7120 N   0  0  0  0  0  1  0  0  0  0  0  0
  160.7170  208.6080  151.7540 C   0  0  0  0  0  0  0  0  0  0  0  0
  161.1230  208.0530  150.5310 N   0  0  0  0  0  0  0  0  0  0  0  0
  162.5800  210.1580  151.5780 C   0  0  0  0  0  3  0  0  0  0  0  0
  1  2  1  0  0  0  0
  3 19  1  6  0  0  0
  3 14  1  0  0  0  0
  4 14  2  0  0  0  0
  4 12  1  0  0  0  0
  5 18  1  0  0  0  0
  6  7  1  0  0  0  0
  7 13  1  0  0  0  0
  8  7  2  0  0  0  0
  9 15  2  0  0  0  0
 10 16  1  0  0  0  0
 11  2  2  0  0  0  0
 12  1  2  0  0  0  0
 13  9  1  0  0  0  0
 14 11  1  0  0  0  0
 15 17  1  0  0  0  0
 16  9  1  0  0  0  0
 16  5  2  0  0  0  0
 17  4  1  0  0  0  0
 18 17  2  0  0  0  0
 18  3  1  0  0  0  0
 19 26  1  0  0  0  0
 20 27  2  0  0  0  0
 20 25  1  0  0  0  0
 21 24  1  0  0  0  0
 22 21  1  0  0  0  0
 23 21  2  0  0  0  0
 25 22  2  0  0  0  0
 26 20  1  0  0  0  0
 26 25  1  0  0  0  0
 27 23  1  0  0  0  0
M  END
>  <MODEL>
6

>  <REMARK>
 VINA RESULT:      -8.0      3.294      8.056
  Name = 
  2 active torsions:
  status: ('A' for Active; 'I' for Inactive)
    1  A    between atoms: C_3  and  N_12
    2  A    between atoms: N_12  and  N_23
                            x       y       z     vdW  Elec       q    Type
                         _______ _______ _______ _____ _____    ______ ____

>  <TORSDO>
F 2

$$$$
=
 OpenBabel11052411163D

 27 31  0  0  1  0  0  0  0  0999 V2000
  160.9060  209.4340  155.8140 C   0  0  0  0  0  3  0  0  0  0  0  0
  160.7370  208.0470  155.9960 C   0  0  0  0  0  3  0  0  0  0  0  0
  161.0750  206.9680  152.3190 C   0  0  1  0  0  3  0  0  0  0  0  0
  161.1610  209.0710  153.4600 C   0  0  0  0  0  0  0  0  0  0  0  0
  161.4040  208.1030  149.9920 C   0  0  0  0  0  3  0  0  0  0  0  0
  162.7710  213.3270  147.7230 N   0  0  0  0  0  1  0  0  0  0  0  0
  162.8300  212.0950  148.4300 C   0  0  0  0  0  0  0  0  0  0  0  0
  163.7740  211.2910  148.2050 O   0  0  0  0  0  0  0  0  0  0  0  0
  161.6700  210.5320  150.0620 C   0  0  0  0  0  0  0  0  0  0  0  0
  161.6210  209.3000  147.8290 C   0  0  0  0  0  1  0  0  0  0  0  0
  160.7810  207.1710  154.8990 C   0  0  0  0  0  3  0  0  0  0  0  0
  161.1200  209.9620  154.5290 C   0  0  0  0  0  3  0  0  0  0  0  0
  161.8440  211.8040  149.4250 N   0  0  0  0  0  2  0  0  0  0  0  0
  160.9990  207.7080  153.6300 C   0  0  0  0  0  0  0  0  0  0  0  0
  161.5200  210.5030  151.4190 N   0  0  0  0  0  0  0  0  0  0  0  0
  161.5930  209.3200  149.3190 C   0  0  0  0  0  0  0  0  0  0  0  0
  161.3470  209.3180  152.0540 C   0  0  0  0  0  0  0  0  0  0  0  0
  161.2980  208.1220  151.3780 C   0  0  0  0  0  0  0  0  0  0  0  0
  162.2390  206.0930  152.3190 N   0  0  0  0  0  2  0  0  0  0  0  0
  161.5650  203.5720  151.5610 C   0  0  0  0  0  0  0  0  0  0  0  0
  160.8440  202.6140  149.1460 C   0  0  0  0  0  0  0  0  0  0  0  0
  161.1650  203.9710  149.1710 N   0  0  0  0  0  0  0  0  0  0  0  0
  160.8930  201.7610  150.3510 C   0  0  0  0  0  3  0  0  0  0  0  0
  160.4530  202.0230  147.9130 N   0  0  0  0  0  1  0  0  0  0  0  0
  161.5020  204.3140  150.4100 C   0  0  0  0  0  0  0  0  0  0  0  0
  161.8920  204.9390  151.6040 N   0  0  0  0  0  0  0  0  0  0  0  0
  161.2740  202.2440  151.6620 C   0  0  0  0  0  3  0  0  0  0  0  0
  1  2  1  0  0  0  0
  3 19  1  1  0  0  0
  3 14  1  0  0  0  0
  4 14  2  0  0  0  0
  4 12  1  0  0  0  0
  5 18  1  0  0  0  0
  6  7  1  0  0  0  0
  7 13  1  0  0  0  0
  8  7  2  0  0  0  0
  9 15  2  0  0  0  0
 10 16  1  0  0  0  0
 11  2  2  0  0  0  0
 12  1  2  0  0  0  0
 13  9  1  0  0  0  0
 14 11  1  0  0  0  0
 15 17  1  0  0  0  0
 16  5  2  0  0  0  0
 16  9  1  0  0  0  0
 17  4  1  0  0  0  0
 18 17  2  0  0  0  0
 18  3  1  0  0  0  0
 20 26  1  0  0  0  0
 20 27  1  0  0  0  0
 21 22  2  0  0  0  0
 21 23  1  0  0  0  0
 22 25  1  0  0  0  0
 23 27  2  0  0  0  0
 24 21  1  0  0  0  0
 25 20  2  0  0  0  0
 25 26  1  0  0  0  0
 26 19  1  0  0  0  0
M  END
>  <MODEL>
7

>  <REMARK>
 VINA RESULT:      -7.6      3.141      5.262
  Name = 
  2 active torsions:
  status: ('A' for Active; 'I' for Inactive)
    1  A    between atoms: C_3  and  N_12
    2  A    between atoms: N_12  and  N_23
                            x       y       z     vdW  Elec       q    Type
                         _______ _______ _______ _____ _____    ______ ____

>  <TORSDO>
F 2

$$$$
=
 OpenBabel11052411163D

 27 31  0  0  1  0  0  0  0  0999 V2000
  160.9080  203.4050  148.6610 C   0  0  0  0  0  3  0  0  0  0  0  0
  160.7900  202.7940  149.9250 C   0  0  0  0  0  3  0  0  0  0  0  0
  161.4020  205.9100  152.0960 C   0  0  1  0  0  3  0  0  0  0  0  0
  161.3160  205.5040  149.7380 C   0  0  0  0  0  0  0  0  0  0  0  0
  161.9720  208.4330  151.7430 C   0  0  0  0  0  3  0  0  0  0  0  0
  162.2050  212.4000  147.4400 N   0  0  0  0  0  1  0  0  0  0  0  0
  161.7400  211.4370  148.3770 C   0  0  0  0  0  0  0  0  0  0  0  0
  160.7910  211.7290  149.1520 O   0  0  0  0  0  0  0  0  0  0  0  0
  162.0910  209.1420  149.4060 C   0  0  0  0  0  0  0  0  0  0  0  0
  162.6090  210.7870  151.2860 C   0  0  0  0  0  1  0  0  0  0  0  0
  160.9370  203.5480  151.1010 C   0  0  0  0  0  3  0  0  0  0  0  0
  161.1770  204.7800  148.5570 C   0  0  0  0  0  3  0  0  0  0  0  0
  162.3230  210.1310  148.3950 N   0  0  0  0  0  2  0  0  0  0  0  0
  161.1990  204.9150  150.9840 C   0  0  0  0  0  0  0  0  0  0  0  0
  161.8200  207.8630  149.0110 N   0  0  0  0  0  0  0  0  0  0  0  0
  162.1920  209.4430  150.7940 C   0  0  0  0  0  0  0  0  0  0  0  0
  161.6020  206.9010  149.9400 C   0  0  0  0  0  0  0  0  0  0  0  0
  161.6590  207.1560  151.2900 C   0  0  0  0  0  0  0  0  0  0  0  0
  160.1670  206.0540  152.8540 N   0  0  0  0  0  2  0  0  0  0  0  0
  160.4430  206.9340  155.4110 C   0  0  0  0  0  0  0  0  0  0  0  0
  161.7960  209.0520  156.3860 C   0  0  0  0  0  0  0  0  0  0  0  0
  161.8350  208.9150  154.9990 N   0  0  0  0  0  0  0  0  0  0  0  0
  161.0700  208.1090  157.2610 C   0  0  0  0  0  3  0  0  0  0  0  0
  162.4820  210.1430  156.9880 N   0  0  0  0  0  1  0  0  0  0  0  0
  161.1330  207.8420  154.6490 C   0  0  0  0  0  0  0  0  0  0  0  0
  160.4720  206.7810  154.0130 N   0  0  0  0  0  0  0  0  0  0  0  0
  160.3350  206.9610  156.7690 C   0  0  0  0  0  3  0  0  0  0  0  0
  1  2  1  0  0  0  0
  2 11  2  0  0  0  0
  3 19  1  6  0  0  0
  4 17  1  0  0  0  0
  4 14  2  0  0  0  0
  6  7  1  0  0  0  0
  7 13  1  0  0  0  0
  7  8  2  0  0  0  0
  9 16  1  0  0  0  0
 12  1  2  0  0  0  0
 12  4  1  0  0  0  0
 13  9  1  0  0  0  0
 14 11  1  0  0  0  0
 14  3  1  0  0  0  0
 15  9  2  0  0  0  0
 15 17  1  0  0  0  0
 16 10  1  0  0  0  0
 16  5  2  0  0  0  0
 17 18  2  0  0  0  0
 18  5  1  0  0  0  0
 18  3  1  0  0  0  0
 19 26  1  0  0  0  0
 20 27  1  0  0  0  0
 21 24  1  0  0  0  0
 21 23  1  0  0  0  0
 22 21  2  0  0  0  0
 25 22  1  0  0  0  0
 25 20  2  0  0  0  0
 26 25  1  0  0  0  0
 26 20  1  0  0  0  0
 27 23  2  0  0  0  0
M  END
>  <MODEL>
8

>  <REMARK>
 VINA RESULT:      -7.5      2.473      6.843
  Name = 
  2 active torsions:
  status: ('A' for Active; 'I' for Inactive)
    1  A    between atoms: C_3  and  N_12
    2  A    between atoms: N_12  and  N_23
                            x       y       z     vdW  Elec       q    Type
                         _______ _______ _______ _____ _____    ______ ____

>  <TORSDO>
F 2

$$$$
