=
 OpenBabel11042421313D

 27 28  0  0  1  0  0  0  0  0999 V2000
  161.5750  205.7410  153.9710 N   0  0  0  0  0  1  0  0  0  0  0  0
  161.1310  206.6380  151.7140 C   0  0  0  0  0  0  0  0  0  0  0  0
  161.0680  205.1120  149.8180 C   0  0  0  0  0  0  0  0  0  0  0  0
  161.3630  205.5460  152.5750 C   0  0  0  0  0  0  0  0  0  0  0  0
  160.9990  206.4080  150.3360 C   0  0  0  0  0  3  0  0  0  0  0  0
  161.2820  204.0320  150.6840 C   0  0  0  0  0  3  0  0  0  0  0  0
  161.4310  204.2510  152.0540 C   0  0  0  0  0  3  0  0  0  0  0  0
  160.8140  211.8960  153.7270 F   0  0  0  0  0  0  0  0  0  0  0  0
  162.1610  208.9200  150.1950 N   0  0  0  0  0  1  0  0  0  0  0  0
  161.5420  209.1170  151.4640 C   0  0  0  0  0  0  0  0  0  0  0  0
  160.5120  208.2570  153.4870 C   0  0  0  0  0  3  0  0  0  0  0  0
  161.4580  210.4130  151.9810 C   0  0  0  0  0  3  0  0  0  0  0  0
  160.4300  209.5540  153.9990 C   0  0  0  0  0  0  0  0  0  0  0  0
  159.8850  209.7650  155.2580 O   0  0  0  0  0  1  0  0  0  0  0  0
  161.0560  208.0260  152.2140 C   0  0  0  0  0  0  0  0  0  0  0  0
  160.8970  210.6330  153.2410 C   0  0  0  0  0  0  0  0  0  0  0  0
  160.9090  204.9140  148.3410 C   0  0  1  0  0  3  0  0  0  0  0  0
  161.2220  206.1510  147.5500 C   0  0  0  0  0  0  0  0  0  0  0  0
  162.4890  206.7160  147.5900 O   0  0  0  0  0  1  0  0  0  0  0  0
  160.3280  206.6780  146.8390 O   0  0  0  0  0  0  0  0  0  0  0  0
  161.6080  203.6480  147.8300 C   0  0  1  0  0  3  0  0  0  0  0  0
  160.6330  202.4780  147.8160 C   0  0  0  0  0  2  0  0  0  0  0  0
  161.1990  201.3080  148.5960 C   0  0  0  0  0  2  0  0  0  0  0  0
  161.5310  200.1800  147.6410 C   0  0  0  0  0  1  0  0  0  0  0  0
  162.1500  203.8460  146.5560 O   0  0  0  0  0  0  0  0  0  0  0  0
  161.2300  203.2700  145.6770 C   0  0  0  0  0  2  0  0  0  0  0  0
  160.8780  204.2640  144.5920 C   0  0  0  0  0  1  0  0  0  0  0  0
  2 15  1  0  0  0  0
  2  4  1  0  0  0  0
  3  5  1  0  0  0  0
  3  6  2  0  0  0  0
  4  1  1  0  0  0  0
  5  2  2  0  0  0  0
  6  7  1  0  0  0  0
  7  4  2  0  0  0  0
  9 10  1  0  0  0  0
 10 12  2  0  0  0  0
 10 15  1  0  0  0  0
 11 13  1  0  0  0  0
 12 16  1  0  0  0  0
 13 14  1  0  0  0  0
 15 11  2  0  0  0  0
 16  8  1  0  0  0  0
 16 13  2  0  0  0  0
 17 18  1  6  0  0  0
 17  3  1  0  0  0  0
 18 19  1  0  0  0  0
 20 18  2  0  0  0  0
 21 22  1  6  0  0  0
 21 17  1  0  0  0  0
 22 23  1  0  0  0  0
 24 23  1  0  0  0  0
 25 21  1  0  0  0  0
 26 25  1  0  0  0  0
 27 26  1  0  0  0  0
M  END
>  <MODEL>
1

>  <REMARK>
 VINA RESULT:      -8.4      0.000      0.000
  Name = 
  8 active torsions:
  status: ('A' for Active; 'I' for Inactive)
    1  A    between atoms: C_2  and  C_25
    2  A    between atoms: C_4  and  C_10
    3  A    between atoms: C_6  and  O_24
    4  A    between atoms: C_8  and  C_18
    5  A    between atoms: C_10  and  C_13
    6  A    between atoms: C_10  and  C_14
    7  A    between atoms: C_13  and  C_18
    8  A    between atoms: C_13  and  O_24
                            x       y       z     vdW  Elec       q    Type
                         _______ _______ _______ _____ _____    ______ ____

>  <TORSDO>
F 8

$$$$
=
 OpenBabel11042421313D

 27 28  0  0  1  0  0  0  0  0999 V2000
  162.3650  210.3370  151.1540 N   0  0  0  0  0  1  0  0  0  0  0  0
  161.3980  208.0680  151.0340 C   0  0  0  0  0  0  0  0  0  0  0  0
  161.2670  206.9440  148.8780 C   0  0  0  0  0  0  0  0  0  0  0  0
  162.0230  209.1700  150.4120 C   0  0  0  0  0  0  0  0  0  0  0  0
  161.0130  206.9690  150.2530 C   0  0  0  0  0  3  0  0  0  0  0  0
  161.9040  208.0350  148.2730 C   0  0  0  0  0  3  0  0  0  0  0  0
  162.2760  209.1420  149.0380 C   0  0  0  0  0  3  0  0  0  0  0  0
  160.2110  208.0950  156.5470 F   0  0  0  0  0  0  0  0  0  0  0  0
  162.0890  205.8030  152.7560 N   0  0  0  0  0  1  0  0  0  0  0  0
  161.4570  206.9590  153.3010 C   0  0  0  0  0  0  0  0  0  0  0  0
  160.4260  209.1420  153.0470 C   0  0  0  0  0  3  0  0  0  0  0  0
  161.1520  206.9830  154.6650 C   0  0  0  0  0  3  0  0  0  0  0  0
  160.1240  209.1600  154.4100 C   0  0  0  0  0  0  0  0  0  0  0  0
  159.4560  210.2490  154.9530 O   0  0  0  0  0  1  0  0  0  0  0  0
  161.1040  208.0510  152.4810 C   0  0  0  0  0  0  0  0  0  0  0  0
  160.4940  208.0820  155.2210 C   0  0  0  0  0  0  0  0  0  0  0  0
  160.8490  205.7410  148.0860 C   0  0  1  0  0  3  0  0  0  0  0  0
  161.0040  205.9370  146.6060 C   0  0  0  0  0  0  0  0  0  0  0  0
  162.2520  205.8530  146.0060 O   0  0  0  0  0  1  0  0  0  0  0  0
  159.9890  206.1750  145.9010 O   0  0  0  0  0  0  0  0  0  0  0  0
  161.4610  204.4380  148.6150 C   0  0  1  0  0  3  0  0  0  0  0  0
  160.4200  203.6470  149.3950 C   0  0  0  0  0  2  0  0  0  0  0  0
  160.7900  203.5870  150.8640 C   0  0  0  0  0  2  0  0  0  0  0  0
  161.1810  202.1700  151.2260 C   0  0  0  0  0  1  0  0  0  0  0  0
  161.9820  203.6630  147.5740 O   0  0  0  0  0  0  0  0  0  0  0  0
  161.1670  202.5310  147.5220 C   0  0  0  0  0  2  0  0  0  0  0  0
  160.9010  202.1670  146.0770 C   0  0  0  0  0  1  0  0  0  0  0  0
  2 15  1  0  0  0  0
  3  5  1  0  0  0  0
  4  2  1  0  0  0  0
  4  1  1  0  0  0  0
  5  2  2  0  0  0  0
  6  3  2  0  0  0  0
  6  7  1  0  0  0  0
  7  4  2  0  0  0  0
  9 10  1  0  0  0  0
 10 12  1  0  0  0  0
 11 13  2  0  0  0  0
 12 16  2  0  0  0  0
 13 14  1  0  0  0  0
 13 16  1  0  0  0  0
 15 11  1  0  0  0  0
 15 10  2  0  0  0  0
 16  8  1  0  0  0  0
 17 18  1  6  0  0  0
 17 21  1  0  0  0  0
 17  3  1  0  0  0  0
 19 18  1  0  0  0  0
 20 18  2  0  0  0  0
 21 22  1  6  0  0  0
 22 23  1  0  0  0  0
 23 24  1  0  0  0  0
 25 21  1  0  0  0  0
 26 25  1  0  0  0  0
 27 26  1  0  0  0  0
M  END
>  <MODEL>
2

>  <REMARK>
 VINA RESULT:      -8.1      1.632      2.984
  Name = 
  8 active torsions:
  status: ('A' for Active; 'I' for Inactive)
    1  A    between atoms: C_2  and  C_25
    2  A    between atoms: C_4  and  C_10
    3  A    between atoms: C_6  and  O_24
    4  A    between atoms: C_8  and  C_18
    5  A    between atoms: C_10  and  C_13
    6  A    between atoms: C_10  and  C_14
    7  A    between atoms: C_13  and  C_18
    8  A    between atoms: C_13  and  O_24
                            x       y       z     vdW  Elec       q    Type
                         _______ _______ _______ _____ _____    ______ ____

>  <TORSDO>
F 8

$$$$
=
 OpenBabel11042421313D

 27 28  0  0  1  0  0  0  0  0999 V2000
  162.4310  206.6090  147.6570 N   0  0  0  0  0  1  0  0  0  0  0  0
  161.3560  206.1150  149.8240 C   0  0  0  0  0  0  0  0  0  0  0  0
  161.0940  207.9020  151.4570 C   0  0  0  0  0  0  0  0  0  0  0  0
  161.9390  207.0330  148.9250 C   0  0  0  0  0  0  0  0  0  0  0  0
  160.9500  206.5610  151.0910 C   0  0  0  0  0  3  0  0  0  0  0  0
  161.6590  208.8090  150.5510 C   0  0  0  0  0  3  0  0  0  0  0  0
  162.0800  208.3730  149.2940 C   0  0  0  0  0  3  0  0  0  0  0  0
  160.7500  200.6870  148.4200 F   0  0  0  0  0  0  0  0  0  0  0  0
  160.9700  204.0450  151.8590 N   0  0  0  0  0  1  0  0  0  0  0  0
  160.9880  203.7040  150.4740 C   0  0  0  0  0  0  0  0  0  0  0  0
  161.2630  204.2990  148.1370 C   0  0  0  0  0  3  0  0  0  0  0  0
  160.8430  202.3620  150.1070 C   0  0  0  0  0  3  0  0  0  0  0  0
  161.1180  202.9590  147.7760 C   0  0  0  0  0  0  0  0  0  0  0  0
  161.1900  202.5930  146.4390 O   0  0  0  0  0  1  0  0  0  0  0  0
  161.1890  204.6880  149.4840 C   0  0  0  0  0  0  0  0  0  0  0  0
  160.9000  201.9900  148.7620 C   0  0  0  0  0  0  0  0  0  0  0  0
  160.6350  208.3340  152.8170 C   0  0  1  0  0  3  0  0  0  0  0  0
  161.0250  207.3680  153.8970 C   0  0  0  0  0  0  0  0  0  0  0  0
  162.1580  206.5770  153.7670 O   0  0  0  0  0  0  0  0  0  0  0  0
  160.3200  207.2780  154.9360 O   0  0  0  0  0  1  0  0  0  0  0  0
  160.9810  209.7960  153.1260 C   0  0  1  0  0  3  0  0  0  0  0  0
  159.7970  210.4890  153.7870 C   0  0  0  0  0  2  0  0  0  0  0  0
  159.0090  211.2830  152.7650 C   0  0  0  0  0  2  0  0  0  0  0  0
  159.9540  212.1720  151.9830 C   0  0  0  0  0  1  0  0  0  0  0  0
  162.1160  209.8880  153.9390 O   0  0  0  0  0  0  0  0  0  0  0  0
  161.7530  210.7560  154.9700 C   0  0  0  0  0  2  0  0  0  0  0  0
  162.5950  210.4670  156.1940 C   0  0  0  0  0  1  0  0  0  0  0  0
  1  4  1  0  0  0  0
  2  5  1  0  0  0  0
  3 17  1  0  0  0  0
  4  7  1  0  0  0  0
  4  2  2  0  0  0  0
  5  3  2  0  0  0  0
  6  3  1  0  0  0  0
  7  6  2  0  0  0  0
  8 16  1  0  0  0  0
 10  9  1  0  0  0  0
 11 15  1  0  0  0  0
 12 10  1  0  0  0  0
 13 11  2  0  0  0  0
 13 16  1  0  0  0  0
 14 13  1  0  0  0  0
 15  2  1  0  0  0  0
 15 10  2  0  0  0  0
 16 12  2  0  0  0  0
 17 21  1  0  0  0  0
 17 18  1  1  0  0  0
 18 20  1  0  0  0  0
 19 18  2  0  0  0  0
 21 22  1  1  0  0  0
 21 25  1  0  0  0  0
 23 22  1  0  0  0  0
 24 23  1  0  0  0  0
 25 26  1  0  0  0  0
 26 27  1  0  0  0  0
M  END
>  <MODEL>
3

>  <REMARK>
 VINA RESULT:      -8.0      3.105      8.197
  Name = 
  8 active torsions:
  status: ('A' for Active; 'I' for Inactive)
    1  A    between atoms: C_2  and  C_25
    2  A    between atoms: C_4  and  C_10
    3  A    between atoms: C_6  and  O_24
    4  A    between atoms: C_8  and  C_18
    5  A    between atoms: C_10  and  C_13
    6  A    between atoms: C_10  and  C_14
    7  A    between atoms: C_13  and  C_18
    8  A    between atoms: C_13  and  O_24
                            x       y       z     vdW  Elec       q    Type
                         _______ _______ _______ _____ _____    ______ ____

>  <TORSDO>
F 8

$$$$
=
 OpenBabel11042421313D

 27 28  0  0  1  0  0  0  0  0999 V2000
  162.8940  207.7600  149.6030 N   0  0  0  0  0  1  0  0  0  0  0  0
  161.4220  207.0550  151.4560 C   0  0  0  0  0  0  0  0  0  0  0  0
  160.9240  208.6300  153.2460 C   0  0  0  0  0  0  0  0  0  0  0  0
  162.1910  208.0450  150.8100 C   0  0  0  0  0  0  0  0  0  0  0  0
  160.8060  207.3570  152.6800 C   0  0  0  0  0  3  0  0  0  0  0  0
  161.6760  209.6110  152.5860 C   0  0  0  0  0  3  0  0  0  0  0  0
  162.3070  209.3170  151.3770 C   0  0  0  0  0  3  0  0  0  0  0  0
  160.8770  201.8180  149.4370 F   0  0  0  0  0  0  0  0  0  0  0  0
  160.2770  206.5500  148.8090 N   0  0  0  0  0  1  0  0  0  0  0  0
  160.7340  205.4680  149.6180 C   0  0  0  0  0  0  0  0  0  0  0  0
  161.6520  204.5970  151.6890 C   0  0  0  0  0  3  0  0  0  0  0  0
  160.6040  204.1620  149.1350 C   0  0  0  0  0  3  0  0  0  0  0  0
  161.5190  203.2950  151.2020 C   0  0  0  0  0  0  0  0  0  0  0  0
  161.9030  202.2210  151.9940 O   0  0  0  0  0  1  0  0  0  0  0  0
  161.2730  205.6950  150.9010 C   0  0  0  0  0  0  0  0  0  0  0  0
  161.0020  203.0780  149.9200 C   0  0  0  0  0  0  0  0  0  0  0  0
  160.2370  208.9100  154.5480 C   0  0  1  0  0  3  0  0  0  0  0  0
  160.5210  207.8690  155.5910 C   0  0  0  0  0  0  0  0  0  0  0  0
  159.4870  207.1600  156.1860 O   0  0  0  0  0  1  0  0  0  0  0  0
  161.7110  207.6320  155.9260 O   0  0  0  0  0  0  0  0  0  0  0  0
  160.4370  210.3520  155.0290 C   0  0  1  0  0  3  0  0  0  0  0  0
  159.2420  211.2090  154.6350 C   0  0  0  0  0  2  0  0  0  0  0  0
  159.6420  212.2270  153.5860 C   0  0  0  0  0  2  0  0  0  0  0  0
  158.7230  212.1040  152.3890 C   0  0  0  0  0  1  0  0  0  0  0  0
  160.6380  210.4030  156.4130 O   0  0  0  0  0  0  0  0  0  0  0  0
  161.6480  211.3490  156.5970 C   0  0  0  0  0  2  0  0  0  0  0  0
  162.9780  210.7520  156.1910 C   0  0  0  0  0  1  0  0  0  0  0  0
  1  4  1  0  0  0  0
  2  5  1  0  0  0  0
  3 17  1  0  0  0  0
  4  7  1  0  0  0  0
  4  2  2  0  0  0  0
  5  3  2  0  0  0  0
  6  3  1  0  0  0  0
  7  6  2  0  0  0  0
  8 16  1  0  0  0  0
  9 10  1  0  0  0  0
 10 15  1  0  0  0  0
 12 10  2  0  0  0  0
 12 16  1  0  0  0  0
 13 11  1  0  0  0  0
 13 14  1  0  0  0  0
 15  2  1  0  0  0  0
 15 11  2  0  0  0  0
 16 13  2  0  0  0  0
 17 21  1  0  0  0  0
 17 18  1  1  0  0  0
 18 20  2  0  0  0  0
 18 19  1  0  0  0  0
 21 22  1  1  0  0  0
 21 25  1  0  0  0  0
 23 22  1  0  0  0  0
 24 23  1  0  0  0  0
 25 26  1  0  0  0  0
 27 26  1  0  0  0  0
M  END
>  <MODEL>
4

>  <REMARK>
 VINA RESULT:      -7.8      3.585      8.342
  Name = 
  8 active torsions:
  status: ('A' for Active; 'I' for Inactive)
    1  A    between atoms: C_2  and  C_25
    2  A    between atoms: C_4  and  C_10
    3  A    between atoms: C_6  and  O_24
    4  A    between atoms: C_8  and  C_18
    5  A    between atoms: C_10  and  C_13
    6  A    between atoms: C_10  and  C_14
    7  A    between atoms: C_13  and  C_18
    8  A    between atoms: C_13  and  O_24
                            x       y       z     vdW  Elec       q    Type
                         _______ _______ _______ _____ _____    ______ ____

>  <TORSDO>
F 8

$$$$
=
 OpenBabel11042421313D

 27 28  0  0  1  0  0  0  0  0999 V2000
  162.7300  207.6550  149.3490 N   0  0  0  0  0  1  0  0  0  0  0  0
  161.2850  207.4410  151.3390 C   0  0  0  0  0  0  0  0  0  0  0  0
  160.7440  209.4300  152.6360 C   0  0  0  0  0  0  0  0  0  0  0  0
  162.0220  208.2390  150.4390 C   0  0  0  0  0  0  0  0  0  0  0  0
  160.6620  208.0480  152.4400 C   0  0  0  0  0  3  0  0  0  0  0  0
  161.4640  210.2150  151.7260 C   0  0  0  0  0  3  0  0  0  0  0  0
  162.1010  209.6190  150.6370 C   0  0  0  0  0  3  0  0  0  0  0  0
  160.8760  201.8650  150.6070 F   0  0  0  0  0  0  0  0  0  0  0  0
  161.4350  205.5880  153.6020 N   0  0  0  0  0  1  0  0  0  0  0  0
  161.2340  205.0980  152.2780 C   0  0  0  0  0  0  0  0  0  0  0  0
  161.0400  205.4480  149.8840 C   0  0  0  0  0  3  0  0  0  0  0  0
  161.1340  203.7180  152.0770 C   0  0  0  0  0  3  0  0  0  0  0  0
  160.9410  204.0690  149.6880 C   0  0  0  0  0  0  0  0  0  0  0  0
  160.8030  203.5640  148.4030 O   0  0  0  0  0  1  0  0  0  0  0  0
  161.1750  205.9770  151.1770 C   0  0  0  0  0  0  0  0  0  0  0  0
  160.9800  203.2040  150.7880 C   0  0  0  0  0  0  0  0  0  0  0  0
  160.0520  210.0350  153.8190 C   0  0  1  0  0  3  0  0  0  0  0  0
  160.5320  209.4720  155.1250 C   0  0  0  0  0  0  0  0  0  0  0  0
  161.8860  209.4330  155.4270 O   0  0  0  0  0  0  0  0  0  0  0  0
  159.6960  209.0360  155.9590 O   0  0  0  0  0  1  0  0  0  0  0  0
  160.0190  211.5680  153.7700 C   0  0  1  0  0  3  0  0  0  0  0  0
  158.6160  212.0540  153.4320 C   0  0  0  0  0  2  0  0  0  0  0  0
  158.5290  212.4450  151.9710 C   0  0  0  0  0  2  0  0  0  0  0  0
  159.6720  213.3780  151.6320 C   0  0  0  0  0  1  0  0  0  0  0  0
  160.4480  212.1240  154.9800 O   0  0  0  0  0  0  0  0  0  0  0  0
  159.3850  212.9200  155.4110 C   0  0  0  0  0  2  0  0  0  0  0  0
  159.8810  213.9060  156.4470 C   0  0  0  0  0  1  0  0  0  0  0  0
  1  4  1  0  0  0  0
  2  5  1  0  0  0  0
  3 17  1  0  0  0  0
  4  7  1  0  0  0  0
  4  2  2  0  0  0  0
  5  3  2  0  0  0  0
  6  3  1  0  0  0  0
  7  6  2  0  0  0  0
  8 16  1  0  0  0  0
 10  9  1  0  0  0  0
 11 15  1  0  0  0  0
 12 10  1  0  0  0  0
 13 11  2  0  0  0  0
 13 16  1  0  0  0  0
 14 13  1  0  0  0  0
 15  2  1  0  0  0  0
 15 10  2  0  0  0  0
 16 12  2  0  0  0  0
 17 18  1  1  0  0  0
 18 19  2  0  0  0  0
 18 20  1  0  0  0  0
 21 22  1  1  0  0  0
 21 17  1  0  0  0  0
 21 25  1  0  0  0  0
 23 22  1  0  0  0  0
 24 23  1  0  0  0  0
 25 26  1  0  0  0  0
 26 27  1  0  0  0  0
M  END
>  <MODEL>
5

>  <REMARK>
 VINA RESULT:      -7.8      2.997      8.560
  Name = 
  8 active torsions:
  status: ('A' for Active; 'I' for Inactive)
    1  A    between atoms: C_2  and  C_25
    2  A    between atoms: C_4  and  C_10
    3  A    between atoms: C_6  and  O_24
    4  A    between atoms: C_8  and  C_18
    5  A    between atoms: C_10  and  C_13
    6  A    between atoms: C_10  and  C_14
    7  A    between atoms: C_13  and  C_18
    8  A    between atoms: C_13  and  O_24
                            x       y       z     vdW  Elec       q    Type
                         _______ _______ _______ _____ _____    ______ ____

>  <TORSDO>
F 8

$$$$
=
 OpenBabel11042421313D

 27 28  0  0  1  0  0  0  0  0999 V2000
  161.5250  205.0310  152.7490 N   0  0  0  0  0  1  0  0  0  0  0  0
  161.1060  207.4120  152.2460 C   0  0  0  0  0  0  0  0  0  0  0  0
  160.4440  208.9100  154.0490 C   0  0  0  0  0  0  0  0  0  0  0  0
  161.2010  206.3520  153.1730 C   0  0  0  0  0  0  0  0  0  0  0  0
  160.7140  208.6820  152.6960 C   0  0  0  0  0  3  0  0  0  0  0  0
  160.5590  207.8540  154.9640 C   0  0  0  0  0  3  0  0  0  0  0  0
  160.9320  206.5830  154.5240 C   0  0  0  0  0  3  0  0  0  0  0  0
  162.0700  206.5780  146.7530 F   0  0  0  0  0  0  0  0  0  0  0  0
  162.3310  209.4840  150.5790 N   0  0  0  0  0  1  0  0  0  0  0  0
  161.9800  208.2200  150.0200 C   0  0  0  0  0  0  0  0  0  0  0  0
  160.9870  206.0130  150.2030 C   0  0  0  0  0  3  0  0  0  0  0  0
  162.2080  207.9960  148.6590 C   0  0  0  0  0  3  0  0  0  0  0  0
  161.2170  205.7940  148.8430 C   0  0  0  0  0  0  0  0  0  0  0  0
  160.8320  204.5940  148.2630 O   0  0  0  0  0  1  0  0  0  0  0  0
  161.3750  207.2180  150.8070 C   0  0  0  0  0  0  0  0  0  0  0  0
  161.8360  206.7850  148.0720 C   0  0  0  0  0  0  0  0  0  0  0  0
  160.0410  210.2860  154.4850 C   0  0  1  0  0  3  0  0  0  0  0  0
  161.1400  211.0120  155.2060 C   0  0  0  0  0  0  0  0  0  0  0  0
  162.4710  210.7030  154.9670 O   0  0  0  0  0  0  0  0  0  0  0  0
  160.8490  211.9160  156.0320 O   0  0  0  0  0  1  0  0  0  0  0  0
  159.3820  211.0970  153.3630 C   0  0  1  0  0  3  0  0  0  0  0  0
  158.1300  211.7910  153.8810 C   0  0  0  0  0  2  0  0  0  0  0  0
  157.5620  211.0410  155.0690 C   0  0  0  0  0  2  0  0  0  0  0  0
  156.0490  211.0790  155.0110 C   0  0  0  0  0  1  0  0  0  0  0  0
  160.2710  212.0340  152.8250 O   0  0  0  0  0  0  0  0  0  0  0  0
  159.4650  213.0830  152.3780 C   0  0  0  0  0  2  0  0  0  0  0  0
  159.7210  213.3240  150.9060 C   0  0  0  0  0  1  0  0  0  0  0  0
  1  4  1  0  0  0  0
  2  5  2  0  0  0  0
  2  4  1  0  0  0  0
  3 17  1  0  0  0  0
  3  6  2  0  0  0  0
  4  7  2  0  0  0  0
  5  3  1  0  0  0  0
  7  6  1  0  0  0  0
  8 16  1  0  0  0  0
 10  9  1  0  0  0  0
 10 15  1  0  0  0  0
 11 15  2  0  0  0  0
 12 10  2  0  0  0  0
 13 11  1  0  0  0  0
 14 13  1  0  0  0  0
 15  2  1  0  0  0  0
 16 12  1  0  0  0  0
 16 13  2  0  0  0  0
 17 18  1  6  0  0  0
 18 20  1  0  0  0  0
 19 18  2  0  0  0  0
 21 22  1  1  0  0  0
 21 17  1  0  0  0  0
 22 23  1  0  0  0  0
 24 23  1  0  0  0  0
 25 21  1  0  0  0  0
 26 25  1  0  0  0  0
 27 26  1  0  0  0  0
M  END
>  <MODEL>
6

>  <REMARK>
 VINA RESULT:      -7.6      2.978      7.829
  Name = 
  8 active torsions:
  status: ('A' for Active; 'I' for Inactive)
    1  A    between atoms: C_2  and  C_25
    2  A    between atoms: C_4  and  C_10
    3  A    between atoms: C_6  and  O_24
    4  A    between atoms: C_8  and  C_18
    5  A    between atoms: C_10  and  C_13
    6  A    between atoms: C_10  and  C_14
    7  A    between atoms: C_13  and  C_18
    8  A    between atoms: C_13  and  O_24
                            x       y       z     vdW  Elec       q    Type
                         _______ _______ _______ _____ _____    ______ ____

>  <TORSDO>
F 8

$$$$
=
 OpenBabel11042421313D

 27 28  0  0  1  0  0  0  0  0999 V2000
  160.7530  207.6010  156.4070 N   0  0  0  0  0  1  0  0  0  0  0  0
  160.5780  208.9640  154.3560 C   0  0  0  0  0  0  0  0  0  0  0  0
  161.1150  207.9530  152.2070 C   0  0  0  0  0  0  0  0  0  0  0  0
  160.8310  207.7290  154.9900 C   0  0  0  0  0  0  0  0  0  0  0  0
  160.7370  209.0640  152.9650 C   0  0  0  0  0  3  0  0  0  0  0  0
  161.3470  206.7270  152.8440 C   0  0  0  0  0  3  0  0  0  0  0  0
  161.2080  206.6200  154.2290 C   0  0  0  0  0  3  0  0  0  0  0  0
  158.9600  213.5200  157.2580 F   0  0  0  0  0  0  0  0  0  0  0  0
  162.5330  210.7730  155.5740 N   0  0  0  0  0  1  0  0  0  0  0  0
  161.1360  211.0370  155.6840 C   0  0  0  0  0  0  0  0  0  0  0  0
  158.8170  210.4300  155.3020 C   0  0  0  0  0  3  0  0  0  0  0  0
  160.7160  212.1600  156.4020 C   0  0  0  0  0  3  0  0  0  0  0  0
  158.4020  211.5530  156.0210 C   0  0  0  0  0  0  0  0  0  0  0  0
  157.0480  211.8010  156.1920 O   0  0  0  0  0  1  0  0  0  0  0  0
  160.1830  210.1660  155.1160 C   0  0  0  0  0  0  0  0  0  0  0  0
  159.3540  212.4230  156.5650 C   0  0  0  0  0  0  0  0  0  0  0  0
  161.2600  208.1050  150.7220 C   0  0  1  0  0  3  0  0  0  0  0  0
  162.0370  209.3300  150.3360 C   0  0  0  0  0  0  0  0  0  0  0  0
  161.9110  209.8790  149.0680 O   0  0  0  0  0  0  0  0  0  0  0  0
  162.8060  209.8680  151.1740 O   0  0  0  0  0  1  0  0  0  0  0  0
  161.7320  206.8180  150.0350 C   0  0  1  0  0  3  0  0  0  0  0  0
  160.5540  205.8810  149.8040 C   0  0  0  0  0  2  0  0  0  0  0  0
  160.8340  204.5200  150.4090 C   0  0  0  0  0  2  0  0  0  0  0  0
  160.8860  203.4810  149.3080 C   0  0  0  0  0  1  0  0  0  0  0  0
  162.3780  207.0960  148.8250 O   0  0  0  0  0  0  0  0  0  0  0  0
  161.4520  206.7610  147.8350 C   0  0  0  0  0  2  0  0  0  0  0  0
  162.1670  206.0880  146.6830 C   0  0  0  0  0  1  0  0  0  0  0  0
  2  4  1  0  0  0  0
  2 15  1  0  0  0  0
  3  6  2  0  0  0  0
  3  5  1  0  0  0  0
  4  1  1  0  0  0  0
  5  2  2  0  0  0  0
  6  7  1  0  0  0  0
  7  4  2  0  0  0  0
  9 10  1  0  0  0  0
 10 12  1  0  0  0  0
 11 13  2  0  0  0  0
 12 16  2  0  0  0  0
 13 14  1  0  0  0  0
 13 16  1  0  0  0  0
 15 11  1  0  0  0  0
 15 10  2  0  0  0  0
 16  8  1  0  0  0  0
 17 18  1  1  0  0  0
 17  3  1  0  0  0  0
 18 20  1  0  0  0  0
 19 18  2  0  0  0  0
 21 22  1  6  0  0  0
 21 17  1  0  0  0  0
 22 23  1  0  0  0  0
 24 23  1  0  0  0  0
 25 21  1  0  0  0  0
 26 25  1  0  0  0  0
 27 26  1  0  0  0  0
M  END
>  <MODEL>
7

>  <REMARK>
 VINA RESULT:      -7.6      2.577      3.984
  Name = 
  8 active torsions:
  status: ('A' for Active; 'I' for Inactive)
    1  A    between atoms: C_2  and  C_25
    2  A    between atoms: C_4  and  C_10
    3  A    between atoms: C_6  and  O_24
    4  A    between atoms: C_8  and  C_18
    5  A    between atoms: C_10  and  C_13
    6  A    between atoms: C_10  and  C_14
    7  A    between atoms: C_13  and  C_18
    8  A    between atoms: C_13  and  O_24
                            x       y       z     vdW  Elec       q    Type
                         _______ _______ _______ _____ _____    ______ ____

>  <TORSDO>
F 8

$$$$
=
 OpenBabel11042421313D

 27 28  0  0  1  0  0  0  0  0999 V2000
  162.4180  210.4120  151.5620 N   0  0  0  0  0  1  0  0  0  0  0  0
  161.2330  208.2470  151.5170 C   0  0  0  0  0  0  0  0  0  0  0  0
  161.1130  206.9990  149.4300 C   0  0  0  0  0  0  0  0  0  0  0  0
  162.0030  209.2370  150.8720 C   0  0  0  0  0  0  0  0  0  0  0  0
  160.7840  207.1400  150.7810 C   0  0  0  0  0  3  0  0  0  0  0  0
  161.8930  207.9790  148.8020 C   0  0  0  0  0  3  0  0  0  0  0  0
  162.3320  209.0920  149.5220 C   0  0  0  0  0  3  0  0  0  0  0  0
  159.7200  208.7490  156.9260 F   0  0  0  0  0  0  0  0  0  0  0  0
  161.9330  206.2040  153.4950 N   0  0  0  0  0  1  0  0  0  0  0  0
  161.2120  207.3710  153.8850 C   0  0  0  0  0  0  0  0  0  0  0  0
  160.0900  209.4570  153.3550 C   0  0  0  0  0  3  0  0  0  0  0  0
  160.8260  207.5110  155.2210 C   0  0  0  0  0  3  0  0  0  0  0  0
  159.7060  209.5920  154.6910 C   0  0  0  0  0  0  0  0  0  0  0  0
  158.9540  210.6900  155.0840 O   0  0  0  0  0  1  0  0  0  0  0  0
  160.8550  208.3550  152.9410 C   0  0  0  0  0  0  0  0  0  0  0  0
  160.0820  208.6210  155.6260 C   0  0  0  0  0  0  0  0  0  0  0  0
  160.6220  205.7930  148.6870 C   0  0  1  0  0  3  0  0  0  0  0  0
  161.0680  205.7710  147.2540 C   0  0  0  0  0  0  0  0  0  0  0  0
  160.2210  206.1970  146.2400 O   0  0  0  0  0  0  0  0  0  0  0  0
  162.2260  205.3680  146.9690 O   0  0  0  0  0  1  0  0  0  0  0  0
  160.8740  204.4830  149.4440 C   0  0  1  0  0  3  0  0  0  0  0  0
  161.3950  203.4160  148.4910 C   0  0  0  0  0  2  0  0  0  0  0  0
  160.4370  202.2440  148.4330 C   0  0  0  0  0  2  0  0  0  0  0  0
  161.2050  200.9560  148.6430 C   0  0  0  0  0  1  0  0  0  0  0  0
  161.7710  204.6720  150.5010 O   0  0  0  0  0  0  0  0  0  0  0  0
  161.7100  203.4920  151.2430 C   0  0  0  0  0  2  0  0  0  0  0  0
  160.4560  203.4930  152.0910 C   0  0  0  0  0  1  0  0  0  0  0  0
  2 15  1  0  0  0  0
  3  5  1  0  0  0  0
  4  2  1  0  0  0  0
  4  1  1  0  0  0  0
  5  2  2  0  0  0  0
  6  3  2  0  0  0  0
  6  7  1  0  0  0  0
  7  4  2  0  0  0  0
  9 10  1  0  0  0  0
 10 12  1  0  0  0  0
 11 13  2  0  0  0  0
 12 16  2  0  0  0  0
 13 14  1  0  0  0  0
 13 16  1  0  0  0  0
 15 11  1  0  0  0  0
 15 10  2  0  0  0  0
 16  8  1  0  0  0  0
 17 18  1  6  0  0  0
 17  3  1  0  0  0  0
 17 21  1  0  0  0  0
 19 18  2  0  0  0  0
 20 18  1  0  0  0  0
 21 22  1  6  0  0  0
 21 25  1  0  0  0  0
 23 22  1  0  0  0  0
 23 24  1  0  0  0  0
 25 26  1  0  0  0  0
 26 27  1  0  0  0  0
M  END
>  <MODEL>
8

>  <REMARK>
 VINA RESULT:      -7.4      1.641      3.407
  Name = 
  8 active torsions:
  status: ('A' for Active; 'I' for Inactive)
    1  A    between atoms: C_2  and  C_25
    2  A    between atoms: C_4  and  C_10
    3  A    between atoms: C_6  and  O_24
    4  A    between atoms: C_8  and  C_18
    5  A    between atoms: C_10  and  C_13
    6  A    between atoms: C_10  and  C_14
    7  A    between atoms: C_13  and  C_18
    8  A    between atoms: C_13  and  O_24
                            x       y       z     vdW  Elec       q    Type
                         _______ _______ _______ _____ _____    ______ ____

>  <TORSDO>
F 8

$$$$
=
 OpenBabel11042421313D

 27 28  0  0  1  0  0  0  0  0999 V2000
  161.2220  205.8670  153.5860 N   0  0  0  0  0  1  0  0  0  0  0  0
  161.2980  205.8600  151.1180 C   0  0  0  0  0  0  0  0  0  0  0  0
  161.3000  203.7330  149.9330 C   0  0  0  0  0  0  0  0  0  0  0  0
  161.2090  205.1680  152.3440 C   0  0  0  0  0  0  0  0  0  0  0  0
  161.3560  205.1290  149.9220 C   0  0  0  0  0  3  0  0  0  0  0  0
  161.1940  203.0560  151.1550 C   0  0  0  0  0  3  0  0  0  0  0  0
  161.1530  203.7720  152.3520 C   0  0  0  0  0  3  0  0  0  0  0  0
  161.5170  211.4940  150.9870 F   0  0  0  0  0  0  0  0  0  0  0  0
  162.7060  207.2850  148.9820 N   0  0  0  0  0  1  0  0  0  0  0  0
  162.0350  208.0070  150.0120 C   0  0  0  0  0  0  0  0  0  0  0  0
  160.7740  208.0830  152.0850 C   0  0  0  0  0  3  0  0  0  0  0  0
  162.0810  209.4040  149.9980 C   0  0  0  0  0  3  0  0  0  0  0  0
  160.8230  209.4780  152.0660 C   0  0  0  0  0  0  0  0  0  0  0  0
  160.2270  210.2020  153.0890 O   0  0  0  0  0  1  0  0  0  0  0  0
  161.3660  207.3340  151.0560 C   0  0  0  0  0  0  0  0  0  0  0  0
  161.4710  210.1390  151.0170 C   0  0  0  0  0  0  0  0  0  0  0  0
  161.3520  202.9950  148.6290 C   0  0  1  0  0  3  0  0  0  0  0  0
  160.5920  201.7010  148.6630 C   0  0  0  0  0  0  0  0  0  0  0  0
  161.2110  200.5060  148.3220 O   0  0  0  0  0  0  0  0  0  0  0  0
  159.3830  201.6990  149.0100 O   0  0  0  0  0  1  0  0  0  0  0  0
  161.0200  203.8870  147.4270 C   0  0  1  0  0  3  0  0  0  0  0  0
  162.2900  204.2290  146.6590 C   0  0  0  0  0  2  0  0  0  0  0  0
  162.1960  205.6240  146.0730 C   0  0  0  0  0  2  0  0  0  0  0  0
  160.8320  206.2060  146.3790 C   0  0  0  0  0  1  0  0  0  0  0  0
  160.0900  203.2740  146.5810 O   0  0  0  0  0  0  0  0  0  0  0  0
  160.8550  202.6330  145.6050 C   0  0  0  0  0  2  0  0  0  0  0  0
  160.0830  201.4550  145.0520 C   0  0  0  0  0  1  0  0  0  0  0  0
  2  4  1  0  0  0  0
  3  6  2  0  0  0  0
  4  7  2  0  0  0  0
  4  1  1  0  0  0  0
  5  3  1  0  0  0  0
  5  2  2  0  0  0  0
  6  7  1  0  0  0  0
  8 16  1  0  0  0  0
  9 10  1  0  0  0  0
 10 15  1  0  0  0  0
 12 10  2  0  0  0  0
 12 16  1  0  0  0  0
 13 11  1  0  0  0  0
 13 14  1  0  0  0  0
 15  2  1  0  0  0  0
 15 11  2  0  0  0  0
 16 13  2  0  0  0  0
 17 18  1  1  0  0  0
 17  3  1  0  0  0  0
 18 20  1  0  0  0  0
 19 18  2  0  0  0  0
 21 22  1  6  0  0  0
 21 17  1  0  0  0  0
 23 24  1  0  0  0  0
 23 22  1  0  0  0  0
 25 21  1  0  0  0  0
 26 25  1  0  0  0  0
 27 26  1  0  0  0  0
M  END
>  <MODEL>
9

>  <REMARK>
 VINA RESULT:      -7.3      1.759      2.915
  Name = 
  8 active torsions:
  status: ('A' for Active; 'I' for Inactive)
    1  A    between atoms: C_2  and  C_25
    2  A    between atoms: C_4  and  C_10
    3  A    between atoms: C_6  and  O_24
    4  A    between atoms: C_8  and  C_18
    5  A    between atoms: C_10  and  C_13
    6  A    between atoms: C_10  and  C_14
    7  A    between atoms: C_13  and  C_18
    8  A    between atoms: C_13  and  O_24
                            x       y       z     vdW  Elec       q    Type
                         _______ _______ _______ _____ _____    ______ ____

>  <TORSDO>
F 8

$$$$
