=
 OpenBabel11042420223D

 30 33  0  0  1  0  0  0  0  0999 V2000
  161.7580  206.6540  151.2730 C   0  0  0  0  0  0  0  0  0  0  0  0
  162.3480  208.9150  151.2850 C   0  0  1  0  0  3  0  0  0  0  0  0
  162.3320  208.4320  149.8300 C   0  0  0  0  0  2  0  0  0  0  0  0
  161.3500  209.9360  151.4770 N   0  0  0  0  0  2  0  0  0  0  0  0
  161.6090  205.4510  151.7610 C   0  0  0  0  0  0  0  0  0  0  0  0
  159.4200  210.6610  152.7400 C   0  0  0  0  0  1  0  0  0  0  0  0
  161.9510  207.7850  152.1020 N   0  0  0  0  0  0  0  0  0  0  0  0
  162.0480  206.9300  149.8470 C   0  0  2  0  0  3  0  0  0  0  0  0
  161.4590  204.2530  152.2480 C   0  0  0  0  0  3  0  0  0  0  0  0
  160.7860  208.2100  153.3580 S   0  0  0  0  0  0  0  0  0  0  0  0
  160.5380  209.7240  152.4450 C   0  0  1  0  0  3  0  0  0  0  0  0
  161.2150  203.1600  151.3730 N   0  0  0  0  0  2  0  0  0  0  0  0
  160.2950  203.3000  150.2610 C   0  0  0  0  0  2  0  0  0  0  0  0
  160.9550  201.8280  146.8480 C   0  0  0  0  0  0  0  0  0  0  0  0
  160.5710  202.7240  147.8480 C   0  0  0  0  0  3  0  0  0  0  0  0
  161.4480  200.5610  147.1980 C   0  0  0  0  0  0  0  0  0  0  0  0
  160.6700  202.3430  149.1860 C   0  0  0  0  0  0  0  0  0  0  0  0
  161.1560  201.1150  149.5110 N   0  0  0  0  0  0  0  0  0  0  0  0
  161.5410  200.2260  148.5570 C   0  0  0  0  0  3  0  0  0  0  0  0
  159.5620  201.7600  144.8090 C   0  0  0  0  0  1  0  0  0  0  0  0
  160.8640  202.2500  145.4170 C   0  0  0  0  0  2  0  0  0  0  0  0
  161.8380  199.6620  146.1980 O   0  0  0  0  0  0  0  0  0  0  0  0
  161.0200  198.5780  145.7760 C   0  0  0  0  0  1  0  0  0  0  0  0
  160.8230  206.6490  148.9900 C   0  0  0  0  0  2  0  0  0  0  0  0
  161.4590  205.6790  145.2650 C   0  0  0  0  0  0  0  0  0  0  0  0
  160.2490  206.2800  146.2660 S   0  0  0  0  0  0  0  0  0  0  0  0
  161.3330  205.4530  143.8030 C   0  0  0  0  0  1  0  0  0  0  0  0
  162.4650  205.7330  147.3370 N   0  0  0  0  0  0  0  0  0  0  0  0
  162.6010  205.4360  146.0160 C   0  0  0  0  0  3  0  0  0  0  0  0
  161.2290  206.1960  147.6300 C   0  0  0  0  0  0  0  0  0  0  0  0
  1  5  2  0  0  0  0
  1  7  1  0  0  0  0
  2  3  1  6  0  0  0
  2  4  1  0  0  0  0
  2  7  1  0  0  0  0
  3  8  1  0  0  0  0
  4 11  1  0  0  0  0
  5  9  2  0  0  0  0
  7 10  1  0  0  0  0
  8 24  1  6  0  0  0
  8  1  1  0  0  0  0
 11  6  1  6  0  0  0
 11 10  1  0  0  0  0
 12  9  1  0  0  0  0
 13 12  1  0  0  0  0
 14 16  2  0  0  0  0
 14 15  1  0  0  0  0
 15 17  2  0  0  0  0
 16 19  1  0  0  0  0
 17 18  1  0  0  0  0
 17 13  1  0  0  0  0
 19 18  2  0  0  0  0
 20 21  1  0  0  0  0
 21 14  1  0  0  0  0
 22 16  1  0  0  0  0
 23 22  1  0  0  0  0
 25 29  2  0  0  0  0
 25 26  1  0  0  0  0
 26 30  1  0  0  0  0
 27 25  1  0  0  0  0
 28 30  2  0  0  0  0
 29 28  1  0  0  0  0
 30 24  1  0  0  0  0
M  END
>  <MODEL>
1

>  <REMARK>
 VINA RESULT:      -7.3      0.000      0.000
  Name = 
  7 active torsions:
  status: ('A' for Active; 'I' for Inactive)
    1  A    between atoms: C_2  and  C_28
    2  A    between atoms: N_4  and  C_23
    3  A    between atoms: N_4  and  C_26
    4  A    between atoms: C_5  and  O_14
    5  A    between atoms: C_7  and  C_26
    6  A    between atoms: C_18  and  C_21
    7  A    between atoms: C_18  and  C_30
                            x       y       z     vdW  Elec       q    Type
                         _______ _______ _______ _____ _____    ______ ____

>  <TORSDO>
F 7

$$$$
=
 OpenBabel11042420223D

 30 33  0  0  1  0  0  0  0  0999 V2000
  161.3790  208.4290  154.0850 C   0  0  0  0  0  0  0  0  0  0  0  0
  161.9070  210.3680  155.2770 C   0  0  1  0  0  3  0  0  0  0  0  0
  161.9710  210.6940  153.7800 C   0  0  0  0  0  2  0  0  0  0  0  0
  160.8740  211.1490  155.9080 N   0  0  0  0  0  0  0  0  0  0  0  0
  161.2400  207.1460  153.8840 C   0  0  0  0  0  0  0  0  0  0  0  0
  158.8680  211.1310  157.2590 C   0  0  0  0  0  1  0  0  0  0  0  0
  161.5030  208.9800  155.3830 N   0  0  0  0  0  0  0  0  0  0  0  0
  161.7280  209.3930  153.0150 C   0  0  2  0  0  3  0  0  0  0  0  0
  161.1000  205.8660  153.6860 C   0  0  0  0  0  3  0  0  0  0  0  0
  160.2700  208.7070  156.6160 S   0  0  0  0  0  0  0  0  0  0  0  0
  160.0240  210.4750  156.5880 C   0  0  0  0  0  0  0  0  0  0  0  0
  160.9270  205.3720  152.3640 N   0  0  0  0  0  2  0  0  0  0  0  0
  160.8550  203.9450  152.1170 C   0  0  0  0  0  2  0  0  0  0  0  0
  161.3520  204.4780  148.4120 C   0  0  0  0  0  0  0  0  0  0  0  0
  161.2580  204.7330  149.7820 C   0  0  0  0  0  3  0  0  0  0  0  0
  161.1280  203.1800  147.9270 C   0  0  0  0  0  0  0  0  0  0  0  0
  160.9270  203.6940  150.6530 C   0  0  0  0  0  0  0  0  0  0  0  0
  160.7200  202.4400  150.1690 N   0  0  0  0  0  0  0  0  0  0  0  0
  160.8100  202.1650  148.8400 C   0  0  0  0  0  3  0  0  0  0  0  0
  161.2850  206.9230  148.0700 C   0  0  0  0  0  1  0  0  0  0  0  0
  161.7260  205.5920  147.4890 C   0  0  0  0  0  2  0  0  0  0  0  0
  161.2270  202.9210  146.5550 O   0  0  0  0  0  0  0  0  0  0  0  0
  160.7600  201.7150  145.9630 C   0  0  0  0  0  1  0  0  0  0  0  0
  160.5510  209.5880  152.0700 C   0  0  0  0  0  2  0  0  0  0  0  0
  158.6920  212.9560  152.7150 C   0  0  0  0  0  0  0  0  0  0  0  0
  159.9570  212.3200  151.8100 S   0  0  0  0  0  0  0  0  0  0  0  0
  158.2280  214.3670  152.6750 C   0  0  0  0  0  1  0  0  0  0  0  0
  158.7360  210.7420  153.3510 N   0  0  0  0  0  0  0  0  0  0  0  0
  158.1370  211.9550  153.5010 C   0  0  0  0  0  3  0  0  0  0  0  0
  159.7570  210.7840  152.4660 C   0  0  0  0  0  0  0  0  0  0  0  0
  1  7  1  0  0  0  0
  2  3  1  6  0  0  0
  2  7  1  0  0  0  0
  2  4  1  0  0  0  0
  4 11  2  0  0  0  0
  5  1  2  0  0  0  0
  7 10  1  0  0  0  0
  8 24  1  6  0  0  0
  8  3  1  0  0  0  0
  8  1  1  0  0  0  0
  9  5  2  0  0  0  0
 11 10  1  0  0  0  0
 11  6  1  0  0  0  0
 12  9  1  0  0  0  0
 13 12  1  0  0  0  0
 14 15  1  0  0  0  0
 15 17  2  0  0  0  0
 16 14  2  0  0  0  0
 16 19  1  0  0  0  0
 17 13  1  0  0  0  0
 18 17  1  0  0  0  0
 19 18  2  0  0  0  0
 21 20  1  0  0  0  0
 21 14  1  0  0  0  0
 22 16  1  0  0  0  0
 23 22  1  0  0  0  0
 24 30  1  0  0  0  0
 25 29  2  0  0  0  0
 26 30  1  0  0  0  0
 26 25  1  0  0  0  0
 27 25  1  0  0  0  0
 28 29  1  0  0  0  0
 30 28  2  0  0  0  0
M  END
>  <MODEL>
2

>  <REMARK>
 VINA RESULT:      -6.7      2.611      5.465
  Name = 
  7 active torsions:
  status: ('A' for Active; 'I' for Inactive)
    1  A    between atoms: C_2  and  C_28
    2  A    between atoms: N_4  and  C_23
    3  A    between atoms: N_4  and  C_26
    4  A    between atoms: C_5  and  O_14
    5  A    between atoms: C_7  and  C_26
    6  A    between atoms: C_18  and  C_21
    7  A    between atoms: C_18  and  C_30
                            x       y       z     vdW  Elec       q    Type
                         _______ _______ _______ _____ _____    ______ ____

>  <TORSDO>
F 7

$$$$
=
 OpenBabel11042420223D

 30 33  0  0  1  0  0  0  0  0999 V2000
  161.4000  208.3770  153.9930 C   0  0  0  0  0  0  0  0  0  0  0  0
  161.8060  210.3180  155.2290 C   0  0  1  0  0  3  0  0  0  0  0  0
  161.9970  210.6480  153.7440 C   0  0  0  0  0  2  0  0  0  0  0  0
  160.7160  211.0880  155.7700 N   0  0  0  0  0  0  0  0  0  0  0  0
  161.2900  207.0930  153.7780 C   0  0  0  0  0  0  0  0  0  0  0  0
  158.6010  211.0500  156.9420 C   0  0  0  0  0  1  0  0  0  0  0  0
  161.4060  208.9260  155.2970 N   0  0  0  0  0  0  0  0  0  0  0  0
  161.8320  209.3470  152.9590 C   0  0  2  0  0  3  0  0  0  0  0  0
  161.1790  205.8130  153.5660 C   0  0  0  0  0  3  0  0  0  0  0  0
  160.0740  208.6390  156.4190 S   0  0  0  0  0  0  0  0  0  0  0  0
  159.8160  210.4050  156.3730 C   0  0  0  0  0  0  0  0  0  0  0  0
  161.1250  205.3210  152.2330 N   0  0  0  0  0  2  0  0  0  0  0  0
  161.0330  206.2380  151.1140 C   0  0  0  0  0  2  0  0  0  0  0  0
  161.1130  203.4090  148.6140 C   0  0  0  0  0  0  0  0  0  0  0  0
  160.9870  204.1040  149.8200 C   0  0  0  0  0  3  0  0  0  0  0  0
  161.4320  204.1060  147.4380 C   0  0  0  0  0  0  0  0  0  0  0  0
  161.1960  205.4830  149.8430 C   0  0  0  0  0  0  0  0  0  0  0  0
  161.4960  206.1460  148.6950 N   0  0  0  0  0  0  0  0  0  0  0  0
  161.6200  205.4940  147.5070 C   0  0  0  0  0  3  0  0  0  0  0  0
  160.7950  201.3980  150.0120 C   0  0  0  0  0  1  0  0  0  0  0  0
  160.8710  201.9350  148.5940 C   0  0  0  0  0  2  0  0  0  0  0  0
  161.5540  203.4140  146.2280 O   0  0  0  0  0  0  0  0  0  0  0  0
  161.1810  203.9780  144.9770 C   0  0  0  0  0  1  0  0  0  0  0  0
  160.7400  209.5350  151.9160 C   0  0  0  0  0  2  0  0  0  0  0  0
  162.1400  211.4710  148.8330 C   0  0  0  0  0  0  0  0  0  0  0  0
  161.2690  211.7300  150.2470 S   0  0  0  0  0  0  0  0  0  0  0  0
  162.5290  212.5220  147.8570 C   0  0  0  0  0  1  0  0  0  0  0  0
  161.9840  209.3640  149.7510 N   0  0  0  0  0  0  0  0  0  0  0  0
  162.4490  210.1230  148.7210 C   0  0  0  0  0  3  0  0  0  0  0  0
  161.3090  210.1000  150.6610 C   0  0  0  0  0  0  0  0  0  0  0  0
  1  7  1  0  0  0  0
  2  3  1  6  0  0  0
  2  7  1  0  0  0  0
  2  4  1  0  0  0  0
  4 11  2  0  0  0  0
  5  1  2  0  0  0  0
  7 10  1  0  0  0  0
  8 24  1  6  0  0  0
  8  3  1  0  0  0  0
  8  1  1  0  0  0  0
  9  5  2  0  0  0  0
 11 10  1  0  0  0  0
 11  6  1  0  0  0  0
 12  9  1  0  0  0  0
 13 12  1  0  0  0  0
 14 15  1  0  0  0  0
 15 17  2  0  0  0  0
 16 19  1  0  0  0  0
 16 14  2  0  0  0  0
 17 13  1  0  0  0  0
 18 17  1  0  0  0  0
 19 18  2  0  0  0  0
 21 14  1  0  0  0  0
 21 20  1  0  0  0  0
 22 16  1  0  0  0  0
 23 22  1  0  0  0  0
 25 26  1  0  0  0  0
 26 30  1  0  0  0  0
 27 25  1  0  0  0  0
 28 30  2  0  0  0  0
 29 25  2  0  0  0  0
 29 28  1  0  0  0  0
 30 24  1  0  0  0  0
M  END
>  <MODEL>
3

>  <REMARK>
 VINA RESULT:      -6.6      2.625      4.440
  Name = 
  7 active torsions:
  status: ('A' for Active; 'I' for Inactive)
    1  A    between atoms: C_2  and  C_28
    2  A    between atoms: N_4  and  C_23
    3  A    between atoms: N_4  and  C_26
    4  A    between atoms: C_5  and  O_14
    5  A    between atoms: C_7  and  C_26
    6  A    between atoms: C_18  and  C_21
    7  A    between atoms: C_18  and  C_30
                            x       y       z     vdW  Elec       q    Type
                         _______ _______ _______ _____ _____    ______ ____

>  <TORSDO>
F 7

$$$$
=
 OpenBabel11042420223D

 30 33  0  0  1  0  0  0  0  0999 V2000
  161.4060  207.9560  153.7430 C   0  0  0  0  0  0  0  0  0  0  0  0
  161.8610  209.8800  154.9890 C   0  0  1  0  0  3  0  0  0  0  0  0
  162.0850  210.2050  153.5080 C   0  0  0  0  0  2  0  0  0  0  0  0
  160.7900  210.6870  155.5150 N   0  0  0  0  0  0  0  0  0  0  0  0
  161.2550  206.6770  153.5250 C   0  0  0  0  0  0  0  0  0  0  0  0
  158.6570  210.7200  156.6560 C   0  0  0  0  0  1  0  0  0  0  0  0
  161.4120  208.5020  155.0490 N   0  0  0  0  0  0  0  0  0  0  0  0
  161.8860  208.9120  152.7180 C   0  0  2  0  0  3  0  0  0  0  0  0
  161.1020  205.4020  153.3090 C   0  0  0  0  0  3  0  0  0  0  0  0
  160.0530  208.2600  156.1500 S   0  0  0  0  0  0  0  0  0  0  0  0
  159.8580  210.0340  156.1030 C   0  0  0  0  0  0  0  0  0  0  0  0
  161.0510  204.9130  151.9740 N   0  0  0  0  0  2  0  0  0  0  0  0
  161.1130  205.8310  150.8530 C   0  0  0  0  0  2  0  0  0  0  0  0
  161.5170  204.9780  147.1970 C   0  0  0  0  0  0  0  0  0  0  0  0
  161.4110  205.7180  148.3770 C   0  0  0  0  0  3  0  0  0  0  0  0
  161.4190  203.5780  147.2400 C   0  0  0  0  0  0  0  0  0  0  0  0
  161.1950  205.0560  149.5860 C   0  0  0  0  0  0  0  0  0  0  0  0
  161.1090  203.7000  149.6140 N   0  0  0  0  0  0  0  0  0  0  0  0
  161.2130  202.9550  148.4800 C   0  0  0  0  0  3  0  0  0  0  0  0
  160.4510  206.1030  145.2740 C   0  0  0  0  0  1  0  0  0  0  0  0
  161.7680  205.6930  145.9090 C   0  0  0  0  0  2  0  0  0  0  0  0
  161.5290  202.8340  146.0600 O   0  0  0  0  0  0  0  0  0  0  0  0
  160.4580  202.0610  145.5350 C   0  0  0  0  0  1  0  0  0  0  0  0
  160.8170  209.1380  151.6590 C   0  0  0  0  0  2  0  0  0  0  0  0
  162.3320  211.2660  148.7610 C   0  0  0  0  0  0  0  0  0  0  0  0
  161.5490  211.4470  150.2370 S   0  0  0  0  0  0  0  0  0  0  0  0
  162.8110  212.3770  147.8990 C   0  0  0  0  0  1  0  0  0  0  0  0
  161.9560  209.0940  149.4300 N   0  0  0  0  0  0  0  0  0  0  0  0
  162.4720  209.9150  148.4760 C   0  0  0  0  0  3  0  0  0  0  0  0
  161.4060  209.7850  150.4530 C   0  0  0  0  0  0  0  0  0  0  0  0
  1  7  1  0  0  0  0
  2  3  1  6  0  0  0
  2  7  1  0  0  0  0
  2  4  1  0  0  0  0
  4 11  2  0  0  0  0
  5  1  2  0  0  0  0
  7 10  1  0  0  0  0
  8 24  1  6  0  0  0
  8  3  1  0  0  0  0
  8  1  1  0  0  0  0
  9  5  2  0  0  0  0
 11 10  1  0  0  0  0
 11  6  1  0  0  0  0
 12  9  1  0  0  0  0
 13 12  1  0  0  0  0
 14 16  2  0  0  0  0
 14 15  1  0  0  0  0
 15 17  2  0  0  0  0
 16 19  1  0  0  0  0
 17 18  1  0  0  0  0
 17 13  1  0  0  0  0
 19 18  2  0  0  0  0
 20 21  1  0  0  0  0
 21 14  1  0  0  0  0
 22 16  1  0  0  0  0
 23 22  1  0  0  0  0
 25 26  1  0  0  0  0
 26 30  1  0  0  0  0
 27 25  1  0  0  0  0
 28 30  2  0  0  0  0
 29 25  2  0  0  0  0
 29 28  1  0  0  0  0
 30 24  1  0  0  0  0
M  END
>  <MODEL>
4

>  <REMARK>
 VINA RESULT:      -6.2      2.453      3.972
  Name = 
  7 active torsions:
  status: ('A' for Active; 'I' for Inactive)
    1  A    between atoms: C_2  and  C_28
    2  A    between atoms: N_4  and  C_23
    3  A    between atoms: N_4  and  C_26
    4  A    between atoms: C_5  and  O_14
    5  A    between atoms: C_7  and  C_26
    6  A    between atoms: C_18  and  C_21
    7  A    between atoms: C_18  and  C_30
                            x       y       z     vdW  Elec       q    Type
                         _______ _______ _______ _____ _____    ______ ____

>  <TORSDO>
F 7

$$$$
=
 OpenBabel11042420223D

 30 33  0  0  1  0  0  0  0  0999 V2000
  160.9830  205.6080  149.5340 C   0  0  0  0  0  0  0  0  0  0  0  0
  160.6760  205.9460  147.2430 C   0  0  1  0  0  3  0  0  0  0  0  0
  160.8080  207.3180  147.9150 C   0  0  0  0  0  2  0  0  0  0  0  0
  161.7600  205.7450  146.3170 N   0  0  0  0  0  0  0  0  0  0  0  0
  160.9250  204.9650  150.6700 C   0  0  0  0  0  0  0  0  0  0  0  0
  163.5990  204.3280  145.6360 C   0  0  0  0  0  1  0  0  0  0  0  0
  160.8310  204.9540  148.2890 N   0  0  0  0  0  0  0  0  0  0  0  0
  160.9020  207.0830  149.4230 C   0  0  2  0  0  3  0  0  0  0  0  0
  160.8680  204.3220  151.8010 C   0  0  0  0  0  3  0  0  0  0  0  0
  161.8800  203.6120  147.8240 S   0  0  0  0  0  0  0  0  0  0  0  0
  162.4180  204.6580  146.4810 C   0  0  0  0  0  0  0  0  0  0  0  0
  161.0800  205.0200  153.0210 N   0  0  0  0  0  2  0  0  0  0  0  0
  161.9060  206.2110  153.0520 C   0  0  0  0  0  2  0  0  0  0  0  0
  160.5040  209.5140  154.2280 C   0  0  0  0  0  0  0  0  0  0  0  0
  161.1490  208.5580  153.4390 C   0  0  0  0  0  3  0  0  0  0  0  0
  159.9520  209.1410  155.4640 C   0  0  0  0  0  0  0  0  0  0  0  0
  161.2500  207.2440  153.8970 C   0  0  0  0  0  0  0  0  0  0  0  0
  160.7040  206.8960  155.0930 N   0  0  0  0  0  0  0  0  0  0  0  0
  160.0660  207.8060  155.8770 C   0  0  0  0  0  3  0  0  0  0  0  0
  159.1450  211.0540  152.8560 C   0  0  0  0  0  1  0  0  0  0  0  0
  160.3840  210.9150  153.7220 C   0  0  0  0  0  2  0  0  0  0  0  0
  159.3010  210.0950  156.2540 O   0  0  0  0  0  0  0  0  0  0  0  0
  159.9690  210.8520  157.2550 C   0  0  0  0  0  1  0  0  0  0  0  0
  162.1780  207.7270  149.9440 C   0  0  0  0  0  2  0  0  0  0  0  0
  161.9880  211.4980  148.9640 C   0  0  0  0  0  0  0  0  0  0  0  0
  162.1280  209.9770  148.2640 S   0  0  0  0  0  0  0  0  0  0  0  0
  161.9180  212.7840  148.2230 C   0  0  0  0  0  1  0  0  0  0  0  0
  162.0130  210.0810  150.7800 N   0  0  0  0  0  0  0  0  0  0  0  0
  161.9380  211.3680  150.3450 C   0  0  0  0  0  3  0  0  0  0  0  0
  162.1310  209.2040  149.7580 C   0  0  0  0  0  0  0  0  0  0  0  0
  1  5  2  0  0  0  0
  2  3  1  1  0  0  0
  2  7  1  0  0  0  0
  3  8  1  0  0  0  0
  4 11  2  0  0  0  0
  4  2  1  0  0  0  0
  5  9  2  0  0  0  0
  6 11  1  0  0  0  0
  7  1  1  0  0  0  0
  8  1  1  0  0  0  0
  8 24  1  6  0  0  0
  9 12  1  0  0  0  0
 10  7  1  0  0  0  0
 11 10  1  0  0  0  0
 12 13  1  0  0  0  0
 13 17  1  0  0  0  0
 14 16  1  0  0  0  0
 15 17  1  0  0  0  0
 15 14  2  0  0  0  0
 16 19  2  0  0  0  0
 16 22  1  0  0  0  0
 17 18  2  0  0  0  0
 18 19  1  0  0  0  0
 20 21  1  0  0  0  0
 21 14  1  0  0  0  0
 22 23  1  0  0  0  0
 25 29  2  0  0  0  0
 26 25  1  0  0  0  0
 26 30  1  0  0  0  0
 27 25  1  0  0  0  0
 29 28  1  0  0  0  0
 30 24  1  0  0  0  0
 30 28  2  0  0  0  0
M  END
>  <MODEL>
5

>  <REMARK>
 VINA RESULT:      -6.1      3.919      8.068
  Name = 
  7 active torsions:
  status: ('A' for Active; 'I' for Inactive)
    1  A    between atoms: C_2  and  C_28
    2  A    between atoms: N_4  and  C_23
    3  A    between atoms: N_4  and  C_26
    4  A    between atoms: C_5  and  O_14
    5  A    between atoms: C_7  and  C_26
    6  A    between atoms: C_18  and  C_21
    7  A    between atoms: C_18  and  C_30
                            x       y       z     vdW  Elec       q    Type
                         _______ _______ _______ _____ _____    ______ ____

>  <TORSDO>
F 7

$$$$
=
 OpenBabel11042420223D

 30 33  0  0  1  0  0  0  0  0999 V2000
  161.1040  208.3160  153.0680 C   0  0  0  0  0  0  0  0  0  0  0  0
  160.2110  208.7360  155.1860 C   0  0  1  0  0  3  0  0  0  0  0  0
  159.9680  207.2610  154.8490 C   0  0  0  0  0  2  0  0  0  0  0  0
  161.0690  208.8430  156.3390 N   0  0  0  0  0  0  0  0  0  0  0  0
  161.5310  208.6060  151.8680 C   0  0  0  0  0  0  0  0  0  0  0  0
  163.1100  209.7570  157.2610 C   0  0  0  0  0  1  0  0  0  0  0  0
  160.9420  209.3030  154.0700 N   0  0  0  0  0  0  0  0  0  0  0  0
  160.4620  207.0290  153.4210 C   0  0  2  0  0  3  0  0  0  0  0  0
  161.9590  208.8970  150.6730 C   0  0  0  0  0  3  0  0  0  0  0  0
  162.2870  210.3320  154.5690 S   0  0  0  0  0  0  0  0  0  0  0  0
  162.1010  209.5850  156.1790 C   0  0  0  0  0  0  0  0  0  0  0  0
  162.1540  207.8580  149.7210 N   0  0  0  0  0  2  0  0  0  0  0  0
  161.7170  208.0280  148.3490 C   0  0  0  0  0  2  0  0  0  0  0  0
  160.9990  205.3290  145.8080 C   0  0  0  0  0  0  0  0  0  0  0  0
  161.0440  206.5790  146.4300 C   0  0  0  0  0  3  0  0  0  0  0  0
  161.5570  204.2110  146.4460 C   0  0  0  0  0  0  0  0  0  0  0  0
  161.6330  206.6970  147.6900 C   0  0  0  0  0  0  0  0  0  0  0  0
  162.1770  205.6070  148.2930 N   0  0  0  0  0  0  0  0  0  0  0  0
  162.1500  204.3800  147.7060 C   0  0  0  0  0  3  0  0  0  0  0  0
  161.3640  205.6760  143.3900 C   0  0  0  0  0  1  0  0  0  0  0  0
  160.3830  205.2140  144.4510 C   0  0  0  0  0  2  0  0  0  0  0  0
  161.5170  202.9580  145.8220 O   0  0  0  0  0  0  0  0  0  0  0  0
  160.9080  201.8200  146.4190 C   0  0  0  0  0  1  0  0  0  0  0  0
  161.4890  205.9060  153.4300 C   0  0  0  0  0  2  0  0  0  0  0  0
  160.8960  202.9920  150.9050 C   0  0  0  0  0  0  0  0  0  0  0  0
  161.6160  203.3000  152.3930 S   0  0  0  0  0  0  0  0  0  0  0  0
  160.8460  201.6700  150.2300 C   0  0  0  0  0  1  0  0  0  0  0  0
  160.5170  205.2420  151.2200 N   0  0  0  0  0  0  0  0  0  0  0  0
  160.3440  204.1650  150.4080 C   0  0  0  0  0  3  0  0  0  0  0  0
  161.2050  204.9300  152.3410 C   0  0  0  0  0  0  0  0  0  0  0  0
  1  8  1  0  0  0  0
  1  7  1  0  0  0  0
  2  3  1  6  0  0  0
  2  4  1  0  0  0  0
  5  1  2  0  0  0  0
  7 10  1  0  0  0  0
  7  2  1  0  0  0  0
  8 24  1  1  0  0  0
  8  3  1  0  0  0  0
  9  5  2  0  0  0  0
 10 11  1  0  0  0  0
 11  4  2  0  0  0  0
 11  6  1  0  0  0  0
 12  9  1  0  0  0  0
 13 12  1  0  0  0  0
 14 15  2  0  0  0  0
 14 16  1  0  0  0  0
 15 17  1  0  0  0  0
 16 19  2  0  0  0  0
 17 18  2  0  0  0  0
 17 13  1  0  0  0  0
 19 18  1  0  0  0  0
 20 21  1  0  0  0  0
 21 14  1  0  0  0  0
 22 23  1  0  0  0  0
 22 16  1  0  0  0  0
 25 26  1  0  0  0  0
 27 25  1  0  0  0  0
 28 30  2  0  0  0  0
 29 25  2  0  0  0  0
 29 28  1  0  0  0  0
 30 26  1  0  0  0  0
 30 24  1  0  0  0  0
M  END
>  <MODEL>
6

>  <REMARK>
 VINA RESULT:      -6.0      2.465      4.642
  Name = 
  7 active torsions:
  status: ('A' for Active; 'I' for Inactive)
    1  A    between atoms: C_2  and  C_28
    2  A    between atoms: N_4  and  C_23
    3  A    between atoms: N_4  and  C_26
    4  A    between atoms: C_5  and  O_14
    5  A    between atoms: C_7  and  C_26
    6  A    between atoms: C_18  and  C_21
    7  A    between atoms: C_18  and  C_30
                            x       y       z     vdW  Elec       q    Type
                         _______ _______ _______ _____ _____    ______ ____

>  <TORSDO>
F 7

$$$$
=
 OpenBabel11042420223D

 30 33  0  0  1  0  0  0  0  0999 V2000
  160.4210  210.4700  153.1860 C   0  0  0  0  0  0  0  0  0  0  0  0
  160.3580  208.9190  154.9330 C   0  0  1  0  0  3  0  0  0  0  0  0
  160.6950  208.1690  153.6390 C   0  0  0  0  0  2  0  0  0  0  0  0
  161.4520  208.8140  155.8640 N   0  0  0  0  0  0  0  0  0  0  0  0
  160.1560  211.5890  152.5650 C   0  0  0  0  0  0  0  0  0  0  0  0
  163.0370  209.9910  157.2610 C   0  0  0  0  0  1  0  0  0  0  0  0
  160.2440  210.3220  154.5820 N   0  0  0  0  0  0  0  0  0  0  0  0
  160.6290  209.1770  152.4920 C   0  0  2  0  0  3  0  0  0  0  0  0
  159.8930  212.7050  151.9490 C   0  0  0  0  0  3  0  0  0  0  0  0
  161.0530  211.3940  155.7280 S   0  0  0  0  0  0  0  0  0  0  0  0
  161.8790  209.9290  156.3270 C   0  0  0  0  0  0  0  0  0  0  0  0
  160.1400  212.8160  150.5530 N   0  0  0  0  0  2  0  0  0  0  0  0
  161.1610  212.0030  149.9210 C   0  0  0  0  0  2  0  0  0  0  0  0
  160.5300  213.3390  146.4460 C   0  0  0  0  0  0  0  0  0  0  0  0
  160.3030  212.8560  147.7370 C   0  0  0  0  0  3  0  0  0  0  0  0
  161.8440  213.4610  145.9680 C   0  0  0  0  0  0  0  0  0  0  0  0
  161.3880  212.4870  148.5330 C   0  0  0  0  0  0  0  0  0  0  0  0
  162.6550  212.6180  148.0600 N   0  0  0  0  0  0  0  0  0  0  0  0
  162.9040  213.0900  146.8080 C   0  0  0  0  0  3  0  0  0  0  0  0
  158.8440  212.5610  144.8170 C   0  0  0  0  0  1  0  0  0  0  0  0
  159.3640  213.7490  145.6070 C   0  0  0  0  0  2  0  0  0  0  0  0
  162.0750  213.9490  144.6760 O   0  0  0  0  0  0  0  0  0  0  0  0
  162.7830  213.2100  143.6890 C   0  0  0  0  0  1  0  0  0  0  0  0
  161.9600  209.1760  151.7550 C   0  0  0  0  0  2  0  0  0  0  0  0
  161.5390  206.5690  148.8840 C   0  0  0  0  0  0  0  0  0  0  0  0
  161.4080  206.6980  150.5550 S   0  0  0  0  0  0  0  0  0  0  0  0
  161.2560  205.3460  148.0900 C   0  0  0  0  0  1  0  0  0  0  0  0
  162.1300  208.7580  149.2930 N   0  0  0  0  0  0  0  0  0  0  0  0
  161.9430  207.7880  148.3570 C   0  0  0  0  0  3  0  0  0  0  0  0
  161.8860  208.3110  150.5450 C   0  0  0  0  0  0  0  0  0  0  0  0
  1  7  1  0  0  0  0
  2  3  1  6  0  0  0
  2  4  1  0  0  0  0
  4 11  2  0  0  0  0
  5  1  2  0  0  0  0
  7  2  1  0  0  0  0
  7 10  1  0  0  0  0
  8 24  1  1  0  0  0
  8  1  1  0  0  0  0
  8  3  1  0  0  0  0
  9  5  2  0  0  0  0
 10 11  1  0  0  0  0
 11  6  1  0  0  0  0
 12  9  1  0  0  0  0
 13 12  1  0  0  0  0
 14 15  1  0  0  0  0
 15 17  2  0  0  0  0
 16 14  2  0  0  0  0
 16 19  1  0  0  0  0
 17 13  1  0  0  0  0
 18 17  1  0  0  0  0
 19 18  2  0  0  0  0
 20 21  1  0  0  0  0
 21 14  1  0  0  0  0
 22 16  1  0  0  0  0
 23 22  1  0  0  0  0
 25 26  1  0  0  0  0
 27 25  1  0  0  0  0
 28 30  2  0  0  0  0
 29 25  2  0  0  0  0
 29 28  1  0  0  0  0
 30 26  1  0  0  0  0
 30 24  1  0  0  0  0
M  END
>  <MODEL>
7

>  <REMARK>
 VINA RESULT:      -6.0      4.854      8.281
  Name = 
  7 active torsions:
  status: ('A' for Active; 'I' for Inactive)
    1  A    between atoms: C_2  and  C_28
    2  A    between atoms: N_4  and  C_23
    3  A    between atoms: N_4  and  C_26
    4  A    between atoms: C_5  and  O_14
    5  A    between atoms: C_7  and  C_26
    6  A    between atoms: C_18  and  C_21
    7  A    between atoms: C_18  and  C_30
                            x       y       z     vdW  Elec       q    Type
                         _______ _______ _______ _____ _____    ______ ____

>  <TORSDO>
F 7

$$$$
=
 OpenBabel11042420223D

 30 33  0  0  1  0  0  0  0  0999 V2000
  161.4320  209.4460  152.9760 C   0  0  0  0  0  0  0  0  0  0  0  0
  161.5760  209.9750  155.2470 C   0  0  1  0  0  3  0  0  0  0  0  0
  160.8430  211.1180  154.5360 C   0  0  0  0  0  2  0  0  0  0  0  0
  160.7010  209.3500  156.2060 N   0  0  0  0  0  2  0  0  0  0  0  0
  161.7610  208.8520  151.8600 C   0  0  0  0  0  0  0  0  0  0  0  0
  159.6880  207.2930  156.9750 C   0  0  0  0  0  1  0  0  0  0  0  0
  161.8690  208.9770  154.2370 N   0  0  0  0  0  0  0  0  0  0  0  0
  160.8500  210.8080  153.0390 C   0  0  2  0  0  3  0  0  0  0  0  0
  162.0890  208.2570  150.7490 C   0  0  0  0  0  3  0  0  0  0  0  0
  161.5290  207.3290  154.7700 S   0  0  0  0  0  0  0  0  0  0  0  0
  160.5930  208.0790  156.0920 C   0  0  1  0  0  3  0  0  0  0  0  0
  161.5780  208.7410  149.5130 N   0  0  0  0  0  2  0  0  0  0  0  0
  161.9910  208.1360  148.2610 C   0  0  0  0  0  2  0  0  0  0  0  0
  161.0180  204.7140  149.5240 C   0  0  0  0  0  0  0  0  0  0  0  0
  161.2640  206.0880  149.4900 C   0  0  0  0  0  3  0  0  0  0  0  0
  161.2550  203.9340  148.3810 C   0  0  0  0  0  0  0  0  0  0  0  0
  161.7560  206.6690  148.3200 C   0  0  0  0  0  0  0  0  0  0  0  0
  161.9740  205.9020  147.2190 N   0  0  0  0  0  0  0  0  0  0  0  0
  161.7380  204.5630  147.2250 C   0  0  0  0  0  3  0  0  0  0  0  0
  161.2800  204.5620  151.9750 C   0  0  0  0  0  1  0  0  0  0  0  0
  160.4730  204.1030  150.7740 C   0  0  0  0  0  2  0  0  0  0  0  0
  161.0050  202.5570  148.4110 O   0  0  0  0  0  0  0  0  0  0  0  0
  160.8970  201.7680  147.2340 C   0  0  0  0  0  1  0  0  0  0  0  0
  159.4170  210.7980  152.5290 C   0  0  0  0  0  2  0  0  0  0  0  0
  157.2930  213.6610  154.1130 C   0  0  0  0  0  0  0  0  0  0  0  0
  157.4440  211.9870  154.1350 S   0  0  0  0  0  0  0  0  0  0  0  0
  156.3260  214.4490  154.9200 C   0  0  0  0  0  1  0  0  0  0  0  0
  158.9990  213.2650  152.6170 N   0  0  0  0  0  0  0  0  0  0  0  0
  158.2200  214.1970  153.2300 C   0  0  0  0  0  3  0  0  0  0  0  0
  158.6870  212.0070  153.0020 C   0  0  0  0  0  0  0  0  0  0  0  0
  1  8  1  0  0  0  0
  1  7  1  0  0  0  0
  2  3  1  6  0  0  0
  2  4  1  0  0  0  0
  5  1  2  0  0  0  0
  7 10  1  0  0  0  0
  7  2  1  0  0  0  0
  8 24  1  1  0  0  0
  8  3  1  0  0  0  0
  9  5  2  0  0  0  0
 10 11  1  0  0  0  0
 11  4  1  0  0  0  0
 11  6  1  6  0  0  0
 12  9  1  0  0  0  0
 13 17  1  0  0  0  0
 13 12  1  0  0  0  0
 14 21  1  0  0  0  0
 15 14  1  0  0  0  0
 16 22  1  0  0  0  0
 16 14  2  0  0  0  0
 17 15  2  0  0  0  0
 18 19  2  0  0  0  0
 18 17  1  0  0  0  0
 19 16  1  0  0  0  0
 21 20  1  0  0  0  0
 23 22  1  0  0  0  0
 24 30  1  0  0  0  0
 25 26  1  0  0  0  0
 25 27  1  0  0  0  0
 28 30  2  0  0  0  0
 28 29  1  0  0  0  0
 29 25  2  0  0  0  0
 30 26  1  0  0  0  0
M  END
>  <MODEL>
8

>  <REMARK>
 VINA RESULT:      -5.9      2.770      6.658
  Name = 
  7 active torsions:
  status: ('A' for Active; 'I' for Inactive)
    1  A    between atoms: C_2  and  C_28
    2  A    between atoms: N_4  and  C_23
    3  A    between atoms: N_4  and  C_26
    4  A    between atoms: C_5  and  O_14
    5  A    between atoms: C_7  and  C_26
    6  A    between atoms: C_18  and  C_21
    7  A    between atoms: C_18  and  C_30
                            x       y       z     vdW  Elec       q    Type
                         _______ _______ _______ _____ _____    ______ ____

>  <TORSDO>
F 7

$$$$
=
 OpenBabel11042420223D

 30 33  0  0  1  0  0  0  0  0999 V2000
  160.0900  210.3890  153.6670 C   0  0  0  0  0  0  0  0  0  0  0  0
  160.7460  208.8930  155.3390 C   0  0  1  0  0  3  0  0  0  0  0  0
  161.0530  208.2550  153.9790 C   0  0  0  0  0  2  0  0  0  0  0  0
  161.9670  209.0990  156.0740 N   0  0  0  0  0  2  0  0  0  0  0  0
  159.4300  211.3870  153.1430 C   0  0  0  0  0  0  0  0  0  0  0  0
  163.3810  210.6770  157.2410 C   0  0  0  0  0  1  0  0  0  0  0  0
  160.1960  210.2070  155.0670 N   0  0  0  0  0  0  0  0  0  0  0  0
  160.5240  209.1980  152.8990 C   0  0  2  0  0  3  0  0  0  0  0  0
  158.7740  212.3830  152.6220 C   0  0  0  0  0  3  0  0  0  0  0  0
  160.8610  211.4680  156.1080 S   0  0  0  0  0  0  0  0  0  0  0  0
  162.1440  210.2920  156.5060 C   0  0  1  0  0  3  0  0  0  0  0  0
  158.7440  212.5480  151.2100 N   0  0  0  0  0  2  0  0  0  0  0  0
  158.5370  213.8600  150.6280 C   0  0  0  0  0  2  0  0  0  0  0  0
  161.2230  213.8320  147.9740 C   0  0  0  0  0  0  0  0  0  0  0  0
  160.6010  213.8010  149.2240 C   0  0  0  0  0  3  0  0  0  0  0  0
  160.4460  213.9720  146.8120 C   0  0  0  0  0  0  0  0  0  0  0  0
  159.2130  213.9240  149.3050 C   0  0  0  0  0  0  0  0  0  0  0  0
  158.4740  214.0510  148.1710 N   0  0  0  0  0  0  0  0  0  0  0  0
  159.0540  214.0790  146.9410 C   0  0  0  0  0  3  0  0  0  0  0  0
  163.0910  212.2180  148.0090 C   0  0  0  0  0  1  0  0  0  0  0  0
  162.7070  213.6820  147.8940 C   0  0  0  0  0  2  0  0  0  0  0  0
  161.0660  213.9990  145.5570 O   0  0  0  0  0  0  0  0  0  0  0  0
  160.8570  212.9940  144.5730 C   0  0  0  0  0  1  0  0  0  0  0  0
  161.6620  209.5590  151.9560 C   0  0  0  0  0  2  0  0  0  0  0  0
  161.4200  206.8700  149.1400 C   0  0  0  0  0  0  0  0  0  0  0  0
  161.2060  207.0420  150.7980 S   0  0  0  0  0  0  0  0  0  0  0  0
  161.1940  205.6220  148.3670 C   0  0  0  0  0  1  0  0  0  0  0  0
  161.9570  209.0790  149.5170 N   0  0  0  0  0  0  0  0  0  0  0  0
  161.8310  208.0820  148.6000 C   0  0  0  0  0  3  0  0  0  0  0  0
  161.6600  208.6610  150.7680 C   0  0  0  0  0  0  0  0  0  0  0  0
  1  7  1  0  0  0  0
  2  3  1  6  0  0  0
  2  4  1  0  0  0  0
  4 11  1  0  0  0  0
  5  1  2  0  0  0  0
  7  2  1  0  0  0  0
  7 10  1  0  0  0  0
  8 24  1  6  0  0  0
  8  1  1  0  0  0  0
  8  3  1  0  0  0  0
  9  5  2  0  0  0  0
 10 11  1  0  0  0  0
 11  6  1  6  0  0  0
 12  9  1  0  0  0  0
 13 12  1  0  0  0  0
 14 15  1  0  0  0  0
 15 17  2  0  0  0  0
 16 19  1  0  0  0  0
 16 14  2  0  0  0  0
 17 13  1  0  0  0  0
 18 17  1  0  0  0  0
 19 18  2  0  0  0  0
 21 14  1  0  0  0  0
 21 20  1  0  0  0  0
 22 16  1  0  0  0  0
 23 22  1  0  0  0  0
 25 26  1  0  0  0  0
 27 25  1  0  0  0  0
 28 30  2  0  0  0  0
 29 25  2  0  0  0  0
 29 28  1  0  0  0  0
 30 26  1  0  0  0  0
 30 24  1  0  0  0  0
M  END
>  <MODEL>
9

>  <REMARK>
 VINA RESULT:      -5.9      4.763      8.739
  Name = 
  7 active torsions:
  status: ('A' for Active; 'I' for Inactive)
    1  A    between atoms: C_2  and  C_28
    2  A    between atoms: N_4  and  C_23
    3  A    between atoms: N_4  and  C_26
    4  A    between atoms: C_5  and  O_14
    5  A    between atoms: C_7  and  C_26
    6  A    between atoms: C_18  and  C_21
    7  A    between atoms: C_18  and  C_30
                            x       y       z     vdW  Elec       q    Type
                         _______ _______ _______ _____ _____    ______ ____

>  <TORSDO>
F 7

$$$$
