=
 OpenBabel11042420213D

 51 53  0  0  1  0  0  0  0  0999 V2000
  157.2700  213.6210  152.8630 C   0  0  0  0  0  0  0  0  0  0  0  0
  156.2380  214.2230  152.1190 C   0  0  0  0  0  3  0  0  0  0  0  0
  155.7420  213.4830  154.7580 C   0  0  0  0  0  3  0  0  0  0  0  0
  154.7350  214.0850  154.0050 C   0  0  0  0  0  3  0  0  0  0  0  0
  157.0130  213.2460  154.2070 C   0  0  0  0  0  0  0  0  0  0  0  0
  154.9820  214.4530  152.6830 C   0  0  0  0  0  3  0  0  0  0  0  0
  158.7400  213.5570  150.9020 C   0  0  0  0  0  3  0  0  0  0  0  0
  158.5970  213.4130  152.2210 C   0  0  0  0  0  0  0  0  0  0  0  0
  159.7090  213.0760  152.9940 O   0  0  0  0  0  1  0  0  0  0  0  0
  160.0510  213.3570  150.2180 C   0  0  0  0  0  2  0  0  0  0  0  0
  160.9980  213.5170  147.8840 C   0  0  0  0  0  0  0  0  0  0  0  0
  159.9030  213.6240  148.7980 N   0  0  0  0  0  2  0  0  0  0  0  0
  162.1330  213.1480  148.2890 O   0  0  0  0  0  0  0  0  0  0  0  0
  160.7820  213.7960  146.5020 N   0  0  0  0  0  2  0  0  0  0  0  0
  160.5860  212.1900  139.6240 C   0  0  1  0  0  3  0  0  0  0  0  0
  161.5000  213.0610  141.8520 C   0  0  2  0  0  3  0  0  0  0  0  0
  159.0330  212.6310  141.6080 C   0  0  0  0  0  2  0  0  0  0  0  0
  160.2930  212.3400  142.4290 C   0  0  2  0  0  3  0  0  0  0  0  0
  161.8530  212.4950  140.4680 C   0  0  1  0  0  3  0  0  0  0  0  0
  162.8300  212.9750  143.0860 S   0  0  0  0  0  0  0  0  0  0  0  0
  162.6100  211.3240  140.5930 O   0  0  0  0  0  1  0  0  0  0  0  0
  161.8100  213.6240  145.5230 C   0  0  0  0  0  3  0  0  0  0  0  0
  159.3480  212.9510  140.1300 C   0  0  0  0  0  2  0  0  0  0  0  0
  161.5440  213.1160  144.3230 C   0  0  0  0  0  0  0  0  0  0  0  0
  160.1600  212.7660  143.8780 C   0  0  0  0  0  2  0  0  0  0  0  0
  160.2770  213.7280  137.8070 O   0  0  0  0  0  1  0  0  0  0  0  0
  160.8290  212.4870  138.1410 C   0  0  2  0  0  3  0  0  0  0  0  0
  160.1660  210.3720  138.1710 C   0  0  0  0  0  1  0  0  0  0  0  0
  160.2370  211.4980  137.3490 O   0  0  0  0  0  0  0  0  0  0  0  0
  158.0220  212.5730  154.9780 N   0  0  0  0  0  2  0  0  0  0  0  0
  157.0310  210.4530  155.1720 O   0  0  0  0  0  0  0  0  0  0  0  0
  158.0320  211.1920  155.3650 C   0  0  0  0  0  0  0  0  0  0  0  0
  159.2360  210.6240  156.0350 C   0  0  0  0  0  2  0  0  0  0  0  0
  160.3800  210.4640  155.0440 C   0  0  0  0  0  2  0  0  0  0  0  0
  160.2180  209.1650  154.2690 C   0  0  0  0  0  2  0  0  0  0  0  0
  161.4410  210.4550  152.6200 O   0  0  0  0  0  1  0  0  0  0  0  0
  160.7880  209.2420  152.8560 C   0  0  1  0  0  3  0  0  0  0  0  0
  161.6480  208.0300  152.4760 C   0  0  1  0  0  3  0  0  0  0  0  0
  161.3130  205.9020  152.9700 C   0  0  0  0  0  1  0  0  0  0  0  0
  160.8140  206.9460  152.1950 O   0  0  0  0  0  0  0  0  0  0  0  0
  162.5550  208.2880  151.2770 C   0  0  0  0  0  2  0  0  0  0  0  0
  161.6100  209.0570  148.7140 O   0  0  0  0  0  0  0  0  0  0  0  0
  162.2420  207.3670  150.1970 N   0  0  0  0  0  2  0  0  0  0  0  0
  161.8300  207.8300  148.9100 C   0  0  0  0  0  0  0  0  0  0  0  0
  161.5910  206.8340  147.8190 C   0  0  0  0  0  2  0  0  0  0  0  0
  161.4230  203.1800  148.1210 O   0  0  0  0  0  0  0  0  0  0  0  0
  161.5400  204.2870  146.0930 N   0  0  0  0  0  2  0  0  0  0  0  0
  161.5570  204.2790  147.5270 C   0  0  0  0  0  0  0  0  0  0  0  0
  161.7250  205.4700  148.3100 N   0  0  0  0  0  2  0  0  0  0  0  0
  161.9600  205.4020  145.2560 C   0  0  0  0  0  2  0  0  0  0  0  0
  161.2140  205.3690  143.9360 C   0  0  0  0  0  1  0  0  0  0  0  0
  1  5  1  0  0  0  0
  2  6  1  0  0  0  0
  2  1  2  0  0  0  0
  4  3  1  0  0  0  0
  5  3  2  0  0  0  0
  5 30  1  0  0  0  0
  6  4  2  0  0  0  0
  7  8  2  0  0  0  0
  8  1  1  0  0  0  0
  8  9  1  0  0  0  0
 10  7  1  0  0  0  0
 11 13  2  0  0  0  0
 11 12  1  0  0  0  0
 12 10  1  0  0  0  0
 14 11  1  0  0  0  0
 15 27  1  6  0  0  0
 15 23  1  0  0  0  0
 15 19  1  0  0  0  0
 16 18  1  0  0  0  0
 16 20  1  1  0  0  0
 18 17  1  6  0  0  0
 18 25  1  0  0  0  0
 19 21  1  1  0  0  0
 19 16  1  0  0  0  0
 20 24  1  0  0  0  0
 22 14  1  0  0  0  0
 23 17  1  0  0  0  0
 24 22  2  0  0  0  0
 25 24  1  0  0  0  0
 27 26  1  6  0  0  0
 29 27  1  0  0  0  0
 29 28  1  0  0  0  0
 30 32  1  0  0  0  0
 31 32  2  0  0  0  0
 32 33  1  0  0  0  0
 34 33  1  0  0  0  0
 35 34  1  0  0  0  0
 37 36  1  1  0  0  0
 37 35  1  0  0  0  0
 38 41  1  6  0  0  0
 38 37  1  0  0  0  0
 40 38  1  0  0  0  0
 40 39  1  0  0  0  0
 42 44  2  0  0  0  0
 43 41  1  0  0  0  0
 44 43  1  0  0  0  0
 45 49  1  0  0  0  0
 45 44  1  0  0  0  0
 47 48  1  0  0  0  0
 48 46  2  0  0  0  0
 48 49  1  0  0  0  0
 50 47  1  0  0  0  0
 51 50  1  0  0  0  0
M  END
>  <MODEL>
1

>  <REMARK>
 VINA RESULT:      -6.4      0.000      0.000
  Name = 
  18 active torsions:
  status: ('A' for Active; 'I' for Inactive)
    1  A    between atoms: C_1  and  C_51
    2  A    between atoms: C_2  and  C_23
    3  A    between atoms: C_2  and  N_49
    4  A    between atoms: C_3  and  C_45
    5  A    between atoms: C_6  and  N_34
    6  A    between atoms: C_6  and  C_41
    7  A    between atoms: N_7  and  C_32
    8  A    between atoms: C_8  and  N_22
    9  A    between atoms: C_13  and  C_17
   10  A    between atoms: C_13  and  C_31
   11  A    between atoms: N_15  and  C_38
   12  A    between atoms: C_17  and  C_47
   13  A    between atoms: C_26  and  N_40
   14  A    between atoms: O_27  and  C_51
   15  A    between atoms: C_28  and  C_29
   16  A    between atoms: C_28  and  O_30
   17  A    between atoms: C_28  and  C_32
   18  A    between atoms: C_29  and  C_31
                            x       y       z     vdW  Elec       q    Type
                         _______ _______ _______ _____ _____    ______ ____

>  <TORSDO>
F 18

$$$$
=
 OpenBabel11042420213D

 51 53  0  0  1  0  0  0  0  0999 V2000
  158.3090  213.2210  152.6860 C   0  0  0  0  0  0  0  0  0  0  0  0
  157.1960  213.8430  152.0890 C   0  0  0  0  0  3  0  0  0  0  0  0
  157.2160  213.4730  154.8500 C   0  0  0  0  0  3  0  0  0  0  0  0
  156.1250  214.0910  154.2410 C   0  0  0  0  0  3  0  0  0  0  0  0
  158.3150  213.0340  154.0920 C   0  0  0  0  0  0  0  0  0  0  0  0
  156.1130  214.2740  152.8590 C   0  0  0  0  0  3  0  0  0  0  0  0
  159.6400  213.3610  150.6310 C   0  0  0  0  0  3  0  0  0  0  0  0
  159.4460  212.7950  151.8230 C   0  0  0  0  0  0  0  0  0  0  0  0
  160.3280  211.8060  152.2590 O   0  0  0  0  0  1  0  0  0  0  0  0
  160.7650  212.9640  149.7350 C   0  0  0  0  0  2  0  0  0  0  0  0
  161.3880  213.1620  147.2970 C   0  0  0  0  0  0  0  0  0  0  0  0
  160.4820  213.3990  148.3780 N   0  0  0  0  0  2  0  0  0  0  0  0
  162.4600  212.5280  147.4900 O   0  0  0  0  0  0  0  0  0  0  0  0
  161.0470  213.6200  145.9890 N   0  0  0  0  0  2  0  0  0  0  0  0
  159.5270  212.6630  139.1560 C   0  0  1  0  0  3  0  0  0  0  0  0
  160.9140  213.1560  141.2520 C   0  0  2  0  0  3  0  0  0  0  0  0
  158.4020  213.2210  141.3840 C   0  0  0  0  0  2  0  0  0  0  0  0
  159.6860  212.6300  141.9760 C   0  0  2  0  0  3  0  0  0  0  0  0
  160.9390  212.6520  139.8010 C   0  0  1  0  0  3  0  0  0  0  0  0
  162.3660  212.7170  142.2500 S   0  0  0  0  0  0  0  0  0  0  0  0
  161.4570  211.3540  139.7400 O   0  0  0  0  0  1  0  0  0  0  0  0
  161.8650  213.3390  144.8510 C   0  0  0  0  0  3  0  0  0  0  0  0
  158.5530  213.5990  139.8940 C   0  0  0  0  0  2  0  0  0  0  0  0
  161.3300  212.9940  143.6830 C   0  0  0  0  0  0  0  0  0  0  0  0
  159.8540  212.9490  143.4480 C   0  0  0  0  0  2  0  0  0  0  0  0
  160.9400  213.1140  137.2690 O   0  0  0  0  0  1  0  0  0  0  0  0
  159.6030  213.0330  137.6710 C   0  0  2  0  0  3  0  0  0  0  0  0
  157.6960  213.9530  137.0190 C   0  0  0  0  0  1  0  0  0  0  0  0
  158.9860  214.2670  137.4500 O   0  0  0  0  0  0  0  0  0  0  0  0
  159.4060  212.3480  154.7280 N   0  0  0  0  0  2  0  0  0  0  0  0
  158.2420  210.5470  155.6850 O   0  0  0  0  0  0  0  0  0  0  0  0
  159.3450  211.1000  155.4310 C   0  0  0  0  0  0  0  0  0  0  0  0
  160.6040  210.4550  155.8980 C   0  0  0  0  0  2  0  0  0  0  0  0
  160.7250  209.0420  155.3450 C   0  0  0  0  0  2  0  0  0  0  0  0
  160.8400  209.0860  153.8290 C   0  0  0  0  0  2  0  0  0  0  0  0
  161.0790  206.6770  153.9720 O   0  0  0  0  0  1  0  0  0  0  0  0
  161.4440  207.8120  153.2430 C   0  0  1  0  0  3  0  0  0  0  0  0
  161.1870  207.6500  151.7390 C   0  0  1  0  0  3  0  0  0  0  0  0
  161.9840  209.0640  150.2390 C   0  0  0  0  0  1  0  0  0  0  0  0
  162.3480  207.9820  151.0380 O   0  0  0  0  0  0  0  0  0  0  0  0
  160.7550  206.2400  151.3510 C   0  0  0  0  0  2  0  0  0  0  0  0
  160.8810  203.6330  150.2370 O   0  0  0  0  0  0  0  0  0  0  0  0
  161.1730  205.9370  149.9920 N   0  0  0  0  0  2  0  0  0  0  0  0
  161.1510  204.6050  149.4790 C   0  0  0  0  0  0  0  0  0  0  0  0
  161.5250  204.3680  148.0490 C   0  0  0  0  0  2  0  0  0  0  0  0
  160.7460  201.2390  146.2950 O   0  0  0  0  0  0  0  0  0  0  0  0
  161.1400  203.2440  145.2100 N   0  0  0  0  0  2  0  0  0  0  0  0
  161.0870  202.4440  146.3990 C   0  0  0  0  0  0  0  0  0  0  0  0
  161.4100  202.9590  147.6990 N   0  0  0  0  0  2  0  0  0  0  0  0
  161.7760  204.5490  145.1060 C   0  0  0  0  0  2  0  0  0  0  0  0
  160.7690  205.5820  144.6390 C   0  0  0  0  0  1  0  0  0  0  0  0
  1  5  1  0  0  0  0
  2  1  2  0  0  0  0
  2  6  1  0  0  0  0
  4  3  1  0  0  0  0
  5 30  1  0  0  0  0
  5  3  2  0  0  0  0
  6  4  2  0  0  0  0
  7  8  2  0  0  0  0
  8  9  1  0  0  0  0
  8  1  1  0  0  0  0
 10  7  1  0  0  0  0
 11 13  2  0  0  0  0
 11 12  1  0  0  0  0
 12 10  1  0  0  0  0
 14 11  1  0  0  0  0
 15 27  1  6  0  0  0
 15 19  1  0  0  0  0
 15 23  1  0  0  0  0
 16 18  1  0  0  0  0
 16 20  1  1  0  0  0
 18 17  1  6  0  0  0
 18 25  1  0  0  0  0
 19 21  1  1  0  0  0
 19 16  1  0  0  0  0
 20 24  1  0  0  0  0
 22 14  1  0  0  0  0
 23 17  1  0  0  0  0
 24 22  2  0  0  0  0
 25 24  1  0  0  0  0
 27 26  1  1  0  0  0
 28 29  1  0  0  0  0
 29 27  1  0  0  0  0
 30 32  1  0  0  0  0
 32 31  2  0  0  0  0
 32 33  1  0  0  0  0
 34 33  1  0  0  0  0
 35 34  1  0  0  0  0
 37 35  1  0  0  0  0
 37 36  1  1  0  0  0
 38 41  1  1  0  0  0
 38 37  1  0  0  0  0
 39 40  1  0  0  0  0
 40 38  1  0  0  0  0
 43 41  1  0  0  0  0
 44 43  1  0  0  0  0
 44 42  2  0  0  0  0
 45 44  1  0  0  0  0
 46 48  2  0  0  0  0
 47 48  1  0  0  0  0
 48 49  1  0  0  0  0
 49 45  1  0  0  0  0
 50 47  1  0  0  0  0
 51 50  1  0  0  0  0
M  END
>  <MODEL>
2

>  <REMARK>
 VINA RESULT:      -6.2      1.360      1.964
  Name = 
  18 active torsions:
  status: ('A' for Active; 'I' for Inactive)
    1  A    between atoms: C_1  and  C_51
    2  A    between atoms: C_2  and  C_23
    3  A    between atoms: C_2  and  N_49
    4  A    between atoms: C_3  and  C_45
    5  A    between atoms: C_6  and  N_34
    6  A    between atoms: C_6  and  C_41
    7  A    between atoms: N_7  and  C_32
    8  A    between atoms: C_8  and  N_22
    9  A    between atoms: C_13  and  C_17
   10  A    between atoms: C_13  and  C_31
   11  A    between atoms: N_15  and  C_38
   12  A    between atoms: C_17  and  C_47
   13  A    between atoms: C_26  and  N_40
   14  A    between atoms: O_27  and  C_51
   15  A    between atoms: C_28  and  C_29
   16  A    between atoms: C_28  and  O_30
   17  A    between atoms: C_28  and  C_32
   18  A    between atoms: C_29  and  C_31
                            x       y       z     vdW  Elec       q    Type
                         _______ _______ _______ _____ _____    ______ ____

>  <TORSDO>
F 18

$$$$
=
 OpenBabel11042420213D

 51 53  0  0  1  0  0  0  0  0999 V2000
  161.1280  203.1270  148.1230 C   0  0  0  0  0  0  0  0  0  0  0  0
  160.7660  202.0010  147.3600 C   0  0  0  0  0  3  0  0  0  0  0  0
  161.5570  204.3250  146.0450 C   0  0  0  0  0  3  0  0  0  0  0  0
  161.2000  203.1980  145.3070 C   0  0  0  0  0  3  0  0  0  0  0  0
  161.5300  204.3080  147.4500 C   0  0  0  0  0  0  0  0  0  0  0  0
  160.8010  202.0350  145.9650 C   0  0  0  0  0  3  0  0  0  0  0  0
  161.5900  204.0190  150.3600 C   0  0  0  0  0  3  0  0  0  0  0  0
  161.0910  203.0340  149.6100 C   0  0  0  0  0  0  0  0  0  0  0  0
  160.5240  201.9230  150.2320 O   0  0  0  0  0  1  0  0  0  0  0  0
  161.5740  203.9670  151.8520 C   0  0  0  0  0  2  0  0  0  0  0  0
  161.3180  205.9960  153.3300 C   0  0  0  0  0  0  0  0  0  0  0  0
  162.0660  205.2250  152.3870 N   0  0  0  0  0  2  0  0  0  0  0  0
  160.2080  205.5790  153.7580 O   0  0  0  0  0  0  0  0  0  0  0  0
  161.8590  207.2250  153.8120 N   0  0  0  0  0  2  0  0  0  0  0  0
  158.6710  213.5280  153.6580 C   0  0  1  0  0  3  0  0  0  0  0  0
  159.3130  211.1910  154.4870 C   0  0  2  0  0  3  0  0  0  0  0  0
  159.8480  211.8570  152.1200 C   0  0  0  0  0  2  0  0  0  0  0  0
  160.4060  211.3100  153.4380 C   0  0  2  0  0  3  0  0  0  0  0  0
  158.7950  212.5830  154.8830 C   0  0  1  0  0  3  0  0  0  0  0  0
  159.9730  210.1930  155.8530 S   0  0  0  0  0  0  0  0  0  0  0  0
  159.6410  213.1720  155.8290 O   0  0  0  0  0  1  0  0  0  0  0  0
  161.2060  207.9980  154.8210 C   0  0  0  0  0  3  0  0  0  0  0  0
  158.6100  212.7570  152.3270 C   0  0  0  0  0  2  0  0  0  0  0  0
  160.8540  209.2630  154.6040 C   0  0  0  0  0  0  0  0  0  0  0  0
  161.0390  209.9420  153.2840 C   0  0  0  0  0  2  0  0  0  0  0  0
  156.8430  214.2490  155.0370 O   0  0  0  0  0  1  0  0  0  0  0  0
  157.4570  214.4530  153.7970 C   0  0  2  0  0  3  0  0  0  0  0  0
  155.2850  214.4260  153.3620 C   0  0  0  0  0  1  0  0  0  0  0  0
  156.5330  214.1900  152.7820 O   0  0  0  0  0  0  0  0  0  0  0  0
  161.8480  205.4960  148.1940 N   0  0  0  0  0  2  0  0  0  0  0  0
  159.7670  206.5820  148.1210 O   0  0  0  0  0  0  0  0  0  0  0  0
  160.9440  206.5460  148.5660 C   0  0  0  0  0  0  0  0  0  0  0  0
  161.4110  207.6320  149.4720 C   0  0  0  0  0  2  0  0  0  0  0  0
  162.3860  208.5550  148.7530 C   0  0  0  0  0  2  0  0  0  0  0  0
  161.6340  209.7280  148.1400 C   0  0  0  0  0  2  0  0  0  0  0  0
  162.8370  211.0540  149.7750 O   0  0  0  0  0  1  0  0  0  0  0  0
  161.6650  210.9750  149.0190 C   0  0  1  0  0  3  0  0  0  0  0  0
  161.3750  212.2710  148.2500 C   0  0  1  0  0  3  0  0  0  0  0  0
  162.8110  213.9000  147.8370 C   0  0  0  0  0  1  0  0  0  0  0  0
  162.4840  212.5970  147.4670 O   0  0  0  0  0  0  0  0  0  0  0  0
  160.1430  212.1780  147.3570 C   0  0  0  0  0  2  0  0  0  0  0  0
  158.1740  213.2160  145.5960 O   0  0  0  0  0  0  0  0  0  0  0  0
  160.4170  212.7530  146.0510 N   0  0  0  0  0  2  0  0  0  0  0  0
  159.3820  213.3150  145.2440 C   0  0  0  0  0  0  0  0  0  0  0  0
  159.7400  213.9550  143.9390 C   0  0  0  0  0  2  0  0  0  0  0  0
  162.5500  212.1690  142.3940 O   0  0  0  0  0  0  0  0  0  0  0  0
  160.4050  212.1660  141.5260 N   0  0  0  0  0  2  0  0  0  0  0  0
  161.3800  212.6190  142.4750 C   0  0  0  0  0  0  0  0  0  0  0  0
  161.0760  213.5670  143.5100 N   0  0  0  0  0  2  0  0  0  0  0  0
  159.1070  212.7830  141.2970 C   0  0  0  0  0  2  0  0  0  0  0  0
  158.5400  212.3210  139.9690 C   0  0  0  0  0  1  0  0  0  0  0  0
  1  8  1  0  0  0  0
  2  1  2  0  0  0  0
  3  5  2  0  0  0  0
  4  6  2  0  0  0  0
  4  3  1  0  0  0  0
  5  1  1  0  0  0  0
  5 30  1  0  0  0  0
  6  2  1  0  0  0  0
  7 10  1  0  0  0  0
  8  9  1  0  0  0  0
  8  7  2  0  0  0  0
 10 12  1  0  0  0  0
 11 13  2  0  0  0  0
 11 14  1  0  0  0  0
 12 11  1  0  0  0  0
 14 22  1  0  0  0  0
 15 27  1  1  0  0  0
 15 19  1  0  0  0  0
 16 19  1  0  0  0  0
 16 20  1  1  0  0  0
 17 23  1  0  0  0  0
 18 17  1  6  0  0  0
 18 16  1  0  0  0  0
 19 21  1  1  0  0  0
 23 15  1  0  0  0  0
 24 22  2  0  0  0  0
 24 20  1  0  0  0  0
 25 18  1  0  0  0  0
 25 24  1  0  0  0  0
 27 26  1  1  0  0  0
 29 28  1  0  0  0  0
 29 27  1  0  0  0  0
 30 32  1  0  0  0  0
 31 32  2  0  0  0  0
 32 33  1  0  0  0  0
 34 33  1  0  0  0  0
 35 34  1  0  0  0  0
 35 37  1  0  0  0  0
 37 36  1  6  0  0  0
 38 41  1  6  0  0  0
 38 37  1  0  0  0  0
 40 39  1  0  0  0  0
 40 38  1  0  0  0  0
 43 41  1  0  0  0  0
 44 42  2  0  0  0  0
 44 43  1  0  0  0  0
 45 44  1  0  0  0  0
 46 48  2  0  0  0  0
 47 48  1  0  0  0  0
 48 49  1  0  0  0  0
 49 45  1  0  0  0  0
 50 47  1  0  0  0  0
 51 50  1  0  0  0  0
M  END
>  <MODEL>
3

>  <REMARK>
 VINA RESULT:      -6.1      2.980     11.010
  Name = 
  18 active torsions:
  status: ('A' for Active; 'I' for Inactive)
    1  A    between atoms: C_1  and  C_51
    2  A    between atoms: C_2  and  C_23
    3  A    between atoms: C_2  and  N_49
    4  A    between atoms: C_3  and  C_45
    5  A    between atoms: C_6  and  N_34
    6  A    between atoms: C_6  and  C_41
    7  A    between atoms: N_7  and  C_32
    8  A    between atoms: C_8  and  N_22
    9  A    between atoms: C_13  and  C_17
   10  A    between atoms: C_13  and  C_31
   11  A    between atoms: N_15  and  C_38
   12  A    between atoms: C_17  and  C_47
   13  A    between atoms: C_26  and  N_40
   14  A    between atoms: O_27  and  C_51
   15  A    between atoms: C_28  and  C_29
   16  A    between atoms: C_28  and  O_30
   17  A    between atoms: C_28  and  C_32
   18  A    between atoms: C_29  and  C_31
                            x       y       z     vdW  Elec       q    Type
                         _______ _______ _______ _____ _____    ______ ____

>  <TORSDO>
F 18

$$$$
=
 OpenBabel11042420213D

 51 53  0  0  1  0  0  0  0  0999 V2000
  159.2440  211.5780  154.8320 C   0  0  0  0  0  0  0  0  0  0  0  0
  158.8920  211.6630  156.1920 C   0  0  0  0  0  3  0  0  0  0  0  0
  160.0980  209.3340  155.2530 C   0  0  0  0  0  3  0  0  0  0  0  0
  159.7470  209.4400  156.5990 C   0  0  0  0  0  3  0  0  0  0  0  0
  159.8580  210.3900  154.3580 C   0  0  0  0  0  0  0  0  0  0  0  0
  159.1410  210.6050  157.0680 C   0  0  0  0  0  3  0  0  0  0  0  0
  159.1910  212.6510  152.6270 C   0  0  0  0  0  3  0  0  0  0  0  0
  158.9740  212.7410  153.9410 C   0  0  0  0  0  0  0  0  0  0  0  0
  158.4800  213.9330  154.4700 O   0  0  0  0  0  1  0  0  0  0  0  0
  158.9350  213.7910  151.6990 C   0  0  0  0  0  2  0  0  0  0  0  0
  158.7790  213.5130  149.1960 C   0  0  0  0  0  0  0  0  0  0  0  0
  159.5380  213.5110  150.4080 N   0  0  0  0  0  2  0  0  0  0  0  0
  157.5510  213.7990  149.2120 O   0  0  0  0  0  0  0  0  0  0  0  0
  159.4350  213.2260  147.9620 N   0  0  0  0  0  2  0  0  0  0  0  0
  161.7450  213.1200  141.2850 C   0  0  1  0  0  3  0  0  0  0  0  0
  160.1240  212.9310  143.2600 C   0  0  2  0  0  3  0  0  0  0  0  0
  162.6030  212.9560  143.6890 C   0  0  0  0  0  2  0  0  0  0  0  0
  161.2540  213.5990  144.0250 C   0  0  2  0  0  3  0  0  0  0  0  0
  160.2660  213.1950  141.7530 C   0  0  1  0  0  3  0  0  0  0  0  0
  158.5610  213.4840  143.9990 S   0  0  0  0  0  0  0  0  0  0  0  0
  159.7480  214.4530  141.4230 O   0  0  0  0  0  1  0  0  0  0  0  0
  158.7560  213.2990  146.7060 C   0  0  0  0  0  3  0  0  0  0  0  0
  162.6320  212.3410  142.2720 C   0  0  0  0  0  2  0  0  0  0  0  0
  159.4220  213.4680  145.5670 C   0  0  0  0  0  0  0  0  0  0  0  0
  160.9150  213.5140  145.5000 C   0  0  0  0  0  2  0  0  0  0  0  0
  162.7000  211.4080  139.9010 O   0  0  0  0  0  1  0  0  0  0  0  0
  161.8480  212.5160  139.8810 C   0  0  2  0  0  3  0  0  0  0  0  0
  163.5990  212.9650  138.6000 C   0  0  0  0  0  1  0  0  0  0  0  0
  162.3530  213.4630  138.9850 O   0  0  0  0  0  0  0  0  0  0  0  0
  160.1750  210.2430  152.9640 N   0  0  0  0  0  2  0  0  0  0  0  0
  161.6400  208.4120  153.0770 O   0  0  0  0  0  0  0  0  0  0  0  0
  160.9870  209.2220  152.3690 C   0  0  0  0  0  0  0  0  0  0  0  0
  161.0860  209.1320  150.8850 C   0  0  0  0  0  2  0  0  0  0  0  0
  162.4180  208.5240  150.4680 C   0  0  0  0  0  2  0  0  0  0  0  0
  162.1870  207.4040  149.4650 C   0  0  0  0  0  2  0  0  0  0  0  0
  160.1320  206.2440  148.9090 O   0  0  0  0  0  1  0  0  0  0  0  0
  161.0960  206.4310  149.9030 C   0  0  1  0  0  3  0  0  0  0  0  0
  161.6420  205.1050  150.4470 C   0  0  1  0  0  3  0  0  0  0  0  0
  160.7900  204.1360  152.2410 C   0  0  0  0  0  1  0  0  0  0  0  0
  161.6550  205.1510  151.8420 O   0  0  0  0  0  0  0  0  0  0  0  0
  160.8350  203.8920  149.9960 C   0  0  0  0  0  2  0  0  0  0  0  0
  159.8120  201.6240  148.6310 O   0  0  0  0  0  0  0  0  0  0  0  0
  161.3880  203.3400  148.7700 N   0  0  0  0  0  2  0  0  0  0  0  0
  160.7830  202.2330  148.1030 C   0  0  0  0  0  0  0  0  0  0  0  0
  161.3600  201.7570  146.8070 C   0  0  0  0  0  2  0  0  0  0  0  0
  159.1620  203.1420  144.2140 O   0  0  0  0  0  0  0  0  0  0  0  0
  161.1300  204.1520  144.8890 N   0  0  0  0  0  2  0  0  0  0  0  0
  160.1980  203.0630  144.9200 C   0  0  0  0  0  0  0  0  0  0  0  0
  160.4000  201.8890  145.7200 N   0  0  0  0  0  2  0  0  0  0  0  0
  162.4890  204.1070  145.4080 C   0  0  0  0  0  2  0  0  0  0  0  0
  162.6850  205.1960  146.4460 C   0  0  0  0  0  1  0  0  0  0  0  0
  1  2  1  0  0  0  0
  2  6  2  0  0  0  0
  3  4  2  0  0  0  0
  4  6  1  0  0  0  0
  5  1  2  0  0  0  0
  5  3  1  0  0  0  0
  7  8  2  0  0  0  0
  8  9  1  0  0  0  0
  8  1  1  0  0  0  0
 10  7  1  0  0  0  0
 11 13  2  0  0  0  0
 11 12  1  0  0  0  0
 12 10  1  0  0  0  0
 14 11  1  0  0  0  0
 15 27  1  6  0  0  0
 15 19  1  0  0  0  0
 15 23  1  0  0  0  0
 16 20  1  1  0  0  0
 16 18  1  0  0  0  0
 18 17  1  1  0  0  0
 18 25  1  0  0  0  0
 19 21  1  1  0  0  0
 19 16  1  0  0  0  0
 20 24  1  0  0  0  0
 22 14  1  0  0  0  0
 23 17  1  0  0  0  0
 24 22  2  0  0  0  0
 25 24  1  0  0  0  0
 27 26  1  1  0  0  0
 28 29  1  0  0  0  0
 29 27  1  0  0  0  0
 30  5  1  0  0  0  0
 32 30  1  0  0  0  0
 32 31  2  0  0  0  0
 33 32  1  0  0  0  0
 34 33  1  0  0  0  0
 35 37  1  0  0  0  0
 35 34  1  0  0  0  0
 37 36  1  6  0  0  0
 37 38  1  0  0  0  0
 38 41  1  1  0  0  0
 38 40  1  0  0  0  0
 40 39  1  0  0  0  0
 43 41  1  0  0  0  0
 44 42  2  0  0  0  0
 44 43  1  0  0  0  0
 45 44  1  0  0  0  0
 46 48  2  0  0  0  0
 47 48  1  0  0  0  0
 47 50  1  0  0  0  0
 48 49  1  0  0  0  0
 49 45  1  0  0  0  0
 50 51  1  0  0  0  0
M  END
>  <MODEL>
4

>  <REMARK>
 VINA RESULT:      -6.0      2.307      4.114
  Name = 
  18 active torsions:
  status: ('A' for Active; 'I' for Inactive)
    1  A    between atoms: C_1  and  C_51
    2  A    between atoms: C_2  and  C_23
    3  A    between atoms: C_2  and  N_49
    4  A    between atoms: C_3  and  C_45
    5  A    between atoms: C_6  and  N_34
    6  A    between atoms: C_6  and  C_41
    7  A    between atoms: N_7  and  C_32
    8  A    between atoms: C_8  and  N_22
    9  A    between atoms: C_13  and  C_17
   10  A    between atoms: C_13  and  C_31
   11  A    between atoms: N_15  and  C_38
   12  A    between atoms: C_17  and  C_47
   13  A    between atoms: C_26  and  N_40
   14  A    between atoms: O_27  and  C_51
   15  A    between atoms: C_28  and  C_29
   16  A    between atoms: C_28  and  O_30
   17  A    between atoms: C_28  and  C_32
   18  A    between atoms: C_29  and  C_31
                            x       y       z     vdW  Elec       q    Type
                         _______ _______ _______ _____ _____    ______ ____

>  <TORSDO>
F 18

$$$$
=
 OpenBabel11042420213D

 51 53  0  0  1  0  0  0  0  0999 V2000
  159.7260  212.0670  153.0930 C   0  0  0  0  0  0  0  0  0  0  0  0
  158.8490  213.1650  153.0010 C   0  0  0  0  0  3  0  0  0  0  0  0
  158.9190  211.6890  155.3620 C   0  0  0  0  0  3  0  0  0  0  0  0
  158.0610  212.7830  155.2520 C   0  0  0  0  0  3  0  0  0  0  0  0
  159.7580  211.3180  154.2970 C   0  0  0  0  0  0  0  0  0  0  0  0
  158.0240  213.5200  154.0690 C   0  0  0  0  0  3  0  0  0  0  0  0
  160.4570  212.3910  150.7750 C   0  0  0  0  0  3  0  0  0  0  0  0
  160.5990  211.7400  151.9320 C   0  0  0  0  0  0  0  0  0  0  0  0
  161.5810  210.7570  152.0440 O   0  0  0  0  0  1  0  0  0  0  0  0
  161.3090  212.0940  149.5860 C   0  0  0  0  0  2  0  0  0  0  0  0
  161.8110  213.2870  147.4200 C   0  0  0  0  0  0  0  0  0  0  0  0
  160.9140  212.9490  148.4800 N   0  0  0  0  0  2  0  0  0  0  0  0
  162.9800  212.8150  147.3980 O   0  0  0  0  0  0  0  0  0  0  0  0
  161.3580  214.1350  146.3660 N   0  0  0  0  0  2  0  0  0  0  0  0
  161.1830  211.9500  139.6490 C   0  0  1  0  0  3  0  0  0  0  0  0
  161.7490  213.4100  141.6760 C   0  0  2  0  0  3  0  0  0  0  0  0
  159.9170  211.6940  141.8560 C   0  0  0  0  0  2  0  0  0  0  0  0
  161.2240  212.2190  142.4600 C   0  0  2  0  0  3  0  0  0  0  0  0
  162.1710  212.9780  140.2630 C   0  0  1  0  0  3  0  0  0  0  0  0
  163.0550  214.1850  142.6710 S   0  0  0  0  0  0  0  0  0  0  0  0
  163.4550  212.4210  140.2810 O   0  0  0  0  0  1  0  0  0  0  0  0
  162.1730  214.4390  145.2320 C   0  0  0  0  0  3  0  0  0  0  0  0
  159.8080  211.9730  140.3400 C   0  0  0  0  0  2  0  0  0  0  0  0
  162.0770  213.7440  144.1030 C   0  0  0  0  0  0  0  0  0  0  0  0
  161.0680  212.6570  143.9020 C   0  0  0  0  0  2  0  0  0  0  0  0
  159.8470  212.8740  137.8810 O   0  0  0  0  0  1  0  0  0  0  0  0
  161.0270  212.1700  138.1400 C   0  0  2  0  0  3  0  0  0  0  0  0
  162.3120  210.5400  137.3630 C   0  0  0  0  0  1  0  0  0  0  0  0
  160.9790  210.9410  137.4770 O   0  0  0  0  0  0  0  0  0  0  0  0
  160.5950  210.1550  154.4060 N   0  0  0  0  0  2  0  0  0  0  0  0
  159.3520  208.9120  155.9630 O   0  0  0  0  0  0  0  0  0  0  0  0
  160.3270  208.9710  155.1700 C   0  0  0  0  0  0  0  0  0  0  0  0
  161.2340  207.7950  155.0470 C   0  0  0  0  0  2  0  0  0  0  0  0
  160.5200  206.6290  154.3790 C   0  0  0  0  0  2  0  0  0  0  0  0
  161.5010  205.8380  153.5260 C   0  0  0  0  0  2  0  0  0  0  0  0
  163.1810  206.2020  151.8160 O   0  0  0  0  0  1  0  0  0  0  0  0
  161.9060  206.5730  152.2520 C   0  0  1  0  0  3  0  0  0  0  0  0
  160.8580  206.4860  151.1360 C   0  0  1  0  0  3  0  0  0  0  0  0
  161.5160  208.4400  150.3400 C   0  0  0  0  0  1  0  0  0  0  0  0
  161.3580  207.1020  149.9870 O   0  0  0  0  0  0  0  0  0  0  0  0
  160.4540  205.0540  150.8000 C   0  0  0  0  0  2  0  0  0  0  0  0
  160.6210  202.3620  149.9190 O   0  0  0  0  0  0  0  0  0  0  0  0
  161.0940  204.6220  149.5690 N   0  0  0  0  0  2  0  0  0  0  0  0
  161.0850  203.2550  149.1570 C   0  0  0  0  0  0  0  0  0  0  0  0
  161.7000  202.8850  147.8430 C   0  0  0  0  0  2  0  0  0  0  0  0
  161.8880  205.0070  144.8540 O   0  0  0  0  0  0  0  0  0  0  0  0
  160.8260  202.9520  144.8940 N   0  0  0  0  0  2  0  0  0  0  0  0
  161.5120  204.0280  145.5470 C   0  0  0  0  0  0  0  0  0  0  0  0
  161.7840  204.0360  146.9560 N   0  0  0  0  0  2  0  0  0  0  0  0
  160.0830  201.8980  145.5700 C   0  0  0  0  0  2  0  0  0  0  0  0
  159.7040  200.8130  144.5810 C   0  0  0  0  0  1  0  0  0  0  0  0
  1  5  1  0  0  0  0
  2  1  2  0  0  0  0
  2  6  1  0  0  0  0
  4  3  1  0  0  0  0
  5 30  1  0  0  0  0
  5  3  2  0  0  0  0
  6  4  2  0  0  0  0
  7  8  2  0  0  0  0
  8  9  1  0  0  0  0
  8  1  1  0  0  0  0
 10  7  1  0  0  0  0
 11 12  1  0  0  0  0
 12 10  1  0  0  0  0
 13 11  2  0  0  0  0
 14 11  1  0  0  0  0
 15 27  1  6  0  0  0
 15 19  1  0  0  0  0
 15 23  1  0  0  0  0
 16 18  1  0  0  0  0
 16 20  1  1  0  0  0
 18 17  1  6  0  0  0
 18 25  1  0  0  0  0
 19 21  1  1  0  0  0
 19 16  1  0  0  0  0
 20 24  1  0  0  0  0
 22 14  1  0  0  0  0
 23 17  1  0  0  0  0
 24 22  2  0  0  0  0
 25 24  1  0  0  0  0
 27 26  1  1  0  0  0
 28 29  1  0  0  0  0
 29 27  1  0  0  0  0
 30 32  1  0  0  0  0
 32 31  2  0  0  0  0
 33 32  1  0  0  0  0
 34 33  1  0  0  0  0
 35 34  1  0  0  0  0
 37 36  1  6  0  0  0
 37 35  1  0  0  0  0
 38 41  1  6  0  0  0
 38 37  1  0  0  0  0
 40 39  1  0  0  0  0
 40 38  1  0  0  0  0
 43 41  1  0  0  0  0
 44 43  1  0  0  0  0
 44 42  2  0  0  0  0
 45 44  1  0  0  0  0
 46 48  2  0  0  0  0
 47 48  1  0  0  0  0
 47 50  1  0  0  0  0
 48 49  1  0  0  0  0
 49 45  1  0  0  0  0
 51 50  1  0  0  0  0
M  END
>  <MODEL>
5

>  <REMARK>
 VINA RESULT:      -5.8      1.810      2.858
  Name = 
  18 active torsions:
  status: ('A' for Active; 'I' for Inactive)
    1  A    between atoms: C_1  and  C_51
    2  A    between atoms: C_2  and  C_23
    3  A    between atoms: C_2  and  N_49
    4  A    between atoms: C_3  and  C_45
    5  A    between atoms: C_6  and  N_34
    6  A    between atoms: C_6  and  C_41
    7  A    between atoms: N_7  and  C_32
    8  A    between atoms: C_8  and  N_22
    9  A    between atoms: C_13  and  C_17
   10  A    between atoms: C_13  and  C_31
   11  A    between atoms: N_15  and  C_38
   12  A    between atoms: C_17  and  C_47
   13  A    between atoms: C_26  and  N_40
   14  A    between atoms: O_27  and  C_51
   15  A    between atoms: C_28  and  C_29
   16  A    between atoms: C_28  and  O_30
   17  A    between atoms: C_28  and  C_32
   18  A    between atoms: C_29  and  C_31
                            x       y       z     vdW  Elec       q    Type
                         _______ _______ _______ _____ _____    ______ ____

>  <TORSDO>
F 18

$$$$
=
 OpenBabel11042420213D

 51 53  0  0  1  0  0  0  0  0999 V2000
  160.7380  201.8980  147.2440 C   0  0  0  0  0  0  0  0  0  0  0  0
  160.3390  200.6570  146.7140 C   0  0  0  0  0  3  0  0  0  0  0  0
  160.4700  202.8650  145.0230 C   0  0  0  0  0  3  0  0  0  0  0  0
  160.0810  201.6260  144.5170 C   0  0  0  0  0  3  0  0  0  0  0  0
  160.8030  203.0210  146.3790 C   0  0  0  0  0  0  0  0  0  0  0  0
  160.0130  200.5200  145.3640 C   0  0  0  0  0  3  0  0  0  0  0  0
  160.8480  203.1050  149.3750 C   0  0  0  0  0  3  0  0  0  0  0  0
  161.0920  201.9880  148.6880 C   0  0  0  0  0  0  0  0  0  0  0  0
  161.6730  200.9010  149.3400 O   0  0  0  0  0  1  0  0  0  0  0  0
  161.1870  203.2390  150.8220 C   0  0  0  0  0  2  0  0  0  0  0  0
  161.1450  205.1090  152.5170 C   0  0  0  0  0  0  0  0  0  0  0  0
  161.2830  204.6460  151.1710 N   0  0  0  0  0  2  0  0  0  0  0  0
  160.9680  204.2900  153.4580 O   0  0  0  0  0  0  0  0  0  0  0  0
  161.2470  206.5060  152.7870 N   0  0  0  0  0  2  0  0  0  0  0  0
  158.3600  212.3410  155.5340 C   0  0  1  0  0  3  0  0  0  0  0  0
  159.3740  209.9910  155.4370 C   0  0  2  0  0  3  0  0  0  0  0  0
  158.5820  211.0880  153.3150 C   0  0  0  0  0  2  0  0  0  0  0  0
  159.7550  210.4030  154.0250 C   0  0  2  0  0  3  0  0  0  0  0  0
  159.1200  211.2310  156.3080 C   0  0  1  0  0  3  0  0  0  0  0  0
  160.6660  208.8680  156.0450 S   0  0  0  0  0  0  0  0  0  0  0  0
  160.3280  211.7540  156.7840 O   0  0  0  0  0  1  0  0  0  0  0  0
  161.2070  207.0260  154.1180 C   0  0  0  0  0  3  0  0  0  0  0  0
  157.6220  211.7930  154.2990 C   0  0  0  0  0  2  0  0  0  0  0  0
  160.7760  208.2600  154.3660 C   0  0  0  0  0  0  0  0  0  0  0  0
  160.2330  209.1600  153.3020 C   0  0  0  0  0  2  0  0  0  0  0  0
  156.1780  212.3850  156.5320 O   0  0  0  0  0  1  0  0  0  0  0  0
  157.3860  213.0850  156.4530 C   0  0  2  0  0  3  0  0  0  0  0  0
  155.8110  214.3350  155.5210 C   0  0  0  0  0  1  0  0  0  0  0  0
  157.1380  214.3670  155.9550 O   0  0  0  0  0  0  0  0  0  0  0  0
  161.1470  204.3170  146.8960 N   0  0  0  0  0  2  0  0  0  0  0  0
  163.2140  204.6370  145.8280 O   0  0  0  0  0  0  0  0  0  0  0  0
  162.2930  205.1060  146.5470 C   0  0  0  0  0  0  0  0  0  0  0  0
  162.4140  206.4970  147.0670 C   0  0  0  0  0  2  0  0  0  0  0  0
  161.7470  206.6240  148.4300 C   0  0  0  0  0  2  0  0  0  0  0  0
  161.2050  208.0340  148.6130 C   0  0  0  0  0  2  0  0  0  0  0  0
  162.6920  209.8060  147.8860 O   0  0  0  0  0  1  0  0  0  0  0  0
  162.2880  209.0430  148.9850 C   0  0  1  0  0  3  0  0  0  0  0  0
  161.9270  209.9080  150.1990 C   0  0  1  0  0  3  0  0  0  0  0  0
  162.9110  210.4960  152.0880 C   0  0  0  0  0  1  0  0  0  0  0  0
  162.5430  209.3830  151.3360 O   0  0  0  0  0  0  0  0  0  0  0  0
  162.3340  211.3690  150.0390 C   0  0  0  0  0  2  0  0  0  0  0  0
  162.7860  213.1910  147.9110 O   0  0  0  0  0  0  0  0  0  0  0  0
  161.2950  212.1140  149.3490 N   0  0  0  0  0  2  0  0  0  0  0  0
  161.5890  212.9680  148.2430 C   0  0  0  0  0  0  0  0  0  0  0  0
  160.4650  213.6520  147.5300 C   0  0  0  0  0  2  0  0  0  0  0  0
  157.1170  212.2340  147.0300 O   0  0  0  0  0  0  0  0  0  0  0  0
  158.6250  212.5790  145.3100 N   0  0  0  0  0  2  0  0  0  0  0  0
  158.2790  212.5780  146.7010 C   0  0  0  0  0  0  0  0  0  0  0  0
  159.2060  212.9500  147.7330 N   0  0  0  0  0  2  0  0  0  0  0  0
  159.9780  212.6700  144.7820 C   0  0  0  0  0  2  0  0  0  0  0  0
  160.0820  211.8940  143.4830 C   0  0  0  0  0  1  0  0  0  0  0  0
  1  8  1  0  0  0  0
  2  1  1  0  0  0  0
  3  5  1  0  0  0  0
  4  3  2  0  0  0  0
  4  6  1  0  0  0  0
  5 30  1  0  0  0  0
  5  1  2  0  0  0  0
  6  2  2  0  0  0  0
  7 10  1  0  0  0  0
  8  9  1  0  0  0  0
  8  7  2  0  0  0  0
 10 12  1  0  0  0  0
 11 14  1  0  0  0  0
 11 13  2  0  0  0  0
 12 11  1  0  0  0  0
 14 22  1  0  0  0  0
 15 19  1  0  0  0  0
 15 27  1  1  0  0  0
 16 20  1  1  0  0  0
 16 19  1  0  0  0  0
 17 18  1  0  0  0  0
 17 23  1  0  0  0  0
 18 25  1  6  0  0  0
 18 16  1  0  0  0  0
 19 21  1  6  0  0  0
 22 24  2  0  0  0  0
 23 15  1  0  0  0  0
 24 20  1  0  0  0  0
 25 24  1  0  0  0  0
 27 26  1  6  0  0  0
 28 29  1  0  0  0  0
 29 27  1  0  0  0  0
 31 32  2  0  0  0  0
 32 30  1  0  0  0  0
 32 33  1  0  0  0  0
 33 34  1  0  0  0  0
 34 35  1  0  0  0  0
 35 37  1  0  0  0  0
 37 36  1  6  0  0  0
 37 38  1  0  0  0  0
 38 41  1  6  0  0  0
 38 40  1  0  0  0  0
 40 39  1  0  0  0  0
 42 44  2  0  0  0  0
 43 41  1  0  0  0  0
 44 43  1  0  0  0  0
 45 49  1  0  0  0  0
 45 44  1  0  0  0  0
 47 48  1  0  0  0  0
 48 46  2  0  0  0  0
 48 49  1  0  0  0  0
 50 47  1  0  0  0  0
 51 50  1  0  0  0  0
M  END
>  <MODEL>
6

>  <REMARK>
 VINA RESULT:      -5.2      3.863     11.695
  Name = 
  18 active torsions:
  status: ('A' for Active; 'I' for Inactive)
    1  A    between atoms: C_1  and  C_51
    2  A    between atoms: C_2  and  C_23
    3  A    between atoms: C_2  and  N_49
    4  A    between atoms: C_3  and  C_45
    5  A    between atoms: C_6  and  N_34
    6  A    between atoms: C_6  and  C_41
    7  A    between atoms: N_7  and  C_32
    8  A    between atoms: C_8  and  N_22
    9  A    between atoms: C_13  and  C_17
   10  A    between atoms: C_13  and  C_31
   11  A    between atoms: N_15  and  C_38
   12  A    between atoms: C_17  and  C_47
   13  A    between atoms: C_26  and  N_40
   14  A    between atoms: O_27  and  C_51
   15  A    between atoms: C_28  and  C_29
   16  A    between atoms: C_28  and  O_30
   17  A    between atoms: C_28  and  C_32
   18  A    between atoms: C_29  and  C_31
                            x       y       z     vdW  Elec       q    Type
                         _______ _______ _______ _____ _____    ______ ____

>  <TORSDO>
F 18

$$$$
=
 OpenBabel11042420213D

 51 53  0  0  1  0  0  0  0  0999 V2000
  158.8980  212.1380  154.7730 C   0  0  0  0  0  0  0  0  0  0  0  0
  157.9760  212.3750  155.8100 C   0  0  0  0  0  3  0  0  0  0  0  0
  159.2060  209.8820  155.6430 C   0  0  0  0  0  3  0  0  0  0  0  0
  158.2940  210.1380  156.6650 C   0  0  0  0  0  3  0  0  0  0  0  0
  159.5220  210.8670  154.6910 C   0  0  0  0  0  0  0  0  0  0  0  0
  157.6760  211.3850  156.7480 C   0  0  0  0  0  3  0  0  0  0  0  0
  158.9770  213.0610  152.5030 C   0  0  0  0  0  3  0  0  0  0  0  0
  159.1970  213.2320  153.8080 C   0  0  0  0  0  0  0  0  0  0  0  0
  159.6980  214.4530  154.2590 O   0  0  0  0  0  1  0  0  0  0  0  0
  159.2640  214.1300  151.5010 C   0  0  0  0  0  2  0  0  0  0  0  0
  158.9360  213.5790  149.0600 C   0  0  0  0  0  0  0  0  0  0  0  0
  159.7130  213.5230  150.2590 N   0  0  0  0  0  2  0  0  0  0  0  0
  157.8380  214.1960  149.0390 O   0  0  0  0  0  0  0  0  0  0  0  0
  159.4360  212.9590  147.8760 N   0  0  0  0  0  2  0  0  0  0  0  0
  161.7420  213.1790  141.2010 C   0  0  1  0  0  3  0  0  0  0  0  0
  160.1310  212.8600  143.1660 C   0  0  2  0  0  3  0  0  0  0  0  0
  162.6080  212.9590  143.5970 C   0  0  0  0  0  2  0  0  0  0  0  0
  161.2370  213.5400  143.9560 C   0  0  2  0  0  3  0  0  0  0  0  0
  160.2620  213.1840  141.6700 C   0  0  1  0  0  3  0  0  0  0  0  0
  158.5490  213.3300  143.9250 S   0  0  0  0  0  0  0  0  0  0  0  0
  159.6990  214.4340  141.3860 O   0  0  0  0  0  1  0  0  0  0  0  0
  158.7530  213.0530  146.6240 C   0  0  0  0  0  3  0  0  0  0  0  0
  162.6570  212.3960  142.1590 C   0  0  0  0  0  2  0  0  0  0  0  0
  159.4120  213.2870  145.4920 C   0  0  0  0  0  0  0  0  0  0  0  0
  160.9030  213.3890  145.4270 C   0  0  0  0  0  2  0  0  0  0  0  0
  162.9550  213.2220  139.1300 O   0  0  0  0  0  1  0  0  0  0  0  0
  161.8650  212.6300  139.7760 C   0  0  2  0  0  3  0  0  0  0  0  0
  160.6450  211.9170  138.0690 C   0  0  0  0  0  1  0  0  0  0  0  0
  160.7020  212.9070  139.0510 O   0  0  0  0  0  0  0  0  0  0  0  0
  160.4210  210.5680  153.6110 N   0  0  0  0  0  2  0  0  0  0  0  0
  161.1040  208.4120  154.2430 O   0  0  0  0  0  0  0  0  0  0  0  0
  161.1160  209.3340  153.3860 C   0  0  0  0  0  0  0  0  0  0  0  0
  161.8920  209.1450  152.1280 C   0  0  0  0  0  2  0  0  0  0  0  0
  161.8990  207.6810  151.7120 C   0  0  0  0  0  2  0  0  0  0  0  0
  162.6780  207.5120  150.4160 C   0  0  0  0  0  2  0  0  0  0  0  0
  162.5010  208.5890  148.2510 O   0  0  0  0  0  1  0  0  0  0  0  0
  161.8320  207.7820  149.1750 C   0  0  1  0  0  3  0  0  0  0  0  0
  161.2600  206.5110  148.5370 C   0  0  1  0  0  3  0  0  0  0  0  0
  160.4330  206.4600  146.4880 C   0  0  0  0  0  1  0  0  0  0  0  0
  161.6350  206.4640  147.1920 O   0  0  0  0  0  0  0  0  0  0  0  0
  161.7190  205.2310  149.2280 C   0  0  0  0  0  2  0  0  0  0  0  0
  160.7710  202.8870  150.5140 O   0  0  0  0  0  0  0  0  0  0  0  0
  161.1890  204.0650  148.5420 N   0  0  0  0  0  2  0  0  0  0  0  0
  160.6700  202.9430  149.2580 C   0  0  0  0  0  0  0  0  0  0  0  0
  160.0730  201.8030  148.4940 C   0  0  0  0  0  2  0  0  0  0  0  0
  161.9860  199.1800  146.7820 O   0  0  0  0  0  0  0  0  0  0  0  0
  160.7310  200.7740  145.6700 N   0  0  0  0  0  2  0  0  0  0  0  0
  161.2860  200.2200  146.8700 C   0  0  0  0  0  0  0  0  0  0  0  0
  161.0790  200.8030  148.1650 N   0  0  0  0  0  2  0  0  0  0  0  0
  160.1490  202.1030  145.5510 C   0  0  0  0  0  2  0  0  0  0  0  0
  161.2470  203.1430  145.4400 C   0  0  0  0  0  1  0  0  0  0  0  0
  1  2  1  0  0  0  0
  2  6  2  0  0  0  0
  3  4  2  0  0  0  0
  4  6  1  0  0  0  0
  5  1  2  0  0  0  0
  5  3  1  0  0  0  0
  7  8  2  0  0  0  0
  8  9  1  0  0  0  0
  8  1  1  0  0  0  0
 10  7  1  0  0  0  0
 11 12  1  0  0  0  0
 12 10  1  0  0  0  0
 13 11  2  0  0  0  0
 14 11  1  0  0  0  0
 15 27  1  6  0  0  0
 15 19  1  0  0  0  0
 15 23  1  0  0  0  0
 16 20  1  1  0  0  0
 16 18  1  0  0  0  0
 18 17  1  1  0  0  0
 18 25  1  0  0  0  0
 19 21  1  1  0  0  0
 19 16  1  0  0  0  0
 20 24  1  0  0  0  0
 22 14  1  0  0  0  0
 23 17  1  0  0  0  0
 24 22  2  0  0  0  0
 25 24  1  0  0  0  0
 27 26  1  6  0  0  0
 28 29  1  0  0  0  0
 29 27  1  0  0  0  0
 30  5  1  0  0  0  0
 32 30  1  0  0  0  0
 32 31  2  0  0  0  0
 33 32  1  0  0  0  0
 34 33  1  0  0  0  0
 35 34  1  0  0  0  0
 37 36  1  6  0  0  0
 37 35  1  0  0  0  0
 38 37  1  0  0  0  0
 38 41  1  1  0  0  0
 39 40  1  0  0  0  0
 40 38  1  0  0  0  0
 43 41  1  0  0  0  0
 43 44  1  0  0  0  0
 44 42  2  0  0  0  0
 45 44  1  0  0  0  0
 46 48  2  0  0  0  0
 47 48  1  0  0  0  0
 48 49  1  0  0  0  0
 49 45  1  0  0  0  0
 50 47  1  0  0  0  0
 51 50  1  0  0  0  0
M  END
>  <MODEL>
7

>  <REMARK>
 VINA RESULT:      -4.9      2.214      3.889
  Name = 
  18 active torsions:
  status: ('A' for Active; 'I' for Inactive)
    1  A    between atoms: C_1  and  C_51
    2  A    between atoms: C_2  and  C_23
    3  A    between atoms: C_2  and  N_49
    4  A    between atoms: C_3  and  C_45
    5  A    between atoms: C_6  and  N_34
    6  A    between atoms: C_6  and  C_41
    7  A    between atoms: N_7  and  C_32
    8  A    between atoms: C_8  and  N_22
    9  A    between atoms: C_13  and  C_17
   10  A    between atoms: C_13  and  C_31
   11  A    between atoms: N_15  and  C_38
   12  A    between atoms: C_17  and  C_47
   13  A    between atoms: C_26  and  N_40
   14  A    between atoms: O_27  and  C_51
   15  A    between atoms: C_28  and  C_29
   16  A    between atoms: C_28  and  O_30
   17  A    between atoms: C_28  and  C_32
   18  A    between atoms: C_29  and  C_31
                            x       y       z     vdW  Elec       q    Type
                         _______ _______ _______ _____ _____    ______ ____

>  <TORSDO>
F 18

$$$$
=
 OpenBabel11042420213D

 51 53  0  0  1  0  0  0  0  0999 V2000
  160.7790  210.4440  153.5300 C   0  0  0  0  0  0  0  0  0  0  0  0
  160.1670  211.5470  154.1530 C   0  0  0  0  0  3  0  0  0  0  0  0
  159.9320  209.0330  155.3280 C   0  0  0  0  0  3  0  0  0  0  0  0
  159.3360  210.1400  155.9320 C   0  0  0  0  0  3  0  0  0  0  0  0
  160.6570  209.1650  154.1310 C   0  0  0  0  0  0  0  0  0  0  0  0
  159.4520  211.3980  155.3420 C   0  0  0  0  0  3  0  0  0  0  0  0
  161.0390  211.4090  151.2910 C   0  0  0  0  0  3  0  0  0  0  0  0
  161.5460  210.6580  152.2710 C   0  0  0  0  0  0  0  0  0  0  0  0
  162.8070  210.0850  152.1080 O   0  0  0  0  0  1  0  0  0  0  0  0
  161.7720  211.6480  150.0130 C   0  0  0  0  0  2  0  0  0  0  0  0
  160.9020  212.7340  147.9070 C   0  0  0  0  0  0  0  0  0  0  0  0
  160.8230  211.7240  148.9150 N   0  0  0  0  0  2  0  0  0  0  0  0
  161.8360  213.5800  147.9230 O   0  0  0  0  0  0  0  0  0  0  0  0
  159.9350  212.7500  146.8590 N   0  0  0  0  0  2  0  0  0  0  0  0
  160.9640  211.8820  139.9230 C   0  0  1  0  0  3  0  0  0  0  0  0
  160.2670  213.0070  142.1150 C   0  0  2  0  0  3  0  0  0  0  0  0
  160.7160  210.5310  142.0800 C   0  0  0  0  0  2  0  0  0  0  0  0
  161.0530  211.8690  142.7460 C   0  0  2  0  0  3  0  0  0  0  0  0
  160.7100  213.2240  140.6600 C   0  0  1  0  0  3  0  0  0  0  0  0
  160.4350  214.4530  143.2000 S   0  0  0  0  0  0  0  0  0  0  0  0
  161.8750  213.9980  140.6100 O   0  0  0  0  0  1  0  0  0  0  0  0
  160.0080  213.6760  145.7720 C   0  0  0  0  0  3  0  0  0  0  0  0
  160.2680  210.6940  140.6110 C   0  0  0  0  0  2  0  0  0  0  0  0
  160.4180  213.2970  144.5650 C   0  0  0  0  0  0  0  0  0  0  0  0
  160.7520  211.8770  144.2310 C   0  0  0  0  0  2  0  0  0  0  0  0
  161.6640  211.8720  137.6260 O   0  0  0  0  0  1  0  0  0  0  0  0
  160.5410  211.9730  138.4530 C   0  0  2  0  0  3  0  0  0  0  0  0
  158.6800  212.8530  137.6310 C   0  0  0  0  0  1  0  0  0  0  0  0
  159.9040  213.1930  138.2100 O   0  0  0  0  0  0  0  0  0  0  0  0
  161.2160  208.0060  153.4920 N   0  0  0  0  0  2  0  0  0  0  0  0
  160.4060  206.3300  154.9240 O   0  0  0  0  0  0  0  0  0  0  0  0
  161.0110  206.6350  153.8630 C   0  0  0  0  0  0  0  0  0  0  0  0
  161.5460  205.5500  152.9940 C   0  0  0  0  0  2  0  0  0  0  0  0
  160.4130  204.7990  152.3080 C   0  0  0  0  0  2  0  0  0  0  0  0
  160.2060  205.3420  150.9020 C   0  0  0  0  0  2  0  0  0  0  0  0
  162.4750  205.1560  150.0680 O   0  0  0  0  0  1  0  0  0  0  0  0
  161.4400  206.0510  150.3530 C   0  0  1  0  0  3  0  0  0  0  0  0
  161.1350  206.9870  149.1760 C   0  0  1  0  0  3  0  0  0  0  0  0
  162.3740  208.7300  148.6200 C   0  0  0  0  0  1  0  0  0  0  0  0
  162.3300  207.3400  148.5480 O   0  0  0  0  0  0  0  0  0  0  0  0
  160.1920  206.3720  148.1470 C   0  0  0  0  0  2  0  0  0  0  0  0
  160.4210  206.0710  145.3350 O   0  0  0  0  0  0  0  0  0  0  0  0
  160.8310  205.2490  147.4820 N   0  0  0  0  0  2  0  0  0  0  0  0
  160.9660  205.1940  146.0610 C   0  0  0  0  0  0  0  0  0  0  0  0
  161.6960  204.0450  145.4410 C   0  0  0  0  0  2  0  0  0  0  0  0
  159.8250  200.9650  144.7410 O   0  0  0  0  0  0  0  0  0  0  0  0
  160.6690  201.4970  146.8280 N   0  0  0  0  0  2  0  0  0  0  0  0
  160.4050  201.8200  145.4560 C   0  0  0  0  0  0  0  0  0  0  0  0
  160.7710  203.0770  144.8680 N   0  0  0  0  0  2  0  0  0  0  0  0
  161.0630  202.4530  147.8530 C   0  0  0  0  0  2  0  0  0  0  0  0
  160.4700  202.0530  149.1910 C   0  0  0  0  0  1  0  0  0  0  0  0
  1  5  2  0  0  0  0
  1  2  1  0  0  0  0
  2  6  2  0  0  0  0
  3  4  2  0  0  0  0
  5  3  1  0  0  0  0
  6  4  1  0  0  0  0
  7  8  2  0  0  0  0
  8  1  1  0  0  0  0
  9  8  1  0  0  0  0
 10  7  1  0  0  0  0
 11 13  2  0  0  0  0
 11 12  1  0  0  0  0
 12 10  1  0  0  0  0
 14 11  1  0  0  0  0
 15 27  1  6  0  0  0
 15 23  1  0  0  0  0
 15 19  1  0  0  0  0
 16 18  1  0  0  0  0
 16 20  1  1  0  0  0
 18 17  1  6  0  0  0
 18 25  1  0  0  0  0
 19 21  1  1  0  0  0
 19 16  1  0  0  0  0
 20 24  1  0  0  0  0
 22 14  1  0  0  0  0
 23 17  1  0  0  0  0
 24 22  2  0  0  0  0
 25 24  1  0  0  0  0
 27 26  1  6  0  0  0
 28 29  1  0  0  0  0
 29 27  1  0  0  0  0
 30 32  1  0  0  0  0
 30  5  1  0  0  0  0
 32 31  2  0  0  0  0
 33 32  1  0  0  0  0
 34 33  1  0  0  0  0
 35 34  1  0  0  0  0
 37 36  1  6  0  0  0
 37 35  1  0  0  0  0
 38 41  1  6  0  0  0
 38 37  1  0  0  0  0
 40 39  1  0  0  0  0
 40 38  1  0  0  0  0
 42 44  2  0  0  0  0
 43 41  1  0  0  0  0
 44 43  1  0  0  0  0
 45 44  1  0  0  0  0
 46 48  2  0  0  0  0
 47 50  1  0  0  0  0
 48 47  1  0  0  0  0
 49 45  1  0  0  0  0
 49 48  1  0  0  0  0
 50 51  1  0  0  0  0
M  END
>  <MODEL>
8

>  <REMARK>
 VINA RESULT:      -4.3      2.645      4.002
  Name = 
  18 active torsions:
  status: ('A' for Active; 'I' for Inactive)
    1  A    between atoms: C_1  and  C_51
    2  A    between atoms: C_2  and  C_23
    3  A    between atoms: C_2  and  N_49
    4  A    between atoms: C_3  and  C_45
    5  A    between atoms: C_6  and  N_34
    6  A    between atoms: C_6  and  C_41
    7  A    between atoms: N_7  and  C_32
    8  A    between atoms: C_8  and  N_22
    9  A    between atoms: C_13  and  C_17
   10  A    between atoms: C_13  and  C_31
   11  A    between atoms: N_15  and  C_38
   12  A    between atoms: C_17  and  C_47
   13  A    between atoms: C_26  and  N_40
   14  A    between atoms: O_27  and  C_51
   15  A    between atoms: C_28  and  C_29
   16  A    between atoms: C_28  and  O_30
   17  A    between atoms: C_28  and  C_32
   18  A    between atoms: C_29  and  C_31
                            x       y       z     vdW  Elec       q    Type
                         _______ _______ _______ _____ _____    ______ ____

>  <TORSDO>
F 18

$$$$
=
 OpenBabel11042420213D

 51 53  0  0  1  0  0  0  0  0999 V2000
  161.8030  207.6650  139.3210 C   0  0  0  0  0  0  0  0  0  0  0  0
  161.4880  207.0600  138.0890 C   0  0  0  0  0  3  0  0  0  0  0  0
  161.1790  209.8150  138.3580 C   0  0  0  0  0  3  0  0  0  0  0  0
  160.8780  209.1980  137.1450 C   0  0  0  0  0  3  0  0  0  0  0  0
  161.6440  209.0680  139.4530 C   0  0  0  0  0  0  0  0  0  0  0  0
  161.0300  207.8180  137.0110 C   0  0  0  0  0  3  0  0  0  0  0  0
  161.6110  206.7080  141.5710 C   0  0  0  0  0  3  0  0  0  0  0  0
  162.3050  206.8140  140.4360 C   0  0  0  0  0  0  0  0  0  0  0  0
  163.5020  206.1110  140.3020 O   0  0  0  0  0  1  0  0  0  0  0  0
  162.0780  205.8690  142.7130 C   0  0  0  0  0  2  0  0  0  0  0  0
  161.4280  205.5930  145.1360 C   0  0  0  0  0  0  0  0  0  0  0  0
  161.5310  206.3910  143.9540 N   0  0  0  0  0  2  0  0  0  0  0  0
  161.8480  204.4050  145.1430 O   0  0  0  0  0  0  0  0  0  0  0  0
  160.8780  206.1690  146.3200 N   0  0  0  0  0  2  0  0  0  0  0  0
  161.5480  208.2450  153.0400 C   0  0  1  0  0  3  0  0  0  0  0  0
  160.9110  206.7740  151.0430 C   0  0  2  0  0  3  0  0  0  0  0  0
  161.5150  209.1870  150.6620 C   0  0  0  0  0  2  0  0  0  0  0  0
  161.8050  207.7330  150.2740 C   0  0  2  0  0  3  0  0  0  0  0  0
  161.2520  206.8060  152.5410 C   0  0  1  0  0  3  0  0  0  0  0  0
  161.0500  205.1450  150.2510 S   0  0  0  0  0  0  0  0  0  0  0  0
  162.3600  205.9940  152.8110 O   0  0  0  0  0  1  0  0  0  0  0  0
  160.8270  205.4560  147.5580 C   0  0  0  0  0  3  0  0  0  0  0  0
  160.9710  209.3210  152.1020 C   0  0  0  0  0  2  0  0  0  0  0  0
  161.1880  206.0300  148.7020 C   0  0  0  0  0  0  0  0  0  0  0  0
  161.5930  207.4670  148.7980 C   0  0  0  0  0  2  0  0  0  0  0  0
  160.5350  207.2430  154.9720 O   0  0  0  0  0  1  0  0  0  0  0  0
  161.0330  208.4490  154.4690 C   0  0  2  0  0  3  0  0  0  0  0  0
  160.2930  210.2190  155.5780 C   0  0  0  0  0  1  0  0  0  0  0  0
  160.0110  209.4030  154.4810 O   0  0  0  0  0  0  0  0  0  0  0  0
  161.8970  209.7110  140.7140 N   0  0  0  0  0  2  0  0  0  0  0  0
  160.7670  211.7400  140.3610 O   0  0  0  0  0  0  0  0  0  0  0  0
  161.3910  210.9810  141.1480 C   0  0  0  0  0  0  0  0  0  0  0  0
  161.6300  211.4270  142.5500 C   0  0  0  0  0  2  0  0  0  0  0  0
  161.6840  212.9470  142.6310 C   0  0  0  0  0  2  0  0  0  0  0  0
  161.1680  213.4140  143.9840 C   0  0  0  0  0  2  0  0  0  0  0  0
  160.1090  212.1090  145.7310 O   0  0  0  0  0  1  0  0  0  0  0  0
  159.9390  212.6390  144.4490 C   0  0  1  0  0  3  0  0  0  0  0  0
  158.6300  213.4270  144.3090 C   0  0  1  0  0  3  0  0  0  0  0  0
  157.0290  213.8420  145.7750 C   0  0  0  0  0  1  0  0  0  0  0  0
  158.3700  214.1000  145.5040 O   0  0  0  0  0  0  0  0  0  0  0  0
  158.6540  214.4330  143.1640 C   0  0  0  0  0  2  0  0  0  0  0  0
  159.4760  214.4530  140.4480 O   0  0  0  0  0  0  0  0  0  0  0  0
  157.8530  213.9530  142.0500 N   0  0  0  0  0  2  0  0  0  0  0  0
  158.3560  213.9360  140.7140 C   0  0  0  0  0  0  0  0  0  0  0  0
  157.5080  213.3640  139.6220 C   0  0  0  0  0  2  0  0  0  0  0  0
  157.3690  209.7230  139.1730 O   0  0  0  0  0  0  0  0  0  0  0  0
  155.5530  211.1180  138.8440 N   0  0  0  0  0  2  0  0  0  0  0  0
  156.9430  210.9040  139.1230 C   0  0  0  0  0  0  0  0  0  0  0  0
  157.8670  211.9800  139.3440 N   0  0  0  0  0  2  0  0  0  0  0  0
  154.9600  212.3940  138.4730 C   0  0  0  0  0  2  0  0  0  0  0  0
  153.6360  212.5790  139.1890 C   0  0  0  0  0  1  0  0  0  0  0  0
  1  5  1  0  0  0  0
  1  8  1  0  0  0  0
  2  1  2  0  0  0  0
  3  5  2  0  0  0  0
  4  3  1  0  0  0  0
  5 30  1  0  0  0  0
  6  4  2  0  0  0  0
  6  2  1  0  0  0  0
  7 10  1  0  0  0  0
  8  7  2  0  0  0  0
  9  8  1  0  0  0  0
 10 12  1  0  0  0  0
 11 13  2  0  0  0  0
 11 14  1  0  0  0  0
 12 11  1  0  0  0  0
 14 22  1  0  0  0  0
 15 27  1  1  0  0  0
 16 20  1  6  0  0  0
 16 19  1  0  0  0  0
 17 23  1  0  0  0  0
 18 25  1  6  0  0  0
 18 17  1  0  0  0  0
 18 16  1  0  0  0  0
 19 21  1  6  0  0  0
 19 15  1  0  0  0  0
 22 24  2  0  0  0  0
 23 15  1  0  0  0  0
 24 25  1  0  0  0  0
 24 20  1  0  0  0  0
 27 29  1  0  0  0  0
 27 26  1  6  0  0  0
 29 28  1  0  0  0  0
 30 32  1  0  0  0  0
 31 32  2  0  0  0  0
 32 33  1  0  0  0  0
 33 34  1  0  0  0  0
 34 35  1  0  0  0  0
 35 37  1  0  0  0  0
 37 36  1  1  0  0  0
 38 41  1  6  0  0  0
 38 37  1  0  0  0  0
 38 40  1  0  0  0  0
 40 39  1  0  0  0  0
 42 44  2  0  0  0  0
 43 41  1  0  0  0  0
 44 43  1  0  0  0  0
 45 44  1  0  0  0  0
 47 48  1  0  0  0  0
 48 46  2  0  0  0  0
 48 49  1  0  0  0  0
 49 45  1  0  0  0  0
 50 47  1  0  0  0  0
 50 51  1  0  0  0  0
M  END
>  <MODEL>
9

>  <REMARK>
 VINA RESULT:      -4.1      3.951     12.775
  Name = 
  18 active torsions:
  status: ('A' for Active; 'I' for Inactive)
    1  A    between atoms: C_1  and  C_51
    2  A    between atoms: C_2  and  C_23
    3  A    between atoms: C_2  and  N_49
    4  A    between atoms: C_3  and  C_45
    5  A    between atoms: C_6  and  N_34
    6  A    between atoms: C_6  and  C_41
    7  A    between atoms: N_7  and  C_32
    8  A    between atoms: C_8  and  N_22
    9  A    between atoms: C_13  and  C_17
   10  A    between atoms: C_13  and  C_31
   11  A    between atoms: N_15  and  C_38
   12  A    between atoms: C_17  and  C_47
   13  A    between atoms: C_26  and  N_40
   14  A    between atoms: O_27  and  C_51
   15  A    between atoms: C_28  and  C_29
   16  A    between atoms: C_28  and  O_30
   17  A    between atoms: C_28  and  C_32
   18  A    between atoms: C_29  and  C_31
                            x       y       z     vdW  Elec       q    Type
                         _______ _______ _______ _____ _____    ______ ____

>  <TORSDO>
F 18

$$$$
