=
 OpenBabel11042420233D

 36 39  0  0  1  0  0  0  0  0999 V2000
  160.1030  210.6890  152.6050 N   0  0  2  0  0  0  0  0  0  0  0  0
  161.2040  211.0880  154.6720 N   0  0  0  0  0  0  0  0  0  0  0  0
  162.2970  209.8160  152.9190 C   0  0  0  0  0  2  0  0  0  0  0  0
  160.4070  209.8940  151.4200 C   0  0  0  0  0  2  0  0  0  0  0  0
  159.3280  212.6330  154.6200 N   0  0  0  0  0  0  0  0  0  0  0  0
  160.3450  211.8500  155.2870 C   0  0  0  0  0  0  0  0  0  0  0  0
  159.4970  211.9590  152.2040 C   0  0  1  0  0  3  0  0  0  0  0  0
  161.3780  210.9670  153.2390 C   0  0  1  0  0  3  0  0  0  0  0  0
  158.9370  212.7060  153.3780 C   0  0  0  0  0  3  0  0  0  0  0  0
  161.7760  209.2660  151.6110 C   0  0  2  0  0  3  0  0  0  0  0  0
  160.3460  213.1460  157.2480 F   0  0  0  0  0  0  0  0  0  0  0  0
  161.4700  211.1930  157.2610 F   0  0  0  0  0  0  0  0  0  0  0  0
  159.2220  211.1930  157.2610 F   0  0  0  0  0  0  0  0  0  0  0  0
  160.3450  211.8430  156.7850 C   0  0  0  0  0  0  0  0  0  0  0  0
  161.6380  207.8210  151.6970 N   0  0  0  0  0  2  0  0  0  0  0  0
  161.2720  207.0060  150.5790 C   0  0  0  0  0  0  0  0  0  0  0  0
  161.0430  207.5550  149.4650 O   0  0  0  0  0  0  0  0  0  0  0  0
  161.3510  205.5130  153.2570 C   0  0  0  0  0  1  0  0  0  0  0  0
  161.0090  204.7830  149.5190 C   0  0  0  0  0  3  0  0  0  0  0  0
  161.1610  205.5290  150.7020 C   0  0  0  0  0  0  0  0  0  0  0  0
  161.1990  204.8310  151.9390 C   0  0  0  0  0  0  0  0  0  0  0  0
  161.0830  203.4370  151.9560 C   0  0  0  0  0  3  0  0  0  0  0  0
  160.9340  202.7200  150.7690 C   0  0  0  0  0  3  0  0  0  0  0  0
  160.8970  203.3930  149.5510 C   0  0  0  0  0  0  0  0  0  0  0  0
  160.7530  202.6990  148.3960 F   0  0  0  0  0  0  0  0  0  0  0  0
  160.4210  212.8170  151.4580 N   0  0  0  0  0  2  0  0  0  0  0  0
  156.8380  213.3110  149.2360 N   0  0  0  0  0  1  0  0  0  0  0  0
  159.8840  213.2250  145.5290 C   0  0  0  0  0  1  0  0  0  0  0  0
  158.1880  213.4550  148.8090 C   0  0  0  0  0  0  0  0  0  0  0  0
  160.2480  213.1610  150.0790 C   0  0  0  0  0  0  0  0  0  0  0  0
  162.1460  212.8560  147.0000 F   0  0  0  0  0  0  0  0  0  0  0  0
  159.8290  213.1160  147.0150 C   0  0  0  0  0  0  0  0  0  0  0  0
  160.9810  212.9310  147.6940 C   0  0  0  0  0  0  0  0  0  0  0  0
  161.0760  212.6800  149.1470 C   0  0  0  0  0  3  0  0  0  0  0  0
  158.5210  213.0660  147.6150 N   0  0  0  0  0  0  0  0  0  0  0  0
  159.1640  214.1130  149.7200 C   0  0  0  0  0  2  0  0  0  0  0  0
  1  4  1  6  0  0  0
  1  8  1  0  0  0  0
  2  6  2  0  0  0  0
  4 10  1  0  0  0  0
  5  6  1  0  0  0  0
  6 14  1  0  0  0  0
  7 26  1  1  0  0  0
  7  1  1  0  0  0  0
  7  9  1  0  0  0  0
  8  3  1  1  0  0  0
  8  2  1  0  0  0  0
  9  5  2  0  0  0  0
 10 15  1  1  0  0  0
 10  3  1  0  0  0  0
 14 11  1  0  0  0  0
 14 12  1  0  0  0  0
 14 13  1  0  0  0  0
 16 20  1  0  0  0  0
 16 15  1  0  0  0  0
 17 16  2  0  0  0  0
 19 24  2  0  0  0  0
 19 20  1  0  0  0  0
 20 21  2  0  0  0  0
 21 22  1  0  0  0  0
 21 18  1  0  0  0  0
 23 22  2  0  0  0  0
 24 23  1  0  0  0  0
 25 24  1  0  0  0  0
 28 32  1  0  0  0  0
 29 27  1  0  0  0  0
 29 36  1  0  0  0  0
 30 26  1  0  0  0  0
 31 33  1  0  0  0  0
 32 35  1  0  0  0  0
 32 33  2  0  0  0  0
 33 34  1  0  0  0  0
 34 30  2  0  0  0  0
 35 29  2  0  0  0  0
 36 30  1  0  0  0  0
M  END
>  <MODEL>
1

>  <REMARK>
 VINA RESULT:      -8.0      0.000      0.000
  Name = 
  5 active torsions:
  status: ('A' for Active; 'I' for Inactive)
    1  A    between atoms: N_5  and  C_31
    2  A    between atoms: C_7  and  C_15
    3  A    between atoms: C_12  and  C_28
    4  A    between atoms: C_13  and  N_33
    5  A    between atoms: C_21  and  N_33
                            x       y       z     vdW  Elec       q    Type
                         _______ _______ _______ _____ _____    ______ ____

>  <TORSDO>
F 5

$$$$
=
 OpenBabel11042420233D

 36 39  0  0  1  0  0  0  0  0999 V2000
  160.5400  208.5020  152.0700 N   0  0  2  0  0  0  0  0  0  0  0  0
  161.4350  207.9700  154.2060 N   0  0  0  0  0  0  0  0  0  0  0  0
  162.4960  207.1470  152.1850 C   0  0  0  0  0  2  0  0  0  0  0  0
  160.8430  208.0950  150.7020 C   0  0  0  0  0  2  0  0  0  0  0  0
  159.8740  209.7940  154.5850 N   0  0  0  0  0  0  0  0  0  0  0  0
  160.6520  208.6470  154.9970 C   0  0  0  0  0  0  0  0  0  0  0  0
  160.2150  209.9280  152.0990 C   0  0  1  0  0  3  0  0  0  0  0  0
  161.7570  208.2920  152.8310 C   0  0  1  0  0  3  0  0  0  0  0  0
  159.6550  210.3480  153.4250 C   0  0  0  0  0  3  0  0  0  0  0  0
  162.0500  207.1750  150.7410 C   0  0  2  0  0  3  0  0  0  0  0  0
  161.6900  207.7300  156.8960 F   0  0  0  0  0  0  0  0  0  0  0  0
  159.5830  207.0890  156.4200 F   0  0  0  0  0  0  0  0  0  0  0  0
  159.9750  209.1600  157.2030 F   0  0  0  0  0  0  0  0  0  0  0  0
  160.4700  208.1500  156.3980 C   0  0  0  0  0  0  0  0  0  0  0  0
  161.6550  205.8410  150.3160 N   0  0  0  0  0  2  0  0  0  0  0  0
  161.6780  205.4210  148.9480 C   0  0  0  0  0  0  0  0  0  0  0  0
  162.0400  206.2400  148.0580 O   0  0  0  0  0  0  0  0  0  0  0  0
  160.6940  203.3030  150.9360 C   0  0  0  0  0  1  0  0  0  0  0  0
  161.3710  203.7000  147.1940 C   0  0  0  0  0  3  0  0  0  0  0  0
  161.2860  204.0420  148.5550 C   0  0  0  0  0  0  0  0  0  0  0  0
  160.8310  203.0550  149.4710 C   0  0  0  0  0  0  0  0  0  0  0  0
  160.4810  201.7830  149.0070 C   0  0  0  0  0  3  0  0  0  0  0  0
  160.5760  201.4670  147.6520 C   0  0  0  0  0  3  0  0  0  0  0  0
  161.0210  202.4270  146.7450 C   0  0  0  0  0  0  0  0  0  0  0  0
  161.1140  202.1230  145.4280 F   0  0  0  0  0  0  0  0  0  0  0  0
  161.3570  210.7770  151.7460 N   0  0  0  0  0  2  0  0  0  0  0  0
  158.2140  213.3400  150.4950 N   0  0  0  0  0  1  0  0  0  0  0  0
  161.0810  213.9410  146.6950 C   0  0  0  0  0  1  0  0  0  0  0  0
  159.5320  213.2150  149.9750 C   0  0  0  0  0  0  0  0  0  0  0  0
  161.3360  211.7360  150.6840 C   0  0  0  0  0  0  0  0  0  0  0  0
  163.0440  212.2450  147.5210 F   0  0  0  0  0  0  0  0  0  0  0  0
  160.9710  213.2040  147.9860 C   0  0  0  0  0  0  0  0  0  0  0  0
  161.9720  212.3740  148.3460 C   0  0  0  0  0  0  0  0  0  0  0  0
  161.9530  211.4840  149.5240 C   0  0  0  0  0  3  0  0  0  0  0  0
  159.7220  213.3170  148.6940 N   0  0  0  0  0  0  0  0  0  0  0  0
  160.6660  213.0410  150.9240 C   0  0  0  0  0  2  0  0  0  0  0  0
  1  4  1  6  0  0  0
  1  7  1  0  0  0  0
  1  8  1  0  0  0  0
  2  6  2  0  0  0  0
  4 10  1  0  0  0  0
  5  6  1  0  0  0  0
  6 14  1  0  0  0  0
  7 26  1  1  0  0  0
  7  9  1  0  0  0  0
  8  3  1  6  0  0  0
  8  2  1  0  0  0  0
  9  5  2  0  0  0  0
 10 15  1  1  0  0  0
 10  3  1  0  0  0  0
 14 12  1  0  0  0  0
 14 11  1  0  0  0  0
 14 13  1  0  0  0  0
 16 15  1  0  0  0  0
 17 16  2  0  0  0  0
 19 20  1  0  0  0  0
 20 16  1  0  0  0  0
 20 21  2  0  0  0  0
 21 18  1  0  0  0  0
 22 21  1  0  0  0  0
 23 22  2  0  0  0  0
 24 19  2  0  0  0  0
 24 23  1  0  0  0  0
 25 24  1  0  0  0  0
 28 32  1  0  0  0  0
 29 27  1  0  0  0  0
 29 36  1  0  0  0  0
 30 36  1  0  0  0  0
 30 26  1  0  0  0  0
 31 33  1  0  0  0  0
 32 33  2  0  0  0  0
 32 35  1  0  0  0  0
 33 34  1  0  0  0  0
 34 30  2  0  0  0  0
 35 29  2  0  0  0  0
M  END
>  <MODEL>
2

>  <REMARK>
 VINA RESULT:      -7.8      2.040      2.712
  Name = 
  5 active torsions:
  status: ('A' for Active; 'I' for Inactive)
    1  A    between atoms: N_5  and  C_31
    2  A    between atoms: C_7  and  C_15
    3  A    between atoms: C_12  and  C_28
    4  A    between atoms: C_13  and  N_33
    5  A    between atoms: C_21  and  N_33
                            x       y       z     vdW  Elec       q    Type
                         _______ _______ _______ _____ _____    ______ ____

>  <TORSDO>
F 5

$$$$
=
 OpenBabel11042420233D

 36 39  0  0  1  0  0  0  0  0999 V2000
  160.2580  210.5480  152.4900 N   0  0  2  0  0  0  0  0  0  0  0  0
  161.5550  210.7650  154.4690 N   0  0  0  0  0  0  0  0  0  0  0  0
  162.4380  209.5900  152.5380 C   0  0  0  0  0  2  0  0  0  0  0  0
  160.4240  209.8320  151.2290 C   0  0  0  0  0  2  0  0  0  0  0  0
  159.7390  212.3650  154.6970 N   0  0  0  0  0  0  0  0  0  0  0  0
  160.7830  211.5060  155.2110 C   0  0  0  0  0  0  0  0  0  0  0  0
  159.6640  211.8610  152.2350 C   0  0  1  0  0  3  0  0  0  0  0  0
  161.5940  210.7430  153.0210 C   0  0  1  0  0  3  0  0  0  0  0  0
  159.2400  212.5380  153.5040 C   0  0  0  0  0  3  0  0  0  0  0  0
  161.7810  209.1520  151.2490 C   0  0  2  0  0  3  0  0  0  0  0  0
  162.0120  210.6000  156.9970 F   0  0  0  0  0  0  0  0  0  0  0  0
  159.7830  210.8180  157.2410 F   0  0  0  0  0  0  0  0  0  0  0  0
  161.0970  212.6430  157.2610 F   0  0  0  0  0  0  0  0  0  0  0  0
  160.9190  211.3910  156.6990 C   0  0  0  0  0  0  0  0  0  0  0  0
  161.5990  207.7090  151.2480 N   0  0  0  0  0  2  0  0  0  0  0  0
  161.2940  206.9640  150.0650 C   0  0  0  0  0  0  0  0  0  0  0  0
  161.1590  207.5760  148.9690 O   0  0  0  0  0  0  0  0  0  0  0  0
  161.3030  205.1930  147.5600 C   0  0  0  0  0  1  0  0  0  0  0  0
  160.9750  204.8750  151.3560 C   0  0  0  0  0  3  0  0  0  0  0  0
  161.1350  205.4860  150.1000 C   0  0  0  0  0  0  0  0  0  0  0  0
  161.1370  204.6600  148.9440 C   0  0  0  0  0  0  0  0  0  0  0  0
  160.9830  203.2760  149.0760 C   0  0  0  0  0  3  0  0  0  0  0  0
  160.8250  202.6940  150.3340 C   0  0  0  0  0  3  0  0  0  0  0  0
  160.8210  203.4940  151.4740 C   0  0  0  0  0  0  0  0  0  0  0  0
  160.6680  202.9310  152.6970 F   0  0  0  0  0  0  0  0  0  0  0  0
  160.5480  212.7430  151.4670 N   0  0  0  0  0  2  0  0  0  0  0  0
  156.8040  213.3020  149.5450 N   0  0  0  0  0  1  0  0  0  0  0  0
  159.5770  213.5650  145.6370 C   0  0  0  0  0  1  0  0  0  0  0  0
  158.1170  213.5120  149.0360 C   0  0  0  0  0  0  0  0  0  0  0  0
  160.2680  213.1810  150.1340 C   0  0  0  0  0  0  0  0  0  0  0  0
  161.9460  213.1510  146.9140 F   0  0  0  0  0  0  0  0  0  0  0  0
  159.6320  213.3470  147.1110 C   0  0  0  0  0  0  0  0  0  0  0  0
  160.8320  213.1440  147.6920 C   0  0  0  0  0  0  0  0  0  0  0  0
  161.0370  212.7910  149.1120 C   0  0  0  0  0  3  0  0  0  0  0  0
  158.3710  213.2200  147.7960 N   0  0  0  0  0  0  0  0  0  0  0  0
  159.1410  214.1280  149.9230 C   0  0  0  0  0  2  0  0  0  0  0  0
  1  4  1  6  0  0  0
  1  8  1  0  0  0  0
  2  6  2  0  0  0  0
  4 10  1  0  0  0  0
  5  6  1  0  0  0  0
  6 14  1  0  0  0  0
  7 26  1  1  0  0  0
  7  1  1  0  0  0  0
  7  9  1  0  0  0  0
  8  3  1  1  0  0  0
  8  2  1  0  0  0  0
  9  5  2  0  0  0  0
 10 15  1  1  0  0  0
 10  3  1  0  0  0  0
 14 11  1  0  0  0  0
 14 12  1  0  0  0  0
 14 13  1  0  0  0  0
 16 20  1  0  0  0  0
 16 15  1  0  0  0  0
 17 16  2  0  0  0  0
 18 21  1  0  0  0  0
 19 24  1  0  0  0  0
 20 19  2  0  0  0  0
 21 22  2  0  0  0  0
 21 20  1  0  0  0  0
 22 23  1  0  0  0  0
 23 24  2  0  0  0  0
 24 25  1  0  0  0  0
 28 32  1  0  0  0  0
 29 27  1  0  0  0  0
 29 36  1  0  0  0  0
 30 26  1  0  0  0  0
 31 33  1  0  0  0  0
 32 33  2  0  0  0  0
 32 35  1  0  0  0  0
 33 34  1  0  0  0  0
 34 30  2  0  0  0  0
 35 29  2  0  0  0  0
 36 30  1  0  0  0  0
M  END
>  <MODEL>
3

>  <REMARK>
 VINA RESULT:      -7.7      0.918      1.648
  Name = 
  5 active torsions:
  status: ('A' for Active; 'I' for Inactive)
    1  A    between atoms: N_5  and  C_31
    2  A    between atoms: C_7  and  C_15
    3  A    between atoms: C_12  and  C_28
    4  A    between atoms: C_13  and  N_33
    5  A    between atoms: C_21  and  N_33
                            x       y       z     vdW  Elec       q    Type
                         _______ _______ _______ _____ _____    ______ ____

>  <TORSDO>
F 5

$$$$
=
 OpenBabel11042420233D

 36 39  0  0  1  0  0  0  0  0999 V2000
  160.9740  209.0770  150.8650 N   0  0  2  0  0  0  0  0  0  0  0  0
  161.9660  208.8130  153.0080 N   0  0  0  0  0  0  0  0  0  0  0  0
  162.8020  207.5670  151.1010 C   0  0  0  0  0  2  0  0  0  0  0  0
  161.1410  208.4240  149.5720 C   0  0  0  0  0  2  0  0  0  0  0  0
  160.6090  210.8230  153.1580 N   0  0  0  0  0  0  0  0  0  0  0  0
  161.3060  209.6860  153.7150 C   0  0  0  0  0  0  0  0  0  0  0  0
  160.7830  210.5150  150.6700 C   0  0  1  0  0  3  0  0  0  0  0  0
  162.2180  208.8710  151.5830 C   0  0  1  0  0  3  0  0  0  0  0  0
  160.3590  211.1990  151.9350 C   0  0  0  0  0  3  0  0  0  0  0  0
  162.2580  207.4040  149.6990 C   0  0  2  0  0  3  0  0  0  0  0  0
  159.8420  209.3290  155.5190 F   0  0  0  0  0  0  0  0  0  0  0  0
  161.7310  210.4980  155.8950 F   0  0  0  0  0  0  0  0  0  0  0  0
  161.8370  208.2800  155.5400 F   0  0  0  0  0  0  0  0  0  0  0  0
  161.1800  209.4450  155.1880 C   0  0  0  0  0  0  0  0  0  0  0  0
  161.7150  206.0660  149.5290 N   0  0  0  0  0  2  0  0  0  0  0  0
  161.9120  205.2910  148.3420 C   0  0  0  0  0  0  0  0  0  0  0  0
  162.5740  205.7850  147.3870 O   0  0  0  0  0  0  0  0  0  0  0  0
  160.8230  203.6690  150.7060 C   0  0  0  0  0  1  0  0  0  0  0  0
  161.3320  203.3400  146.9310 C   0  0  0  0  0  3  0  0  0  0  0  0
  161.3570  203.9180  148.2130 C   0  0  0  0  0  0  0  0  0  0  0  0
  160.8530  203.1600  149.3040 C   0  0  0  0  0  0  0  0  0  0  0  0
  160.3470  201.8750  149.0850 C   0  0  0  0  0  3  0  0  0  0  0  0
  160.3340  201.3230  147.8040 C   0  0  0  0  0  3  0  0  0  0  0  0
  160.8260  202.0560  146.7270 C   0  0  0  0  0  0  0  0  0  0  0  0
  160.8140  201.5230  145.4810 F   0  0  0  0  0  0  0  0  0  0  0  0
  161.9710  211.1730  150.1170 N   0  0  0  0  0  2  0  0  0  0  0  0
  158.7100  213.4740  148.6670 N   0  0  0  0  0  1  0  0  0  0  0  0
  161.6940  214.1950  144.9790 C   0  0  0  0  0  1  0  0  0  0  0  0
  160.0570  213.4320  148.2080 C   0  0  0  0  0  0  0  0  0  0  0  0
  161.9280  212.1040  149.0310 C   0  0  0  0  0  0  0  0  0  0  0  0
  163.7350  212.6650  145.9320 F   0  0  0  0  0  0  0  0  0  0  0  0
  161.5790  213.4810  146.2830 C   0  0  0  0  0  0  0  0  0  0  0  0
  162.6210  212.7340  146.7060 C   0  0  0  0  0  0  0  0  0  0  0  0
  162.6120  211.8720  147.9050 C   0  0  0  0  0  3  0  0  0  0  0  0
  160.2950  213.5190  146.9330 N   0  0  0  0  0  0  0  0  0  0  0  0
  161.1560  213.3630  149.2090 C   0  0  0  0  0  2  0  0  0  0  0  0
  1  4  1  6  0  0  0
  1  8  1  0  0  0  0
  2  6  2  0  0  0  0
  4 10  1  0  0  0  0
  5  6  1  0  0  0  0
  6 14  1  0  0  0  0
  7 26  1  1  0  0  0
  7  1  1  0  0  0  0
  7  9  1  0  0  0  0
  8  3  1  6  0  0  0
  8  2  1  0  0  0  0
  9  5  2  0  0  0  0
 10 15  1  1  0  0  0
 10  3  1  0  0  0  0
 14 11  1  0  0  0  0
 14 13  1  0  0  0  0
 14 12  1  0  0  0  0
 16 15  1  0  0  0  0
 17 16  2  0  0  0  0
 19 20  1  0  0  0  0
 20 16  1  0  0  0  0
 20 21  2  0  0  0  0
 21 18  1  0  0  0  0
 22 21  1  0  0  0  0
 23 22  2  0  0  0  0
 24 19  2  0  0  0  0
 24 23  1  0  0  0  0
 25 24  1  0  0  0  0
 28 32  1  0  0  0  0
 29 27  1  0  0  0  0
 29 36  1  0  0  0  0
 30 36  1  0  0  0  0
 30 26  1  0  0  0  0
 31 33  1  0  0  0  0
 32 33  2  0  0  0  0
 32 35  1  0  0  0  0
 33 34  1  0  0  0  0
 34 30  2  0  0  0  0
 35 29  2  0  0  0  0
M  END
>  <MODEL>
4

>  <REMARK>
 VINA RESULT:      -6.8      1.968      2.759
  Name = 
  5 active torsions:
  status: ('A' for Active; 'I' for Inactive)
    1  A    between atoms: N_5  and  C_31
    2  A    between atoms: C_7  and  C_15
    3  A    between atoms: C_12  and  C_28
    4  A    between atoms: C_13  and  N_33
    5  A    between atoms: C_21  and  N_33
                            x       y       z     vdW  Elec       q    Type
                         _______ _______ _______ _____ _____    ______ ____

>  <TORSDO>
F 5

$$$$
=
 OpenBabel11042420233D

 36 39  0  0  1  0  0  0  0  0999 V2000
  160.9520  207.3040  149.2180 N   0  0  2  0  0  0  0  0  0  0  0  0
  162.3820  205.8590  147.9870 N   0  0  0  0  0  0  0  0  0  0  0  0
  163.0420  208.1490  148.4470 C   0  0  0  0  0  2  0  0  0  0  0  0
  160.9790  208.7210  149.5640 C   0  0  0  0  0  2  0  0  0  0  0  0
  160.7260  204.4140  149.0250 N   0  0  0  0  0  0  0  0  0  0  0  0
  161.7230  204.7370  148.0280 C   0  0  0  0  0  0  0  0  0  0  0  0
  160.4580  206.5280  150.3560 C   0  0  1  0  0  3  0  0  0  0  0  0
  162.3300  206.9250  148.9670 C   0  0  1  0  0  3  0  0  0  0  0  0
  160.1720  205.1050  149.9820 C   0  0  0  0  0  3  0  0  0  0  0  0
  162.2720  209.3120  149.0300 C   0  0  2  0  0  3  0  0  0  0  0  0
  163.2720  203.7680  146.5500 F   0  0  0  0  0  0  0  0  0  0  0  0
  161.1640  204.0910  145.8220 F   0  0  0  0  0  0  0  0  0  0  0  0
  161.5950  202.4810  147.3320 F   0  0  0  0  0  0  0  0  0  0  0  0
  161.9390  203.7550  146.9170 C   0  0  0  0  0  0  0  0  0  0  0  0
  161.9680  210.2800  147.9890 N   0  0  0  0  0  2  0  0  0  0  0  0
  161.8160  211.6800  148.2480 C   0  0  0  0  0  0  0  0  0  0  0  0
  161.9340  212.1040  149.4310 O   0  0  0  0  0  0  0  0  0  0  0  0
  159.0710  212.9760  147.8090 C   0  0  0  0  0  1  0  0  0  0  0  0
  162.5730  212.9730  146.2760 C   0  0  0  0  0  3  0  0  0  0  0  0
  161.5250  212.6420  147.1530 C   0  0  0  0  0  0  0  0  0  0  0  0
  160.2550  213.2450  146.9430 C   0  0  0  0  0  0  0  0  0  0  0  0
  160.0760  214.1420  145.8850 C   0  0  0  0  0  3  0  0  0  0  0  0
  161.1320  214.4530  145.0280 C   0  0  0  0  0  3  0  0  0  0  0  0
  162.3810  213.8680  145.2240 C   0  0  0  0  0  0  0  0  0  0  0  0
  163.4080  214.1680  144.3930 F   0  0  0  0  0  0  0  0  0  0  0  0
  161.3650  206.5720  151.5070 N   0  0  0  0  0  2  0  0  0  0  0  0
  161.9540  210.6110  152.6730 N   0  0  0  0  0  1  0  0  0  0  0  0
  160.9440  208.8310  157.0140 C   0  0  0  0  0  1  0  0  0  0  0  0
  161.3760  209.5380  153.4080 C   0  0  0  0  0  0  0  0  0  0  0  0
  161.0470  207.2150  152.7460 C   0  0  0  0  0  0  0  0  0  0  0  0
  160.6290  206.2460  156.2190 F   0  0  0  0  0  0  0  0  0  0  0  0
  161.1160  208.4360  155.5860 C   0  0  0  0  0  0  0  0  0  0  0  0
  160.9500  207.1410  155.2480 C   0  0  0  0  0  0  0  0  0  0  0  0
  161.2090  206.5750  153.9080 C   0  0  0  0  0  3  0  0  0  0  0  0
  161.5980  209.4510  154.6850 N   0  0  0  0  0  0  0  0  0  0  0  0
  160.4750  208.5870  152.7020 C   0  0  0  0  0  2  0  0  0  0  0  0
  1  4  1  1  0  0  0
  1  7  1  0  0  0  0
  2  6  2  0  0  0  0
  2  8  1  0  0  0  0
  3 10  1  0  0  0  0
  5  9  2  0  0  0  0
  6  5  1  0  0  0  0
  7 26  1  1  0  0  0
  8  3  1  6  0  0  0
  8  1  1  0  0  0  0
  9  7  1  0  0  0  0
 10 15  1  6  0  0  0
 10  4  1  0  0  0  0
 11 14  1  0  0  0  0
 12 14  1  0  0  0  0
 14 13  1  0  0  0  0
 14  6  1  0  0  0  0
 15 16  1  0  0  0  0
 16 17  2  0  0  0  0
 19 20  1  0  0  0  0
 20 16  1  0  0  0  0
 21 20  2  0  0  0  0
 21 18  1  0  0  0  0
 22 21  1  0  0  0  0
 23 24  1  0  0  0  0
 23 22  2  0  0  0  0
 24 19  2  0  0  0  0
 25 24  1  0  0  0  0
 26 30  1  0  0  0  0
 27 29  1  0  0  0  0
 29 35  2  0  0  0  0
 30 34  2  0  0  0  0
 32 28  1  0  0  0  0
 33 32  2  0  0  0  0
 33 31  1  0  0  0  0
 34 33  1  0  0  0  0
 35 32  1  0  0  0  0
 36 30  1  0  0  0  0
 36 29  1  0  0  0  0
M  END
>  <MODEL>
5

>  <REMARK>
 VINA RESULT:      -6.1      3.011      9.195
  Name = 
  5 active torsions:
  status: ('A' for Active; 'I' for Inactive)
    1  A    between atoms: N_5  and  C_31
    2  A    between atoms: C_7  and  C_15
    3  A    between atoms: C_12  and  C_28
    4  A    between atoms: C_13  and  N_33
    5  A    between atoms: C_21  and  N_33
                            x       y       z     vdW  Elec       q    Type
                         _______ _______ _______ _____ _____    ______ ____

>  <TORSDO>
F 5

$$$$
=
 OpenBabel11042420233D

 36 39  0  0  1  0  0  0  0  0999 V2000
  160.8690  207.9130  150.4380 N   0  0  2  0  0  0  0  0  0  0  0  0
  162.3270  209.7030  149.8760 N   0  0  0  0  0  0  0  0  0  0  0  0
  162.4730  208.6290  152.0470 C   0  0  0  0  0  2  0  0  0  0  0  0
  160.6110  207.1440  151.6510 C   0  0  0  0  0  2  0  0  0  0  0  0
  161.3400  208.9780  147.7770 N   0  0  0  0  0  0  0  0  0  0  0  0
  161.9940  209.9370  148.6390 C   0  0  0  0  0  0  0  0  0  0  0  0
  160.8320  207.0250  149.2750 C   0  0  1  0  0  3  0  0  0  0  0  0
  162.2140  208.4380  150.5740 C   0  0  1  0  0  3  0  0  0  0  0  0
  160.8400  207.7920  147.9870 C   0  0  0  0  0  3  0  0  0  0  0  0
  161.5740  207.6190  152.7240 C   0  0  2  0  0  3  0  0  0  0  0  0
  161.2590  211.5930  147.1420 F   0  0  0  0  0  0  0  0  0  0  0  0
  163.4710  211.4160  147.5320 F   0  0  0  0  0  0  0  0  0  0  0  0
  162.1150  212.2480  149.1210 F   0  0  0  0  0  0  0  0  0  0  0  0
  162.2150  211.3180  148.1020 C   0  0  0  0  0  0  0  0  0  0  0  0
  160.8280  208.2560  153.7970 N   0  0  0  0  0  2  0  0  0  0  0  0
  160.5900  209.6670  153.8480 C   0  0  0  0  0  0  0  0  0  0  0  0
  161.0550  210.4040  152.9340 O   0  0  0  0  0  0  0  0  0  0  0  0
  161.6750  210.0640  156.6890 C   0  0  0  0  0  1  0  0  0  0  0  0
  158.4940  210.7000  154.6670 C   0  0  0  0  0  3  0  0  0  0  0  0
  159.8050  210.2800  154.9510 C   0  0  0  0  0  0  0  0  0  0  0  0
  160.3010  210.4650  156.2700 C   0  0  0  0  0  0  0  0  0  0  0  0
  159.4880  211.0540  157.2440 C   0  0  0  0  0  3  0  0  0  0  0  0
  158.1900  211.4620  156.9370 C   0  0  0  0  0  3  0  0  0  0  0  0
  157.6930  211.2850  155.6480 C   0  0  0  0  0  0  0  0  0  0  0  0
  156.4320  211.6810  155.3470 F   0  0  0  0  0  0  0  0  0  0  0  0
  161.9180  206.0410  149.2810 N   0  0  0  0  0  2  0  0  0  0  0  0
  161.8400  205.5770  145.0620 N   0  0  0  0  0  1  0  0  0  0  0  0
  160.8300  201.0320  146.2240 C   0  0  0  0  0  1  0  0  0  0  0  0
  161.8720  204.5790  146.0750 C   0  0  0  0  0  0  0  0  0  0  0  0
  161.9060  204.8420  148.4990 C   0  0  0  0  0  0  0  0  0  0  0  0
  160.8410  201.3970  148.9220 F   0  0  0  0  0  0  0  0  0  0  0  0
  161.0960  202.3730  146.8210 C   0  0  0  0  0  0  0  0  0  0  0  0
  161.0870  202.4970  148.1640 C   0  0  0  0  0  0  0  0  0  0  0  0
  161.2070  203.7740  148.8980 C   0  0  0  0  0  3  0  0  0  0  0  0
  161.1980  203.4810  145.9080 N   0  0  0  0  0  0  0  0  0  0  0  0
  162.7380  204.7930  147.2670 C   0  0  0  0  0  2  0  0  0  0  0  0
  1  8  1  0  0  0  0
  1  4  1  1  0  0  0
  2  8  1  0  0  0  0
  3 10  1  0  0  0  0
  4 10  1  0  0  0  0
  5  9  2  0  0  0  0
  5  6  1  0  0  0  0
  6  2  2  0  0  0  0
  7 26  1  6  0  0  0
  7  1  1  0  0  0  0
  8  3  1  1  0  0  0
  9  7  1  0  0  0  0
 10 15  1  1  0  0  0
 11 14  1  0  0  0  0
 12 14  1  0  0  0  0
 14  6  1  0  0  0  0
 14 13  1  0  0  0  0
 15 16  1  0  0  0  0
 16 20  1  0  0  0  0
 17 16  2  0  0  0  0
 19 20  2  0  0  0  0
 19 24  1  0  0  0  0
 20 21  1  0  0  0  0
 21 18  1  0  0  0  0
 21 22  2  0  0  0  0
 23 22  1  0  0  0  0
 24 23  2  0  0  0  0
 25 24  1  0  0  0  0
 27 29  1  0  0  0  0
 28 32  1  0  0  0  0
 29 36  1  0  0  0  0
 30 34  2  0  0  0  0
 30 26  1  0  0  0  0
 32 33  2  0  0  0  0
 33 34  1  0  0  0  0
 33 31  1  0  0  0  0
 35 29  2  0  0  0  0
 35 32  1  0  0  0  0
 36 30  1  0  0  0  0
M  END
>  <MODEL>
6

>  <REMARK>
 VINA RESULT:      -5.8      3.158      8.279
  Name = 
  5 active torsions:
  status: ('A' for Active; 'I' for Inactive)
    1  A    between atoms: N_5  and  C_31
    2  A    between atoms: C_7  and  C_15
    3  A    between atoms: C_12  and  C_28
    4  A    between atoms: C_13  and  N_33
    5  A    between atoms: C_21  and  N_33
                            x       y       z     vdW  Elec       q    Type
                         _______ _______ _______ _____ _____    ______ ____

>  <TORSDO>
F 5

$$$$
=
 OpenBabel11042420233D

 36 39  0  0  1  0  0  0  0  0999 V2000
  160.9050  208.9950  150.9770 N   0  0  2  0  0  0  0  0  0  0  0  0
  162.4470  210.6950  150.3610 N   0  0  0  0  0  0  0  0  0  0  0  0
  162.2850  209.9530  152.6650 C   0  0  0  0  0  2  0  0  0  0  0  0
  160.4760  208.4110  152.2440 C   0  0  0  0  0  2  0  0  0  0  0  0
  161.7430  209.6610  148.2760 N   0  0  0  0  0  0  0  0  0  0  0  0
  162.2860  210.7420  149.0690 C   0  0  0  0  0  0  0  0  0  0  0  0
  161.0150  207.9460  149.9630 C   0  0  1  0  0  3  0  0  0  0  0  0
  162.2260  209.5460  151.2150 C   0  0  1  0  0  3  0  0  0  0  0  0
  161.2060  208.5150  148.5890 C   0  0  0  0  0  3  0  0  0  0  0  0
  161.2920  209.0460  153.3550 C   0  0  2  0  0  3  0  0  0  0  0  0
  162.0390  212.0070  147.1040 F   0  0  0  0  0  0  0  0  0  0  0  0
  163.9620  212.2030  148.2620 F   0  0  0  0  0  0  0  0  0  0  0  0
  162.0660  213.0960  149.0770 F   0  0  0  0  0  0  0  0  0  0  0  0
  162.5940  212.0310  148.3700 C   0  0  0  0  0  0  0  0  0  0  0  0
  160.4150  209.8290  154.2120 N   0  0  0  0  0  2  0  0  0  0  0  0
  159.9780  211.1510  153.8790 C   0  0  0  0  0  0  0  0  0  0  0  0
  160.3760  211.6780  152.8030 O   0  0  0  0  0  0  0  0  0  0  0  0
  160.7910  212.2030  156.6430 C   0  0  0  0  0  1  0  0  0  0  0  0
  157.7600  212.1610  154.3140 C   0  0  0  0  0  3  0  0  0  0  0  0
  159.0650  211.9120  154.7720 C   0  0  0  0  0  0  0  0  0  0  0  0
  159.4350  212.4000  156.0540 C   0  0  0  0  0  0  0  0  0  0  0  0
  158.5070  213.1100  156.8230 C   0  0  0  0  0  3  0  0  0  0  0  0
  157.2170  213.3430  156.3470 C   0  0  0  0  0  3  0  0  0  0  0  0
  156.8430  212.8690  155.0920 C   0  0  0  0  0  0  0  0  0  0  0  0
  155.5900  213.0930  154.6270 F   0  0  0  0  0  0  0  0  0  0  0  0
  162.0780  206.9820  150.2600 N   0  0  0  0  0  2  0  0  0  0  0  0
  161.1530  204.8800  146.6890 N   0  0  0  0  0  1  0  0  0  0  0  0
  160.5930  201.2250  149.7470 C   0  0  0  0  0  1  0  0  0  0  0  0
  161.4350  204.3680  147.9860 C   0  0  0  0  0  0  0  0  0  0  0  0
  161.9550  205.5720  150.0410 C   0  0  0  0  0  0  0  0  0  0  0  0
  161.1440  202.6330  152.0110 F   0  0  0  0  0  0  0  0  0  0  0  0
  160.9210  202.6790  149.6920 C   0  0  0  0  0  0  0  0  0  0  0  0
  161.1830  203.3280  150.8450 C   0  0  0  0  0  0  0  0  0  0  0  0
  161.3980  204.7840  150.9670 C   0  0  0  0  0  3  0  0  0  0  0  0
  160.7860  203.3260  148.4120 N   0  0  0  0  0  0  0  0  0  0  0  0
  162.5170  205.0000  148.7890 C   0  0  0  0  0  2  0  0  0  0  0  0
  1  8  1  0  0  0  0
  1  4  1  1  0  0  0
  2  8  1  0  0  0  0
  3 10  1  0  0  0  0
  4 10  1  0  0  0  0
  5  9  2  0  0  0  0
  5  6  1  0  0  0  0
  6  2  2  0  0  0  0
  7 26  1  1  0  0  0
  7  1  1  0  0  0  0
  8  3  1  1  0  0  0
  9  7  1  0  0  0  0
 10 15  1  1  0  0  0
 11 14  1  0  0  0  0
 12 14  1  0  0  0  0
 14  6  1  0  0  0  0
 14 13  1  0  0  0  0
 16 15  1  0  0  0  0
 16 20  1  0  0  0  0
 17 16  2  0  0  0  0
 19 20  2  0  0  0  0
 19 24  1  0  0  0  0
 20 21  1  0  0  0  0
 21 18  1  0  0  0  0
 21 22  2  0  0  0  0
 23 22  1  0  0  0  0
 24 23  2  0  0  0  0
 25 24  1  0  0  0  0
 27 29  1  0  0  0  0
 29 35  2  0  0  0  0
 29 36  1  0  0  0  0
 30 26  1  0  0  0  0
 30 34  2  0  0  0  0
 32 28  1  0  0  0  0
 32 33  2  0  0  0  0
 33 34  1  0  0  0  0
 33 31  1  0  0  0  0
 35 32  1  0  0  0  0
 36 30  1  0  0  0  0
M  END
>  <MODEL>
7

>  <REMARK>
 VINA RESULT:      -5.6      3.071      8.442
  Name = 
  5 active torsions:
  status: ('A' for Active; 'I' for Inactive)
    1  A    between atoms: N_5  and  C_31
    2  A    between atoms: C_7  and  C_15
    3  A    between atoms: C_12  and  C_28
    4  A    between atoms: C_13  and  N_33
    5  A    between atoms: C_21  and  N_33
                            x       y       z     vdW  Elec       q    Type
                         _______ _______ _______ _____ _____    ______ ____

>  <TORSDO>
F 5

$$$$
=
 OpenBabel11042420233D

 36 39  0  0  1  0  0  0  0  0999 V2000
  160.9540  207.2510  149.2960 N   0  0  2  0  0  0  0  0  0  0  0  0
  162.2490  205.9080  147.8240 N   0  0  0  0  0  0  0  0  0  0  0  0
  162.8420  208.2280  148.2190 C   0  0  0  0  0  2  0  0  0  0  0  0
  160.9540  208.6640  149.6610 C   0  0  0  0  0  2  0  0  0  0  0  0
  160.8670  204.3550  149.0830 N   0  0  0  0  0  0  0  0  0  0  0  0
  161.6710  204.7480  147.9470 C   0  0  0  0  0  0  0  0  0  0  0  0
  160.6940  206.4360  150.4820 C   0  0  1  0  0  3  0  0  0  0  0  0
  162.2940  206.9590  148.8210 C   0  0  1  0  0  3  0  0  0  0  0  0
  160.4340  205.0020  150.1290 C   0  0  0  0  0  3  0  0  0  0  0  0
  162.1090  209.3370  148.9410 C   0  0  2  0  0  3  0  0  0  0  0  0
  160.8400  204.1490  145.8320 F   0  0  0  0  0  0  0  0  0  0  0  0
  161.5000  202.5030  147.2220 F   0  0  0  0  0  0  0  0  0  0  0  0
  163.0320  203.8280  146.2470 F   0  0  0  0  0  0  0  0  0  0  0  0
  161.7640  203.7920  146.7970 C   0  0  0  0  0  0  0  0  0  0  0  0
  161.5870  210.2960  147.9800 N   0  0  0  0  0  2  0  0  0  0  0  0
  161.6460  211.7120  148.1840 C   0  0  0  0  0  0  0  0  0  0  0  0
  162.1580  212.1610  149.2470 O   0  0  0  0  0  0  0  0  0  0  0  0
  158.9000  213.0640  148.3840 C   0  0  0  0  0  1  0  0  0  0  0  0
  161.9340  212.9530  146.0610 C   0  0  0  0  0  3  0  0  0  0  0  0
  161.1190  212.6620  147.1690 C   0  0  0  0  0  0  0  0  0  0  0  0
  159.8480  213.2900  147.2550 C   0  0  0  0  0  0  0  0  0  0  0  0
  159.4380  214.1740  146.2510 C   0  0  0  0  0  3  0  0  0  0  0  0
  160.2640  214.4450  145.1600 C   0  0  0  0  0  3  0  0  0  0  0  0
  161.5120  213.8350  145.0650 C   0  0  0  0  0  0  0  0  0  0  0  0
  162.3170  214.0970  144.0070 F   0  0  0  0  0  0  0  0  0  0  0  0
  161.7690  206.5210  151.4750 N   0  0  0  0  0  2  0  0  0  0  0  0
  159.9740  206.2130  155.3090 N   0  0  0  0  0  1  0  0  0  0  0  0
  161.0180  210.8930  155.4660 C   0  0  0  0  0  1  0  0  0  0  0  0
  160.7540  207.2710  154.7640 C   0  0  0  0  0  0  0  0  0  0  0  0
  161.7770  207.4560  152.5590 C   0  0  0  0  0  0  0  0  0  0  0  0
  162.1130  211.0460  152.9780 F   0  0  0  0  0  0  0  0  0  0  0  0
  161.1000  209.6940  154.5840 C   0  0  0  0  0  0  0  0  0  0  0  0
  161.6510  209.8270  153.3590 C   0  0  0  0  0  0  0  0  0  0  0  0
  161.6890  208.7700  152.3280 C   0  0  0  0  0  3  0  0  0  0  0  0
  160.4440  208.5000  155.0490 N   0  0  0  0  0  0  0  0  0  0  0  0
  161.9470  206.9330  153.9410 C   0  0  0  0  0  2  0  0  0  0  0  0
  1  4  1  1  0  0  0
  1  7  1  0  0  0  0
  2  6  2  0  0  0  0
  2  8  1  0  0  0  0
  3 10  1  0  0  0  0
  5  9  2  0  0  0  0
  6  5  1  0  0  0  0
  7 26  1  1  0  0  0
  8  3  1  6  0  0  0
  8  1  1  0  0  0  0
  9  7  1  0  0  0  0
 10 15  1  6  0  0  0
 10  4  1  0  0  0  0
 11 14  1  0  0  0  0
 13 14  1  0  0  0  0
 14 12  1  0  0  0  0
 14  6  1  0  0  0  0
 15 16  1  0  0  0  0
 16 17  2  0  0  0  0
 19 20  1  0  0  0  0
 20 21  2  0  0  0  0
 20 16  1  0  0  0  0
 21 18  1  0  0  0  0
 22 21  1  0  0  0  0
 23 22  2  0  0  0  0
 24 23  1  0  0  0  0
 24 19  2  0  0  0  0
 25 24  1  0  0  0  0
 26 30  1  0  0  0  0
 29 35  2  0  0  0  0
 29 27  1  0  0  0  0
 30 36  1  0  0  0  0
 31 33  1  0  0  0  0
 32 35  1  0  0  0  0
 32 28  1  0  0  0  0
 33 32  2  0  0  0  0
 34 30  2  0  0  0  0
 34 33  1  0  0  0  0
 36 29  1  0  0  0  0
M  END
>  <MODEL>
8

>  <REMARK>
 VINA RESULT:      -5.1      2.818      9.018
  Name = 
  5 active torsions:
  status: ('A' for Active; 'I' for Inactive)
    1  A    between atoms: N_5  and  C_31
    2  A    between atoms: C_7  and  C_15
    3  A    between atoms: C_12  and  C_28
    4  A    between atoms: C_13  and  N_33
    5  A    between atoms: C_21  and  N_33
                            x       y       z     vdW  Elec       q    Type
                         _______ _______ _______ _____ _____    ______ ____

>  <TORSDO>
F 5

$$$$
