=
 OpenBabel11042420023D

 42 47  0  0  1  0  0  0  0  0999 V2000
  161.7890  211.8820  149.4780 C   0  0  0  0  0  0  0  0  0  0  0  0
  159.8480  212.4680  151.4850 C   0  0  0  0  0  0  0  0  0  0  0  0
  160.0560  213.4240  150.4440 C   0  0  0  0  0  0  0  0  0  0  0  0
  162.8280  211.5630  148.4450 C   0  0  0  0  0  1  0  0  0  0  0  0
  161.5420  211.0090  150.4980 C   0  0  0  0  0  0  0  0  0  0  0  0
  158.4570  214.1830  151.8280 N   0  0  0  0  0  0  0  0  0  0  0  0
  161.0330  213.1670  149.3860 C   0  0  0  0  0  0  0  0  0  0  0  0
  159.2290  214.4370  150.6450 C   0  0  0  0  0  3  0  0  0  0  0  0
  161.2270  214.2030  148.1590 S   0  0  0  0  0  0  0  0  0  0  0  0
  158.8080  213.0360  152.3260 C   0  0  0  0  0  2  0  0  0  0  0  0
  160.5190  211.3160  151.5550 C   0  0  0  0  0  0  0  0  0  0  0  0
  158.9700  213.0520  147.0750 N   0  0  0  0  0  0  0  0  0  0  0  0
  160.5990  213.3830  145.5570 C   0  0  0  0  0  3  0  0  0  0  0  0
  159.4740  212.8180  144.9910 C   0  0  0  0  0  0  0  0  0  0  0  0
  158.5090  212.6280  145.9120 N   0  0  0  0  0  0  0  0  0  0  0  0
  160.2210  213.5040  146.8790 C   0  0  1  0  0  3  0  0  0  0  0  0
  159.3440  212.1640  140.8690 N   0  0  0  0  0  2  0  0  0  0  0  0
  159.2700  213.5720  141.2510 C   0  0  0  0  0  2  0  0  0  0  0  0
  160.5260  211.5620  141.4950 C   0  0  0  0  0  2  0  0  0  0  0  0
  160.6180  211.8500  143.0050 C   0  0  0  0  0  2  0  0  0  0  0  0
  158.9180  213.7100  142.7360 C   0  0  0  0  0  2  0  0  0  0  0  0
  159.3320  212.4760  143.5460 C   0  0  0  0  0  3  0  0  0  0  0  0
  160.2370  210.3530  152.6660 C   0  0  0  0  0  2  0  0  0  0  0  0
  160.9890  210.7410  153.9320 C   0  0  0  0  0  2  0  0  0  0  0  0
  160.0570  210.9520  155.0380 N   0  0  0  0  0  2  0  0  0  0  0  0
  161.7670  209.8610  156.3490 N   0  0  0  0  0  2  0  0  0  0  0  0
  160.8350  207.6780  156.0460 C   0  0  0  0  0  2  0  0  0  0  0  0
  159.7020  208.6610  155.9160 C   0  0  0  0  0  2  0  0  0  0  0  0
  161.9570  208.4590  156.6890 C   0  0  0  0  0  2  0  0  0  0  0  0
  160.3320  210.0260  156.1420 C   0  0  2  0  0  3  0  0  0  0  0  0
  162.3220  209.7330  150.6090 C   0  0  0  0  0  2  0  0  0  0  0  0
  161.8480  208.7790  149.6190 N   0  0  0  0  0  2  0  0  0  0  0  0
  161.7060  207.2340  150.3920 S   0  0  0  0  0  0  0  0  0  0  0  0
  162.8960  207.0110  151.2820 O   0  0  0  0  0  0  0  0  0  0  0  0
  160.4560  207.2230  151.2250 O   0  0  0  0  0  0  0  0  0  0  0  0
  161.2100  203.6410  148.5500 C   0  0  0  0  0  3  0  0  0  0  0  0
  161.0520  204.2670  150.8960 N   0  0  0  0  0  1  0  0  0  0  0  0
  161.6050  205.9540  149.1830 C   0  0  0  0  0  0  0  0  0  0  0  0
  161.2940  204.6270  149.5390 C   0  0  0  0  0  0  0  0  0  0  0  0
  161.8090  206.2730  147.8350 C   0  0  0  0  0  3  0  0  0  0  0  0
  161.4270  203.9680  147.2090 C   0  0  0  0  0  3  0  0  0  0  0  0
  161.7250  205.2840  146.8510 C   0  0  0  0  0  3  0  0  0  0  0  0
  1  5  1  0  0  0  0
  2 11  1  0  0  0  0
  2 10  1  0  0  0  0
  3  8  1  0  0  0  0
  3  2  2  0  0  0  0
  4  1  1  0  0  0  0
  5 31  1  0  0  0  0
  5 11  2  0  0  0  0
  6 10  1  0  0  0  0
  7  1  2  0  0  0  0
  7  3  1  0  0  0  0
  8  6  2  0  0  0  0
  9  7  1  0  0  0  0
 11 23  1  0  0  0  0
 13 16  1  0  0  0  0
 14 13  2  0  0  0  0
 14 15  1  0  0  0  0
 15 12  2  0  0  0  0
 16 12  1  0  0  0  0
 16  9  1  6  0  0  0
 17 18  1  0  0  0  0
 17 19  1  0  0  0  0
 18 21  1  0  0  0  0
 19 20  1  0  0  0  0
 20 22  1  0  0  0  0
 21 22  1  0  0  0  0
 22 14  1  0  0  0  0
 23 24  1  0  0  0  0
 24 25  1  0  0  0  0
 26 29  1  0  0  0  0
 27 29  1  0  0  0  0
 28 27  1  0  0  0  0
 28 30  1  0  0  0  0
 30 25  1  6  0  0  0
 30 26  1  0  0  0  0
 32 33  1  0  0  0  0
 32 31  1  0  0  0  0
 33 35  2  0  0  0  0
 33 34  2  0  0  0  0
 36 39  1  0  0  0  0
 38 39  2  0  0  0  0
 38 33  1  0  0  0  0
 39 37  1  0  0  0  0
 40 38  1  0  0  0  0
 41 36  2  0  0  0  0
 42 41  1  0  0  0  0
 42 40  2  0  0  0  0
M  END
>  <MODEL>
1

>  <REMARK>
 VINA RESULT:      -7.2      0.000      0.000
  Name = 
  10 active torsions:
  status: ('A' for Active; 'I' for Inactive)
    1  A    between atoms: C_1  and  C_10
    2  A    between atoms: C_1  and  N_16
    3  A    between atoms: S_8  and  C_11
    4  A    between atoms: S_8  and  N_30
    5  A    between atoms: C_10  and  C_37
    6  A    between atoms: N_16  and  C_33
    7  A    between atoms: C_19  and  C_36
    8  A    between atoms: C_22  and  C_23
    9  A    between atoms: C_22  and  N_30
   10  A    between atoms: S_34  and  C_38
                            x       y       z     vdW  Elec       q    Type
                         _______ _______ _______ _____ _____    ______ ____

>  <TORSDO>
F 10

$$$$
=
 OpenBabel11042420023D

 42 47  0  0  1  0  0  0  0  0999 V2000
  162.1770  209.2360  151.0170 C   0  0  0  0  0  0  0  0  0  0  0  0
  161.0970  206.6830  150.3430 C   0  0  0  0  0  0  0  0  0  0  0  0
  161.3070  206.9870  151.7220 C   0  0  0  0  0  0  0  0  0  0  0  0
  162.7630  210.5760  151.3490 C   0  0  0  0  0  1  0  0  0  0  0  0
  161.9500  208.8860  149.7180 C   0  0  0  0  0  0  0  0  0  0  0  0
  160.4320  204.9240  151.5500 N   0  0  0  0  0  0  0  0  0  0  0  0
  161.8500  208.2860  152.1220 C   0  0  2  0  0  3  0  0  0  0  0  0
  160.9090  205.9470  152.4370 C   0  0  0  0  0  3  0  0  0  0  0  0
  162.0230  208.6730  153.6830 S   0  0  0  0  0  0  0  0  0  0  0  0
  160.5350  205.3430  150.3250 C   0  0  0  0  0  3  0  0  0  0  0  0
  161.3810  207.5430  149.3610 C   0  0  0  0  0  0  0  0  0  0  0  0
  159.9190  209.5800  155.2150 N   0  0  0  0  0  0  0  0  0  0  0  0
  159.9390  210.4650  153.1460 C   0  0  0  0  0  3  0  0  0  0  0  0
  158.8860  210.9410  153.9000 C   0  0  0  0  0  0  0  0  0  0  0  0
  158.8900  210.4030  155.1350 N   0  0  0  0  0  2  0  0  0  0  0  0
  160.5550  209.6030  154.0310 C   0  0  0  0  0  0  0  0  0  0  0  0
  156.3110  214.0150  152.7360 N   0  0  0  0  0  2  0  0  0  0  0  0
  156.7690  214.1140  154.1190 C   0  0  0  0  0  2  0  0  0  0  0  0
  157.4780  213.8980  151.8550 C   0  0  0  0  0  2  0  0  0  0  0  0
  158.4670  212.8090  152.3110 C   0  0  0  0  0  2  0  0  0  0  0  0
  157.3590  212.7800  154.5900 C   0  0  0  0  0  2  0  0  0  0  0  0
  157.8820  211.9360  153.4220 C   0  0  0  0  0  3  0  0  0  0  0  0
  161.1180  207.1630  147.9360 C   0  0  0  0  0  2  0  0  0  0  0  0
  162.3040  206.4160  147.3410 C   0  0  0  0  0  2  0  0  0  0  0  0
  161.9570  205.8600  146.0350 N   0  0  0  0  0  2  0  0  0  0  0  0
  161.2830  203.7500  145.0730 N   0  0  0  0  0  2  0  0  0  0  0  0
  161.0500  202.6710  147.1960 C   0  0  0  0  0  2  0  0  0  0  0  0
  162.0580  203.7750  147.3730 C   0  0  0  0  0  2  0  0  0  0  0  0
  160.9330  202.4850  145.7020 C   0  0  0  0  0  2  0  0  0  0  0  0
  162.1940  204.4130  145.9990 C   0  0  2  0  0  3  0  0  0  0  0  0
  162.3060  209.8280  148.6060 C   0  0  0  0  0  2  0  0  0  0  0  0
  161.1650  210.6720  148.2920 N   0  0  0  0  0  2  0  0  0  0  0  0
  161.7460  212.2890  148.0590 S   0  0  0  0  0  0  0  0  0  0  0  0
  161.2020  213.1740  149.1450 O   0  0  0  0  0  0  0  0  0  0  0  0
  163.2470  212.2800  148.1320 O   0  0  0  0  0  0  0  0  0  0  0  0
  159.5370  213.5580  144.8870 C   0  0  0  0  0  3  0  0  0  0  0  0
  158.8620  212.7450  147.0790 N   0  0  0  0  0  1  0  0  0  0  0  0
  161.2500  212.8940  146.4780 C   0  0  0  0  0  0  0  0  0  0  0  0
  159.8910  213.0620  146.1470 C   0  0  0  0  0  0  0  0  0  0  0  0
  162.2320  213.2430  145.5440 C   0  0  0  0  0  3  0  0  0  0  0  0
  160.5250  213.8920  143.9580 C   0  0  0  0  0  3  0  0  0  0  0  0
  161.8730  213.7370  144.2870 C   0  0  0  0  0  3  0  0  0  0  0  0
  1  4  1  0  0  0  0
  1  7  1  0  0  0  0
  2  3  1  0  0  0  0
  3  7  1  0  0  0  0
  3  8  2  0  0  0  0
  5  1  2  0  0  0  0
  6  8  1  0  0  0  0
  7  9  1  1  0  0  0
  9 16  1  0  0  0  0
 10  2  1  0  0  0  0
 10  6  2  0  0  0  0
 11  5  1  0  0  0  0
 11  2  2  0  0  0  0
 13 14  2  0  0  0  0
 13 16  1  0  0  0  0
 14 15  1  0  0  0  0
 15 12  1  0  0  0  0
 16 12  2  0  0  0  0
 17 18  1  0  0  0  0
 18 21  1  0  0  0  0
 19 20  1  0  0  0  0
 19 17  1  0  0  0  0
 20 22  1  0  0  0  0
 22 14  1  0  0  0  0
 22 21  1  0  0  0  0
 23 11  1  0  0  0  0
 24 23  1  0  0  0  0
 25 24  1  0  0  0  0
 26 29  1  0  0  0  0
 26 30  1  0  0  0  0
 27 28  1  0  0  0  0
 29 27  1  0  0  0  0
 30 25  1  1  0  0  0
 30 28  1  0  0  0  0
 31  5  1  0  0  0  0
 32 31  1  0  0  0  0
 33 35  2  0  0  0  0
 33 32  1  0  0  0  0
 33 34  2  0  0  0  0
 36 39  1  0  0  0  0
 38 33  1  0  0  0  0
 39 38  2  0  0  0  0
 39 37  1  0  0  0  0
 40 38  1  0  0  0  0
 41 42  1  0  0  0  0
 41 36  2  0  0  0  0
 42 40  2  0  0  0  0
M  END
>  <MODEL>
2

>  <REMARK>
 VINA RESULT:      -7.0      2.516      8.746
  Name = 
  10 active torsions:
  status: ('A' for Active; 'I' for Inactive)
    1  A    between atoms: C_1  and  C_10
    2  A    between atoms: C_1  and  N_16
    3  A    between atoms: S_8  and  C_11
    4  A    between atoms: S_8  and  N_30
    5  A    between atoms: C_10  and  C_37
    6  A    between atoms: N_16  and  C_33
    7  A    between atoms: C_19  and  C_36
    8  A    between atoms: C_22  and  C_23
    9  A    between atoms: C_22  and  N_30
   10  A    between atoms: S_34  and  C_38
                            x       y       z     vdW  Elec       q    Type
                         _______ _______ _______ _____ _____    ______ ____

>  <TORSDO>
F 10

$$$$
=
 OpenBabel11042420023D

 42 47  0  0  1  0  0  0  0  0999 V2000
  160.8350  210.4140  152.0010 C   0  0  0  0  0  0  0  0  0  0  0  0
  160.7130  212.5040  150.0630 C   0  0  0  0  0  0  0  0  0  0  0  0
  161.7170  211.4990  149.9140 C   0  0  1  0  0  3  0  0  0  0  0  0
  160.8940  209.3350  153.0410 C   0  0  0  0  0  1  0  0  0  0  0  0
  159.8980  211.4020  152.0860 C   0  0  0  0  0  0  0  0  0  0  0  0
  161.8870  212.9650  148.2190 N   0  0  0  0  0  0  0  0  0  0  0  0
  161.8160  210.4000  150.8750 C   0  0  0  0  0  0  0  0  0  0  0  0
  162.4090  211.7700  148.8190 C   0  0  0  0  0  3  0  0  0  0  0  0
  162.8980  209.2140  150.6780 S   0  0  0  0  0  0  0  0  0  0  0  0
  160.8960  213.4020  148.9360 C   0  0  0  0  0  3  0  0  0  0  0  0
  159.8320  212.5030  151.0670 C   0  0  0  0  0  0  0  0  0  0  0  0
  161.2740  208.1120  148.7430 N   0  0  0  0  0  0  0  0  0  0  0  0
  161.8510  206.6390  150.3440 C   0  0  0  0  0  3  0  0  0  0  0  0
  161.0490  206.0630  149.3790 C   0  0  0  0  0  0  0  0  0  0  0  0
  160.7140  206.9570  148.4290 N   0  0  0  0  0  0  0  0  0  0  0  0
  161.9550  207.9380  149.8890 C   0  0  1  0  0  3  0  0  0  0  0  0
  160.2470  201.9660  149.3240 N   0  0  0  0  0  2  0  0  0  0  0  0
  161.1990  202.4000  148.3050 C   0  0  0  0  0  2  0  0  0  0  0  0
  160.7110  202.4290  150.6370 C   0  0  0  0  0  2  0  0  0  0  0  0
  161.0710  203.9270  150.6530 C   0  0  0  0  0  2  0  0  0  0  0  0
  161.1350  203.9200  148.1190 C   0  0  0  0  0  2  0  0  0  0  0  0
  160.6200  204.6350  149.3740 C   0  0  0  0  0  3  0  0  0  0  0  0
  158.7950  213.5800  151.1520 C   0  0  0  0  0  2  0  0  0  0  0  0
  157.6870  213.3560  150.1320 C   0  0  0  0  0  2  0  0  0  0  0  0
  157.7600  214.3550  149.0680 N   0  0  0  0  0  2  0  0  0  0  0  0
  157.1000  212.4220  147.7780 N   0  0  0  0  0  2  0  0  0  0  0  0
  158.0630  213.2450  145.7480 C   0  0  0  0  0  2  0  0  0  0  0  0
  157.7210  214.4460  146.5900 C   0  0  0  0  0  2  0  0  0  0  0  0
  157.3010  212.1000  146.3730 C   0  0  0  0  0  2  0  0  0  0  0  0
  157.0900  213.8790  147.8530 C   0  0  2  0  0  3  0  0  0  0  0  0
  158.9320  211.4340  153.2340 C   0  0  0  0  0  2  0  0  0  0  0  0
  159.5140  212.1660  154.3460 N   0  0  0  0  0  2  0  0  0  0  0  0
  158.9380  211.4490  155.8160 S   0  0  0  0  0  0  0  0  0  0  0  0
  159.0040  212.4630  156.9230 O   0  0  0  0  0  0  0  0  0  0  0  0
  157.5120  211.0210  155.6210 O   0  0  0  0  0  0  0  0  0  0  0  0
  161.9710  209.0230  157.0270 C   0  0  0  0  0  3  0  0  0  0  0  0
  161.8390  211.4460  156.8520 N   0  0  0  0  0  1  0  0  0  0  0  0
  159.9120  210.0370  156.2290 C   0  0  0  0  0  0  0  0  0  0  0  0
  161.2340  210.1660  156.6970 C   0  0  0  0  0  0  0  0  0  0  0  0
  159.3450  208.7630  156.1160 C   0  0  0  0  0  3  0  0  0  0  0  0
  161.3990  207.7550  156.8990 C   0  0  0  0  0  3  0  0  0  0  0  0
  160.0850  207.6240  156.4460 C   0  0  0  0  0  3  0  0  0  0  0  0
  1  5  1  0  0  0  0
  1  4  1  0  0  0  0
  2 11  1  0  0  0  0
  3  8  1  6  0  0  0
  3  2  1  0  0  0  0
  3  7  1  0  0  0  0
  5 31  1  0  0  0  0
  6  8  2  0  0  0  0
  6 10  1  0  0  0  0
  7  1  2  0  0  0  0
  9  7  1  0  0  0  0
 10  2  2  0  0  0  0
 11 23  1  0  0  0  0
 11  5  2  0  0  0  0
 12 16  1  0  0  0  0
 14 13  2  0  0  0  0
 15 12  2  0  0  0  0
 15 14  1  0  0  0  0
 16 13  1  0  0  0  0
 16  9  1  6  0  0  0
 17 19  1  0  0  0  0
 18 17  1  0  0  0  0
 19 20  1  0  0  0  0
 21 18  1  0  0  0  0
 21 22  1  0  0  0  0
 22 14  1  0  0  0  0
 22 20  1  0  0  0  0
 24 23  1  0  0  0  0
 25 24  1  0  0  0  0
 26 30  1  0  0  0  0
 27 29  1  0  0  0  0
 27 28  1  0  0  0  0
 28 30  1  0  0  0  0
 29 26  1  0  0  0  0
 30 25  1  1  0  0  0
 31 32  1  0  0  0  0
 32 33  1  0  0  0  0
 33 38  1  0  0  0  0
 33 34  2  0  0  0  0
 35 33  2  0  0  0  0
 38 39  1  0  0  0  0
 39 37  1  0  0  0  0
 39 36  2  0  0  0  0
 40 38  2  0  0  0  0
 40 42  1  0  0  0  0
 41 36  1  0  0  0  0
 42 41  2  0  0  0  0
M  END
>  <MODEL>
3

>  <REMARK>
 VINA RESULT:      -6.4      2.881      8.251
  Name = 
  10 active torsions:
  status: ('A' for Active; 'I' for Inactive)
    1  A    between atoms: C_1  and  C_10
    2  A    between atoms: C_1  and  N_16
    3  A    between atoms: S_8  and  C_11
    4  A    between atoms: S_8  and  N_30
    5  A    between atoms: C_10  and  C_37
    6  A    between atoms: N_16  and  C_33
    7  A    between atoms: C_19  and  C_36
    8  A    between atoms: C_22  and  C_23
    9  A    between atoms: C_22  and  N_30
   10  A    between atoms: S_34  and  C_38
                            x       y       z     vdW  Elec       q    Type
                         _______ _______ _______ _____ _____    ______ ____

>  <TORSDO>
F 10

$$$$
=
 OpenBabel11042420023D

 42 47  0  0  1  0  0  0  0  0999 V2000
  160.9560  210.3310  151.8700 C   0  0  0  0  0  0  0  0  0  0  0  0
  160.9070  212.4420  149.9520 C   0  0  0  0  0  0  0  0  0  0  0  0
  161.8520  211.3860  149.7730 C   0  0  1  0  0  3  0  0  0  0  0  0
  160.9780  209.2410  152.9000 C   0  0  0  0  0  1  0  0  0  0  0  0
  160.0760  211.3680  151.9830 C   0  0  0  0  0  0  0  0  0  0  0  0
  162.0660  212.8550  148.0860 N   0  0  0  0  0  0  0  0  0  0  0  0
  161.9120  210.2750  150.7230 C   0  0  0  0  0  0  0  0  0  0  0  0
  162.5350  211.6280  148.6660 C   0  0  0  0  0  3  0  0  0  0  0  0
  162.9230  209.0330  150.4930 S   0  0  0  0  0  0  0  0  0  0  0  0
  161.1150  213.3390  148.8270 C   0  0  0  0  0  3  0  0  0  0  0  0
  160.0480  212.4800  150.9740 C   0  0  0  0  0  0  0  0  0  0  0  0
  160.7660  207.3340  150.2590 N   0  0  0  0  0  0  0  0  0  0  0  0
  162.1280  207.2700  148.4680 C   0  0  0  0  0  3  0  0  0  0  0  0
  161.0490  206.4220  148.3250 C   0  0  0  0  0  0  0  0  0  0  0  0
  160.2440  206.4730  149.4040 N   0  0  0  0  0  0  0  0  0  0  0  0
  161.8960  207.8170  149.7150 C   0  0  1  0  0  3  0  0  0  0  0  0
  160.6680  204.2050  144.8080 N   0  0  0  0  0  2  0  0  0  0  0  0
  160.9880  205.6140  144.5920 C   0  0  0  0  0  2  0  0  0  0  0  0
  161.6540  203.6290  145.7290 C   0  0  0  0  0  2  0  0  0  0  0  0
  161.8490  204.4730  147.0030 C   0  0  0  0  0  2  0  0  0  0  0  0
  160.7150  206.4300  145.8600 C   0  0  0  0  0  2  0  0  0  0  0  0
  160.7920  205.5710  147.1280 C   0  0  0  0  0  3  0  0  0  0  0  0
  159.0730  213.6100  151.0890 C   0  0  0  0  0  2  0  0  0  0  0  0
  157.7940  213.3120  150.3200 C   0  0  0  0  0  2  0  0  0  0  0  0
  157.6900  214.1740  149.1440 N   0  0  0  0  0  2  0  0  0  0  0  0
  157.9260  212.5860  147.3400 N   0  0  0  0  0  2  0  0  0  0  0  0
  156.9720  214.0520  145.7070 C   0  0  0  0  0  2  0  0  0  0  0  0
  156.4040  214.4530  147.0430 C   0  0  0  0  0  2  0  0  0  0  0  0
  157.5700  212.6830  145.9320 C   0  0  0  0  0  2  0  0  0  0  0  0
  157.0140  213.4820  148.0420 C   0  0  2  0  0  3  0  0  0  0  0  0
  159.1370  211.4410  153.1510 C   0  0  0  0  0  2  0  0  0  0  0  0
  159.7820  212.1290  154.2570 N   0  0  0  0  0  2  0  0  0  0  0  0
  159.1640  211.4620  155.7330 S   0  0  0  0  0  0  0  0  0  0  0  0
  159.2830  212.4840  156.8290 O   0  0  0  0  0  0  0  0  0  0  0  0
  157.7170  211.1110  155.5380 O   0  0  0  0  0  0  0  0  0  0  0  0
  162.0780  208.8810  156.9170 C   0  0  0  0  0  3  0  0  0  0  0  0
  162.1030  211.2980  156.6400 N   0  0  0  0  0  1  0  0  0  0  0  0
  160.0580  210.0030  156.1650 C   0  0  0  0  0  0  0  0  0  0  0  0
  161.4060  210.0580  156.5690 C   0  0  0  0  0  0  0  0  0  0  0  0
  159.4000  208.7680  156.1340 C   0  0  0  0  0  3  0  0  0  0  0  0
  161.4150  207.6520  156.8710 C   0  0  0  0  0  3  0  0  0  0  0  0
  160.0750  207.5950  156.4820 C   0  0  0  0  0  3  0  0  0  0  0  0
  1  5  1  0  0  0  0
  1  4  1  0  0  0  0
  2 11  1  0  0  0  0
  3  8  1  6  0  0  0
  3  2  1  0  0  0  0
  3  7  1  0  0  0  0
  5 31  1  0  0  0  0
  6  8  2  0  0  0  0
  6 10  1  0  0  0  0
  7  1  2  0  0  0  0
  9  7  1  0  0  0  0
 10  2  2  0  0  0  0
 11 23  1  0  0  0  0
 11  5  2  0  0  0  0
 13 16  1  0  0  0  0
 14 13  2  0  0  0  0
 14 15  1  0  0  0  0
 15 12  2  0  0  0  0
 16 12  1  0  0  0  0
 16  9  1  6  0  0  0
 17 19  1  0  0  0  0
 18 17  1  0  0  0  0
 18 21  1  0  0  0  0
 19 20  1  0  0  0  0
 20 22  1  0  0  0  0
 21 22  1  0  0  0  0
 22 14  1  0  0  0  0
 24 23  1  0  0  0  0
 25 24  1  0  0  0  0
 26 30  1  0  0  0  0
 27 29  1  0  0  0  0
 27 28  1  0  0  0  0
 28 30  1  0  0  0  0
 29 26  1  0  0  0  0
 30 25  1  1  0  0  0
 31 32  1  0  0  0  0
 32 33  1  0  0  0  0
 33 38  1  0  0  0  0
 33 34  2  0  0  0  0
 35 33  2  0  0  0  0
 38 39  1  0  0  0  0
 39 37  1  0  0  0  0
 39 36  2  0  0  0  0
 40 38  2  0  0  0  0
 40 42  1  0  0  0  0
 41 36  1  0  0  0  0
 42 41  2  0  0  0  0
M  END
>  <MODEL>
4

>  <REMARK>
 VINA RESULT:      -6.3      2.896      7.595
  Name = 
  10 active torsions:
  status: ('A' for Active; 'I' for Inactive)
    1  A    between atoms: C_1  and  C_10
    2  A    between atoms: C_1  and  N_16
    3  A    between atoms: S_8  and  C_11
    4  A    between atoms: S_8  and  N_30
    5  A    between atoms: C_10  and  C_37
    6  A    between atoms: N_16  and  C_33
    7  A    between atoms: C_19  and  C_36
    8  A    between atoms: C_22  and  C_23
    9  A    between atoms: C_22  and  N_30
   10  A    between atoms: S_34  and  C_38
                            x       y       z     vdW  Elec       q    Type
                         _______ _______ _______ _____ _____    ______ ____

>  <TORSDO>
F 10

$$$$
=
 OpenBabel11042420023D

 42 47  0  0  1  0  0  0  0  0999 V2000
  162.1550  209.3750  150.9400 C   0  0  0  0  0  0  0  0  0  0  0  0
  161.1350  206.7720  150.3730 C   0  0  0  0  0  0  0  0  0  0  0  0
  161.3110  207.1470  151.7390 C   0  0  0  0  0  0  0  0  0  0  0  0
  162.7110  210.7410  151.2160 C   0  0  0  0  0  1  0  0  0  0  0  0
  161.9620  208.9570  149.6550 C   0  0  0  0  0  0  0  0  0  0  0  0
  160.4760  205.0630  151.6530 N   0  0  0  0  0  0  0  0  0  0  0  0
  161.8220  208.4740  152.0840 C   0  0  2  0  0  3  0  0  0  0  0  0
  160.9170  206.1370  152.4970 C   0  0  0  0  0  3  0  0  0  0  0  0
  161.9560  208.9420  153.6270 S   0  0  0  0  0  0  0  0  0  0  0  0
  160.5980  205.4220  150.4100 C   0  0  0  0  0  3  0  0  0  0  0  0
  161.4240  207.5870  149.3540 C   0  0  0  0  0  0  0  0  0  0  0  0
  159.7220  210.3890  152.9120 N   0  0  0  0  0  0  0  0  0  0  0  0
  159.9000  210.0980  155.1360 C   0  0  0  0  0  3  0  0  0  0  0  0
  158.7690  210.8130  154.7990 C   0  0  0  0  0  0  0  0  0  0  0  0
  158.6770  210.9770  153.4650 N   0  0  0  0  0  0  0  0  0  0  0  0
  160.4650  209.8610  153.8990 C   0  0  1  0  0  3  0  0  0  0  0  0
  155.8680  212.5340  157.2590 N   0  0  0  0  0  2  0  0  0  0  0  0
  156.7490  213.5020  156.6120 C   0  0  0  0  0  2  0  0  0  0  0  0
  155.2860  211.6600  156.2350 C   0  0  0  0  0  2  0  0  0  0  0  0
  156.3420  211.0690  155.2810 C   0  0  0  0  0  2  0  0  0  0  0  0
  158.0050  212.8100  156.0700 C   0  0  0  0  0  2  0  0  0  0  0  0
  157.7660  211.3250  155.7770 C   0  0  0  0  0  3  0  0  0  0  0  0
  161.1980  207.1320  147.9460 C   0  0  0  0  0  2  0  0  0  0  0  0
  162.0880  205.9450  147.6040 C   0  0  0  0  0  2  0  0  0  0  0  0
  162.1860  205.7780  146.1560 N   0  0  0  0  0  2  0  0  0  0  0  0
  161.1990  203.9770  144.8850 N   0  0  0  0  0  2  0  0  0  0  0  0
  161.1130  202.4870  146.7560 C   0  0  0  0  0  2  0  0  0  0  0  0
  162.2390  203.4530  147.0150 C   0  0  0  0  0  2  0  0  0  0  0  0
  160.8030  202.6340  145.2850 C   0  0  0  0  0  2  0  0  0  0  0  0
  162.2740  204.3590  145.7940 C   0  0  2  0  0  3  0  0  0  0  0  0
  162.3250  209.8490  148.5050 C   0  0  0  0  0  2  0  0  0  0  0  0
  161.2600  210.8110  148.2750 N   0  0  0  0  0  2  0  0  0  0  0  0
  161.9920  212.3560  147.9820 S   0  0  0  0  0  0  0  0  0  0  0  0
  161.5530  213.3230  149.0460 O   0  0  0  0  0  0  0  0  0  0  0  0
  163.4850  212.2030  148.0370 O   0  0  0  0  0  0  0  0  0  0  0  0
  159.8550  213.5980  144.7500 C   0  0  0  0  0  3  0  0  0  0  0  0
  159.1300  212.7670  146.9200 N   0  0  0  0  0  1  0  0  0  0  0  0
  161.5320  212.9580  146.3890 C   0  0  0  0  0  0  0  0  0  0  0  0
  160.1810  213.1040  146.0190 C   0  0  0  0  0  0  0  0  0  0  0  0
  162.5350  213.3260  145.4850 C   0  0  0  0  0  3  0  0  0  0  0  0
  160.8640  213.9510  143.8520 C   0  0  0  0  0  3  0  0  0  0  0  0
  162.2050  213.8170  144.2190 C   0  0  0  0  0  3  0  0  0  0  0  0
  1  4  1  0  0  0  0
  1  7  1  0  0  0  0
  2 10  1  0  0  0  0
  2  3  1  0  0  0  0
  3  7  1  0  0  0  0
  3  8  2  0  0  0  0
  5  1  2  0  0  0  0
  6  8  1  0  0  0  0
  7  9  1  1  0  0  0
 10  6  2  0  0  0  0
 11  5  1  0  0  0  0
 11  2  2  0  0  0  0
 12 15  2  0  0  0  0
 12 16  1  0  0  0  0
 14 13  2  0  0  0  0
 14 22  1  0  0  0  0
 15 14  1  0  0  0  0
 16  9  1  6  0  0  0
 16 13  1  0  0  0  0
 18 17  1  0  0  0  0
 19 17  1  0  0  0  0
 20 22  1  0  0  0  0
 20 19  1  0  0  0  0
 21 18  1  0  0  0  0
 22 21  1  0  0  0  0
 23 11  1  0  0  0  0
 24 23  1  0  0  0  0
 25 24  1  0  0  0  0
 26 29  1  0  0  0  0
 26 30  1  0  0  0  0
 27 28  1  0  0  0  0
 29 27  1  0  0  0  0
 30 25  1  1  0  0  0
 30 28  1  0  0  0  0
 31  5  1  0  0  0  0
 32 31  1  0  0  0  0
 33 35  2  0  0  0  0
 33 32  1  0  0  0  0
 33 34  2  0  0  0  0
 36 39  1  0  0  0  0
 38 33  1  0  0  0  0
 39 38  2  0  0  0  0
 39 37  1  0  0  0  0
 40 38  1  0  0  0  0
 41 42  1  0  0  0  0
 41 36  2  0  0  0  0
 42 40  2  0  0  0  0
M  END
>  <MODEL>
5

>  <REMARK>
 VINA RESULT:      -6.2      2.926      9.401
  Name = 
  10 active torsions:
  status: ('A' for Active; 'I' for Inactive)
    1  A    between atoms: C_1  and  C_10
    2  A    between atoms: C_1  and  N_16
    3  A    between atoms: S_8  and  C_11
    4  A    between atoms: S_8  and  N_30
    5  A    between atoms: C_10  and  C_37
    6  A    between atoms: N_16  and  C_33
    7  A    between atoms: C_19  and  C_36
    8  A    between atoms: C_22  and  C_23
    9  A    between atoms: C_22  and  N_30
   10  A    between atoms: S_34  and  C_38
                            x       y       z     vdW  Elec       q    Type
                         _______ _______ _______ _____ _____    ______ ____

>  <TORSDO>
F 10

$$$$
=
 OpenBabel11042420023D

 42 47  0  0  1  0  0  0  0  0999 V2000
  161.3740  208.7100  151.8420 C   0  0  0  0  0  0  0  0  0  0  0  0
  160.7600  206.8630  153.9270 C   0  0  0  0  0  0  0  0  0  0  0  0
  161.2120  208.1680  154.2900 C   0  0  0  0  0  0  0  0  0  0  0  0
  161.7100  209.6600  150.7300 C   0  0  0  0  0  1  0  0  0  0  0  0
  160.9360  207.4490  151.5610 C   0  0  0  0  0  0  0  0  0  0  0  0
  160.7990  206.9890  156.1580 N   0  0  0  0  0  0  0  0  0  0  0  0
  161.5310  209.1570  153.2590 C   0  0  2  0  0  3  0  0  0  0  0  0
  161.2300  208.2450  155.6110 C   0  0  0  0  0  3  0  0  0  0  0  0
  161.9700  210.6620  153.6530 S   0  0  0  0  0  0  0  0  0  0  0  0
  160.5210  206.1750  155.1850 C   0  0  0  0  0  3  0  0  0  0  0  0
  160.6110  206.4750  152.6580 C   0  0  0  0  0  0  0  0  0  0  0  0
  159.8730  211.8860  152.3510 N   0  0  0  0  0  0  0  0  0  0  0  0
  159.7060  212.0150  154.5920 C   0  0  0  0  0  3  0  0  0  0  0  0
  158.6400  212.6230  153.9610 C   0  0  0  0  0  0  0  0  0  0  0  0
  158.7540  212.5360  152.6210 N   0  0  0  0  0  0  0  0  0  0  0  0
  160.4550  211.5710  153.5210 C   0  0  1  0  0  3  0  0  0  0  0  0
  155.1950  214.2140  155.7020 N   0  0  0  0  0  2  0  0  0  0  0  0
  155.1200  214.0810  154.2500 C   0  0  0  0  0  2  0  0  0  0  0  0
  155.5680  212.9180  156.2810 C   0  0  0  0  0  2  0  0  0  0  0  0
  156.8010  212.2910  155.6020 C   0  0  0  0  0  2  0  0  0  0  0  0
  156.5190  213.8860  153.6530 C   0  0  0  0  0  2  0  0  0  0  0  0
  157.4980  213.2760  154.6630 C   0  0  0  0  0  3  0  0  0  0  0  0
  160.1170  205.0950  152.3510 C   0  0  0  0  0  2  0  0  0  0  0  0
  161.2090  204.0590  152.5790 C   0  0  0  0  0  2  0  0  0  0  0  0
  161.8050  203.6540  151.3070 N   0  0  0  0  0  2  0  0  0  0  0  0
  161.1040  201.4860  150.5060 N   0  0  0  0  0  2  0  0  0  0  0  0
  161.0630  202.1650  148.2120 C   0  0  0  0  0  2  0  0  0  0  0  0
  160.8310  203.4020  149.0410 C   0  0  0  0  0  2  0  0  0  0  0  0
  160.8270  201.0120  149.1590 C   0  0  0  0  0  2  0  0  0  0  0  0
  160.8380  202.9200  150.4830 C   0  0  2  0  0  3  0  0  0  0  0  0
  160.8080  206.9890  150.1390 C   0  0  0  0  0  2  0  0  0  0  0  0
  162.1100  206.5870  149.6330 N   0  0  0  0  0  2  0  0  0  0  0  0
  162.3310  207.3280  148.0810 S   0  0  0  0  0  0  0  0  0  0  0  0
  161.5620  208.6190  148.0320 O   0  0  0  0  0  0  0  0  0  0  0  0
  163.7930  207.6150  147.8860 O   0  0  0  0  0  0  0  0  0  0  0  0
  162.0660  204.2870  145.3920 C   0  0  0  0  0  3  0  0  0  0  0  0
  163.7960  204.8390  147.0130 N   0  0  0  0  0  1  0  0  0  0  0  0
  161.7800  206.2450  146.8030 C   0  0  0  0  0  0  0  0  0  0  0  0
  162.5430  205.1320  146.4010 C   0  0  0  0  0  0  0  0  0  0  0  0
  160.5410  206.4840  146.1960 C   0  0  0  0  0  3  0  0  0  0  0  0
  160.8340  204.5410  144.7850 C   0  0  0  0  0  3  0  0  0  0  0  0
  160.0700  205.6390  145.1880 C   0  0  0  0  0  3  0  0  0  0  0  0
  1  7  1  0  0  0  0
  2  3  1  0  0  0  0
  2 10  1  0  0  0  0
  3  8  2  0  0  0  0
  4  1  1  0  0  0  0
  5  1  2  0  0  0  0
  5 11  1  0  0  0  0
  7  9  1  1  0  0  0
  7  3  1  0  0  0  0
  8  6  1  0  0  0  0
 10  6  2  0  0  0  0
 11  2  2  0  0  0  0
 12 15  2  0  0  0  0
 12 16  1  0  0  0  0
 14 13  2  0  0  0  0
 14 22  1  0  0  0  0
 15 14  1  0  0  0  0
 16  9  1  1  0  0  0
 16 13  1  0  0  0  0
 17 19  1  0  0  0  0
 18 17  1  0  0  0  0
 20 19  1  0  0  0  0
 21 18  1  0  0  0  0
 21 22  1  0  0  0  0
 22 20  1  0  0  0  0
 23 24  1  0  0  0  0
 23 11  1  0  0  0  0
 25 24  1  0  0  0  0
 27 28  1  0  0  0  0
 27 29  1  0  0  0  0
 28 30  1  0  0  0  0
 29 26  1  0  0  0  0
 30 26  1  0  0  0  0
 30 25  1  1  0  0  0
 31  5  1  0  0  0  0
 32 31  1  0  0  0  0
 33 32  1  0  0  0  0
 34 33  2  0  0  0  0
 35 33  2  0  0  0  0
 36 39  1  0  0  0  0
 38 33  1  0  0  0  0
 39 38  2  0  0  0  0
 39 37  1  0  0  0  0
 40 38  1  0  0  0  0
 41 42  1  0  0  0  0
 41 36  2  0  0  0  0
 42 40  2  0  0  0  0
M  END
>  <MODEL>
6

>  <REMARK>
 VINA RESULT:      -5.8      4.293      7.791
  Name = 
  10 active torsions:
  status: ('A' for Active; 'I' for Inactive)
    1  A    between atoms: C_1  and  C_10
    2  A    between atoms: C_1  and  N_16
    3  A    between atoms: S_8  and  C_11
    4  A    between atoms: S_8  and  N_30
    5  A    between atoms: C_10  and  C_37
    6  A    between atoms: N_16  and  C_33
    7  A    between atoms: C_19  and  C_36
    8  A    between atoms: C_22  and  C_23
    9  A    between atoms: C_22  and  N_30
   10  A    between atoms: S_34  and  C_38
                            x       y       z     vdW  Elec       q    Type
                         _______ _______ _______ _____ _____    ______ ____

>  <TORSDO>
F 10

$$$$
=
 OpenBabel11042420023D

 42 47  0  0  1  0  0  0  0  0999 V2000
  161.8060  209.8520  151.1080 C   0  0  0  0  0  0  0  0  0  0  0  0
  161.3330  207.0680  150.6970 C   0  0  0  0  0  0  0  0  0  0  0  0
  161.5680  207.5260  152.0300 C   0  0  0  0  0  0  0  0  0  0  0  0
  162.0710  211.3150  151.3000 C   0  0  0  0  0  1  0  0  0  0  0  0
  161.5720  209.3510  149.8600 C   0  0  0  0  0  0  0  0  0  0  0  0
  161.2110  205.3070  152.0680 N   0  0  0  0  0  0  0  0  0  0  0  0
  161.8060  208.9450  152.2960 C   0  0  2  0  0  3  0  0  0  0  0  0
  161.4910  206.4840  152.8420 C   0  0  0  0  0  3  0  0  0  0  0  0
  161.9990  209.4900  153.8060 S   0  0  0  0  0  0  0  0  0  0  0  0
  161.1150  205.6360  150.8150 C   0  0  0  0  0  3  0  0  0  0  0  0
  161.3220  207.8860  149.6420 C   0  0  0  0  0  0  0  0  0  0  0  0
  159.7470  209.7470  155.3730 N   0  0  0  0  0  0  0  0  0  0  0  0
  159.6230  210.9330  153.4650 C   0  0  0  0  0  3  0  0  0  0  0  0
  158.4920  211.0850  154.2400 C   0  0  0  0  0  0  0  0  0  0  0  0
  158.5830  210.3710  155.3790 N   0  0  0  0  0  2  0  0  0  0  0  0
  160.3800  210.0710  154.2330 C   0  0  0  0  0  0  0  0  0  0  0  0
  155.3610  213.7500  153.5130 N   0  0  0  0  0  2  0  0  0  0  0  0
  155.6350  213.5260  154.9300 C   0  0  0  0  0  2  0  0  0  0  0  0
  156.6050  214.1510  152.8460 C   0  0  0  0  0  2  0  0  0  0  0  0
  157.7840  213.2100  153.1580 C   0  0  0  0  0  2  0  0  0  0  0  0
  156.4890  212.2670  155.1220 C   0  0  0  0  0  2  0  0  0  0  0  0
  157.3250  211.9420  153.8800 C   0  0  0  0  0  3  0  0  0  0  0  0
  161.0520  207.3390  148.2740 C   0  0  0  0  0  2  0  0  0  0  0  0
  162.3300  206.8220  147.6290 C   0  0  0  0  0  2  0  0  0  0  0  0
  162.3590  205.3610  147.6470 N   0  0  0  0  0  2  0  0  0  0  0  0
  162.1320  205.8280  145.2890 N   0  0  0  0  0  2  0  0  0  0  0  0
  160.7360  203.9270  144.8810 C   0  0  0  0  0  2  0  0  0  0  0  0
  161.5820  203.6010  146.0830 C   0  0  0  0  0  2  0  0  0  0  0  0
  161.4080  205.1200  144.2430 C   0  0  0  0  0  2  0  0  0  0  0  0
  162.4680  204.8200  146.2880 C   0  0  2  0  0  3  0  0  0  0  0  0
  161.6020  210.2560  148.6630 C   0  0  0  0  0  2  0  0  0  0  0  0
  162.3630  211.4550  148.9720 N   0  0  0  0  0  2  0  0  0  0  0  0
  161.8050  212.7240  147.9310 S   0  0  0  0  0  0  0  0  0  0  0  0
  162.5340  213.9960  148.2630 O   0  0  0  0  0  0  0  0  0  0  0  0
  162.0940  212.3440  146.5070 O   0  0  0  0  0  0  0  0  0  0  0  0
  158.1420  213.7120  149.4000 C   0  0  0  0  0  3  0  0  0  0  0  0
  160.3660  213.9580  150.3580 N   0  0  0  0  0  1  0  0  0  0  0  0
  160.0670  212.9530  148.1250 C   0  0  0  0  0  0  0  0  0  0  0  0
  159.5260  213.5340  149.2880 C   0  0  0  0  0  0  0  0  0  0  0  0
  159.2100  212.5740  147.0850 C   0  0  0  0  0  3  0  0  0  0  0  0
  157.2950  213.3200  148.3600 C   0  0  0  0  0  3  0  0  0  0  0  0
  157.8290  212.7520  147.2010 C   0  0  0  0  0  3  0  0  0  0  0  0
  1  4  1  0  0  0  0
  1  7  1  0  0  0  0
  2 10  1  0  0  0  0
  2  3  1  0  0  0  0
  3  7  1  0  0  0  0
  3  8  2  0  0  0  0
  5  1  2  0  0  0  0
  6  8  1  0  0  0  0
  7  9  1  1  0  0  0
  9 16  1  0  0  0  0
 10  6  2  0  0  0  0
 11  5  1  0  0  0  0
 11  2  2  0  0  0  0
 12 15  1  0  0  0  0
 13 16  1  0  0  0  0
 13 14  2  0  0  0  0
 14 15  1  0  0  0  0
 16 12  2  0  0  0  0
 17 18  1  0  0  0  0
 18 21  1  0  0  0  0
 19 20  1  0  0  0  0
 19 17  1  0  0  0  0
 20 22  1  0  0  0  0
 22 14  1  0  0  0  0
 22 21  1  0  0  0  0
 23 11  1  0  0  0  0
 24 25  1  0  0  0  0
 24 23  1  0  0  0  0
 26 30  1  0  0  0  0
 27 28  1  0  0  0  0
 28 30  1  0  0  0  0
 29 27  1  0  0  0  0
 29 26  1  0  0  0  0
 30 25  1  1  0  0  0
 31 32  1  0  0  0  0
 31  5  1  0  0  0  0
 33 38  1  0  0  0  0
 33 34  2  0  0  0  0
 33 32  1  0  0  0  0
 35 33  2  0  0  0  0
 38 39  2  0  0  0  0
 39 36  1  0  0  0  0
 39 37  1  0  0  0  0
 40 42  2  0  0  0  0
 40 38  1  0  0  0  0
 41 36  2  0  0  0  0
 42 41  1  0  0  0  0
M  END
>  <MODEL>
7

>  <REMARK>
 VINA RESULT:      -5.7      3.293      8.896
  Name = 
  10 active torsions:
  status: ('A' for Active; 'I' for Inactive)
    1  A    between atoms: C_1  and  C_10
    2  A    between atoms: C_1  and  N_16
    3  A    between atoms: S_8  and  C_11
    4  A    between atoms: S_8  and  N_30
    5  A    between atoms: C_10  and  C_37
    6  A    between atoms: N_16  and  C_33
    7  A    between atoms: C_19  and  C_36
    8  A    between atoms: C_22  and  C_23
    9  A    between atoms: C_22  and  N_30
   10  A    between atoms: S_34  and  C_38
                            x       y       z     vdW  Elec       q    Type
                         _______ _______ _______ _____ _____    ______ ____

>  <TORSDO>
F 10

$$$$
=
 OpenBabel11042420023D

 42 47  0  0  1  0  0  0  0  0999 V2000
  162.2780  210.3680  149.2420 C   0  0  0  0  0  0  0  0  0  0  0  0
  160.6120  210.8510  151.5080 C   0  0  0  0  0  0  0  0  0  0  0  0
  161.0400  211.9700  150.7310 C   0  0  0  0  0  0  0  0  0  0  0  0
  163.1680  210.0950  148.0670 C   0  0  0  0  0  1  0  0  0  0  0  0
  161.8340  209.3420  150.0240 C   0  0  0  0  0  0  0  0  0  0  0  0
  159.7340  212.6970  152.4090 N   0  0  0  0  0  0  0  0  0  0  0  0
  161.8870  211.7760  149.5530 C   0  0  0  0  0  0  0  0  0  0  0  0
  160.5160  213.0630  151.2620 C   0  0  0  0  0  3  0  0  0  0  0  0
  162.3170  213.0250  148.6190 S   0  0  0  0  0  0  0  0  0  0  0  0
  159.7820  211.4080  152.5620 C   0  0  0  0  0  2  0  0  0  0  0  0
  160.9560  209.5930  151.2170 C   0  0  0  0  0  0  0  0  0  0  0  0
  159.8570  212.5690  147.4640 N   0  0  0  0  0  0  0  0  0  0  0  0
  161.3740  213.3670  146.0050 C   0  0  0  0  0  3  0  0  0  0  0  0
  160.1470  213.1580  145.4090 C   0  0  0  0  0  0  0  0  0  0  0  0
  159.2510  212.6820  146.2960 N   0  0  0  0  0  0  0  0  0  0  0  0
  161.1290  212.9720  147.3060 C   0  0  1  0  0  3  0  0  0  0  0  0
  159.0370  213.6150  141.4110 N   0  0  0  0  0  2  0  0  0  0  0  0
  159.3340  212.2370  141.7920 C   0  0  0  0  0  2  0  0  0  0  0  0
  158.0380  214.1610  142.3360 C   0  0  0  0  0  2  0  0  0  0  0  0
  158.4060  213.9410  143.8150 C   0  0  0  0  0  2  0  0  0  0  0  0
  160.1060  212.1970  143.1150 C   0  0  0  0  0  2  0  0  0  0  0  0
  159.8410  213.4370  143.9770 C   0  0  0  0  0  3  0  0  0  0  0  0
  160.4570  208.4660  152.0660 C   0  0  0  0  0  2  0  0  0  0  0  0
  161.2430  208.3710  153.3670 C   0  0  0  0  0  2  0  0  0  0  0  0
  160.5800  207.4640  154.3020 N   0  0  0  0  0  2  0  0  0  0  0  0
  159.8030  209.4120  155.5000 N   0  0  0  0  0  2  0  0  0  0  0  0
  161.8450  209.6800  156.7170 C   0  0  0  0  0  2  0  0  0  0  0  0
  161.7330  208.2200  156.3620 C   0  0  0  0  0  2  0  0  0  0  0  0
  160.4600  210.2420  156.4980 C   0  0  0  0  0  2  0  0  0  0  0  0
  160.4140  208.0930  155.6170 C   0  0  2  0  0  3  0  0  0  0  0  0
  162.2510  207.9300  149.7300 C   0  0  0  0  0  2  0  0  0  0  0  0
  161.0740  207.1070  149.5050 N   0  0  0  0  0  2  0  0  0  0  0  0
  161.3970  206.0750  148.1500 S   0  0  0  0  0  0  0  0  0  0  0  0
  160.4520  206.4130  147.0310 O   0  0  0  0  0  0  0  0  0  0  0  0
  162.8090  206.3030  147.6930 O   0  0  0  0  0  0  0  0  0  0  0  0
  161.1730  202.0130  148.0760 C   0  0  0  0  0  3  0  0  0  0  0  0
  161.5810  203.6220  146.2960 N   0  0  0  0  0  1  0  0  0  0  0  0
  161.2070  204.3830  148.6130 C   0  0  0  0  0  0  0  0  0  0  0  0
  161.3160  203.3440  147.6680 C   0  0  0  0  0  0  0  0  0  0  0  0
  160.9730  204.0670  149.9570 C   0  0  0  0  0  3  0  0  0  0  0  0
  160.9280  201.7100  149.4170 C   0  0  0  0  0  3  0  0  0  0  0  0
  160.8300  202.7360  150.3590 C   0  0  0  0  0  3  0  0  0  0  0  0
  1  7  2  0  0  0  0
  1  5  1  0  0  0  0
  2 10  1  0  0  0  0
  3  8  1  0  0  0  0
  3  2  2  0  0  0  0
  4  1  1  0  0  0  0
  5 11  2  0  0  0  0
  6 10  1  0  0  0  0
  7  3  1  0  0  0  0
  8  6  2  0  0  0  0
  9  7  1  0  0  0  0
 11  2  1  0  0  0  0
 11 23  1  0  0  0  0
 13 16  1  0  0  0  0
 14 13  2  0  0  0  0
 14 15  1  0  0  0  0
 15 12  2  0  0  0  0
 16 12  1  0  0  0  0
 16  9  1  1  0  0  0
 17 18  1  0  0  0  0
 17 19  1  0  0  0  0
 18 21  1  0  0  0  0
 19 20  1  0  0  0  0
 20 22  1  0  0  0  0
 21 22  1  0  0  0  0
 22 14  1  0  0  0  0
 23 24  1  0  0  0  0
 24 25  1  0  0  0  0
 26 30  1  0  0  0  0
 26 29  1  0  0  0  0
 28 27  1  0  0  0  0
 29 27  1  0  0  0  0
 30 25  1  6  0  0  0
 30 28  1  0  0  0  0
 31  5  1  0  0  0  0
 32 31  1  0  0  0  0
 33 38  1  0  0  0  0
 33 32  1  0  0  0  0
 34 33  2  0  0  0  0
 35 33  2  0  0  0  0
 36 41  1  0  0  0  0
 37 39  1  0  0  0  0
 38 40  2  0  0  0  0
 39 36  2  0  0  0  0
 39 38  1  0  0  0  0
 40 42  1  0  0  0  0
 41 42  2  0  0  0  0
M  END
>  <MODEL>
8

>  <REMARK>
 VINA RESULT:      -5.1      1.813      2.440
  Name = 
  10 active torsions:
  status: ('A' for Active; 'I' for Inactive)
    1  A    between atoms: C_1  and  C_10
    2  A    between atoms: C_1  and  N_16
    3  A    between atoms: S_8  and  C_11
    4  A    between atoms: S_8  and  N_30
    5  A    between atoms: C_10  and  C_37
    6  A    between atoms: N_16  and  C_33
    7  A    between atoms: C_19  and  C_36
    8  A    between atoms: C_22  and  C_23
    9  A    between atoms: C_22  and  N_30
   10  A    between atoms: S_34  and  C_38
                            x       y       z     vdW  Elec       q    Type
                         _______ _______ _______ _____ _____    ______ ____

>  <TORSDO>
F 10

$$$$
=
 OpenBabel11042420023D

 42 47  0  0  1  0  0  0  0  0999 V2000
  161.7140  208.2000  150.3470 C   0  0  0  0  0  0  0  0  0  0  0  0
  161.0360  206.4200  152.4710 C   0  0  0  0  0  0  0  0  0  0  0  0
  161.5460  207.7120  152.8060 C   0  0  0  0  0  0  0  0  0  0  0  0
  162.0820  209.1130  149.2150 C   0  0  0  0  0  1  0  0  0  0  0  0
  161.2200  206.9530  150.0940 C   0  0  0  0  0  0  0  0  0  0  0  0
  161.0970  206.5870  154.6990 N   0  0  0  0  0  0  0  0  0  0  0  0
  161.9000  208.6660  151.7540 C   0  0  2  0  0  3  0  0  0  0  0  0
  161.5780  207.8120  154.1250 C   0  0  0  0  0  3  0  0  0  0  0  0
  162.4060  210.1580  152.1170 S   0  0  0  0  0  0  0  0  0  0  0  0
  160.7770  205.7680  153.7430 C   0  0  0  0  0  3  0  0  0  0  0  0
  160.8620  206.0150  151.2100 C   0  0  0  0  0  0  0  0  0  0  0  0
  160.6770  211.9590  150.9510 N   0  0  0  0  0  0  0  0  0  0  0  0
  159.8860  211.1090  152.8790 C   0  0  0  0  0  3  0  0  0  0  0  0
  158.9990  211.9980  152.3050 C   0  0  0  0  0  0  0  0  0  0  0  0
  159.4870  212.4950  151.1520 N   0  0  0  0  0  0  0  0  0  0  0  0
  160.9310  211.1290  151.9770 C   0  0  1  0  0  3  0  0  0  0  0  0
  155.4690  213.1690  154.2030 N   0  0  0  0  0  2  0  0  0  0  0  0
  156.4690  212.6000  155.1030 C   0  0  0  0  0  2  0  0  0  0  0  0
  156.0830  214.2610  153.4380 C   0  0  0  0  0  2  0  0  0  0  0  0
  157.4200  213.8580  152.7860 C   0  0  0  0  0  2  0  0  0  0  0  0
  157.5370  211.8380  154.3110 C   0  0  0  0  0  2  0  0  0  0  0  0
  157.6660  212.3510  152.8730 C   0  0  0  0  0  3  0  0  0  0  0  0
  160.3070  204.6520  150.9330 C   0  0  0  0  0  2  0  0  0  0  0  0
  160.7690  203.6490  151.9820 C   0  0  0  0  0  2  0  0  0  0  0  0
  161.8480  202.8170  151.4540 N   0  0  0  0  0  2  0  0  0  0  0  0
  162.0430  201.2960  149.5880 N   0  0  0  0  0  2  0  0  0  0  0  0
  159.7210  201.4340  149.0230 C   0  0  0  0  0  2  0  0  0  0  0  0
  159.8340  201.7340  150.4950 C   0  0  0  0  0  2  0  0  0  0  0  0
  161.0430  200.8040  148.6520 C   0  0  0  0  0  2  0  0  0  0  0  0
  161.3160  201.6090  150.8130 C   0  0  2  0  0  3  0  0  0  0  0  0
  161.0620  206.4730  148.6810 C   0  0  0  0  0  2  0  0  0  0  0  0
  161.8550  205.2720  148.4780 N   0  0  0  0  0  2  0  0  0  0  0  0
  162.3380  205.2260  146.8140 S   0  0  0  0  0  0  0  0  0  0  0  0
  162.3080  206.6180  146.2490 O   0  0  0  0  0  0  0  0  0  0  0  0
  163.7390  204.6880  146.7310 O   0  0  0  0  0  0  0  0  0  0  0  0
  159.4870  203.8310  144.2690 C   0  0  0  0  0  3  0  0  0  0  0  0
  160.1900  206.1020  144.7890 N   0  0  0  0  0  1  0  0  0  0  0  0
  161.2620  204.1740  145.8940 C   0  0  0  0  0  0  0  0  0  0  0  0
  160.3150  204.6970  144.9910 C   0  0  0  0  0  0  0  0  0  0  0  0
  161.3730  202.7870  146.0450 C   0  0  0  0  0  3  0  0  0  0  0  0
  159.5990  202.4480  144.4350 C   0  0  0  0  0  3  0  0  0  0  0  0
  160.5430  201.9260  145.3220 C   0  0  0  0  0  3  0  0  0  0  0  0
  1  7  1  0  0  0  0
  2  3  1  0  0  0  0
  2 10  1  0  0  0  0
  3  8  2  0  0  0  0
  4  1  1  0  0  0  0
  5  1  2  0  0  0  0
  5 11  1  0  0  0  0
  7  9  1  1  0  0  0
  7  3  1  0  0  0  0
  8  6  1  0  0  0  0
 10  6  2  0  0  0  0
 11  2  2  0  0  0  0
 12 15  2  0  0  0  0
 12 16  1  0  0  0  0
 14 22  1  0  0  0  0
 14 13  2  0  0  0  0
 15 14  1  0  0  0  0
 16  9  1  6  0  0  0
 16 13  1  0  0  0  0
 17 18  1  0  0  0  0
 19 17  1  0  0  0  0
 20 22  1  0  0  0  0
 20 19  1  0  0  0  0
 21 18  1  0  0  0  0
 22 21  1  0  0  0  0
 23 11  1  0  0  0  0
 23 24  1  0  0  0  0
 25 24  1  0  0  0  0
 26 30  1  0  0  0  0
 27 28  1  0  0  0  0
 28 30  1  0  0  0  0
 29 27  1  0  0  0  0
 29 26  1  0  0  0  0
 30 25  1  6  0  0  0
 31  5  1  0  0  0  0
 32 31  1  0  0  0  0
 33 32  1  0  0  0  0
 34 33  2  0  0  0  0
 35 33  2  0  0  0  0
 36 41  2  0  0  0  0
 36 39  1  0  0  0  0
 37 39  1  0  0  0  0
 38 40  1  0  0  0  0
 38 33  1  0  0  0  0
 39 38  2  0  0  0  0
 41 42  1  0  0  0  0
 42 40  2  0  0  0  0
M  END
>  <MODEL>
9

>  <REMARK>
 VINA RESULT:      -5.1      4.285      7.607
  Name = 
  10 active torsions:
  status: ('A' for Active; 'I' for Inactive)
    1  A    between atoms: C_1  and  C_10
    2  A    between atoms: C_1  and  N_16
    3  A    between atoms: S_8  and  C_11
    4  A    between atoms: S_8  and  N_30
    5  A    between atoms: C_10  and  C_37
    6  A    between atoms: N_16  and  C_33
    7  A    between atoms: C_19  and  C_36
    8  A    between atoms: C_22  and  C_23
    9  A    between atoms: C_22  and  N_30
   10  A    between atoms: S_34  and  C_38
                            x       y       z     vdW  Elec       q    Type
                         _______ _______ _______ _____ _____    ______ ____

>  <TORSDO>
F 10

$$$$
