=
 OpenBabel11042423113D

 29 34  0  0  1  0  0  0  0  0999 V2000
  161.0610  209.6420  154.8000 S   0  0  0  0  0  0  0  0  0  0  0  0
  156.7010  214.4060  153.9160 N   0  0  0  0  0  0  0  0  0  0  0  0
  159.1090  211.5060  154.0540 C   0  0  0  0  0  0  0  0  0  0  0  0
  160.6640  209.1270  153.1200 C   0  0  0  0  0  0  0  0  0  0  0  0
  159.3510  211.2000  152.7680 C   0  0  0  0  0  2  0  0  0  0  0  0
  158.2110  212.5650  154.4100 C   0  0  0  0  0  0  0  0  0  0  0  0
  156.7320  213.6090  156.2170 C   0  0  0  0  0  3  0  0  0  0  0  0
  157.7690  213.5220  153.5410 C   0  0  0  0  0  0  0  0  0  0  0  0
  159.6010  210.6540  155.0610 C   0  0  0  0  0  0  0  0  0  0  0  0
  160.0210  209.9720  152.3070 C   0  0  0  0  0  3  0  0  0  0  0  0
  158.1520  211.6710  156.6490 N   0  0  0  0  0  0  0  0  0  0  0  0
  157.7080  212.5740  155.7380 C   0  0  0  0  0  0  0  0  0  0  0  0
  156.1950  214.4520  155.1070 C   0  0  0  0  0  3  0  0  0  0  0  0
  159.0920  210.7440  156.3500 C   0  0  0  0  0  3  0  0  0  0  0  0
  158.5590  213.8800  148.7270 O   0  0  0  0  0  0  0  0  0  0  0  0
  157.4800  213.5960  151.0340 C   0  0  2  0  0  3  0  0  0  0  0  0
  158.3560  213.7160  152.2480 N   0  0  0  0  0  0  0  0  0  0  0  0
  159.7170  214.3360  152.1540 C   0  0  0  0  0  2  0  0  0  0  0  0
  159.3210  214.1530  149.9720 C   0  0  0  0  0  0  0  0  0  0  0  0
  157.3250  212.2650  150.6800 F   0  0  0  0  0  0  0  0  0  0  0  0
  157.9930  214.4530  149.8420 C   0  0  1  0  0  3  0  0  0  0  0  0
  160.2810  214.1220  150.8150 N   0  0  0  0  0  0  0  0  0  0  0  0
  161.6710  204.8290  151.8920 C   0  0  0  0  0  3  0  0  0  0  0  0
  161.0900  206.7330  153.4000 C   0  0  0  0  0  3  0  0  0  0  0  0
  161.1720  207.8240  152.6110 C   0  0  0  0  0  0  0  0  0  0  0  0
  161.5750  205.3700  153.1070 C   0  0  0  0  0  3  0  0  0  0  0  0
  161.9470  206.8050  150.4510 C   0  0  0  0  0  3  0  0  0  0  0  0
  161.8880  207.8220  151.3120 C   0  0  0  0  0  3  0  0  0  0  0  0
  161.2130  205.5240  150.6550 C   0  0  0  0  0  2  0  0  0  0  0  0
  1  9  1  0  0  0  0
  2 13  1  0  0  0  0
  3  6  2  0  0  0  0
  3  9  1  0  0  0  0
  4  1  1  0  0  0  0
  5  3  1  0  0  0  0
  6 12  1  0  0  0  0
  8  2  2  0  0  0  0
  8  6  1  0  0  0  0
  9 14  2  0  0  0  0
 10  5  1  0  0  0  0
 10  4  2  0  0  0  0
 12  7  1  0  0  0  0
 12 11  2  0  0  0  0
 13  7  2  0  0  0  0
 14 11  1  0  0  0  0
 15 19  1  0  0  0  0
 16 20  1  6  0  0  0
 16 17  1  0  0  0  0
 17  8  1  0  0  0  0
 18 17  1  0  0  0  0
 19 22  2  0  0  0  0
 21 15  1  6  0  0  0
 21 19  1  0  0  0  0
 21 16  1  0  0  0  0
 22 18  1  0  0  0  0
 23 26  2  0  0  0  0
 25  4  1  0  0  0  0
 25 24  2  0  0  0  0
 26 24  1  0  0  0  0
 27 29  1  0  0  0  0
 27 28  2  0  0  0  0
 28 25  1  0  0  0  0
 29 23  1  0  0  0  0
M  END
>  <MODEL>
1

>  <REMARK>
 VINA RESULT:      -6.4      0.000      0.000
  Name = 
  2 active torsions:
  status: ('A' for Active; 'I' for Inactive)
    1  A    between atoms: C_8  and  C_9
    2  A    between atoms: N_10  and  C_16
                            x       y       z     vdW  Elec       q    Type
                         _______ _______ _______ _____ _____    ______ ____

>  <TORSDO>
F 2

$$$$
=
 OpenBabel11042423113D

 29 34  0  0  1  0  0  0  0  0999 V2000
  162.5330  207.2950  150.6340 S   0  0  0  0  0  0  0  0  0  0  0  0
  160.2600  213.4040  150.6550 N   0  0  0  0  0  0  0  0  0  0  0  0
  161.4180  209.8370  150.2580 C   0  0  0  0  0  0  0  0  0  0  0  0
  161.9860  207.2220  148.9180 C   0  0  0  0  0  0  0  0  0  0  0  0
  161.5410  209.6610  148.9320 C   0  0  0  0  0  2  0  0  0  0  0  0
  160.9750  211.0840  150.8060 C   0  0  0  0  0  0  0  0  0  0  0  0
  159.9730  212.3130  152.8130 C   0  0  0  0  0  3  0  0  0  0  0  0
  160.9270  212.2560  150.1060 C   0  0  0  0  0  0  0  0  0  0  0  0
  161.5500  208.7210  151.1080 C   0  0  0  0  0  0  0  0  0  0  0  0
  161.7100  208.3580  148.2670 C   0  0  0  0  0  3  0  0  0  0  0  0
  160.5690  209.9470  152.8940 N   0  0  0  0  0  0  0  0  0  0  0  0
  160.4990  211.0770  152.1440 C   0  0  0  0  0  0  0  0  0  0  0  0
  159.7970  213.4520  151.8630 C   0  0  0  0  0  3  0  0  0  0  0  0
  161.1000  208.7960  152.4190 C   0  0  0  0  0  3  0  0  0  0  0  0
  161.8420  213.0720  145.3710 O   0  0  0  0  0  0  0  0  0  0  0  0
  160.7180  212.8600  147.6630 C   0  0  2  0  0  3  0  0  0  0  0  0
  161.5550  212.4140  148.8280 N   0  0  0  0  0  0  0  0  0  0  0  0
  163.0520  212.4450  148.7530 C   0  0  0  0  0  2  0  0  0  0  0  0
  162.6370  212.8050  146.5960 C   0  0  0  0  0  0  0  0  0  0  0  0
  160.0420  211.7820  147.1140 F   0  0  0  0  0  0  0  0  0  0  0  0
  161.5450  213.6280  146.5940 C   0  0  1  0  0  3  0  0  0  0  0  0
  163.4940  212.2510  147.3660 N   0  0  0  0  0  0  0  0  0  0  0  0
  161.3050  203.1280  146.9790 C   0  0  0  0  0  3  0  0  0  0  0  0
  161.3810  204.8550  148.7810 C   0  0  0  0  0  3  0  0  0  0  0  0
  161.9790  205.9180  148.2030 C   0  0  0  0  0  0  0  0  0  0  0  0
  161.3050  203.4730  148.2670 C   0  0  0  0  0  3  0  0  0  0  0  0
  162.5040  205.0010  145.9260 C   0  0  0  0  0  3  0  0  0  0  0  0
  162.7680  205.8110  146.9520 C   0  0  0  0  0  3  0  0  0  0  0  0
  161.3000  204.1250  145.8700 C   0  0  0  0  0  2  0  0  0  0  0  0
  1  9  1  0  0  0  0
  2 13  1  0  0  0  0
  3  6  2  0  0  0  0
  3  9  1  0  0  0  0
  4  1  1  0  0  0  0
  5  3  1  0  0  0  0
  6 12  1  0  0  0  0
  8  2  2  0  0  0  0
  8  6  1  0  0  0  0
  9 14  2  0  0  0  0
 10  4  2  0  0  0  0
 10  5  1  0  0  0  0
 12  7  1  0  0  0  0
 12 11  2  0  0  0  0
 13  7  2  0  0  0  0
 14 11  1  0  0  0  0
 15 19  1  0  0  0  0
 16 20  1  6  0  0  0
 16 17  1  0  0  0  0
 17  8  1  0  0  0  0
 18 17  1  0  0  0  0
 19 22  2  0  0  0  0
 21 15  1  6  0  0  0
 21 19  1  0  0  0  0
 21 16  1  0  0  0  0
 22 18  1  0  0  0  0
 23 26  2  0  0  0  0
 25 24  2  0  0  0  0
 25  4  1  0  0  0  0
 26 24  1  0  0  0  0
 27 28  2  0  0  0  0
 28 25  1  0  0  0  0
 29 27  1  0  0  0  0
 29 23  1  0  0  0  0
M  END
>  <MODEL>
2

>  <REMARK>
 VINA RESULT:      -6.0      3.388      4.878
  Name = 
  2 active torsions:
  status: ('A' for Active; 'I' for Inactive)
    1  A    between atoms: C_8  and  C_9
    2  A    between atoms: N_10  and  C_16
                            x       y       z     vdW  Elec       q    Type
                         _______ _______ _______ _____ _____    ______ ____

>  <TORSDO>
F 2

$$$$
=
 OpenBabel11042423113D

 29 34  0  0  1  0  0  0  0  0999 V2000
  162.2470  205.8030  152.2260 S   0  0  0  0  0  0  0  0  0  0  0  0
  159.9190  211.3990  154.6250 N   0  0  0  0  0  0  0  0  0  0  0  0
  161.0050  208.2160  152.9170 C   0  0  0  0  0  0  0  0  0  0  0  0
  161.2260  206.1350  150.7790 C   0  0  0  0  0  0  0  0  0  0  0  0
  160.7390  208.4180  151.6150 C   0  0  0  0  0  2  0  0  0  0  0  0
  160.7080  209.2150  153.9000 C   0  0  0  0  0  0  0  0  0  0  0  0
  160.3040  209.7440  156.3700 C   0  0  0  0  0  3  0  0  0  0  0  0
  160.4270  210.5200  153.6090 C   0  0  0  0  0  0  0  0  0  0  0  0
  161.4090  206.9350  153.3400 C   0  0  0  0  0  0  0  0  0  0  0  0
  160.7420  207.3670  150.5830 C   0  0  0  0  0  3  0  0  0  0  0  0
  160.9590  207.5220  155.5990 N   0  0  0  0  0  0  0  0  0  0  0  0
  160.6440  208.7980  155.2560 C   0  0  0  0  0  0  0  0  0  0  0  0
  159.8280  211.0700  155.8750 C   0  0  0  0  0  3  0  0  0  0  0  0
  161.3590  206.6060  154.6870 C   0  0  0  0  0  3  0  0  0  0  0  0
  160.1640  213.1870  149.5170 O   0  0  0  0  0  0  0  0  0  0  0  0
  159.7980  212.2370  151.8680 C   0  0  2  0  0  3  0  0  0  0  0  0
  160.6500  211.0820  152.3100 N   0  0  0  0  0  0  0  0  0  0  0  0
  161.9060  210.7290  151.5710 C   0  0  0  0  0  2  0  0  0  0  0  0
  161.0790  212.1640  150.0850 C   0  0  0  0  0  0  0  0  0  0  0  0
  158.5830  211.7820  151.3800 F   0  0  0  0  0  0  0  0  0  0  0  0
  160.5230  213.1560  150.8450 C   0  0  1  0  0  3  0  0  0  0  0  0
  161.7820  211.1000  150.1560 N   0  0  0  0  0  0  0  0  0  0  0  0
  161.2830  203.1190  147.3310 C   0  0  0  0  0  3  0  0  0  0  0  0
  161.3950  205.3370  148.4710 C   0  0  0  0  0  3  0  0  0  0  0  0
  161.0450  205.0770  149.7480 C   0  0  0  0  0  0  0  0  0  0  0  0
  161.2540  204.4510  147.2990 C   0  0  0  0  0  3  0  0  0  0  0  0
  160.5240  202.6250  149.6190 C   0  0  0  0  0  3  0  0  0  0  0  0
  160.3410  203.8350  150.1480 C   0  0  0  0  0  3  0  0  0  0  0  0
  161.5490  202.3410  148.5750 C   0  0  0  0  0  2  0  0  0  0  0  0
  1  9  1  0  0  0  0
  2 13  1  0  0  0  0
  3  9  2  0  0  0  0
  3  6  1  0  0  0  0
  4  1  1  0  0  0  0
  5  3  1  0  0  0  0
  6 12  2  0  0  0  0
  8  6  1  0  0  0  0
  8  2  2  0  0  0  0
  9 14  1  0  0  0  0
 10  4  2  0  0  0  0
 10  5  1  0  0  0  0
 12 11  1  0  0  0  0
 12  7  1  0  0  0  0
 13  7  2  0  0  0  0
 14 11  2  0  0  0  0
 15 19  1  0  0  0  0
 16 20  1  6  0  0  0
 16 17  1  0  0  0  0
 17  8  1  0  0  0  0
 18 17  1  0  0  0  0
 19 22  2  0  0  0  0
 19 21  1  0  0  0  0
 21 15  1  6  0  0  0
 21 16  1  0  0  0  0
 22 18  1  0  0  0  0
 23 29  1  0  0  0  0
 24 25  2  0  0  0  0
 25 28  1  0  0  0  0
 25  4  1  0  0  0  0
 26 23  2  0  0  0  0
 26 24  1  0  0  0  0
 27 28  2  0  0  0  0
 29 27  1  0  0  0  0
M  END
>  <MODEL>
3

>  <REMARK>
 VINA RESULT:      -6.0      2.535      4.164
  Name = 
  2 active torsions:
  status: ('A' for Active; 'I' for Inactive)
    1  A    between atoms: C_8  and  C_9
    2  A    between atoms: N_10  and  C_16
                            x       y       z     vdW  Elec       q    Type
                         _______ _______ _______ _____ _____    ______ ____

>  <TORSDO>
F 2

$$$$
=
 OpenBabel11042423113D

 29 34  0  0  1  0  0  0  0  0999 V2000
  162.4550  205.6230  150.9070 S   0  0  0  0  0  0  0  0  0  0  0  0
  159.8910  209.9130  155.0920 N   0  0  0  0  0  0  0  0  0  0  0  0
  161.0970  207.5710  152.3930 C   0  0  0  0  0  0  0  0  0  0  0  0
  161.3560  206.3460  149.6750 C   0  0  0  0  0  0  0  0  0  0  0  0
  160.7660  208.1770  151.2400 C   0  0  0  0  0  2  0  0  0  0  0  0
  160.7810  208.1600  153.6600 C   0  0  0  0  0  0  0  0  0  0  0  0
  160.4480  207.8020  156.1710 C   0  0  0  0  0  3  0  0  0  0  0  0
  160.4090  209.4630  153.8290 C   0  0  0  0  0  0  0  0  0  0  0  0
  161.5960  206.2550  152.3520 C   0  0  0  0  0  0  0  0  0  0  0  0
  160.7900  207.5350  149.9140 C   0  0  0  0  0  3  0  0  0  0  0  0
  161.2060  206.0190  154.6850 N   0  0  0  0  0  0  0  0  0  0  0  0
  160.8000  207.3090  154.7970 C   0  0  0  0  0  0  0  0  0  0  0  0
  159.8720  209.1800  156.1590 C   0  0  0  0  0  3  0  0  0  0  0  0
  161.6220  205.4910  153.5110 C   0  0  0  0  0  3  0  0  0  0  0  0
  159.7300  213.2320  150.7860 O   0  0  0  0  0  0  0  0  0  0  0  0
  159.5130  211.5300  152.6890 C   0  0  2  0  0  3  0  0  0  0  0  0
  160.5430  210.4420  152.7920 N   0  0  0  0  0  0  0  0  0  0  0  0
  161.8440  210.5460  152.0550 C   0  0  0  0  0  2  0  0  0  0  0  0
  160.7990  212.2360  151.0540 C   0  0  0  0  0  0  0  0  0  0  0  0
  158.3940  211.0730  152.0110 F   0  0  0  0  0  0  0  0  0  0  0  0
  160.0810  212.8310  152.0550 C   0  0  1  0  0  3  0  0  0  0  0  0
  161.6700  211.3300  150.8260 N   0  0  0  0  0  0  0  0  0  0  0  0
  161.2060  204.8780  145.3370 C   0  0  0  0  0  3  0  0  0  0  0  0
  160.9320  206.4400  147.2660 C   0  0  0  0  0  3  0  0  0  0  0  0
  161.1970  205.6840  148.3520 C   0  0  0  0  0  0  0  0  0  0  0  0
  160.6940  205.9810  145.8840 C   0  0  0  0  0  3  0  0  0  0  0  0
  161.5810  203.4380  147.2980 C   0  0  0  0  0  3  0  0  0  0  0  0
  161.1860  204.2010  148.3180 C   0  0  0  0  0  3  0  0  0  0  0  0
  162.1730  203.9930  146.0480 C   0  0  0  0  0  2  0  0  0  0  0  0
  1  9  1  0  0  0  0
  2 13  1  0  0  0  0
  3  6  1  0  0  0  0
  4 10  2  0  0  0  0
  4  1  1  0  0  0  0
  5  3  1  0  0  0  0
  6  8  1  0  0  0  0
  6 12  2  0  0  0  0
  8  2  2  0  0  0  0
  9  3  2  0  0  0  0
  9 14  1  0  0  0  0
 10  5  1  0  0  0  0
 11 12  1  0  0  0  0
 12  7  1  0  0  0  0
 13  7  2  0  0  0  0
 14 11  2  0  0  0  0
 15 19  1  0  0  0  0
 16 20  1  6  0  0  0
 16 17  1  0  0  0  0
 17  8  1  0  0  0  0
 18 17  1  0  0  0  0
 19 21  1  0  0  0  0
 21 15  1  6  0  0  0
 21 16  1  0  0  0  0
 22 19  2  0  0  0  0
 22 18  1  0  0  0  0
 23 26  2  0  0  0  0
 23 29  1  0  0  0  0
 24 25  2  0  0  0  0
 25  4  1  0  0  0  0
 26 24  1  0  0  0  0
 27 28  2  0  0  0  0
 28 25  1  0  0  0  0
 29 27  1  0  0  0  0
M  END
>  <MODEL>
4

>  <REMARK>
 VINA RESULT:      -5.9      3.074      5.049
  Name = 
  2 active torsions:
  status: ('A' for Active; 'I' for Inactive)
    1  A    between atoms: C_8  and  C_9
    2  A    between atoms: N_10  and  C_16
                            x       y       z     vdW  Elec       q    Type
                         _______ _______ _______ _____ _____    ______ ____

>  <TORSDO>
F 2

$$$$
=
 OpenBabel11042423113D

 29 34  0  0  1  0  0  0  0  0999 V2000
  162.1420  205.4770  152.0390 S   0  0  0  0  0  0  0  0  0  0  0  0
  160.2390  211.3710  154.0710 N   0  0  0  0  0  0  0  0  0  0  0  0
  161.1060  208.0270  152.5570 C   0  0  0  0  0  0  0  0  0  0  0  0
  161.2510  205.8440  150.5160 C   0  0  0  0  0  0  0  0  0  0  0  0
  160.9440  208.1970  151.2340 C   0  0  0  0  0  2  0  0  0  0  0  0
  160.8490  209.0910  153.4810 C   0  0  0  0  0  0  0  0  0  0  0  0
  160.3460  209.7630  155.8980 C   0  0  0  0  0  3  0  0  0  0  0  0
  160.7190  210.4040  153.1240 C   0  0  0  0  0  0  0  0  0  0  0  0
  161.3530  206.7320  153.0520 C   0  0  0  0  0  0  0  0  0  0  0  0
  160.9060  207.1070  150.2440 C   0  0  0  0  0  3  0  0  0  0  0  0
  160.8240  207.4570  155.2540 N   0  0  0  0  0  0  0  0  0  0  0  0
  160.6600  208.7410  154.8440 C   0  0  0  0  0  0  0  0  0  0  0  0
  160.0380  211.1070  155.3230 C   0  0  0  0  0  3  0  0  0  0  0  0
  161.1860  206.4670  154.4050 C   0  0  0  0  0  3  0  0  0  0  0  0
  162.8710  211.1220  148.7900 O   0  0  0  0  0  0  0  0  0  0  0  0
  162.1980  210.2060  151.0870 C   0  0  2  0  0  3  0  0  0  0  0  0
  161.0780  210.8850  151.8230 N   0  0  0  0  0  0  0  0  0  0  0  0
  160.1450  211.8160  151.1100 C   0  0  0  0  0  2  0  0  0  0  0  0
  161.6680  211.6290  149.4990 C   0  0  0  0  0  0  0  0  0  0  0  0
  163.4230  210.6880  151.5200 F   0  0  0  0  0  0  0  0  0  0  0  0
  162.0480  210.3160  149.5430 C   0  0  1  0  0  3  0  0  0  0  0  0
  160.8350  212.4650  149.9880 N   0  0  0  0  0  0  0  0  0  0  0  0
  161.2010  202.7240  147.1610 C   0  0  0  0  0  3  0  0  0  0  0  0
  161.4110  204.9680  148.2360 C   0  0  0  0  0  3  0  0  0  0  0  0
  161.0300  204.7650  149.5150 C   0  0  0  0  0  0  0  0  0  0  0  0
  161.2400  204.0540  147.0890 C   0  0  0  0  0  3  0  0  0  0  0  0
  160.3880  202.3390  149.4520 C   0  0  0  0  0  3  0  0  0  0  0  0
  160.2590  203.5730  149.9420 C   0  0  0  0  0  3  0  0  0  0  0  0
  161.4100  201.9720  148.4320 C   0  0  0  0  0  2  0  0  0  0  0  0
  1  9  1  0  0  0  0
  2 13  1  0  0  0  0
  3  9  2  0  0  0  0
  3  6  1  0  0  0  0
  4  1  1  0  0  0  0
  5  3  1  0  0  0  0
  6 12  2  0  0  0  0
  8  6  1  0  0  0  0
  8  2  2  0  0  0  0
  9 14  1  0  0  0  0
 10  4  2  0  0  0  0
 10  5  1  0  0  0  0
 12 11  1  0  0  0  0
 12  7  1  0  0  0  0
 13  7  2  0  0  0  0
 14 11  2  0  0  0  0
 15 19  1  0  0  0  0
 16 20  1  1  0  0  0
 16 17  1  0  0  0  0
 17  8  1  0  0  0  0
 18 17  1  0  0  0  0
 19 21  1  0  0  0  0
 19 22  2  0  0  0  0
 21 15  1  6  0  0  0
 21 16  1  0  0  0  0
 22 18  1  0  0  0  0
 23 29  1  0  0  0  0
 24 25  2  0  0  0  0
 25 28  1  0  0  0  0
 25  4  1  0  0  0  0
 26 23  2  0  0  0  0
 26 24  1  0  0  0  0
 27 28  2  0  0  0  0
 29 27  1  0  0  0  0
M  END
>  <MODEL>
5

>  <REMARK>
 VINA RESULT:      -5.5      3.048      4.750
  Name = 
  2 active torsions:
  status: ('A' for Active; 'I' for Inactive)
    1  A    between atoms: C_8  and  C_9
    2  A    between atoms: N_10  and  C_16
                            x       y       z     vdW  Elec       q    Type
                         _______ _______ _______ _____ _____    ______ ____

>  <TORSDO>
F 2

$$$$
=
 OpenBabel11042423113D

 29 34  0  0  1  0  0  0  0  0999 V2000
  161.9800  206.5560  153.2450 S   0  0  0  0  0  0  0  0  0  0  0  0
  159.7070  212.6390  152.6710 N   0  0  0  0  0  0  0  0  0  0  0  0
  160.8510  209.0450  152.6300 C   0  0  0  0  0  0  0  0  0  0  0  0
  161.3700  206.2960  151.5690 C   0  0  0  0  0  0  0  0  0  0  0  0
  160.9240  208.7230  151.3280 C   0  0  0  0  0  2  0  0  0  0  0  0
  160.4270  210.3470  153.0520 C   0  0  0  0  0  0  0  0  0  0  0  0
  159.5000  211.7950  154.9460 C   0  0  0  0  0  3  0  0  0  0  0  0
  160.3530  211.4350  152.2280 C   0  0  0  0  0  0  0  0  0  0  0  0
  161.0150  208.0300  153.5930 C   0  0  0  0  0  0  0  0  0  0  0  0
  161.0690  207.3530  150.8060 C   0  0  0  0  0  3  0  0  0  0  0  0
  160.1000  209.4500  155.2670 N   0  0  0  0  0  0  0  0  0  0  0  0
  160.0020  210.4900  154.4000 C   0  0  0  0  0  0  0  0  0  0  0  0
  159.2890  212.8220  153.8830 C   0  0  0  0  0  3  0  0  0  0  0  0
  160.6130  208.2520  154.9040 C   0  0  0  0  0  3  0  0  0  0  0  0
  161.5680  212.5360  147.6200 O   0  0  0  0  0  0  0  0  0  0  0  0
  160.5750  212.5650  149.9820 C   0  0  2  0  0  3  0  0  0  0  0  0
  160.9330  211.4470  150.9180 N   0  0  0  0  0  0  0  0  0  0  0  0
  162.1010  210.5510  150.6320 C   0  0  0  0  0  2  0  0  0  0  0  0
  162.0090  211.5630  148.6530 C   0  0  0  0  0  0  0  0  0  0  0  0
  159.3630  212.3050  149.3610 F   0  0  0  0  0  0  0  0  0  0  0  0
  161.7000  212.8620  148.9500 C   0  0  1  0  0  3  0  0  0  0  0  0
  162.3120  210.4420  149.1830 N   0  0  0  0  0  0  0  0  0  0  0  0
  160.8090  201.9130  150.3580 C   0  0  0  0  0  3  0  0  0  0  0  0
  161.2680  203.8660  151.8450 C   0  0  0  0  0  3  0  0  0  0  0  0
  161.3370  204.9200  151.0040 C   0  0  0  0  0  0  0  0  0  0  0  0
  161.2730  202.4320  151.4950 C   0  0  0  0  0  3  0  0  0  0  0  0
  161.0450  203.7890  148.7820 C   0  0  0  0  0  3  0  0  0  0  0  0
  161.5370  204.7670  149.5430 C   0  0  0  0  0  3  0  0  0  0  0  0
  160.1370  202.7300  149.3070 C   0  0  0  0  0  2  0  0  0  0  0  0
  1  9  1  0  0  0  0
  2 13  1  0  0  0  0
  3  6  2  0  0  0  0
  3  9  1  0  0  0  0
  4  1  1  0  0  0  0
  5  3  1  0  0  0  0
  6 12  1  0  0  0  0
  8  2  2  0  0  0  0
  8  6  1  0  0  0  0
  9 14  2  0  0  0  0
 10  5  1  0  0  0  0
 10  4  2  0  0  0  0
 12  7  1  0  0  0  0
 12 11  2  0  0  0  0
 13  7  2  0  0  0  0
 14 11  1  0  0  0  0
 15 19  1  0  0  0  0
 16 20  1  6  0  0  0
 16 17  1  0  0  0  0
 17  8  1  0  0  0  0
 18 17  1  0  0  0  0
 19 21  1  0  0  0  0
 19 22  2  0  0  0  0
 21 15  1  6  0  0  0
 21 16  1  0  0  0  0
 22 18  1  0  0  0  0
 23 26  2  0  0  0  0
 25  4  1  0  0  0  0
 25 24  2  0  0  0  0
 26 24  1  0  0  0  0
 27 29  1  0  0  0  0
 27 28  2  0  0  0  0
 28 25  1  0  0  0  0
 29 23  1  0  0  0  0
M  END
>  <MODEL>
6

>  <REMARK>
 VINA RESULT:      -5.3      2.360      3.539
  Name = 
  2 active torsions:
  status: ('A' for Active; 'I' for Inactive)
    1  A    between atoms: C_8  and  C_9
    2  A    between atoms: N_10  and  C_16
                            x       y       z     vdW  Elec       q    Type
                         _______ _______ _______ _____ _____    ______ ____

>  <TORSDO>
F 2

$$$$
=
 OpenBabel11042423113D

 29 34  0  0  1  0  0  0  0  0999 V2000
  162.3040  205.1660  150.2570 S   0  0  0  0  0  0  0  0  0  0  0  0
  160.2410  209.6420  154.5230 N   0  0  0  0  0  0  0  0  0  0  0  0
  161.1800  207.2310  151.7780 C   0  0  0  0  0  0  0  0  0  0  0  0
  161.3150  206.0460  149.0340 C   0  0  0  0  0  0  0  0  0  0  0  0
  160.9380  207.8990  150.6380 C   0  0  0  0  0  2  0  0  0  0  0  0
  160.9240  207.8250  153.0570 C   0  0  0  0  0  0  0  0  0  0  0  0
  160.5240  207.4540  155.5560 C   0  0  0  0  0  3  0  0  0  0  0  0
  160.7130  209.1610  153.2550 C   0  0  0  0  0  0  0  0  0  0  0  0
  161.5140  205.8650  151.7100 C   0  0  0  0  0  0  0  0  0  0  0  0
  160.8960  207.2890  149.2980 C   0  0  0  0  0  3  0  0  0  0  0  0
  161.0730  205.6250  154.0340 N   0  0  0  0  0  0  0  0  0  0  0  0
  160.8270  206.9530  154.1740 C   0  0  0  0  0  0  0  0  0  0  0  0
  160.1210  208.8920  155.5730 C   0  0  0  0  0  3  0  0  0  0  0  0
  161.4340  205.0780  152.8510 C   0  0  0  0  0  3  0  0  0  0  0  0
  162.6500  211.7260  149.5680 O   0  0  0  0  0  0  0  0  0  0  0  0
  162.1540  209.9340  151.3310 C   0  0  2  0  0  3  0  0  0  0  0  0
  160.9770  210.1390  152.2420 N   0  0  0  0  0  0  0  0  0  0  0  0
  159.9180  211.1470  151.9120 C   0  0  0  0  0  2  0  0  0  0  0  0
  161.4120  211.7740  150.3870 C   0  0  0  0  0  0  0  0  0  0  0  0
  163.3200  210.3640  151.9440 F   0  0  0  0  0  0  0  0  0  0  0  0
  161.9530  210.6000  149.9400 C   0  0  1  0  0  3  0  0  0  0  0  0
  160.4940  212.2520  151.1350 N   0  0  0  0  0  0  0  0  0  0  0  0
  160.8890  204.7870  144.6500 C   0  0  0  0  0  3  0  0  0  0  0  0
  160.6650  206.2220  146.6810 C   0  0  0  0  0  3  0  0  0  0  0  0
  161.0910  205.4390  147.6950 C   0  0  0  0  0  0  0  0  0  0  0  0
  160.3400  205.8120  145.3010 C   0  0  0  0  0  3  0  0  0  0  0  0
  161.5590  203.2900  146.4850 C   0  0  0  0  0  3  0  0  0  0  0  0
  161.1990  203.9650  147.5770 C   0  0  0  0  0  3  0  0  0  0  0  0
  161.9870  203.9560  145.2220 C   0  0  0  0  0  2  0  0  0  0  0  0
  1  9  1  0  0  0  0
  2 13  1  0  0  0  0
  3  6  1  0  0  0  0
  4 10  2  0  0  0  0
  4  1  1  0  0  0  0
  5  3  1  0  0  0  0
  6  8  1  0  0  0  0
  6 12  2  0  0  0  0
  7 13  2  0  0  0  0
  8  2  2  0  0  0  0
  9  3  2  0  0  0  0
  9 14  1  0  0  0  0
 10  5  1  0  0  0  0
 11 12  1  0  0  0  0
 12  7  1  0  0  0  0
 14 11  2  0  0  0  0
 15 19  1  0  0  0  0
 16 20  1  1  0  0  0
 16 17  1  0  0  0  0
 17  8  1  0  0  0  0
 18 17  1  0  0  0  0
 19 22  2  0  0  0  0
 21 15  1  1  0  0  0
 21 19  1  0  0  0  0
 21 16  1  0  0  0  0
 22 18  1  0  0  0  0
 23 29  1  0  0  0  0
 23 26  2  0  0  0  0
 24 25  2  0  0  0  0
 25  4  1  0  0  0  0
 26 24  1  0  0  0  0
 27 28  2  0  0  0  0
 28 25  1  0  0  0  0
 29 27  1  0  0  0  0
M  END
>  <MODEL>
7

>  <REMARK>
 VINA RESULT:      -5.2      3.686      5.763
  Name = 
  2 active torsions:
  status: ('A' for Active; 'I' for Inactive)
    1  A    between atoms: C_8  and  C_9
    2  A    between atoms: N_10  and  C_16
                            x       y       z     vdW  Elec       q    Type
                         _______ _______ _______ _____ _____    ______ ____

>  <TORSDO>
F 2

$$$$
=
 OpenBabel11042423113D

 29 34  0  0  1  0  0  0  0  0999 V2000
  162.3880  208.1630  151.6350 S   0  0  0  0  0  0  0  0  0  0  0  0
  160.8310  204.0110  146.8580 N   0  0  0  0  0  0  0  0  0  0  0  0
  161.4190  206.2440  149.8400 C   0  0  0  0  0  0  0  0  0  0  0  0
  161.1380  207.3160  152.6190 C   0  0  0  0  0  0  0  0  0  0  0  0
  160.9320  205.5550  150.8860 C   0  0  0  0  0  2  0  0  0  0  0  0
  161.3590  205.7170  148.5090 C   0  0  0  0  0  0  0  0  0  0  0  0
  161.4410  206.2070  146.0000 C   0  0  0  0  0  3  0  0  0  0  0  0
  161.0980  204.4090  148.2120 C   0  0  0  0  0  0  0  0  0  0  0  0
  161.8260  207.5780  150.0330 C   0  0  0  0  0  0  0  0  0  0  0  0
  160.6910  206.1180  152.2250 C   0  0  0  0  0  3  0  0  0  0  0  0
  161.8280  207.9340  147.6820 N   0  0  0  0  0  0  0  0  0  0  0  0
  161.5230  206.6340  147.4360 C   0  0  0  0  0  0  0  0  0  0  0  0
  160.9520  204.8050  145.8420 C   0  0  0  0  0  3  0  0  0  0  0  0
  162.0060  208.4100  148.9360 C   0  0  0  0  0  3  0  0  0  0  0  0
  160.5080  200.2210  150.6690 O   0  0  0  0  0  0  0  0  0  0  0  0
  160.5410  202.0330  148.8570 C   0  0  2  0  0  3  0  0  0  0  0  0
  161.1100  203.3780  149.2070 N   0  0  0  0  0  0  0  0  0  0  0  0
  161.9560  203.5590  150.4310 C   0  0  0  0  0  2  0  0  0  0  0  0
  161.2060  201.5140  150.8860 C   0  0  0  0  0  0  0  0  0  0  0  0
  159.1620  202.0420  148.9900 F   0  0  0  0  0  0  0  0  0  0  0  0
  161.1920  200.8810  149.6740 C   0  0  1  0  0  3  0  0  0  0  0  0
  161.5630  202.5950  151.4660 N   0  0  0  0  0  0  0  0  0  0  0  0
  160.2380  208.5640  156.9350 C   0  0  0  0  0  3  0  0  0  0  0  0
  160.4560  207.0570  154.9560 C   0  0  0  0  0  3  0  0  0  0  0  0
  160.7170  207.8890  153.9260 C   0  0  0  0  0  0  0  0  0  0  0  0
  159.9840  207.4150  156.3080 C   0  0  0  0  0  3  0  0  0  0  0  0
  160.5950  210.1230  155.0650 C   0  0  0  0  0  3  0  0  0  0  0  0
  160.4560  209.3480  153.9890 C   0  0  0  0  0  3  0  0  0  0  0  0
  161.1210  209.6220  156.3660 C   0  0  0  0  0  2  0  0  0  0  0  0
  1  4  1  0  0  0  0
  2  8  1  0  0  0  0
  3  9  2  0  0  0  0
  3  5  1  0  0  0  0
  4 25  1  0  0  0  0
  5 10  1  0  0  0  0
  6  3  1  0  0  0  0
  7 12  2  0  0  0  0
  8  6  2  0  0  0  0
  8 17  1  0  0  0  0
  9  1  1  0  0  0  0
 10  4  2  0  0  0  0
 11 14  2  0  0  0  0
 12 11  1  0  0  0  0
 12  6  1  0  0  0  0
 13  7  1  0  0  0  0
 13  2  2  0  0  0  0
 14  9  1  0  0  0  0
 15 19  1  0  0  0  0
 16 20  1  1  0  0  0
 16 17  1  0  0  0  0
 16 21  1  0  0  0  0
 17 18  1  0  0  0  0
 18 22  1  0  0  0  0
 19 22  2  0  0  0  0
 21 15  1  1  0  0  0
 21 19  1  0  0  0  0
 24 26  1  0  0  0  0
 25 28  1  0  0  0  0
 25 24  2  0  0  0  0
 26 23  2  0  0  0  0
 27 29  1  0  0  0  0
 28 27  2  0  0  0  0
 29 23  1  0  0  0  0
M  END
>  <MODEL>
8

>  <REMARK>
 VINA RESULT:      -5.0      5.716      9.435
  Name = 
  2 active torsions:
  status: ('A' for Active; 'I' for Inactive)
    1  A    between atoms: C_8  and  C_9
    2  A    between atoms: N_10  and  C_16
                            x       y       z     vdW  Elec       q    Type
                         _______ _______ _______ _____ _____    ______ ____

>  <TORSDO>
F 2

$$$$
=
 OpenBabel11042423113D

 29 34  0  0  1  0  0  0  0  0999 V2000
  162.5590  206.5380  151.1440 S   0  0  0  0  0  0  0  0  0  0  0  0
  160.0220  212.4350  152.2760 N   0  0  0  0  0  0  0  0  0  0  0  0
  161.3050  209.0400  151.2480 C   0  0  0  0  0  0  0  0  0  0  0  0
  161.8820  206.6950  149.4820 C   0  0  0  0  0  0  0  0  0  0  0  0
  161.3300  209.0750  149.9050 C   0  0  0  0  0  2  0  0  0  0  0  0
  160.8500  210.1630  152.0130 C   0  0  0  0  0  0  0  0  0  0  0  0
  159.9570  211.0150  154.2540 C   0  0  0  0  0  3  0  0  0  0  0  0
  160.6940  211.4230  151.5090 C   0  0  0  0  0  0  0  0  0  0  0  0
  161.5540  207.8180  151.9030 C   0  0  0  0  0  0  0  0  0  0  0  0
  161.5040  207.8990  149.0360 C   0  0  0  0  0  3  0  0  0  0  0  0
  160.6640  208.7020  153.9230 N   0  0  0  0  0  0  0  0  0  0  0  0
  160.4840  209.9260  153.3650 C   0  0  0  0  0  0  0  0  0  0  0  0
  159.6550  212.2730  153.5070 C   0  0  0  0  0  3  0  0  0  0  0  0
  161.2070  207.6680  153.2380 C   0  0  0  0  0  3  0  0  0  0  0  0
  161.4780  213.6090  147.2040 O   0  0  0  0  0  0  0  0  0  0  0  0
  160.5860  212.9760  149.5210 C   0  0  2  0  0  3  0  0  0  0  0  0
  161.2110  211.8080  150.2290 N   0  0  0  0  0  0  0  0  0  0  0  0
  162.5330  211.2600  149.7850 C   0  0  0  0  0  2  0  0  0  0  0  0
  162.1550  212.5800  148.0340 C   0  0  0  0  0  0  0  0  0  0  0  0
  159.4380  212.5780  148.8540 F   0  0  0  0  0  0  0  0  0  0  0  0
  161.5830  213.7000  148.5730 C   0  0  1  0  0  3  0  0  0  0  0  0
  162.7120  211.4730  148.3430 N   0  0  0  0  0  0  0  0  0  0  0  0
  161.2060  202.9470  146.9350 C   0  0  0  0  0  3  0  0  0  0  0  0
  161.2750  204.3780  148.9800 C   0  0  0  0  0  3  0  0  0  0  0  0
  161.8770  205.5160  148.5750 C   0  0  0  0  0  0  0  0  0  0  0  0
  161.2000  203.0920  148.2600 C   0  0  0  0  0  3  0  0  0  0  0  0
  162.4120  204.9570  146.1870 C   0  0  0  0  0  3  0  0  0  0  0  0
  162.6720  205.6000  147.3260 C   0  0  0  0  0  3  0  0  0  0  0  0
  161.2080  204.1020  145.9920 C   0  0  0  0  0  2  0  0  0  0  0  0
  1  9  1  0  0  0  0
  2 13  1  0  0  0  0
  3  9  2  0  0  0  0
  3  6  1  0  0  0  0
  4  1  1  0  0  0  0
  5  3  1  0  0  0  0
  6 12  2  0  0  0  0
  8  6  1  0  0  0  0
  8  2  2  0  0  0  0
  9 14  1  0  0  0  0
 10  4  2  0  0  0  0
 10  5  1  0  0  0  0
 12 11  1  0  0  0  0
 12  7  1  0  0  0  0
 13  7  2  0  0  0  0
 14 11  2  0  0  0  0
 15 19  1  0  0  0  0
 16 20  1  6  0  0  0
 16 17  1  0  0  0  0
 17  8  1  0  0  0  0
 18 17  1  0  0  0  0
 19 22  2  0  0  0  0
 19 21  1  0  0  0  0
 21 15  1  6  0  0  0
 21 16  1  0  0  0  0
 22 18  1  0  0  0  0
 23 26  2  0  0  0  0
 25 24  2  0  0  0  0
 25  4  1  0  0  0  0
 26 24  1  0  0  0  0
 27 28  2  0  0  0  0
 28 25  1  0  0  0  0
 29 27  1  0  0  0  0
 29 23  1  0  0  0  0
M  END
>  <MODEL>
9

>  <REMARK>
 VINA RESULT:      -4.8      2.946      4.434
  Name = 
  2 active torsions:
  status: ('A' for Active; 'I' for Inactive)
    1  A    between atoms: C_8  and  C_9
    2  A    between atoms: N_10  and  C_16
                            x       y       z     vdW  Elec       q    Type
                         _______ _______ _______ _____ _____    ______ ____

>  <TORSDO>
F 2

$$$$
