=
 OpenBabel11042421473D

 63 68  0  0  1  0  0  0  0  0999 V2000
  160.3310  203.2220  145.7570 C   0  0  2  0  0  3  0  0  0  0  0  0
  161.0460  205.5530  146.2980 C   0  0  0  0  0  3  0  0  0  0  0  0
  160.8440  204.5940  145.3780 C   0  0  0  0  0  0  0  0  0  0  0  0
  161.5250  200.7610  148.2420 C   0  0  0  0  0  2  0  0  0  0  0  0
  161.6690  201.9730  148.9460 O   0  0  0  0  0  0  0  0  0  0  0  0
  161.6910  204.3410  148.3910 C   0  0  1  0  0  3  0  0  0  0  0  0
  161.0920  202.9600  148.1300 C   0  0  1  0  0  3  0  0  0  0  0  0
  160.7930  205.4040  147.7680 C   0  0  0  0  0  2  0  0  0  0  0  0
  161.1280  201.0540  146.8090 C   0  0  0  0  0  2  0  0  0  0  0  0
  161.3200  202.5350  146.7030 C   0  0  1  0  0  3  0  0  0  0  0  0
  158.8030  202.6350  144.2620 C   0  0  0  0  0  1  0  0  0  0  0  0
  160.1430  202.4470  144.6070 O   0  0  0  0  0  0  0  0  0  0  0  0
  161.1070  204.8530  144.0260 O   0  0  0  0  0  0  0  0  0  0  0  0
  161.6260  206.0940  143.5600 C   0  0  0  0  0  2  0  0  0  0  0  0
  162.3160  205.8910  142.2220 C   0  0  0  0  0  2  0  0  0  0  0  0
  161.4980  206.3400  141.1850 O   0  0  0  0  0  0  0  0  0  0  0  0
  162.3030  207.2130  140.4590 C   0  0  0  0  0  2  0  0  0  0  0  0
  161.6070  207.6130  139.1680 C   0  0  0  0  0  2  0  0  0  0  0  0
  161.4300  209.1200  139.1410 C   0  0  0  0  0  2  0  0  0  0  0  0
  162.4330  209.7560  138.1940 C   0  0  0  0  0  2  0  0  0  0  0  0
  161.7670  210.8920  137.4330 C   0  0  1  0  0  3  0  0  0  0  0  0
  160.3470  210.4930  137.0110 C   0  0  0  0  0  2  0  0  0  0  0  0
  159.6240  213.4590  139.2500 C   0  0  0  0  0  2  0  0  0  0  0  0
  158.2750  210.9710  138.3730 C   0  0  0  0  0  2  0  0  0  0  0  0
  158.1020  213.4630  139.1380 C   0  0  0  0  0  2  0  0  0  0  0  0
  159.3880  211.5810  137.5200 C   0  0  1  0  0  3  0  0  0  0  0  0
  157.5410  212.0320  139.2470 C   0  0  1  0  0  3  0  0  0  0  0  0
  162.4590  212.6780  138.9120 O   0  0  0  0  0  0  0  0  0  0  0  0
  160.1910  212.4710  138.3370 N   0  0  0  0  0  0  0  0  0  0  0  0
  161.5410  212.0600  138.3110 C   0  0  0  0  0  0  0  0  0  0  0  0
  155.4410  213.0120  139.9600 C   0  0  0  0  0  2  0  0  0  0  0  0
  155.7910  212.3660  137.6560 C   0  0  0  0  0  2  0  0  0  0  0  0
  154.3090  212.1020  137.3500 C   0  0  0  0  0  2  0  0  0  0  0  0
  156.0840  212.0390  139.0530 N   0  0  1  0  0  0  0  0  0  0  0  0
  153.3900  212.4010  138.5470 C   0  0  2  0  0  3  0  0  0  0  0  0
  154.0190  213.4070  139.5200 C   0  0  0  0  0  2  0  0  0  0  0  0
  152.9210  211.1210  139.2450 C   0  0  2  0  0  0  0  0  0  0  0  0
  153.7780  209.0740  139.9140 O   0  0  0  0  0  1  0  0  0  0  0  0
  152.3260  210.0440  138.4580 C   0  0  0  0  0  2  0  0  0  0  0  0
  152.5350  211.1680  140.5960 O   0  0  0  0  0  1  0  0  0  0  0  0
  153.7450  209.9430  138.8740 N   0  0  0  0  0  0  0  0  0  0  0  0
  161.8060  204.6160  149.8770 C   0  0  0  0  0  2  0  0  0  0  0  0
  160.5660  205.3500  150.3450 C   0  0  0  0  0  2  0  0  0  0  0  0
  160.9920  207.4400  151.6850 N   0  0  0  0  0  2  0  0  0  0  0  0
  160.7480  207.5270  149.3630 O   0  0  0  0  0  0  0  0  0  0  0  0
  160.8030  206.8220  150.4090 C   0  0  0  0  0  0  0  0  0  0  0  0
  160.9030  208.8860  151.8690 C   0  0  1  0  0  3  0  0  0  0  0  0
  160.8380  209.2200  153.3680 C   0  0  1  0  0  3  0  0  0  0  0  0
  160.1260  210.5510  153.6490 C   0  0  0  0  0  2  0  0  0  0  0  0
  159.6720  210.6620  155.0950 C   0  0  0  0  0  2  0  0  0  0  0  0
  158.4090  211.4960  155.1640 C   0  0  0  0  0  2  0  0  0  0  0  0
  157.9280  213.9130  154.9520 C   0  0  0  0  0  1  0  0  0  0  0  0
  158.7500  212.8740  155.6870 C   0  0  0  0  0  2  0  0  0  0  0  0
  160.1860  208.0910  154.1630 C   0  0  0  0  0  2  0  0  0  0  0  0
  161.1870  207.4320  155.1000 C   0  0  0  0  0  2  0  0  0  0  0  0
  160.9390  207.8080  156.4220 O   0  0  0  0  0  0  0  0  0  0  0  0
  162.2790  209.7450  156.7690 C   0  0  0  0  0  1  0  0  0  0  0  0
  162.1780  208.2380  156.8950 C   0  0  0  0  0  2  0  0  0  0  0  0
  162.0630  209.5230  151.2580 N   0  0  0  0  0  2  0  0  0  0  0  0
  161.5930  210.7310  150.5930 C   0  0  0  0  0  2  0  0  0  0  0  0
  161.9970  212.1850  148.7300 O   0  0  0  0  0  1  0  0  0  0  0  0
  162.3660  210.9670  149.3050 C   0  0  0  0  0  3  0  0  0  0  0  0
  162.1150  209.9300  148.4060 O   0  0  0  0  0  1  0  0  0  0  0  0
  1 12  1  6  0  0  0
  1 10  1  0  0  0  0
  2  8  1  0  0  0  0
  3  1  1  0  0  0  0
  3  2  2  0  0  0  0
  4  5  1  0  0  0  0
  6 42  1  1  0  0  0
  7  6  1  0  0  0  0
  7  5  1  1  0  0  0
  8  6  1  0  0  0  0
  9  4  1  0  0  0  0
 10  9  1  1  0  0  0
 10  7  1  0  0  0  0
 11 12  1  0  0  0  0
 13  3  1  0  0  0  0
 14 13  1  0  0  0  0
 15 14  1  0  0  0  0
 16 15  1  0  0  0  0
 17 16  1  0  0  0  0
 18 17  1  0  0  0  0
 19 18  1  0  0  0  0
 20 19  1  0  0  0  0
 21 20  1  1  0  0  0
 21 30  1  0  0  0  0
 22 21  1  0  0  0  0
 25 27  1  0  0  0  0
 25 23  1  0  0  0  0
 26 22  1  1  0  0  0
 26 29  1  0  0  0  0
 26 24  1  0  0  0  0
 27 24  1  6  0  0  0
 29 23  1  0  0  0  0
 30 29  1  0  0  0  0
 30 28  2  0  0  0  0
 33 32  1  0  0  0  0
 34 32  1  6  0  0  0
 34 27  1  0  0  0  0
 34 31  1  0  0  0  0
 35 33  1  6  0  0  0
 35 37  1  0  0  0  0
 35 36  1  0  0  0  0
 36 31  1  0  0  0  0
 37 40  1  1  0  0  0
 39 41  1  0  0  0  0
 39 37  1  0  0  0  0
 41 37  1  0  0  0  0
 41 38  1  0  0  0  0
 42 43  1  0  0  0  0
 43 46  1  0  0  0  0
 44 47  1  0  0  0  0
 45 46  2  0  0  0  0
 46 44  1  0  0  0  0
 47 59  1  1  0  0  0
 47 48  1  0  0  0  0
 48 49  1  6  0  0  0
 48 54  1  0  0  0  0
 49 50  1  0  0  0  0
 50 51  1  0  0  0  0
 51 53  1  0  0  0  0
 52 53  1  0  0  0  0
 54 55  1  0  0  0  0
 55 56  1  0  0  0  0
 56 58  1  0  0  0  0
 57 58  1  0  0  0  0
 60 59  1  0  0  0  0
 61 62  1  0  0  0  0
 62 60  1  0  0  0  0
 63 62  1  0  0  0  0
M  END
>  <MODEL>
1

>  <REMARK>
 VINA RESULT:      -4.0      0.000      0.000
  Name = 
  28 active torsions:
  status: ('A' for Active; 'I' for Inactive)
    1  A    between atoms: C_1  and  C_34
    2  A    between atoms: C_2  and  C_7
    3  A    between atoms: C_2  and  O_25
    4  A    between atoms: C_4  and  C_37
    5  A    between atoms: C_7  and  O_54
    6  A    between atoms: N_9  and  C_38
    7  A    between atoms: C_10  and  O_50
    8  A    between atoms: N_14  and  C_29
    9  A    between atoms: N_14  and  C_57
   10  A    between atoms: N_15  and  C_57
   11  A    between atoms: C_20  and  C_33
   12  A    between atoms: C_20  and  C_55
   13  A    between atoms: C_21  and  C_57
   14  A    between atoms: C_21  and  C_58
   15  A    between atoms: C_21  and  C_62
   16  A    between atoms: C_22  and  C_41
   17  A    between atoms: C_22  and  C_61
   18  A    between atoms: O_25  and  C_26
   19  A    between atoms: C_28  and  C_29
   20  A    between atoms: C_32  and  O_36
   21  A    between atoms: C_32  and  C_62
   22  A    between atoms: C_33  and  C_58
   23  A    between atoms: C_34  and  C_56
   24  A    between atoms: C_35  and  O_54
   25  A    between atoms: C_35  and  C_59
   26  A    between atoms: O_36  and  C_60
   27  A    between atoms: C_44  and  C_61
   28  A    between atoms: C_56  and  C_59
                            x       y       z     vdW  Elec       q    Type
                         _______ _______ _______ _____ _____    ______ ____

>  <TORSDO>
F 28

$$$$
=
 OpenBabel11042421473D

 63 68  0  0  1  0  0  0  0  0999 V2000
  162.4290  205.0700  147.3330 C   0  0  2  0  0  3  0  0  0  0  0  0
  160.6710  203.9850  148.7350 C   0  0  0  0  0  3  0  0  0  0  0  0
  161.2740  204.1150  147.5410 C   0  0  0  0  0  0  0  0  0  0  0  0
  162.7820  208.6790  148.0430 C   0  0  0  0  0  2  0  0  0  0  0  0
  162.0880  208.2280  149.1830 O   0  0  0  0  0  0  0  0  0  0  0  0
  160.8450  206.2360  149.8160 C   0  0  1  0  0  3  0  0  0  0  0  0
  162.0420  206.8290  149.0740 C   0  0  1  0  0  3  0  0  0  0  0  0
  161.0480  204.7340  149.9780 C   0  0  0  0  0  2  0  0  0  0  0  0
  162.8940  207.5480  147.0410 C   0  0  0  0  0  2  0  0  0  0  0  0
  161.9770  206.5070  147.6040 C   0  0  1  0  0  3  0  0  0  0  0  0
  164.1650  204.3440  146.1590 C   0  0  0  0  0  1  0  0  0  0  0  0
  162.9150  204.9530  146.0250 O   0  0  0  0  0  0  0  0  0  0  0  0
  160.8390  203.3520  146.4480 O   0  0  0  0  0  0  0  0  0  0  0  0
  160.4440  203.9280  145.2080 C   0  0  0  0  0  2  0  0  0  0  0  0
  160.0280  205.3730  145.4250 C   0  0  0  0  0  2  0  0  0  0  0  0
  160.7490  206.2140  144.5770 O   0  0  0  0  0  0  0  0  0  0  0  0
  161.0160  205.4340  143.4560 C   0  0  0  0  0  2  0  0  0  0  0  0
  162.1540  206.0420  142.6540 C   0  0  0  0  0  2  0  0  0  0  0  0
  161.5960  206.6710  141.3910 C   0  0  0  0  0  2  0  0  0  0  0  0
  162.4530  206.3040  140.1910 C   0  0  0  0  0  2  0  0  0  0  0  0
  162.5180  207.4800  139.2310 C   0  0  1  0  0  3  0  0  0  0  0  0
  161.2020  207.6080  138.4510 C   0  0  0  0  0  2  0  0  0  0  0  0
  161.2760  210.9220  140.2790 C   0  0  0  0  0  2  0  0  0  0  0  0
  159.2620  209.0550  139.1700 C   0  0  0  0  0  2  0  0  0  0  0  0
  159.9660  211.5010  139.7530 C   0  0  0  0  0  2  0  0  0  0  0  0
  160.6930  209.0470  138.6310 C   0  0  1  0  0  3  0  0  0  0  0  0
  158.8530  210.4360  139.7630 C   0  0  1  0  0  3  0  0  0  0  0  0
  163.5230  209.0580  140.7680 O   0  0  0  0  0  0  0  0  0  0  0  0
  161.5770  209.6660  139.5990 N   0  0  0  0  0  0  0  0  0  0  0  0
  162.5990  208.7620  139.9640 C   0  0  0  0  0  0  0  0  0  0  0  0
  157.2540  212.2570  139.8220 C   0  0  0  0  0  2  0  0  0  0  0  0
  157.8210  211.1710  137.7380 C   0  0  0  0  0  2  0  0  0  0  0  0
  156.4800  211.4610  137.0490 C   0  0  0  0  0  2  0  0  0  0  0  0
  157.6200  210.9810  139.1760 N   0  0  1  0  0  0  0  0  0  0  0  0
  155.5220  212.2800  137.9320 C   0  0  2  0  0  3  0  0  0  0  0  0
  156.2710  213.1010  138.9900 C   0  0  0  0  0  2  0  0  0  0  0  0
  154.4130  211.4130  138.5350 C   0  0  2  0  0  0  0  0  0  0  0  0
  154.1580  209.3340  139.5260 O   0  0  0  0  0  1  0  0  0  0  0  0
  153.6290  210.5360  137.6710 C   0  0  0  0  0  2  0  0  0  0  0  0
  153.7750  211.8260  139.7180 O   0  0  0  0  0  1  0  0  0  0  0  0
  154.7350  209.9660  138.4750 N   0  0  0  0  0  0  0  0  0  0  0  0
  160.6920  206.8540  151.1910 C   0  0  0  0  0  2  0  0  0  0  0  0
  162.0090  207.4820  151.6030 C   0  0  0  0  0  2  0  0  0  0  0  0
  160.4570  208.9510  152.9360 N   0  0  0  0  0  2  0  0  0  0  0  0
  162.7650  209.3100  152.9540 O   0  0  0  0  0  0  0  0  0  0  0  0
  161.7920  208.6080  152.5570 C   0  0  0  0  0  0  0  0  0  0  0  0
  160.1330  210.2160  153.5890 C   0  0  1  0  0  3  0  0  0  0  0  0
  159.2710  211.0820  152.6560 C   0  0  1  0  0  3  0  0  0  0  0  0
  158.0280  211.6520  153.3560 C   0  0  0  0  0  2  0  0  0  0  0  0
  158.3290  212.1040  154.7750 C   0  0  0  0  0  2  0  0  0  0  0  0
  157.4570  213.2950  155.1190 C   0  0  0  0  0  2  0  0  0  0  0  0
  159.3130  213.3140  156.7520 C   0  0  0  0  0  1  0  0  0  0  0  0
  158.0670  214.0380  156.2870 C   0  0  0  0  0  2  0  0  0  0  0  0
  160.0890  212.2080  152.0270 C   0  0  0  0  0  2  0  0  0  0  0  0
  159.3160  212.8830  150.9040 C   0  0  0  0  0  2  0  0  0  0  0  0
  160.0000  214.0150  150.4530 O   0  0  0  0  0  0  0  0  0  0  0  0
  160.1460  213.2540  148.2020 C   0  0  0  0  0  1  0  0  0  0  0  0
  159.5020  214.2280  149.1690 C   0  0  0  0  0  2  0  0  0  0  0  0
  159.4230  209.9510  154.8340 N   0  0  0  0  0  2  0  0  0  0  0  0
  159.7120  208.5740  155.2130 C   0  0  0  0  0  2  0  0  0  0  0  0
  160.1890  209.7350  157.2560 O   0  0  0  0  0  1  0  0  0  0  0  0
  160.3640  208.5230  156.5850 C   0  0  0  0  0  3  0  0  0  0  0  0
  161.7270  208.2550  156.4520 O   0  0  0  0  0  1  0  0  0  0  0  0
  1 12  1  6  0  0  0
  1  3  1  0  0  0  0
  1 10  1  0  0  0  0
  2  8  1  0  0  0  0
  3  2  2  0  0  0  0
  4  5  1  0  0  0  0
  6  8  1  0  0  0  0
  6 42  1  1  0  0  0
  7  5  1  6  0  0  0
  7  6  1  0  0  0  0
  9  4  1  0  0  0  0
 10  9  1  6  0  0  0
 10  7  1  0  0  0  0
 12 11  1  0  0  0  0
 13  3  1  0  0  0  0
 14 15  1  0  0  0  0
 14 13  1  0  0  0  0
 16 15  1  0  0  0  0
 17 16  1  0  0  0  0
 18 17  1  0  0  0  0
 19 18  1  0  0  0  0
 20 19  1  0  0  0  0
 21 30  1  0  0  0  0
 21 20  1  1  0  0  0
 22 21  1  0  0  0  0
 25 27  1  0  0  0  0
 25 23  1  0  0  0  0
 26 22  1  1  0  0  0
 26 24  1  0  0  0  0
 26 29  1  0  0  0  0
 27 24  1  6  0  0  0
 29 30  1  0  0  0  0
 29 23  1  0  0  0  0
 30 28  2  0  0  0  0
 33 32  1  0  0  0  0
 34 32  1  6  0  0  0
 34 27  1  0  0  0  0
 34 31  1  0  0  0  0
 35 33  1  1  0  0  0
 35 37  1  0  0  0  0
 35 36  1  0  0  0  0
 36 31  1  0  0  0  0
 37 40  1  1  0  0  0
 39 41  1  0  0  0  0
 39 37  1  0  0  0  0
 41 37  1  0  0  0  0
 41 38  1  0  0  0  0
 42 43  1  0  0  0  0
 43 46  1  0  0  0  0
 46 44  1  0  0  0  0
 46 45  2  0  0  0  0
 47 44  1  6  0  0  0
 47 59  1  0  0  0  0
 48 54  1  1  0  0  0
 48 49  1  0  0  0  0
 48 47  1  0  0  0  0
 49 50  1  0  0  0  0
 50 51  1  0  0  0  0
 51 53  1  0  0  0  0
 53 52  1  0  0  0  0
 55 54  1  0  0  0  0
 56 55  1  0  0  0  0
 57 58  1  0  0  0  0
 58 56  1  0  0  0  0
 59 60  1  0  0  0  0
 60 62  1  0  0  0  0
 62 61  1  0  0  0  0
 63 62  1  0  0  0  0
M  END
>  <MODEL>
2

>  <REMARK>
 VINA RESULT:      -1.1      1.962      4.366
  Name = 
  28 active torsions:
  status: ('A' for Active; 'I' for Inactive)
    1  A    between atoms: C_1  and  C_34
    2  A    between atoms: C_2  and  C_7
    3  A    between atoms: C_2  and  O_25
    4  A    between atoms: C_4  and  C_37
    5  A    between atoms: C_7  and  O_54
    6  A    between atoms: N_9  and  C_38
    7  A    between atoms: C_10  and  O_50
    8  A    between atoms: N_14  and  C_29
    9  A    between atoms: N_14  and  C_57
   10  A    between atoms: N_15  and  C_57
   11  A    between atoms: C_20  and  C_33
   12  A    between atoms: C_20  and  C_55
   13  A    between atoms: C_21  and  C_57
   14  A    between atoms: C_21  and  C_58
   15  A    between atoms: C_21  and  C_62
   16  A    between atoms: C_22  and  C_41
   17  A    between atoms: C_22  and  C_61
   18  A    between atoms: O_25  and  C_26
   19  A    between atoms: C_28  and  C_29
   20  A    between atoms: C_32  and  O_36
   21  A    between atoms: C_32  and  C_62
   22  A    between atoms: C_33  and  C_58
   23  A    between atoms: C_34  and  C_56
   24  A    between atoms: C_35  and  O_54
   25  A    between atoms: C_35  and  C_59
   26  A    between atoms: O_36  and  C_60
   27  A    between atoms: C_44  and  C_61
   28  A    between atoms: C_56  and  C_59
                            x       y       z     vdW  Elec       q    Type
                         _______ _______ _______ _____ _____    ______ ____

>  <TORSDO>
F 28

$$$$
