=
 OpenBabel11052410343D

 40 42  0  0  1  0  0  0  0  0999 V2000
  161.2130  209.7270  153.3400 C   0  0  0  0  0  2  0  0  0  0  0  0
  160.6350  209.1680  152.0450 C   0  0  0  0  0  2  0  0  0  0  0  0
  161.6420  209.2060  150.9430 C   0  0  0  0  0  0  0  0  0  0  0  0
  162.6190  209.9310  151.0420 O   0  0  0  0  0  0  0  0  0  0  0  0
  161.4120  208.3770  149.7120 C   0  0  1  0  0  3  0  0  0  0  0  0
  162.5140  208.5640  148.6820 C   0  0  0  0  0  1  0  0  0  0  0  0
  161.3550  204.7300  153.0900 C   0  0  0  0  0  1  0  0  0  0  0  0
  160.6840  204.2570  150.7330 C   0  0  0  0  0  3  0  0  0  0  0  0
  161.1310  206.9320  150.0190 C   0  0  0  0  0  0  0  0  0  0  0  0
  160.4780  204.6710  149.4150 C   0  0  0  0  0  3  0  0  0  0  0  0
  161.1180  205.1720  151.6920 C   0  0  0  0  0  0  0  0  0  0  0  0
  160.7090  206.0020  149.0400 C   0  0  0  0  0  0  0  0  0  0  0  0
  161.3440  206.5010  151.3340 C   0  0  0  0  0  3  0  0  0  0  0  0
  160.4450  206.4450  147.6980 N   0  0  0  0  0  2  0  0  0  0  0  0
  160.6540  205.7440  146.4670 C   0  0  0  0  0  0  0  0  0  0  0  0
  160.0740  206.1910  145.4020 N   0  0  0  0  0  2  0  0  0  0  0  0
  163.3660  205.0770  147.0020 O   0  0  0  0  0  1  0  0  0  0  0  0
  161.9430  204.5060  146.2830 P   0  0  1  0  0  0  0  0  0  0  0  0
  161.4520  202.9610  147.1030 C   0  0  0  0  0  1  0  0  0  0  0  0
  162.2060  204.2430  144.8200 O   0  0  0  0  0  0  0  0  0  0  0  0
  160.2090  209.6460  154.4860 C   0  0  2  0  0  3  0  0  0  0  0  0
  160.1080  212.1890  154.2010 C   0  0  1  0  0  3  0  0  0  0  0  0
  159.0370  211.3510  155.9770 C   0  0  2  0  0  3  0  0  0  0  0  0
  159.8560  212.9750  155.8330 S   0  0  0  0  0  0  0  0  0  0  0  0
  159.3460  210.9210  154.5540 C   0  0  2  0  0  3  0  0  0  0  0  0
  156.3970  210.3990  155.7900 S   0  0  0  0  0  0  0  0  0  0  0  0
  154.6340  213.6610  157.2600 S   0  0  0  0  0  0  0  0  0  0  0  0
  156.9570  212.6160  156.6600 N   0  0  0  0  0  0  0  0  0  0  0  0
  157.5630  211.5170  156.1640 C   0  0  0  0  0  0  0  0  0  0  0  0
  155.5970  212.4680  156.7030 C   0  0  0  0  0  0  0  0  0  0  0  0
  155.0740  211.2910  156.2590 N   0  0  0  0  0  2  0  0  0  0  0  0
  159.4010  212.9100  153.0900 C   0  0  0  0  0  0  0  0  0  0  0  0
  159.8810  212.8430  151.7450 N   0  0  0  0  0  2  0  0  0  0  0  0
  158.4030  213.6250  153.3680 O   0  0  0  0  0  0  0  0  0  0  0  0
  158.0040  213.1910  150.4000 O   0  0  0  0  0  1  0  0  0  0  0  0
  159.3060  213.6260  150.6610 C   0  0  2  0  0  3  0  0  0  0  0  0
  160.1510  213.4410  149.4160 C   0  0  0  0  0  1  0  0  0  0  0  0
  160.9490  209.3340  155.7850 C   0  0  0  0  0  2  0  0  0  0  0  0
  159.6090  207.2820  155.3610 C   0  0  0  0  0  1  0  0  0  0  0  0
  160.6920  207.8980  156.2220 C   0  0  0  0  0  2  0  0  0  0  0  0
  2  1  1  0  0  0  0
  3  4  2  0  0  0  0
  3  2  1  0  0  0  0
  5  6  1  6  0  0  0
  5  9  1  0  0  0  0
  5  3  1  0  0  0  0
  8 11  1  0  0  0  0
  9 13  1  0  0  0  0
 10  8  2  0  0  0  0
 11  7  1  0  0  0  0
 12 10  1  0  0  0  0
 12  9  2  0  0  0  0
 13 11  2  0  0  0  0
 14 12  1  0  0  0  0
 15 14  1  0  0  0  0
 16 15  2  0  0  0  0
 18 15  1  0  0  0  0
 18 17  1  0  0  0  0
 18 19  1  1  0  0  0
 20 18  2  0  0  0  0
 21  1  1  6  0  0  0
 21 38  1  0  0  0  0
 22 32  1  6  0  0  0
 22 25  1  0  0  0  0
 22 24  1  0  0  0  0
 23 29  1  6  0  0  0
 24 23  1  0  0  0  0
 25 21  1  1  0  0  0
 25 23  1  0  0  0  0
 26 29  1  0  0  0  0
 26 31  1  0  0  0  0
 28 30  1  0  0  0  0
 29 28  2  0  0  0  0
 30 27  2  0  0  0  0
 31 30  1  0  0  0  0
 32 34  2  0  0  0  0
 33 32  1  0  0  0  0
 35 36  1  0  0  0  0
 36 37  1  6  0  0  0
 36 33  1  0  0  0  0
 38 40  1  0  0  0  0
 39 40  1  0  0  0  0
M  END
>  <MODEL>
1

>  <REMARK>
 VINA RESULT:      -6.7      0.000      0.000
  Name = 
  13 active torsions:
  status: ('A' for Active; 'I' for Inactive)
    1  A    between atoms: C_2  and  C_12
    2  A    between atoms: C_2  and  C_23
    3  A    between atoms: C_3  and  C_8
    4  A    between atoms: C_6  and  C_30
    5  A    between atoms: C_7  and  C_11
    6  A    between atoms: C_11  and  C_12
    7  A    between atoms: N_18  and  C_25
    8  A    between atoms: C_19  and  P_20
    9  A    between atoms: C_22  and  N_27
   10  A    between atoms: C_23  and  C_29
   11  A    between atoms: C_28  and  C_29
   12  A    between atoms: C_29  and  C_36
   13  A    between atoms: C_33  and  C_36
                            x       y       z     vdW  Elec       q    Type
                         _______ _______ _______ _____ _____    ______ ____

>  <TORSDO>
F 13

$$$$
=
 OpenBabel11052410343D

 40 42  0  0  1  0  0  0  0  0999 V2000
  159.8220  210.9000  151.8990 C   0  0  0  0  0  2  0  0  0  0  0  0
  160.5930  209.6220  152.2130 C   0  0  0  0  0  2  0  0  0  0  0  0
  161.6590  209.3710  151.1980 C   0  0  0  0  0  0  0  0  0  0  0  0
  162.7760  209.8300  151.3680 O   0  0  0  0  0  0  0  0  0  0  0  0
  161.3220  208.5870  149.9610 C   0  0  1  0  0  3  0  0  0  0  0  0
  162.3050  208.8490  148.8320 C   0  0  0  0  0  1  0  0  0  0  0  0
  161.3410  204.8750  153.2680 C   0  0  0  0  0  1  0  0  0  0  0  0
  160.7870  204.4140  150.8790 C   0  0  0  0  0  3  0  0  0  0  0  0
  161.1110  207.1230  150.2310 C   0  0  0  0  0  0  0  0  0  0  0  0
  160.6070  204.8420  149.5620 C   0  0  0  0  0  3  0  0  0  0  0  0
  161.1330  205.3320  151.8710 C   0  0  0  0  0  0  0  0  0  0  0  0
  160.7780  206.1910  149.2200 C   0  0  0  0  0  0  0  0  0  0  0  0
  161.2970  206.6780  151.5450 C   0  0  0  0  0  3  0  0  0  0  0  0
  160.5400  206.6460  147.8780 N   0  0  0  0  0  2  0  0  0  0  0  0
  160.7350  205.9400  146.6460 C   0  0  0  0  0  0  0  0  0  0  0  0
  160.1790  206.4090  145.5780 N   0  0  0  0  0  2  0  0  0  0  0  0
  163.3970  205.1520  147.2580 O   0  0  0  0  0  1  0  0  0  0  0  0
  161.9820  204.6600  146.4690 P   0  0  1  0  0  0  0  0  0  0  0  0
  161.4030  203.1100  147.2210 C   0  0  0  0  0  1  0  0  0  0  0  0
  162.2910  204.4310  145.0090 O   0  0  0  0  0  0  0  0  0  0  0  0
  160.1590  212.0170  152.8810 C   0  0  2  0  0  3  0  0  0  0  0  0
  159.0000  212.6040  155.0870 C   0  0  1  0  0  3  0  0  0  0  0  0
  161.0420  211.7070  155.2530 C   0  0  2  0  0  3  0  0  0  0  0  0
  160.2620  212.9170  156.3730 S   0  0  0  0  0  0  0  0  0  0  0  0
  159.8440  211.5920  154.3280 C   0  0  2  0  0  3  0  0  0  0  0  0
  162.6510  209.9960  156.8010 S   0  0  0  0  0  0  0  0  0  0  0  0
  160.0790  206.9510  156.9310 S   0  0  0  0  0  0  0  0  0  0  0  0
  160.4210  209.3750  156.0100 N   0  0  0  0  0  0  0  0  0  0  0  0
  161.2840  210.4120  155.9600 C   0  0  0  0  0  0  0  0  0  0  0  0
  160.9310  208.3270  156.7270 C   0  0  0  0  0  0  0  0  0  0  0  0
  162.1760  208.4710  157.2600 N   0  0  0  0  0  2  0  0  0  0  0  0
  157.7700  211.9330  155.6270 C   0  0  0  0  0  0  0  0  0  0  0  0
  156.5370  211.9610  154.9030 N   0  0  0  0  0  2  0  0  0  0  0  0
  157.8240  211.3850  156.7590 O   0  0  0  0  0  0  0  0  0  0  0  0
  155.2470  211.6510  156.8250 O   0  0  0  0  0  1  0  0  0  0  0  0
  155.2920  211.4380  155.4440 C   0  0  2  0  0  3  0  0  0  0  0  0
  155.2210  209.9480  155.1700 C   0  0  0  0  0  1  0  0  0  0  0  0
  159.4540  213.3000  152.4480 C   0  0  0  0  0  2  0  0  0  0  0  0
  158.2670  214.0160  150.3830 C   0  0  0  0  0  1  0  0  0  0  0  0
  158.3040  212.9920  151.5000 C   0  0  0  0  0  2  0  0  0  0  0  0
  1  2  1  0  0  0  0
  3  4  2  0  0  0  0
  3  2  1  0  0  0  0
  5  6  1  6  0  0  0
  5  9  1  0  0  0  0
  5  3  1  0  0  0  0
  8 11  1  0  0  0  0
  9 13  1  0  0  0  0
 10  8  2  0  0  0  0
 11  7  1  0  0  0  0
 12 10  1  0  0  0  0
 12  9  2  0  0  0  0
 13 11  2  0  0  0  0
 14 12  1  0  0  0  0
 15 14  1  0  0  0  0
 16 15  2  0  0  0  0
 18 15  1  0  0  0  0
 18 19  1  1  0  0  0
 18 17  1  0  0  0  0
 20 18  2  0  0  0  0
 21  1  1  6  0  0  0
 22 32  1  1  0  0  0
 22 24  1  0  0  0  0
 23 29  1  1  0  0  0
 23 24  1  0  0  0  0
 25 21  1  6  0  0  0
 25 22  1  0  0  0  0
 25 23  1  0  0  0  0
 26 31  1  0  0  0  0
 28 30  1  0  0  0  0
 29 28  2  0  0  0  0
 29 26  1  0  0  0  0
 30 27  2  0  0  0  0
 30 31  1  0  0  0  0
 32 34  2  0  0  0  0
 33 36  1  0  0  0  0
 33 32  1  0  0  0  0
 36 37  1  1  0  0  0
 36 35  1  0  0  0  0
 38 21  1  0  0  0  0
 39 40  1  0  0  0  0
 40 38  1  0  0  0  0
M  END
>  <MODEL>
2

>  <REMARK>
 VINA RESULT:      -6.2      2.170      4.031
  Name = 
  13 active torsions:
  status: ('A' for Active; 'I' for Inactive)
    1  A    between atoms: C_2  and  C_12
    2  A    between atoms: C_2  and  C_23
    3  A    between atoms: C_3  and  C_8
    4  A    between atoms: C_6  and  C_30
    5  A    between atoms: C_7  and  C_11
    6  A    between atoms: C_11  and  C_12
    7  A    between atoms: N_18  and  C_25
    8  A    between atoms: C_19  and  P_20
    9  A    between atoms: C_22  and  N_27
   10  A    between atoms: C_23  and  C_29
   11  A    between atoms: C_28  and  C_29
   12  A    between atoms: C_29  and  C_36
   13  A    between atoms: C_33  and  C_36
                            x       y       z     vdW  Elec       q    Type
                         _______ _______ _______ _____ _____    ______ ____

>  <TORSDO>
F 13

$$$$
=
 OpenBabel11052410343D

 40 42  0  0  1  0  0  0  0  0999 V2000
  160.5110  209.4030  151.9770 C   0  0  0  0  0  2  0  0  0  0  0  0
  161.9770  208.9840  151.9900 C   0  0  0  0  0  2  0  0  0  0  0  0
  162.1870  207.7290  151.2090 C   0  0  0  0  0  0  0  0  0  0  0  0
  163.1530  207.0220  151.4500 O   0  0  0  0  0  0  0  0  0  0  0  0
  161.2240  207.3800  150.1110 C   0  0  1  0  0  3  0  0  0  0  0  0
  161.5480  208.1040  148.8140 C   0  0  0  0  0  1  0  0  0  0  0  0
  161.2870  202.8550  152.1700 C   0  0  0  0  0  1  0  0  0  0  0  0
  160.7910  203.1110  149.7380 C   0  0  0  0  0  3  0  0  0  0  0  0
  161.0500  205.8970  149.9290 C   0  0  0  0  0  0  0  0  0  0  0  0
  160.6230  203.9070  148.6030 C   0  0  0  0  0  3  0  0  0  0  0  0
  161.0920  203.7010  150.9660 C   0  0  0  0  0  0  0  0  0  0  0  0
  160.7620  205.3000  148.6790 C   0  0  0  0  0  0  0  0  0  0  0  0
  161.2240  205.0870  151.0570 C   0  0  0  0  0  3  0  0  0  0  0  0
  160.5370  206.1270  147.5260 N   0  0  0  0  0  2  0  0  0  0  0  0
  160.7220  205.8040  146.1430 C   0  0  0  0  0  0  0  0  0  0  0  0
  160.1780  206.5720  145.2570 N   0  0  0  0  0  2  0  0  0  0  0  0
  163.3260  204.7460  146.5730 O   0  0  0  0  0  1  0  0  0  0  0  0
  161.9460  204.6070  145.6010 P   0  0  1  0  0  0  0  0  0  0  0  0
  161.2890  202.9200  145.7580 C   0  0  0  0  0  1  0  0  0  0  0  0
  162.3320  204.8690  144.1650 O   0  0  0  0  0  0  0  0  0  0  0  0
  159.9150  209.4110  153.3800 C   0  0  2  0  0  3  0  0  0  0  0  0
  160.1800  211.9570  153.4250 C   0  0  1  0  0  3  0  0  0  0  0  0
  159.1510  211.0400  155.1860 C   0  0  2  0  0  3  0  0  0  0  0  0
  160.1930  212.5380  155.1580 S   0  0  0  0  0  0  0  0  0  0  0  0
  159.2660  210.7720  153.6960 C   0  0  2  0  0  3  0  0  0  0  0  0
  157.1090  212.9110  155.6750 S   0  0  0  0  0  0  0  0  0  0  0  0
  154.2550  210.2570  156.5250 S   0  0  0  0  0  0  0  0  0  0  0  0
  156.7690  210.4940  155.8370 N   0  0  0  0  0  0  0  0  0  0  0  0
  157.7410  211.3840  155.5480 C   0  0  0  0  0  0  0  0  0  0  0  0
  155.5870  211.1170  156.1360 C   0  0  0  0  0  0  0  0  0  0  0  0
  155.5610  212.4780  156.1020 N   0  0  0  0  0  2  0  0  0  0  0  0
  159.4980  212.9170  152.4930 C   0  0  0  0  0  0  0  0  0  0  0  0
  158.0750  213.0590  152.4920 N   0  0  0  0  0  2  0  0  0  0  0  0
  160.1970  213.5620  151.6680 O   0  0  0  0  0  0  0  0  0  0  0  0
  156.0620  214.1200  151.9690 O   0  0  0  0  0  1  0  0  0  0  0  0
  157.3640  213.8780  151.5220 C   0  0  2  0  0  3  0  0  0  0  0  0
  157.3050  213.1390  150.1990 C   0  0  0  0  0  1  0  0  0  0  0  0
  160.9840  208.9900  154.3860 C   0  0  0  0  0  2  0  0  0  0  0  0
  159.7380  207.4630  155.9030 C   0  0  0  0  0  1  0  0  0  0  0  0
  160.7860  207.5420  154.8120 C   0  0  0  0  0  2  0  0  0  0  0  0
  1  2  1  0  0  0  0
  3  4  2  0  0  0  0
  3  2  1  0  0  0  0
  5  6  1  6  0  0  0
  5  3  1  0  0  0  0
  8 11  1  0  0  0  0
  9  5  1  0  0  0  0
  9 13  1  0  0  0  0
 10 12  1  0  0  0  0
 10  8  2  0  0  0  0
 11 13  2  0  0  0  0
 11  7  1  0  0  0  0
 12  9  2  0  0  0  0
 14 12  1  0  0  0  0
 15 14  1  0  0  0  0
 16 15  2  0  0  0  0
 18 19  1  1  0  0  0
 18 15  1  0  0  0  0
 18 17  1  0  0  0  0
 20 18  2  0  0  0  0
 21  1  1  6  0  0  0
 21 38  1  0  0  0  0
 22 32  1  6  0  0  0
 22 25  1  0  0  0  0
 22 24  1  0  0  0  0
 23 29  1  6  0  0  0
 24 23  1  0  0  0  0
 25 21  1  1  0  0  0
 25 23  1  0  0  0  0
 26 31  1  0  0  0  0
 28 30  1  0  0  0  0
 29 26  1  0  0  0  0
 29 28  2  0  0  0  0
 30 27  2  0  0  0  0
 31 30  1  0  0  0  0
 33 32  1  0  0  0  0
 34 32  2  0  0  0  0
 36 37  1  6  0  0  0
 36 35  1  0  0  0  0
 36 33  1  0  0  0  0
 38 40  1  0  0  0  0
 40 39  1  0  0  0  0
M  END
>  <MODEL>
3

>  <REMARK>
 VINA RESULT:      -5.9      1.456      1.617
  Name = 
  13 active torsions:
  status: ('A' for Active; 'I' for Inactive)
    1  A    between atoms: C_2  and  C_12
    2  A    between atoms: C_2  and  C_23
    3  A    between atoms: C_3  and  C_8
    4  A    between atoms: C_6  and  C_30
    5  A    between atoms: C_7  and  C_11
    6  A    between atoms: C_11  and  C_12
    7  A    between atoms: N_18  and  C_25
    8  A    between atoms: C_19  and  P_20
    9  A    between atoms: C_22  and  N_27
   10  A    between atoms: C_23  and  C_29
   11  A    between atoms: C_28  and  C_29
   12  A    between atoms: C_29  and  C_36
   13  A    between atoms: C_33  and  C_36
                            x       y       z     vdW  Elec       q    Type
                         _______ _______ _______ _____ _____    ______ ____

>  <TORSDO>
F 13

$$$$
=
 OpenBabel11052410343D

 40 42  0  0  1  0  0  0  0  0999 V2000
  161.8870  208.7060  151.3560 C   0  0  0  0  0  2  0  0  0  0  0  0
  160.7760  209.4690  152.0670 C   0  0  0  0  0  2  0  0  0  0  0  0
  160.8800  210.9370  151.8100 C   0  0  0  0  0  0  0  0  0  0  0  0
  161.5360  211.3410  150.8640 O   0  0  0  0  0  0  0  0  0  0  0  0
  160.2050  211.8940  152.7510 C   0  0  1  0  0  3  0  0  0  0  0  0
  158.8540  212.3540  152.2280 C   0  0  0  0  0  1  0  0  0  0  0  0
  162.6830  210.2060  156.7170 C   0  0  0  0  0  1  0  0  0  0  0  0
  160.1960  210.3960  156.7890 C   0  0  0  0  0  3  0  0  0  0  0  0
  160.1480  211.3870  154.1660 C   0  0  0  0  0  0  0  0  0  0  0  0
  158.9770  210.7170  156.1860 C   0  0  0  0  0  3  0  0  0  0  0  0
  161.3880  210.5630  156.0840 C   0  0  0  0  0  0  0  0  0  0  0  0
  158.9350  211.2020  154.8720 C   0  0  0  0  0  0  0  0  0  0  0  0
  161.3610  211.0530  154.7780 C   0  0  0  0  0  3  0  0  0  0  0  0
  157.6900  211.5860  154.2670 N   0  0  0  0  0  2  0  0  0  0  0  0
  156.7930  212.6330  154.6540 C   0  0  0  0  0  0  0  0  0  0  0  0
  155.8910  213.0100  153.8090 N   0  0  0  0  0  2  0  0  0  0  0  0
  158.1160  213.8800  156.8400 O   0  0  0  0  0  0  0  0  0  0  0  0
  156.6500  213.1830  156.3580 P   0  0  1  0  0  0  0  0  0  0  0  0
  155.3340  214.4280  156.5090 C   0  0  0  0  0  1  0  0  0  0  0  0
  156.3460  212.0110  157.2600 O   0  0  0  0  0  1  0  0  0  0  0  0
  161.8820  207.2270  151.7290 C   0  0  2  0  0  3  0  0  0  0  0  0
  161.1230  207.1220  149.2860 C   0  0  1  0  0  3  0  0  0  0  0  0
  160.4000  205.4750  150.6160 C   0  0  2  0  0  3  0  0  0  0  0  0
  159.5460  206.2020  149.1770 S   0  0  0  0  0  0  0  0  0  0  0  0
  161.6370  206.3460  150.4880 C   0  0  2  0  0  3  0  0  0  0  0  0
  161.1000  202.9010  151.5080 S   0  0  0  0  0  0  0  0  0  0  0  0
  161.3170  201.2150  147.9010 S   0  0  0  0  0  0  0  0  0  0  0  0
  160.8170  203.4620  149.1430 N   0  0  0  0  0  0  0  0  0  0  0  0
  160.7410  204.0420  150.3600 C   0  0  0  0  0  0  0  0  0  0  0  0
  161.1570  202.1390  149.2350 C   0  0  0  0  0  0  0  0  0  0  0  0
  161.3610  201.6220  150.4790 N   0  0  0  0  0  2  0  0  0  0  0  0
  162.0220  206.8800  148.1070 C   0  0  0  0  0  0  0  0  0  0  0  0
  161.6180  206.0270  147.0340 N   0  0  0  0  0  2  0  0  0  0  0  0
  163.1680  207.4020  148.1010 O   0  0  0  0  0  0  0  0  0  0  0  0
  161.7970  205.6840  144.7310 O   0  0  0  0  0  1  0  0  0  0  0  0
  162.5020  205.6630  145.9380 C   0  0  2  0  0  3  0  0  0  0  0  0
  163.0350  204.2630  146.1760 C   0  0  0  0  0  1  0  0  0  0  0  0
  160.8790  206.9940  152.8570 C   0  0  0  0  0  2  0  0  0  0  0  0
  160.6460  207.0560  155.3320 C   0  0  0  0  0  1  0  0  0  0  0  0
  161.5950  206.7830  154.1830 C   0  0  0  0  0  2  0  0  0  0  0  0
  1  2  1  0  0  0  0
  3  2  1  0  0  0  0
  3  5  1  0  0  0  0
  4  3  2  0  0  0  0
  5  6  1  6  0  0  0
  5  9  1  0  0  0  0
  9 13  2  0  0  0  0
  9 12  1  0  0  0  0
 10  8  1  0  0  0  0
 11  7  1  0  0  0  0
 11  8  2  0  0  0  0
 12 10  2  0  0  0  0
 13 11  1  0  0  0  0
 14 15  1  0  0  0  0
 14 12  1  0  0  0  0
 15 18  1  0  0  0  0
 16 15  2  0  0  0  0
 18 19  1  1  0  0  0
 18 17  2  0  0  0  0
 18 20  1  0  0  0  0
 21  1  1  6  0  0  0
 21 38  1  0  0  0  0
 22 32  1  6  0  0  0
 22 25  1  0  0  0  0
 23 29  1  6  0  0  0
 24 22  1  0  0  0  0
 24 23  1  0  0  0  0
 25 23  1  0  0  0  0
 25 21  1  1  0  0  0
 27 30  2  0  0  0  0
 28 30  1  0  0  0  0
 28 29  2  0  0  0  0
 29 26  1  0  0  0  0
 30 31  1  0  0  0  0
 31 26  1  0  0  0  0
 33 32  1  0  0  0  0
 34 32  2  0  0  0  0
 35 36  1  0  0  0  0
 36 37  1  1  0  0  0
 36 33  1  0  0  0  0
 38 40  1  0  0  0  0
 40 39  1  0  0  0  0
M  END
>  <MODEL>
4

>  <REMARK>
 VINA RESULT:      -5.7      4.217      9.400
  Name = 
  13 active torsions:
  status: ('A' for Active; 'I' for Inactive)
    1  A    between atoms: C_2  and  C_12
    2  A    between atoms: C_2  and  C_23
    3  A    between atoms: C_3  and  C_8
    4  A    between atoms: C_6  and  C_30
    5  A    between atoms: C_7  and  C_11
    6  A    between atoms: C_11  and  C_12
    7  A    between atoms: N_18  and  C_25
    8  A    between atoms: C_19  and  P_20
    9  A    between atoms: C_22  and  N_27
   10  A    between atoms: C_23  and  C_29
   11  A    between atoms: C_28  and  C_29
   12  A    between atoms: C_29  and  C_36
   13  A    between atoms: C_33  and  C_36
                            x       y       z     vdW  Elec       q    Type
                         _______ _______ _______ _____ _____    ______ ____

>  <TORSDO>
F 13

$$$$
=
 OpenBabel11052410343D

 40 42  0  0  1  0  0  0  0  0999 V2000
  160.3550  210.6060  152.3490 C   0  0  0  0  0  2  0  0  0  0  0  0
  160.5460  209.1280  152.0290 C   0  0  0  0  0  2  0  0  0  0  0  0
  161.6320  208.9290  151.0230 C   0  0  0  0  0  0  0  0  0  0  0  0
  162.7460  209.3790  151.2380 O   0  0  0  0  0  0  0  0  0  0  0  0
  161.3200  208.2100  149.7420 C   0  0  1  0  0  3  0  0  0  0  0  0
  162.3490  208.4950  148.6600 C   0  0  0  0  0  1  0  0  0  0  0  0
  161.2160  204.3390  152.8590 C   0  0  0  0  0  1  0  0  0  0  0  0
  160.6540  204.0150  150.4500 C   0  0  0  0  0  3  0  0  0  0  0  0
  161.0630  206.7410  149.9380 C   0  0  0  0  0  0  0  0  0  0  0  0
  160.4910  204.5140  149.1550 C   0  0  0  0  0  3  0  0  0  0  0  0
  161.0250  204.8710  151.4860 C   0  0  0  0  0  0  0  0  0  0  0  0
  160.7040  205.8720  148.8810 C   0  0  0  0  0  0  0  0  0  0  0  0
  161.2320  206.2260  151.2280 C   0  0  0  0  0  3  0  0  0  0  0  0
  160.4840  206.4000  147.5630 N   0  0  0  0  0  2  0  0  0  0  0  0
  160.6910  205.7630  146.2970 C   0  0  0  0  0  0  0  0  0  0  0  0
  160.1500  206.2920  145.2490 N   0  0  0  0  0  2  0  0  0  0  0  0
  162.8980  204.3950  147.4560 O   0  0  0  0  0  1  0  0  0  0  0  0
  161.9370  204.4890  146.0660 P   0  0  1  0  0  0  0  0  0  0  0  0
  161.1440  202.8770  145.7930 C   0  0  0  0  0  1  0  0  0  0  0  0
  162.8160  204.8290  144.8860 O   0  0  0  0  0  0  0  0  0  0  0  0
  159.1220  210.8400  153.2170 C   0  0  2  0  0  3  0  0  0  0  0  0
  159.4880  213.2220  152.3540 C   0  0  1  0  0  3  0  0  0  0  0  0
  158.2320  213.0200  154.1930 C   0  0  2  0  0  3  0  0  0  0  0  0
  159.3330  214.4030  153.7410 S   0  0  0  0  0  0  0  0  0  0  0  0
  158.5010  212.2210  152.9310 C   0  0  2  0  0  3  0  0  0  0  0  0
  155.8440  213.7890  152.9220 S   0  0  0  0  0  0  0  0  0  0  0  0
  153.7500  214.4490  156.2510 S   0  0  0  0  0  0  0  0  0  0  0  0
  156.0900  213.6970  155.3550 N   0  0  0  0  0  0  0  0  0  0  0  0
  156.8070  213.4710  154.2340 C   0  0  0  0  0  0  0  0  0  0  0  0
  154.8160  214.1070  155.0650 C   0  0  0  0  0  0  0  0  0  0  0  0
  154.4710  214.2240  153.7530 N   0  0  0  0  0  2  0  0  0  0  0  0
  158.9550  213.7680  151.0610 C   0  0  0  0  0  0  0  0  0  0  0  0
  157.6240  213.4720  150.6280 N   0  0  0  0  0  2  0  0  0  0  0  0
  159.7180  214.4530  150.3290 O   0  0  0  0  0  0  0  0  0  0  0  0
  155.8480  214.4530  149.4730 O   0  0  0  0  0  1  0  0  0  0  0  0
  157.1100  213.8710  149.3270 C   0  0  2  0  0  3  0  0  0  0  0  0
  156.9900  212.6430  148.4450 C   0  0  0  0  0  1  0  0  0  0  0  0
  159.4880  210.6200  154.6830 C   0  0  0  0  0  2  0  0  0  0  0  0
  161.1140  211.7310  156.2020 C   0  0  0  0  0  1  0  0  0  0  0  0
  160.9590  210.9290  154.9260 C   0  0  0  0  0  2  0  0  0  0  0  0
  2  1  1  0  0  0  0
  3  4  2  0  0  0  0
  3  2  1  0  0  0  0
  5  6  1  6  0  0  0
  5  9  1  0  0  0  0
  5  3  1  0  0  0  0
  8 11  1  0  0  0  0
  9 13  1  0  0  0  0
 10  8  2  0  0  0  0
 11  7  1  0  0  0  0
 12 10  1  0  0  0  0
 12  9  2  0  0  0  0
 13 11  2  0  0  0  0
 14 12  1  0  0  0  0
 15 14  1  0  0  0  0
 16 15  2  0  0  0  0
 18 19  1  6  0  0  0
 18 15  1  0  0  0  0
 18 17  1  0  0  0  0
 20 18  2  0  0  0  0
 21  1  1  6  0  0  0
 21 38  1  0  0  0  0
 22 32  1  6  0  0  0
 22 25  1  0  0  0  0
 22 24  1  0  0  0  0
 23 29  1  6  0  0  0
 24 23  1  0  0  0  0
 25 21  1  1  0  0  0
 25 23  1  0  0  0  0
 26 31  1  0  0  0  0
 26 29  1  0  0  0  0
 29 28  2  0  0  0  0
 30 28  1  0  0  0  0
 30 27  2  0  0  0  0
 31 30  1  0  0  0  0
 33 32  1  0  0  0  0
 34 32  2  0  0  0  0
 36 37  1  6  0  0  0
 36 35  1  0  0  0  0
 36 33  1  0  0  0  0
 38 40  1  0  0  0  0
 40 39  1  0  0  0  0
M  END
>  <MODEL>
5

>  <REMARK>
 VINA RESULT:      -5.6      1.740      2.108
  Name = 
  13 active torsions:
  status: ('A' for Active; 'I' for Inactive)
    1  A    between atoms: C_2  and  C_12
    2  A    between atoms: C_2  and  C_23
    3  A    between atoms: C_3  and  C_8
    4  A    between atoms: C_6  and  C_30
    5  A    between atoms: C_7  and  C_11
    6  A    between atoms: C_11  and  C_12
    7  A    between atoms: N_18  and  C_25
    8  A    between atoms: C_19  and  P_20
    9  A    between atoms: C_22  and  N_27
   10  A    between atoms: C_23  and  C_29
   11  A    between atoms: C_28  and  C_29
   12  A    between atoms: C_29  and  C_36
   13  A    between atoms: C_33  and  C_36
                            x       y       z     vdW  Elec       q    Type
                         _______ _______ _______ _____ _____    ______ ____

>  <TORSDO>
F 13

$$$$
=
 OpenBabel11052410343D

 40 42  0  0  1  0  0  0  0  0999 V2000
  161.1680  208.8760  154.3010 C   0  0  0  0  0  2  0  0  0  0  0  0
  160.7980  207.9730  153.1300 C   0  0  0  0  0  2  0  0  0  0  0  0
  161.5150  206.6650  153.2090 C   0  0  0  0  0  0  0  0  0  0  0  0
  161.9250  206.2640  154.2860 O   0  0  0  0  0  0  0  0  0  0  0  0
  161.7540  205.8840  151.9480 C   0  0  1  0  0  3  0  0  0  0  0  0
  160.8780  204.6440  151.8680 C   0  0  0  0  0  1  0  0  0  0  0  0
  162.4150  210.3520  149.8710 C   0  0  0  0  0  1  0  0  0  0  0  0
  161.5860  208.4460  148.4900 C   0  0  0  0  0  3  0  0  0  0  0  0
  161.6890  206.7320  150.7080 C   0  0  0  0  0  0  0  0  0  0  0  0
  161.1980  207.1100  148.3590 C   0  0  0  0  0  3  0  0  0  0  0  0
  162.0190  208.9280  149.7250 C   0  0  0  0  0  0  0  0  0  0  0  0
  161.2320  206.2440  149.4610 C   0  0  0  0  0  0  0  0  0  0  0  0
  162.0650  208.0750  150.8280 C   0  0  0  0  0  3  0  0  0  0  0  0
  160.8860  204.8570  149.3180 N   0  0  0  0  0  2  0  0  0  0  0  0
  161.2690  203.9410  148.2850 C   0  0  0  0  0  0  0  0  0  0  0  0
  161.1100  202.6770  148.4990 N   0  0  0  0  0  2  0  0  0  0  0  0
  163.2430  204.9610  146.5110 O   0  0  0  0  0  1  0  0  0  0  0  0
  161.6200  204.4880  146.6110 P   0  0  1  0  0  0  0  0  0  0  0  0
  161.3320  203.1340  145.4340 C   0  0  0  0  0  1  0  0  0  0  0  0
  160.7450  205.6660  146.2530 O   0  0  0  0  0  0  0  0  0  0  0  0
  159.9550  209.2030  155.1650 C   0  0  2  0  0  3  0  0  0  0  0  0
  160.4900  211.5710  154.3510 C   0  0  1  0  0  3  0  0  0  0  0  0
  159.1060  211.4170  156.1020 C   0  0  2  0  0  3  0  0  0  0  0  0
  160.2990  212.7490  155.7370 S   0  0  0  0  0  0  0  0  0  0  0  0
  159.4200  210.6140  154.8530 C   0  0  2  0  0  3  0  0  0  0  0  0
  156.5670  211.7950  157.2500 S   0  0  0  0  0  0  0  0  0  0  0  0
  154.9550  213.7310  154.1580 S   0  0  0  0  0  0  0  0  0  0  0  0
  157.1500  212.5910  155.0110 N   0  0  0  0  0  0  0  0  0  0  0  0
  157.7050  211.9350  156.0530 C   0  0  0  0  0  0  0  0  0  0  0  0
  155.8490  212.9320  155.2650 C   0  0  0  0  0  0  0  0  0  0  0  0
  155.3240  212.5770  156.4710 N   0  0  0  0  0  2  0  0  0  0  0  0
  160.0700  212.1500  153.0310 C   0  0  0  0  0  0  0  0  0  0  0  0
  159.5150  213.4650  152.9450 N   0  0  0  0  0  2  0  0  0  0  0  0
  160.1640  211.4380  151.9970 O   0  0  0  0  0  0  0  0  0  0  0  0
  157.7970  213.3520  151.3690 O   0  0  0  0  0  1  0  0  0  0  0  0
  158.9780  214.0170  151.7110 C   0  0  2  0  0  3  0  0  0  0  0  0
  159.9930  213.8280  150.6010 C   0  0  0  0  0  1  0  0  0  0  0  0
  160.3100  208.9910  156.6350 C   0  0  0  0  0  2  0  0  0  0  0  0
  159.1870  206.8160  156.1950 C   0  0  0  0  0  1  0  0  0  0  0  0
  160.2700  207.5110  156.9940 C   0  0  0  0  0  2  0  0  0  0  0  0
  2  3  1  0  0  0  0
  2  1  1  0  0  0  0
  3  4  2  0  0  0  0
  5  6  1  6  0  0  0
  5  3  1  0  0  0  0
  8 11  1  0  0  0  0
  9 13  1  0  0  0  0
  9  5  1  0  0  0  0
 10  8  2  0  0  0  0
 10 12  1  0  0  0  0
 11  7  1  0  0  0  0
 11 13  2  0  0  0  0
 12  9  2  0  0  0  0
 14 12  1  0  0  0  0
 15 16  2  0  0  0  0
 15 14  1  0  0  0  0
 17 18  1  0  0  0  0
 18 19  1  6  0  0  0
 18 15  1  0  0  0  0
 20 18  2  0  0  0  0
 21  1  1  6  0  0  0
 21 38  1  0  0  0  0
 22 32  1  6  0  0  0
 22 25  1  0  0  0  0
 22 24  1  0  0  0  0
 23 29  1  6  0  0  0
 24 23  1  0  0  0  0
 25 21  1  1  0  0  0
 25 23  1  0  0  0  0
 27 30  2  0  0  0  0
 28 30  1  0  0  0  0
 28 29  2  0  0  0  0
 29 26  1  0  0  0  0
 30 31  1  0  0  0  0
 31 26  1  0  0  0  0
 33 32  1  0  0  0  0
 34 32  2  0  0  0  0
 35 36  1  0  0  0  0
 36 37  1  6  0  0  0
 36 33  1  0  0  0  0
 38 40  1  0  0  0  0
 39 40  1  0  0  0  0
M  END
>  <MODEL>
6

>  <REMARK>
 VINA RESULT:      -5.5      1.704      2.573
  Name = 
  13 active torsions:
  status: ('A' for Active; 'I' for Inactive)
    1  A    between atoms: C_2  and  C_12
    2  A    between atoms: C_2  and  C_23
    3  A    between atoms: C_3  and  C_8
    4  A    between atoms: C_6  and  C_30
    5  A    between atoms: C_7  and  C_11
    6  A    between atoms: C_11  and  C_12
    7  A    between atoms: N_18  and  C_25
    8  A    between atoms: C_19  and  P_20
    9  A    between atoms: C_22  and  N_27
   10  A    between atoms: C_23  and  C_29
   11  A    between atoms: C_28  and  C_29
   12  A    between atoms: C_29  and  C_36
   13  A    between atoms: C_33  and  C_36
                            x       y       z     vdW  Elec       q    Type
                         _______ _______ _______ _____ _____    ______ ____

>  <TORSDO>
F 13

$$$$
=
 OpenBabel11052410343D

 40 42  0  0  1  0  0  0  0  0999 V2000
  160.8800  208.1340  151.7440 C   0  0  0  0  0  2  0  0  0  0  0  0
  161.4650  209.5170  151.4790 C   0  0  0  0  0  2  0  0  0  0  0  0
  161.7960  210.2170  152.7570 C   0  0  0  0  0  0  0  0  0  0  0  0
  162.9640  210.3780  153.0720 O   0  0  0  0  0  0  0  0  0  0  0  0
  160.6800  210.6750  153.6510 C   0  0  1  0  0  3  0  0  0  0  0  0
  161.1160  210.7780  155.1040 C   0  0  0  0  0  1  0  0  0  0  0  0
  159.6250  213.6340  149.7980 C   0  0  0  0  0  1  0  0  0  0  0  0
  158.8070  214.2210  152.0820 C   0  0  0  0  0  3  0  0  0  0  0  0
  159.9980  211.9190  153.1520 C   0  0  0  0  0  0  0  0  0  0  0  0
  158.7080  213.9560  153.4500 C   0  0  0  0  0  3  0  0  0  0  0  0
  159.5030  213.3450  151.2500 C   0  0  0  0  0  0  0  0  0  0  0  0
  159.3080  212.8160  154.0020 C   0  0  0  0  0  0  0  0  0  0  0  0
  160.0980  212.2020  151.7850 C   0  0  0  0  0  3  0  0  0  0  0  0
  159.1620  212.5100  155.3980 N   0  0  0  0  0  2  0  0  0  0  0  0
  158.0560  211.8940  156.0680 C   0  0  0  0  0  0  0  0  0  0  0  0
  158.2430  211.4320  157.2610 N   0  0  0  0  0  2  0  0  0  0  0  0
  156.2350  211.2550  153.9800 O   0  0  0  0  0  0  0  0  0  0  0  0
  156.3710  212.0530  155.4670 P   0  0  1  0  0  0  0  0  0  0  0  0
  155.2100  211.2980  156.6440 C   0  0  0  0  0  1  0  0  0  0  0  0
  156.0220  213.5090  155.2740 O   0  0  0  0  0  1  0  0  0  0  0  0
  161.9280  207.0390  151.5790 C   0  0  2  0  0  3  0  0  0  0  0  0
  161.1000  207.0060  149.1570 C   0  0  1  0  0  3  0  0  0  0  0  0
  160.4210  205.3160  150.4560 C   0  0  2  0  0  3  0  0  0  0  0  0
  159.5240  206.0840  149.0650 S   0  0  0  0  0  0  0  0  0  0  0  0
  161.6510  206.1960  150.3200 C   0  0  2  0  0  3  0  0  0  0  0  0
  161.2040  202.7320  151.2420 S   0  0  0  0  0  0  0  0  0  0  0  0
  161.1990  201.1260  147.5920 S   0  0  0  0  0  0  0  0  0  0  0  0
  160.7590  203.3400  148.9150 N   0  0  0  0  0  0  0  0  0  0  0  0
  160.7580  203.8930  150.1460 C   0  0  0  0  0  0  0  0  0  0  0  0
  161.1180  202.0200  148.9550 C   0  0  0  0  0  0  0  0  0  0  0  0
  161.4090  201.4790  150.1700 N   0  0  0  0  0  2  0  0  0  0  0  0
  161.9660  206.8040  147.9470 C   0  0  0  0  0  0  0  0  0  0  0  0
  161.4780  206.1030  146.7990 N   0  0  0  0  0  2  0  0  0  0  0  0
  163.1540  207.2180  147.9740 O   0  0  0  0  0  0  0  0  0  0  0  0
  161.5250  205.3360  144.5950 O   0  0  0  0  0  1  0  0  0  0  0  0
  162.3190  205.7730  145.6590 C   0  0  2  0  0  3  0  0  0  0  0  0
  163.2740  204.6630  146.0540 C   0  0  0  0  0  1  0  0  0  0  0  0
  162.0080  206.2180  152.8650 C   0  0  0  0  0  2  0  0  0  0  0  0
  161.3490  207.0530  155.1120 C   0  0  0  0  0  1  0  0  0  0  0  0
  160.8360  206.5360  153.7840 C   0  0  0  0  0  2  0  0  0  0  0  0
  2  1  1  0  0  0  0
  2  3  1  0  0  0  0
  3  4  2  0  0  0  0
  3  5  1  0  0  0  0
  5  6  1  1  0  0  0
  7 11  1  0  0  0  0
  8 10  1  0  0  0  0
  9  5  1  0  0  0  0
  9 12  1  0  0  0  0
 10 12  2  0  0  0  0
 11 13  1  0  0  0  0
 11  8  2  0  0  0  0
 12 14  1  0  0  0  0
 13  9  2  0  0  0  0
 14 15  1  0  0  0  0
 15 16  2  0  0  0  0
 17 18  2  0  0  0  0
 18 15  1  0  0  0  0
 18 19  1  1  0  0  0
 20 18  1  0  0  0  0
 21  1  1  1  0  0  0
 21 38  1  0  0  0  0
 22 32  1  6  0  0  0
 22 25  1  0  0  0  0
 23 29  1  6  0  0  0
 24 22  1  0  0  0  0
 24 23  1  0  0  0  0
 25 23  1  0  0  0  0
 25 21  1  1  0  0  0
 27 30  2  0  0  0  0
 28 30  1  0  0  0  0
 28 29  2  0  0  0  0
 29 26  1  0  0  0  0
 30 31  1  0  0  0  0
 31 26  1  0  0  0  0
 32 34  2  0  0  0  0
 33 32  1  0  0  0  0
 35 36  1  0  0  0  0
 36 37  1  1  0  0  0
 36 33  1  0  0  0  0
 38 40  1  0  0  0  0
 40 39  1  0  0  0  0
M  END
>  <MODEL>
7

>  <REMARK>
 VINA RESULT:      -5.5      4.066      9.527
  Name = 
  13 active torsions:
  status: ('A' for Active; 'I' for Inactive)
    1  A    between atoms: C_2  and  C_12
    2  A    between atoms: C_2  and  C_23
    3  A    between atoms: C_3  and  C_8
    4  A    between atoms: C_6  and  C_30
    5  A    between atoms: C_7  and  C_11
    6  A    between atoms: C_11  and  C_12
    7  A    between atoms: N_18  and  C_25
    8  A    between atoms: C_19  and  P_20
    9  A    between atoms: C_22  and  N_27
   10  A    between atoms: C_23  and  C_29
   11  A    between atoms: C_28  and  C_29
   12  A    between atoms: C_29  and  C_36
   13  A    between atoms: C_33  and  C_36
                            x       y       z     vdW  Elec       q    Type
                         _______ _______ _______ _____ _____    ______ ____

>  <TORSDO>
F 13

$$$$
=
 OpenBabel11052410343D

 40 42  0  0  1  0  0  0  0  0999 V2000
  162.1480  206.8820  153.2070 C   0  0  0  0  0  2  0  0  0  0  0  0
  162.3560  205.9470  152.0220 C   0  0  0  0  0  2  0  0  0  0  0  0
  161.2090  205.0000  151.8730 C   0  0  0  0  0  0  0  0  0  0  0  0
  160.9790  204.1870  152.7530 O   0  0  0  0  0  0  0  0  0  0  0  0
  160.3830  205.0420  150.6190 C   0  0  1  0  0  3  0  0  0  0  0  0
  160.4580  206.3950  149.9300 C   0  0  0  0  0  1  0  0  0  0  0  0
  160.9510  200.1360  150.0570 C   0  0  0  0  0  1  0  0  0  0  0  0
  161.2030  201.6530  148.0920 C   0  0  0  0  0  3  0  0  0  0  0  0
  160.6630  203.8920  149.6910 C   0  0  0  0  0  0  0  0  0  0  0  0
  161.2060  202.9310  147.5270 C   0  0  0  0  0  3  0  0  0  0  0  0
  160.9370  201.4910  149.4510 C   0  0  0  0  0  0  0  0  0  0  0  0
  160.9500  204.0610  148.3160 C   0  0  0  0  0  0  0  0  0  0  0  0
  160.6730  202.6070  150.2460 C   0  0  0  0  0  3  0  0  0  0  0  0
  160.8970  205.3720  147.7300 N   0  0  0  0  0  2  0  0  0  0  0  0
  160.8590  205.7310  146.3440 C   0  0  0  0  0  0  0  0  0  0  0  0
  160.5080  206.9360  146.0330 N   0  0  0  0  0  2  0  0  0  0  0  0
  161.5790  205.5380  143.6000 O   0  0  0  0  0  0  0  0  0  0  0  0
  161.6050  204.7040  145.0730 P   0  0  1  0  0  0  0  0  0  0  0  0
  163.3310  204.3280  145.5010 C   0  0  0  0  0  1  0  0  0  0  0  0
  160.8290  203.4180  144.9200 O   0  0  0  0  0  1  0  0  0  0  0  0
  160.7640  207.5230  153.1830 C   0  0  2  0  0  3  0  0  0  0  0  0
  162.1940  209.3230  152.0550 C   0  0  1  0  0  3  0  0  0  0  0  0
  160.8420  210.0200  153.6950 C   0  0  2  0  0  3  0  0  0  0  0  0
  162.4660  210.7040  153.2210 S   0  0  0  0  0  0  0  0  0  0  0  0
  160.8290  208.9540  152.6140 C   0  0  2  0  0  3  0  0  0  0  0  0
  158.3480  211.1600  154.3170 S   0  0  0  0  0  0  0  0  0  0  0  0
  158.3850  213.9280  151.4460 S   0  0  0  0  0  0  0  0  0  0  0  0
  159.7600  211.9610  152.4870 N   0  0  0  0  0  0  0  0  0  0  0  0
  159.7580  211.0200  153.4560 C   0  0  0  0  0  0  0  0  0  0  0  0
  158.6240  212.7230  152.5200 C   0  0  0  0  0  0  0  0  0  0  0  0
  157.6970  212.4370  153.4760 N   0  0  0  0  0  2  0  0  0  0  0  0
  162.0500  209.7800  150.6320 C   0  0  0  0  0  0  0  0  0  0  0  0
  161.9560  211.1700  150.3090 N   0  0  0  0  0  2  0  0  0  0  0  0
  161.9600  208.9140  149.7220 O   0  0  0  0  0  0  0  0  0  0  0  0
  162.8840  211.7520  148.2480 O   0  0  0  0  0  1  0  0  0  0  0  0
  161.6880  211.6520  148.9640 C   0  0  2  0  0  3  0  0  0  0  0  0
  161.0440  213.0230  149.0480 C   0  0  0  0  0  1  0  0  0  0  0  0
  160.1450  207.4430  154.5770 C   0  0  0  0  0  2  0  0  0  0  0  0
  160.9080  208.0770  156.8570 C   0  0  0  0  0  1  0  0  0  0  0  0
  161.2200  207.2370  155.6350 C   0  0  0  0  0  2  0  0  0  0  0  0
  2  1  1  0  0  0  0
  3  2  1  0  0  0  0
  3  4  2  0  0  0  0
  5  6  1  6  0  0  0
  5  3  1  0  0  0  0
  8 11  1  0  0  0  0
  9 13  1  0  0  0  0
  9  5  1  0  0  0  0
 10  8  2  0  0  0  0
 10 12  1  0  0  0  0
 11  7  1  0  0  0  0
 11 13  2  0  0  0  0
 12  9  2  0  0  0  0
 14 12  1  0  0  0  0
 15 14  1  0  0  0  0
 16 15  2  0  0  0  0
 17 18  2  0  0  0  0
 18 19  1  1  0  0  0
 18 15  1  0  0  0  0
 20 18  1  0  0  0  0
 21  1  1  1  0  0  0
 21 38  1  0  0  0  0
 22 32  1  6  0  0  0
 22 25  1  0  0  0  0
 22 24  1  0  0  0  0
 23 29  1  6  0  0  0
 24 23  1  0  0  0  0
 25 21  1  1  0  0  0
 25 23  1  0  0  0  0
 27 30  2  0  0  0  0
 28 30  1  0  0  0  0
 28 29  2  0  0  0  0
 29 26  1  0  0  0  0
 30 31  1  0  0  0  0
 31 26  1  0  0  0  0
 33 32  1  0  0  0  0
 34 32  2  0  0  0  0
 35 36  1  0  0  0  0
 36 37  1  1  0  0  0
 36 33  1  0  0  0  0
 38 40  1  0  0  0  0
 40 39  1  0  0  0  0
M  END
>  <MODEL>
8

>  <REMARK>
 VINA RESULT:      -5.5      2.509      3.766
  Name = 
  13 active torsions:
  status: ('A' for Active; 'I' for Inactive)
    1  A    between atoms: C_2  and  C_12
    2  A    between atoms: C_2  and  C_23
    3  A    between atoms: C_3  and  C_8
    4  A    between atoms: C_6  and  C_30
    5  A    between atoms: C_7  and  C_11
    6  A    between atoms: C_11  and  C_12
    7  A    between atoms: N_18  and  C_25
    8  A    between atoms: C_19  and  P_20
    9  A    between atoms: C_22  and  N_27
   10  A    between atoms: C_23  and  C_29
   11  A    between atoms: C_28  and  C_29
   12  A    between atoms: C_29  and  C_36
   13  A    between atoms: C_33  and  C_36
                            x       y       z     vdW  Elec       q    Type
                         _______ _______ _______ _____ _____    ______ ____

>  <TORSDO>
F 13

$$$$
=
 OpenBabel11052410343D

 40 42  0  0  1  0  0  0  0  0999 V2000
  160.6800  208.5790  152.7460 C   0  0  0  0  0  2  0  0  0  0  0  0
  161.4840  207.2920  152.8890 C   0  0  0  0  0  2  0  0  0  0  0  0
  162.0880  206.8840  151.5840 C   0  0  0  0  0  0  0  0  0  0  0  0
  163.2960  206.7370  151.4970 O   0  0  0  0  0  0  0  0  0  0  0  0
  161.1960  206.7020  150.3900 C   0  0  1  0  0  3  0  0  0  0  0  0
  161.5570  207.6470  149.2560 C   0  0  0  0  0  1  0  0  0  0  0  0
  161.4120  201.8930  151.6330 C   0  0  0  0  0  1  0  0  0  0  0  0
  160.9490  202.5510  149.2710 C   0  0  0  0  0  3  0  0  0  0  0  0
  161.0870  205.2680  149.9490 C   0  0  0  0  0  0  0  0  0  0  0  0
  160.7680  203.5260  148.2870 C   0  0  0  0  0  3  0  0  0  0  0  0
  161.2030  202.9280  150.5890 C   0  0  0  0  0  0  0  0  0  0  0  0
  160.8470  204.8880  148.6080 C   0  0  0  0  0  0  0  0  0  0  0  0
  161.2750  204.2810  150.9230 C   0  0  0  0  0  3  0  0  0  0  0  0
  160.6080  205.8950  147.6110 N   0  0  0  0  0  2  0  0  0  0  0  0
  160.6950  205.7810  146.1850 C   0  0  0  0  0  0  0  0  0  0  0  0
  160.1500  206.7040  145.4630 N   0  0  0  0  0  2  0  0  0  0  0  0
  163.2770  204.5910  146.2390 O   0  0  0  0  0  1  0  0  0  0  0  0
  161.8120  204.6210  145.3900 P   0  0  1  0  0  0  0  0  0  0  0  0
  161.0970  202.9510  145.4000 C   0  0  0  0  0  1  0  0  0  0  0  0
  162.0810  205.0490  143.9670 O   0  0  0  0  0  0  0  0  0  0  0  0
  160.0520  209.0000  154.0700 C   0  0  2  0  0  3  0  0  0  0  0  0
  160.6560  211.4700  153.7680 C   0  0  1  0  0  3  0  0  0  0  0  0
  159.1570  211.0070  155.3630 C   0  0  2  0  0  3  0  0  0  0  0  0
  160.3800  212.3610  155.3410 S   0  0  0  0  0  0  0  0  0  0  0  0
  159.5480  210.4550  154.0040 C   0  0  2  0  0  3  0  0  0  0  0  0
  156.5720  211.2700  156.4400 S   0  0  0  0  0  0  0  0  0  0  0  0
  155.1260  213.6410  153.5780 S   0  0  0  0  0  0  0  0  0  0  0  0
  157.2660  212.3550  154.3600 N   0  0  0  0  0  0  0  0  0  0  0  0
  157.7650  211.5530  155.3240 C   0  0  0  0  0  0  0  0  0  0  0  0
  155.9590  212.6820  154.6020 C   0  0  0  0  0  0  0  0  0  0  0  0
  155.3760  212.1740  155.7230 N   0  0  0  0  0  2  0  0  0  0  0  0
  160.3290  212.3010  152.5610 C   0  0  0  0  0  0  0  0  0  0  0  0
  160.7610  211.9080  151.2560 N   0  0  0  0  0  2  0  0  0  0  0  0
  159.7110  213.3860  152.7200 O   0  0  0  0  0  0  0  0  0  0  0  0
  159.2840  212.5880  149.5810 O   0  0  0  0  0  1  0  0  0  0  0  0
  160.5800  212.7430  150.0790 C   0  0  2  0  0  3  0  0  0  0  0  0
  161.5740  212.3210  149.0150 C   0  0  0  0  0  1  0  0  0  0  0  0
  161.0420  208.7420  155.2040 C   0  0  0  0  0  2  0  0  0  0  0  0
  159.4700  206.9310  155.8610 C   0  0  0  0  0  1  0  0  0  0  0  0
  160.3580  208.0460  156.3730 C   0  0  0  0  0  2  0  0  0  0  0  0
  1  2  1  0  0  0  0
  3  2  1  0  0  0  0
  4  3  2  0  0  0  0
  5  6  1  6  0  0  0
  5  3  1  0  0  0  0
  8 11  1  0  0  0  0
  9  5  1  0  0  0  0
  9 13  1  0  0  0  0
 10 12  1  0  0  0  0
 10  8  2  0  0  0  0
 11 13  2  0  0  0  0
 11  7  1  0  0  0  0
 12  9  2  0  0  0  0
 14 12  1  0  0  0  0
 15 14  1  0  0  0  0
 16 15  2  0  0  0  0
 18 19  1  1  0  0  0
 18 15  1  0  0  0  0
 18 17  1  0  0  0  0
 20 18  2  0  0  0  0
 21  1  1  6  0  0  0
 21 38  1  0  0  0  0
 22 32  1  6  0  0  0
 22 25  1  0  0  0  0
 22 24  1  0  0  0  0
 23 29  1  6  0  0  0
 24 23  1  0  0  0  0
 25 21  1  1  0  0  0
 25 23  1  0  0  0  0
 27 30  2  0  0  0  0
 28 30  1  0  0  0  0
 28 29  2  0  0  0  0
 29 26  1  0  0  0  0
 30 31  1  0  0  0  0
 31 26  1  0  0  0  0
 32 34  2  0  0  0  0
 33 32  1  0  0  0  0
 35 36  1  0  0  0  0
 36 37  1  6  0  0  0
 36 33  1  0  0  0  0
 38 40  1  0  0  0  0
 39 40  1  0  0  0  0
M  END
>  <MODEL>
9

>  <REMARK>
 VINA RESULT:      -5.4      1.466      1.701
  Name = 
  13 active torsions:
  status: ('A' for Active; 'I' for Inactive)
    1  A    between atoms: C_2  and  C_12
    2  A    between atoms: C_2  and  C_23
    3  A    between atoms: C_3  and  C_8
    4  A    between atoms: C_6  and  C_30
    5  A    between atoms: C_7  and  C_11
    6  A    between atoms: C_11  and  C_12
    7  A    between atoms: N_18  and  C_25
    8  A    between atoms: C_19  and  P_20
    9  A    between atoms: C_22  and  N_27
   10  A    between atoms: C_23  and  C_29
   11  A    between atoms: C_28  and  C_29
   12  A    between atoms: C_29  and  C_36
   13  A    between atoms: C_33  and  C_36
                            x       y       z     vdW  Elec       q    Type
                         _______ _______ _______ _____ _____    ______ ____

>  <TORSDO>
F 13

$$$$
