=
 OpenBabel11042421563D

 39 41  0  0  1  0  0  0  0  0999 V2000
  160.4840  207.0740  148.2140 O   0  0  0  0  0  0  0  0  0  0  0  0
  161.3060  206.9440  149.1650 C   0  0  0  0  0  0  0  0  0  0  0  0
  161.1860  207.0610  152.2850 C   0  0  0  0  0  3  0  0  0  0  0  0
  161.0870  204.7070  152.2200 C   0  0  0  0  0  0  0  0  0  0  0  0
  161.1940  204.4710  149.4590 C   0  0  0  0  0  3  0  0  0  0  0  0
  161.0330  205.0080  153.6650 C   0  0  0  0  0  3  0  0  0  0  0  0
  161.0520  203.4340  151.6530 C   0  0  0  0  0  3  0  0  0  0  0  0
  161.1050  203.3140  150.2580 C   0  0  0  0  0  0  0  0  0  0  0  0
  161.2270  205.7530  150.0400 C   0  0  0  0  0  0  0  0  0  0  0  0
  161.1700  205.8390  151.4450 C   0  0  0  0  0  0  0  0  0  0  0  0
  161.1340  206.5370  153.7250 C   0  0  0  0  0  2  0  0  0  0  0  0
  160.6450  201.0100  150.5790 O   0  0  0  0  0  1  0  0  0  0  0  0
  161.0670  201.9550  149.6400 C   0  0  1  0  0  3  0  0  0  0  0  0
  160.1560  201.9410  148.4210 C   0  0  0  0  0  2  0  0  0  0  0  0
  161.4360  200.2360  147.3620 O   0  0  0  0  0  0  0  0  0  0  0  0
  160.8590  201.3510  147.2470 C   0  0  0  0  0  0  0  0  0  0  0  0
  160.8300  202.0220  146.0220 O   0  0  0  0  0  0  0  0  0  0  0  0
  161.4160  203.3040  145.8420 C   0  0  0  0  0  2  0  0  0  0  0  0
  160.6940  204.0600  144.7410 C   0  0  0  0  0  2  0  0  0  0  0  0
  162.3920  205.6370  145.6010 C   0  0  0  0  0  1  0  0  0  0  0  0
  161.1680  205.4970  144.7220 C   0  0  0  0  0  2  0  0  0  0  0  0
  162.2680  207.9320  149.3950 O   0  0  0  0  0  0  0  0  0  0  0  0
  161.9470  209.3170  149.4100 C   0  0  0  0  0  2  0  0  0  0  0  0
  162.3250  209.9280  150.7480 C   0  0  0  0  0  2  0  0  0  0  0  0
  161.1340  210.6550  151.3460 C   0  0  0  0  0  2  0  0  0  0  0  0
  161.2620  210.7220  152.8000 N   0  0  0  0  0  2  0  0  0  0  0  0
  159.9410  210.7520  153.4380 C   0  0  1  0  0  3  0  0  0  0  0  0
  159.9920  211.3970  154.8190 C   0  0  2  0  0  3  0  0  0  0  0  0
  163.2300  210.7080  155.5840 O   0  0  0  0  0  0  0  0  0  0  0  0
  160.9110  210.6130  155.6930 N   0  0  0  0  0  0  0  0  0  0  0  0
  159.4200  210.5680  155.7630 C   0  0  1  0  0  3  0  0  0  0  0  0
  162.2080  210.2120  156.1270 C   0  0  0  0  0  0  0  0  0  0  0  0
  161.6890  208.1700  157.2120 O   0  0  0  0  0  0  0  0  0  0  0  0
  162.3630  209.2340  157.2060 C   0  0  0  0  0  3  0  0  0  0  0  0
  158.9570  211.3760  156.9610 C   0  0  0  0  0  2  0  0  0  0  0  0
  157.4450  213.3230  156.6080 C   0  0  0  0  0  1  0  0  0  0  0  0
  157.5170  211.8170  156.7750 C   0  0  0  0  0  2  0  0  0  0  0  0
  158.6990  212.8680  152.9630 C   0  0  0  0  0  1  0  0  0  0  0  0
  158.8910  211.4210  152.5540 C   0  0  0  0  0  2  0  0  0  0  0  0
  1  2  2  0  0  0  0
  2 22  1  0  0  0  0
  2  9  1  0  0  0  0
  3 11  1  0  0  0  0
  4  6  2  0  0  0  0
  5  9  2  0  0  0  0
  5  8  1  0  0  0  0
  6 11  1  0  0  0  0
  7  4  1  0  0  0  0
  8  7  2  0  0  0  0
  9 10  1  0  0  0  0
 10  4  1  0  0  0  0
 10  3  2  0  0  0  0
 13  8  1  0  0  0  0
 13 12  1  1  0  0  0
 14 13  1  0  0  0  0
 16 15  2  0  0  0  0
 16 14  1  0  0  0  0
 17 16  1  0  0  0  0
 18 17  1  0  0  0  0
 19 18  1  0  0  0  0
 21 19  1  0  0  0  0
 21 20  1  0  0  0  0
 22 23  1  0  0  0  0
 23 24  1  0  0  0  0
 24 25  1  0  0  0  0
 25 26  1  0  0  0  0
 26 27  1  0  0  0  0
 27 39  1  6  0  0  0
 28 27  1  6  0  0  0
 28 30  1  0  0  0  0
 28 31  1  0  0  0  0
 29 32  2  0  0  0  0
 30 31  1  0  0  0  0
 30 32  1  0  0  0  0
 31 35  1  1  0  0  0
 32 34  1  0  0  0  0
 34 33  2  0  0  0  0
 36 37  1  0  0  0  0
 37 35  1  0  0  0  0
 39 38  1  0  0  0  0
M  END
>  <MODEL>
1

>  <REMARK>
 VINA RESULT:      -7.2      0.000      0.000
  Name = 
  19 active torsions:
  status: ('A' for Active; 'I' for Inactive)
    1  A    between atoms: C_1  and  C_24
    2  A    between atoms: C_4  and  C_30
    3  A    between atoms: C_4  and  C_37
    4  A    between atoms: C_5  and  C_15
    5  A    between atoms: C_5  and  C_36
    6  A    between atoms: C_8  and  O_14
    7  A    between atoms: C_8  and  C_28
    8  A    between atoms: O_10  and  C_36
    9  A    between atoms: O_10  and  C_38
   10  A    between atoms: O_14  and  C_37
   11  A    between atoms: C_15  and  N_23
   12  A    between atoms: C_21  and  C_30
   13  A    between atoms: C_22  and  C_31
   14  A    between atoms: N_23  and  C_24
   15  A    between atoms: C_24  and  C_35
   16  A    between atoms: C_25  and  C_39
   17  A    between atoms: C_26  and  C_38
   18  A    between atoms: C_28  and  C_32
   19  A    between atoms: C_29  and  C_31
                            x       y       z     vdW  Elec       q    Type
                         _______ _______ _______ _____ _____    ______ ____

>  <TORSDO>
F 19

$$$$
=
 OpenBabel11042421563D

 39 41  0  0  1  0  0  0  0  0999 V2000
  162.2310  208.6840  151.8370 O   0  0  0  0  0  0  0  0  0  0  0  0
  161.2360  208.3880  152.5570 C   0  0  0  0  0  0  0  0  0  0  0  0
  161.1270  208.6150  155.6710 C   0  0  0  0  0  3  0  0  0  0  0  0
  159.8230  210.5500  155.3350 C   0  0  0  0  0  0  0  0  0  0  0  0
  159.8410  210.4540  152.5630 C   0  0  0  0  0  3  0  0  0  0  0  0
  159.9180  210.4570  156.8060 C   0  0  0  0  0  3  0  0  0  0  0  0
  159.1510  211.5420  154.6240 C   0  0  0  0  0  3  0  0  0  0  0  0
  159.1600  211.4950  153.2240 C   0  0  0  0  0  0  0  0  0  0  0  0
  160.5200  209.4560  153.2880 C   0  0  0  0  0  0  0  0  0  0  0  0
  160.4930  209.5340  154.6950 C   0  0  0  0  0  0  0  0  0  0  0  0
  160.7340  209.1800  157.0410 C   0  0  0  0  0  2  0  0  0  0  0  0
  157.5630  213.2470  153.2880 O   0  0  0  0  0  1  0  0  0  0  0  0
  158.4430  212.5540  152.4520 C   0  0  1  0  0  3  0  0  0  0  0  0
  159.4320  213.5130  151.8040 C   0  0  0  0  0  2  0  0  0  0  0  0
  157.8850  213.4840  149.9940 O   0  0  0  0  0  0  0  0  0  0  0  0
  159.0380  213.7980  150.3950 C   0  0  0  0  0  0  0  0  0  0  0  0
  159.9390  214.4520  149.5520 O   0  0  0  0  0  0  0  0  0  0  0  0
  161.1220  213.8290  149.0700 C   0  0  0  0  0  2  0  0  0  0  0  0
  160.8410  212.3830  148.7040 C   0  0  0  0  0  2  0  0  0  0  0  0
  163.0810  212.8570  147.7720 C   0  0  0  0  0  1  0  0  0  0  0  0
  161.9280  211.8760  147.7820 C   0  0  0  0  0  2  0  0  0  0  0  0
  160.8320  207.0530  152.6710 O   0  0  0  0  0  0  0  0  0  0  0  0
  161.7120  206.0290  153.1150 C   0  0  0  0  0  2  0  0  0  0  0  0
  161.1140  204.6630  152.8220 C   0  0  0  0  0  2  0  0  0  0  0  0
  161.5530  204.1830  151.4500 C   0  0  0  0  0  2  0  0  0  0  0  0
  160.5710  204.5740  150.4410 N   0  0  0  0  0  2  0  0  0  0  0  0
  161.2280  205.2300  149.3040 C   0  0  1  0  0  3  0  0  0  0  0  0
  160.8780  204.5550  147.9820 C   0  0  2  0  0  3  0  0  0  0  0  0
  159.5890  201.6620  149.2110 O   0  0  0  0  0  0  0  0  0  0  0  0
  161.0670  203.0820  148.1170 N   0  0  0  0  0  0  0  0  0  0  0  0
  162.0050  204.0020  147.4070 C   0  0  1  0  0  3  0  0  0  0  0  0
  160.6660  201.7920  148.5730 C   0  0  0  0  0  0  0  0  0  0  0  0
  161.4610  200.0520  147.1740 O   0  0  0  0  0  0  0  0  0  0  0  0
  161.4940  200.6160  148.3000 C   0  0  0  0  0  3  0  0  0  0  0  0
  161.8100  203.8460  145.9100 C   0  0  0  0  0  2  0  0  0  0  0  0
  161.1380  205.4170  144.0980 C   0  0  0  0  0  1  0  0  0  0  0  0
  162.1460  205.1440  145.1970 C   0  0  0  0  0  2  0  0  0  0  0  0
  162.0340  207.4600  148.5130 C   0  0  0  0  0  1  0  0  0  0  0  0
  160.9330  206.7270  149.2560 C   0  0  0  0  0  2  0  0  0  0  0  0
  1  2  2  0  0  0  0
  2 22  1  0  0  0  0
  2  9  1  0  0  0  0
  3 11  1  0  0  0  0
  4  6  2  0  0  0  0
  5  8  1  0  0  0  0
  5  9  2  0  0  0  0
  6 11  1  0  0  0  0
  7  4  1  0  0  0  0
  8  7  2  0  0  0  0
  9 10  1  0  0  0  0
 10  4  1  0  0  0  0
 10  3  2  0  0  0  0
 13  8  1  0  0  0  0
 13 12  1  1  0  0  0
 14 13  1  0  0  0  0
 15 16  2  0  0  0  0
 16 14  1  0  0  0  0
 17 16  1  0  0  0  0
 18 17  1  0  0  0  0
 19 18  1  0  0  0  0
 20 21  1  0  0  0  0
 21 19  1  0  0  0  0
 22 23  1  0  0  0  0
 24 23  1  0  0  0  0
 25 24  1  0  0  0  0
 26 25  1  0  0  0  0
 27 39  1  6  0  0  0
 27 26  1  0  0  0  0
 28 30  1  0  0  0  0
 28 27  1  1  0  0  0
 30 32  1  0  0  0  0
 31 35  1  6  0  0  0
 31 28  1  0  0  0  0
 31 30  1  0  0  0  0
 32 29  2  0  0  0  0
 33 34  2  0  0  0  0
 34 32  1  0  0  0  0
 36 37  1  0  0  0  0
 37 35  1  0  0  0  0
 38 39  1  0  0  0  0
M  END
>  <MODEL>
2

>  <REMARK>
 VINA RESULT:      -6.8      3.131      9.512
  Name = 
  19 active torsions:
  status: ('A' for Active; 'I' for Inactive)
    1  A    between atoms: C_1  and  C_24
    2  A    between atoms: C_4  and  C_30
    3  A    between atoms: C_4  and  C_37
    4  A    between atoms: C_5  and  C_15
    5  A    between atoms: C_5  and  C_36
    6  A    between atoms: C_8  and  O_14
    7  A    between atoms: C_8  and  C_28
    8  A    between atoms: O_10  and  C_36
    9  A    between atoms: O_10  and  C_38
   10  A    between atoms: O_14  and  C_37
   11  A    between atoms: C_15  and  N_23
   12  A    between atoms: C_21  and  C_30
   13  A    between atoms: C_22  and  C_31
   14  A    between atoms: N_23  and  C_24
   15  A    between atoms: C_24  and  C_35
   16  A    between atoms: C_25  and  C_39
   17  A    between atoms: C_26  and  C_38
   18  A    between atoms: C_28  and  C_32
   19  A    between atoms: C_29  and  C_31
                            x       y       z     vdW  Elec       q    Type
                         _______ _______ _______ _____ _____    ______ ____

>  <TORSDO>
F 19

$$$$
=
 OpenBabel11042421563D

 39 41  0  0  1  0  0  0  0  0999 V2000
  160.7510  207.2590  153.2030 O   0  0  0  0  0  0  0  0  0  0  0  0
  160.8350  208.3150  152.5140 C   0  0  0  0  0  0  0  0  0  0  0  0
  161.7730  209.1580  155.3720 C   0  0  0  0  0  3  0  0  0  0  0  0
  160.6700  211.2020  154.9670 C   0  0  0  0  0  0  0  0  0  0  0  0
  159.7750  210.5690  152.4200 C   0  0  0  0  0  3  0  0  0  0  0  0
  161.2260  211.3800  156.3240 C   0  0  0  0  0  3  0  0  0  0  0  0
  159.9260  212.1470  154.2630 C   0  0  0  0  0  3  0  0  0  0  0  0
  159.4740  211.8280  152.9760 C   0  0  0  0  0  0  0  0  0  0  0  0
  160.5290  209.6200  153.1380 C   0  0  0  0  0  0  0  0  0  0  0  0
  160.9700  209.9740  154.4290 C   0  0  0  0  0  0  0  0  0  0  0  0
  161.9160  210.0420  156.6170 C   0  0  0  0  0  2  0  0  0  0  0  0
  158.0110  213.6910  153.0920 O   0  0  0  0  0  1  0  0  0  0  0  0
  158.6770  212.8340  152.2120 C   0  0  1  0  0  3  0  0  0  0  0  0
  159.5700  213.6270  151.2680 C   0  0  0  0  0  2  0  0  0  0  0  0
  157.7080  213.5770  149.7840 O   0  0  0  0  0  0  0  0  0  0  0  0
  158.9550  213.7130  149.9130 C   0  0  0  0  0  0  0  0  0  0  0  0
  159.7660  213.9880  148.8090 O   0  0  0  0  0  0  0  0  0  0  0  0
  159.7020  213.2310  147.6080 C   0  0  0  0  0  2  0  0  0  0  0  0
  161.0920  212.7780  147.2000 C   0  0  0  0  0  2  0  0  0  0  0  0
  162.1170  211.2010  148.8040 C   0  0  0  0  0  1  0  0  0  0  0  0
  161.9650  212.6590  148.4310 C   0  0  0  0  0  2  0  0  0  0  0  0
  161.1970  208.2380  151.1650 O   0  0  0  0  0  0  0  0  0  0  0  0
  162.4760  207.7810  150.7470 C   0  0  0  0  0  2  0  0  0  0  0  0
  162.5020  207.6060  149.2370 C   0  0  0  0  0  2  0  0  0  0  0  0
  161.1020  207.3320  148.7190 C   0  0  0  0  0  2  0  0  0  0  0  0
  161.1650  206.7430  147.3830 N   0  0  0  0  0  2  0  0  0  0  0  0
  161.8380  205.4380  147.4220 C   0  0  1  0  0  3  0  0  0  0  0  0
  160.8630  204.3080  147.7360 C   0  0  2  0  0  3  0  0  0  0  0  0
  160.2750  205.0330  151.0030 O   0  0  0  0  0  0  0  0  0  0  0  0
  161.0560  203.8710  149.1490 N   0  0  0  0  0  0  0  0  0  0  0  0
  161.5440  203.1260  147.9500 C   0  0  1  0  0  3  0  0  0  0  0  0
  160.8990  204.0360  150.5560 C   0  0  0  0  0  0  0  0  0  0  0  0
  161.3250  201.8170  151.2710 O   0  0  0  0  0  0  0  0  0  0  0  0
  161.4540  203.0510  151.4870 C   0  0  0  0  0  3  0  0  0  0  0  0
  160.6310  201.9400  147.7010 C   0  0  0  0  0  2  0  0  0  0  0  0
  160.1660  201.6570  145.2700 C   0  0  0  0  0  1  0  0  0  0  0  0
  161.0400  201.2180  146.4290 C   0  0  0  0  0  2  0  0  0  0  0  0
  161.7010  205.2320  144.9350 C   0  0  0  0  0  1  0  0  0  0  0  0
  162.6180  205.1560  146.1400 C   0  0  0  0  0  2  0  0  0  0  0  0
  2  9  1  0  0  0  0
  2  1  2  0  0  0  0
  3 11  1  0  0  0  0
  4  6  2  0  0  0  0
  5  8  1  0  0  0  0
  5  9  2  0  0  0  0
  6 11  1  0  0  0  0
  7  4  1  0  0  0  0
  8  7  2  0  0  0  0
  9 10  1  0  0  0  0
 10  4  1  0  0  0  0
 10  3  2  0  0  0  0
 13  8  1  0  0  0  0
 13 12  1  1  0  0  0
 14 13  1  0  0  0  0
 15 16  2  0  0  0  0
 16 14  1  0  0  0  0
 17 16  1  0  0  0  0
 18 17  1  0  0  0  0
 19 18  1  0  0  0  0
 19 21  1  0  0  0  0
 21 20  1  0  0  0  0
 22  2  1  0  0  0  0
 23 22  1  0  0  0  0
 24 23  1  0  0  0  0
 25 24  1  0  0  0  0
 26 27  1  0  0  0  0
 26 25  1  0  0  0  0
 27 39  1  6  0  0  0
 28 27  1  1  0  0  0
 28 31  1  0  0  0  0
 28 30  1  0  0  0  0
 30 32  1  0  0  0  0
 31 35  1  6  0  0  0
 31 30  1  0  0  0  0
 32 29  2  0  0  0  0
 32 34  1  0  0  0  0
 33 34  2  0  0  0  0
 36 37  1  0  0  0  0
 37 35  1  0  0  0  0
 38 39  1  0  0  0  0
M  END
>  <MODEL>
3

>  <REMARK>
 VINA RESULT:      -6.6      3.157      9.254
  Name = 
  19 active torsions:
  status: ('A' for Active; 'I' for Inactive)
    1  A    between atoms: C_1  and  C_24
    2  A    between atoms: C_4  and  C_30
    3  A    between atoms: C_4  and  C_37
    4  A    between atoms: C_5  and  C_15
    5  A    between atoms: C_5  and  C_36
    6  A    between atoms: C_8  and  O_14
    7  A    between atoms: C_8  and  C_28
    8  A    between atoms: O_10  and  C_36
    9  A    between atoms: O_10  and  C_38
   10  A    between atoms: O_14  and  C_37
   11  A    between atoms: C_15  and  N_23
   12  A    between atoms: C_21  and  C_30
   13  A    between atoms: C_22  and  C_31
   14  A    between atoms: N_23  and  C_24
   15  A    between atoms: C_24  and  C_35
   16  A    between atoms: C_25  and  C_39
   17  A    between atoms: C_26  and  C_38
   18  A    between atoms: C_28  and  C_32
   19  A    between atoms: C_29  and  C_31
                            x       y       z     vdW  Elec       q    Type
                         _______ _______ _______ _____ _____    ______ ____

>  <TORSDO>
F 19

$$$$
=
 OpenBabel11042421563D

 39 41  0  0  1  0  0  0  0  0999 V2000
  162.3680  209.0170  152.0520 O   0  0  0  0  0  0  0  0  0  0  0  0
  161.2920  208.6190  152.5830 C   0  0  0  0  0  0  0  0  0  0  0  0
  161.0090  208.5390  155.6940 C   0  0  0  0  0  3  0  0  0  0  0  0
  159.6000  210.4140  155.4640 C   0  0  0  0  0  0  0  0  0  0  0  0
  159.7670  210.5870  152.7010 C   0  0  0  0  0  3  0  0  0  0  0  0
  159.6250  210.1860  156.9230 C   0  0  0  0  0  3  0  0  0  0  0  0
  158.9010  211.4270  154.8110 C   0  0  0  0  0  3  0  0  0  0  0  0
  158.9850  211.5160  153.4150 C   0  0  0  0  0  0  0  0  0  0  0  0
  160.4720  209.5660  153.3680 C   0  0  0  0  0  0  0  0  0  0  0  0
  160.3670  209.5070  154.7720 C   0  0  0  0  0  0  0  0  0  0  0  0
  160.5100  208.9440  157.0860 C   0  0  0  0  0  2  0  0  0  0  0  0
  157.6340  213.4530  153.6300 O   0  0  0  0  0  1  0  0  0  0  0  0
  158.2410  212.5990  152.7060 C   0  0  1  0  0  3  0  0  0  0  0  0
  159.1700  213.3800  151.7860 C   0  0  0  0  0  2  0  0  0  0  0  0
  157.3140  213.3430  150.2940 O   0  0  0  0  0  0  0  0  0  0  0  0
  158.5460  213.5640  150.4450 C   0  0  0  0  0  0  0  0  0  0  0  0
  159.3290  214.0240  149.3830 O   0  0  0  0  0  0  0  0  0  0  0  0
  160.6650  213.5870  149.1760 C   0  0  0  0  0  2  0  0  0  0  0  0
  160.8380  213.0850  147.7540 C   0  0  0  0  0  2  0  0  0  0  0  0
  162.6110  213.2820  146.0420 C   0  0  0  0  0  1  0  0  0  0  0  0
  162.3090  212.8770  147.4690 C   0  0  0  0  0  2  0  0  0  0  0  0
  160.8990  207.2840  152.4420 O   0  0  0  0  0  0  0  0  0  0  0  0
  161.7290  206.2010  152.8380 C   0  0  0  0  0  2  0  0  0  0  0  0
  161.0510  204.8780  152.5220 C   0  0  0  0  0  2  0  0  0  0  0  0
  161.5100  204.3650  151.1690 C   0  0  0  0  0  2  0  0  0  0  0  0
  160.7260  204.9840  150.1030 N   0  0  0  0  0  2  0  0  0  0  0  0
  160.8190  204.1970  148.8670 C   0  0  1  0  0  3  0  0  0  0  0  0
  161.8360  204.7860  147.8960 C   0  0  2  0  0  3  0  0  0  0  0  0
  162.9530  207.3530  149.8200 O   0  0  0  0  0  0  0  0  0  0  0  0
  161.8810  206.2670  148.0690 N   0  0  0  0  0  0  0  0  0  0  0  0
  161.2050  205.5590  146.9410 C   0  0  1  0  0  3  0  0  0  0  0  0
  162.2670  207.4460  148.7690 C   0  0  0  0  0  0  0  0  0  0  0  0
  162.0960  209.8030  148.9550 O   0  0  0  0  0  0  0  0  0  0  0  0
  161.8790  208.7670  148.2710 C   0  0  0  0  0  3  0  0  0  0  0  0
  162.0690  205.6710  145.6990 C   0  0  0  0  0  2  0  0  0  0  0  0
  160.4750  204.0380  144.6980 C   0  0  0  0  0  1  0  0  0  0  0  0
  161.2640  205.3130  144.4630 C   0  0  0  0  0  2  0  0  0  0  0  0
  160.8960  201.8980  147.8900 C   0  0  0  0  0  1  0  0  0  0  0  0
  161.1070  202.7240  149.1440 C   0  0  0  0  0  2  0  0  0  0  0  0
  1  2  2  0  0  0  0
  2  9  1  0  0  0  0
  3 11  1  0  0  0  0
  4  6  2  0  0  0  0
  5  9  2  0  0  0  0
  5  8  1  0  0  0  0
  6 11  1  0  0  0  0
  7  4  1  0  0  0  0
  8  7  2  0  0  0  0
  9 10  1  0  0  0  0
 10  4  1  0  0  0  0
 10  3  2  0  0  0  0
 13  8  1  0  0  0  0
 13 12  1  1  0  0  0
 14 13  1  0  0  0  0
 15 16  2  0  0  0  0
 16 14  1  0  0  0  0
 17 16  1  0  0  0  0
 18 17  1  0  0  0  0
 19 18  1  0  0  0  0
 20 21  1  0  0  0  0
 21 19  1  0  0  0  0
 22  2  1  0  0  0  0
 22 23  1  0  0  0  0
 24 23  1  0  0  0  0
 25 24  1  0  0  0  0
 26 25  1  0  0  0  0
 27 39  1  1  0  0  0
 27 26  1  0  0  0  0
 28 30  1  0  0  0  0
 28 27  1  1  0  0  0
 30 32  1  0  0  0  0
 31 35  1  6  0  0  0
 31 28  1  0  0  0  0
 31 30  1  0  0  0  0
 32 29  2  0  0  0  0
 34 32  1  0  0  0  0
 34 33  2  0  0  0  0
 37 36  1  0  0  0  0
 37 35  1  0  0  0  0
 38 39  1  0  0  0  0
M  END
>  <MODEL>
4

>  <REMARK>
 VINA RESULT:      -6.3      3.073      9.217
  Name = 
  19 active torsions:
  status: ('A' for Active; 'I' for Inactive)
    1  A    between atoms: C_1  and  C_24
    2  A    between atoms: C_4  and  C_30
    3  A    between atoms: C_4  and  C_37
    4  A    between atoms: C_5  and  C_15
    5  A    between atoms: C_5  and  C_36
    6  A    between atoms: C_8  and  O_14
    7  A    between atoms: C_8  and  C_28
    8  A    between atoms: O_10  and  C_36
    9  A    between atoms: O_10  and  C_38
   10  A    between atoms: O_14  and  C_37
   11  A    between atoms: C_15  and  N_23
   12  A    between atoms: C_21  and  C_30
   13  A    between atoms: C_22  and  C_31
   14  A    between atoms: N_23  and  C_24
   15  A    between atoms: C_24  and  C_35
   16  A    between atoms: C_25  and  C_39
   17  A    between atoms: C_26  and  C_38
   18  A    between atoms: C_28  and  C_32
   19  A    between atoms: C_29  and  C_31
                            x       y       z     vdW  Elec       q    Type
                         _______ _______ _______ _____ _____    ______ ____

>  <TORSDO>
F 19

$$$$
=
 OpenBabel11042421563D

 39 41  0  0  1  0  0  0  0  0999 V2000
  162.3970  209.4940  150.3190 O   0  0  0  0  0  0  0  0  0  0  0  0
  161.5500  208.7520  150.8930 C   0  0  0  0  0  0  0  0  0  0  0  0
  161.2660  206.3230  152.8370 C   0  0  0  0  0  3  0  0  0  0  0  0
  161.1050  204.9860  150.9020 C   0  0  0  0  0  0  0  0  0  0  0  0
  161.3530  207.0580  149.0750 C   0  0  0  0  0  3  0  0  0  0  0  0
  160.9810  204.0070  152.0010 C   0  0  0  0  0  3  0  0  0  0  0  0
  161.0640  204.6900  149.5410 C   0  0  0  0  0  3  0  0  0  0  0  0
  161.1890  205.7360  148.6170 C   0  0  0  0  0  0  0  0  0  0  0  0
  161.3910  207.3500  150.4520 C   0  0  0  0  0  0  0  0  0  0  0  0
  161.2610  206.2750  151.3540 C   0  0  0  0  0  0  0  0  0  0  0  0
  161.1220  204.8590  153.2690 C   0  0  0  0  0  2  0  0  0  0  0  0
  161.6020  206.5250  146.4190 O   0  0  0  0  0  1  0  0  0  0  0  0
  161.1460  205.4290  147.1560 C   0  0  1  0  0  3  0  0  0  0  0  0
  161.9730  204.1910  146.8400 C   0  0  0  0  0  2  0  0  0  0  0  0
  160.7720  203.8310  144.8160 O   0  0  0  0  0  0  0  0  0  0  0  0
  161.2620  203.3220  145.8600 C   0  0  0  0  0  0  0  0  0  0  0  0
  161.1900  201.9460  146.0910 O   0  0  0  0  0  0  0  0  0  0  0  0
  161.1110  201.3960  147.3990 C   0  0  0  0  0  2  0  0  0  0  0  0
  159.7620  201.7130  148.0200 C   0  0  0  0  0  2  0  0  0  0  0  0
  161.2050  201.1320  149.9420 C   0  0  0  0  0  1  0  0  0  0  0  0
  159.7750  201.3170  149.4810 C   0  0  0  0  0  2  0  0  0  0  0  0
  160.7590  209.2690  151.9240 O   0  0  0  0  0  0  0  0  0  0  0  0
  161.1350  210.4230  152.6640 C   0  0  0  0  0  2  0  0  0  0  0  0
  161.8480  210.0170  153.9430 C   0  0  0  0  0  2  0  0  0  0  0  0
  160.9760  210.3230  155.1470 C   0  0  0  0  0  2  0  0  0  0  0  0
  159.8070  211.0980  154.7390 N   0  0  0  0  0  2  0  0  0  0  0  0
  159.8670  212.4570  155.2910 C   0  0  1  0  0  3  0  0  0  0  0  0
  158.7040  213.3170  154.8070 C   0  0  2  0  0  3  0  0  0  0  0  0
  156.2370  211.9560  156.7070 O   0  0  0  0  0  0  0  0  0  0  0  0
  157.4560  212.4990  154.8050 N   0  0  0  0  0  0  0  0  0  0  0  0
  158.2400  212.8640  153.5880 C   0  0  1  0  0  3  0  0  0  0  0  0
  156.3620  211.8610  155.4580 C   0  0  0  0  0  0  0  0  0  0  0  0
  155.0490  209.9340  155.0330 O   0  0  0  0  0  0  0  0  0  0  0  0
  155.3770  211.1000  154.6870 C   0  0  0  0  0  3  0  0  0  0  0  0
  157.5200  213.9780  152.8510 C   0  0  0  0  0  2  0  0  0  0  0  0
  159.2940  213.4270  151.1920 C   0  0  0  0  0  1  0  0  0  0  0  0
  157.8860  213.9590  151.3780 C   0  0  0  0  0  2  0  0  0  0  0  0
  161.3920  212.2550  157.2600 C   0  0  0  0  0  1  0  0  0  0  0  0
  159.9570  212.4550  156.8150 C   0  0  0  0  0  2  0  0  0  0  0  0
  1  2  2  0  0  0  0
  2 22  1  0  0  0  0
  3 11  1  0  0  0  0
  4 10  1  0  0  0  0
  4  6  2  0  0  0  0
  5  9  2  0  0  0  0
  6 11  1  0  0  0  0
  7  4  1  0  0  0  0
  8  5  1  0  0  0  0
  8  7  2  0  0  0  0
  9  2  1  0  0  0  0
  9 10  1  0  0  0  0
 10  3  2  0  0  0  0
 13 12  1  6  0  0  0
 13  8  1  0  0  0  0
 14 13  1  0  0  0  0
 15 16  2  0  0  0  0
 16 17  1  0  0  0  0
 16 14  1  0  0  0  0
 17 18  1  0  0  0  0
 18 19  1  0  0  0  0
 19 21  1  0  0  0  0
 21 20  1  0  0  0  0
 22 23  1  0  0  0  0
 23 24  1  0  0  0  0
 24 25  1  0  0  0  0
 26 25  1  0  0  0  0
 26 27  1  0  0  0  0
 27 39  1  1  0  0  0
 28 27  1  1  0  0  0
 30 28  1  0  0  0  0
 30 32  1  0  0  0  0
 31 35  1  6  0  0  0
 31 30  1  0  0  0  0
 31 28  1  0  0  0  0
 32 29  2  0  0  0  0
 34 33  2  0  0  0  0
 34 32  1  0  0  0  0
 36 37  1  0  0  0  0
 37 35  1  0  0  0  0
 39 38  1  0  0  0  0
M  END
>  <MODEL>
5

>  <REMARK>
 VINA RESULT:      -6.3      2.273      4.223
  Name = 
  19 active torsions:
  status: ('A' for Active; 'I' for Inactive)
    1  A    between atoms: C_1  and  C_24
    2  A    between atoms: C_4  and  C_30
    3  A    between atoms: C_4  and  C_37
    4  A    between atoms: C_5  and  C_15
    5  A    between atoms: C_5  and  C_36
    6  A    between atoms: C_8  and  O_14
    7  A    between atoms: C_8  and  C_28
    8  A    between atoms: O_10  and  C_36
    9  A    between atoms: O_10  and  C_38
   10  A    between atoms: O_14  and  C_37
   11  A    between atoms: C_15  and  N_23
   12  A    between atoms: C_21  and  C_30
   13  A    between atoms: C_22  and  C_31
   14  A    between atoms: N_23  and  C_24
   15  A    between atoms: C_24  and  C_35
   16  A    between atoms: C_25  and  C_39
   17  A    between atoms: C_26  and  C_38
   18  A    between atoms: C_28  and  C_32
   19  A    between atoms: C_29  and  C_31
                            x       y       z     vdW  Elec       q    Type
                         _______ _______ _______ _____ _____    ______ ____

>  <TORSDO>
F 19

$$$$
=
 OpenBabel11042421563D

 39 41  0  0  1  0  0  0  0  0999 V2000
  162.4070  210.0330  149.9370 O   0  0  0  0  0  0  0  0  0  0  0  0
  161.9390  209.0940  150.6410 C   0  0  0  0  0  0  0  0  0  0  0  0
  161.4250  206.4550  152.2330 C   0  0  0  0  0  3  0  0  0  0  0  0
  161.1310  205.4230  150.1340 C   0  0  0  0  0  0  0  0  0  0  0  0
  161.5740  207.6970  148.6090 C   0  0  0  0  0  3  0  0  0  0  0  0
  160.9160  204.3170  151.0880 C   0  0  0  0  0  3  0  0  0  0  0  0
  161.0590  205.3250  148.7460 C   0  0  0  0  0  3  0  0  0  0  0  0
  161.2820  206.4740  147.9740 C   0  0  0  0  0  0  0  0  0  0  0  0
  161.6430  207.7880  150.0120 C   0  0  0  0  0  0  0  0  0  0  0  0
  161.4120  206.6150  150.7580 C   0  0  0  0  0  0  0  0  0  0  0  0
  161.1410  204.9660  152.4590 C   0  0  0  0  0  2  0  0  0  0  0  0
  162.4820  206.1920  145.9480 O   0  0  0  0  0  1  0  0  0  0  0  0
  161.2060  206.3800  146.4850 C   0  0  1  0  0  3  0  0  0  0  0  0
  160.2760  205.2510  146.0630 C   0  0  0  0  0  2  0  0  0  0  0  0
  160.8440  204.7190  143.8120 O   0  0  0  0  0  0  0  0  0  0  0  0
  160.9260  204.3970  145.0280 C   0  0  0  0  0  0  0  0  0  0  0  0
  161.6560  203.2740  145.4260 O   0  0  0  0  0  0  0  0  0  0  0  0
  161.0320  202.0820  145.8820 C   0  0  0  0  0  2  0  0  0  0  0  0
  160.7250  202.1850  147.3650 C   0  0  0  0  0  2  0  0  0  0  0  0
  161.2200  201.0270  149.4930 C   0  0  0  0  0  1  0  0  0  0  0  0
  160.9390  200.8360  148.0180 C   0  0  0  0  0  2  0  0  0  0  0  0
  161.6860  209.3030  152.0000 O   0  0  0  0  0  0  0  0  0  0  0  0
  160.4470  209.8150  152.4730 C   0  0  0  0  0  2  0  0  0  0  0  0
  160.5610  211.3080  152.7310 C   0  0  0  0  0  2  0  0  0  0  0  0
  159.2240  211.8640  153.1850 C   0  0  0  0  0  2  0  0  0  0  0  0
  159.2690  212.1870  154.6090 N   0  0  0  0  0  2  0  0  0  0  0  0
  158.2540  211.4250  155.3470 C   0  0  1  0  0  3  0  0  0  0  0  0
  158.8720  210.5990  156.4700 C   0  0  2  0  0  3  0  0  0  0  0  0
  161.4600  212.6550  157.2550 O   0  0  0  0  0  0  0  0  0  0  0  0
  160.3530  210.7760  156.4540 N   0  0  0  0  0  0  0  0  0  0  0  0
  159.6320  209.5690  155.9520 C   0  0  1  0  0  3  0  0  0  0  0  0
  161.5390  211.5220  156.7130 C   0  0  0  0  0  0  0  0  0  0  0  0
  163.6320  210.5470  157.2520 O   0  0  0  0  0  0  0  0  0  0  0  0
  162.8520  210.9770  156.3610 C   0  0  0  0  0  3  0  0  0  0  0  0
  159.7700  208.4520  156.9700 C   0  0  0  0  0  2  0  0  0  0  0  0
  161.2070  207.4270  155.2120 C   0  0  0  0  0  1  0  0  0  0  0  0
  160.1670  207.1580  156.2830 C   0  0  0  0  0  2  0  0  0  0  0  0
  155.7910  211.6350  155.7140 C   0  0  0  0  0  1  0  0  0  0  0  0
  157.1340  212.3210  155.8710 C   0  0  0  0  0  2  0  0  0  0  0  0
  1  2  2  0  0  0  0
  2 22  1  0  0  0  0
  3 11  1  0  0  0  0
  4 10  1  0  0  0  0
  4  6  2  0  0  0  0
  5  9  2  0  0  0  0
  6 11  1  0  0  0  0
  7  4  1  0  0  0  0
  8  5  1  0  0  0  0
  8  7  2  0  0  0  0
  9  2  1  0  0  0  0
  9 10  1  0  0  0  0
 10  3  2  0  0  0  0
 13 12  1  1  0  0  0
 13  8  1  0  0  0  0
 14 13  1  0  0  0  0
 15 16  2  0  0  0  0
 16 17  1  0  0  0  0
 16 14  1  0  0  0  0
 17 18  1  0  0  0  0
 18 19  1  0  0  0  0
 19 21  1  0  0  0  0
 21 20  1  0  0  0  0
 22 23  1  0  0  0  0
 23 24  1  0  0  0  0
 24 25  1  0  0  0  0
 25 26  1  0  0  0  0
 26 27  1  0  0  0  0
 27 39  1  1  0  0  0
 28 27  1  6  0  0  0
 30 28  1  0  0  0  0
 30 32  1  0  0  0  0
 31 30  1  0  0  0  0
 31 28  1  0  0  0  0
 31 35  1  1  0  0  0
 32 29  2  0  0  0  0
 34 32  1  0  0  0  0
 34 33  2  0  0  0  0
 36 37  1  0  0  0  0
 37 35  1  0  0  0  0
 38 39  1  0  0  0  0
M  END
>  <MODEL>
6

>  <REMARK>
 VINA RESULT:      -6.1      1.800      3.657
  Name = 
  19 active torsions:
  status: ('A' for Active; 'I' for Inactive)
    1  A    between atoms: C_1  and  C_24
    2  A    between atoms: C_4  and  C_30
    3  A    between atoms: C_4  and  C_37
    4  A    between atoms: C_5  and  C_15
    5  A    between atoms: C_5  and  C_36
    6  A    between atoms: C_8  and  O_14
    7  A    between atoms: C_8  and  C_28
    8  A    between atoms: O_10  and  C_36
    9  A    between atoms: O_10  and  C_38
   10  A    between atoms: O_14  and  C_37
   11  A    between atoms: C_15  and  N_23
   12  A    between atoms: C_21  and  C_30
   13  A    between atoms: C_22  and  C_31
   14  A    between atoms: N_23  and  C_24
   15  A    between atoms: C_24  and  C_35
   16  A    between atoms: C_25  and  C_39
   17  A    between atoms: C_26  and  C_38
   18  A    between atoms: C_28  and  C_32
   19  A    between atoms: C_29  and  C_31
                            x       y       z     vdW  Elec       q    Type
                         _______ _______ _______ _____ _____    ______ ____

>  <TORSDO>
F 19

$$$$
=
 OpenBabel11042421563D

 39 41  0  0  1  0  0  0  0  0999 V2000
  162.3130  206.4980  148.1540 O   0  0  0  0  0  0  0  0  0  0  0  0
  161.6580  206.7010  149.2160 C   0  0  0  0  0  0  0  0  0  0  0  0
  161.5820  206.9420  152.3300 C   0  0  0  0  0  3  0  0  0  0  0  0
  161.0820  204.6380  152.3460 C   0  0  0  0  0  0  0  0  0  0  0  0
  161.1270  204.2950  149.5940 C   0  0  0  0  0  3  0  0  0  0  0  0
  161.0900  204.9930  153.7800 C   0  0  0  0  0  3  0  0  0  0  0  0
  160.8270  203.3720  151.8230 C   0  0  0  0  0  3  0  0  0  0  0  0
  160.8480  203.1980  150.4330 C   0  0  0  0  0  0  0  0  0  0  0  0
  161.3830  205.5720  150.1300 C   0  0  0  0  0  0  0  0  0  0  0  0
  161.3510  205.7130  151.5320 C   0  0  0  0  0  0  0  0  0  0  0  0
  161.4510  206.4830  153.7870 C   0  0  0  0  0  2  0  0  0  0  0  0
  159.3620  201.8510  149.1670 O   0  0  0  0  0  1  0  0  0  0  0  0
  160.5750  201.8450  149.8620 C   0  0  1  0  0  3  0  0  0  0  0  0
  161.7110  201.4040  148.9490 C   0  0  0  0  0  2  0  0  0  0  0  0
  161.1790  200.1580  146.9910 O   0  0  0  0  0  0  0  0  0  0  0  0
  161.2380  201.2910  147.5400 C   0  0  0  0  0  0  0  0  0  0  0  0
  160.8230  202.4400  146.8630 O   0  0  0  0  0  0  0  0  0  0  0  0
  161.4350  202.8760  145.6570 C   0  0  0  0  0  2  0  0  0  0  0  0
  160.4810  203.7620  144.8760 C   0  0  0  0  0  2  0  0  0  0  0  0
  160.4390  206.2040  145.2590 C   0  0  0  0  0  1  0  0  0  0  0  0
  161.1610  205.0760  144.5560 C   0  0  0  0  0  2  0  0  0  0  0  0
  161.1830  207.9840  149.5060 O   0  0  0  0  0  0  0  0  0  0  0  0
  161.9510  209.1530  149.2540 C   0  0  0  0  0  2  0  0  0  0  0  0
  162.1680  209.9250  150.5450 C   0  0  0  0  0  2  0  0  0  0  0  0
  160.9730  209.7520  151.4650 C   0  0  0  0  0  2  0  0  0  0  0  0
  160.7630  210.9660  152.2510 N   0  0  0  0  0  2  0  0  0  0  0  0
  159.3760  211.0430  152.7270 C   0  0  1  0  0  3  0  0  0  0  0  0
  159.2370  210.5220  154.1530 C   0  0  2  0  0  3  0  0  0  0  0  0
  155.9650  211.2820  154.6590 O   0  0  0  0  0  0  0  0  0  0  0  0
  158.2730  211.3820  154.8990 N   0  0  0  0  0  0  0  0  0  0  0  0
  159.7580  211.4300  155.0540 C   0  0  1  0  0  3  0  0  0  0  0  0
  156.9560  211.8210  155.2170 C   0  0  0  0  0  0  0  0  0  0  0  0
  155.5810  213.2820  156.4790 O   0  0  0  0  0  0  0  0  0  0  0  0
  156.7430  212.8910  156.1940 C   0  0  0  0  0  3  0  0  0  0  0  0
  160.1420  210.7300  156.3450 C   0  0  0  0  0  2  0  0  0  0  0  0
  162.4500  210.6990  155.4070 C   0  0  0  0  0  1  0  0  0  0  0  0
  161.3930  209.8940  156.1390 C   0  0  0  0  0  2  0  0  0  0  0  0
  159.7200  213.3210  151.7590 C   0  0  0  0  0  1  0  0  0  0  0  0
  158.8010  212.4500  152.5930 C   0  0  0  0  0  2  0  0  0  0  0  0
  1  2  2  0  0  0  0
  2 22  1  0  0  0  0
  2  9  1  0  0  0  0
  3 11  1  0  0  0  0
  4  6  2  0  0  0  0
  5  9  2  0  0  0  0
  5  8  1  0  0  0  0
  6 11  1  0  0  0  0
  7  4  1  0  0  0  0
  8  7  2  0  0  0  0
  9 10  1  0  0  0  0
 10  3  2  0  0  0  0
 10  4  1  0  0  0  0
 13 12  1  6  0  0  0
 13  8  1  0  0  0  0
 14 13  1  0  0  0  0
 15 16  2  0  0  0  0
 16 14  1  0  0  0  0
 17 16  1  0  0  0  0
 18 17  1  0  0  0  0
 19 18  1  0  0  0  0
 21 19  1  0  0  0  0
 21 20  1  0  0  0  0
 23 22  1  0  0  0  0
 23 24  1  0  0  0  0
 24 25  1  0  0  0  0
 25 26  1  0  0  0  0
 26 27  1  0  0  0  0
 27 39  1  1  0  0  0
 28 27  1  6  0  0  0
 28 30  1  0  0  0  0
 28 31  1  0  0  0  0
 29 32  2  0  0  0  0
 30 31  1  0  0  0  0
 30 32  1  0  0  0  0
 31 35  1  1  0  0  0
 32 34  1  0  0  0  0
 34 33  2  0  0  0  0
 36 37  1  0  0  0  0
 37 35  1  0  0  0  0
 38 39  1  0  0  0  0
M  END
>  <MODEL>
7

>  <REMARK>
 VINA RESULT:      -5.9      1.949      2.712
  Name = 
  19 active torsions:
  status: ('A' for Active; 'I' for Inactive)
    1  A    between atoms: C_1  and  C_24
    2  A    between atoms: C_4  and  C_30
    3  A    between atoms: C_4  and  C_37
    4  A    between atoms: C_5  and  C_15
    5  A    between atoms: C_5  and  C_36
    6  A    between atoms: C_8  and  O_14
    7  A    between atoms: C_8  and  C_28
    8  A    between atoms: O_10  and  C_36
    9  A    between atoms: O_10  and  C_38
   10  A    between atoms: O_14  and  C_37
   11  A    between atoms: C_15  and  N_23
   12  A    between atoms: C_21  and  C_30
   13  A    between atoms: C_22  and  C_31
   14  A    between atoms: N_23  and  C_24
   15  A    between atoms: C_24  and  C_35
   16  A    between atoms: C_25  and  C_39
   17  A    between atoms: C_26  and  C_38
   18  A    between atoms: C_28  and  C_32
   19  A    between atoms: C_29  and  C_31
                            x       y       z     vdW  Elec       q    Type
                         _______ _______ _______ _____ _____    ______ ____

>  <TORSDO>
F 19

$$$$
=
 OpenBabel11042421563D

 39 41  0  0  1  0  0  0  0  0999 V2000
  162.2830  209.3380  152.0650 O   0  0  0  0  0  0  0  0  0  0  0  0
  161.2250  208.8710  152.5750 C   0  0  0  0  0  0  0  0  0  0  0  0
  161.2230  208.7700  155.6980 C   0  0  0  0  0  3  0  0  0  0  0  0
  159.6200  210.4950  155.6030 C   0  0  0  0  0  0  0  0  0  0  0  0
  159.5280  210.6770  152.8370 C   0  0  0  0  0  3  0  0  0  0  0  0
  159.7940  210.2740  157.0530 C   0  0  0  0  0  3  0  0  0  0  0  0
  158.7700  211.4320  155.0200 C   0  0  0  0  0  3  0  0  0  0  0  0
  158.7230  211.5260  153.6220 C   0  0  0  0  0  0  0  0  0  0  0  0
  160.3860  209.7340  153.4340 C   0  0  0  0  0  0  0  0  0  0  0  0
  160.4100  209.6670  154.8420 C   0  0  0  0  0  0  0  0  0  0  0  0
  160.8080  209.1260  157.1300 C   0  0  0  0  0  2  0  0  0  0  0  0
  156.8140  212.9080  153.8830 O   0  0  0  0  0  1  0  0  0  0  0  0
  157.8160  212.5280  152.9870 C   0  0  1  0  0  3  0  0  0  0  0  0
  158.6010  213.7440  152.5160 C   0  0  0  0  0  2  0  0  0  0  0  0
  160.1500  213.8700  150.7110 O   0  0  0  0  0  0  0  0  0  0  0  0
  158.9730  213.6040  151.0800 C   0  0  0  0  0  0  0  0  0  0  0  0
  158.0240  213.1340  150.1690 O   0  0  0  0  0  0  0  0  0  0  0  0
  157.3430  213.9950  149.2670 C   0  0  0  0  0  2  0  0  0  0  0  0
  158.1590  214.1780  147.9990 C   0  0  0  0  0  2  0  0  0  0  0  0
  157.1980  212.5890  146.3670 C   0  0  0  0  0  1  0  0  0  0  0  0
  158.3450  212.8360  147.3230 C   0  0  0  0  0  2  0  0  0  0  0  0
  160.8690  207.5390  152.3390 O   0  0  0  0  0  0  0  0  0  0  0  0
  161.8310  206.4960  152.2680 C   0  0  0  0  0  2  0  0  0  0  0  0
  161.3210  205.2620  152.9920 C   0  0  0  0  0  2  0  0  0  0  0  0
  160.8300  204.2330  151.9910 C   0  0  0  0  0  2  0  0  0  0  0  0
  161.5930  204.3330  150.7490 N   0  0  0  0  0  2  0  0  0  0  0  0
  160.7260  204.1080  149.5860 C   0  0  1  0  0  3  0  0  0  0  0  0
  160.8090  205.2570  148.5870 C   0  0  2  0  0  3  0  0  0  0  0  0
  160.6970  203.4470  145.7140 O   0  0  0  0  0  0  0  0  0  0  0  0
  161.5670  204.8080  147.3840 N   0  0  0  0  0  0  0  0  0  0  0  0
  162.1130  205.6930  148.4560 C   0  0  1  0  0  3  0  0  0  0  0  0
  161.6840  204.0900  146.1590 C   0  0  0  0  0  0  0  0  0  0  0  0
  163.9990  204.5400  145.9280 O   0  0  0  0  0  0  0  0  0  0  0  0
  162.9410  204.0990  145.4080 C   0  0  0  0  0  3  0  0  0  0  0  0
  162.1430  207.1230  147.9500 C   0  0  0  0  0  2  0  0  0  0  0  0
  161.9150  209.4750  148.7390 C   0  0  0  0  0  1  0  0  0  0  0  0
  161.4460  208.0450  148.9340 C   0  0  0  0  0  2  0  0  0  0  0  0
  159.9720  201.7390  149.3290 C   0  0  0  0  0  1  0  0  0  0  0  0
  161.0060  202.7670  148.9120 C   0  0  0  0  0  2  0  0  0  0  0  0
  1  2  2  0  0  0  0
  2  9  1  0  0  0  0
  3 11  1  0  0  0  0
  4  6  2  0  0  0  0
  5  9  2  0  0  0  0
  5  8  1  0  0  0  0
  6 11  1  0  0  0  0
  7  4  1  0  0  0  0
  8  7  2  0  0  0  0
  9 10  1  0  0  0  0
 10  4  1  0  0  0  0
 10  3  2  0  0  0  0
 13  8  1  0  0  0  0
 13 12  1  1  0  0  0
 14 13  1  0  0  0  0
 15 16  2  0  0  0  0
 16 14  1  0  0  0  0
 17 16  1  0  0  0  0
 18 17  1  0  0  0  0
 19 18  1  0  0  0  0
 20 21  1  0  0  0  0
 21 19  1  0  0  0  0
 22  2  1  0  0  0  0
 23 22  1  0  0  0  0
 23 24  1  0  0  0  0
 25 24  1  0  0  0  0
 26 25  1  0  0  0  0
 27 39  1  6  0  0  0
 27 26  1  0  0  0  0
 28 27  1  1  0  0  0
 29 32  2  0  0  0  0
 30 31  1  0  0  0  0
 30 28  1  0  0  0  0
 31 35  1  6  0  0  0
 31 28  1  0  0  0  0
 32 30  1  0  0  0  0
 34 33  2  0  0  0  0
 34 32  1  0  0  0  0
 35 37  1  0  0  0  0
 36 37  1  0  0  0  0
 39 38  1  0  0  0  0
M  END
>  <MODEL>
8

>  <REMARK>
 VINA RESULT:      -5.8      3.354      9.355
  Name = 
  19 active torsions:
  status: ('A' for Active; 'I' for Inactive)
    1  A    between atoms: C_1  and  C_24
    2  A    between atoms: C_4  and  C_30
    3  A    between atoms: C_4  and  C_37
    4  A    between atoms: C_5  and  C_15
    5  A    between atoms: C_5  and  C_36
    6  A    between atoms: C_8  and  O_14
    7  A    between atoms: C_8  and  C_28
    8  A    between atoms: O_10  and  C_36
    9  A    between atoms: O_10  and  C_38
   10  A    between atoms: O_14  and  C_37
   11  A    between atoms: C_15  and  N_23
   12  A    between atoms: C_21  and  C_30
   13  A    between atoms: C_22  and  C_31
   14  A    between atoms: N_23  and  C_24
   15  A    between atoms: C_24  and  C_35
   16  A    between atoms: C_25  and  C_39
   17  A    between atoms: C_26  and  C_38
   18  A    between atoms: C_28  and  C_32
   19  A    between atoms: C_29  and  C_31
                            x       y       z     vdW  Elec       q    Type
                         _______ _______ _______ _____ _____    ______ ____

>  <TORSDO>
F 19

$$$$
=
 OpenBabel11042421563D

 39 41  0  0  1  0  0  0  0  0999 V2000
  163.5570  204.6430  145.7930 O   0  0  0  0  0  0  0  0  0  0  0  0
  162.3070  204.5980  145.9770 C   0  0  0  0  0  0  0  0  0  0  0  0
  161.3430  201.9790  147.3810 C   0  0  0  0  0  3  0  0  0  0  0  0
  160.8700  203.3330  149.2510 C   0  0  0  0  0  0  0  0  0  0  0  0
  161.6910  205.7250  148.1130 C   0  0  0  0  0  3  0  0  0  0  0  0
  160.4840  201.9820  149.7050 C   0  0  0  0  0  3  0  0  0  0  0  0
  160.7860  204.5010  150.0080 C   0  0  0  0  0  3  0  0  0  0  0  0
  161.2020  205.7100  149.4340 C   0  0  0  0  0  0  0  0  0  0  0  0
  161.7750  204.5420  147.3560 C   0  0  0  0  0  0  0  0  0  0  0  0
  161.3510  203.3430  147.9630 C   0  0  0  0  0  0  0  0  0  0  0  0
  160.7510  201.0940  148.4840 C   0  0  0  0  0  2  0  0  0  0  0  0
  160.7550  206.6740  151.5540 O   0  0  0  0  0  1  0  0  0  0  0  0
  161.1170  206.9660  150.2370 C   0  0  1  0  0  3  0  0  0  0  0  0
  162.4390  207.7200  150.2000 C   0  0  0  0  0  2  0  0  0  0  0  0
  161.9480  209.5730  148.7860 O   0  0  0  0  0  0  0  0  0  0  0  0
  162.2080  209.1720  149.9530 C   0  0  0  0  0  0  0  0  0  0  0  0
  162.2370  210.0630  151.0280 O   0  0  0  0  0  0  0  0  0  0  0  0
  161.1400  210.2220  151.9170 C   0  0  0  0  0  2  0  0  0  0  0  0
  161.6230  210.1890  153.3560 C   0  0  0  0  0  2  0  0  0  0  0  0
  161.2910  209.1290  155.5650 C   0  0  0  0  0  1  0  0  0  0  0  0
  160.9110  209.0800  154.1010 C   0  0  0  0  0  2  0  0  0  0  0  0
  161.4420  204.5830  144.8780 O   0  0  0  0  0  0  0  0  0  0  0  0
  161.1940  205.7400  144.0910 C   0  0  0  0  0  2  0  0  0  0  0  0
  162.1650  205.7970  142.9240 C   0  0  0  0  0  2  0  0  0  0  0  0
  161.4660  206.3350  141.6880 C   0  0  0  0  0  2  0  0  0  0  0  0
  162.3930  207.1380  140.8940 N   0  0  0  0  0  2  0  0  0  0  0  0
  161.6710  208.1680  140.1370 C   0  0  1  0  0  3  0  0  0  0  0  0
  162.4120  209.5010  140.1450 C   0  0  2  0  0  3  0  0  0  0  0  0
  160.4480  211.1650  142.3610 O   0  0  0  0  0  0  0  0  0  0  0  0
  161.4300  210.6080  140.3310 N   0  0  0  0  0  0  0  0  0  0  0  0
  162.0760  210.2490  139.0340 C   0  0  1  0  0  3  0  0  0  0  0  0
  160.5520  211.3980  141.1290 C   0  0  0  0  0  0  0  0  0  0  0  0
  158.8260  212.2350  139.7380 O   0  0  0  0  0  0  0  0  0  0  0  0
  159.7750  212.4830  140.5270 C   0  0  0  0  0  3  0  0  0  0  0  0
  163.1670  211.2580  138.7290 C   0  0  0  0  0  2  0  0  0  0  0  0
  162.9670  213.7040  138.2980 C   0  0  0  0  0  1  0  0  0  0  0  0
  162.6540  212.3160  137.7690 C   0  0  0  0  0  2  0  0  0  0  0  0
  162.2950  206.6060  138.2880 C   0  0  0  0  0  1  0  0  0  0  0  0
  161.3560  207.7180  138.7120 C   0  0  0  0  0  2  0  0  0  0  0  0
  1  2  2  0  0  0  0
  2  9  1  0  0  0  0
  3 10  2  0  0  0  0
  3 11  1  0  0  0  0
  4  6  2  0  0  0  0
  4  7  1  0  0  0  0
  5  8  1  0  0  0  0
  8  7  2  0  0  0  0
  8 13  1  0  0  0  0
  9 10  1  0  0  0  0
  9  5  2  0  0  0  0
 10  4  1  0  0  0  0
 11  6  1  0  0  0  0
 13 12  1  1  0  0  0
 14 13  1  0  0  0  0
 15 16  2  0  0  0  0
 16 14  1  0  0  0  0
 16 17  1  0  0  0  0
 17 18  1  0  0  0  0
 18 19  1  0  0  0  0
 19 21  1  0  0  0  0
 21 20  1  0  0  0  0
 22  2  1  0  0  0  0
 23 22  1  0  0  0  0
 24 23  1  0  0  0  0
 25 24  1  0  0  0  0
 26 25  1  0  0  0  0
 27 39  1  6  0  0  0
 27 26  1  0  0  0  0
 28 27  1  6  0  0  0
 28 30  1  0  0  0  0
 30 32  1  0  0  0  0
 31 35  1  1  0  0  0
 31 28  1  0  0  0  0
 31 30  1  0  0  0  0
 32 29  2  0  0  0  0
 33 34  2  0  0  0  0
 34 32  1  0  0  0  0
 37 36  1  0  0  0  0
 37 35  1  0  0  0  0
 38 39  1  0  0  0  0
M  END
>  <MODEL>
9

>  <REMARK>
 VINA RESULT:      -5.7      5.445     11.277
  Name = 
  19 active torsions:
  status: ('A' for Active; 'I' for Inactive)
    1  A    between atoms: C_1  and  C_24
    2  A    between atoms: C_4  and  C_30
    3  A    between atoms: C_4  and  C_37
    4  A    between atoms: C_5  and  C_15
    5  A    between atoms: C_5  and  C_36
    6  A    between atoms: C_8  and  O_14
    7  A    between atoms: C_8  and  C_28
    8  A    between atoms: O_10  and  C_36
    9  A    between atoms: O_10  and  C_38
   10  A    between atoms: O_14  and  C_37
   11  A    between atoms: C_15  and  N_23
   12  A    between atoms: C_21  and  C_30
   13  A    between atoms: C_22  and  C_31
   14  A    between atoms: N_23  and  C_24
   15  A    between atoms: C_24  and  C_35
   16  A    between atoms: C_25  and  C_39
   17  A    between atoms: C_26  and  C_38
   18  A    between atoms: C_28  and  C_32
   19  A    between atoms: C_29  and  C_31
                            x       y       z     vdW  Elec       q    Type
                         _______ _______ _______ _____ _____    ______ ____

>  <TORSDO>
F 19

$$$$
