=
 OpenBabel11042420143D

 25 29  0  0  0  0  0  0  0  0999 V2000
  160.4720  205.9480  148.6720 C   0  0  0  0  0  3  0  0  0  0  0  0
  161.2120  205.0570  148.0690 C   0  0  0  0  0  0  0  0  0  0  0  0
  161.9550  204.1650  147.4690 C   0  0  0  0  0  0  0  0  0  0  0  0
  161.6420  208.4850  153.0060 N   0  0  0  0  0  0  0  0  0  0  0  0
  160.9890  207.2830  152.8860 C   0  0  0  0  0  3  0  0  0  0  0  0
  161.7880  208.6380  150.6610 C   0  0  0  0  0  0  0  0  0  0  0  0
  162.0800  209.1170  149.4390 N   0  0  0  0  0  0  0  0  0  0  0  0
  160.7400  206.7520  151.6510 N   0  0  0  0  0  0  0  0  0  0  0  0
  161.5960  208.1560  148.6050 C   0  0  0  0  0  3  0  0  0  0  0  0
  161.0260  207.1230  149.2730 N   0  0  0  0  0  0  0  0  0  0  0  0
  162.0510  209.1850  151.9050 C   0  0  0  0  0  0  0  0  0  0  0  0
  162.7380  210.4260  152.0430 N   0  0  0  0  0  1  0  0  0  0  0  0
  161.1560  207.4490  150.5650 C   0  0  0  0  0  0  0  0  0  0  0  0
  162.0850  205.8000  145.6310 C   0  0  0  0  0  2  0  0  0  0  0  0
  161.9910  204.4350  144.9860 C   0  0  0  0  0  2  0  0  0  0  0  0
  162.7590  204.6090  146.2840 C   0  0  0  0  0  3  0  0  0  0  0  0
  162.0190  202.8370  147.9260 O   0  0  0  0  0  0  0  0  0  0  0  0
  160.9480  201.8970  147.8230 C   0  0  0  0  0  0  0  0  0  0  0  0
  160.5280  201.3860  146.4620 C   0  0  0  0  0  2  0  0  0  0  0  0
  161.4140  200.5350  147.3690 C   0  0  0  0  0  2  0  0  0  0  0  0
  159.9910  201.8260  148.9210 N   0  0  0  0  0  2  0  0  0  0  0  0
  160.7290  201.7910  150.1730 C   0  0  0  0  0  2  0  0  0  0  0  0
  160.5090  203.0710  150.9430 C   0  0  0  0  0  3  0  0  0  0  0  0
  161.7300  203.5820  151.3240 O   0  0  0  0  0  0  0  0  0  0  0  0
  160.9830  202.9290  152.2250 O   0  0  0  0  0  0  0  0  0  0  0  0
  1 10  1  0  0  0  0
  2  1  2  0  0  0  0
  3 17  1  0  0  0  0
  3  2  2  0  0  0  0
  5  4  1  0  0  0  0
  6 11  1  0  0  0  0
  7  6  1  0  0  0  0
  8  5  2  0  0  0  0
  9 10  1  0  0  0  0
  9  7  2  0  0  0  0
 10 13  1  0  0  0  0
 11 12  1  0  0  0  0
 11  4  2  0  0  0  0
 13  6  2  0  0  0  0
 13  8  1  0  0  0  0
 14 16  1  0  0  0  0
 15 14  1  0  0  0  0
 15 16  1  0  0  0  0
 16  3  1  0  0  0  0
 18 17  1  0  0  0  0
 18 21  1  0  0  0  0
 19 20  1  0  0  0  0
 19 18  1  0  0  0  0
 20 18  1  0  0  0  0
 21 22  1  0  0  0  0
 22 23  1  0  0  0  0
 23 24  1  0  0  0  0
 23 25  1  0  0  0  0
 24 25  1  0  0  0  0
M  END
>  <MODEL>
1

>  <REMARK>
 VINA RESULT:      -7.4      0.000      0.000
  Name = 
  7 active torsions:
  status: ('A' for Active; 'I' for Inactive)
    1  A    between atoms: C_3  and  C_7
    2  A    between atoms: C_4  and  O_18
    3  A    between atoms: C_4  and  N_22
    4  A    between atoms: C_7  and  N_22
    5  A    between atoms: C_10  and  N_20
    6  A    between atoms: C_12  and  C_13
    7  A    between atoms: C_12  and  O_18
                            x       y       z     vdW  Elec       q    Type
                         _______ _______ _______ _____ _____    ______ ____

>  <TORSDO>
F 7

$$$$
=
 OpenBabel11042420143D

 25 29  0  0  0  0  0  0  0  0999 V2000
  160.6000  205.7690  149.2320 C   0  0  0  0  0  3  0  0  0  0  0  0
  161.3590  206.2310  150.1880 C   0  0  0  0  0  0  0  0  0  0  0  0
  162.1230  206.6940  151.1430 C   0  0  0  0  0  0  0  0  0  0  0  0
  160.9510  200.6250  149.3350 N   0  0  0  0  0  0  0  0  0  0  0  0
  160.6450  201.4670  150.3740 C   0  0  0  0  0  3  0  0  0  0  0  0
  161.2040  202.4810  147.9080 C   0  0  0  0  0  0  0  0  0  0  0  0
  161.4430  203.2020  146.7990 N   0  0  0  0  0  0  0  0  0  0  0  0
  160.6110  202.8200  150.1810 N   0  0  0  0  0  0  0  0  0  0  0  0
  161.2500  204.4850  147.2150 C   0  0  0  0  0  3  0  0  0  0  0  0
  160.9090  204.5630  148.5240 N   0  0  0  0  0  0  0  0  0  0  0  0
  161.2390  201.1090  148.0880 C   0  0  0  0  0  0  0  0  0  0  0  0
  161.5440  200.2240  147.0140 N   0  0  0  0  0  1  0  0  0  0  0  0
  160.8880  203.2910  148.9410 C   0  0  0  0  0  0  0  0  0  0  0  0
  161.0320  205.1360  152.7080 C   0  0  0  0  0  2  0  0  0  0  0  0
  161.5120  206.3080  153.5350 C   0  0  0  0  0  2  0  0  0  0  0  0
  162.3320  205.8290  152.3490 C   0  0  0  0  0  3  0  0  0  0  0  0
  162.7450  207.9500  151.0400 O   0  0  0  0  0  0  0  0  0  0  0  0
  162.0470  209.1810  150.8410 C   0  0  0  0  0  0  0  0  0  0  0  0
  161.0020  209.6200  151.8430 C   0  0  0  0  0  2  0  0  0  0  0  0
  162.4040  210.2230  151.8740 C   0  0  0  0  0  2  0  0  0  0  0  0
  161.9910  209.7270  149.4900 N   0  0  0  0  0  2  0  0  0  0  0  0
  162.0460  211.1780  149.5770 C   0  0  0  0  0  2  0  0  0  0  0  0
  162.1320  211.7790  148.1950 C   0  0  0  0  0  3  0  0  0  0  0  0
  163.3070  212.4890  148.0860 O   0  0  0  0  0  0  0  0  0  0  0  0
  162.1570  213.1500  148.2860 O   0  0  0  0  0  0  0  0  0  0  0  0
  1  2  2  0  0  0  0
  2  3  2  0  0  0  0
  3 16  1  0  0  0  0
  4  5  1  0  0  0  0
  6 11  1  0  0  0  0
  6 13  2  0  0  0  0
  7  9  2  0  0  0  0
  7  6  1  0  0  0  0
  8  5  2  0  0  0  0
  9 10  1  0  0  0  0
 10 13  1  0  0  0  0
 10  1  1  0  0  0  0
 11  4  2  0  0  0  0
 12 11  1  0  0  0  0
 13  8  1  0  0  0  0
 14 15  1  0  0  0  0
 16 14  1  0  0  0  0
 16 15  1  0  0  0  0
 17  3  1  0  0  0  0
 18 17  1  0  0  0  0
 18 19  1  0  0  0  0
 18 20  1  0  0  0  0
 19 20  1  0  0  0  0
 21 22  1  0  0  0  0
 21 18  1  0  0  0  0
 23 25  1  0  0  0  0
 23 22  1  0  0  0  0
 24 23  1  0  0  0  0
 24 25  1  0  0  0  0
M  END
>  <MODEL>
2

>  <REMARK>
 VINA RESULT:      -7.2      3.390      7.582
  Name = 
  7 active torsions:
  status: ('A' for Active; 'I' for Inactive)
    1  A    between atoms: C_3  and  C_7
    2  A    between atoms: C_4  and  O_18
    3  A    between atoms: C_4  and  N_22
    4  A    between atoms: C_7  and  N_22
    5  A    between atoms: C_10  and  N_20
    6  A    between atoms: C_12  and  C_13
    7  A    between atoms: C_12  and  O_18
                            x       y       z     vdW  Elec       q    Type
                         _______ _______ _______ _____ _____    ______ ____

>  <TORSDO>
F 7

$$$$
=
 OpenBabel11042420143D

 25 29  0  0  0  0  0  0  0  0999 V2000
  162.3450  207.4910  150.6770 C   0  0  0  0  0  3  0  0  0  0  0  0
  161.5830  206.5190  150.2510 C   0  0  0  0  0  0  0  0  0  0  0  0
  160.8180  205.5500  149.8240 C   0  0  0  0  0  0  0  0  0  0  0  0
  160.4160  208.1640  155.4110 N   0  0  0  0  0  0  0  0  0  0  0  0
  160.6210  206.9800  154.7480 C   0  0  0  0  0  3  0  0  0  0  0  0
  161.2100  209.3490  153.5380 C   0  0  0  0  0  0  0  0  0  0  0  0
  161.5680  210.3760  152.7480 N   0  0  0  0  0  0  0  0  0  0  0  0
  161.1290  206.9770  153.4790 N   0  0  0  0  0  0  0  0  0  0  0  0
  162.0040  209.7590  151.6140 C   0  0  0  0  0  3  0  0  0  0  0  0
  161.9210  208.4080  151.6910 N   0  0  0  0  0  0  0  0  0  0  0  0
  160.7000  209.3660  154.8250 C   0  0  0  0  0  0  0  0  0  0  0  0
  160.4940  210.5890  155.5270 N   0  0  0  0  0  1  0  0  0  0  0  0
  161.4170  208.1720  152.9080 C   0  0  0  0  0  0  0  0  0  0  0  0
  161.5850  203.9620  151.5440 C   0  0  0  0  0  2  0  0  0  0  0  0
  160.9040  203.1390  150.4750 C   0  0  0  0  0  2  0  0  0  0  0  0
  160.3750  204.5200  150.8200 C   0  0  0  0  0  3  0  0  0  0  0  0
  160.4040  205.4780  148.4820 O   0  0  0  0  0  0  0  0  0  0  0  0
  161.2700  205.1740  147.3870 C   0  0  0  0  0  0  0  0  0  0  0  0
  161.1010  205.9060  146.0730 C   0  0  0  0  0  2  0  0  0  0  0  0
  162.2000  206.3140  147.0500 C   0  0  0  0  0  2  0  0  0  0  0  0
  161.9420  203.8800  147.3830 N   0  0  0  0  0  2  0  0  0  0  0  0
  161.5730  203.1730  146.1670 C   0  0  0  0  0  2  0  0  0  0  0  0
  160.5610  202.0970  146.4780 C   0  0  0  0  0  3  0  0  0  0  0  0
  161.0510  200.8830  146.0490 O   0  0  0  0  0  0  0  0  0  0  0  0
  160.1280  201.5150  145.3100 O   0  0  0  0  0  0  0  0  0  0  0  0
  1 10  1  0  0  0  0
  2  1  2  0  0  0  0
  3  2  2  0  0  0  0
  3 16  1  0  0  0  0
  5  4  2  0  0  0  0
  6 11  2  0  0  0  0
  7  6  1  0  0  0  0
  8  5  1  0  0  0  0
  9 10  1  0  0  0  0
  9  7  2  0  0  0  0
 10 13  1  0  0  0  0
 11  4  1  0  0  0  0
 11 12  1  0  0  0  0
 13  8  2  0  0  0  0
 13  6  1  0  0  0  0
 15 16  1  0  0  0  0
 15 14  1  0  0  0  0
 16 14  1  0  0  0  0
 17  3  1  0  0  0  0
 18 17  1  0  0  0  0
 19 20  1  0  0  0  0
 19 18  1  0  0  0  0
 20 18  1  0  0  0  0
 21 18  1  0  0  0  0
 22 23  1  0  0  0  0
 22 21  1  0  0  0  0
 24 23  1  0  0  0  0
 25 24  1  0  0  0  0
 25 23  1  0  0  0  0
M  END
>  <MODEL>
3

>  <REMARK>
 VINA RESULT:      -7.0      2.037      4.127
  Name = 
  7 active torsions:
  status: ('A' for Active; 'I' for Inactive)
    1  A    between atoms: C_3  and  C_7
    2  A    between atoms: C_4  and  O_18
    3  A    between atoms: C_4  and  N_22
    4  A    between atoms: C_7  and  N_22
    5  A    between atoms: C_10  and  N_20
    6  A    between atoms: C_12  and  C_13
    7  A    between atoms: C_12  and  O_18
                            x       y       z     vdW  Elec       q    Type
                         _______ _______ _______ _____ _____    ______ ____

>  <TORSDO>
F 7

$$$$
=
 OpenBabel11042420143D

 25 29  0  0  0  0  0  0  0  0999 V2000
  161.7120  207.9300  151.6960 C   0  0  0  0  0  3  0  0  0  0  0  0
  161.4860  206.7500  151.1830 C   0  0  0  0  0  0  0  0  0  0  0  0
  161.2560  205.5710  150.6700 C   0  0  0  0  0  0  0  0  0  0  0  0
  159.9250  211.6540  154.7820 N   0  0  0  0  0  0  0  0  0  0  0  0
  160.3570  211.7740  153.4840 C   0  0  0  0  0  3  0  0  0  0  0  0
  160.4300  209.3550  154.7370 C   0  0  0  0  0  0  0  0  0  0  0  0
  160.5610  208.0790  155.1410 N   0  0  0  0  0  0  0  0  0  0  0  0
  160.8220  210.6810  152.8070 N   0  0  0  0  0  0  0  0  0  0  0  0
  161.0650  207.4550  154.0400 C   0  0  0  0  0  3  0  0  0  0  0  0
  161.2420  208.3020  152.9960 N   0  0  0  0  0  0  0  0  0  0  0  0
  159.9540  210.4530  155.4340 C   0  0  0  0  0  0  0  0  0  0  0  0
  159.4920  210.3390  156.7770 N   0  0  0  0  0  1  0  0  0  0  0  0
  160.8390  209.4920  153.4570 C   0  0  0  0  0  0  0  0  0  0  0  0
  161.0060  203.1420  150.9970 C   0  0  0  0  0  2  0  0  0  0  0  0
  160.7590  203.7840  152.3440 C   0  0  0  0  0  2  0  0  0  0  0  0
  161.7910  204.3760  151.3990 C   0  0  0  0  0  3  0  0  0  0  0  0
  160.5160  205.4180  149.4840 O   0  0  0  0  0  0  0  0  0  0  0  0
  161.0670  205.5270  148.1700 C   0  0  0  0  0  0  0  0  0  0  0  0
  160.6410  206.6660  147.2710 C   0  0  0  0  0  2  0  0  0  0  0  0
  161.9710  206.7250  148.0180 C   0  0  0  0  0  2  0  0  0  0  0  0
  161.6200  204.3240  147.5580 N   0  0  0  0  0  2  0  0  0  0  0  0
  162.5310  204.7260  146.4970 C   0  0  0  0  0  2  0  0  0  0  0  0
  162.1900  204.0030  145.2160 C   0  0  0  0  0  3  0  0  0  0  0  0
  161.5780  204.8830  144.3520 O   0  0  0  0  0  0  0  0  0  0  0  0
  160.8280  204.0030  145.0310 O   0  0  0  0  0  0  0  0  0  0  0  0
  1 10  1  0  0  0  0
  2  1  2  0  0  0  0
  3  2  2  0  0  0  0
  3 16  1  0  0  0  0
  4 11  1  0  0  0  0
  5  4  2  0  0  0  0
  6  7  1  0  0  0  0
  6 11  2  0  0  0  0
  8 13  2  0  0  0  0
  8  5  1  0  0  0  0
  9  7  2  0  0  0  0
 10 13  1  0  0  0  0
 10  9  1  0  0  0  0
 11 12  1  0  0  0  0
 13  6  1  0  0  0  0
 14 16  1  0  0  0  0
 14 15  1  0  0  0  0
 16 15  1  0  0  0  0
 17  3  1  0  0  0  0
 18 17  1  0  0  0  0
 19 20  1  0  0  0  0
 19 18  1  0  0  0  0
 20 18  1  0  0  0  0
 21 18  1  0  0  0  0
 22 21  1  0  0  0  0
 23 22  1  0  0  0  0
 24 25  1  0  0  0  0
 24 23  1  0  0  0  0
 25 23  1  0  0  0  0
M  END
>  <MODEL>
4

>  <REMARK>
 VINA RESULT:      -6.8      2.508      5.086
  Name = 
  7 active torsions:
  status: ('A' for Active; 'I' for Inactive)
    1  A    between atoms: C_3  and  C_7
    2  A    between atoms: C_4  and  O_18
    3  A    between atoms: C_4  and  N_22
    4  A    between atoms: C_7  and  N_22
    5  A    between atoms: C_10  and  N_20
    6  A    between atoms: C_12  and  C_13
    7  A    between atoms: C_12  and  O_18
                            x       y       z     vdW  Elec       q    Type
                         _______ _______ _______ _____ _____    ______ ____

>  <TORSDO>
F 7

$$$$
=
 OpenBabel11042420143D

 25 29  0  0  0  0  0  0  0  0999 V2000
  162.3520  206.9630  150.6690 C   0  0  0  0  0  3  0  0  0  0  0  0
  161.6290  205.9270  150.3370 C   0  0  0  0  0  0  0  0  0  0  0  0
  160.9040  204.8930  150.0020 C   0  0  0  0  0  0  0  0  0  0  0  0
  160.4530  208.6290  155.1640 N   0  0  0  0  0  0  0  0  0  0  0  0
  160.8150  207.3490  154.8290 C   0  0  0  0  0  3  0  0  0  0  0  0
  161.0220  209.3570  152.9990 C   0  0  0  0  0  0  0  0  0  0  0  0
  161.2070  210.1690  151.9440 N   0  0  0  0  0  0  0  0  0  0  0  0
  161.2890  207.0700  153.5770 N   0  0  0  0  0  0  0  0  0  0  0  0
  161.7020  209.3320  150.9900 C   0  0  0  0  0  3  0  0  0  0  0  0
  161.8200  208.0550  151.4280 N   0  0  0  0  0  0  0  0  0  0  0  0
  160.5440  209.6540  154.2640 C   0  0  0  0  0  0  0  0  0  0  0  0
  160.1760  210.9820  154.6280 N   0  0  0  0  0  1  0  0  0  0  0  0
  161.3850  208.0920  152.6930 C   0  0  0  0  0  0  0  0  0  0  0  0
  161.2120  204.1290  152.3230 C   0  0  0  0  0  2  0  0  0  0  0  0
  161.1920  202.8860  151.4620 C   0  0  0  0  0  2  0  0  0  0  0  0
  160.3100  204.0700  151.1050 C   0  0  0  0  0  3  0  0  0  0  0  0
  160.6680  204.5680  148.6540 O   0  0  0  0  0  0  0  0  0  0  0  0
  161.5040  203.7140  147.8720 C   0  0  0  0  0  0  0  0  0  0  0  0
  161.5770  202.2380  148.1940 C   0  0  0  0  0  2  0  0  0  0  0  0
  160.7140  202.7360  147.0370 C   0  0  0  0  0  2  0  0  0  0  0  0
  162.6050  204.3220  147.1330 N   0  0  0  0  0  2  0  0  0  0  0  0
  162.2290  204.4000  145.7300 C   0  0  0  0  0  2  0  0  0  0  0  0
  161.8240  205.8110  145.3770 C   0  0  0  0  0  3  0  0  0  0  0  0
  160.4550  205.8630  145.2330 O   0  0  0  0  0  0  0  0  0  0  0  0
  161.2300  205.8280  144.1390 O   0  0  0  0  0  0  0  0  0  0  0  0
  1 10  1  0  0  0  0
  2  1  2  0  0  0  0
  3  2  2  0  0  0  0
  3 16  1  0  0  0  0
  5  4  1  0  0  0  0
  6 11  1  0  0  0  0
  7  6  1  0  0  0  0
  8  5  2  0  0  0  0
  9 10  1  0  0  0  0
  9  7  2  0  0  0  0
 10 13  1  0  0  0  0
 11 12  1  0  0  0  0
 11  4  2  0  0  0  0
 13  6  2  0  0  0  0
 13  8  1  0  0  0  0
 15 14  1  0  0  0  0
 16 15  1  0  0  0  0
 16 14  1  0  0  0  0
 17  3  1  0  0  0  0
 18 19  1  0  0  0  0
 18 17  1  0  0  0  0
 20 18  1  0  0  0  0
 20 19  1  0  0  0  0
 21 18  1  0  0  0  0
 22 21  1  0  0  0  0
 23 22  1  0  0  0  0
 24 23  1  0  0  0  0
 25 24  1  0  0  0  0
 25 23  1  0  0  0  0
M  END
>  <MODEL>
5

>  <REMARK>
 VINA RESULT:      -6.7      2.182      4.178
  Name = 
  7 active torsions:
  status: ('A' for Active; 'I' for Inactive)
    1  A    between atoms: C_3  and  C_7
    2  A    between atoms: C_4  and  O_18
    3  A    between atoms: C_4  and  N_22
    4  A    between atoms: C_7  and  N_22
    5  A    between atoms: C_10  and  N_20
    6  A    between atoms: C_12  and  C_13
    7  A    between atoms: C_12  and  O_18
                            x       y       z     vdW  Elec       q    Type
                         _______ _______ _______ _____ _____    ______ ____

>  <TORSDO>
F 7

$$$$
=
 OpenBabel11042420143D

 25 29  0  0  0  0  0  0  0  0999 V2000
  161.4320  204.2100  150.9190 C   0  0  0  0  0  3  0  0  0  0  0  0
  161.4370  205.5080  150.7750 C   0  0  0  0  0  0  0  0  0  0  0  0
  161.4390  206.8070  150.6310 C   0  0  0  0  0  0  0  0  0  0  0  0
  161.4990  203.2220  145.8580 N   0  0  0  0  0  0  0  0  0  0  0  0
  161.9600  204.3430  146.5010 C   0  0  0  0  0  3  0  0  0  0  0  0
  160.8040  202.3260  147.9220 C   0  0  0  0  0  0  0  0  0  0  0  0
  160.2770  201.4750  148.8200 N   0  0  0  0  0  0  0  0  0  0  0  0
  161.8500  204.4560  147.8590 N   0  0  0  0  0  0  0  0  0  0  0  0
  160.4580  202.1230  150.0040 C   0  0  0  0  0  3  0  0  0  0  0  0
  161.0690  203.3240  149.8540 N   0  0  0  0  0  0  0  0  0  0  0  0
  160.9130  202.1970  146.5480 C   0  0  0  0  0  0  0  0  0  0  0  0
  160.4490  201.0320  145.8700 N   0  0  0  0  0  1  0  0  0  0  0  0
  161.2750  203.4320  148.5360 C   0  0  0  0  0  0  0  0  0  0  0  0
  161.9450  208.8280  149.3180 C   0  0  0  0  0  2  0  0  0  0  0  0
  161.6010  207.7440  148.3210 C   0  0  0  0  0  2  0  0  0  0  0  0
  162.3490  207.3930  149.5950 C   0  0  0  0  0  3  0  0  0  0  0  0
  160.6030  207.6320  151.4050 O   0  0  0  0  0  0  0  0  0  0  0  0
  160.9610  208.1740  152.6770 C   0  0  0  0  0  0  0  0  0  0  0  0
  161.9270  209.3360  152.7510 C   0  0  0  0  0  2  0  0  0  0  0  0
  160.4240  209.5700  152.8830 C   0  0  0  0  0  2  0  0  0  0  0  0
  160.7940  207.3300  153.8540 N   0  0  0  0  0  2  0  0  0  0  0  0
  161.2000  208.0890  155.0270 C   0  0  0  0  0  2  0  0  0  0  0  0
  160.0810  208.1210  156.0400 C   0  0  0  0  0  3  0  0  0  0  0  0
  160.2680  207.1020  156.9470 O   0  0  0  0  0  0  0  0  0  0  0  0
  159.3590  206.9540  155.9720 O   0  0  0  0  0  0  0  0  0  0  0  0
  2  1  2  0  0  0  0
  3  2  2  0  0  0  0
  3 17  1  0  0  0  0
  4  5  2  0  0  0  0
  4 11  1  0  0  0  0
  5  8  1  0  0  0  0
  6 13  1  0  0  0  0
  6  7  1  0  0  0  0
  7  9  2  0  0  0  0
  8 13  2  0  0  0  0
 10  9  1  0  0  0  0
 10  1  1  0  0  0  0
 11  6  2  0  0  0  0
 12 11  1  0  0  0  0
 13 10  1  0  0  0  0
 14 16  1  0  0  0  0
 15 14  1  0  0  0  0
 15 16  1  0  0  0  0
 16  3  1  0  0  0  0
 17 18  1  0  0  0  0
 18 19  1  0  0  0  0
 18 20  1  0  0  0  0
 18 21  1  0  0  0  0
 19 20  1  0  0  0  0
 21 22  1  0  0  0  0
 22 23  1  0  0  0  0
 23 24  1  0  0  0  0
 25 23  1  0  0  0  0
 25 24  1  0  0  0  0
M  END
>  <MODEL>
6

>  <REMARK>
 VINA RESULT:      -6.6      2.591      6.958
  Name = 
  7 active torsions:
  status: ('A' for Active; 'I' for Inactive)
    1  A    between atoms: C_3  and  C_7
    2  A    between atoms: C_4  and  O_18
    3  A    between atoms: C_4  and  N_22
    4  A    between atoms: C_7  and  N_22
    5  A    between atoms: C_10  and  N_20
    6  A    between atoms: C_12  and  C_13
    7  A    between atoms: C_12  and  O_18
                            x       y       z     vdW  Elec       q    Type
                         _______ _______ _______ _____ _____    ______ ____

>  <TORSDO>
F 7

$$$$
=
 OpenBabel11042420143D

 25 29  0  0  0  0  0  0  0  0999 V2000
  162.1130  206.4940  151.7380 C   0  0  0  0  0  3  0  0  0  0  0  0
  161.4080  205.7910  150.8920 C   0  0  0  0  0  0  0  0  0  0  0  0
  160.7000  205.0910  150.0460 C   0  0  0  0  0  0  0  0  0  0  0  0
  160.6310  210.5570  154.5460 N   0  0  0  0  0  0  0  0  0  0  0  0
  161.2180  210.5630  153.3050 C   0  0  0  0  0  3  0  0  0  0  0  0
  160.7530  208.2060  154.5920 C   0  0  0  0  0  0  0  0  0  0  0  0
  160.6270  206.9400  155.0260 N   0  0  0  0  0  0  0  0  0  0  0  0
  161.5680  209.3880  152.7010 N   0  0  0  0  0  0  0  0  0  0  0  0
  161.1410  206.2080  153.9990 C   0  0  0  0  0  3  0  0  0  0  0  0
  161.5690  206.9790  152.9700 N   0  0  0  0  0  0  0  0  0  0  0  0
  160.3900  209.3890  155.2130 C   0  0  0  0  0  0  0  0  0  0  0  0
  159.7690  209.3950  156.4960 N   0  0  0  0  0  1  0  0  0  0  0  0
  161.3180  208.2330  153.3650 C   0  0  0  0  0  0  0  0  0  0  0  0
  161.2100  203.0170  151.2730 C   0  0  0  0  0  2  0  0  0  0  0  0
  160.8370  202.6030  149.8660 C   0  0  0  0  0  2  0  0  0  0  0  0
  160.1400  203.7840  150.5190 C   0  0  0  0  0  3  0  0  0  0  0  0
  160.4510  205.5510  148.7410 O   0  0  0  0  0  0  0  0  0  0  0  0
  161.4560  205.7130  147.7380 C   0  0  0  0  0  0  0  0  0  0  0  0
  161.8600  204.5310  146.8850 C   0  0  0  0  0  2  0  0  0  0  0  0
  160.9040  205.5890  146.3390 C   0  0  0  0  0  2  0  0  0  0  0  0
  162.3900  206.8240  147.8770 N   0  0  0  0  0  2  0  0  0  0  0  0
  161.6290  208.0310  148.1600 C   0  0  0  0  0  2  0  0  0  0  0  0
  162.5500  209.1270  148.6390 C   0  0  0  0  0  3  0  0  0  0  0  0
  161.9550  209.7860  149.6920 O   0  0  0  0  0  0  0  0  0  0  0  0
  161.9430  210.3490  148.4760 O   0  0  0  0  0  0  0  0  0  0  0  0
  1 10  1  0  0  0  0
  2  1  2  0  0  0  0
  3 16  1  0  0  0  0
  3  2  2  0  0  0  0
  4 11  1  0  0  0  0
  5  4  2  0  0  0  0
  6  7  1  0  0  0  0
  6 11  2  0  0  0  0
  8  5  1  0  0  0  0
  8 13  2  0  0  0  0
  9  7  2  0  0  0  0
 10 13  1  0  0  0  0
 10  9  1  0  0  0  0
 11 12  1  0  0  0  0
 13  6  1  0  0  0  0
 15 16  1  0  0  0  0
 15 14  1  0  0  0  0
 16 14  1  0  0  0  0
 17  3  1  0  0  0  0
 18 21  1  0  0  0  0
 18 17  1  0  0  0  0
 19 18  1  0  0  0  0
 20 19  1  0  0  0  0
 20 18  1  0  0  0  0
 21 22  1  0  0  0  0
 22 23  1  0  0  0  0
 23 24  1  0  0  0  0
 25 23  1  0  0  0  0
 25 24  1  0  0  0  0
M  END
>  <MODEL>
7

>  <REMARK>
 VINA RESULT:      -6.6      2.704      4.910
  Name = 
  7 active torsions:
  status: ('A' for Active; 'I' for Inactive)
    1  A    between atoms: C_3  and  C_7
    2  A    between atoms: C_4  and  O_18
    3  A    between atoms: C_4  and  N_22
    4  A    between atoms: C_7  and  N_22
    5  A    between atoms: C_10  and  N_20
    6  A    between atoms: C_12  and  C_13
    7  A    between atoms: C_12  and  O_18
                            x       y       z     vdW  Elec       q    Type
                         _______ _______ _______ _____ _____    ______ ____

>  <TORSDO>
F 7

$$$$
=
 OpenBabel11042420143D

 25 29  0  0  0  0  0  0  0  0999 V2000
  161.4470  208.8450  151.3530 C   0  0  0  0  0  3  0  0  0  0  0  0
  161.3580  207.5690  151.0910 C   0  0  0  0  0  0  0  0  0  0  0  0
  161.2660  206.2920  150.8280 C   0  0  0  0  0  0  0  0  0  0  0  0
  159.2200  212.8670  153.6890 N   0  0  0  0  0  0  0  0  0  0  0  0
  159.6180  212.7710  152.3790 C   0  0  0  0  0  3  0  0  0  0  0  0
  160.0220  210.6900  154.0910 C   0  0  0  0  0  0  0  0  0  0  0  0
  160.3240  209.5510  154.7380 N   0  0  0  0  0  0  0  0  0  0  0  0
  160.2150  211.6300  151.9190 N   0  0  0  0  0  0  0  0  0  0  0  0
  160.8940  208.7840  153.7680 C   0  0  0  0  0  3  0  0  0  0  0  0
  160.9460  209.4130  152.5680 N   0  0  0  0  0  0  0  0  0  0  0  0
  159.4140  211.8380  154.5690 C   0  0  0  0  0  0  0  0  0  0  0  0
  158.9850  211.9440  155.9240 N   0  0  0  0  0  1  0  0  0  0  0  0
  160.3950  210.6120  152.7950 C   0  0  0  0  0  0  0  0  0  0  0  0
  161.0130  204.1790  152.0690 C   0  0  0  0  0  2  0  0  0  0  0  0
  161.2350  205.2600  153.1040 C   0  0  0  0  0  2  0  0  0  0  0  0
  161.9440  205.3370  151.7630 C   0  0  0  0  0  3  0  0  0  0  0  0
  160.5390  205.8220  149.7200 O   0  0  0  0  0  0  0  0  0  0  0  0
  161.1210  205.4860  148.4590 C   0  0  0  0  0  0  0  0  0  0  0  0
  160.6370  206.1780  147.2040 C   0  0  0  0  0  2  0  0  0  0  0  0
  161.9350  206.6170  147.8770 C   0  0  0  0  0  2  0  0  0  0  0  0
  161.7840  204.1940  148.3320 N   0  0  0  0  0  2  0  0  0  0  0  0
  160.7650  203.1680  148.1760 C   0  0  0  0  0  2  0  0  0  0  0  0
  160.9200  202.1120  149.2440 C   0  0  0  0  0  3  0  0  0  0  0  0
  160.8960  200.8680  148.6540 O   0  0  0  0  0  0  0  0  0  0  0  0
  159.7990  201.3180  149.2800 O   0  0  0  0  0  0  0  0  0  0  0  0
  1 10  1  0  0  0  0
  2  1  2  0  0  0  0
  3  2  2  0  0  0  0
  3 16  1  0  0  0  0
  4 11  1  0  0  0  0
  5  4  2  0  0  0  0
  6 11  2  0  0  0  0
  6  7  1  0  0  0  0
  8  5  1  0  0  0  0
  8 13  2  0  0  0  0
  9  7  2  0  0  0  0
 10 13  1  0  0  0  0
 10  9  1  0  0  0  0
 11 12  1  0  0  0  0
 13  6  1  0  0  0  0
 14 15  1  0  0  0  0
 16 14  1  0  0  0  0
 16 15  1  0  0  0  0
 17  3  1  0  0  0  0
 18 17  1  0  0  0  0
 19 20  1  0  0  0  0
 19 18  1  0  0  0  0
 20 18  1  0  0  0  0
 21 18  1  0  0  0  0
 22 21  1  0  0  0  0
 22 23  1  0  0  0  0
 23 25  1  0  0  0  0
 24 23  1  0  0  0  0
 24 25  1  0  0  0  0
M  END
>  <MODEL>
8

>  <REMARK>
 VINA RESULT:      -6.4      2.685      4.781
  Name = 
  7 active torsions:
  status: ('A' for Active; 'I' for Inactive)
    1  A    between atoms: C_3  and  C_7
    2  A    between atoms: C_4  and  O_18
    3  A    between atoms: C_4  and  N_22
    4  A    between atoms: C_7  and  N_22
    5  A    between atoms: C_10  and  N_20
    6  A    between atoms: C_12  and  C_13
    7  A    between atoms: C_12  and  O_18
                            x       y       z     vdW  Elec       q    Type
                         _______ _______ _______ _____ _____    ______ ____

>  <TORSDO>
F 7

$$$$
=
 OpenBabel11042420143D

 25 29  0  0  0  0  0  0  0  0999 V2000
  160.5620  205.7540  149.3900 C   0  0  0  0  0  3  0  0  0  0  0  0
  161.3190  206.2260  150.3440 C   0  0  0  0  0  0  0  0  0  0  0  0
  162.0790  206.6990  151.2950 C   0  0  0  0  0  0  0  0  0  0  0  0
  160.8230  200.6050  149.3150 N   0  0  0  0  0  0  0  0  0  0  0  0
  160.4570  201.4110  150.3630 C   0  0  0  0  0  3  0  0  0  0  0  0
  161.2050  202.5080  147.9830 C   0  0  0  0  0  0  0  0  0  0  0  0
  161.5330  203.2670  146.9230 N   0  0  0  0  0  0  0  0  0  0  0  0
  160.4580  202.7710  150.2210 N   0  0  0  0  0  0  0  0  0  0  0  0
  161.3320  204.5360  147.3750 C   0  0  0  0  0  3  0  0  0  0  0  0
  160.9000  204.5700  148.6590 N   0  0  0  0  0  0  0  0  0  0  0  0
  161.2050  201.1300  148.1120 C   0  0  0  0  0  0  0  0  0  0  0  0
  161.5720  200.2810  147.0270 N   0  0  0  0  0  1  0  0  0  0  0  0
  160.8290  203.2840  149.0230 C   0  0  0  0  0  0  0  0  0  0  0  0
  161.1480  204.9050  152.7030 C   0  0  0  0  0  2  0  0  0  0  0  0
  161.3520  206.0990  153.6090 C   0  0  0  0  0  2  0  0  0  0  0  0
  162.3350  205.8230  152.4840 C   0  0  0  0  0  3  0  0  0  0  0  0
  162.6580  207.9780  151.2040 O   0  0  0  0  0  0  0  0  0  0  0  0
  161.9390  209.2010  151.3690 C   0  0  0  0  0  0  0  0  0  0  0  0
  162.6830  210.5170  151.3350 C   0  0  0  0  0  2  0  0  0  0  0  0
  161.9140  210.0320  150.1090 C   0  0  0  0  0  2  0  0  0  0  0  0
  160.6420  209.1500  152.0330 N   0  0  0  0  0  2  0  0  0  0  0  0
  160.5690  210.2480  152.9840 C   0  0  0  0  0  2  0  0  0  0  0  0
  160.7110  209.7260  154.3940 C   0  0  0  0  0  3  0  0  0  0  0  0
  160.4020  210.7350  155.2800 O   0  0  0  0  0  0  0  0  0  0  0  0
  161.6880  210.4310  155.0540 O   0  0  0  0  0  0  0  0  0  0  0  0
  1  2  2  0  0  0  0
  2  3  2  0  0  0  0
  3 16  1  0  0  0  0
  4  5  1  0  0  0  0
  6 11  1  0  0  0  0
  6 13  2  0  0  0  0
  7  9  2  0  0  0  0
  7  6  1  0  0  0  0
  8  5  2  0  0  0  0
  9 10  1  0  0  0  0
 10 13  1  0  0  0  0
 10  1  1  0  0  0  0
 11  4  2  0  0  0  0
 12 11  1  0  0  0  0
 13  8  1  0  0  0  0
 14 15  1  0  0  0  0
 16 14  1  0  0  0  0
 16 15  1  0  0  0  0
 17  3  1  0  0  0  0
 17 18  1  0  0  0  0
 18 21  1  0  0  0  0
 19 18  1  0  0  0  0
 20 19  1  0  0  0  0
 20 18  1  0  0  0  0
 21 22  1  0  0  0  0
 22 23  1  0  0  0  0
 23 25  1  0  0  0  0
 23 24  1  0  0  0  0
 25 24  1  0  0  0  0
M  END
>  <MODEL>
9

>  <REMARK>
 VINA RESULT:      -6.3      2.967      7.258
  Name = 
  7 active torsions:
  status: ('A' for Active; 'I' for Inactive)
    1  A    between atoms: C_3  and  C_7
    2  A    between atoms: C_4  and  O_18
    3  A    between atoms: C_4  and  N_22
    4  A    between atoms: C_7  and  N_22
    5  A    between atoms: C_10  and  N_20
    6  A    between atoms: C_12  and  C_13
    7  A    between atoms: C_12  and  O_18
                            x       y       z     vdW  Elec       q    Type
                         _______ _______ _______ _____ _____    ______ ____

>  <TORSDO>
F 7

$$$$
