=
 OpenBabel11042420073D

 58 64  0  0  1  0  0  0  0  0999 V2000
  163.8000  206.1070  151.8710 C   0  0  0  0  0  1  0  0  0  0  0  0
  160.8420  208.6250  152.9130 C   0  0  0  0  0  0  0  0  0  0  0  0
  162.3140  206.3950  151.9040 C   0  0  1  0  0  3  0  0  0  0  0  0
  159.1830  206.3380  154.9470 O   0  0  0  0  0  0  0  0  0  0  0  0
  160.9840  208.6180  151.4500 C   0  0  1  0  0  3  0  0  0  0  0  0
  161.3520  209.9430  151.0930 O   0  0  0  0  0  0  0  0  0  0  0  0
  160.7930  209.8730  153.3270 C   0  0  0  0  0  0  0  0  0  0  0  0
  160.9100  209.3780  155.8160 C   0  0  1  0  0  3  0  0  0  0  0  0
  161.8630  206.4410  153.3820 C   0  0  1  0  0  3  0  0  0  0  0  0
  160.0490  208.2430  155.8790 O   0  0  0  0  0  0  0  0  0  0  0  0
  160.9650  210.6870  152.1680 N   0  0  0  0  0  0  0  0  0  0  0  0
  160.8180  207.4260  153.6820 N   0  0  0  0  0  0  0  0  0  0  0  0
  162.0160  207.5810  150.9470 C   0  0  2  0  0  3  0  0  0  0  0  0
  159.9820  207.3060  154.8480 C   0  0  0  0  0  0  0  0  0  0  0  0
  160.4490  210.3700  154.7240 C   0  0  1  0  0  3  0  0  0  0  0  0
  161.1230  207.9150  147.2910 N   0  0  0  0  0  0  0  0  0  0  0  0
  161.6910  205.8430  148.9930 C   0  0  0  0  0  0  0  0  0  0  0  0
  161.4410  208.1930  148.5800 C   0  0  0  0  0  3  0  0  0  0  0  0
  161.7090  207.1750  149.4970 C   0  0  0  0  0  0  0  0  0  0  0  0
  161.9690  204.8660  149.7360 O   0  0  0  0  0  0  0  0  0  0  0  0
  161.0560  206.6330  146.8530 C   0  0  0  0  0  3  0  0  0  0  0  0
  161.3380  205.6060  147.6950 N   0  0  0  0  0  0  0  0  0  0  0  0
  161.2760  204.2780  147.2300 N   0  0  0  0  0  2  0  0  0  0  0  0
  161.2870  202.7020  145.3120 C   0  0  0  0  0  2  0  0  0  0  0  0
  159.9700  203.2220  144.7490 C   0  0  0  0  0  2  0  0  0  0  0  0
  162.0260  203.8120  146.0600 C   0  0  1  0  0  3  0  0  0  0  0  0
  162.3390  204.9910  145.1320 C   0  0  0  0  0  2  0  0  0  0  0  0
  160.1810  204.4720  143.9440 C   0  0  0  0  0  3  0  0  0  0  0  0
  161.2260  205.2940  144.1520 C   0  0  0  0  0  3  0  0  0  0  0  0
  162.4850  210.1910  157.2610 C   0  0  0  0  0  1  0  0  0  0  0  0
  161.1150  209.9430  157.0920 O   0  0  0  0  0  0  0  0  0  0  0  0
  161.4780  205.0310  153.8330 C   0  0  0  0  0  2  0  0  0  0  0  0
  160.0620  204.5000  151.8470 C   0  0  0  0  0  3  0  0  0  0  0  0
  161.8980  203.0130  152.3870 C   0  0  0  0  0  3  0  0  0  0  0  0
  160.4670  202.5330  150.4800 C   0  0  0  0  0  0  0  0  0  0  0  0
  161.5570  202.1960  151.3000 C   0  0  0  0  0  3  0  0  0  0  0  0
  159.7220  203.6870  150.7620 C   0  0  0  0  0  3  0  0  0  0  0  0
  161.1460  204.1660  152.6610 C   0  0  0  0  0  0  0  0  0  0  0  0
  161.1230  201.2540  148.4220 N   0  0  0  0  0  1  0  0  0  0  0  0
  160.1140  201.6830  149.3300 C   0  0  0  0  0  0  0  0  0  0  0  0
  158.9170  201.3490  149.1240 O   0  0  0  0  0  0  0  0  0  0  0  0
  160.2900  211.9730  151.9980 C   0  0  0  0  0  2  0  0  0  0  0  0
  160.8250  212.7410  150.8010 C   0  0  0  0  0  2  0  0  0  0  0  0
  159.9890  213.9770  150.5470 C   0  0  0  0  0  1  0  0  0  0  0  0
  160.9820  211.7870  154.9880 C   0  0  0  0  0  2  0  0  0  0  0  0
  160.0690  212.5700  155.9060 C   0  0  0  0  0  0  0  0  0  0  0  0
  160.5540  213.4410  156.6780 O   0  0  0  0  0  0  0  0  0  0  0  0
  158.6800  212.3820  155.9290 O   0  0  0  0  0  0  0  0  0  0  0  0
  157.7760  213.1340  156.6670 N   0  0  0  0  0  0  0  0  0  0  0  0
  156.6520  212.4040  156.8660 O   0  0  0  0  0  1  0  0  0  0  0  0
  157.4480  214.3400  155.9040 C   0  0  0  0  0  2  0  0  0  0  0  0
  155.3850  214.2920  154.6190 C   0  0  0  0  0  3  0  0  0  0  0  0
  156.6850  213.9780  154.6710 C   0  0  0  0  0  0  0  0  0  0  0  0
  157.1600  213.3320  152.2910 C   0  0  0  0  0  3  0  0  0  0  0  0
  156.1090  214.1540  151.6470 C   0  0  0  0  0  3  0  0  0  0  0  0
  154.9320  214.4530  152.1940 C   0  0  0  0  0  3  0  0  0  0  0  0
  154.4730  213.8980  153.4990 C   0  0  0  0  0  2  0  0  0  0  0  0
  157.4040  213.2510  153.6030 C   0  0  0  0  0  3  0  0  0  0  0  0
  2  7  2  0  0  0  0
  2 12  1  0  0  0  0
  3  1  1  1  0  0  0
  3  9  1  0  0  0  0
  5  6  1  1  0  0  0
  5  2  1  0  0  0  0
  6 11  1  0  0  0  0
  7 15  1  0  0  0  0
  8 10  1  0  0  0  0
  8 31  1  1  0  0  0
  9 12  1  0  0  0  0
  9 32  1  6  0  0  0
 11  7  1  0  0  0  0
 12 14  1  0  0  0  0
 13 19  1  6  0  0  0
 13  5  1  0  0  0  0
 13  3  1  0  0  0  0
 14  4  2  0  0  0  0
 14 10  1  0  0  0  0
 15 45  1  1  0  0  0
 15  8  1  0  0  0  0
 16 18  1  0  0  0  0
 17 19  1  0  0  0  0
 17 20  2  0  0  0  0
 18 19  2  0  0  0  0
 21 16  2  0  0  0  0
 21 22  1  0  0  0  0
 22 17  1  0  0  0  0
 23 22  1  0  0  0  0
 24 26  1  0  0  0  0
 25 24  1  0  0  0  0
 26 23  1  1  0  0  0
 27 26  1  0  0  0  0
 28 29  2  0  0  0  0
 28 25  1  0  0  0  0
 29 27  1  0  0  0  0
 31 30  1  0  0  0  0
 33 38  1  0  0  0  0
 34 38  2  0  0  0  0
 35 37  1  0  0  0  0
 35 36  2  0  0  0  0
 36 34  1  0  0  0  0
 37 33  2  0  0  0  0
 38 32  1  0  0  0  0
 39 40  1  0  0  0  0
 40 35  1  0  0  0  0
 41 40  2  0  0  0  0
 42 11  1  0  0  0  0
 43 42  1  0  0  0  0
 44 43  1  0  0  0  0
 45 46  1  0  0  0  0
 46 48  1  0  0  0  0
 46 47  2  0  0  0  0
 48 49  1  0  0  0  0
 49 50  1  0  0  0  0
 51 49  1  0  0  0  0
 52 53  2  0  0  0  0
 53 51  1  0  0  0  0
 54 58  2  0  0  0  0
 55 56  2  0  0  0  0
 55 54  1  0  0  0  0
 56 57  1  0  0  0  0
 57 52  1  0  0  0  0
 58 53  1  0  0  0  0
M  END
>  <MODEL>
1

>  <REMARK>
 VINA RESULT:      -1.2      0.000      0.000
  Name = 
  15 active torsions:
  status: ('A' for Active; 'I' for Inactive)
    1  A    between atoms: C_4  and  C_10
    2  A    between atoms: C_8  and  C_36
    3  A    between atoms: C_8  and  O_39
    4  A    between atoms: C_10  and  N_17
    5  A    between atoms: N_17  and  O_39
    6  A    between atoms: C_22  and  C_56
    7  A    between atoms: C_23  and  C_41
    8  A    between atoms: C_23  and  C_52
    9  A    between atoms: C_24  and  C_31
   10  A    between atoms: C_33  and  O_35
   11  A    between atoms: C_34  and  C_37
   12  A    between atoms: C_34  and  N_47
   13  A    between atoms: C_36  and  C_58
   14  A    between atoms: C_40  and  N_48
   15  A    between atoms: N_48  and  N_53
                            x       y       z     vdW  Elec       q    Type
                         _______ _______ _______ _____ _____    ______ ____

>  <TORSDO>
F 15

$$$$
=
 OpenBabel11042420073D

 58 64  0  0  1  0  0  0  0  0999 V2000
  158.3690  212.9150  148.0060 C   0  0  0  0  0  1  0  0  0  0  0  0
  161.3080  210.6120  149.5030 C   0  0  0  0  0  0  0  0  0  0  0  0
  159.7980  212.8190  148.4960 C   0  0  1  0  0  3  0  0  0  0  0  0
  161.7560  212.5090  152.3880 O   0  0  0  0  0  0  0  0  0  0  0  0
  161.6260  210.9680  148.1130 C   0  0  1  0  0  3  0  0  0  0  0  0
  161.6640  209.7380  147.4010 O   0  0  0  0  0  0  0  0  0  0  0  0
  161.4790  209.3180  149.6580 C   0  0  0  0  0  0  0  0  0  0  0  0
  160.5010  209.1540  151.9970 C   0  0  1  0  0  3  0  0  0  0  0  0
  159.7700  212.4620  150.0010 C   0  0  1  0  0  3  0  0  0  0  0  0
  161.0500  210.3380  152.5740 O   0  0  0  0  0  0  0  0  0  0  0  0
  161.8430  208.8050  148.3770 N   0  0  0  0  0  0  0  0  0  0  0  0
  160.8490  211.5740  150.4490 N   0  0  0  0  0  0  0  0  0  0  0  0
  160.6120  211.9580  147.4930 C   0  0  2  0  0  3  0  0  0  0  0  0
  161.2400  211.5040  151.8320 C   0  0  0  0  0  0  0  0  0  0  0  0
  161.4680  208.5340  150.9630 C   0  0  1  0  0  3  0  0  0  0  0  0
  162.8720  214.4180  145.7270 N   0  0  0  0  0  0  0  0  0  0  0  0
  160.9380  212.6310  144.9660 C   0  0  0  0  0  0  0  0  0  0  0  0
  162.2750  213.6530  146.6750 C   0  0  0  0  0  3  0  0  0  0  0  0
  161.2630  212.7490  146.3470 C   0  0  0  0  0  0  0  0  0  0  0  0
  160.0720  211.8060  144.5730 O   0  0  0  0  0  0  0  0  0  0  0  0
  162.4990  214.3270  144.4260 C   0  0  0  0  0  3  0  0  0  0  0  0
  161.5420  213.4410  144.0480 N   0  0  0  0  0  0  0  0  0  0  0  0
  161.1690  213.3440  142.6930 N   0  0  0  0  0  2  0  0  0  0  0  0
  163.0080  213.0250  141.0560 C   0  0  0  0  0  2  0  0  0  0  0  0
  162.3620  211.8000  140.4190 C   0  0  0  0  0  2  0  0  0  0  0  0
  161.9400  213.9660  141.6120 C   0  0  1  0  0  3  0  0  0  0  0  0
  160.9980  214.4500  140.5040 C   0  0  0  0  0  2  0  0  0  0  0  0
  161.3140  212.1990  139.4210 C   0  0  0  0  0  3  0  0  0  0  0  0
  160.6650  213.3770  139.4900 C   0  0  0  0  0  3  0  0  0  0  0  0
  160.0140  208.9350  154.2200 C   0  0  0  0  0  1  0  0  0  0  0  0
  160.0310  208.2670  152.9870 O   0  0  0  0  0  0  0  0  0  0  0  0
  159.7020  213.7520  150.8210 C   0  0  0  0  0  2  0  0  0  0  0  0
  158.3540  213.3100  152.8750 C   0  0  0  0  0  3  0  0  0  0  0  0
  157.2780  214.4080  151.0020 C   0  0  0  0  0  3  0  0  0  0  0  0
  156.0080  213.9270  153.0200 C   0  0  0  0  0  0  0  0  0  0  0  0
  156.0740  214.4520  151.7180 C   0  0  0  0  0  3  0  0  0  0  0  0
  157.1540  213.3540  153.5910 C   0  0  0  0  0  3  0  0  0  0  0  0
  158.4190  213.8340  151.5820 C   0  0  0  0  0  0  0  0  0  0  0  0
  154.7510  214.4030  155.1390 N   0  0  0  0  0  1  0  0  0  0  0  0
  154.7480  213.9820  153.7790 C   0  0  0  0  0  0  0  0  0  0  0  0
  153.6620  213.6330  153.2440 O   0  0  0  0  0  0  0  0  0  0  0  0
  162.7840  207.6970  148.2080 C   0  0  0  0  0  2  0  0  0  0  0  0
  162.0700  206.3820  147.9470 C   0  0  0  0  0  2  0  0  0  0  0  0
  162.4980  205.8010  146.6170 C   0  0  0  0  0  1  0  0  0  0  0  0
  161.1790  207.0400  150.7470 C   0  0  0  0  0  2  0  0  0  0  0  0
  162.0100  206.1680  151.6620 C   0  0  0  0  0  0  0  0  0  0  0  0
  163.2490  206.3760  151.7700 O   0  0  0  0  0  0  0  0  0  0  0  0
  161.4570  205.1300  152.4230 O   0  0  0  0  0  0  0  0  0  0  0  0
  161.7700  203.7830  152.3010 N   0  0  0  0  0  0  0  0  0  0  0  0
  162.6500  203.6240  151.2840 O   0  0  0  0  0  1  0  0  0  0  0  0
  160.5400  203.0480  152.0040 C   0  0  0  0  0  2  0  0  0  0  0  0
  160.6060  203.6230  149.6430 C   0  0  0  0  0  3  0  0  0  0  0  0
  160.5100  202.6560  150.5630 C   0  0  0  0  0  0  0  0  0  0  0  0
  160.8180  200.5860  149.1730 C   0  0  0  0  0  3  0  0  0  0  0  0
  161.6300  201.1900  148.0910 C   0  0  0  0  0  3  0  0  0  0  0  0
  161.5240  202.4500  147.6700 C   0  0  0  0  0  3  0  0  0  0  0  0
  160.4820  203.3930  148.1690 C   0  0  0  0  0  2  0  0  0  0  0  0
  160.3270  201.2230  150.2410 C   0  0  0  0  0  3  0  0  0  0  0  0
  2  7  2  0  0  0  0
  2 12  1  0  0  0  0
  3  1  1  6  0  0  0
  3  9  1  0  0  0  0
  5  6  1  6  0  0  0
  5  2  1  0  0  0  0
  6 11  1  0  0  0  0
  7 15  1  0  0  0  0
  8 10  1  0  0  0  0
  8 31  1  1  0  0  0
  9 12  1  0  0  0  0
  9 32  1  1  0  0  0
 11  7  1  0  0  0  0
 12 14  1  0  0  0  0
 13 19  1  6  0  0  0
 13  5  1  0  0  0  0
 13  3  1  0  0  0  0
 14  4  2  0  0  0  0
 14 10  1  0  0  0  0
 15 45  1  6  0  0  0
 15  8  1  0  0  0  0
 16 18  1  0  0  0  0
 17 19  1  0  0  0  0
 19 18  2  0  0  0  0
 20 17  2  0  0  0  0
 21 16  2  0  0  0  0
 22 21  1  0  0  0  0
 22 17  1  0  0  0  0
 23 22  1  0  0  0  0
 24 26  1  0  0  0  0
 25 24  1  0  0  0  0
 26 23  1  1  0  0  0
 27 26  1  0  0  0  0
 28 29  2  0  0  0  0
 28 25  1  0  0  0  0
 29 27  1  0  0  0  0
 31 30  1  0  0  0  0
 32 38  1  0  0  0  0
 33 37  1  0  0  0  0
 34 38  1  0  0  0  0
 34 36  2  0  0  0  0
 35 37  2  0  0  0  0
 35 40  1  0  0  0  0
 36 35  1  0  0  0  0
 38 33  2  0  0  0  0
 40 39  1  0  0  0  0
 41 40  2  0  0  0  0
 42 11  1  0  0  0  0
 43 42  1  0  0  0  0
 44 43  1  0  0  0  0
 45 46  1  0  0  0  0
 46 47  2  0  0  0  0
 46 48  1  0  0  0  0
 49 48  1  0  0  0  0
 50 49  1  0  0  0  0
 51 49  1  0  0  0  0
 52 53  2  0  0  0  0
 53 51  1  0  0  0  0
 54 58  2  0  0  0  0
 55 54  1  0  0  0  0
 56 55  2  0  0  0  0
 56 57  1  0  0  0  0
 57 52  1  0  0  0  0
 58 53  1  0  0  0  0
M  END
>  <MODEL>
2

>  <REMARK>
 VINA RESULT:      -0.1      4.088      9.555
  Name = 
  15 active torsions:
  status: ('A' for Active; 'I' for Inactive)
    1  A    between atoms: C_4  and  C_10
    2  A    between atoms: C_8  and  C_36
    3  A    between atoms: C_8  and  O_39
    4  A    between atoms: C_10  and  N_17
    5  A    between atoms: N_17  and  O_39
    6  A    between atoms: C_22  and  C_56
    7  A    between atoms: C_23  and  C_41
    8  A    between atoms: C_23  and  C_52
    9  A    between atoms: C_24  and  C_31
   10  A    between atoms: C_33  and  O_35
   11  A    between atoms: C_34  and  C_37
   12  A    between atoms: C_34  and  N_47
   13  A    between atoms: C_36  and  C_58
   14  A    between atoms: C_40  and  N_48
   15  A    between atoms: N_48  and  N_53
                            x       y       z     vdW  Elec       q    Type
                         _______ _______ _______ _____ _____    ______ ____

>  <TORSDO>
F 15

$$$$
=
 OpenBabel11042420073D

 58 64  0  0  1  0  0  0  0  0999 V2000
  159.4120  206.9050  153.2660 C   0  0  0  0  0  1  0  0  0  0  0  0
  161.6780  209.2310  150.8920 C   0  0  0  0  0  0  0  0  0  0  0  0
  160.7580  207.5470  153.0080 C   0  0  1  0  0  3  0  0  0  0  0  0
  164.1110  206.8090  150.3090 O   0  0  0  0  0  0  0  0  0  0  0  0
  161.3800  209.9500  152.1390 C   0  0  1  0  0  3  0  0  0  0  0  0
  160.6300  211.0940  151.7530 O   0  0  0  0  0  0  0  0  0  0  0  0
  161.4350  210.0280  149.8750 C   0  0  0  0  0  0  0  0  0  0  0  0
  161.7360  208.2950  148.0430 C   0  0  1  0  0  3  0  0  0  0  0  0
  161.3440  206.9390  151.7130 C   0  0  1  0  0  3  0  0  0  0  0  0
  162.8730  207.5990  148.5510 O   0  0  0  0  0  0  0  0  0  0  0  0
  160.9200  211.2390  150.4290 N   0  0  0  0  0  0  0  0  0  0  0  0
  162.1110  207.8730  150.8810 N   0  0  0  0  0  0  0  0  0  0  0  0
  160.6160  209.0850  153.1690 C   0  0  2  0  0  3  0  0  0  0  0  0
  163.0740  207.4070  149.9180 C   0  0  0  0  0  0  0  0  0  0  0  0
  161.7860  209.7950  148.4130 C   0  0  1  0  0  3  0  0  0  0  0  0
  161.3820  209.0500  156.8690 N   0  0  0  0  0  0  0  0  0  0  0  0
  160.7840  210.9680  155.0050 C   0  0  0  0  0  0  0  0  0  0  0  0
  161.1920  208.6750  155.5790 C   0  0  0  0  0  3  0  0  0  0  0  0
  160.8560  209.6070  154.5950 C   0  0  2  0  0  3  0  0  0  0  0  0
  160.5360  211.8820  154.1750 O   0  0  0  0  0  0  0  0  0  0  0  0
  161.2480  210.3480  157.2420 C   0  0  0  0  0  2  0  0  0  0  0  0
  160.9530  211.2990  156.3190 N   0  0  0  0  0  0  0  0  0  0  0  0
  160.8270  212.6450  156.7120 N   0  0  0  0  0  2  0  0  0  0  0  0
  159.1370  214.4520  156.5110 C   0  0  0  0  0  2  0  0  0  0  0  0
  158.8080  214.1200  155.0610 C   0  0  0  0  0  2  0  0  0  0  0  0
  159.5850  213.1980  157.2600 C   0  0  1  0  0  3  0  0  0  0  0  0
  158.4870  212.1290  157.2570 C   0  0  0  0  0  2  0  0  0  0  0  0
  157.8430  212.9740  154.9740 C   0  0  0  0  0  3  0  0  0  0  0  0
  157.7330  212.0490  155.9460 C   0  0  0  0  0  3  0  0  0  0  0  0
  161.3260  206.6430  146.5170 C   0  0  0  0  0  1  0  0  0  0  0  0
  161.5310  208.0210  146.6750 O   0  0  0  0  0  0  0  0  0  0  0  0
  162.1430  205.6840  152.0640 C   0  0  0  0  0  2  0  0  0  0  0  0
  161.8250  203.2240  151.7810 C   0  0  0  0  0  3  0  0  0  0  0  0
  161.1160  204.6930  149.9890 C   0  0  0  0  0  3  0  0  0  0  0  0
  160.8570  202.2850  149.7600 C   0  0  0  0  0  0  0  0  0  0  0  0
  160.7100  203.5810  149.2380 C   0  0  0  0  0  3  0  0  0  0  0  0
  161.4190  202.1150  151.0340 C   0  0  0  0  0  3  0  0  0  0  0  0
  161.6770  204.5120  151.2620 C   0  0  0  0  0  0  0  0  0  0  0  0
  159.0320  200.8580  148.7950 N   0  0  0  0  0  1  0  0  0  0  0  0
  160.4210  201.1170  148.9770 C   0  0  0  0  0  0  0  0  0  0  0  0
  161.2650  200.3230  148.4860 O   0  0  0  0  0  0  0  0  0  0  0  0
  161.1990  212.5530  149.8520 C   0  0  0  0  0  2  0  0  0  0  0  0
  159.9620  213.4350  149.8240 C   0  0  0  0  0  2  0  0  0  0  0  0
  159.6220  213.8270  148.4030 C   0  0  0  0  0  1  0  0  0  0  0  0
  160.9240  210.6390  147.4610 C   0  0  0  0  0  2  0  0  0  0  0  0
  161.6530  211.8790  146.9920 C   0  0  0  0  0  0  0  0  0  0  0  0
  162.7470  212.2030  147.5290 O   0  0  0  0  0  0  0  0  0  0  0  0
  161.1710  212.6920  145.9570 O   0  0  0  0  0  0  0  0  0  0  0  0
  161.8240  212.9460  144.7590 N   0  0  0  0  0  0  0  0  0  0  0  0
  163.0820  213.3740  145.0210 O   0  0  0  0  0  1  0  0  0  0  0  0
  161.0900  213.9940  144.0460 C   0  0  0  0  0  2  0  0  0  0  0  0
  159.4070  214.1700  142.3010 C   0  0  0  0  0  3  0  0  0  0  0  0
  160.3160  213.4020  142.9140 C   0  0  0  0  0  0  0  0  0  0  0  0
  160.4730  211.4390  141.3550 C   0  0  0  0  0  3  0  0  0  0  0  0
  160.0810  212.1400  140.1100 C   0  0  0  0  0  3  0  0  0  0  0  0
  159.2370  213.1680  140.0470 C   0  0  0  0  0  3  0  0  0  0  0  0
  158.4850  213.6820  141.2270 C   0  0  0  0  0  2  0  0  0  0  0  0
  160.5680  211.9850  142.5710 C   0  0  0  0  0  3  0  0  0  0  0  0
  3 13  1  0  0  0  0
  3  1  1  6  0  0  0
  5  2  1  6  0  0  0
  5 13  1  0  0  0  0
  6  5  1  0  0  0  0
  7 11  1  0  0  0  0
  7  2  2  0  0  0  0
  8 31  1  6  0  0  0
  8 15  1  0  0  0  0
  8 10  1  0  0  0  0
  9 32  1  1  0  0  0
  9  3  1  0  0  0  0
 10 14  1  0  0  0  0
 11  6  1  0  0  0  0
 12  2  1  0  0  0  0
 12  9  1  0  0  0  0
 13 19  1  1  0  0  0
 14  4  2  0  0  0  0
 14 12  1  0  0  0  0
 15 45  1  6  0  0  0
 15  7  1  0  0  0  0
 16 21  1  0  0  0  0
 17 22  1  0  0  0  0
 18 16  2  0  0  0  0
 19 17  1  0  0  0  0
 19 18  1  6  0  0  0
 20 17  2  0  0  0  0
 22 23  1  0  0  0  0
 22 21  1  0  0  0  0
 24 26  1  0  0  0  0
 25 24  1  0  0  0  0
 26 23  1  6  0  0  0
 27 26  1  0  0  0  0
 28 25  1  0  0  0  0
 28 29  2  0  0  0  0
 29 27  1  0  0  0  0
 30 31  1  0  0  0  0
 34 38  2  0  0  0  0
 35 37  1  0  0  0  0
 36 35  2  0  0  0  0
 36 34  1  0  0  0  0
 37 33  2  0  0  0  0
 38 33  1  0  0  0  0
 38 32  1  0  0  0  0
 39 40  1  0  0  0  0
 40 35  1  0  0  0  0
 41 40  2  0  0  0  0
 42 11  1  0  0  0  0
 43 42  1  0  0  0  0
 44 43  1  0  0  0  0
 46 45  1  0  0  0  0
 46 47  2  0  0  0  0
 48 46  1  0  0  0  0
 49 50  1  0  0  0  0
 49 48  1  0  0  0  0
 51 49  1  0  0  0  0
 52 53  2  0  0  0  0
 53 51  1  0  0  0  0
 54 58  2  0  0  0  0
 55 54  1  0  0  0  0
 56 55  2  0  0  0  0
 56 57  1  0  0  0  0
 57 52  1  0  0  0  0
 58 53  1  0  0  0  0
M  END
>  <MODEL>
3

>  <REMARK>
 VINA RESULT:       1.1      3.773      8.855
  Name = 
  15 active torsions:
  status: ('A' for Active; 'I' for Inactive)
    1  A    between atoms: C_4  and  C_10
    2  A    between atoms: C_8  and  C_36
    3  A    between atoms: C_8  and  O_39
    4  A    between atoms: C_10  and  N_17
    5  A    between atoms: N_17  and  O_39
    6  A    between atoms: C_22  and  C_56
    7  A    between atoms: C_23  and  C_41
    8  A    between atoms: C_23  and  C_52
    9  A    between atoms: C_24  and  C_31
   10  A    between atoms: C_33  and  O_35
   11  A    between atoms: C_34  and  C_37
   12  A    between atoms: C_34  and  N_47
   13  A    between atoms: C_36  and  C_58
   14  A    between atoms: C_40  and  N_48
   15  A    between atoms: N_48  and  N_53
                            x       y       z     vdW  Elec       q    Type
                         _______ _______ _______ _____ _____    ______ ____

>  <TORSDO>
F 15

$$$$
=
 OpenBabel11042420073D

 58 64  0  0  1  0  0  0  0  0999 V2000
  164.0240  210.5080  152.6900 C   0  0  0  0  0  1  0  0  0  0  0  0
  161.4010  208.0440  150.8930 C   0  0  0  0  0  0  0  0  0  0  0  0
  162.6250  210.2970  152.1520 C   0  0  1  0  0  3  0  0  0  0  0  0
  160.7800  210.1560  148.1970 O   0  0  0  0  0  0  0  0  0  0  0  0
  161.0210  208.2180  152.3020 C   0  0  1  0  0  3  0  0  0  0  0  0
  161.1160  206.9280  152.8890 O   0  0  0  0  0  0  0  0  0  0  0  0
  161.3860  206.7600  150.6070 C   0  0  0  0  0  0  0  0  0  0  0  0
  162.4140  206.9460  148.2920 C   0  0  1  0  0  3  0  0  0  0  0  0
  162.7190  210.0990  150.6220 C   0  0  1  0  0  3  0  0  0  0  0  0
  161.7390  208.1110  147.8190 O   0  0  0  0  0  0  0  0  0  0  0  0
  161.0640  206.0830  151.8210 N   0  0  0  0  0  0  0  0  0  0  0  0
  161.7590  209.1420  150.0590 N   0  0  0  0  0  0  0  0  0  0  0  0
  161.9010  209.2520  153.0440 C   0  0  2  0  0  3  0  0  0  0  0  0
  161.4010  209.1660  148.6660 C   0  0  0  0  0  0  0  0  0  0  0  0
  161.5100  206.1180  149.2330 C   0  0  1  0  0  3  0  0  0  0  0  0
  161.2560  210.5420  156.5360 N   0  0  0  0  0  0  0  0  0  0  0  0
  159.7700  210.2150  154.2570 C   0  0  0  0  0  0  0  0  0  0  0  0
  161.8610  210.0590  155.4220 C   0  0  0  0  0  3  0  0  0  0  0  0
  161.1440  209.8440  154.2430 C   0  0  0  0  0  0  0  0  0  0  0  0
  159.0580  210.1030  153.2250 O   0  0  0  0  0  0  0  0  0  0  0  0
  159.9310  210.8310  156.5370 C   0  0  0  0  0  3  0  0  0  0  0  0
  159.1940  210.6710  155.4080 N   0  0  0  0  0  0  0  0  0  0  0  0
  157.8210  210.9840  155.4150 N   0  0  0  0  0  2  0  0  0  0  0  0
  155.7860  212.3640  155.0720 C   0  0  0  0  0  2  0  0  0  0  0  0
  155.5160  212.5150  156.5640 C   0  0  0  0  0  2  0  0  0  0  0  0
  157.2840  212.2070  154.8110 C   0  0  1  0  0  3  0  0  0  0  0  0
  158.0640  213.4280  155.3130 C   0  0  0  0  0  2  0  0  0  0  0  0
  156.3610  213.6030  157.1590 C   0  0  0  0  0  3  0  0  0  0  0  0
  157.5350  213.9810  156.6190 C   0  0  0  0  0  3  0  0  0  0  0  0
  162.2440  206.4310  146.0710 C   0  0  0  0  0  1  0  0  0  0  0  0
  163.0000  206.2230  147.2330 O   0  0  0  0  0  0  0  0  0  0  0  0
  162.6480  211.4630  149.9340 C   0  0  0  0  0  2  0  0  0  0  0  0
  160.6740  211.9390  151.3850 C   0  0  0  0  0  3  0  0  0  0  0  0
  160.7060  212.8570  149.1430 C   0  0  0  0  0  3  0  0  0  0  0  0
  158.7970  213.2630  150.5940 C   0  0  0  0  0  0  0  0  0  0  0  0
  159.4460  213.4310  149.3590 C   0  0  0  0  0  3  0  0  0  0  0  0
  159.4180  212.5120  151.6030 C   0  0  0  0  0  3  0  0  0  0  0  0
  161.3190  212.1080  150.1590 C   0  0  0  0  0  0  0  0  0  0  0  0
  156.4910  213.8590  149.8010 N   0  0  0  0  0  1  0  0  0  0  0  0
  157.4780  213.8750  150.8270 C   0  0  0  0  0  0  0  0  0  0  0  0
  157.2190  214.4400  151.9230 O   0  0  0  0  0  0  0  0  0  0  0  0
  160.2570  204.8630  151.8550 C   0  0  0  0  0  2  0  0  0  0  0  0
  160.8480  203.8180  152.7860 C   0  0  0  0  0  2  0  0  0  0  0  0
  161.2390  202.5780  152.0120 C   0  0  0  0  0  1  0  0  0  0  0  0
  161.9680  204.6530  149.3100 C   0  0  0  0  0  2  0  0  0  0  0  0
  161.2180  203.7770  148.3320 C   0  0  0  0  0  0  0  0  0  0  0  0
  160.5500  202.7940  148.7560 O   0  0  0  0  0  0  0  0  0  0  0  0
  161.2160  204.0160  146.9510 O   0  0  0  0  0  0  0  0  0  0  0  0
  161.5620  203.0960  145.9710 N   0  0  0  0  0  0  0  0  0  0  0  0
  162.0950  203.7530  144.9140 O   0  0  0  0  0  1  0  0  0  0  0  0
  160.3490  202.3930  145.5490 C   0  0  0  0  0  2  0  0  0  0  0  0
  160.1010  200.1090  144.7540 C   0  0  0  0  0  3  0  0  0  0  0  0
  160.5170  200.9200  145.7340 C   0  0  0  0  0  0  0  0  0  0  0  0
  161.8310  199.3470  147.1850 C   0  0  0  0  0  3  0  0  0  0  0  0
  162.2150  198.3770  146.1330 C   0  0  0  0  0  3  0  0  0  0  0  0
  161.4790  198.0800  145.0630 C   0  0  0  0  0  3  0  0  0  0  0  0
  160.1040  198.6150  144.8440 C   0  0  0  0  0  2  0  0  0  0  0  0
  161.0890  200.4450  147.0130 C   0  0  0  0  0  3  0  0  0  0  0  0
  3  1  1  1  0  0  0
  3 13  1  0  0  0  0
  4 14  2  0  0  0  0
  5  2  1  6  0  0  0
  5  6  1  0  0  0  0
  5 13  1  0  0  0  0
  7  2  2  0  0  0  0
  7 11  1  0  0  0  0
  8 31  1  6  0  0  0
  8 15  1  0  0  0  0
  9 32  1  6  0  0  0
  9  3  1  0  0  0  0
 10  8  1  0  0  0  0
 10 14  1  0  0  0  0
 11 42  1  0  0  0  0
 11  6  1  0  0  0  0
 12  9  1  0  0  0  0
 12  2  1  0  0  0  0
 13 19  1  1  0  0  0
 14 12  1  0  0  0  0
 15 45  1  1  0  0  0
 15  7  1  0  0  0  0
 16 21  2  0  0  0  0
 17 22  1  0  0  0  0
 18 16  1  0  0  0  0
 19 17  1  0  0  0  0
 19 18  2  0  0  0  0
 20 17  2  0  0  0  0
 22 23  1  0  0  0  0
 22 21  1  0  0  0  0
 24 25  1  0  0  0  0
 25 28  1  0  0  0  0
 26 24  1  0  0  0  0
 26 27  1  0  0  0  0
 26 23  1  1  0  0  0
 27 29  1  0  0  0  0
 29 28  2  0  0  0  0
 30 31  1  0  0  0  0
 32 38  1  0  0  0  0
 33 37  1  0  0  0  0
 34 36  2  0  0  0  0
 34 38  1  0  0  0  0
 35 40  1  0  0  0  0
 35 37  2  0  0  0  0
 36 35  1  0  0  0  0
 38 33  2  0  0  0  0
 39 40  1  0  0  0  0
 40 41  2  0  0  0  0
 42 43  1  0  0  0  0
 44 43  1  0  0  0  0
 46 47  2  0  0  0  0
 46 45  1  0  0  0  0
 48 46  1  0  0  0  0
 49 48  1  0  0  0  0
 50 49  1  0  0  0  0
 51 53  1  0  0  0  0
 51 49  1  0  0  0  0
 52 57  1  0  0  0  0
 52 53  2  0  0  0  0
 53 58  1  0  0  0  0
 55 54  1  0  0  0  0
 56 55  2  0  0  0  0
 57 56  1  0  0  0  0
 58 54  2  0  0  0  0
M  END
>  <MODEL>
4

>  <REMARK>
 VINA RESULT:       1.2      2.535     11.290
  Name = 
  15 active torsions:
  status: ('A' for Active; 'I' for Inactive)
    1  A    between atoms: C_4  and  C_10
    2  A    between atoms: C_8  and  C_36
    3  A    between atoms: C_8  and  O_39
    4  A    between atoms: C_10  and  N_17
    5  A    between atoms: N_17  and  O_39
    6  A    between atoms: C_22  and  C_56
    7  A    between atoms: C_23  and  C_41
    8  A    between atoms: C_23  and  C_52
    9  A    between atoms: C_24  and  C_31
   10  A    between atoms: C_33  and  O_35
   11  A    between atoms: C_34  and  C_37
   12  A    between atoms: C_34  and  N_47
   13  A    between atoms: C_36  and  C_58
   14  A    between atoms: C_40  and  N_48
   15  A    between atoms: N_48  and  N_53
                            x       y       z     vdW  Elec       q    Type
                         _______ _______ _______ _____ _____    ______ ____

>  <TORSDO>
F 15

$$$$
=
 OpenBabel11042420073D

 58 64  0  0  1  0  0  0  0  0999 V2000
  164.2500  210.8730  152.6450 C   0  0  0  0  0  1  0  0  0  0  0  0
  161.5550  208.4140  150.9500 C   0  0  0  0  0  0  0  0  0  0  0  0
  162.8410  210.6770  152.1280 C   0  0  1  0  0  3  0  0  0  0  0  0
  160.9520  210.4580  148.1970 O   0  0  0  0  0  0  0  0  0  0  0  0
  161.1930  208.6400  152.3560 C   0  0  1  0  0  3  0  0  0  0  0  0
  161.2670  207.3650  152.9810 O   0  0  0  0  0  0  0  0  0  0  0  0
  161.5090  207.1230  150.7030 C   0  0  0  0  0  0  0  0  0  0  0  0
  162.5160  207.2170  148.3730 C   0  0  1  0  0  3  0  0  0  0  0  0
  162.9140  210.4310  150.6030 C   0  0  1  0  0  3  0  0  0  0  0  0
  161.8620  208.3810  147.8710 O   0  0  0  0  0  0  0  0  0  0  0  0
  161.1850  206.4900  151.9400 N   0  0  0  0  0  0  0  0  0  0  0  0
  161.9280  209.4790  150.0790 N   0  0  0  0  0  0  0  0  0  0  0  0
  162.1040  209.6750  153.0580 C   0  0  2  0  0  3  0  0  0  0  0  0
  161.5560  209.4690  148.6890 C   0  0  0  0  0  0  0  0  0  0  0  0
  161.6040  206.4380  149.3470 C   0  0  1  0  0  3  0  0  0  0  0  0
  161.5100  211.0370  156.5320 N   0  0  0  0  0  0  0  0  0  0  0  0
  160.0200  210.7620  154.2480 C   0  0  0  0  0  0  0  0  0  0  0  0
  162.0940  210.5100  155.4270 C   0  0  0  0  0  3  0  0  0  0  0  0
  161.3730  210.3200  154.2460 C   0  0  2  0  0  3  0  0  0  0  0  0
  159.3090  210.6760  153.2130 O   0  0  0  0  0  0  0  0  0  0  0  0
  160.2010  211.3950  156.5220 C   0  0  0  0  0  2  0  0  0  0  0  0
  159.4630  211.2600  155.3910 N   0  0  0  0  0  0  0  0  0  0  0  0
  158.1080  211.6450  155.3860 N   0  0  0  0  0  2  0  0  0  0  0  0
  157.5450  214.0000  155.9300 C   0  0  0  0  0  2  0  0  0  0  0  0
  156.6610  214.1780  154.7010 C   0  0  0  0  0  2  0  0  0  0  0  0
  157.5350  212.5440  156.3920 C   0  0  1  0  0  3  0  0  0  0  0  0
  156.1180  212.0890  156.7590 C   0  0  0  0  0  2  0  0  0  0  0  0
  155.2890  213.6170  154.9370 C   0  0  0  0  0  3  0  0  0  0  0  0
  155.0540  212.6400  155.8330 C   0  0  0  0  0  3  0  0  0  0  0  0
  162.0960  206.2400  146.3490 C   0  0  0  0  0  1  0  0  0  0  0  0
  163.0760  206.4500  147.3300 O   0  0  0  0  0  0  0  0  0  0  0  0
  162.8660  211.7750  149.8750 C   0  0  0  0  0  2  0  0  0  0  0  0
  160.7870  212.2790  151.1600 C   0  0  0  0  0  3  0  0  0  0  0  0
  160.9390  213.0410  148.8650 C   0  0  0  0  0  3  0  0  0  0  0  0
  158.9260  213.4780  150.1590 C   0  0  0  0  0  0  0  0  0  0  0  0
  159.6490  213.5840  148.9590 C   0  0  0  0  0  3  0  0  0  0  0  0
  159.5020  212.8210  151.2570 C   0  0  0  0  0  3  0  0  0  0  0  0
  161.5060  212.3860  149.9680 C   0  0  0  0  0  0  0  0  0  0  0  0
  156.8220  214.3290  149.0880 N   0  0  0  0  0  1  0  0  0  0  0  0
  157.5760  214.0580  150.2640 C   0  0  0  0  0  0  0  0  0  0  0  0
  157.0880  214.3430  151.3900 O   0  0  0  0  0  0  0  0  0  0  0  0
  160.3520  205.2900  152.0190 C   0  0  0  0  0  2  0  0  0  0  0  0
  160.8610  204.3140  153.0660 C   0  0  0  0  0  2  0  0  0  0  0  0
  160.8510  202.9020  152.5240 C   0  0  0  0  0  1  0  0  0  0  0  0
  162.0320  204.9660  149.4640 C   0  0  0  0  0  2  0  0  0  0  0  0
  160.9180  204.0230  149.0630 C   0  0  0  0  0  0  0  0  0  0  0  0
  160.0720  204.3850  148.2000 O   0  0  0  0  0  0  0  0  0  0  0  0
  160.7870  202.7370  149.6030 O   0  0  0  0  0  0  0  0  0  0  0  0
  160.2200  201.6450  148.9600 N   0  0  0  0  0  0  0  0  0  0  0  0
  159.8770  200.7150  149.8830 O   0  0  0  0  0  1  0  0  0  0  0  0
  161.2140  201.0820  148.0440 C   0  0  0  0  0  2  0  0  0  0  0  0
  159.9960  200.9720  145.9430 C   0  0  0  0  0  3  0  0  0  0  0  0
  160.9640  201.5640  146.6530 C   0  0  0  0  0  0  0  0  0  0  0  0
  161.4870  203.5740  145.2400 C   0  0  0  0  0  3  0  0  0  0  0  0
  160.1610  203.7160  144.5940 C   0  0  0  0  0  3  0  0  0  0  0  0
  159.3400  202.7060  144.3080 C   0  0  0  0  0  3  0  0  0  0  0  0
  159.7060  201.2740  144.5060 C   0  0  0  0  0  2  0  0  0  0  0  0
  161.8360  202.6370  146.1270 C   0  0  0  0  0  3  0  0  0  0  0  0
  3  1  1  1  0  0  0
  3 13  1  0  0  0  0
  4 14  2  0  0  0  0
  5  2  1  6  0  0  0
  5  6  1  0  0  0  0
  5 13  1  0  0  0  0
  7  2  2  0  0  0  0
  7 11  1  0  0  0  0
  8 31  1  6  0  0  0
  8 15  1  0  0  0  0
  9 32  1  6  0  0  0
  9  3  1  0  0  0  0
 10  8  1  0  0  0  0
 10 14  1  0  0  0  0
 11 42  1  0  0  0  0
 11  6  1  0  0  0  0
 12  9  1  0  0  0  0
 12  2  1  0  0  0  0
 13 19  1  1  0  0  0
 14 12  1  0  0  0  0
 15 45  1  1  0  0  0
 15  7  1  0  0  0  0
 17 22  1  0  0  0  0
 18 16  2  0  0  0  0
 19 17  1  0  0  0  0
 19 18  1  6  0  0  0
 20 17  2  0  0  0  0
 21 16  1  0  0  0  0
 22 21  1  0  0  0  0
 23 22  1  0  0  0  0
 24 26  1  0  0  0  0
 25 28  1  0  0  0  0
 25 24  1  0  0  0  0
 26 23  1  6  0  0  0
 26 27  1  0  0  0  0
 28 29  2  0  0  0  0
 29 27  1  0  0  0  0
 30 31  1  0  0  0  0
 32 38  1  0  0  0  0
 33 37  1  0  0  0  0
 34 36  2  0  0  0  0
 34 38  1  0  0  0  0
 35 40  1  0  0  0  0
 35 37  2  0  0  0  0
 36 35  1  0  0  0  0
 38 33  2  0  0  0  0
 39 40  1  0  0  0  0
 40 41  2  0  0  0  0
 42 43  1  0  0  0  0
 44 43  1  0  0  0  0
 46 45  1  0  0  0  0
 46 48  1  0  0  0  0
 47 46  2  0  0  0  0
 49 48  1  0  0  0  0
 49 50  1  0  0  0  0
 51 49  1  0  0  0  0
 52 53  2  0  0  0  0
 53 51  1  0  0  0  0
 54 58  2  0  0  0  0
 55 54  1  0  0  0  0
 56 57  1  0  0  0  0
 56 55  2  0  0  0  0
 57 52  1  0  0  0  0
 58 53  1  0  0  0  0
M  END
>  <MODEL>
5

>  <REMARK>
 VINA RESULT:       1.3      2.193     10.803
  Name = 
  15 active torsions:
  status: ('A' for Active; 'I' for Inactive)
    1  A    between atoms: C_4  and  C_10
    2  A    between atoms: C_8  and  C_36
    3  A    between atoms: C_8  and  O_39
    4  A    between atoms: C_10  and  N_17
    5  A    between atoms: N_17  and  O_39
    6  A    between atoms: C_22  and  C_56
    7  A    between atoms: C_23  and  C_41
    8  A    between atoms: C_23  and  C_52
    9  A    between atoms: C_24  and  C_31
   10  A    between atoms: C_33  and  O_35
   11  A    between atoms: C_34  and  C_37
   12  A    between atoms: C_34  and  N_47
   13  A    between atoms: C_36  and  C_58
   14  A    between atoms: C_40  and  N_48
   15  A    between atoms: N_48  and  N_53
                            x       y       z     vdW  Elec       q    Type
                         _______ _______ _______ _____ _____    ______ ____

>  <TORSDO>
F 15

$$$$
=
 OpenBabel11042420073D

 58 64  0  0  1  0  0  0  0  0999 V2000
  159.7840  206.9290  148.6340 C   0  0  0  0  0  1  0  0  0  0  0  0
  161.4660  210.1380  150.3830 C   0  0  0  0  0  0  0  0  0  0  0  0
  161.0010  207.5350  149.3010 C   0  0  1  0  0  3  0  0  0  0  0  0
  164.1210  210.3630  148.1420 O   0  0  0  0  0  0  0  0  0  0  0  0
  161.2070  209.1070  151.3990 C   0  0  1  0  0  3  0  0  0  0  0  0
  160.2780  209.6850  152.3050 O   0  0  0  0  0  0  0  0  0  0  0  0
  161.0150  211.2910  150.8260 C   0  0  0  0  0  0  0  0  0  0  0  0
  161.3480  212.6010  148.6760 C   0  0  1  0  0  3  0  0  0  0  0  0
  161.5230  208.6820  148.4050 C   0  0  1  0  0  3  0  0  0  0  0  0
  162.6130  212.0830  148.2680 O   0  0  0  0  0  0  0  0  0  0  0  0
  160.4070  211.0250  152.0890 N   0  0  0  0  0  0  0  0  0  0  0  0
  162.0700  209.8360  149.1280 N   0  0  0  0  0  0  0  0  0  0  0  0
  160.6760  207.7840  150.7990 C   0  0  2  0  0  3  0  0  0  0  0  0
  162.9790  210.7560  148.4990 C   0  0  0  0  0  0  0  0  0  0  0  0
  161.2390  212.6670  150.2160 C   0  0  1  0  0  3  0  0  0  0  0  0
  161.9640  205.8960  153.8070 N   0  0  0  0  0  0  0  0  0  0  0  0
  160.6890  205.2370  151.4720 C   0  0  0  0  0  0  0  0  0  0  0  0
  161.6160  206.8860  152.9470 C   0  0  0  0  0  3  0  0  0  0  0  0
  160.9920  206.6040  151.7300 C   0  0  2  0  0  3  0  0  0  0  0  0
  160.0830  204.8950  150.4230 O   0  0  0  0  0  0  0  0  0  0  0  0
  161.7150  204.5960  153.5070 C   0  0  0  0  0  2  0  0  0  0  0  0
  161.0830  204.2690  152.3510 N   0  0  0  0  0  0  0  0  0  0  0  0
  160.8180  202.9180  152.0520 N   0  0  0  0  0  2  0  0  0  0  0  0
  161.0950  200.7330  150.9070 C   0  0  0  0  0  2  0  0  0  0  0  0
  159.7910  200.8640  150.1280 C   0  0  0  0  0  2  0  0  0  0  0  0
  161.6900  202.1120  151.1920 C   0  0  1  0  0  3  0  0  0  0  0  0
  161.9890  202.8650  149.8910 C   0  0  0  0  0  2  0  0  0  0  0  0
  159.9740  201.7190  148.9080 C   0  0  0  0  0  3  0  0  0  0  0  0
  160.9380  202.6560  148.8220 C   0  0  0  0  0  3  0  0  0  0  0  0
  161.9980  214.0130  146.9990 C   0  0  0  0  0  1  0  0  0  0  0  0
  161.0390  213.8000  148.0000 O   0  0  0  0  0  0  0  0  0  0  0  0
  162.5120  208.1130  147.3870 C   0  0  0  0  0  2  0  0  0  0  0  0
  162.6740  205.6400  147.0930 C   0  0  0  0  0  3  0  0  0  0  0  0
  160.8850  206.8220  145.9630 C   0  0  0  0  0  3  0  0  0  0  0  0
  161.1110  204.4150  145.6930 C   0  0  0  0  0  0  0  0  0  0  0  0
  160.4410  205.6160  145.4050 C   0  0  0  0  0  3  0  0  0  0  0  0
  162.2310  204.4360  146.5380 C   0  0  0  0  0  3  0  0  0  0  0  0
  162.0060  206.8320  146.8080 C   0  0  0  0  0  0  0  0  0  0  0  0
  159.6420  203.1490  144.1000 N   0  0  0  0  0  1  0  0  0  0  0  0
  160.6390  203.1450  145.1170 C   0  0  0  0  0  0  0  0  0  0  0  0
  161.0890  202.0450  145.5340 O   0  0  0  0  0  0  0  0  0  0  0  0
  160.4490  211.9740  153.2020 C   0  0  0  0  0  2  0  0  0  0  0  0
  160.7990  211.2930  154.5150 C   0  0  0  0  0  2  0  0  0  0  0  0
  159.9630  211.8540  155.6430 C   0  0  0  0  0  1  0  0  0  0  0  0
  160.1790  213.6860  150.6630 C   0  0  0  0  0  2  0  0  0  0  0  0
  158.8140  213.3640  150.0930 C   0  0  0  0  0  0  0  0  0  0  0  0
  158.6720  212.3680  149.3330 O   0  0  0  0  0  0  0  0  0  0  0  0
  157.6740  214.1240  150.3880 O   0  0  0  0  0  0  0  0  0  0  0  0
  156.7080  213.7980  151.3300 N   0  0  0  0  0  0  0  0  0  0  0  0
  155.5040  214.2490  150.9040 O   0  0  0  0  0  1  0  0  0  0  0  0
  157.0570  214.4520  152.5930 C   0  0  0  0  0  2  0  0  0  0  0  0
  156.7950  212.4840  153.9960 C   0  0  0  0  0  3  0  0  0  0  0  0
  156.4120  213.7410  153.7370 C   0  0  0  0  0  0  0  0  0  0  0  0
  155.0670  214.3040  155.7820 C   0  0  0  0  0  3  0  0  0  0  0  0
  155.7430  213.3850  156.7270 C   0  0  0  0  0  3  0  0  0  0  0  0
  156.2770  212.2100  156.3980 C   0  0  0  0  0  3  0  0  0  0  0  0
  156.1620  211.6130  155.0360 C   0  0  0  0  0  2  0  0  0  0  0  0
  155.3530  214.4530  154.4850 C   0  0  0  0  0  3  0  0  0  0  0  0
  2  7  2  0  0  0  0
  3  1  1  6  0  0  0
  3 13  1  0  0  0  0
  4 14  2  0  0  0  0
  5  2  1  6  0  0  0
  5  6  1  0  0  0  0
  7 11  1  0  0  0  0
  8 31  1  6  0  0  0
  8 15  1  0  0  0  0
  9 32  1  6  0  0  0
  9 12  1  0  0  0  0
  9  3  1  0  0  0  0
 10 14  1  0  0  0  0
 10  8  1  0  0  0  0
 11  6  1  0  0  0  0
 11 42  1  0  0  0  0
 12  2  1  0  0  0  0
 13  5  1  0  0  0  0
 13 19  1  1  0  0  0
 14 12  1  0  0  0  0
 15 45  1  6  0  0  0
 15  7  1  0  0  0  0
 17 19  1  0  0  0  0
 17 22  1  0  0  0  0
 18 16  2  0  0  0  0
 19 18  1  1  0  0  0
 20 17  2  0  0  0  0
 21 16  1  0  0  0  0
 22 21  1  0  0  0  0
 23 22  1  0  0  0  0
 24 26  1  0  0  0  0
 25 24  1  0  0  0  0
 26 23  1  1  0  0  0
 27 26  1  0  0  0  0
 28 25  1  0  0  0  0
 29 28  2  0  0  0  0
 29 27  1  0  0  0  0
 30 31  1  0  0  0  0
 34 38  2  0  0  0  0
 35 37  1  0  0  0  0
 36 35  2  0  0  0  0
 36 34  1  0  0  0  0
 37 33  2  0  0  0  0
 38 33  1  0  0  0  0
 38 32  1  0  0  0  0
 39 40  1  0  0  0  0
 40 41  2  0  0  0  0
 40 35  1  0  0  0  0
 42 43  1  0  0  0  0
 43 44  1  0  0  0  0
 46 48  1  0  0  0  0
 46 45  1  0  0  0  0
 47 46  2  0  0  0  0
 48 49  1  0  0  0  0
 49 51  1  0  0  0  0
 50 49  1  0  0  0  0
 51 53  1  0  0  0  0
 52 57  1  0  0  0  0
 53 52  2  0  0  0  0
 53 58  1  0  0  0  0
 54 55  1  0  0  0  0
 56 55  2  0  0  0  0
 57 56  1  0  0  0  0
 58 54  2  0  0  0  0
M  END
>  <MODEL>
6

>  <REMARK>
 VINA RESULT:       1.4      2.480      5.475
  Name = 
  15 active torsions:
  status: ('A' for Active; 'I' for Inactive)
    1  A    between atoms: C_4  and  C_10
    2  A    between atoms: C_8  and  C_36
    3  A    between atoms: C_8  and  O_39
    4  A    between atoms: C_10  and  N_17
    5  A    between atoms: N_17  and  O_39
    6  A    between atoms: C_22  and  C_56
    7  A    between atoms: C_23  and  C_41
    8  A    between atoms: C_23  and  C_52
    9  A    between atoms: C_24  and  C_31
   10  A    between atoms: C_33  and  O_35
   11  A    between atoms: C_34  and  C_37
   12  A    between atoms: C_34  and  N_47
   13  A    between atoms: C_36  and  C_58
   14  A    between atoms: C_40  and  N_48
   15  A    between atoms: N_48  and  N_53
                            x       y       z     vdW  Elec       q    Type
                         _______ _______ _______ _____ _____    ______ ____

>  <TORSDO>
F 15

$$$$
=
 OpenBabel11042420073D

 58 64  0  0  1  0  0  0  0  0999 V2000
  159.9950  208.9770  150.1720 C   0  0  0  0  0  1  0  0  0  0  0  0
  161.0340  208.7080  154.0490 C   0  0  0  0  0  0  0  0  0  0  0  0
  161.0470  208.6020  151.1940 C   0  0  1  0  0  3  0  0  0  0  0  0
  163.8200  210.7770  153.7730 O   0  0  0  0  0  0  0  0  0  0  0  0
  160.8350  207.3580  153.5020 C   0  0  1  0  0  3  0  0  0  0  0  0
  159.7540  206.8010  154.2370 O   0  0  0  0  0  0  0  0  0  0  0  0
  160.3840  208.8030  155.1880 C   0  0  0  0  0  0  0  0  0  0  0  0
  160.7180  211.2970  155.5300 C   0  0  1  0  0  3  0  0  0  0  0  0
  161.4780  209.8860  151.9390 C   0  0  1  0  0  3  0  0  0  0  0  0
  162.0770  211.4200  155.1110 O   0  0  0  0  0  0  0  0  0  0  0  0
  159.7080  207.5590  155.3690 N   0  0  0  0  0  0  0  0  0  0  0  0
  161.7860  209.7050  153.3620 N   0  0  0  0  0  0  0  0  0  0  0  0
  160.5550  207.3560  151.9800 C   0  0  2  0  0  3  0  0  0  0  0  0
  162.6070  210.6440  154.0800 C   0  0  0  0  0  0  0  0  0  0  0  0
  160.4620  209.9310  156.2060 C   0  0  1  0  0  3  0  0  0  0  0  0
  161.9770  203.8660  151.7120 N   0  0  0  0  0  0  0  0  0  0  0  0
  160.7380  205.6180  150.0080 C   0  0  0  0  0  0  0  0  0  0  0  0
  161.5610  205.0650  152.1920 C   0  0  0  0  0  3  0  0  0  0  0  0
  160.9520  206.0070  151.3610 C   0  0  0  0  0  0  0  0  0  0  0  0
  160.1510  206.3840  149.1990 O   0  0  0  0  0  0  0  0  0  0  0  0
  161.8130  203.5470  150.4040 C   0  0  0  0  0  3  0  0  0  0  0  0
  161.1980  204.4140  149.5590 N   0  0  0  0  0  0  0  0  0  0  0  0
  161.0210  204.0700  148.2050 N   0  0  0  0  0  2  0  0  0  0  0  0
  161.8080  203.0070  146.1040 C   0  0  0  0  0  2  0  0  0  0  0  0
  160.6660  203.5760  145.2710 C   0  0  0  0  0  2  0  0  0  0  0  0
  162.1410  203.9420  147.2670 C   0  0  1  0  0  3  0  0  0  0  0  0
  162.5650  205.3250  146.7620 C   0  0  0  0  0  2  0  0  0  0  0  0
  160.9480  204.9920  144.8610 C   0  0  0  0  0  3  0  0  0  0  0  0
  161.7690  205.7960  145.5640 C   0  0  0  0  0  3  0  0  0  0  0  0
  160.0370  213.4750  155.3860 C   0  0  0  0  0  1  0  0  0  0  0  0
  160.3030  212.4220  156.2730 O   0  0  0  0  0  0  0  0  0  0  0  0
  162.6260  210.5480  151.1770 C   0  0  0  0  0  2  0  0  0  0  0  0
  161.2520  212.3550  150.1400 C   0  0  0  0  0  3  0  0  0  0  0  0
  162.4920  210.8680  148.6830 C   0  0  0  0  0  3  0  0  0  0  0  0
  161.1120  212.6300  147.7300 C   0  0  0  0  0  0  0  0  0  0  0  0
  161.9860  211.5420  147.5630 C   0  0  0  0  0  3  0  0  0  0  0  0
  160.7480  213.0300  149.0240 C   0  0  0  0  0  3  0  0  0  0  0  0
  162.1210  211.2750  149.9730 C   0  0  0  0  0  0  0  0  0  0  0  0
  159.5280  212.7860  145.7900 N   0  0  0  0  0  1  0  0  0  0  0  0
  160.5890  213.3480  146.5550 C   0  0  0  0  0  0  0  0  0  0  0  0
  161.0890  214.4480  146.2010 O   0  0  0  0  0  0  0  0  0  0  0  0
  159.5130  206.9490  156.6840 C   0  0  0  0  0  2  0  0  0  0  0  0
  160.8140  206.4160  157.2600 C   0  0  0  0  0  2  0  0  0  0  0  0
  161.8860  207.4830  157.2260 C   0  0  0  0  0  1  0  0  0  0  0  0
  159.2310  209.9790  157.1240 C   0  0  0  0  0  2  0  0  0  0  0  0
  158.1720  210.9230  156.5970 C   0  0  0  0  0  0  0  0  0  0  0  0
  157.8620  211.9490  157.2610 O   0  0  0  0  0  0  0  0  0  0  0  0
  157.5180  210.7170  155.3750 O   0  0  0  0  0  0  0  0  0  0  0  0
  156.3420  211.3370  154.9740 N   0  0  0  0  0  0  0  0  0  0  0  0
  156.1490  211.1090  153.6530 O   0  0  0  0  0  1  0  0  0  0  0  0
  156.4770  212.7760  155.2080 C   0  0  0  0  0  2  0  0  0  0  0  0
  157.7400  213.4930  153.2580 C   0  0  0  0  0  3  0  0  0  0  0  0
  156.5680  213.5030  153.9060 C   0  0  0  0  0  0  0  0  0  0  0  0
  155.0190  214.4340  152.1620 C   0  0  0  0  0  3  0  0  0  0  0  0
  155.7690  213.9840  150.9670 C   0  0  0  0  0  3  0  0  0  0  0  0
  157.0940  213.8580  150.9000 C   0  0  0  0  0  3  0  0  0  0  0  0
  158.0100  214.2640  152.0040 C   0  0  0  0  0  2  0  0  0  0  0  0
  155.3690  214.2300  153.4360 C   0  0  0  0  0  3  0  0  0  0  0  0
  2  7  2  0  0  0  0
  3  1  1  6  0  0  0
  3  9  1  0  0  0  0
  3 13  1  0  0  0  0
  4 14  2  0  0  0  0
  5  2  1  1  0  0  0
  5  6  1  0  0  0  0
  6 11  1  0  0  0  0
  7 11  1  0  0  0  0
  7 15  1  0  0  0  0
  8 15  1  0  0  0  0
  8 31  1  1  0  0  0
  9 32  1  6  0  0  0
  9 12  1  0  0  0  0
 10  8  1  0  0  0  0
 11 42  1  0  0  0  0
 12  2  1  0  0  0  0
 12 14  1  0  0  0  0
 13 19  1  6  0  0  0
 13  5  1  0  0  0  0
 14 10  1  0  0  0  0
 15 45  1  6  0  0  0
 16 18  1  0  0  0  0
 17 19  1  0  0  0  0
 19 18  2  0  0  0  0
 20 17  2  0  0  0  0
 21 16  2  0  0  0  0
 22 17  1  0  0  0  0
 22 21  1  0  0  0  0
 23 22  1  0  0  0  0
 24 26  1  0  0  0  0
 25 24  1  0  0  0  0
 26 23  1  1  0  0  0
 27 26  1  0  0  0  0
 28 25  1  0  0  0  0
 28 29  2  0  0  0  0
 29 27  1  0  0  0  0
 30 31  1  0  0  0  0
 34 38  2  0  0  0  0
 35 37  1  0  0  0  0
 36 35  2  0  0  0  0
 36 34  1  0  0  0  0
 37 33  2  0  0  0  0
 38 33  1  0  0  0  0
 38 32  1  0  0  0  0
 39 40  1  0  0  0  0
 40 35  1  0  0  0  0
 41 40  2  0  0  0  0
 42 43  1  0  0  0  0
 44 43  1  0  0  0  0
 46 45  1  0  0  0  0
 46 47  2  0  0  0  0
 48 46  1  0  0  0  0
 49 51  1  0  0  0  0
 49 48  1  0  0  0  0
 50 49  1  0  0  0  0
 52 53  2  0  0  0  0
 53 51  1  0  0  0  0
 54 58  2  0  0  0  0
 55 54  1  0  0  0  0
 56 55  2  0  0  0  0
 56 57  1  0  0  0  0
 57 52  1  0  0  0  0
 58 53  1  0  0  0  0
M  END
>  <MODEL>
7

>  <REMARK>
 VINA RESULT:       1.6      2.246      5.359
  Name = 
  15 active torsions:
  status: ('A' for Active; 'I' for Inactive)
    1  A    between atoms: C_4  and  C_10
    2  A    between atoms: C_8  and  C_36
    3  A    between atoms: C_8  and  O_39
    4  A    between atoms: C_10  and  N_17
    5  A    between atoms: N_17  and  O_39
    6  A    between atoms: C_22  and  C_56
    7  A    between atoms: C_23  and  C_41
    8  A    between atoms: C_23  and  C_52
    9  A    between atoms: C_24  and  C_31
   10  A    between atoms: C_33  and  O_35
   11  A    between atoms: C_34  and  C_37
   12  A    between atoms: C_34  and  N_47
   13  A    between atoms: C_36  and  C_58
   14  A    between atoms: C_40  and  N_48
   15  A    between atoms: N_48  and  N_53
                            x       y       z     vdW  Elec       q    Type
                         _______ _______ _______ _____ _____    ______ ____

>  <TORSDO>
F 15

$$$$
=
 OpenBabel11042420073D

 58 64  0  0  1  0  0  0  0  0999 V2000
  159.7620  206.3560  148.8650 C   0  0  0  0  0  1  0  0  0  0  0  0
  161.0960  207.6530  152.4320 C   0  0  0  0  0  0  0  0  0  0  0  0
  160.9140  206.4620  149.8410 C   0  0  1  0  0  3  0  0  0  0  0  0
  163.6550  209.6140  151.1170 O   0  0  0  0  0  0  0  0  0  0  0  0
  160.9830  206.1870  152.4560 C   0  0  1  0  0  3  0  0  0  0  0  0
  160.0130  205.8930  153.4520 O   0  0  0  0  0  0  0  0  0  0  0  0
  160.5230  208.1390  153.5110 C   0  0  0  0  0  0  0  0  0  0  0  0
  160.6520  210.5890  152.8540 C   0  0  1  0  0  3  0  0  0  0  0  0
  161.2780  207.9570  150.0010 C   0  0  1  0  0  3  0  0  0  0  0  0
  161.9600  210.6200  152.2840 O   0  0  0  0  0  0  0  0  0  0  0  0
  159.9790  207.0220  154.2140 N   0  0  0  0  0  0  0  0  0  0  0  0
  161.7020  208.3520  151.3480 N   0  0  0  0  0  0  0  0  0  0  0  0
  160.5960  205.5870  151.0840 C   0  0  2  0  0  3  0  0  0  0  0  0
  162.4840  209.5400  151.5730 C   0  0  0  0  0  0  0  0  0  0  0  0
  160.5710  209.5740  154.0160 C   0  0  1  0  0  3  0  0  0  0  0  0
  162.2710  202.3340  152.0270 N   0  0  0  0  0  0  0  0  0  0  0  0
  160.8290  203.2520  149.8850 C   0  0  0  0  0  0  0  0  0  0  0  0
  161.7840  203.6000  152.0570 C   0  0  0  0  0  3  0  0  0  0  0  0
  161.0700  204.1280  150.9800 C   0  0  0  0  0  0  0  0  0  0  0  0
  160.1510  203.6270  148.8920 O   0  0  0  0  0  0  0  0  0  0  0  0
  162.0760  201.5410  150.9440 C   0  0  0  0  0  3  0  0  0  0  0  0
  161.3610  201.9950  149.8820 N   0  0  0  0  0  0  0  0  0  0  0  0
  161.1540  201.1610  148.7660 N   0  0  0  0  0  2  0  0  0  0  0  0
  161.7610  199.9950  146.6600 C   0  0  0  0  0  2  0  0  0  0  0  0
  160.3500  200.0820  146.0890 C   0  0  0  0  0  2  0  0  0  0  0  0
  162.0350  201.1730  147.5940 C   0  0  1  0  0  3  0  0  0  0  0  0
  161.9060  202.5080  146.8520 C   0  0  0  0  0  2  0  0  0  0  0  0
  160.0990  201.4270  145.4710 C   0  0  0  0  0  3  0  0  0  0  0  0
  160.7700  202.5310  145.8520 C   0  0  0  0  0  3  0  0  0  0  0  0
  160.0650  212.6110  151.9620 C   0  0  0  0  0  1  0  0  0  0  0  0
  160.1900  211.8860  153.1570 O   0  0  0  0  0  0  0  0  0  0  0  0
  162.3040  208.3400  148.9330 C   0  0  0  0  0  2  0  0  0  0  0  0
  160.8520  210.0990  147.9180 C   0  0  0  0  0  3  0  0  0  0  0  0
  163.1180  210.6910  148.5400 C   0  0  0  0  0  3  0  0  0  0  0  0
  161.6650  212.3540  147.5210 C   0  0  0  0  0  0  0  0  0  0  0  0
  162.9080  211.9930  148.0670 C   0  0  0  0  0  3  0  0  0  0  0  0
  160.6400  211.3980  147.4480 C   0  0  0  0  0  3  0  0  0  0  0  0
  162.0870  209.7420  148.4620 C   0  0  0  0  0  0  0  0  0  0  0  0
  160.1730  214.3500  147.2260 N   0  0  0  0  0  1  0  0  0  0  0  0
  161.4380  213.7250  147.0350 C   0  0  0  0  0  0  0  0  0  0  0  0
  162.3470  214.3470  146.4240 O   0  0  0  0  0  0  0  0  0  0  0  0
  159.9360  206.9530  155.6740 C   0  0  0  0  0  2  0  0  0  0  0  0
  161.2850  206.5760  156.2650 C   0  0  0  0  0  2  0  0  0  0  0  0
  162.1160  207.8140  156.5200 C   0  0  0  0  0  1  0  0  0  0  0  0
  159.4100  209.8990  154.9680 C   0  0  0  0  0  2  0  0  0  0  0  0
  159.9000  210.4820  156.2760 C   0  0  0  0  0  0  0  0  0  0  0  0
  160.1080  209.7220  157.2610 O   0  0  0  0  0  0  0  0  0  0  0  0
  160.1550  211.8490  156.4440 O   0  0  0  0  0  0  0  0  0  0  0  0
  159.2330  212.8710  156.2610 N   0  0  0  0  0  0  0  0  0  0  0  0
  159.6940  213.9960  156.8570 O   0  0  0  0  0  1  0  0  0  0  0  0
  157.9700  212.4700  156.8840 C   0  0  0  0  0  2  0  0  0  0  0  0
  155.6560  213.1230  156.5220 C   0  0  0  0  0  3  0  0  0  0  0  0
  156.8270  212.7760  155.9730 C   0  0  0  0  0  0  0  0  0  0  0  0
  156.4520  213.3430  153.5540 C   0  0  0  0  0  3  0  0  0  0  0  0
  155.4440  214.4110  153.7530 C   0  0  0  0  0  3  0  0  0  0  0  0
  154.5600  214.4500  154.7490 C   0  0  0  0  0  3  0  0  0  0  0  0
  154.3990  213.3510  155.7420 C   0  0  0  0  0  2  0  0  0  0  0  0
  157.0450  212.6300  154.5170 C   0  0  0  0  0  3  0  0  0  0  0  0
  2  7  2  0  0  0  0
  3  1  1  6  0  0  0
  3  9  1  0  0  0  0
  3 13  1  0  0  0  0
  4 14  2  0  0  0  0
  5  2  1  6  0  0  0
  5  6  1  0  0  0  0
  6 11  1  0  0  0  0
  7 15  1  0  0  0  0
  7 11  1  0  0  0  0
  8 31  1  1  0  0  0
  8 15  1  0  0  0  0
  9 32  1  6  0  0  0
  9 12  1  0  0  0  0
 10  8  1  0  0  0  0
 11 42  1  0  0  0  0
 12 14  1  0  0  0  0
 12  2  1  0  0  0  0
 13 19  1  6  0  0  0
 13  5  1  0  0  0  0
 14 10  1  0  0  0  0
 15 45  1  6  0  0  0
 16 18  1  0  0  0  0
 17 19  1  0  0  0  0
 19 18  2  0  0  0  0
 20 17  2  0  0  0  0
 21 16  2  0  0  0  0
 22 17  1  0  0  0  0
 22 21  1  0  0  0  0
 23 22  1  0  0  0  0
 24 26  1  0  0  0  0
 25 24  1  0  0  0  0
 26 23  1  1  0  0  0
 27 26  1  0  0  0  0
 28 29  2  0  0  0  0
 28 25  1  0  0  0  0
 29 27  1  0  0  0  0
 30 31  1  0  0  0  0
 33 38  1  0  0  0  0
 35 36  2  0  0  0  0
 36 34  1  0  0  0  0
 37 35  1  0  0  0  0
 37 33  2  0  0  0  0
 38 34  2  0  0  0  0
 38 32  1  0  0  0  0
 40 39  1  0  0  0  0
 40 35  1  0  0  0  0
 41 40  2  0  0  0  0
 42 43  1  0  0  0  0
 43 44  1  0  0  0  0
 45 46  1  0  0  0  0
 46 48  1  0  0  0  0
 46 47  2  0  0  0  0
 49 48  1  0  0  0  0
 49 50  1  0  0  0  0
 49 51  1  0  0  0  0
 53 52  2  0  0  0  0
 53 51  1  0  0  0  0
 54 55  1  0  0  0  0
 54 58  2  0  0  0  0
 55 56  2  0  0  0  0
 56 57  1  0  0  0  0
 57 52  1  0  0  0  0
 58 53  1  0  0  0  0
M  END
>  <MODEL>
8

>  <REMARK>
 VINA RESULT:       1.7      2.245      5.557
  Name = 
  15 active torsions:
  status: ('A' for Active; 'I' for Inactive)
    1  A    between atoms: C_4  and  C_10
    2  A    between atoms: C_8  and  C_36
    3  A    between atoms: C_8  and  O_39
    4  A    between atoms: C_10  and  N_17
    5  A    between atoms: N_17  and  O_39
    6  A    between atoms: C_22  and  C_56
    7  A    between atoms: C_23  and  C_41
    8  A    between atoms: C_23  and  C_52
    9  A    between atoms: C_24  and  C_31
   10  A    between atoms: C_33  and  O_35
   11  A    between atoms: C_34  and  C_37
   12  A    between atoms: C_34  and  N_47
   13  A    between atoms: C_36  and  C_58
   14  A    between atoms: C_40  and  N_48
   15  A    between atoms: N_48  and  N_53
                            x       y       z     vdW  Elec       q    Type
                         _______ _______ _______ _____ _____    ______ ____

>  <TORSDO>
F 15

$$$$
