=
 OpenBabel11042422583D

 32 35  0  0  1  0  0  0  0  0999 V2000
  161.5230  206.0410  150.7740 C   0  0  0  0  0  0  0  0  0  0  0  0
  160.8610  203.5500  149.5290 C   0  0  0  0  0  0  0  0  0  0  0  0
  160.8690  202.2660  147.5140 N   0  0  0  0  0  0  0  0  0  0  0  0
  161.6420  205.8840  149.4880 N   0  0  0  0  0  0  0  0  0  0  0  0
  161.3700  204.6490  148.8180 C   0  0  0  0  0  0  0  0  0  0  0  0
  161.6230  203.1820  145.4180 N   0  0  0  0  0  1  0  0  0  0  0  0
  161.6250  204.5310  147.4520 C   0  0  0  0  0  3  0  0  0  0  0  0
  161.3670  203.3180  146.8100 C   0  0  0  0  0  0  0  0  0  0  0  0
  161.1110  204.9120  152.9650 C   0  0  0  0  0  3  0  0  0  0  0  0
  160.5220  203.6610  150.9840 C   0  0  0  0  0  2  0  0  0  0  0  0
  161.8100  207.3190  151.3550 N   0  0  0  0  0  2  0  0  0  0  0  0
  160.6090  202.3590  148.8470 C   0  0  0  0  0  3  0  0  0  0  0  0
  161.0800  204.8990  151.6280 C   0  0  0  0  0  0  0  0  0  0  0  0
  161.6090  208.4620  149.2160 C   0  0  0  0  0  2  0  0  0  0  0  0
  162.0110  209.7220  148.4520 C   0  0  0  0  0  2  0  0  0  0  0  0
  161.6040  210.9100  149.2030 N   0  0  0  0  0  0  0  0  0  0  0  0
  161.9800  209.7580  151.3280 C   0  0  0  0  0  2  0  0  0  0  0  0
  162.3620  210.9500  150.4520 C   0  0  0  0  0  2  0  0  0  0  0  0
  162.2850  208.4590  150.5840 C   0  0  1  0  0  3  0  0  0  0  0  0
  162.0130  212.0710  148.4260 C   0  0  0  0  0  2  0  0  0  0  0  0
  161.2120  212.1640  147.2150 N   0  0  0  0  0  2  0  0  0  0  0  0
  161.9390  212.9390  146.3000 N   0  0  0  0  0  2  0  0  0  0  0  0
  161.1490  212.6680  144.0650 C   0  0  0  0  0  0  0  0  0  0  0  0
  158.9550  212.3100  144.5970 O   0  0  0  0  0  0  0  0  0  0  0  0
  159.9650  211.9890  143.7480 N   0  0  0  0  0  2  0  0  0  0  0  0
  159.5830  212.9720  145.6890 C   0  0  0  0  0  2  0  0  0  0  0  0
  160.9950  213.4170  145.3020 C   0  0  1  0  0  3  0  0  0  0  0  0
  162.1910  212.6180  143.3620 O   0  0  0  0  0  0  0  0  0  0  0  0
  161.6100  206.0100  153.7270 N   0  0  0  0  0  2  0  0  0  0  0  0
  160.7800  206.6890  154.6300 N   0  0  0  0  0  2  0  0  0  0  0  0
  161.2080  208.0220  154.6600 N   0  0  0  0  0  2  0  0  0  0  0  0
  161.5430  208.3070  155.9890 N   0  0  0  0  0  1  0  0  0  0  0  0
  1 11  1  0  0  0  0
  1 13  1  0  0  0  0
  2 10  1  0  0  0  0
  3 12  2  0  0  0  0
  4  1  2  0  0  0  0
  5  4  1  0  0  0  0
  5  2  2  0  0  0  0
  6  8  1  0  0  0  0
  7  5  1  0  0  0  0
  8  7  2  0  0  0  0
  8  3  1  0  0  0  0
  9 29  1  0  0  0  0
 10 13  1  0  0  0  0
 12  2  1  0  0  0  0
 13  9  2  0  0  0  0
 14 19  1  0  0  0  0
 15 16  1  0  0  0  0
 15 14  1  0  0  0  0
 16 18  1  0  0  0  0
 18 17  1  0  0  0  0
 19 17  1  0  0  0  0
 19 11  1  1  0  0  0
 20 16  1  0  0  0  0
 21 20  1  0  0  0  0
 22 21  1  0  0  0  0
 23 27  1  0  0  0  0
 24 26  1  0  0  0  0
 25 23  1  0  0  0  0
 25 24  1  0  0  0  0
 27 26  1  0  0  0  0
 27 22  1  1  0  0  0
 28 23  2  0  0  0  0
 29 30  1  0  0  0  0
 30 31  1  0  0  0  0
 31 32  1  0  0  0  0
M  END
>  <MODEL>
1

>  <REMARK>
 VINA RESULT:      -7.9      0.000      0.000
  Name = 
  8 active torsions:
  status: ('A' for Active; 'I' for Inactive)
    1  A    between atoms: N_2  and  N_12
    2  A    between atoms: N_2  and  C_17
    3  A    between atoms: N_4  and  N_29
    4  A    between atoms: N_4  and  N_31
    5  A    between atoms: N_8  and  C_17
    6  A    between atoms: N_12  and  C_28
    7  A    between atoms: C_21  and  N_31
    8  A    between atoms: N_24  and  C_27
                            x       y       z     vdW  Elec       q    Type
                         _______ _______ _______ _____ _____    ______ ____

>  <TORSDO>
F 8

$$$$
=
 OpenBabel11042422583D

 32 35  0  0  1  0  0  0  0  0999 V2000
  161.5290  206.0910  150.8370 C   0  0  0  0  0  0  0  0  0  0  0  0
  160.8520  203.5590  149.6880 C   0  0  0  0  0  0  0  0  0  0  0  0
  160.8350  202.2040  147.7200 N   0  0  0  0  0  0  0  0  0  0  0  0
  161.6310  205.8900  149.5550 N   0  0  0  0  0  0  0  0  0  0  0  0
  161.3520  204.6310  148.9330 C   0  0  0  0  0  0  0  0  0  0  0  0
  161.5620  203.0460  145.5830 N   0  0  0  0  0  1  0  0  0  0  0  0
  161.5890  204.4650  147.5680 C   0  0  0  0  0  3  0  0  0  0  0  0
  161.3230  203.2300  146.9730 C   0  0  0  0  0  0  0  0  0  0  0  0
  161.1450  205.0400  153.0710 C   0  0  0  0  0  3  0  0  0  0  0  0
  160.5320  203.7200  151.1430 C   0  0  0  0  0  2  0  0  0  0  0  0
  161.8230  207.3890  151.3690 N   0  0  0  0  0  2  0  0  0  0  0  0
  160.5920  202.3430  149.0520 C   0  0  0  0  0  3  0  0  0  0  0  0
  161.0970  204.9800  151.7360 C   0  0  0  0  0  0  0  0  0  0  0  0
  161.7020  208.3780  149.1490 C   0  0  0  0  0  2  0  0  0  0  0  0
  162.0870  209.6050  148.3260 C   0  0  0  0  0  2  0  0  0  0  0  0
  161.5710  210.8160  148.9680 N   0  0  0  0  0  0  0  0  0  0  0  0
  161.8680  209.8270  151.1860 C   0  0  0  0  0  2  0  0  0  0  0  0
  162.2440  210.9780  150.2550 C   0  0  0  0  0  2  0  0  0  0  0  0
  162.2870  208.5010  150.5530 C   0  0  1  0  0  3  0  0  0  0  0  0
  161.9690  211.9440  148.1410 C   0  0  0  0  0  2  0  0  0  0  0  0
  160.9870  213.0130  148.2530 N   0  0  0  0  0  2  0  0  0  0  0  0
  159.9760  212.7420  147.3210 N   0  0  0  0  0  2  0  0  0  0  0  0
  157.6100  212.8720  147.5940 C   0  0  0  0  0  0  0  0  0  0  0  0
  157.6300  213.6880  149.7290 O   0  0  0  0  0  0  0  0  0  0  0  0
  156.9820  212.8840  148.8470 N   0  0  0  0  0  2  0  0  0  0  0  0
  158.8920  213.9570  149.1310 C   0  0  0  0  0  2  0  0  0  0  0  0
  158.8580  213.6160  147.6390 C   0  0  1  0  0  3  0  0  0  0  0  0
  157.1380  212.2880  146.5840 O   0  0  0  0  0  0  0  0  0  0  0  0
  161.6530  206.1640  153.7880 N   0  0  0  0  0  2  0  0  0  0  0  0
  160.8600  206.8250  154.7360 N   0  0  0  0  0  2  0  0  0  0  0  0
  160.8970  208.1900  154.4250 N   0  0  0  0  0  2  0  0  0  0  0  0
  161.4510  208.8400  155.5330 N   0  0  0  0  0  1  0  0  0  0  0  0
  1 11  1  0  0  0  0
  1 13  1  0  0  0  0
  2 10  1  0  0  0  0
  3 12  2  0  0  0  0
  4  1  2  0  0  0  0
  5  4  1  0  0  0  0
  5  2  2  0  0  0  0
  6  8  1  0  0  0  0
  7  5  1  0  0  0  0
  8  7  2  0  0  0  0
  8  3  1  0  0  0  0
  9 29  1  0  0  0  0
 10 13  1  0  0  0  0
 12  2  1  0  0  0  0
 13  9  2  0  0  0  0
 14 19  1  0  0  0  0
 15 16  1  0  0  0  0
 15 14  1  0  0  0  0
 16 18  1  0  0  0  0
 18 17  1  0  0  0  0
 19 17  1  0  0  0  0
 19 11  1  1  0  0  0
 20 21  1  0  0  0  0
 20 16  1  0  0  0  0
 22 21  1  0  0  0  0
 23 27  1  0  0  0  0
 23 25  1  0  0  0  0
 25 24  1  0  0  0  0
 26 24  1  0  0  0  0
 27 22  1  1  0  0  0
 27 26  1  0  0  0  0
 28 23  2  0  0  0  0
 29 30  1  0  0  0  0
 31 30  1  0  0  0  0
 31 32  1  0  0  0  0
M  END
>  <MODEL>
2

>  <REMARK>
 VINA RESULT:      -7.7      1.743      2.224
  Name = 
  8 active torsions:
  status: ('A' for Active; 'I' for Inactive)
    1  A    between atoms: N_2  and  N_12
    2  A    between atoms: N_2  and  C_17
    3  A    between atoms: N_4  and  N_29
    4  A    between atoms: N_4  and  N_31
    5  A    between atoms: N_8  and  C_17
    6  A    between atoms: N_12  and  C_28
    7  A    between atoms: C_21  and  N_31
    8  A    between atoms: N_24  and  C_27
                            x       y       z     vdW  Elec       q    Type
                         _______ _______ _______ _____ _____    ______ ____

>  <TORSDO>
F 8

$$$$
=
 OpenBabel11042422583D

 32 35  0  0  1  0  0  0  0  0999 V2000
  161.7060  208.6400  150.6200 C   0  0  0  0  0  0  0  0  0  0  0  0
  161.7070  206.3910  148.8490 C   0  0  0  0  0  0  0  0  0  0  0  0
  161.2120  204.0690  148.5770 N   0  0  0  0  0  0  0  0  0  0  0  0
  161.4130  207.4480  151.0520 N   0  0  0  0  0  0  0  0  0  0  0  0
  161.3530  206.2970  150.2040 C   0  0  0  0  0  0  0  0  0  0  0  0
  160.4260  202.7080  150.4020 N   0  0  0  0  0  1  0  0  0  0  0  0
  160.9260  205.0750  150.7240 C   0  0  0  0  0  3  0  0  0  0  0  0
  160.8600  203.9600  149.8860 C   0  0  0  0  0  0  0  0  0  0  0  0
  162.1280  210.0630  148.6100 C   0  0  0  0  0  3  0  0  0  0  0  0
  162.2240  207.6740  148.2730 C   0  0  0  0  0  2  0  0  0  0  0  0
  161.7500  209.7320  151.5460 N   0  0  0  0  0  2  0  0  0  0  0  0
  161.6350  205.2500  148.0480 C   0  0  0  0  0  3  0  0  0  0  0  0
  162.0040  208.8570  149.1730 C   0  0  0  0  0  0  0  0  0  0  0  0
  162.4110  210.4230  153.7840 C   0  0  0  0  0  2  0  0  0  0  0  0
  162.0050  210.3800  155.2560 C   0  0  0  0  0  2  0  0  0  0  0  0
  160.6530  210.9180  155.4140 N   0  0  0  0  0  0  0  0  0  0  0  0
  159.9980  210.0580  153.2200 C   0  0  0  0  0  2  0  0  0  0  0  0
  159.7190  210.0330  154.7220 C   0  0  0  0  0  2  0  0  0  0  0  0
  161.4310  209.5940  152.9600 C   0  0  1  0  0  3  0  0  0  0  0  0
  160.3260  210.8490  156.8300 C   0  0  0  0  0  2  0  0  0  0  0  0
  158.9650  211.3160  157.0490 N   0  0  0  0  0  2  0  0  0  0  0  0
  158.9930  212.7160  156.9710 N   0  0  0  0  0  2  0  0  0  0  0  0
  157.9590  213.3330  154.9120 C   0  0  0  0  0  0  0  0  0  0  0  0
  156.3020  211.7590  154.9620 O   0  0  0  0  0  0  0  0  0  0  0  0
  157.1510  212.4620  154.1690 N   0  0  0  0  0  2  0  0  0  0  0  0
  156.7890  211.9450  156.2850 C   0  0  0  0  0  2  0  0  0  0  0  0
  157.7530  213.1320  156.3380 C   0  0  1  0  0  3  0  0  0  0  0  0
  158.7490  214.1640  154.3940 O   0  0  0  0  0  0  0  0  0  0  0  0
  161.9500  211.2840  149.3260 N   0  0  0  0  0  2  0  0  0  0  0  0
  161.8770  212.5080  148.6450 N   0  0  0  0  0  2  0  0  0  0  0  0
  163.0300  212.6090  147.8560 N   0  0  0  0  0  2  0  0  0  0  0  0
  162.6180  213.0810  146.6030 N   0  0  0  0  0  1  0  0  0  0  0  0
  1  4  2  0  0  0  0
  1 11  1  0  0  0  0
  2  5  1  0  0  0  0
  3  8  2  0  0  0  0
  5  7  2  0  0  0  0
  5  4  1  0  0  0  0
  8  6  1  0  0  0  0
  8  7  1  0  0  0  0
  9 13  2  0  0  0  0
  9 29  1  0  0  0  0
 10  2  1  0  0  0  0
 10 13  1  0  0  0  0
 12  3  1  0  0  0  0
 12  2  2  0  0  0  0
 13  1  1  0  0  0  0
 14 15  1  0  0  0  0
 15 16  1  0  0  0  0
 16 20  1  0  0  0  0
 17 18  1  0  0  0  0
 18 16  1  0  0  0  0
 19 11  1  6  0  0  0
 19 17  1  0  0  0  0
 19 14  1  0  0  0  0
 20 21  1  0  0  0  0
 22 21  1  0  0  0  0
 23 27  1  0  0  0  0
 24 26  1  0  0  0  0
 25 23  1  0  0  0  0
 25 24  1  0  0  0  0
 26 27  1  0  0  0  0
 27 22  1  1  0  0  0
 28 23  2  0  0  0  0
 30 29  1  0  0  0  0
 31 30  1  0  0  0  0
 32 31  1  0  0  0  0
M  END
>  <MODEL>
3

>  <REMARK>
 VINA RESULT:      -7.5      4.233      7.273
  Name = 
  8 active torsions:
  status: ('A' for Active; 'I' for Inactive)
    1  A    between atoms: N_2  and  N_12
    2  A    between atoms: N_2  and  C_17
    3  A    between atoms: N_4  and  N_29
    4  A    between atoms: N_4  and  N_31
    5  A    between atoms: N_8  and  C_17
    6  A    between atoms: N_12  and  C_28
    7  A    between atoms: C_21  and  N_31
    8  A    between atoms: N_24  and  C_27
                            x       y       z     vdW  Elec       q    Type
                         _______ _______ _______ _____ _____    ______ ____

>  <TORSDO>
F 8

$$$$
=
 OpenBabel11042422583D

 32 35  0  0  1  0  0  0  0  0999 V2000
  160.4430  210.5790  153.8710 C   0  0  0  0  0  0  0  0  0  0  0  0
  158.9580  212.8720  154.7240 C   0  0  0  0  0  0  0  0  0  0  0  0
  157.2430  214.4480  154.1890 N   0  0  0  0  0  0  0  0  0  0  0  0
  159.6140  211.1770  153.0660 N   0  0  0  0  0  0  0  0  0  0  0  0
  158.8120  212.2970  153.4520 C   0  0  0  0  0  0  0  0  0  0  0  0
  156.1190  214.4380  152.0590 N   0  0  0  0  0  1  0  0  0  0  0  0
  157.8700  212.8140  152.5630 C   0  0  0  0  0  3  0  0  0  0  0  0
  157.0840  213.9010  152.9540 C   0  0  0  0  0  0  0  0  0  0  0  0
  161.2730  210.3980  156.2210 C   0  0  0  0  0  3  0  0  0  0  0  0
  159.9990  212.3780  155.6810 C   0  0  0  0  0  2  0  0  0  0  0  0
  161.2100  209.4680  153.3920 N   0  0  0  0  0  2  0  0  0  0  0  0
  158.1590  213.9630  155.0720 C   0  0  0  0  0  3  0  0  0  0  0  0
  160.5950  211.0590  155.2770 C   0  0  0  0  0  0  0  0  0  0  0  0
  162.0550  209.6390  151.1160 C   0  0  0  0  0  2  0  0  0  0  0  0
  162.0070  208.9910  149.7340 C   0  0  0  0  0  2  0  0  0  0  0  0
  162.3680  207.5760  149.8350 N   0  0  0  0  0  0  0  0  0  0  0  0
  161.3580  207.4240  152.0580 C   0  0  0  0  0  2  0  0  0  0  0  0
  161.3460  206.8930  150.6250 C   0  0  0  0  0  2  0  0  0  0  0  0
  161.0780  208.9260  152.0470 C   0  0  1  0  0  3  0  0  0  0  0  0
  162.3040  207.0190  148.4930 C   0  0  0  0  0  2  0  0  0  0  0  0
  160.9160  206.8780  148.0800 N   0  0  0  0  0  2  0  0  0  0  0  0
  160.6830  205.5100  147.8800 N   0  0  0  0  0  2  0  0  0  0  0  0
  161.3830  203.6630  146.5420 C   0  0  0  0  0  0  0  0  0  0  0  0
  160.7530  204.5380  144.5260 O   0  0  0  0  0  0  0  0  0  0  0  0
  160.8690  203.4040  145.2650 N   0  0  0  0  0  2  0  0  0  0  0  0
  160.8950  205.6040  145.4570 C   0  0  0  0  0  2  0  0  0  0  0  0
  161.5130  205.0950  146.7610 C   0  0  1  0  0  3  0  0  0  0  0  0
  161.6800  202.7630  147.3700 O   0  0  0  0  0  0  0  0  0  0  0  0
  161.8970  209.1340  155.9990 N   0  0  0  0  0  2  0  0  0  0  0  0
  161.6380  208.0500  156.8490 N   0  0  0  0  0  2  0  0  0  0  0  0
  160.2480  207.9740  157.0080 N   0  0  0  0  0  2  0  0  0  0  0  0
  159.7550  207.2690  155.9040 N   0  0  0  0  0  1  0  0  0  0  0  0
  1 13  1  0  0  0  0
  2 12  1  0  0  0  0
  2 10  1  0  0  0  0
  3 12  2  0  0  0  0
  4  5  1  0  0  0  0
  4  1  2  0  0  0  0
  5  2  2  0  0  0  0
  6  8  1  0  0  0  0
  7  8  2  0  0  0  0
  7  5  1  0  0  0  0
  8  3  1  0  0  0  0
 11  1  1  0  0  0  0
 13 10  1  0  0  0  0
 13  9  2  0  0  0  0
 14 19  1  0  0  0  0
 15 16  1  0  0  0  0
 15 14  1  0  0  0  0
 16 18  1  0  0  0  0
 18 17  1  0  0  0  0
 19 17  1  0  0  0  0
 19 11  1  1  0  0  0
 20 16  1  0  0  0  0
 21 20  1  0  0  0  0
 22 21  1  0  0  0  0
 23 27  1  0  0  0  0
 23 28  2  0  0  0  0
 24 25  1  0  0  0  0
 24 26  1  0  0  0  0
 25 23  1  0  0  0  0
 26 27  1  0  0  0  0
 27 22  1  1  0  0  0
 29  9  1  0  0  0  0
 29 30  1  0  0  0  0
 30 31  1  0  0  0  0
 32 31  1  0  0  0  0
M  END
>  <MODEL>
4

>  <REMARK>
 VINA RESULT:      -7.3      4.265      7.919
  Name = 
  8 active torsions:
  status: ('A' for Active; 'I' for Inactive)
    1  A    between atoms: N_2  and  N_12
    2  A    between atoms: N_2  and  C_17
    3  A    between atoms: N_4  and  N_29
    4  A    between atoms: N_4  and  N_31
    5  A    between atoms: N_8  and  C_17
    6  A    between atoms: N_12  and  C_28
    7  A    between atoms: C_21  and  N_31
    8  A    between atoms: N_24  and  C_27
                            x       y       z     vdW  Elec       q    Type
                         _______ _______ _______ _____ _____    ______ ____

>  <TORSDO>
F 8

$$$$
=
 OpenBabel11042422583D

 32 35  0  0  1  0  0  0  0  0999 V2000
  161.3730  208.4230  151.5310 C   0  0  0  0  0  0  0  0  0  0  0  0
  160.5780  209.4840  154.0680 C   0  0  0  0  0  0  0  0  0  0  0  0
  160.0960  209.0170  156.3600 N   0  0  0  0  0  0  0  0  0  0  0  0
  161.1190  207.6350  152.5350 N   0  0  0  0  0  0  0  0  0  0  0  0
  160.7640  208.1120  153.8370 C   0  0  0  0  0  0  0  0  0  0  0  0
  160.1210  206.7740  157.2390 N   0  0  0  0  0  1  0  0  0  0  0  0
  160.6130  207.2070  154.8890 C   0  0  0  0  0  3  0  0  0  0  0  0
  160.2770  207.6840  156.1580 C   0  0  0  0  0  0  0  0  0  0  0  0
  161.7180  210.7850  150.7920 C   0  0  0  0  0  3  0  0  0  0  0  0
  160.6760  210.4760  152.9480 C   0  0  0  0  0  2  0  0  0  0  0  0
  161.7130  207.8530  150.2600 N   0  0  0  0  0  2  0  0  0  0  0  0
  160.2340  209.9170  155.3490 C   0  0  0  0  0  3  0  0  0  0  0  0
  161.2960  209.9030  151.7050 C   0  0  0  0  0  0  0  0  0  0  0  0
  161.5640  205.6770  151.3390 C   0  0  0  0  0  2  0  0  0  0  0  0
  161.5810  204.1720  151.0800 C   0  0  0  0  0  2  0  0  0  0  0  0
  160.5620  203.8270  150.0880 N   0  0  0  0  0  0  0  0  0  0  0  0
  160.8720  205.9690  148.9490 C   0  0  0  0  0  2  0  0  0  0  0  0
  160.9260  204.4480  148.8160 C   0  0  0  0  0  2  0  0  0  0  0  0
  161.8450  206.4210  150.0370 C   0  0  1  0  0  3  0  0  0  0  0  0
  160.6280  202.3870  149.8860 C   0  0  0  0  0  2  0  0  0  0  0  0
  160.2640  202.0610  148.5160 N   0  0  0  0  0  2  0  0  0  0  0  0
  161.0360  200.9530  148.1380 N   0  0  0  0  0  2  0  0  0  0  0  0
  160.9410  200.1180  145.9050 C   0  0  0  0  0  0  0  0  0  0  0  0
  160.0740  202.0040  144.9490 O   0  0  0  0  0  0  0  0  0  0  0  0
  160.0910  200.6470  144.9240 N   0  0  0  0  0  2  0  0  0  0  0  0
  160.6810  202.3620  146.1850 C   0  0  0  0  0  2  0  0  0  0  0  0
  161.4540  201.1740  146.7630 C   0  0  1  0  0  3  0  0  0  0  0  0
  161.2060  198.8930  146.0110 O   0  0  0  0  0  0  0  0  0  0  0  0
  162.3290  210.4050  149.5590 N   0  0  0  0  0  2  0  0  0  0  0  0
  161.9560  211.0220  148.3570 N   0  0  0  0  0  2  0  0  0  0  0  0
  163.0180  211.8510  147.9730 N   0  0  0  0  0  2  0  0  0  0  0  0
  162.5210  213.1590  147.9530 N   0  0  0  0  0  1  0  0  0  0  0  0
  1 13  1  0  0  0  0
  1  4  2  0  0  0  0
  2 12  1  0  0  0  0
  4  5  1  0  0  0  0
  5  2  2  0  0  0  0
  5  7  1  0  0  0  0
  7  8  2  0  0  0  0
  8  3  1  0  0  0  0
  8  6  1  0  0  0  0
  9 13  2  0  0  0  0
 10  2  1  0  0  0  0
 11  1  1  0  0  0  0
 12  3  2  0  0  0  0
 13 10  1  0  0  0  0
 15 14  1  0  0  0  0
 16 15  1  0  0  0  0
 17 19  1  0  0  0  0
 18 17  1  0  0  0  0
 18 16  1  0  0  0  0
 19 11  1  1  0  0  0
 19 14  1  0  0  0  0
 20 16  1  0  0  0  0
 21 20  1  0  0  0  0
 22 21  1  0  0  0  0
 23 28  2  0  0  0  0
 23 27  1  0  0  0  0
 24 26  1  0  0  0  0
 25 24  1  0  0  0  0
 25 23  1  0  0  0  0
 26 27  1  0  0  0  0
 27 22  1  1  0  0  0
 29  9  1  0  0  0  0
 30 29  1  0  0  0  0
 31 30  1  0  0  0  0
 32 31  1  0  0  0  0
M  END
>  <MODEL>
5

>  <REMARK>
 VINA RESULT:      -7.0      3.751      8.685
  Name = 
  8 active torsions:
  status: ('A' for Active; 'I' for Inactive)
    1  A    between atoms: N_2  and  N_12
    2  A    between atoms: N_2  and  C_17
    3  A    between atoms: N_4  and  N_29
    4  A    between atoms: N_4  and  N_31
    5  A    between atoms: N_8  and  C_17
    6  A    between atoms: N_12  and  C_28
    7  A    between atoms: C_21  and  N_31
    8  A    between atoms: N_24  and  C_27
                            x       y       z     vdW  Elec       q    Type
                         _______ _______ _______ _____ _____    ______ ____

>  <TORSDO>
F 8

$$$$
=
 OpenBabel11042422583D

 32 35  0  0  1  0  0  0  0  0999 V2000
  160.8820  209.7590  152.0740 C   0  0  0  0  0  0  0  0  0  0  0  0
  160.1040  209.9220  154.8240 C   0  0  0  0  0  0  0  0  0  0  0  0
  160.0730  208.8390  156.9530 N   0  0  0  0  0  0  0  0  0  0  0  0
  161.0130  208.7360  152.8680 N   0  0  0  0  0  0  0  0  0  0  0  0
  160.6840  208.7750  154.2600 C   0  0  0  0  0  0  0  0  0  0  0  0
  160.9100  206.6010  157.2610 N   0  0  0  0  0  1  0  0  0  0  0  0
  160.9540  207.6690  155.0670 C   0  0  0  0  0  3  0  0  0  0  0  0
  160.6400  207.7210  156.4260 C   0  0  0  0  0  0  0  0  0  0  0  0
  160.3730  212.2010  151.9160 C   0  0  0  0  0  3  0  0  0  0  0  0
  159.7480  211.1050  153.9750 C   0  0  0  0  0  2  0  0  0  0  0  0
  161.2310  209.6240  150.6910 N   0  0  0  0  0  2  0  0  0  0  0  0
  159.7970  209.9290  156.1860 C   0  0  0  0  0  3  0  0  0  0  0  0
  160.3630  211.0550  152.6050 C   0  0  0  0  0  0  0  0  0  0  0  0
  160.7380  207.2910  150.2060 C   0  0  0  0  0  2  0  0  0  0  0  0
  161.2650  206.0430  149.5000 C   0  0  0  0  0  2  0  0  0  0  0  0
  161.5450  206.3470  148.0960 N   0  0  0  0  0  0  0  0  0  0  0  0
  162.1850  208.6390  148.6660 C   0  0  0  0  0  2  0  0  0  0  0  0
  162.6350  207.3190  148.0420 C   0  0  0  0  0  2  0  0  0  0  0  0
  161.7800  208.4030  150.1210 C   0  0  1  0  0  3  0  0  0  0  0  0
  162.0410  205.1250  147.4820 C   0  0  0  0  0  2  0  0  0  0  0  0
  161.6750  203.9760  148.2960 N   0  0  0  0  0  2  0  0  0  0  0  0
  161.2380  202.9730  147.4190 N   0  0  0  0  0  2  0  0  0  0  0  0
  161.1900  200.8400  148.4870 C   0  0  0  0  0  0  0  0  0  0  0  0
  160.6420  201.5960  150.5730 O   0  0  0  0  0  0  0  0  0  0  0  0
  161.3440  200.6710  149.8690 N   0  0  0  0  0  2  0  0  0  0  0  0
  160.2760  202.5890  149.6220 C   0  0  0  0  0  2  0  0  0  0  0  0
  160.4320  202.0470  148.1990 C   0  0  1  0  0  3  0  0  0  0  0  0
  161.6560  200.0440  147.6310 O   0  0  0  0  0  0  0  0  0  0  0  0
  160.9200  212.3210  150.6030 N   0  0  0  0  0  2  0  0  0  0  0  0
  160.4040  213.2590  149.6980 N   0  0  0  0  0  2  0  0  0  0  0  0
  161.3680  213.4390  148.6980 N   0  0  0  0  0  2  0  0  0  0  0  0
  162.0900  212.2430  148.6150 N   0  0  0  0  0  1  0  0  0  0  0  0
  1 13  1  0  0  0  0
  1  4  2  0  0  0  0
  2 12  1  0  0  0  0
  4  5  1  0  0  0  0
  5  2  2  0  0  0  0
  5  7  1  0  0  0  0
  7  8  2  0  0  0  0
  8  3  1  0  0  0  0
  8  6  1  0  0  0  0
  9 13  2  0  0  0  0
 10  2  1  0  0  0  0
 11  1  1  0  0  0  0
 12  3  2  0  0  0  0
 13 10  1  0  0  0  0
 15 14  1  0  0  0  0
 16 15  1  0  0  0  0
 17 19  1  0  0  0  0
 18 16  1  0  0  0  0
 18 17  1  0  0  0  0
 19 14  1  0  0  0  0
 19 11  1  6  0  0  0
 20 16  1  0  0  0  0
 20 21  1  0  0  0  0
 22 21  1  0  0  0  0
 23 25  1  0  0  0  0
 25 24  1  0  0  0  0
 26 24  1  0  0  0  0
 27 22  1  6  0  0  0
 27 23  1  0  0  0  0
 27 26  1  0  0  0  0
 28 23  2  0  0  0  0
 29  9  1  0  0  0  0
 30 29  1  0  0  0  0
 31 30  1  0  0  0  0
 32 31  1  0  0  0  0
M  END
>  <MODEL>
6

>  <REMARK>
 VINA RESULT:      -7.0      4.203      8.576
  Name = 
  8 active torsions:
  status: ('A' for Active; 'I' for Inactive)
    1  A    between atoms: N_2  and  N_12
    2  A    between atoms: N_2  and  C_17
    3  A    between atoms: N_4  and  N_29
    4  A    between atoms: N_4  and  N_31
    5  A    between atoms: N_8  and  C_17
    6  A    between atoms: N_12  and  C_28
    7  A    between atoms: C_21  and  N_31
    8  A    between atoms: N_24  and  C_27
                            x       y       z     vdW  Elec       q    Type
                         _______ _______ _______ _____ _____    ______ ____

>  <TORSDO>
F 8

$$$$
=
 OpenBabel11042422583D

 32 35  0  0  1  0  0  0  0  0999 V2000
  160.4240  211.7150  151.7300 C   0  0  0  0  0  0  0  0  0  0  0  0
  158.8010  213.5770  153.1770 C   0  0  0  0  0  0  0  0  0  0  0  0
  157.8760  214.1900  155.2920 N   0  0  0  0  0  0  0  0  0  0  0  0
  160.1100  211.5020  152.9750 N   0  0  0  0  0  0  0  0  0  0  0  0
  159.3410  212.4190  153.7590 C   0  0  0  0  0  0  0  0  0  0  0  0
  158.1800  212.8340  157.2610 N   0  0  0  0  0  1  0  0  0  0  0  0
  159.1370  212.1690  155.1170 C   0  0  0  0  0  3  0  0  0  0  0  0
  158.3950  213.0760  155.8760 C   0  0  0  0  0  0  0  0  0  0  0  0
  160.4070  213.3560  149.8460 C   0  0  0  0  0  3  0  0  0  0  0  0
  158.9530  213.8460  151.7110 C   0  0  0  0  0  2  0  0  0  0  0  0
  161.1920  210.7340  151.0220 N   0  0  0  0  0  2  0  0  0  0  0  0
  158.0580  214.4530  153.9690 C   0  0  0  0  0  3  0  0  0  0  0  0
  159.9770  212.9670  151.0510 C   0  0  0  0  0  0  0  0  0  0  0  0
  160.6050  208.9100  152.5230 C   0  0  0  0  0  2  0  0  0  0  0  0
  161.0830  207.5680  153.0740 C   0  0  0  0  0  2  0  0  0  0  0  0
  161.3800  206.6550  151.9690 N   0  0  0  0  0  0  0  0  0  0  0  0
  162.1110  208.5150  150.5590 C   0  0  0  0  0  2  0  0  0  0  0  0
  162.5090  207.1940  151.2140 C   0  0  0  0  0  2  0  0  0  0  0  0
  161.6930  209.5140  151.6380 C   0  0  1  0  0  3  0  0  0  0  0  0
  161.8270  205.4010  152.5560 C   0  0  0  0  0  2  0  0  0  0  0  0
  160.8840  204.3390  152.2380 N   0  0  0  0  0  2  0  0  0  0  0  0
  161.5370  203.4560  151.3670 N   0  0  0  0  0  2  0  0  0  0  0  0
  160.9920  203.7290  149.0610 C   0  0  0  0  0  0  0  0  0  0  0  0
  160.9290  201.5060  148.5350 O   0  0  0  0  0  0  0  0  0  0  0  0
  161.2470  202.7490  148.0920 N   0  0  0  0  0  2  0  0  0  0  0  0
  160.7630  201.6420  149.9410 C   0  0  0  0  0  2  0  0  0  0  0  0
  160.5910  203.1150  150.3170 C   0  0  1  0  0  3  0  0  0  0  0  0
  161.1050  204.9640  148.8500 O   0  0  0  0  0  0  0  0  0  0  0  0
  161.3770  212.6330  149.0890 N   0  0  0  0  0  2  0  0  0  0  0  0
  161.0980  212.2220  147.7780 N   0  0  0  0  0  2  0  0  0  0  0  0
  162.1470  212.6800  146.9700 N   0  0  0  0  0  2  0  0  0  0  0  0
  163.3050  212.6430  147.7570 N   0  0  0  0  0  1  0  0  0  0  0  0
  1  4  2  0  0  0  0
  2  5  2  0  0  0  0
  2 12  1  0  0  0  0
  3  8  1  0  0  0  0
  4  5  1  0  0  0  0
  5  7  1  0  0  0  0
  7  8  2  0  0  0  0
  8  6  1  0  0  0  0
  9 13  2  0  0  0  0
 10  2  1  0  0  0  0
 11  1  1  0  0  0  0
 12  3  2  0  0  0  0
 13 10  1  0  0  0  0
 13  1  1  0  0  0  0
 14 15  1  0  0  0  0
 16 20  1  0  0  0  0
 16 15  1  0  0  0  0
 17 18  1  0  0  0  0
 17 19  1  0  0  0  0
 18 16  1  0  0  0  0
 19 11  1  6  0  0  0
 19 14  1  0  0  0  0
 21 20  1  0  0  0  0
 22 21  1  0  0  0  0
 23 27  1  0  0  0  0
 24 26  1  0  0  0  0
 25 24  1  0  0  0  0
 25 23  1  0  0  0  0
 26 27  1  0  0  0  0
 27 22  1  1  0  0  0
 28 23  2  0  0  0  0
 29  9  1  0  0  0  0
 30 29  1  0  0  0  0
 31 32  1  0  0  0  0
 31 30  1  0  0  0  0
M  END
>  <MODEL>
7

>  <REMARK>
 VINA RESULT:      -7.0      4.195      9.484
  Name = 
  8 active torsions:
  status: ('A' for Active; 'I' for Inactive)
    1  A    between atoms: N_2  and  N_12
    2  A    between atoms: N_2  and  C_17
    3  A    between atoms: N_4  and  N_29
    4  A    between atoms: N_4  and  N_31
    5  A    between atoms: N_8  and  C_17
    6  A    between atoms: N_12  and  C_28
    7  A    between atoms: C_21  and  N_31
    8  A    between atoms: N_24  and  C_27
                            x       y       z     vdW  Elec       q    Type
                         _______ _______ _______ _____ _____    ______ ____

>  <TORSDO>
F 8

$$$$
=
 OpenBabel11042422583D

 32 35  0  0  1  0  0  0  0  0999 V2000
  161.3690  204.4870  149.2180 C   0  0  0  0  0  0  0  0  0  0  0  0
  161.1910  205.2970  151.9580 C   0  0  0  0  0  0  0  0  0  0  0  0
  161.0090  207.1220  153.4880 N   0  0  0  0  0  0  0  0  0  0  0  0
  161.4120  205.7460  149.5480 N   0  0  0  0  0  0  0  0  0  0  0  0
  161.2800  206.2100  150.8950 C   0  0  0  0  0  0  0  0  0  0  0  0
  161.0340  209.4150  152.7500 N   0  0  0  0  0  1  0  0  0  0  0  0
  161.2290  207.5800  151.1540 C   0  0  0  0  0  3  0  0  0  0  0  0
  161.0890  208.0220  152.4710 C   0  0  0  0  0  0  0  0  0  0  0  0
  160.9360  202.1570  150.0090 C   0  0  0  0  0  3  0  0  0  0  0  0
  161.3010  203.8220  151.7200 C   0  0  0  0  0  2  0  0  0  0  0  0
  161.5180  204.1170  147.8420 N   0  0  0  0  0  2  0  0  0  0  0  0
  161.0610  205.7810  153.2600 C   0  0  0  0  0  3  0  0  0  0  0  0
  161.1790  203.4460  150.2700 C   0  0  0  0  0  0  0  0  0  0  0  0
  162.6650  204.5560  145.7410 C   0  0  0  0  0  2  0  0  0  0  0  0
  162.7300  205.5110  144.5510 C   0  0  0  0  0  2  0  0  0  0  0  0
  161.4080  205.6250  143.9320 N   0  0  0  0  0  0  0  0  0  0  0  0
  160.3120  205.3390  146.1000 C   0  0  0  0  0  2  0  0  0  0  0  0
  160.5020  206.2530  144.8910 C   0  0  0  0  0  2  0  0  0  0  0  0
  161.6650  205.0850  146.7650 C   0  0  1  0  0  3  0  0  0  0  0  0
  161.5360  206.5430  142.8110 C   0  0  0  0  0  2  0  0  0  0  0  0
  162.0170  205.8300  141.6380 N   0  0  0  0  0  2  0  0  0  0  0  0
  162.6170  206.7780  140.7970 N   0  0  0  0  0  2  0  0  0  0  0  0
  161.7090  208.6500  139.6300 C   0  0  0  0  0  0  0  0  0  0  0  0
  161.9390  207.7920  137.5250 O   0  0  0  0  0  0  0  0  0  0  0  0
  161.9800  208.9180  138.2820 N   0  0  0  0  0  2  0  0  0  0  0  0
  161.9560  206.7160  138.4550 C   0  0  0  0  0  2  0  0  0  0  0  0
  161.5990  207.2180  139.8560 C   0  0  1  0  0  3  0  0  0  0  0  0
  161.5850  209.5440  140.5070 O   0  0  0  0  0  0  0  0  0  0  0  0
  160.7920  201.6390  148.6870 N   0  0  0  0  0  2  0  0  0  0  0  0
  161.5840  200.5690  148.2490 N   0  0  0  0  0  2  0  0  0  0  0  0
  161.1530  200.2390  146.9570 N   0  0  0  0  0  2  0  0  0  0  0  0
  160.8330  201.4440  146.3210 N   0  0  0  0  0  1  0  0  0  0  0  0
  1  4  2  0  0  0  0
  1 13  1  0  0  0  0
  2 12  1  0  0  0  0
  4  5  1  0  0  0  0
  5  7  1  0  0  0  0
  5  2  2  0  0  0  0
  7  8  2  0  0  0  0
  8  6  1  0  0  0  0
  8  3  1  0  0  0  0
  9 13  2  0  0  0  0
 10  2  1  0  0  0  0
 11  1  1  0  0  0  0
 12  3  2  0  0  0  0
 13 10  1  0  0  0  0
 14 19  1  0  0  0  0
 15 14  1  0  0  0  0
 16 15  1  0  0  0  0
 16 18  1  0  0  0  0
 17 19  1  0  0  0  0
 18 17  1  0  0  0  0
 19 11  1  1  0  0  0
 20 16  1  0  0  0  0
 21 20  1  0  0  0  0
 22 21  1  0  0  0  0
 23 27  1  0  0  0  0
 23 28  2  0  0  0  0
 24 25  1  0  0  0  0
 24 26  1  0  0  0  0
 25 23  1  0  0  0  0
 26 27  1  0  0  0  0
 27 22  1  1  0  0  0
 29  9  1  0  0  0  0
 30 29  1  0  0  0  0
 31 30  1  0  0  0  0
 32 31  1  0  0  0  0
M  END
>  <MODEL>
8

>  <REMARK>
 VINA RESULT:      -6.9      3.682      6.861
  Name = 
  8 active torsions:
  status: ('A' for Active; 'I' for Inactive)
    1  A    between atoms: N_2  and  N_12
    2  A    between atoms: N_2  and  C_17
    3  A    between atoms: N_4  and  N_29
    4  A    between atoms: N_4  and  N_31
    5  A    between atoms: N_8  and  C_17
    6  A    between atoms: N_12  and  C_28
    7  A    between atoms: C_21  and  N_31
    8  A    between atoms: N_24  and  C_27
                            x       y       z     vdW  Elec       q    Type
                         _______ _______ _______ _____ _____    ______ ____

>  <TORSDO>
F 8

$$$$
=
 OpenBabel11042422583D

 32 35  0  0  1  0  0  0  0  0999 V2000
  160.3400  211.2550  152.1020 C   0  0  0  0  0  0  0  0  0  0  0  0
  160.4630  213.3970  150.2090 C   0  0  0  0  0  0  0  0  0  0  0  0
  161.3020  214.1490  148.1020 N   0  0  0  0  0  0  0  0  0  0  0  0
  161.1110  211.1790  151.0570 N   0  0  0  0  0  0  0  0  0  0  0  0
  161.1770  212.1990  150.0540 C   0  0  0  0  0  0  0  0  0  0  0  0
  162.7770  212.7980  146.7590 N   0  0  0  0  0  1  0  0  0  0  0  0
  161.9480  211.9950  148.9090 C   0  0  0  0  0  3  0  0  0  0  0  0
  161.9970  212.9920  147.9320 C   0  0  0  0  0  0  0  0  0  0  0  0
  158.5150  212.5290  153.2370 C   0  0  0  0  0  3  0  0  0  0  0  0
  159.6730  213.6710  151.4520 C   0  0  0  0  0  2  0  0  0  0  0  0
  160.3460  210.1860  153.0580 N   0  0  0  0  0  2  0  0  0  0  0  0
  160.5470  214.3710  149.2120 C   0  0  0  0  0  3  0  0  0  0  0  0
  159.4680  212.4500  152.3030 C   0  0  0  0  0  0  0  0  0  0  0  0
  160.8310  208.0140  154.0410 C   0  0  0  0  0  2  0  0  0  0  0  0
  161.5690  206.6970  153.8120 C   0  0  0  0  0  2  0  0  0  0  0  0
  161.1460  206.1040  152.5420 N   0  0  0  0  0  0  0  0  0  0  0  0
  160.8310  208.3200  151.5540 C   0  0  0  0  0  2  0  0  0  0  0  0
  161.5700  206.9860  151.4570 C   0  0  0  0  0  2  0  0  0  0  0  0
  161.1410  208.9770  152.8990 C   0  0  1  0  0  3  0  0  0  0  0  0
  161.8810  204.8590  152.3830 C   0  0  0  0  0  2  0  0  0  0  0  0
  160.9560  203.7670  152.1210 N   0  0  0  0  0  2  0  0  0  0  0  0
  161.5530  202.9430  151.1560 N   0  0  0  0  0  2  0  0  0  0  0  0
  161.0170  203.4740  148.8930 C   0  0  0  0  0  0  0  0  0  0  0  0
  160.8130  201.3210  148.1530 O   0  0  0  0  0  0  0  0  0  0  0  0
  161.2060  202.5800  147.8310 N   0  0  0  0  0  2  0  0  0  0  0  0
  160.6610  201.3290  149.5670 C   0  0  0  0  0  2  0  0  0  0  0  0
  160.5830  202.7660  150.0870 C   0  0  1  0  0  3  0  0  0  0  0  0
  161.2050  204.7150  148.8020 O   0  0  0  0  0  0  0  0  0  0  0  0
  158.1960  211.4590  154.1250 N   0  0  0  0  0  2  0  0  0  0  0  0
  157.3320  211.6630  155.2100 N   0  0  0  0  0  2  0  0  0  0  0  0
  156.0250  211.5230  154.7270 N   0  0  0  0  0  2  0  0  0  0  0  0
  155.5240  210.3290  155.2620 N   0  0  0  0  0  1  0  0  0  0  0  0
  1 13  1  0  0  0  0
  1 11  1  0  0  0  0
  2 10  1  0  0  0  0
  3 12  1  0  0  0  0
  4  1  2  0  0  0  0
  5  2  1  0  0  0  0
  5  4  1  0  0  0  0
  6  8  1  0  0  0  0
  7  5  2  0  0  0  0
  8  3  2  0  0  0  0
  8  7  1  0  0  0  0
  9 29  1  0  0  0  0
 10 13  1  0  0  0  0
 12  2  2  0  0  0  0
 13  9  2  0  0  0  0
 15 14  1  0  0  0  0
 16 15  1  0  0  0  0
 17 19  1  0  0  0  0
 18 17  1  0  0  0  0
 18 16  1  0  0  0  0
 19 11  1  1  0  0  0
 19 14  1  0  0  0  0
 20 16  1  0  0  0  0
 21 20  1  0  0  0  0
 22 21  1  0  0  0  0
 23 27  1  0  0  0  0
 24 26  1  0  0  0  0
 25 24  1  0  0  0  0
 25 23  1  0  0  0  0
 26 27  1  0  0  0  0
 27 22  1  1  0  0  0
 28 23  2  0  0  0  0
 29 30  1  0  0  0  0
 31 30  1  0  0  0  0
 31 32  1  0  0  0  0
M  END
>  <MODEL>
9

>  <REMARK>
 VINA RESULT:      -6.9      3.907      8.465
  Name = 
  8 active torsions:
  status: ('A' for Active; 'I' for Inactive)
    1  A    between atoms: N_2  and  N_12
    2  A    between atoms: N_2  and  C_17
    3  A    between atoms: N_4  and  N_29
    4  A    between atoms: N_4  and  N_31
    5  A    between atoms: N_8  and  C_17
    6  A    between atoms: N_12  and  C_28
    7  A    between atoms: C_21  and  N_31
    8  A    between atoms: N_24  and  C_27
                            x       y       z     vdW  Elec       q    Type
                         _______ _______ _______ _____ _____    ______ ____

>  <TORSDO>
F 8

$$$$
