=
 OpenBabel11052411553D

 32 36  0  0  1  0  0  0  0  0999 V2000
  158.0520  214.4200  154.8360 C   0  0  0  0  0  2  0  0  0  0  0  0
  161.5390  210.1070  155.4030 C   0  0  1  0  0  3  0  0  0  0  0  0
  158.8720  212.4280  155.8940 C   0  0  0  0  0  0  0  0  0  0  0  0
  162.7480  211.5770  151.2260 O   0  0  0  0  0  0  0  0  0  0  0  0
  161.4260  206.8610  153.4510 C   0  0  1  0  0  3  0  0  0  0  0  0
  160.4650  211.4140  151.8020 C   0  0  0  0  0  0  0  0  0  0  0  0
  162.0150  211.4980  157.2600 C   0  0  0  0  0  2  0  0  0  0  0  0
  156.9240  212.1000  157.2590 O   0  0  0  0  0  0  0  0  0  0  0  0
  159.2000  213.3840  154.7870 C   0  0  1  0  0  3  0  0  0  0  0  0
  158.0340  212.2930  152.8110 C   0  0  0  0  0  3  0  0  0  0  0  0
  162.8190  209.7290  155.8580 O   0  0  0  0  0  0  0  0  0  0  0  0
  159.6960  211.5490  156.4660 C   0  0  0  0  0  3  0  0  0  0  0  0
  161.5840  206.7370  154.9470 C   0  0  0  0  0  3  0  0  0  0  0  0
  160.4070  205.8350  152.9700 C   0  0  0  0  0  1  0  0  0  0  0  0
  160.5110  208.9540  155.4850 C   0  0  2  0  0  3  0  0  0  0  0  0
  161.0540  208.2810  153.0230 C   0  0  2  0  0  3  0  0  0  0  0  0
  157.0210  213.8760  155.7170 N   0  0  0  0  0  2  0  0  0  0  0  0
  157.5430  212.7300  156.3590 C   0  0  0  0  0  0  0  0  0  0  0  0
  161.1270  207.6200  155.8550 C   0  0  0  0  0  0  0  0  0  0  0  0
  163.1660  210.5780  156.9290 C   0  0  1  0  0  3  0  0  0  0  0  0
  159.5770  208.8590  153.9200 S   0  0  0  0  0  0  0  0  0  0  0  0
  160.4370  212.2080  152.9510 C   0  0  0  0  0  3  0  0  0  0  0  0
  159.2580  211.0900  151.1730 C   0  0  0  0  0  3  0  0  0  0  0  0
  161.8480  209.4430  151.0320 N   0  0  0  0  0  2  0  0  0  0  0  0
  159.2200  212.6560  153.4690 C   0  0  0  0  0  0  0  0  0  0  0  0
  161.7320  210.8400  151.3280 C   0  0  0  0  0  0  0  0  0  0  0  0
  160.9070  208.4380  151.5140 C   0  0  0  0  0  2  0  0  0  0  0  0
  158.0790  211.5400  151.6790 N   0  0  0  0  0  0  0  0  0  0  0  0
  161.3110  207.3430  157.1710 F   0  0  0  0  0  0  0  0  0  0  0  0
  161.1320  211.4170  156.0630 C   0  0  2  0  0  3  0  0  0  0  0  0
  164.6040  211.3250  155.1820 O   0  0  0  0  0  1  0  0  0  0  0  0
  164.3900  211.3950  156.5590 C   0  0  0  0  0  2  0  0  0  0  0  0
  1 17  1  0  0  0  0
  2 15  1  0  0  0  0
  2 11  1  1  0  0  0
  2 30  1  0  0  0  0
  3 18  1  0  0  0  0
  3 12  2  0  0  0  0
  4 26  2  0  0  0  0
  5 14  1  1  0  0  0
  5 13  1  0  0  0  0
  6 22  1  0  0  0  0
  9  1  1  6  0  0  0
  9  3  1  0  0  0  0
 10 25  1  0  0  0  0
 11 20  1  0  0  0  0
 13 19  2  0  0  0  0
 15 21  1  6  0  0  0
 15 19  1  0  0  0  0
 16 27  1  6  0  0  0
 16  5  1  0  0  0  0
 16 21  1  0  0  0  0
 17 18  1  0  0  0  0
 18  8  2  0  0  0  0
 19 29  1  0  0  0  0
 20 32  1  6  0  0  0
 20  7  1  0  0  0  0
 22 25  2  0  0  0  0
 23 28  1  0  0  0  0
 23  6  2  0  0  0  0
 24 26  1  0  0  0  0
 24 27  1  0  0  0  0
 25  9  1  0  0  0  0
 26  6  1  0  0  0  0
 28 10  2  0  0  0  0
 30 12  1  1  0  0  0
 30  7  1  0  0  0  0
 31 32  1  0  0  0  0
M  END
>  <MODEL>
1

>  <REMARK>
 VINA RESULT:       4.3      0.000      0.000
  Name = 
  1 active torsions:
  status: ('A' for Active; 'I' for Inactive)
    1  A    between atoms: C_21  and  C_25
                            x       y       z     vdW  Elec       q    Type
                         _______ _______ _______ _____ _____    ______ ____

>  <TORSDO>
F 1

$$$$
=
 OpenBabel11052411553D

 32 36  0  0  1  0  0  0  0  0999 V2000
  158.2570  213.5840  148.8540 C   0  0  0  0  0  2  0  0  0  0  0  0
  160.7190  210.3320  152.6540 C   0  0  1  0  0  3  0  0  0  0  0  0
  160.1460  212.6690  150.0170 C   0  0  0  0  0  0  0  0  0  0  0  0
  156.3530  210.0170  154.0320 O   0  0  0  0  0  0  0  0  0  0  0  0
  161.0890  211.0850  156.3490 C   0  0  1  0  0  3  0  0  0  0  0  0
  157.2470  212.1140  153.4230 C   0  0  0  0  0  0  0  0  0  0  0  0
  161.3100  209.3600  150.5750 C   0  0  0  0  0  2  0  0  0  0  0  0
  161.7160  214.2710  149.1610 O   0  0  0  0  0  0  0  0  0  0  0  0
  158.6550  212.5430  149.9270 C   0  0  1  0  0  3  0  0  0  0  0  0
  157.8970  214.1930  151.7040 C   0  0  0  0  0  3  0  0  0  0  0  0
  161.1130  209.0070  152.9370 O   0  0  0  0  0  0  0  0  0  0  0  0
  160.9940  211.7920  150.5560 C   0  0  0  0  0  3  0  0  0  0  0  0
  162.3280  210.5980  155.6380 C   0  0  0  0  0  3  0  0  0  0  0  0
  161.4600  212.2480  157.2610 C   0  0  0  0  0  1  0  0  0  0  0  0
  161.6160  211.3820  153.3510 C   0  0  2  0  0  3  0  0  0  0  0  0
  159.9700  211.4570  155.3750 C   0  0  2  0  0  3  0  0  0  0  0  0
  159.4310  214.4180  148.6100 N   0  0  0  0  0  2  0  0  0  0  0  0
  160.5370  213.8360  149.2700 C   0  0  0  0  0  0  0  0  0  0  0  0
  162.6010  210.7820  154.3330 C   0  0  0  0  0  0  0  0  0  0  0  0
  161.4150  208.3740  151.7140 C   0  0  1  0  0  3  0  0  0  0  0  0
  160.5650  212.6530  154.1350 S   0  0  0  0  0  0  0  0  0  0  0  0
  157.7000  211.8310  152.1320 C   0  0  0  0  0  3  0  0  0  0  0  0
  157.1170  213.4510  153.8180 C   0  0  0  0  0  3  0  0  0  0  0  0
  157.5850  211.0660  155.6990 N   0  0  0  0  0  2  0  0  0  0  0  0
  158.0310  212.8690  151.2580 C   0  0  0  0  0  0  0  0  0  0  0  0
  157.0180  211.0260  154.3840 C   0  0  0  0  0  0  0  0  0  0  0  0
  158.6990  211.9330  156.0680 C   0  0  0  0  0  2  0  0  0  0  0  0
  157.4320  214.4530  152.9550 N   0  0  0  0  0  0  0  0  0  0  0  0
  163.7830  210.3200  153.8510 F   0  0  0  0  0  0  0  0  0  0  0  0
  160.5360  210.4960  151.1520 C   0  0  2  0  0  3  0  0  0  0  0  0
  161.1700  206.0200  151.4310 O   0  0  0  0  0  1  0  0  0  0  0  0
  160.4570  207.2180  151.4850 C   0  0  0  0  0  2  0  0  0  0  0  0
  2 11  1  6  0  0  0
  2 15  1  0  0  0  0
  3 12  2  0  0  0  0
  4 26  2  0  0  0  0
  5 14  1  6  0  0  0
  6 23  1  0  0  0  0
  6 26  1  0  0  0  0
  7 30  1  0  0  0  0
  7 20  1  0  0  0  0
  8 18  2  0  0  0  0
  9  1  1  6  0  0  0
  9  3  1  0  0  0  0
  9 25  1  0  0  0  0
 10 28  1  0  0  0  0
 13  5  1  0  0  0  0
 15 21  1  1  0  0  0
 15 19  1  0  0  0  0
 16 27  1  1  0  0  0
 16  5  1  0  0  0  0
 17  1  1  0  0  0  0
 17 18  1  0  0  0  0
 18  3  1  0  0  0  0
 19 13  2  0  0  0  0
 20 32  1  6  0  0  0
 20 11  1  0  0  0  0
 21 16  1  0  0  0  0
 22  6  2  0  0  0  0
 24 27  1  0  0  0  0
 25 10  2  0  0  0  0
 25 22  1  0  0  0  0
 26 24  1  0  0  0  0
 28 23  2  0  0  0  0
 29 19  1  0  0  0  0
 30 12  1  6  0  0  0
 30  2  1  0  0  0  0
 31 32  1  0  0  0  0
M  END
>  <MODEL>
2

>  <REMARK>
 VINA RESULT:       4.8      2.689      5.586
  Name = 
  1 active torsions:
  status: ('A' for Active; 'I' for Inactive)
    1  A    between atoms: C_21  and  C_25
                            x       y       z     vdW  Elec       q    Type
                         _______ _______ _______ _____ _____    ______ ____

>  <TORSDO>
F 1

$$$$
=
 OpenBabel11052411553D

 32 36  0  0  1  0  0  0  0  0999 V2000
  162.2390  208.3080  154.2060 C   0  0  0  0  0  2  0  0  0  0  0  0
  159.3920  212.5360  151.9480 C   0  0  1  0  0  3  0  0  0  0  0  0
  160.7660  209.3060  152.5960 C   0  0  0  0  0  0  0  0  0  0  0  0
  160.6510  214.4470  155.9260 O   0  0  0  0  0  0  0  0  0  0  0  0
  156.0710  213.9020  153.1570 C   0  0  1  0  0  3  0  0  0  0  0  0
  159.8300  212.2340  155.8900 C   0  0  0  0  0  0  0  0  0  0  0  0
  161.0790  212.0460  150.3580 C   0  0  0  0  0  2  0  0  0  0  0  0
  159.9950  207.2180  151.6960 O   0  0  0  0  0  0  0  0  0  0  0  0
  161.6330  209.6620  153.7650 C   0  0  1  0  0  3  0  0  0  0  0  0
  159.9900  209.4710  155.6930 C   0  0  0  0  0  3  0  0  0  0  0  0
  159.5070  213.6810  151.1330 O   0  0  0  0  0  0  0  0  0  0  0  0
  160.2790  210.1390  151.6750 C   0  0  0  0  0  3  0  0  0  0  0  0
  156.1890  213.6470  151.6740 C   0  0  0  0  0  3  0  0  0  0  0  0
  154.7200  213.3940  153.6450 C   0  0  0  0  0  1  0  0  0  0  0  0
  157.9880  211.8920  151.8760 C   0  0  2  0  0  3  0  0  0  0  0  0
  157.2300  213.2900  153.9450 C   0  0  2  0  0  3  0  0  0  0  0  0
  161.5040  207.2600  153.5030 N   0  0  0  0  0  2  0  0  0  0  0  0
  160.6760  207.8700  152.5330 C   0  0  0  0  0  0  0  0  0  0  0  0
  156.9810  212.7190  151.1040 C   0  0  0  0  0  0  0  0  0  0  0  0
  160.5480  213.4520  150.2090 C   0  0  1  0  0  3  0  0  0  0  0  0
  157.4040  211.5170  153.5650 S   0  0  0  0  0  0  0  0  0  0  0  0
  160.7060  211.6540  154.9700 C   0  0  0  0  0  3  0  0  0  0  0  0
  159.0570  211.4020  156.7080 C   0  0  0  0  0  3  0  0  0  0  0  0
  158.3340  214.2730  155.8850 N   0  0  0  0  0  2  0  0  0  0  0  0
  160.7960  210.2650  154.8610 C   0  0  0  0  0  0  0  0  0  0  0  0
  159.6430  213.6920  155.9200 C   0  0  0  0  0  0  0  0  0  0  0  0
  157.1450  213.5510  155.4440 C   0  0  0  0  0  2  0  0  0  0  0  0
  159.1590  210.0510  156.6010 N   0  0  0  0  0  0  0  0  0  0  0  0
  156.9420  212.5830  149.7540 F   0  0  0  0  0  0  0  0  0  0  0  0
  160.5700  211.6080  151.6880 C   0  0  2  0  0  3  0  0  0  0  0  0
  162.5310  214.4490  149.3430 O   0  0  0  0  0  1  0  0  0  0  0  0
  161.6660  214.4530  150.4370 C   0  0  0  0  0  2  0  0  0  0  0  0
  2 11  1  6  0  0  0
  3  9  1  0  0  0  0
  5 14  1  1  0  0  0
  5 16  1  0  0  0  0
  6 26  1  0  0  0  0
  6 23  1  0  0  0  0
  8 18  2  0  0  0  0
  9  1  1  1  0  0  0
  9 25  1  0  0  0  0
 10 28  1  0  0  0  0
 12 30  1  0  0  0  0
 12  3  2  0  0  0  0
 13  5  1  0  0  0  0
 15 19  1  1  0  0  0
 15  2  1  0  0  0  0
 15 21  1  0  0  0  0
 16 27  1  1  0  0  0
 17  1  1  0  0  0  0
 18  3  1  0  0  0  0
 18 17  1  0  0  0  0
 19 13  2  0  0  0  0
 20  7  1  0  0  0  0
 20 32  1  1  0  0  0
 20 11  1  0  0  0  0
 21 16  1  0  0  0  0
 22  6  2  0  0  0  0
 24 26  1  0  0  0  0
 25 22  1  0  0  0  0
 25 10  2  0  0  0  0
 26  4  2  0  0  0  0
 27 24  1  0  0  0  0
 28 23  2  0  0  0  0
 29 19  1  0  0  0  0
 30  7  1  6  0  0  0
 30  2  1  0  0  0  0
 31 32  1  0  0  0  0
M  END
>  <MODEL>
3

>  <REMARK>
 VINA RESULT:       5.3      3.095      6.630
  Name = 
  1 active torsions:
  status: ('A' for Active; 'I' for Inactive)
    1  A    between atoms: C_21  and  C_25
                            x       y       z     vdW  Elec       q    Type
                         _______ _______ _______ _____ _____    ______ ____

>  <TORSDO>
F 1

$$$$
=
 OpenBabel11052411553D

 32 36  0  0  1  0  0  0  0  0999 V2000
  162.3410  205.5870  151.6230 C   0  0  0  0  0  2  0  0  0  0  0  0
  161.0160  210.9890  151.2420 C   0  0  1  0  0  3  0  0  0  0  0  0
  161.0940  207.4510  150.7700 C   0  0  0  0  0  0  0  0  0  0  0  0
  163.7010  211.0780  154.9630 O   0  0  0  0  0  0  0  0  0  0  0  0
  158.8270  212.9350  153.6460 C   0  0  1  0  0  3  0  0  0  0  0  0
  162.0800  209.3800  154.7210 C   0  0  0  0  0  0  0  0  0  0  0  0
  162.0130  210.4780  149.1550 C   0  0  0  0  0  2  0  0  0  0  0  0
  159.3930  206.1100  149.7340 O   0  0  0  0  0  0  0  0  0  0  0  0
  162.2470  207.1310  151.6720 C   0  0  1  0  0  3  0  0  0  0  0  0
  161.0870  206.9150  153.9220 C   0  0  0  0  0  3  0  0  0  0  0  0
  161.4100  212.2220  150.6840 O   0  0  0  0  0  0  0  0  0  0  0  0
  160.8030  208.6360  150.2300 C   0  0  0  0  0  3  0  0  0  0  0  0
  158.5330  213.1180  152.1770 C   0  0  0  0  0  3  0  0  0  0  0  0
  157.5130  212.7760  154.4020 C   0  0  0  0  0  1  0  0  0  0  0  0
  159.4880  210.8960  151.4650 C   0  0  2  0  0  3  0  0  0  0  0  0
  159.7800  211.7680  153.9070 C   0  0  2  0  0  3  0  0  0  0  0  0
  161.1250  205.1040  150.9730 N   0  0  0  0  0  2  0  0  0  0  0  0
  160.4300  206.2160  150.4440 C   0  0  0  0  0  0  0  0  0  0  0  0
  158.7590  212.2010  151.2180 C   0  0  0  0  0  0  0  0  0  0  0  0
  162.0650  211.9560  149.4640 C   0  0  1  0  0  3  0  0  0  0  0  0
  159.1560  210.2400  153.1360 S   0  0  0  0  0  0  0  0  0  0  0  0
  162.4500  208.8520  153.4820 C   0  0  0  0  0  3  0  0  0  0  0  0
  161.2220  208.6410  155.5440 C   0  0  0  0  0  3  0  0  0  0  0  0
  161.5490  211.6960  155.5840 N   0  0  0  0  0  2  0  0  0  0  0  0
  161.9560  207.6130  153.0680 C   0  0  0  0  0  0  0  0  0  0  0  0
  162.4970  210.7360  155.1040 C   0  0  0  0  0  0  0  0  0  0  0  0
  160.1090  211.5750  155.3820 C   0  0  0  0  0  2  0  0  0  0  0  0
  160.7550  207.4310  155.1360 N   0  0  0  0  0  0  0  0  0  0  0  0
  158.3990  212.5010  149.9430 F   0  0  0  0  0  0  0  0  0  0  0  0
  161.6500  209.8500  150.4560 C   0  0  2  0  0  3  0  0  0  0  0  0
  164.0250  212.5780  148.2610 O   0  0  0  0  0  1  0  0  0  0  0  0
  163.5090  212.4140  149.5460 C   0  0  0  0  0  2  0  0  0  0  0  0
  2 11  1  6  0  0  0
  2 15  1  0  0  0  0
  3  9  1  0  0  0  0
  4 26  2  0  0  0  0
  5 16  1  0  0  0  0
  5 14  1  1  0  0  0
  6 26  1  0  0  0  0
  6 23  1  0  0  0  0
  7 20  1  0  0  0  0
  8 18  2  0  0  0  0
  9  1  1  1  0  0  0
  9 25  1  0  0  0  0
 10 28  1  0  0  0  0
 12 30  1  0  0  0  0
 12  3  2  0  0  0  0
 13  5  1  0  0  0  0
 15 19  1  1  0  0  0
 15 21  1  0  0  0  0
 16 27  1  1  0  0  0
 17  1  1  0  0  0  0
 18  3  1  0  0  0  0
 18 17  1  0  0  0  0
 19 13  2  0  0  0  0
 20 32  1  1  0  0  0
 20 11  1  0  0  0  0
 21 16  1  0  0  0  0
 22  6  2  0  0  0  0
 25 22  1  0  0  0  0
 25 10  2  0  0  0  0
 26 24  1  0  0  0  0
 27 24  1  0  0  0  0
 28 23  2  0  0  0  0
 29 19  1  0  0  0  0
 30  7  1  6  0  0  0
 30  2  1  0  0  0  0
 31 32  1  0  0  0  0
M  END
>  <MODEL>
4

>  <REMARK>
 VINA RESULT:       6.6      2.908      6.771
  Name = 
  1 active torsions:
  status: ('A' for Active; 'I' for Inactive)
    1  A    between atoms: C_21  and  C_25
                            x       y       z     vdW  Elec       q    Type
                         _______ _______ _______ _____ _____    ______ ____

>  <TORSDO>
F 1

$$$$
=
 OpenBabel11052411553D

 32 36  0  0  1  0  0  0  0  0999 V2000
  157.9330  214.4530  152.8920 C   0  0  0  0  0  2  0  0  0  0  0  0
  161.6040  210.2570  152.8800 C   0  0  1  0  0  3  0  0  0  0  0  0
  158.7210  212.2690  153.4990 C   0  0  0  0  0  0  0  0  0  0  0  0
  163.3620  212.8750  149.5450 O   0  0  0  0  0  0  0  0  0  0  0  0
  162.0630  207.6880  150.1330 C   0  0  1  0  0  3  0  0  0  0  0  0
  161.0350  212.4920  149.6390 C   0  0  0  0  0  0  0  0  0  0  0  0
  161.6610  211.0840  155.1000 C   0  0  0  0  0  2  0  0  0  0  0  0
  156.6080  211.5150  154.3530 O   0  0  0  0  0  0  0  0  0  0  0  0
  159.1510  213.5060  152.7700 C   0  0  1  0  0  3  0  0  0  0  0  0
  158.4110  212.9810  150.3970 C   0  0  0  0  0  3  0  0  0  0  0  0
  162.8180  209.8030  153.4360 O   0  0  0  0  0  0  0  0  0  0  0  0
  159.5060  211.2890  153.9480 C   0  0  0  0  0  3  0  0  0  0  0  0
  161.9840  207.1530  151.5430 C   0  0  0  0  0  3  0  0  0  0  0  0
  161.2190  206.8100  149.2180 C   0  0  0  0  0  1  0  0  0  0  0  0
  160.6690  209.0980  152.4620 C   0  0  2  0  0  3  0  0  0  0  0  0
  161.6570  209.1600  150.0470 C   0  0  2  0  0  3  0  0  0  0  0  0
  156.8180  213.6550  153.3940 N   0  0  0  0  0  2  0  0  0  0  0  0
  157.3150  212.3900  153.7830 C   0  0  0  0  0  0  0  0  0  0  0  0
  161.3170  207.7320  152.5590 C   0  0  0  0  0  0  0  0  0  0  0  0
  162.9190  210.3270  154.7420 C   0  0  1  0  0  3  0  0  0  0  0  0
  160.0130  209.4200  150.7890 S   0  0  0  0  0  0  0  0  0  0  0  0
  160.7580  212.9300  150.9350 C   0  0  0  0  0  3  0  0  0  0  0  0
  159.9760  212.3220  148.7390 C   0  0  0  0  0  3  0  0  0  0  0  0
  162.6740  210.8570  148.6220 N   0  0  0  0  0  2  0  0  0  0  0  0
  159.4420  213.1790  151.3300 C   0  0  0  0  0  0  0  0  0  0  0  0
  162.4030  212.1100  149.2600 C   0  0  0  0  0  0  0  0  0  0  0  0
  161.7470  209.7290  148.6370 C   0  0  0  0  0  2  0  0  0  0  0  0
  158.6990  212.5780  149.1300 N   0  0  0  0  0  0  0  0  0  0  0  0
  161.3050  207.1030  153.7610 F   0  0  0  0  0  0  0  0  0  0  0  0
  160.9950  211.3170  153.7870 C   0  0  2  0  0  3  0  0  0  0  0  0
  164.4580  211.4530  156.1700 O   0  0  0  0  0  1  0  0  0  0  0  0
  164.1200  211.2510  154.8320 C   0  0  0  0  0  2  0  0  0  0  0  0
  1 17  1  0  0  0  0
  2 11  1  1  0  0  0
  2 30  1  0  0  0  0
  3 18  1  0  0  0  0
  3 12  2  0  0  0  0
  5 14  1  6  0  0  0
  5 13  1  0  0  0  0
  6 22  1  0  0  0  0
  9  1  1  6  0  0  0
  9  3  1  0  0  0  0
 10 25  1  0  0  0  0
 11 20  1  0  0  0  0
 13 19  2  0  0  0  0
 15 21  1  6  0  0  0
 15 19  1  0  0  0  0
 15  2  1  0  0  0  0
 16 27  1  6  0  0  0
 16  5  1  0  0  0  0
 16 21  1  0  0  0  0
 17 18  1  0  0  0  0
 18  8  2  0  0  0  0
 19 29  1  0  0  0  0
 20 32  1  6  0  0  0
 20  7  1  0  0  0  0
 22 25  2  0  0  0  0
 23 28  1  0  0  0  0
 23  6  2  0  0  0  0
 24 27  1  0  0  0  0
 24 26  1  0  0  0  0
 25  9  1  0  0  0  0
 26  4  2  0  0  0  0
 26  6  1  0  0  0  0
 28 10  2  0  0  0  0
 30 12  1  1  0  0  0
 30  7  1  0  0  0  0
 32 31  1  0  0  0  0
M  END
>  <MODEL>
5

>  <REMARK>
 VINA RESULT:       6.7      2.167      2.698
  Name = 
  1 active torsions:
  status: ('A' for Active; 'I' for Inactive)
    1  A    between atoms: C_21  and  C_25
                            x       y       z     vdW  Elec       q    Type
                         _______ _______ _______ _____ _____    ______ ____

>  <TORSDO>
F 1

$$$$
