=
 OpenBabel11052411073D

 34 37  0  0  1  0  0  0  0  0999 V2000
  162.1040  210.6820  154.5870 C   0  0  0  0  0  1  0  0  0  0  0  0
  162.0280  208.4540  153.4870 C   0  0  0  0  0  2  0  0  0  0  0  0
  161.3790  209.8290  153.5530 C   0  0  2  0  0  0  0  0  0  0  0  0
  161.6140  210.4050  152.1650 C   0  0  0  0  0  2  0  0  0  0  0  0
  161.6040  209.2280  151.2130 C   0  0  2  0  0  3  0  0  0  0  0  0
  161.9510  208.0000  152.0390 C   0  0  2  0  0  3  0  0  0  0  0  0
  158.7360  211.9620  155.1250 C   0  0  2  0  0  3  0  0  0  0  0  0
  159.4360  208.4570  155.8240 N   0  0  0  0  0  1  0  0  0  0  0  0
  158.9640  212.0140  153.6100 C   0  0  0  0  0  2  0  0  0  0  0  0
  159.1050  210.6110  153.0080 C   0  0  0  0  0  2  0  0  0  0  0  0
  159.9260  209.7030  153.8380 N   0  0  2  0  0  0  0  0  0  0  0  0
  158.4480  210.6030  155.5660 N   0  0  0  0  0  2  0  0  0  0  0  0
  159.6320  209.7910  155.2880 C   0  0  1  0  0  3  0  0  0  0  0  0
  157.5920  212.8770  155.5160 C   0  0  0  0  0  2  0  0  0  0  0  0
  156.3470  212.3770  154.9600 N   0  0  0  0  0  1  0  0  0  0  0  0
  162.3650  205.1440  151.6340 N   0  0  0  0  0  0  0  0  0  0  0  0
  162.3200  203.7560  151.5210 N   0  0  0  0  0  2  0  0  0  0  0  0
  161.1720  205.6160  151.7320 C   0  0  0  0  0  0  0  0  0  0  0  0
  160.1130  204.5760  151.6890 C   0  0  0  0  0  2  0  0  0  0  0  0
  160.9420  203.2930  151.5680 C   0  0  1  0  0  3  0  0  0  0  0  0
  160.8980  207.0100  151.8870 N   0  0  0  0  0  2  0  0  0  0  0  0
  160.5930  202.5570  150.3160 C   0  0  0  0  0  0  0  0  0  0  0  0
  160.6480  203.2170  149.0960 O   0  0  0  0  0  0  0  0  0  0  0  0
  160.2690  201.3400  150.3550 O   0  0  0  0  0  1  0  0  0  0  0  0
  162.5630  209.4170  150.2150 O   0  0  0  0  0  0  0  0  0  0  0  0
  161.8690  209.2490  149.0130 C   0  0  0  0  0  2  0  0  0  0  0  0
  162.0520  207.8330  148.4970 C   0  0  0  0  0  2  0  0  0  0  0  0
  160.8070  207.2150  148.3630 O   0  0  0  0  0  0  0  0  0  0  0  0
  161.4850  205.6590  145.2480 C   0  0  1  0  0  3  0  0  0  0  0  0
  162.5380  205.8910  147.4060 C   0  0  0  0  0  2  0  0  0  0  0  0
  161.0520  206.0670  147.6090 C   0  0  2  0  0  3  0  0  0  0  0  0
  162.6680  205.1930  146.0740 C   0  0  0  0  0  2  0  0  0  0  0  0
  160.9380  204.5740  144.5640 O   0  0  0  0  0  1  0  0  0  0  0  0
  160.4630  206.2230  146.2200 C   0  0  0  0  0  2  0  0  0  0  0  0
  2  3  1  0  0  0  0
  3 11  1  0  0  0  0
  3  1  1  1  0  0  0
  4  3  1  0  0  0  0
  5 25  1  6  0  0  0
  5  6  1  0  0  0  0
  5  4  1  0  0  0  0
  6 21  1  1  0  0  0
  6  2  1  0  0  0  0
  7 14  1  6  0  0  0
  7 12  1  0  0  0  0
  9  7  1  0  0  0  0
 10  9  1  0  0  0  0
 11 10  1  6  0  0  0
 11 13  1  0  0  0  0
 13 12  1  0  0  0  0
 13  8  1  6  0  0  0
 15 14  1  0  0  0  0
 16 18  2  0  0  0  0
 17 20  1  0  0  0  0
 17 16  1  0  0  0  0
 18 21  1  0  0  0  0
 19 18  1  0  0  0  0
 20 22  1  6  0  0  0
 20 19  1  0  0  0  0
 22 24  1  0  0  0  0
 23 22  2  0  0  0  0
 26 25  1  0  0  0  0
 27 26  1  0  0  0  0
 28 27  1  0  0  0  0
 29 33  1  1  0  0  0
 29 32  1  0  0  0  0
 29 34  1  0  0  0  0
 30 31  1  0  0  0  0
 31 28  1  1  0  0  0
 32 30  1  0  0  0  0
 34 31  1  0  0  0  0
M  END
>  <MODEL>
1

>  <REMARK>
 VINA RESULT:      -6.0      0.000      0.000
  Name = 
  9 active torsions:
  status: ('A' for Active; 'I' for Inactive)
    1  A    between atoms: C_1  and  C_10
    2  A    between atoms: C_6  and  C_30
    3  A    between atoms: O_11  and  C_12
    4  A    between atoms: O_11  and  C_31
    5  A    between atoms: C_12  and  C_26
    6  A    between atoms: O_15  and  C_16
    7  A    between atoms: O_15  and  C_26
    8  A    between atoms: N_20  and  C_25
    9  A    between atoms: N_33  and  C_34
                            x       y       z     vdW  Elec       q    Type
                         _______ _______ _______ _____ _____    ______ ____

>  <TORSDO>
F 9

$$$$
=
 OpenBabel11052411073D

 34 37  0  0  1  0  0  0  0  0999 V2000
  160.2890  205.9070  146.5800 C   0  0  0  0  0  1  0  0  0  0  0  0
  160.3280  206.7760  148.9080 C   0  0  0  0  0  2  0  0  0  0  0  0
  161.1620  206.1340  147.8090 C   0  0  2  0  0  0  0  0  0  0  0  0
  162.2150  207.1860  147.4950 C   0  0  0  0  0  2  0  0  0  0  0  0
  162.4830  207.9150  148.7940 C   0  0  2  0  0  3  0  0  0  0  0  0
  161.2480  207.7250  149.6600 C   0  0  2  0  0  3  0  0  0  0  0  0
  160.8270  202.4780  147.0850 C   0  0  2  0  0  3  0  0  0  0  0  0
  160.8650  204.0770  150.3570 N   0  0  0  0  0  1  0  0  0  0  0  0
  161.8650  203.3180  146.3320 C   0  0  0  0  0  2  0  0  0  0  0  0
  162.6450  204.2380  147.2770 C   0  0  0  0  0  2  0  0  0  0  0  0
  161.7900  204.8810  148.2990 N   0  0  2  0  0  0  0  0  0  0  0  0
  161.0230  202.5700  148.5270 N   0  0  0  0  0  2  0  0  0  0  0  0
  160.8010  203.9630  148.9120 C   0  0  1  0  0  3  0  0  0  0  0  0
  160.9100  201.0270  146.6520 C   0  0  0  0  0  2  0  0  0  0  0  0
  161.5520  200.2380  147.6880 N   0  0  0  0  0  1  0  0  0  0  0  0
  160.4310  208.6740  152.2910 N   0  0  0  0  0  0  0  0  0  0  0  0
  160.1080  208.8930  153.6280 N   0  0  0  0  0  2  0  0  0  0  0  0
  161.1690  207.6260  152.1830 C   0  0  0  0  0  0  0  0  0  0  0  0
  161.4650  206.9670  153.4810 C   0  0  0  0  0  2  0  0  0  0  0  0
  160.6930  207.8560  154.4640 C   0  0  1  0  0  3  0  0  0  0  0  0
  161.6400  207.1320  150.9270 N   0  0  0  0  0  2  0  0  0  0  0  0
  161.6200  208.4540  155.4710 C   0  0  0  0  0  0  0  0  0  0  0  0
  162.0850  209.7490  155.2890 O   0  0  0  0  0  0  0  0  0  0  0  0
  161.9650  207.8030  156.4920 O   0  0  0  0  0  1  0  0  0  0  0  0
  162.6840  209.2740  148.5430 O   0  0  0  0  0  0  0  0  0  0  0  0
  162.0370  209.9340  149.5920 C   0  0  0  0  0  2  0  0  0  0  0  0
  161.9820  211.4250  149.3160 C   0  0  0  0  0  2  0  0  0  0  0  0
  162.5830  211.7010  148.0860 O   0  0  0  0  0  0  0  0  0  0  0  0
  159.4860  213.2810  147.3830 C   0  0  1  0  0  3  0  0  0  0  0  0
  161.4790  213.7280  148.6670 C   0  0  0  0  0  2  0  0  0  0  0  0
  161.8600  212.7730  147.5610 C   0  0  2  0  0  3  0  0  0  0  0  0
  160.1770  214.3440  148.2160 C   0  0  0  0  0  2  0  0  0  0  0  0
  158.9300  213.8680  146.2470 O   0  0  0  0  0  1  0  0  0  0  0  0
  160.5510  212.2780  146.9750 C   0  0  0  0  0  2  0  0  0  0  0  0
  2  6  1  0  0  0  0
  3  1  1  6  0  0  0
  3 11  1  0  0  0  0
  3  2  1  0  0  0  0
  4  3  1  0  0  0  0
  4  5  1  0  0  0  0
  5 25  1  6  0  0  0
  5  6  1  0  0  0  0
  6 21  1  1  0  0  0
  7 14  1  6  0  0  0
  7 12  1  0  0  0  0
  9  7  1  0  0  0  0
  9 10  1  0  0  0  0
 11 10  1  6  0  0  0
 11 13  1  0  0  0  0
 12 13  1  0  0  0  0
 13  8  1  1  0  0  0
 14 15  1  0  0  0  0
 16 17  1  0  0  0  0
 17 20  1  0  0  0  0
 18 16  2  0  0  0  0
 18 19  1  0  0  0  0
 19 20  1  0  0  0  0
 20 22  1  1  0  0  0
 21 18  1  0  0  0  0
 22 24  1  0  0  0  0
 23 22  2  0  0  0  0
 25 26  1  0  0  0  0
 27 26  1  0  0  0  0
 28 27  1  0  0  0  0
 29 33  1  6  0  0  0
 29 32  1  0  0  0  0
 31 28  1  1  0  0  0
 31 30  1  0  0  0  0
 32 30  1  0  0  0  0
 34 29  1  0  0  0  0
 34 31  1  0  0  0  0
M  END
>  <MODEL>
2

>  <REMARK>
 VINA RESULT:      -5.9      3.307      7.902
  Name = 
  9 active torsions:
  status: ('A' for Active; 'I' for Inactive)
    1  A    between atoms: C_1  and  C_10
    2  A    between atoms: C_6  and  C_30
    3  A    between atoms: O_11  and  C_12
    4  A    between atoms: O_11  and  C_31
    5  A    between atoms: C_12  and  C_26
    6  A    between atoms: O_15  and  C_16
    7  A    between atoms: O_15  and  C_26
    8  A    between atoms: N_20  and  C_25
    9  A    between atoms: N_33  and  C_34
                            x       y       z     vdW  Elec       q    Type
                         _______ _______ _______ _____ _____    ______ ____

>  <TORSDO>
F 9

$$$$
=
 OpenBabel11052411073D

 34 37  0  0  1  0  0  0  0  0999 V2000
  162.7790  205.6870  151.6670 C   0  0  0  0  0  1  0  0  0  0  0  0
  162.8750  207.7590  150.2980 C   0  0  0  0  0  2  0  0  0  0  0  0
  161.9500  206.7880  151.0160 C   0  0  2  0  0  0  0  0  0  0  0  0
  161.3010  207.6390  152.0960 C   0  0  0  0  0  2  0  0  0  0  0  0
  161.1990  209.0380  151.5240 C   0  0  2  0  0  3  0  0  0  0  0  0
  162.2570  209.1410  150.4390 C   0  0  2  0  0  3  0  0  0  0  0  0
  161.2940  203.5200  149.3140 C   0  0  2  0  0  3  0  0  0  0  0  0
  161.3290  206.8270  147.7870 N   0  0  0  0  0  1  0  0  0  0  0  0
  160.6430  203.8250  150.6670 C   0  0  0  0  0  2  0  0  0  0  0  0
  160.0550  205.2400  150.7090 C   0  0  0  0  0  2  0  0  0  0  0  0
  160.9310  206.2510  150.0780 N   0  0  2  0  0  0  0  0  0  0  0  0
  160.9620  204.5420  148.3290 N   0  0  0  0  0  2  0  0  0  0  0  0
  161.5300  205.8060  148.7970 C   0  0  1  0  0  3  0  0  0  0  0  0
  160.8470  202.1620  148.8080 C   0  0  0  0  0  2  0  0  0  0  0  0
  161.0260  201.1640  149.8470 N   0  0  0  0  0  1  0  0  0  0  0  0
  162.2440  211.8290  149.3140 N   0  0  0  0  0  0  0  0  0  0  0  0
  162.1810  212.9960  148.5570 N   0  0  0  0  0  2  0  0  0  0  0  0
  161.6890  210.8590  148.6760 C   0  0  0  0  0  0  0  0  0  0  0  0
  161.1470  211.2510  147.3500 C   0  0  0  0  0  2  0  0  0  0  0  0
  161.5260  212.7340  147.2840 C   0  0  1  0  0  3  0  0  0  0  0  0
  161.6220  209.5270  149.1900 N   0  0  0  0  0  2  0  0  0  0  0  0
  160.3060  213.5830  147.1380 C   0  0  0  0  0  0  0  0  0  0  0  0
  159.5800  213.9390  148.2660 O   0  0  0  0  0  1  0  0  0  0  0  0
  159.9420  213.9950  146.0040 O   0  0  0  0  0  0  0  0  0  0  0  0
  161.4500  209.9790  152.5250 O   0  0  0  0  0  0  0  0  0  0  0  0
  160.2740  210.7290  152.6180 C   0  0  0  0  0  2  0  0  0  0  0  0
  159.6900  210.6150  154.0140 C   0  0  0  0  0  2  0  0  0  0  0  0
  160.5630  211.1900  154.9400 O   0  0  0  0  0  0  0  0  0  0  0  0
  160.5880  207.8320  156.0840 C   0  0  1  0  0  3  0  0  0  0  0  0
  162.0620  209.7410  156.0880 C   0  0  0  0  0  2  0  0  0  0  0  0
  160.6500  210.2640  155.9800 C   0  0  2  0  0  3  0  0  0  0  0  0
  161.9170  208.3340  156.6140 C   0  0  0  0  0  2  0  0  0  0  0  0
  159.9140  207.1440  157.0920 O   0  0  0  0  0  1  0  0  0  0  0  0
  159.7860  209.0550  155.6720 C   0  0  0  0  0  2  0  0  0  0  0  0
  2  6  1  0  0  0  0
  2  3  1  0  0  0  0
  3  1  1  1  0  0  0
  3  4  1  0  0  0  0
  5  4  1  0  0  0  0
  5 25  1  1  0  0  0
  6 21  1  6  0  0  0
  6  5  1  0  0  0  0
  7 14  1  6  0  0  0
  7  9  1  0  0  0  0
  9 10  1  0  0  0  0
 11 10  1  1  0  0  0
 11  3  1  0  0  0  0
 12 13  1  0  0  0  0
 12  7  1  0  0  0  0
 13  8  1  6  0  0  0
 13 11  1  0  0  0  0
 14 15  1  0  0  0  0
 17 16  1  0  0  0  0
 18 21  1  0  0  0  0
 18 16  2  0  0  0  0
 19 18  1  0  0  0  0
 20 22  1  1  0  0  0
 20 19  1  0  0  0  0
 20 17  1  0  0  0  0
 22 23  1  0  0  0  0
 24 22  2  0  0  0  0
 25 26  1  0  0  0  0
 26 27  1  0  0  0  0
 27 28  1  0  0  0  0
 29 32  1  0  0  0  0
 29 33  1  1  0  0  0
 30 32  1  0  0  0  0
 31 28  1  6  0  0  0
 31 30  1  0  0  0  0
 34 31  1  0  0  0  0
 34 29  1  0  0  0  0
M  END
>  <MODEL>
3

>  <REMARK>
 VINA RESULT:      -5.5      4.002      8.585
  Name = 
  9 active torsions:
  status: ('A' for Active; 'I' for Inactive)
    1  A    between atoms: C_1  and  C_10
    2  A    between atoms: C_6  and  C_30
    3  A    between atoms: O_11  and  C_12
    4  A    between atoms: O_11  and  C_31
    5  A    between atoms: C_12  and  C_26
    6  A    between atoms: O_15  and  C_16
    7  A    between atoms: O_15  and  C_26
    8  A    between atoms: N_20  and  C_25
    9  A    between atoms: N_33  and  C_34
                            x       y       z     vdW  Elec       q    Type
                         _______ _______ _______ _____ _____    ______ ____

>  <TORSDO>
F 9

$$$$
=
 OpenBabel11052411073D

 34 37  0  0  1  0  0  0  0  0999 V2000
  163.0030  209.9540  152.3650 C   0  0  0  0  0  1  0  0  0  0  0  0
  162.8180  208.3780  150.4520 C   0  0  0  0  0  2  0  0  0  0  0  0
  162.0650  209.3860  151.3060 C   0  0  2  0  0  0  0  0  0  0  0  0
  161.6880  210.4830  150.3230 C   0  0  0  0  0  2  0  0  0  0  0  0
  161.4790  209.7980  148.9890 C   0  0  2  0  0  3  0  0  0  0  0  0
  162.2670  208.5000  149.0400 C   0  0  2  0  0  3  0  0  0  0  0  0
  160.8060  208.6590  154.7550 C   0  0  2  0  0  3  0  0  0  0  0  0
  160.9140  206.3680  151.9250 N   0  0  0  0  0  1  0  0  0  0  0  0
  160.4260  209.9720  154.0600 C   0  0  0  0  0  2  0  0  0  0  0  0
  159.9990  209.7420  152.6060 C   0  0  0  0  0  2  0  0  0  0  0  0
  160.8530  208.7630  151.8980 N   0  0  2  0  0  0  0  0  0  0  0  0
  160.4160  207.5070  153.9500 N   0  0  0  0  0  2  0  0  0  0  0  0
  161.1800  207.5630  152.7050 C   0  0  1  0  0  3  0  0  0  0  0  0
  160.1450  208.5740  156.1180 C   0  0  0  0  0  2  0  0  0  0  0  0
  159.6890  207.2180  156.3630 N   0  0  0  0  0  1  0  0  0  0  0  0
  162.8570  206.2640  147.2660 N   0  0  0  0  0  0  0  0  0  0  0  0
  162.9510  205.0760  146.5450 N   0  0  0  0  0  2  0  0  0  0  0  0
  161.7430  206.3020  147.9100 C   0  0  0  0  0  0  0  0  0  0  0  0
  160.8920  205.1030  147.7010 C   0  0  0  0  0  2  0  0  0  0  0  0
  161.7690  204.2580  146.7690 C   0  0  1  0  0  3  0  0  0  0  0  0
  161.3730  207.3880  148.7610 N   0  0  0  0  0  2  0  0  0  0  0  0
  161.0630  203.9930  145.4800 C   0  0  0  0  0  0  0  0  0  0  0  0
  160.8390  205.0380  144.5940 O   0  0  0  0  0  0  0  0  0  0  0  0
  160.6870  202.8280  145.1810 O   0  0  0  0  0  1  0  0  0  0  0  0
  161.9630  210.6090  147.9590 O   0  0  0  0  0  0  0  0  0  0  0  0
  161.5520  211.9020  148.2950 C   0  0  0  0  0  2  0  0  0  0  0  0
  161.1640  212.6690  147.0440 C   0  0  0  0  0  2  0  0  0  0  0  0
  162.2700  213.3680  146.5560 O   0  0  0  0  0  0  0  0  0  0  0  0
  162.3970  212.6100  143.0930 C   0  0  1  0  0  3  0  0  0  0  0  0
  160.7240  212.9050  144.8070 C   0  0  0  0  0  2  0  0  0  0  0  0
  161.9490  213.6790  145.2350 C   0  0  2  0  0  3  0  0  0  0  0  0
  160.9000  212.6910  143.3230 C   0  0  0  0  0  2  0  0  0  0  0  0
  162.7330  213.3350  141.9510 O   0  0  0  0  0  1  0  0  0  0  0  0
  163.0640  213.2280  144.3100 C   0  0  0  0  0  2  0  0  0  0  0  0
  2  3  1  0  0  0  0
  3 11  1  0  0  0  0
  3  1  1  1  0  0  0
  4  3  1  0  0  0  0
  5 25  1  6  0  0  0
  5  6  1  0  0  0  0
  5  4  1  0  0  0  0
  6 21  1  1  0  0  0
  6  2  1  0  0  0  0
  7 14  1  1  0  0  0
  9  7  1  0  0  0  0
 10  9  1  0  0  0  0
 11 10  1  1  0  0  0
 11 13  1  0  0  0  0
 12  7  1  0  0  0  0
 13  8  1  6  0  0  0
 13 12  1  0  0  0  0
 14 15  1  0  0  0  0
 16 18  2  0  0  0  0
 17 20  1  0  0  0  0
 17 16  1  0  0  0  0
 18 21  1  0  0  0  0
 19 18  1  0  0  0  0
 20 22  1  6  0  0  0
 20 19  1  0  0  0  0
 23 22  2  0  0  0  0
 24 22  1  0  0  0  0
 25 26  1  0  0  0  0
 27 26  1  0  0  0  0
 28 27  1  0  0  0  0
 29 33  1  6  0  0  0
 29 32  1  0  0  0  0
 29 34  1  0  0  0  0
 30 31  1  0  0  0  0
 31 28  1  1  0  0  0
 32 30  1  0  0  0  0
 34 31  1  0  0  0  0
M  END
>  <MODEL>
4

>  <REMARK>
 VINA RESULT:      -5.4      3.578      5.010
  Name = 
  9 active torsions:
  status: ('A' for Active; 'I' for Inactive)
    1  A    between atoms: C_1  and  C_10
    2  A    between atoms: C_6  and  C_30
    3  A    between atoms: O_11  and  C_12
    4  A    between atoms: O_11  and  C_31
    5  A    between atoms: C_12  and  C_26
    6  A    between atoms: O_15  and  C_16
    7  A    between atoms: O_15  and  C_26
    8  A    between atoms: N_20  and  C_25
    9  A    between atoms: N_33  and  C_34
                            x       y       z     vdW  Elec       q    Type
                         _______ _______ _______ _____ _____    ______ ____

>  <TORSDO>
F 9

$$$$
=
 OpenBabel11052411073D

 34 37  0  0  1  0  0  0  0  0999 V2000
  162.7260  205.5630  151.5980 C   0  0  0  0  0  1  0  0  0  0  0  0
  162.8290  207.6910  150.3180 C   0  0  0  0  0  2  0  0  0  0  0  0
  161.8980  206.6750  150.9640 C   0  0  2  0  0  0  0  0  0  0  0  0
  161.1980  207.4700  152.0550 C   0  0  0  0  0  2  0  0  0  0  0  0
  161.0890  208.8890  151.5370 C   0  0  2  0  0  3  0  0  0  0  0  0
  162.1810  209.0540  150.4930 C   0  0  2  0  0  3  0  0  0  0  0  0
  161.4180  203.5040  149.0370 C   0  0  2  0  0  3  0  0  0  0  0  0
  161.3380  206.9030  147.7320 N   0  0  0  0  0  1  0  0  0  0  0  0
  160.7280  203.6890  150.3930 C   0  0  0  0  0  2  0  0  0  0  0  0
  160.0790  205.0730  150.5150 C   0  0  0  0  0  2  0  0  0  0  0  0
  160.9220  206.1600  149.9710 N   0  0  2  0  0  0  0  0  0  0  0  0
  161.0600  204.5740  148.1140 N   0  0  0  0  0  2  0  0  0  0  0  0
  161.5640  205.8260  148.6770 C   0  0  1  0  0  3  0  0  0  0  0  0
  161.0390  202.1640  148.4330 C   0  0  0  0  0  2  0  0  0  0  0  0
  159.7860  201.7020  149.0020 N   0  0  0  0  0  1  0  0  0  0  0  0
  162.3180  211.7470  149.3880 N   0  0  0  0  0  0  0  0  0  0  0  0
  162.3240  212.9210  148.6370 N   0  0  0  0  0  2  0  0  0  0  0  0
  161.7220  210.8110  148.7370 C   0  0  0  0  0  0  0  0  0  0  0  0
  161.2150  211.2380  147.4070 C   0  0  0  0  0  2  0  0  0  0  0  0
  161.6710  212.7010  147.3560 C   0  0  1  0  0  3  0  0  0  0  0  0
  161.5810  209.4810  149.2400 N   0  0  0  0  0  2  0  0  0  0  0  0
  160.4980  213.6120  147.2020 C   0  0  0  0  0  0  0  0  0  0  0  0
  160.0100  214.2930  148.3080 O   0  0  0  0  0  1  0  0  0  0  0  0
  159.9600  213.7830  146.0750 O   0  0  0  0  0  0  0  0  0  0  0  0
  161.2890  209.7920  152.5840 O   0  0  0  0  0  0  0  0  0  0  0  0
  161.1900  209.0230  153.7470 C   0  0  0  0  0  2  0  0  0  0  0  0
  160.5920  209.8490  154.8710 C   0  0  0  0  0  2  0  0  0  0  0  0
  160.8730  211.2020  154.6650 O   0  0  0  0  0  0  0  0  0  0  0  0
  157.4080  211.8500  154.2660 C   0  0  1  0  0  3  0  0  0  0  0  0
  158.8920  211.0050  155.9700 C   0  0  0  0  0  2  0  0  0  0  0  0
  159.7140  211.8760  155.0490 C   0  0  2  0  0  3  0  0  0  0  0  0
  157.4620  211.4140  155.7180 C   0  0  0  0  0  2  0  0  0  0  0  0
  156.6430  213.0100  154.1550 O   0  0  0  0  0  1  0  0  0  0  0  0
  158.8380  212.1330  153.8370 C   0  0  0  0  0  2  0  0  0  0  0  0
  2  6  1  0  0  0  0
  2  3  1  0  0  0  0
  3  1  1  1  0  0  0
  3  4  1  0  0  0  0
  5  4  1  0  0  0  0
  5 25  1  1  0  0  0
  6 21  1  6  0  0  0
  6  5  1  0  0  0  0
  7 14  1  6  0  0  0
  7  9  1  0  0  0  0
  9 10  1  0  0  0  0
 11 10  1  1  0  0  0
 11  3  1  0  0  0  0
 12 13  1  0  0  0  0
 12  7  1  0  0  0  0
 13  8  1  6  0  0  0
 13 11  1  0  0  0  0
 14 15  1  0  0  0  0
 17 16  1  0  0  0  0
 18 21  1  0  0  0  0
 18 16  2  0  0  0  0
 19 18  1  0  0  0  0
 20 22  1  1  0  0  0
 20 19  1  0  0  0  0
 20 17  1  0  0  0  0
 22 23  1  0  0  0  0
 24 22  2  0  0  0  0
 25 26  1  0  0  0  0
 26 27  1  0  0  0  0
 28 27  1  0  0  0  0
 29 33  1  1  0  0  0
 29 32  1  0  0  0  0
 31 28  1  6  0  0  0
 31 30  1  0  0  0  0
 32 30  1  0  0  0  0
 34 29  1  0  0  0  0
 34 31  1  0  0  0  0
M  END
>  <MODEL>
5

>  <REMARK>
 VINA RESULT:      -5.2      3.906      8.765
  Name = 
  9 active torsions:
  status: ('A' for Active; 'I' for Inactive)
    1  A    between atoms: C_1  and  C_10
    2  A    between atoms: C_6  and  C_30
    3  A    between atoms: O_11  and  C_12
    4  A    between atoms: O_11  and  C_31
    5  A    between atoms: C_12  and  C_26
    6  A    between atoms: O_15  and  C_16
    7  A    between atoms: O_15  and  C_26
    8  A    between atoms: N_20  and  C_25
    9  A    between atoms: N_33  and  C_34
                            x       y       z     vdW  Elec       q    Type
                         _______ _______ _______ _____ _____    ______ ____

>  <TORSDO>
F 9

$$$$
=
 OpenBabel11052411073D

 34 37  0  0  1  0  0  0  0  0999 V2000
  160.3010  205.6350  150.6600 C   0  0  0  0  0  1  0  0  0  0  0  0
  160.6780  207.7760  149.4550 C   0  0  0  0  0  2  0  0  0  0  0  0
  161.3540  206.6440  150.2160 C   0  0  2  0  0  0  0  0  0  0  0  0
  162.2630  206.0040  149.1780 C   0  0  0  0  0  2  0  0  0  0  0  0
  162.6980  207.1220  148.2530 C   0  0  2  0  0  3  0  0  0  0  0  0
  161.6450  208.2120  148.3660 C   0  0  2  0  0  3  0  0  0  0  0  0
  160.8450  207.0600  153.9000 C   0  0  2  0  0  3  0  0  0  0  0  0
  162.0520  209.5680  151.5500 N   0  0  0  0  0  1  0  0  0  0  0  0
  161.5180  205.7950  153.3560 C   0  0  0  0  0  2  0  0  0  0  0  0
  162.5740  206.1250  152.2940 C   0  0  0  0  0  2  0  0  0  0  0  0
  162.1420  207.1820  151.3540 N   0  0  2  0  0  0  0  0  0  0  0  0
  161.5550  208.2590  153.4700 N   0  0  0  0  0  2  0  0  0  0  0  0
  161.4640  208.3250  152.0120 C   0  0  1  0  0  3  0  0  0  0  0  0
  160.7910  207.0180  155.4150 C   0  0  0  0  0  2  0  0  0  0  0  0
  161.5810  208.1020  155.9690 N   0  0  0  0  0  1  0  0  0  0  0  0
  160.8330  210.8690  147.4860 N   0  0  0  0  0  0  0  0  0  0  0  0
  160.5780  212.2210  147.2680 N   0  0  0  0  0  2  0  0  0  0  0  0
  161.8120  210.7330  148.3100 C   0  0  0  0  0  0  0  0  0  0  0  0
  162.3830  212.0220  148.7770 C   0  0  0  0  0  2  0  0  0  0  0  0
  161.4890  213.0370  148.0570 C   0  0  1  0  0  3  0  0  0  0  0  0
  162.2890  209.4580  148.7470 N   0  0  0  0  0  2  0  0  0  0  0  0
  162.3040  213.9190  147.1690 C   0  0  0  0  0  0  0  0  0  0  0  0
  161.8520  214.2100  145.8900 O   0  0  0  0  0  0  0  0  0  0  0  0
  163.3870  214.4170  147.5780 O   0  0  0  0  0  1  0  0  0  0  0  0
  162.7590  206.6530  146.9390 O   0  0  0  0  0  0  0  0  0  0  0  0
  162.7930  205.2600  147.0550 C   0  0  0  0  0  2  0  0  0  0  0  0
  161.9060  204.6250  145.9990 C   0  0  0  0  0  2  0  0  0  0  0  0
  160.8300  203.9800  146.6120 O   0  0  0  0  0  0  0  0  0  0  0  0
  160.5220  201.3220  148.9410 C   0  0  1  0  0  3  0  0  0  0  0  0
  161.2080  201.6300  146.6490 C   0  0  0  0  0  2  0  0  0  0  0  0
  161.4020  202.9490  147.3580 C   0  0  2  0  0  3  0  0  0  0  0  0
  161.1310  200.6030  147.7530 C   0  0  0  0  0  2  0  0  0  0  0  0
  161.2040  200.9640  150.1030 O   0  0  0  0  0  1  0  0  0  0  0  0
  160.6840  202.8110  148.6870 C   0  0  0  0  0  2  0  0  0  0  0  0
  2  3  1  0  0  0  0
  3  1  1  1  0  0  0
  3 11  1  0  0  0  0
  4  3  1  0  0  0  0
  5 25  1  6  0  0  0
  5  6  1  0  0  0  0
  5  4  1  0  0  0  0
  6 21  1  1  0  0  0
  6  2  1  0  0  0  0
  7 14  1  1  0  0  0
  9  7  1  0  0  0  0
 10  9  1  0  0  0  0
 11 13  1  0  0  0  0
 11 10  1  1  0  0  0
 12  7  1  0  0  0  0
 13  8  1  6  0  0  0
 13 12  1  0  0  0  0
 14 15  1  0  0  0  0
 16 18  2  0  0  0  0
 17 16  1  0  0  0  0
 17 20  1  0  0  0  0
 18 21  1  0  0  0  0
 18 19  1  0  0  0  0
 20 22  1  6  0  0  0
 20 19  1  0  0  0  0
 22 24  1  0  0  0  0
 23 22  2  0  0  0  0
 25 26  1  0  0  0  0
 27 28  1  0  0  0  0
 27 26  1  0  0  0  0
 29 33  1  1  0  0  0
 30 31  1  0  0  0  0
 30 32  1  0  0  0  0
 31 28  1  6  0  0  0
 31 34  1  0  0  0  0
 32 29  1  0  0  0  0
 34 29  1  0  0  0  0
M  END
>  <MODEL>
6

>  <REMARK>
 VINA RESULT:      -4.9      3.107      6.600
  Name = 
  9 active torsions:
  status: ('A' for Active; 'I' for Inactive)
    1  A    between atoms: C_1  and  C_10
    2  A    between atoms: C_6  and  C_30
    3  A    between atoms: O_11  and  C_12
    4  A    between atoms: O_11  and  C_31
    5  A    between atoms: C_12  and  C_26
    6  A    between atoms: O_15  and  C_16
    7  A    between atoms: O_15  and  C_26
    8  A    between atoms: N_20  and  C_25
    9  A    between atoms: N_33  and  C_34
                            x       y       z     vdW  Elec       q    Type
                         _______ _______ _______ _____ _____    ______ ____

>  <TORSDO>
F 9

$$$$
=
 OpenBabel11052411073D

 34 37  0  0  1  0  0  0  0  0999 V2000
  158.3180  210.5070  154.9340 C   0  0  0  0  0  1  0  0  0  0  0  0
  158.9000  211.1140  152.5950 C   0  0  0  0  0  2  0  0  0  0  0  0
  159.2390  211.3490  154.0600 C   0  0  2  0  0  0  0  0  0  0  0  0
  160.6660  210.8370  154.1860 C   0  0  0  0  0  2  0  0  0  0  0  0
  161.3260  211.0960  152.8490 C   0  0  2  0  0  3  0  0  0  0  0  0
  160.2070  211.1870  151.8240 C   0  0  2  0  0  3  0  0  0  0  0  0
  157.0580  213.5360  156.1720 C   0  0  2  0  0  3  0  0  0  0  0  0
  158.0490  214.1030  152.7130 N   0  0  0  0  0  1  0  0  0  0  0  0
  158.3440  212.9420  156.7560 C   0  0  0  0  0  2  0  0  0  0  0  0
  159.5250  213.0830  155.7890 C   0  0  0  0  0  2  0  0  0  0  0  0
  159.1630  212.7970  154.3840 N   0  0  2  0  0  0  0  0  0  0  0  0
  157.3370  214.3140  154.9700 N   0  0  0  0  0  2  0  0  0  0  0  0
  157.8720  213.3950  153.9670 C   0  0  1  0  0  3  0  0  0  0  0  0
  156.3700  214.4160  157.1990 C   0  0  0  0  0  2  0  0  0  0  0  0
  154.9560  214.0940  157.2580 N   0  0  0  0  0  1  0  0  0  0  0  0
  161.0770  211.5460  149.0660 N   0  0  0  0  0  0  0  0  0  0  0  0
  161.3740  211.9430  147.7640 N   0  0  0  0  0  2  0  0  0  0  0  0
  160.6970  212.5600  149.7600 C   0  0  0  0  0  0  0  0  0  0  0  0
  160.6890  213.8350  148.9990 C   0  0  0  0  0  2  0  0  0  0  0  0
  161.1390  213.3710  147.6090 C   0  0  1  0  0  3  0  0  0  0  0  0
  160.3000  212.4610  151.1290 N   0  0  0  0  0  2  0  0  0  0  0  0
  162.3960  214.0680  147.2030 C   0  0  0  0  0  0  0  0  0  0  0  0
  162.5930  214.4060  145.8720 O   0  0  0  0  0  0  0  0  0  0  0  0
  163.2690  214.3690  148.0610 O   0  0  0  0  0  1  0  0  0  0  0  0
  162.1800  210.0380  152.5290 O   0  0  0  0  0  0  0  0  0  0  0  0
  161.3870  208.8910  152.6320 C   0  0  0  0  0  2  0  0  0  0  0  0
  161.9900  207.7630  151.8150 C   0  0  0  0  0  2  0  0  0  0  0  0
  162.4020  208.2480  150.5720 O   0  0  0  0  0  0  0  0  0  0  0  0
  161.6310  206.4420  147.6180 C   0  0  1  0  0  3  0  0  0  0  0  0
  161.1520  206.3120  149.9780 C   0  0  0  0  0  2  0  0  0  0  0  0
  161.4670  207.7550  149.6620 C   0  0  2  0  0  3  0  0  0  0  0  0
  160.8110  205.6880  148.6470 C   0  0  0  0  0  2  0  0  0  0  0  0
  160.8450  206.7030  146.4960 O   0  0  0  0  0  1  0  0  0  0  0  0
  162.0560  207.7500  148.2640 C   0  0  0  0  0  2  0  0  0  0  0  0
  2  3  1  0  0  0  0
  3  4  1  0  0  0  0
  3 11  1  0  0  0  0
  3  1  1  1  0  0  0
  5 25  1  6  0  0  0
  5  4  1  0  0  0  0
  6 21  1  1  0  0  0
  6  2  1  0  0  0  0
  6  5  1  0  0  0  0
  7  9  1  0  0  0  0
  7 14  1  1  0  0  0
 10  9  1  0  0  0  0
 11 10  1  1  0  0  0
 12  7  1  0  0  0  0
 13  8  1  6  0  0  0
 13 11  1  0  0  0  0
 13 12  1  0  0  0  0
 14 15  1  0  0  0  0
 16 18  2  0  0  0  0
 17 16  1  0  0  0  0
 18 21  1  0  0  0  0
 19 18  1  0  0  0  0
 20 22  1  1  0  0  0
 20 17  1  0  0  0  0
 20 19  1  0  0  0  0
 22 24  1  0  0  0  0
 23 22  2  0  0  0  0
 25 26  1  0  0  0  0
 27 26  1  0  0  0  0
 28 27  1  0  0  0  0
 29 33  1  6  0  0  0
 29 34  1  0  0  0  0
 29 32  1  0  0  0  0
 31 30  1  0  0  0  0
 31 28  1  1  0  0  0
 32 30  1  0  0  0  0
 34 31  1  0  0  0  0
M  END
>  <MODEL>
7

>  <REMARK>
 VINA RESULT:      -4.5      3.137      5.896
  Name = 
  9 active torsions:
  status: ('A' for Active; 'I' for Inactive)
    1  A    between atoms: C_1  and  C_10
    2  A    between atoms: C_6  and  C_30
    3  A    between atoms: O_11  and  C_12
    4  A    between atoms: O_11  and  C_31
    5  A    between atoms: C_12  and  C_26
    6  A    between atoms: O_15  and  C_16
    7  A    between atoms: O_15  and  C_26
    8  A    between atoms: N_20  and  C_25
    9  A    between atoms: N_33  and  C_34
                            x       y       z     vdW  Elec       q    Type
                         _______ _______ _______ _____ _____    ______ ____

>  <TORSDO>
F 9

$$$$
=
 OpenBabel11052411073D

 34 37  0  0  1  0  0  0  0  0999 V2000
  162.7290  210.2460  153.4960 C   0  0  0  0  0  1  0  0  0  0  0  0
  162.3920  208.0180  152.4490 C   0  0  0  0  0  2  0  0  0  0  0  0
  161.8020  209.4090  152.6230 C   0  0  2  0  0  0  0  0  0  0  0  0
  161.7880  209.9750  151.2120 C   0  0  0  0  0  2  0  0  0  0  0  0
  161.5700  208.7950  150.2880 C   0  0  2  0  0  3  0  0  0  0  0  0
  162.0340  207.5610  151.0440 C   0  0  2  0  0  3  0  0  0  0  0  0
  159.7940  211.2600  155.1820 C   0  0  2  0  0  3  0  0  0  0  0  0
  160.1680  207.6500  154.8720 N   0  0  0  0  0  1  0  0  0  0  0  0
  159.7350  211.6800  153.7090 C   0  0  0  0  0  2  0  0  0  0  0  0
  159.5820  210.4710  152.7790 C   0  0  0  0  0  2  0  0  0  0  0  0
  160.4260  209.3230  153.1760 N   0  0  2  0  0  0  0  0  0  0  0  0
  159.4270  209.8580  155.3430 N   0  0  0  0  0  2  0  0  0  0  0  0
  160.4250  209.0580  154.6350 C   0  0  1  0  0  3  0  0  0  0  0  0
  158.8680  212.1270  156.0140 C   0  0  0  0  0  2  0  0  0  0  0  0
  159.3000  213.5110  155.9520 N   0  0  0  0  0  1  0  0  0  0  0  0
  162.3460  204.6720  151.2670 N   0  0  0  0  0  0  0  0  0  0  0  0
  162.2510  203.2950  151.4550 N   0  0  0  0  0  2  0  0  0  0  0  0
  161.1700  205.1960  151.2510 C   0  0  0  0  0  0  0  0  0  0  0  0
  160.0750  204.2080  151.4250 C   0  0  0  0  0  2  0  0  0  0  0  0
  160.8570  202.9000  151.5900 C   0  0  1  0  0  3  0  0  0  0  0  0
  160.9460  206.5990  151.1000 N   0  0  0  0  0  2  0  0  0  0  0  0
  160.4830  201.9250  150.5220 C   0  0  0  0  0  0  0  0  0  0  0  0
  160.9850  200.6320  150.5690 O   0  0  0  0  0  1  0  0  0  0  0  0
  159.7000  202.2590  149.5930 O   0  0  0  0  0  0  0  0  0  0  0  0
  162.3290  208.9550  149.1270 O   0  0  0  0  0  0  0  0  0  0  0  0
  161.6100  208.2870  148.1310 C   0  0  0  0  0  2  0  0  0  0  0  0
  162.3010  206.9840  147.7730 C   0  0  0  0  0  2  0  0  0  0  0  0
  161.4140  205.9180  147.9340 O   0  0  0  0  0  0  0  0  0  0  0  0
  160.8520  203.0840  145.8760 C   0  0  1  0  0  3  0  0  0  0  0  0
  161.7300  205.3190  145.6530 C   0  0  0  0  0  2  0  0  0  0  0  0
  161.8980  204.9120  147.0970 C   0  0  2  0  0  3  0  0  0  0  0  0
  161.5390  204.0230  144.9040 C   0  0  0  0  0  2  0  0  0  0  0  0
  161.4290  201.8170  145.7880 O   0  0  0  0  0  1  0  0  0  0  0  0
  161.0710  203.6530  147.2680 C   0  0  0  0  0  2  0  0  0  0  0  0
  2  3  1  0  0  0  0
  3 11  1  0  0  0  0
  3  1  1  1  0  0  0
  4  3  1  0  0  0  0
  5 25  1  6  0  0  0
  5  6  1  0  0  0  0
  5  4  1  0  0  0  0
  6 21  1  1  0  0  0
  6  2  1  0  0  0  0
  7 12  1  0  0  0  0
  7 14  1  1  0  0  0
  9  7  1  0  0  0  0
 10  9  1  0  0  0  0
 11 10  1  1  0  0  0
 11 13  1  0  0  0  0
 13  8  1  6  0  0  0
 13 12  1  0  0  0  0
 15 14  1  0  0  0  0
 16 17  1  0  0  0  0
 17 20  1  0  0  0  0
 18 16  2  0  0  0  0
 18 19  1  0  0  0  0
 19 20  1  0  0  0  0
 20 22  1  6  0  0  0
 21 18  1  0  0  0  0
 22 23  1  0  0  0  0
 24 22  2  0  0  0  0
 26 25  1  0  0  0  0
 27 28  1  0  0  0  0
 27 26  1  0  0  0  0
 29 33  1  1  0  0  0
 29 34  1  0  0  0  0
 30 31  1  0  0  0  0
 31 34  1  0  0  0  0
 31 28  1  1  0  0  0
 32 30  1  0  0  0  0
 32 29  1  0  0  0  0
M  END
>  <MODEL>
8

>  <REMARK>
 VINA RESULT:      -4.4      1.365      1.583
  Name = 
  9 active torsions:
  status: ('A' for Active; 'I' for Inactive)
    1  A    between atoms: C_1  and  C_10
    2  A    between atoms: C_6  and  C_30
    3  A    between atoms: O_11  and  C_12
    4  A    between atoms: O_11  and  C_31
    5  A    between atoms: C_12  and  C_26
    6  A    between atoms: O_15  and  C_16
    7  A    between atoms: O_15  and  C_26
    8  A    between atoms: N_20  and  C_25
    9  A    between atoms: N_33  and  C_34
                            x       y       z     vdW  Elec       q    Type
                         _______ _______ _______ _____ _____    ______ ____

>  <TORSDO>
F 9

$$$$
=
 OpenBabel11052411073D

 34 37  0  0  1  0  0  0  0  0999 V2000
  163.6670  206.9530  150.0320 C   0  0  0  0  0  1  0  0  0  0  0  0
  162.3900  208.4640  151.5380 C   0  0  0  0  0  2  0  0  0  0  0  0
  162.2770  207.3220  150.5380 C   0  0  2  0  0  0  0  0  0  0  0  0
  161.7170  206.1740  151.3630 C   0  0  0  0  0  2  0  0  0  0  0  0
  160.8310  206.8060  152.4160 C   0  0  2  0  0  3  0  0  0  0  0  0
  161.3150  208.2370  152.5880 C   0  0  2  0  0  3  0  0  0  0  0  0
  161.8230  206.3530  146.9520 C   0  0  2  0  0  3  0  0  0  0  0  0
  161.9310  209.7260  148.3200 N   0  0  0  0  0  1  0  0  0  0  0  0
  161.0540  205.6100  148.0510 C   0  0  0  0  0  2  0  0  0  0  0  0
  160.4410  206.5790  149.0690 C   0  0  0  0  0  2  0  0  0  0  0  0
  161.3500  207.6870  149.4360 N   0  0  2  0  0  0  0  0  0  0  0  0
  161.5580  207.7850  147.0010 N   0  0  0  0  0  2  0  0  0  0  0  0
  162.0640  208.2820  148.2800 C   0  0  1  0  0  3  0  0  0  0  0  0
  161.4430  205.8110  145.5870 C   0  0  0  0  0  2  0  0  0  0  0  0
  160.0840  206.2030  145.2610 N   0  0  0  0  0  1  0  0  0  0  0  0
  160.7850  210.6660  154.1080 N   0  0  0  0  0  0  0  0  0  0  0  0
  160.3890  211.8940  154.6330 N   0  0  0  0  0  2  0  0  0  0  0  0
  160.0260  210.3440  153.1200 C   0  0  0  0  0  0  0  0  0  0  0  0
  158.9660  211.3430  152.8320 C   0  0  0  0  0  2  0  0  0  0  0  0
  159.2590  212.4200  153.8820 C   0  0  1  0  0  3  0  0  0  0  0  0
  160.2030  209.1460  152.3610 N   0  0  0  0  0  2  0  0  0  0  0  0
  158.0800  212.6160  154.7770 C   0  0  0  0  0  0  0  0  0  0  0  0
  156.8030  212.3630  154.2940 O   0  0  0  0  0  0  0  0  0  0  0  0
  158.2350  212.9880  155.9710 O   0  0  0  0  0  1  0  0  0  0  0  0
  160.9590  206.1120  153.6220 O   0  0  0  0  0  0  0  0  0  0  0  0
  161.4910  204.8690  153.2670 C   0  0  0  0  0  2  0  0  0  0  0  0
  160.4560  204.0540  152.5130 C   0  0  0  0  0  2  0  0  0  0  0  0
  160.9020  202.7380  152.3720 O   0  0  0  0  0  0  0  0  0  0  0  0
  160.6570  200.9560  149.3140 C   0  0  1  0  0  3  0  0  0  0  0  0
  160.0820  203.1360  150.1740 C   0  0  0  0  0  2  0  0  0  0  0  0
  161.2140  202.6030  151.0190 C   0  0  2  0  0  3  0  0  0  0  0  0
  160.1250  202.3160  148.9070 C   0  0  0  0  0  2  0  0  0  0  0  0
  161.5820  200.5150  148.3690 O   0  0  0  0  0  1  0  0  0  0  0  0
  161.3400  201.1340  150.6600 C   0  0  0  0  0  2  0  0  0  0  0  0
  2  6  1  0  0  0  0
  3  1  1  6  0  0  0
  3  4  1  0  0  0  0
  3  2  1  0  0  0  0
  4  5  1  0  0  0  0
  5  6  1  0  0  0  0
  5 25  1  1  0  0  0
  6 21  1  6  0  0  0
  7 14  1  6  0  0  0
  7 12  1  0  0  0  0
  7  9  1  0  0  0  0
  9 10  1  0  0  0  0
 11 10  1  6  0  0  0
 11  3  1  0  0  0  0
 12 13  1  0  0  0  0
 13  8  1  6  0  0  0
 13 11  1  0  0  0  0
 15 14  1  0  0  0  0
 16 17  1  0  0  0  0
 18 16  2  0  0  0  0
 19 18  1  0  0  0  0
 19 20  1  0  0  0  0
 20 17  1  0  0  0  0
 20 22  1  1  0  0  0
 21 18  1  0  0  0  0
 22 24  1  0  0  0  0
 23 22  2  0  0  0  0
 26 25  1  0  0  0  0
 27 26  1  0  0  0  0
 28 27  1  0  0  0  0
 29 33  1  6  0  0  0
 29 34  1  0  0  0  0
 30 31  1  0  0  0  0
 31 28  1  1  0  0  0
 32 29  1  0  0  0  0
 32 30  1  0  0  0  0
 34 31  1  0  0  0  0
M  END
>  <MODEL>
9

>  <REMARK>
 VINA RESULT:      -4.3      2.985      7.435
  Name = 
  9 active torsions:
  status: ('A' for Active; 'I' for Inactive)
    1  A    between atoms: C_1  and  C_10
    2  A    between atoms: C_6  and  C_30
    3  A    between atoms: O_11  and  C_12
    4  A    between atoms: O_11  and  C_31
    5  A    between atoms: C_12  and  C_26
    6  A    between atoms: O_15  and  C_16
    7  A    between atoms: O_15  and  C_26
    8  A    between atoms: N_20  and  C_25
    9  A    between atoms: N_33  and  C_34
                            x       y       z     vdW  Elec       q    Type
                         _______ _______ _______ _____ _____    ______ ____

>  <TORSDO>
F 9

$$$$
