=
 OpenBabel11052411493D

 40 47  0  0  1  0  0  0  0  0999 V2000
  161.4090  206.9480  147.6690 C   0  0  0  0  0  2  0  0  0  0  0  0
  161.3590  207.8930  148.5930 C   0  0  2  0  0  3  0  0  0  0  0  0
  160.9110  206.7890  152.8040 C   0  0  2  0  0  3  0  0  0  0  0  0
  161.1410  203.2290  151.8740 N   0  0  0  0  0  0  0  0  0  0  0  0
  161.1890  204.2020  152.8060 C   0  0  0  0  0  2  0  0  0  0  0  0
  161.0730  205.4240  152.1640 C   0  0  0  0  0  0  0  0  0  0  0  0
  162.2830  209.0540  148.7920 C   0  0  2  0  0  3  0  0  0  0  0  0
  161.6880  207.8280  152.1250 N   0  0  0  0  0  0  0  0  0  0  0  0
  160.8220  205.6960  148.2670 C   0  0  0  0  0  2  0  0  0  0  0  0
  160.7510  206.0550  149.7240 C   0  0  2  0  0  3  0  0  0  0  0  0
  160.9570  207.3510  149.8340 C   0  0  1  0  0  3  0  0  0  0  0  0
  161.6350  208.1100  150.8580 C   0  0  0  0  0  0  0  0  0  0  0  0
  162.4120  209.1470  150.2560 N   0  0  0  0  0  2  0  0  0  0  0  0
  160.9770  203.7730  150.6770 N   0  0  0  0  0  0  0  0  0  0  0  0
  160.9180  205.1060  150.8300 C   0  0  0  0  0  0  0  0  0  0  0  0
  161.0440  208.0430  155.0020 C   0  0  1  0  0  0  0  0  0  0  0  0
  160.1790  206.9350  155.1020 O   0  0  0  0  0  0  0  0  0  0  0  0
  161.3200  206.7710  154.2800 C   0  0  1  0  0  3  0  0  0  0  0  0
  159.9560  210.1750  153.7970 C   0  0  0  0  0  3  0  0  0  0  0  0
  160.4390  209.2110  154.3400 C   0  0  0  0  0  0  0  0  0  0  0  0
  161.8740  208.2710  156.1860 N   0  0  0  0  0  2  0  0  0  0  0  0
  161.2360  209.2230  157.0970 C   0  0  0  0  0  2  0  0  0  0  0  0
  161.4280  211.6050  157.1830 O   0  0  0  0  0  0  0  0  0  0  0  0
  162.0220  210.4930  157.1730 C   0  0  0  0  0  0  0  0  0  0  0  0
  163.4100  210.4470  157.2420 O   0  0  0  0  0  1  0  0  0  0  0  0
  161.6680  210.3280  148.2390 C   0  0  0  0  0  2  0  0  0  0  0  0
  162.1830  211.5240  149.0210 C   0  0  0  0  0  2  0  0  0  0  0  0
  161.7480  212.8210  148.3640 C   0  0  1  0  0  3  0  0  0  0  0  0
  162.8660  213.5510  147.9620 O   0  0  0  0  0  1  0  0  0  0  0  0
  160.8930  212.4920  147.1560 C   0  0  0  0  0  2  0  0  0  0  0  0
  158.2660  213.1830  145.3460 C   0  0  2  0  0  3  0  0  0  0  0  0
  160.3070  214.4040  145.5050 C   0  0  2  0  0  3  0  0  0  0  0  0
  158.9290  214.3050  146.1120 C   0  0  0  0  0  2  0  0  0  0  0  0
  157.3240  212.4310  146.2570 C   0  0  0  0  0  1  0  0  0  0  0  0
  160.4290  213.1100  144.7310 C   0  0  1  0  0  0  0  0  0  0  0  0
  161.3220  213.3250  145.9470 C   0  0  2  0  0  3  0  0  0  0  0  0
  159.2680  212.3170  144.8840 O   0  0  0  0  0  0  0  0  0  0  0  0
  161.0130  213.3270  143.3370 C   0  0  0  0  0  3  0  0  0  0  0  0
  161.2490  212.0060  142.6220 C   0  0  0  0  0  2  0  0  0  0  0  0
  162.4090  212.7360  143.2630 C   0  0  0  0  0  2  0  0  0  0  0  0
  1  9  1  0  0  0  0
  2  1  1  6  0  0  0
  2  7  1  0  0  0  0
  2 11  1  0  0  0  0
  3  8  1  6  0  0  0
  3 18  1  0  0  0  0
  4  5  1  0  0  0  0
  6  3  1  0  0  0  0
  6  5  1  0  0  0  0
  7 26  1  1  0  0  0
  7 13  1  0  0  0  0
 10  9  1  6  0  0  0
 10 11  1  0  0  0  0
 10 15  1  0  0  0  0
 11 12  1  1  0  0  0
 12  8  2  0  0  0  0
 13 12  1  0  0  0  0
 14 15  1  0  0  0  0
 14  4  2  0  0  0  0
 15  6  2  0  0  0  0
 16 20  1  6  0  0  0
 16 17  1  0  0  0  0
 16 21  1  0  0  0  0
 18 16  1  0  0  0  0
 18 17  1  1  0  0  0
 19 20  3  0  0  0  0
 21 22  1  0  0  0  0
 22 24  1  0  0  0  0
 24 23  2  0  0  0  0
 24 25  1  0  0  0  0
 26 27  1  0  0  0  0
 28 29  1  6  0  0  0
 28 27  1  0  0  0  0
 30 28  1  0  0  0  0
 31 33  1  0  0  0  0
 31 34  1  1  0  0  0
 32 36  1  0  0  0  0
 32 33  1  1  0  0  0
 35 38  1  6  0  0  0
 35 37  1  0  0  0  0
 35 32  1  0  0  0  0
 35 36  1  0  0  0  0
 36 30  1  1  0  0  0
 37 31  1  0  0  0  0
 39 40  1  0  0  0  0
 39 38  1  0  0  0  0
 40 38  1  0  0  0  0
M  END
>  <MODEL>
1

>  <REMARK>
 VINA RESULT:      -8.1      0.000      0.000
  Name = 
  11 active torsions:
  status: ('A' for Active; 'I' for Inactive)
    1  A    between atoms: C_2  and  C_20
    2  A    between atoms: C_5  and  C_27
    3  A    between atoms: C_11  and  N_36
    4  A    between atoms: C_11  and  C_40
    5  A    between atoms: C_16  and  C_39
    6  A    between atoms: C_17  and  C_22
    7  A    between atoms: C_17  and  N_36
    8  A    between atoms: C_21  and  C_25
    9  A    between atoms: C_21  and  C_29
   10  A    between atoms: C_25  and  C_31
   11  A    between atoms: C_31  and  C_39
                            x       y       z     vdW  Elec       q    Type
                         _______ _______ _______ _____ _____    ______ ____

>  <TORSDO>
F 11

$$$$
=
 OpenBabel11052411493D

 40 47  0  0  1  0  0  0  0  0999 V2000
  161.6930  207.5140  152.6490 C   0  0  0  0  0  2  0  0  0  0  0  0
  161.8450  207.6400  151.3410 C   0  0  2  0  0  3  0  0  0  0  0  0
  161.3950  204.1370  148.7570 C   0  0  2  0  0  3  0  0  0  0  0  0
  160.4170  202.1260  151.6880 N   0  0  0  0  0  0  0  0  0  0  0  0
  160.4810  202.2950  150.3510 C   0  0  0  0  0  3  0  0  0  0  0  0
  160.9900  203.5590  150.0990 C   0  0  0  0  0  0  0  0  0  0  0  0
  161.2230  208.6440  150.4210 C   0  0  2  0  0  3  0  0  0  0  0  0
  161.0080  205.5410  148.6060 N   0  0  0  0  0  0  0  0  0  0  0  0
  161.8560  206.0550  152.9870 C   0  0  0  0  0  2  0  0  0  0  0  0
  161.8060  205.4160  151.6280 C   0  0  2  0  0  3  0  0  0  0  0  0
  161.9170  206.3700  150.7260 C   0  0  1  0  0  3  0  0  0  0  0  0
  161.3110  206.5050  149.4230 C   0  0  0  0  0  0  0  0  0  0  0  0
  160.9140  207.8600  149.2130 N   0  0  0  0  0  2  0  0  0  0  0  0
  160.8820  203.2100  152.2920 N   0  0  0  0  0  2  0  0  0  0  0  0
  161.2500  204.0890  151.3460 C   0  0  0  0  0  0  0  0  0  0  0  0
  161.6130  203.3540  146.3560 C   0  0  1  0  0  0  0  0  0  0  0  0
  161.6360  202.2630  147.2490 O   0  0  0  0  0  0  0  0  0  0  0  0
  160.7880  203.3440  147.5960 C   0  0  1  0  0  3  0  0  0  0  0  0
  163.9390  204.6760  146.2030 C   0  0  0  0  0  3  0  0  0  0  0  0
  162.8940  204.0740  146.2670 C   0  0  0  0  0  0  0  0  0  0  0  0
  160.8700  203.1070  145.1200 N   0  0  0  0  0  2  0  0  0  0  0  0
  159.9260  204.1940  144.8510 C   0  0  0  0  0  2  0  0  0  0  0  0
  161.4270  205.5890  143.6210 O   0  0  0  0  0  0  0  0  0  0  0  0
  160.6500  205.4780  144.6070 C   0  0  0  0  0  0  0  0  0  0  0  0
  160.4600  206.5560  145.4650 O   0  0  0  0  0  1  0  0  0  0  0  0
  162.2100  209.7500  150.0890 C   0  0  0  0  0  2  0  0  0  0  0  0
  162.0220  210.1830  148.6450 C   0  0  0  0  0  2  0  0  0  0  0  0
  162.0350  211.6970  148.5350 C   0  0  1  0  0  3  0  0  0  0  0  0
  163.3120  212.1400  148.1940 O   0  0  0  0  0  1  0  0  0  0  0  0
  161.0460  212.1170  147.4650 C   0  0  0  0  0  2  0  0  0  0  0  0
  158.7290  213.3050  145.4980 C   0  0  2  0  0  3  0  0  0  0  0  0
  160.7400  214.3660  146.2120 C   0  0  2  0  0  3  0  0  0  0  0  0
  159.2850  214.2020  146.5790 C   0  0  0  0  0  2  0  0  0  0  0  0
  157.6510  212.4180  146.0760 C   0  0  0  0  0  1  0  0  0  0  0  0
  160.9580  213.2670  145.1960 C   0  0  1  0  0  0  0  0  0  0  0  0
  161.6620  213.1720  146.5440 C   0  0  2  0  0  3  0  0  0  0  0  0
  159.7760  212.5140  145.0020 O   0  0  0  0  0  0  0  0  0  0  0  0
  161.7460  213.7540  143.9830 C   0  0  0  0  0  3  0  0  0  0  0  0
  162.2970  212.5900  143.1750 C   0  0  0  0  0  2  0  0  0  0  0  0
  163.2040  213.3510  144.1170 C   0  0  0  0  0  2  0  0  0  0  0  0
  1  9  1  0  0  0  0
  2  1  1  1  0  0  0
  3  8  1  1  0  0  0
  3  6  1  0  0  0  0
  4 14  1  0  0  0  0
  5  4  2  0  0  0  0
  6  5  1  0  0  0  0
  6 15  2  0  0  0  0
  7 26  1  6  0  0  0
  7  2  1  0  0  0  0
  8 12  2  0  0  0  0
 10  9  1  1  0  0  0
 11 12  1  6  0  0  0
 11  2  1  0  0  0  0
 11 10  1  0  0  0  0
 13 12  1  0  0  0  0
 13  7  1  0  0  0  0
 15 10  1  0  0  0  0
 15 14  1  0  0  0  0
 16 20  1  6  0  0  0
 16 17  1  0  0  0  0
 16 18  1  0  0  0  0
 18 17  1  1  0  0  0
 18  3  1  0  0  0  0
 19 20  3  0  0  0  0
 21 16  1  0  0  0  0
 22 21  1  0  0  0  0
 23 24  2  0  0  0  0
 24 22  1  0  0  0  0
 24 25  1  0  0  0  0
 27 26  1  0  0  0  0
 28 29  1  6  0  0  0
 28 27  1  0  0  0  0
 30 28  1  0  0  0  0
 31 34  1  1  0  0  0
 31 33  1  0  0  0  0
 32 36  1  0  0  0  0
 32 33  1  1  0  0  0
 35 38  1  6  0  0  0
 35 32  1  0  0  0  0
 35 36  1  0  0  0  0
 36 30  1  1  0  0  0
 37 35  1  0  0  0  0
 37 31  1  0  0  0  0
 38 40  1  0  0  0  0
 39 38  1  0  0  0  0
 39 40  1  0  0  0  0
M  END
>  <MODEL>
2

>  <REMARK>
 VINA RESULT:      -7.6      3.241      6.117
  Name = 
  11 active torsions:
  status: ('A' for Active; 'I' for Inactive)
    1  A    between atoms: C_2  and  C_20
    2  A    between atoms: C_5  and  C_27
    3  A    between atoms: C_11  and  N_36
    4  A    between atoms: C_11  and  C_40
    5  A    between atoms: C_16  and  C_39
    6  A    between atoms: C_17  and  C_22
    7  A    between atoms: C_17  and  N_36
    8  A    between atoms: C_21  and  C_25
    9  A    between atoms: C_21  and  C_29
   10  A    between atoms: C_25  and  C_31
   11  A    between atoms: C_31  and  C_39
                            x       y       z     vdW  Elec       q    Type
                         _______ _______ _______ _____ _____    ______ ____

>  <TORSDO>
F 11

$$$$
=
 OpenBabel11052411493D

 40 47  0  0  1  0  0  0  0  0999 V2000
  161.5910  206.3480  154.1180 C   0  0  0  0  0  2  0  0  0  0  0  0
  161.2220  207.0620  153.0670 C   0  0  2  0  0  3  0  0  0  0  0  0
  159.5620  211.0700  153.6400 C   0  0  2  0  0  3  0  0  0  0  0  0
  160.2150  210.8020  157.2580 N   0  0  0  0  0  0  0  0  0  0  0  0
  159.9350  211.5480  156.1690 C   0  0  0  0  0  3  0  0  0  0  0  0
  159.9680  210.7210  155.0580 C   0  0  0  0  0  0  0  0  0  0  0  0
  161.9920  207.3450  151.8140 C   0  0  2  0  0  3  0  0  0  0  0  0
  160.4640  210.5000  152.6360 N   0  0  0  0  0  0  0  0  0  0  0  0
  160.9040  206.9300  155.3260 C   0  0  0  0  0  2  0  0  0  0  0  0
  160.3770  208.2290  154.7850 C   0  0  2  0  0  3  0  0  0  0  0  0
  160.4850  208.1960  153.4730 C   0  0  1  0  0  3  0  0  0  0  0  0
  160.7870  209.2460  152.5290 C   0  0  0  0  0  0  0  0  0  0  0  0
  161.6640  208.7500  151.5180 N   0  0  0  0  0  2  0  0  0  0  0  0
  160.4000  209.5420  156.8920 N   0  0  0  0  0  2  0  0  0  0  0  0
  160.2410  209.4660  155.5610 C   0  0  0  0  0  0  0  0  0  0  0  0
  158.1660  213.1850  153.6990 C   0  0  1  0  0  0  0  0  0  0  0  0
  159.2060  213.2370  154.6490 O   0  0  0  0  0  0  0  0  0  0  0  0
  159.5020  212.5850  153.4270 C   0  0  1  0  0  3  0  0  0  0  0  0
  156.0560  211.7290  154.4760 C   0  0  0  0  0  3  0  0  0  0  0  0
  157.0120  212.3780  154.1260 C   0  0  0  0  0  0  0  0  0  0  0  0
  157.9100  214.4530  153.0140 N   0  0  0  0  0  2  0  0  0  0  0  0
  156.6850  214.3790  152.2170 C   0  0  0  0  0  2  0  0  0  0  0  0
  158.2010  214.1980  150.3770 O   0  0  0  0  0  1  0  0  0  0  0  0
  157.0050  214.1640  150.7720 C   0  0  0  0  0  0  0  0  0  0  0  0
  155.9810  213.9170  149.8640 O   0  0  0  0  0  0  0  0  0  0  0  0
  161.5200  206.4480  150.6830 C   0  0  0  0  0  2  0  0  0  0  0  0
  160.6460  207.2470  149.7300 C   0  0  0  0  0  2  0  0  0  0  0  0
  161.3020  207.3540  148.3660 C   0  0  1  0  0  3  0  0  0  0  0  0
  162.6900  207.3570  148.5030 O   0  0  0  0  0  1  0  0  0  0  0  0
  160.8750  206.1670  147.5250 C   0  0  0  0  0  2  0  0  0  0  0  0
  161.7680  204.3820  144.9430 C   0  0  2  0  0  3  0  0  0  0  0  0
  162.7230  204.3920  147.1250 C   0  0  2  0  0  3  0  0  0  0  0  0
  162.8460  205.0420  145.7690 C   0  0  0  0  0  2  0  0  0  0  0  0
  161.2110  205.3730  143.9460 C   0  0  0  0  0  1  0  0  0  0  0  0
  161.3720  203.7160  147.0540 C   0  0  1  0  0  0  0  0  0  0  0  0
  161.5580  204.8870  148.0110 C   0  0  2  0  0  3  0  0  0  0  0  0
  160.7480  203.9600  145.8090 O   0  0  0  0  0  0  0  0  0  0  0  0
  161.4120  202.2940  147.6100 C   0  0  0  0  0  3  0  0  0  0  0  0
  160.0380  201.8440  148.0800 C   0  0  0  0  0  2  0  0  0  0  0  0
  161.0670  202.3060  149.0880 C   0  0  0  0  0  2  0  0  0  0  0  0
  1  9  1  0  0  0  0
  2 11  1  0  0  0  0
  2  1  1  1  0  0  0
  3  8  1  6  0  0  0
  3  6  1  0  0  0  0
  5  4  2  0  0  0  0
  6 15  2  0  0  0  0
  6  5  1  0  0  0  0
  7 26  1  6  0  0  0
  7  2  1  0  0  0  0
 10  9  1  1  0  0  0
 10 15  1  0  0  0  0
 11 12  1  1  0  0  0
 11 10  1  0  0  0  0
 12  8  2  0  0  0  0
 13  7  1  0  0  0  0
 13 12  1  0  0  0  0
 14  4  1  0  0  0  0
 15 14  1  0  0  0  0
 16 20  1  1  0  0  0
 16 17  1  0  0  0  0
 18  3  1  0  0  0  0
 18 16  1  0  0  0  0
 18 17  1  1  0  0  0
 20 19  3  0  0  0  0
 21 16  1  0  0  0  0
 22 21  1  0  0  0  0
 23 24  1  0  0  0  0
 24 22  1  0  0  0  0
 25 24  2  0  0  0  0
 27 26  1  0  0  0  0
 28 29  1  1  0  0  0
 28 27  1  0  0  0  0
 30 28  1  0  0  0  0
 31 34  1  6  0  0  0
 31 33  1  0  0  0  0
 31 37  1  0  0  0  0
 32 33  1  6  0  0  0
 32 36  1  0  0  0  0
 35 32  1  0  0  0  0
 35 38  1  1  0  0  0
 35 36  1  0  0  0  0
 36 30  1  6  0  0  0
 37 35  1  0  0  0  0
 38 39  1  0  0  0  0
 38 40  1  0  0  0  0
 39 40  1  0  0  0  0
M  END
>  <MODEL>
3

>  <REMARK>
 VINA RESULT:      -7.3      4.200      7.503
  Name = 
  11 active torsions:
  status: ('A' for Active; 'I' for Inactive)
    1  A    between atoms: C_2  and  C_20
    2  A    between atoms: C_5  and  C_27
    3  A    between atoms: C_11  and  N_36
    4  A    between atoms: C_11  and  C_40
    5  A    between atoms: C_16  and  C_39
    6  A    between atoms: C_17  and  C_22
    7  A    between atoms: C_17  and  N_36
    8  A    between atoms: C_21  and  C_25
    9  A    between atoms: C_21  and  C_29
   10  A    between atoms: C_25  and  C_31
   11  A    between atoms: C_31  and  C_39
                            x       y       z     vdW  Elec       q    Type
                         _______ _______ _______ _____ _____    ______ ____

>  <TORSDO>
F 11

$$$$
=
 OpenBabel11052411493D

 40 47  0  0  1  0  0  0  0  0999 V2000
  161.8270  205.6920  152.0820 C   0  0  0  0  0  2  0  0  0  0  0  0
  161.3510  206.7530  151.4520 C   0  0  2  0  0  3  0  0  0  0  0  0
  160.2950  210.3380  153.7300 C   0  0  2  0  0  3  0  0  0  0  0  0
  161.5820  208.7430  156.7950 N   0  0  0  0  0  0  0  0  0  0  0  0
  161.1890  209.8450  156.1230 C   0  0  0  0  0  2  0  0  0  0  0  0
  160.9180  209.4800  154.8140 C   0  0  0  0  0  0  0  0  0  0  0  0
  161.8980  207.4440  150.2420 C   0  0  2  0  0  3  0  0  0  0  0  0
  160.9210  210.1390  152.4220 N   0  0  0  0  0  0  0  0  0  0  0  0
  161.4500  205.8200  153.5350 C   0  0  0  0  0  2  0  0  0  0  0  0
  160.9820  207.2450  153.6080 C   0  0  2  0  0  3  0  0  0  0  0  0
  160.8370  207.6890  152.3770 C   0  0  1  0  0  3  0  0  0  0  0  0
  161.0730  208.9990  151.8170 C   0  0  0  0  0  0  0  0  0  0  0  0
  161.6830  208.8720  150.5320 N   0  0  0  0  0  2  0  0  0  0  0  0
  161.5500  207.6970  155.9830 N   0  0  0  0  0  0  0  0  0  0  0  0
  161.1360  208.1180  154.7770 C   0  0  0  0  0  0  0  0  0  0  0  0
  159.0700  212.4170  154.5030 C   0  0  1  0  0  0  0  0  0  0  0  0
  160.0450  212.0250  155.4420 O   0  0  0  0  0  0  0  0  0  0  0  0
  160.3690  211.8270  154.0770 C   0  0  1  0  0  3  0  0  0  0  0  0
  156.8040  210.9930  154.6310 C   0  0  0  0  0  3  0  0  0  0  0  0
  157.8290  211.6280  154.5710 C   0  0  0  0  0  0  0  0  0  0  0  0
  158.9610  213.8650  154.3140 N   0  0  0  0  0  2  0  0  0  0  0  0
  157.7500  214.2050  153.5640 C   0  0  0  0  0  2  0  0  0  0  0  0
  157.1060  214.3040  151.2640 O   0  0  0  0  0  0  0  0  0  0  0  0
  158.0470  214.3200  152.1030 C   0  0  0  0  0  0  0  0  0  0  0  0
  159.3610  214.4530  151.6690 O   0  0  0  0  0  1  0  0  0  0  0  0
  161.1230  207.0400  148.9990 C   0  0  0  0  0  2  0  0  0  0  0  0
  161.4740  205.6100  148.6240 C   0  0  0  0  0  2  0  0  0  0  0  0
  161.2510  205.3770  147.1410 C   0  0  1  0  0  3  0  0  0  0  0  0
  162.0940  206.2010  146.3960 O   0  0  0  0  0  1  0  0  0  0  0  0
  161.5490  203.9240  146.8260 C   0  0  0  0  0  2  0  0  0  0  0  0
  160.0720  201.0660  146.2800 C   0  0  2  0  0  3  0  0  0  0  0  0
  161.7540  201.5680  147.8910 C   0  0  2  0  0  3  0  0  0  0  0  0
  161.5690  201.0760  146.4770 C   0  0  0  0  0  2  0  0  0  0  0  0
  159.7430  201.4020  144.8440 C   0  0  0  0  0  1  0  0  0  0  0  0
  160.3960  202.1410  148.2290 C   0  0  1  0  0  0  0  0  0  0  0  0
  161.5830  203.0890  148.1070 C   0  0  2  0  0  3  0  0  0  0  0  0
  159.5110  202.0300  147.1310 O   0  0  0  0  0  0  0  0  0  0  0  0
  159.9250  201.7210  149.6190 C   0  0  0  0  0  3  0  0  0  0  0  0
  160.3800  202.7090  150.6820 C   0  0  0  0  0  2  0  0  0  0  0  0
  161.1220  201.4040  150.4980 C   0  0  0  0  0  2  0  0  0  0  0  0
  1  9  1  0  0  0  0
  2  1  1  1  0  0  0
  2 11  1  0  0  0  0
  3  8  1  6  0  0  0
  3 18  1  0  0  0  0
  3  6  1  0  0  0  0
  5  4  1  0  0  0  0
  6  5  1  0  0  0  0
  7 26  1  6  0  0  0
  7 13  1  0  0  0  0
  7  2  1  0  0  0  0
 10  9  1  6  0  0  0
 10 15  1  0  0  0  0
 11 12  1  1  0  0  0
 11 10  1  0  0  0  0
 12  8  2  0  0  0  0
 13 12  1  0  0  0  0
 14  4  2  0  0  0  0
 15  6  2  0  0  0  0
 15 14  1  0  0  0  0
 16 20  1  6  0  0  0
 16 17  1  0  0  0  0
 18 16  1  0  0  0  0
 18 17  1  1  0  0  0
 20 19  3  0  0  0  0
 21 16  1  0  0  0  0
 22 21  1  0  0  0  0
 23 24  2  0  0  0  0
 24 22  1  0  0  0  0
 25 24  1  0  0  0  0
 27 26  1  0  0  0  0
 28 29  1  6  0  0  0
 28 27  1  0  0  0  0
 30 28  1  0  0  0  0
 31 34  1  6  0  0  0
 31 33  1  0  0  0  0
 31 37  1  0  0  0  0
 32 33  1  6  0  0  0
 32 36  1  0  0  0  0
 32 35  1  0  0  0  0
 35 38  1  1  0  0  0
 36 30  1  6  0  0  0
 36 35  1  0  0  0  0
 37 35  1  0  0  0  0
 38 40  1  0  0  0  0
 38 39  1  0  0  0  0
 40 39  1  0  0  0  0
M  END
>  <MODEL>
4

>  <REMARK>
 VINA RESULT:      -7.2      4.408      7.755
  Name = 
  11 active torsions:
  status: ('A' for Active; 'I' for Inactive)
    1  A    between atoms: C_2  and  C_20
    2  A    between atoms: C_5  and  C_27
    3  A    between atoms: C_11  and  N_36
    4  A    between atoms: C_11  and  C_40
    5  A    between atoms: C_16  and  C_39
    6  A    between atoms: C_17  and  C_22
    7  A    between atoms: C_17  and  N_36
    8  A    between atoms: C_21  and  C_25
    9  A    between atoms: C_21  and  C_29
   10  A    between atoms: C_25  and  C_31
   11  A    between atoms: C_31  and  C_39
                            x       y       z     vdW  Elec       q    Type
                         _______ _______ _______ _____ _____    ______ ____

>  <TORSDO>
F 11

$$$$
=
 OpenBabel11052411493D

 40 47  0  0  1  0  0  0  0  0999 V2000
  161.6340  206.6550  147.4110 C   0  0  0  0  0  2  0  0  0  0  0  0
  161.5510  207.6140  148.3170 C   0  0  2  0  0  3  0  0  0  0  0  0
  160.9040  206.5810  152.5210 C   0  0  2  0  0  3  0  0  0  0  0  0
  161.1420  203.0050  151.6560 N   0  0  0  0  0  0  0  0  0  0  0  0
  161.1570  203.9920  152.5750 C   0  0  0  0  0  2  0  0  0  0  0  0
  161.0820  205.2050  151.9090 C   0  0  0  0  0  0  0  0  0  0  0  0
  162.4760  208.7710  148.5400 C   0  0  2  0  0  3  0  0  0  0  0  0
  161.7210  207.6020  151.8610 N   0  0  0  0  0  0  0  0  0  0  0  0
  161.0090  205.4180  148.0020 C   0  0  0  0  0  2  0  0  0  0  0  0
  160.8750  205.8000  149.4480 C   0  0  2  0  0  3  0  0  0  0  0  0
  161.0890  207.0960  149.5480 C   0  0  1  0  0  3  0  0  0  0  0  0
  161.7270  207.8650  150.5890 C   0  0  0  0  0  0  0  0  0  0  0  0
  162.5390  208.8860  150.0070 N   0  0  0  0  0  2  0  0  0  0  0  0
  161.0370  203.5320  150.4450 N   0  0  0  0  0  0  0  0  0  0  0  0
  160.9840  204.8680  150.5750 C   0  0  0  0  0  0  0  0  0  0  0  0
  160.9990  207.8860  154.6910 C   0  0  1  0  0  0  0  0  0  0  0  0
  160.0780  206.8220  154.7790 O   0  0  0  0  0  0  0  0  0  0  0  0
  161.2460  206.5830  154.0130 C   0  0  1  0  0  3  0  0  0  0  0  0
  160.0470  210.0310  153.3990 C   0  0  0  0  0  3  0  0  0  0  0  0
  160.4800  209.0620  153.9750 C   0  0  0  0  0  0  0  0  0  0  0  0
  161.7860  208.1050  155.9060 N   0  0  0  0  0  2  0  0  0  0  0  0
  161.1400  209.0880  156.7780 C   0  0  0  0  0  2  0  0  0  0  0  0
  161.1880  211.4670  157.0140 O   0  0  0  0  0  1  0  0  0  0  0  0
  161.7970  210.4250  156.6490 C   0  0  0  0  0  0  0  0  0  0  0  0
  163.0860  210.5180  156.1350 O   0  0  0  0  0  0  0  0  0  0  0  0
  161.8980  210.0410  147.9400 C   0  0  0  0  0  2  0  0  0  0  0  0
  161.9080  211.1470  148.9820 C   0  0  0  0  0  2  0  0  0  0  0  0
  161.2850  212.4130  148.4240 C   0  0  1  0  0  3  0  0  0  0  0  0
  162.0850  213.5130  148.7300 O   0  0  0  0  0  1  0  0  0  0  0  0
  161.1630  212.2740  146.9190 C   0  0  0  0  0  2  0  0  0  0  0  0
  161.0150  213.8650  144.0740 C   0  0  2  0  0  3  0  0  0  0  0  0
  159.4650  212.2860  144.9590 C   0  0  2  0  0  3  0  0  0  0  0  0
  160.6940  212.3890  144.0910 C   0  0  0  0  0  2  0  0  0  0  0  0
  162.5110  214.0620  143.9980 C   0  0  0  0  0  1  0  0  0  0  0  0
  159.4250  213.6320  145.6490 C   0  0  1  0  0  0  0  0  0  0  0  0
  159.7000  212.3870  146.4830 C   0  0  2  0  0  3  0  0  0  0  0  0
  160.5230  214.4340  145.2580 O   0  0  0  0  0  0  0  0  0  0  0  0
  158.0220  214.2320  145.6570 C   0  0  0  0  0  3  0  0  0  0  0  0
  157.4100  214.1940  147.0490 C   0  0  0  0  0  2  0  0  0  0  0  0
  157.0040  213.1640  146.0180 C   0  0  0  0  0  2  0  0  0  0  0  0
  1  9  1  0  0  0  0
  2  1  1  1  0  0  0
  2  7  1  0  0  0  0
  2 11  1  0  0  0  0
  3  8  1  6  0  0  0
  3 18  1  0  0  0  0
  4  5  1  0  0  0  0
  6  3  1  0  0  0  0
  6  5  1  0  0  0  0
  7 26  1  6  0  0  0
  7 13  1  0  0  0  0
 10  9  1  6  0  0  0
 10 11  1  0  0  0  0
 10 15  1  0  0  0  0
 11 12  1  1  0  0  0
 12  8  2  0  0  0  0
 13 12  1  0  0  0  0
 14 15  1  0  0  0  0
 14  4  2  0  0  0  0
 15  6  2  0  0  0  0
 16 20  1  6  0  0  0
 16 17  1  0  0  0  0
 16 21  1  0  0  0  0
 18 16  1  0  0  0  0
 18 17  1  1  0  0  0
 19 20  3  0  0  0  0
 21 22  1  0  0  0  0
 24 22  1  0  0  0  0
 24 23  1  0  0  0  0
 25 24  2  0  0  0  0
 26 27  1  0  0  0  0
 28 29  1  6  0  0  0
 28 27  1  0  0  0  0
 30 28  1  0  0  0  0
 31 34  1  1  0  0  0
 31 33  1  0  0  0  0
 31 37  1  0  0  0  0
 32 33  1  6  0  0  0
 32 35  1  0  0  0  0
 32 36  1  0  0  0  0
 35 38  1  1  0  0  0
 35 36  1  0  0  0  0
 36 30  1  6  0  0  0
 37 35  1  0  0  0  0
 38 40  1  0  0  0  0
 38 39  1  0  0  0  0
 40 39  1  0  0  0  0
M  END
>  <MODEL>
5

>  <REMARK>
 VINA RESULT:      -7.0      0.819      2.068
  Name = 
  11 active torsions:
  status: ('A' for Active; 'I' for Inactive)
    1  A    between atoms: C_2  and  C_20
    2  A    between atoms: C_5  and  C_27
    3  A    between atoms: C_11  and  N_36
    4  A    between atoms: C_11  and  C_40
    5  A    between atoms: C_16  and  C_39
    6  A    between atoms: C_17  and  C_22
    7  A    between atoms: C_17  and  N_36
    8  A    between atoms: C_21  and  C_25
    9  A    between atoms: C_21  and  C_29
   10  A    between atoms: C_25  and  C_31
   11  A    between atoms: C_31  and  C_39
                            x       y       z     vdW  Elec       q    Type
                         _______ _______ _______ _____ _____    ______ ____

>  <TORSDO>
F 11

$$$$
=
 OpenBabel11052411493D

 40 47  0  0  1  0  0  0  0  0999 V2000
  161.1990  205.5260  153.1580 C   0  0  0  0  0  2  0  0  0  0  0  0
  161.5050  206.0920  152.0030 C   0  0  2  0  0  3  0  0  0  0  0  0
  161.2490  203.7600  148.3080 C   0  0  2  0  0  3  0  0  0  0  0  0
  159.8790  200.9210  150.2200 N   0  0  0  0  0  0  0  0  0  0  0  0
  160.1020  201.5440  149.0450 C   0  0  0  0  0  3  0  0  0  0  0  0
  160.6750  202.7780  149.3100 C   0  0  0  0  0  0  0  0  0  0  0  0
  161.0230  207.3960  151.4460 C   0  0  2  0  0  3  0  0  0  0  0  0
  160.9250  205.1510  148.6320 N   0  0  0  0  0  0  0  0  0  0  0  0
  161.2780  204.0330  152.9680 C   0  0  0  0  0  2  0  0  0  0  0  0
  161.3650  203.9180  151.4730 C   0  0  2  0  0  3  0  0  0  0  0  0
  161.6080  205.1180  150.9860 C   0  0  1  0  0  3  0  0  0  0  0  0
  161.1610  205.7430  149.7640 C   0  0  0  0  0  0  0  0  0  0  0  0
  160.8310  207.1100  150.0140 N   0  0  0  0  0  2  0  0  0  0  0  0
  160.3040  201.6890  151.2130 N   0  0  0  0  0  2  0  0  0  0  0  0
  160.8050  202.8160  150.6830 C   0  0  0  0  0  0  0  0  0  0  0  0
  161.7630  203.7490  145.8270 C   0  0  1  0  0  0  0  0  0  0  0  0
  161.5350  202.4420  146.3040 O   0  0  0  0  0  0  0  0  0  0  0  0
  160.7560  203.4700  146.8880 C   0  0  1  0  0  3  0  0  0  0  0  0
  164.2060  204.7030  146.3720 C   0  0  0  0  0  3  0  0  0  0  0  0
  163.1070  204.2660  146.1310 C   0  0  0  0  0  0  0  0  0  0  0  0
  161.2010  204.0140  144.5010 N   0  0  0  0  0  2  0  0  0  0  0  0
  161.2060  205.4490  144.2080 C   0  0  0  0  0  2  0  0  0  0  0  0
  159.1710  206.1330  145.2610 O   0  0  0  0  0  0  0  0  0  0  0  0
  160.4300  206.2030  145.2400 C   0  0  0  0  0  0  0  0  0  0  0  0
  161.0970  206.9770  146.1830 O   0  0  0  0  0  1  0  0  0  0  0  0
  162.0750  208.4770  151.6280 C   0  0  0  0  0  2  0  0  0  0  0  0
  161.5100  209.8170  151.1880 C   0  0  0  0  0  2  0  0  0  0  0  0
  161.0850  210.6380  152.3910 C   0  0  1  0  0  3  0  0  0  0  0  0
  159.7000  210.8030  152.3910 O   0  0  0  0  0  1  0  0  0  0  0  0
  161.5120  209.9130  153.6520 C   0  0  0  0  0  2  0  0  0  0  0  0
  162.1900  210.6060  156.7680 C   0  0  2  0  0  3  0  0  0  0  0  0
  160.0570  210.5270  155.7090 C   0  0  2  0  0  3  0  0  0  0  0  0
  161.1880  211.4700  156.0400 C   0  0  0  0  0  2  0  0  0  0  0  0
  163.5920  211.0780  156.4570 C   0  0  0  0  0  1  0  0  0  0  0  0
  160.6760  209.1660  155.9360 C   0  0  1  0  0  0  0  0  0  0  0  0
  160.2970  209.5720  154.5170 C   0  0  2  0  0  3  0  0  0  0  0  0
  162.0290  209.2830  156.3300 O   0  0  0  0  0  0  0  0  0  0  0  0
  159.7460  208.2350  156.7110 C   0  0  0  0  0  3  0  0  0  0  0  0
  160.4570  206.9530  157.1180 C   0  0  0  0  0  2  0  0  0  0  0  0
  159.5240  206.9540  155.9270 C   0  0  0  0  0  2  0  0  0  0  0  0
  2  1  1  1  0  0  0
  3  8  1  1  0  0  0
  3  6  1  0  0  0  0
  4 14  1  0  0  0  0
  5  6  1  0  0  0  0
  5  4  2  0  0  0  0
  6 15  2  0  0  0  0
  7 26  1  6  0  0  0
  7  2  1  0  0  0  0
  8 12  2  0  0  0  0
  9  1  1  0  0  0  0
 10  9  1  1  0  0  0
 11 12  1  6  0  0  0
 11 10  1  0  0  0  0
 11  2  1  0  0  0  0
 12 13  1  0  0  0  0
 13  7  1  0  0  0  0
 15 14  1  0  0  0  0
 15 10  1  0  0  0  0
 16 20  1  1  0  0  0
 16 17  1  0  0  0  0
 16 18  1  0  0  0  0
 18 17  1  1  0  0  0
 18  3  1  0  0  0  0
 20 19  3  0  0  0  0
 21 16  1  0  0  0  0
 22 21  1  0  0  0  0
 22 24  1  0  0  0  0
 24 23  2  0  0  0  0
 24 25  1  0  0  0  0
 27 26  1  0  0  0  0
 27 28  1  0  0  0  0
 28 29  1  1  0  0  0
 28 30  1  0  0  0  0
 31 34  1  6  0  0  0
 32 35  1  0  0  0  0
 32 33  1  6  0  0  0
 33 31  1  0  0  0  0
 35 37  1  0  0  0  0
 35 38  1  1  0  0  0
 36 30  1  6  0  0  0
 36 32  1  0  0  0  0
 36 35  1  0  0  0  0
 37 31  1  0  0  0  0
 38 39  1  0  0  0  0
 40 38  1  0  0  0  0
 40 39  1  0  0  0  0
M  END
>  <MODEL>
6

>  <REMARK>
 VINA RESULT:      -7.0      4.155      8.927
  Name = 
  11 active torsions:
  status: ('A' for Active; 'I' for Inactive)
    1  A    between atoms: C_2  and  C_20
    2  A    between atoms: C_5  and  C_27
    3  A    between atoms: C_11  and  N_36
    4  A    between atoms: C_11  and  C_40
    5  A    between atoms: C_16  and  C_39
    6  A    between atoms: C_17  and  C_22
    7  A    between atoms: C_17  and  N_36
    8  A    between atoms: C_21  and  C_25
    9  A    between atoms: C_21  and  C_29
   10  A    between atoms: C_25  and  C_31
   11  A    between atoms: C_31  and  C_39
                            x       y       z     vdW  Elec       q    Type
                         _______ _______ _______ _____ _____    ______ ____

>  <TORSDO>
F 11

$$$$
=
 OpenBabel11052411493D

 40 47  0  0  1  0  0  0  0  0999 V2000
  161.4100  206.2790  153.1680 C   0  0  0  0  0  2  0  0  0  0  0  0
  161.6190  206.7200  151.9390 C   0  0  2  0  0  3  0  0  0  0  0  0
  161.2920  203.9640  148.5550 C   0  0  2  0  0  3  0  0  0  0  0  0
  160.1930  201.3020  150.8570 N   0  0  0  0  0  0  0  0  0  0  0  0
  160.3150  201.7940  149.6070 C   0  0  0  0  0  3  0  0  0  0  0  0
  160.8310  203.0770  149.6950 C   0  0  0  0  0  0  0  0  0  0  0  0
  161.0340  207.9250  151.2680 C   0  0  2  0  0  3  0  0  0  0  0  0
  160.9080  205.3650  148.7380 N   0  0  0  0  0  0  0  0  0  0  0  0
  161.5630  204.7790  153.1430 C   0  0  0  0  0  2  0  0  0  0  0  0
  161.5740  204.4950  151.6680 C   0  0  2  0  0  3  0  0  0  0  0  0
  161.7210  205.6400  151.0340 C   0  0  1  0  0  3  0  0  0  0  0  0
  161.1720  206.0960  149.7790 C   0  0  0  0  0  0  0  0  0  0  0  0
  160.7800  207.4650  149.8920 N   0  0  0  0  0  2  0  0  0  0  0  0
  160.6280  202.2000  151.7280 N   0  0  0  0  0  2  0  0  0  0  0  0
  161.0340  203.2820  151.0450 C   0  0  0  0  0  0  0  0  0  0  0  0
  161.6830  203.6510  146.0710 C   0  0  1  0  0  0  0  0  0  0  0  0
  161.5180  202.4100  146.7180 O   0  0  0  0  0  0  0  0  0  0  0  0
  160.7390  203.4860  147.2100 C   0  0  1  0  0  3  0  0  0  0  0  0
  164.1280  204.7030  146.3850 C   0  0  0  0  0  3  0  0  0  0  0  0
  163.0250  204.2340  146.2370 C   0  0  0  0  0  0  0  0  0  0  0  0
  161.0500  203.7350  144.7540 N   0  0  0  0  0  2  0  0  0  0  0  0
  161.0250  205.1170  144.2720 C   0  0  0  0  0  2  0  0  0  0  0  0
  158.9650  205.8290  145.2540 O   0  0  0  0  0  0  0  0  0  0  0  0
  160.2140  205.9820  145.1820 C   0  0  0  0  0  0  0  0  0  0  0  0
  160.8400  206.9520  145.9580 O   0  0  0  0  0  1  0  0  0  0  0  0
  162.0320  209.0700  151.2610 C   0  0  0  0  0  2  0  0  0  0  0  0
  161.4320  210.2710  151.9740 C   0  0  0  0  0  2  0  0  0  0  0  0
  161.1720  209.9510  153.4350 C   0  0  1  0  0  3  0  0  0  0  0  0
  162.2480  210.3740  154.2140 O   0  0  0  0  0  1  0  0  0  0  0  0
  159.9100  210.6680  153.8740 C   0  0  0  0  0  2  0  0  0  0  0  0
  157.1500  212.1280  154.8210 C   0  0  2  0  0  3  0  0  0  0  0  0
  159.2910  213.1140  154.4710 C   0  0  2  0  0  3  0  0  0  0  0  0
  158.4330  212.4790  155.5380 C   0  0  0  0  0  2  0  0  0  0  0  0
  156.5690  210.8620  155.4060 C   0  0  0  0  0  1  0  0  0  0  0  0
  158.5810  212.7290  153.1930 C   0  0  1  0  0  0  0  0  0  0  0  0
  159.9600  212.1430  153.4720 C   0  0  2  0  0  3  0  0  0  0  0  0
  157.4460  211.9300  153.4640 O   0  0  0  0  0  0  0  0  0  0  0  0
  158.4590  213.9040  152.2270 C   0  0  0  0  0  3  0  0  0  0  0  0
  158.2560  213.4290  150.7960 C   0  0  0  0  0  2  0  0  0  0  0  0
  159.6220  213.8950  151.2500 C   0  0  0  0  0  2  0  0  0  0  0  0
  2  1  1  1  0  0  0
  3  8  1  1  0  0  0
  3  6  1  0  0  0  0
  4 14  1  0  0  0  0
  5  6  1  0  0  0  0
  5  4  2  0  0  0  0
  6 15  2  0  0  0  0
  7 26  1  6  0  0  0
  7  2  1  0  0  0  0
  8 12  2  0  0  0  0
  9  1  1  0  0  0  0
 10  9  1  1  0  0  0
 11 12  1  6  0  0  0
 11 10  1  0  0  0  0
 11  2  1  0  0  0  0
 12 13  1  0  0  0  0
 13  7  1  0  0  0  0
 15 10  1  0  0  0  0
 15 14  1  0  0  0  0
 16 20  1  1  0  0  0
 16 17  1  0  0  0  0
 16 18  1  0  0  0  0
 18 17  1  1  0  0  0
 18  3  1  0  0  0  0
 20 19  3  0  0  0  0
 21 16  1  0  0  0  0
 22 21  1  0  0  0  0
 22 24  1  0  0  0  0
 24 23  2  0  0  0  0
 24 25  1  0  0  0  0
 26 27  1  0  0  0  0
 27 28  1  0  0  0  0
 28 30  1  0  0  0  0
 28 29  1  1  0  0  0
 31 34  1  1  0  0  0
 31 33  1  0  0  0  0
 32 33  1  1  0  0  0
 35 38  1  6  0  0  0
 35 37  1  0  0  0  0
 35 36  1  0  0  0  0
 35 32  1  0  0  0  0
 36 30  1  1  0  0  0
 36 32  1  0  0  0  0
 37 31  1  0  0  0  0
 39 40  1  0  0  0  0
 39 38  1  0  0  0  0
 40 38  1  0  0  0  0
M  END
>  <MODEL>
7

>  <REMARK>
 VINA RESULT:      -6.9      3.985      7.786
  Name = 
  11 active torsions:
  status: ('A' for Active; 'I' for Inactive)
    1  A    between atoms: C_2  and  C_20
    2  A    between atoms: C_5  and  C_27
    3  A    between atoms: C_11  and  N_36
    4  A    between atoms: C_11  and  C_40
    5  A    between atoms: C_16  and  C_39
    6  A    between atoms: C_17  and  C_22
    7  A    between atoms: C_17  and  N_36
    8  A    between atoms: C_21  and  C_25
    9  A    between atoms: C_21  and  C_29
   10  A    between atoms: C_25  and  C_31
   11  A    between atoms: C_31  and  C_39
                            x       y       z     vdW  Elec       q    Type
                         _______ _______ _______ _____ _____    ______ ____

>  <TORSDO>
F 11

$$$$
=
 OpenBabel11052411493D

 40 47  0  0  1  0  0  0  0  0999 V2000
  160.8830  207.2340  154.7820 C   0  0  0  0  0  2  0  0  0  0  0  0
  161.1330  207.8670  153.6490 C   0  0  2  0  0  3  0  0  0  0  0  0
  161.5460  205.5910  149.9340 C   0  0  2  0  0  3  0  0  0  0  0  0
  160.6630  202.5070  151.7500 N   0  0  0  0  0  0  0  0  0  0  0  0
  160.8220  203.1810  150.5930 C   0  0  0  0  0  3  0  0  0  0  0  0
  161.1240  204.4980  150.8960 C   0  0  0  0  0  0  0  0  0  0  0  0
  160.4340  209.0590  153.0720 C   0  0  2  0  0  3  0  0  0  0  0  0
  160.9360  206.8850  150.2450 N   0  0  0  0  0  0  0  0  0  0  0  0
  161.2660  205.7890  154.5890 C   0  0  0  0  0  2  0  0  0  0  0  0
  161.4560  205.7180  153.1000 C   0  0  2  0  0  3  0  0  0  0  0  0
  161.4830  206.9490  152.6340 C   0  0  1  0  0  3  0  0  0  0  0  0
  160.9880  207.4940  151.3920 C   0  0  0  0  0  0  0  0  0  0  0  0
  160.3810  208.7650  151.6300 N   0  0  0  0  0  2  0  0  0  0  0  0
  160.8730  203.3270  152.7690 N   0  0  0  0  0  2  0  0  0  0  0  0
  161.1690  204.5400  152.2750 C   0  0  0  0  0  0  0  0  0  0  0  0
  161.5600  206.2840  147.4960 C   0  0  1  0  0  0  0  0  0  0  0  0
  162.3790  205.1560  147.7070 O   0  0  0  0  0  0  0  0  0  0  0  0
  161.1980  205.2320  148.4870 C   0  0  1  0  0  3  0  0  0  0  0  0
  162.7120  208.5920  148.2220 C   0  0  0  0  0  3  0  0  0  0  0  0
  162.1880  207.5560  147.8900 C   0  0  0  0  0  0  0  0  0  0  0  0
  160.7900  206.2480  146.2520 N   0  0  0  0  0  2  0  0  0  0  0  0
  161.5210  205.5310  145.2050 C   0  0  0  0  0  2  0  0  0  0  0  0
  159.8890  204.1500  144.1350 O   0  0  0  0  0  0  0  0  0  0  0  0
  160.8770  204.2130  144.9150 C   0  0  0  0  0  0  0  0  0  0  0  0
  161.3740  203.0540  145.5000 O   0  0  0  0  0  1  0  0  0  0  0  0
  161.2400  210.3230  153.3190 C   0  0  0  0  0  2  0  0  0  0  0  0
  160.8480  211.3840  152.3040 C   0  0  0  0  0  2  0  0  0  0  0  0
  159.8040  212.3200  152.8850 C   0  0  1  0  0  3  0  0  0  0  0  0
  158.5250  211.8420  152.6030 O   0  0  0  0  0  1  0  0  0  0  0  0
  160.0000  212.3950  154.3870 C   0  0  0  0  0  2  0  0  0  0  0  0
  159.8140  210.7130  157.1770 C   0  0  2  0  0  3  0  0  0  0  0  0
  158.7580  212.7780  156.6310 C   0  0  2  0  0  3  0  0  0  0  0  0
  160.0100  212.2090  157.2500 C   0  0  0  0  0  2  0  0  0  0  0  0
  161.1470  210.0330  156.9670 C   0  0  0  0  0  1  0  0  0  0  0  0
  158.1510  211.5800  155.9350 C   0  0  1  0  0  0  0  0  0  0  0  0
  158.6820  212.7310  155.0880 C   0  0  2  0  0  3  0  0  0  0  0  0
  158.9650  210.4350  156.0960 O   0  0  0  0  0  0  0  0  0  0  0  0
  156.6480  211.4740  156.1780 C   0  0  0  0  0  3  0  0  0  0  0  0
  155.9410  210.8130  155.0060 C   0  0  0  0  0  2  0  0  0  0  0  0
  155.8980  212.3170  155.1620 C   0  0  0  0  0  2  0  0  0  0  0  0
  2  1  1  1  0  0  0
  3  8  1  1  0  0  0
  3  6  1  0  0  0  0
  4 14  1  0  0  0  0
  5  6  1  0  0  0  0
  5  4  2  0  0  0  0
  6 15  2  0  0  0  0
  7 26  1  6  0  0  0
  7  2  1  0  0  0  0
  8 12  2  0  0  0  0
  9  1  1  0  0  0  0
 10  9  1  1  0  0  0
 11 12  1  6  0  0  0
 11 10  1  0  0  0  0
 11  2  1  0  0  0  0
 12 13  1  0  0  0  0
 13  7  1  0  0  0  0
 15 14  1  0  0  0  0
 15 10  1  0  0  0  0
 16 17  1  0  0  0  0
 16 20  1  1  0  0  0
 16 18  1  0  0  0  0
 18 17  1  6  0  0  0
 18  3  1  0  0  0  0
 20 19  3  0  0  0  0
 21 16  1  0  0  0  0
 22 21  1  0  0  0  0
 23 24  2  0  0  0  0
 24 22  1  0  0  0  0
 24 25  1  0  0  0  0
 27 28  1  0  0  0  0
 27 26  1  0  0  0  0
 28 29  1  1  0  0  0
 28 30  1  0  0  0  0
 31 34  1  6  0  0  0
 31 33  1  0  0  0  0
 32 33  1  6  0  0  0
 35 37  1  0  0  0  0
 35 38  1  1  0  0  0
 35 32  1  0  0  0  0
 36 30  1  6  0  0  0
 36 35  1  0  0  0  0
 36 32  1  0  0  0  0
 37 31  1  0  0  0  0
 39 40  1  0  0  0  0
 39 38  1  0  0  0  0
 40 38  1  0  0  0  0
M  END
>  <MODEL>
8

>  <REMARK>
 VINA RESULT:      -6.8      4.029      8.556
  Name = 
  11 active torsions:
  status: ('A' for Active; 'I' for Inactive)
    1  A    between atoms: C_2  and  C_20
    2  A    between atoms: C_5  and  C_27
    3  A    between atoms: C_11  and  N_36
    4  A    between atoms: C_11  and  C_40
    5  A    between atoms: C_16  and  C_39
    6  A    between atoms: C_17  and  C_22
    7  A    between atoms: C_17  and  N_36
    8  A    between atoms: C_21  and  C_25
    9  A    between atoms: C_21  and  C_29
   10  A    between atoms: C_25  and  C_31
   11  A    between atoms: C_31  and  C_39
                            x       y       z     vdW  Elec       q    Type
                         _______ _______ _______ _____ _____    ______ ____

>  <TORSDO>
F 11

$$$$
=
 OpenBabel11052411493D

 40 47  0  0  1  0  0  0  0  0999 V2000
  159.2950  213.2920  155.5700 C   0  0  0  0  0  2  0  0  0  0  0  0
  159.2160  212.8200  154.3380 C   0  0  2  0  0  3  0  0  0  0  0  0
  160.9360  208.9070  153.3970 C   0  0  2  0  0  3  0  0  0  0  0  0
  161.7580  208.4350  156.9600 N   0  0  0  0  0  0  0  0  0  0  0  0
  161.5820  207.9320  155.7210 C   0  0  0  0  0  3  0  0  0  0  0  0
  161.1220  208.9490  154.9010 C   0  0  0  0  0  0  0  0  0  0  0  0
  158.0150  212.7240  153.4490 C   0  0  2  0  0  3  0  0  0  0  0  0
  159.7180  209.5900  152.9580 N   0  0  0  0  0  0  0  0  0  0  0  0
  160.3970  212.5420  156.2740 C   0  0  0  0  0  2  0  0  0  0  0  0
  160.6590  211.4120  155.3200 C   0  0  2  0  0  3  0  0  0  0  0  0
  160.0440  211.6850  154.1870 C   0  0  1  0  0  3  0  0  0  0  0  0
  159.3880  210.8140  153.2410 C   0  0  0  0  0  0  0  0  0  0  0  0
  158.1880  211.4290  152.7710 N   0  0  0  0  0  2  0  0  0  0  0  0
  161.4550  209.7240  156.9580 N   0  0  0  0  0  2  0  0  0  0  0  0
  161.0790  210.0630  155.7140 C   0  0  0  0  0  0  0  0  0  0  0  0
  161.3950  207.3130  151.4800 C   0  0  1  0  0  0  0  0  0  0  0  0
  162.2080  207.0150  152.5930 O   0  0  0  0  0  0  0  0  0  0  0  0
  160.8960  207.4680  152.8750 C   0  0  1  0  0  3  0  0  0  0  0  0
  162.2640  209.3990  150.0400 C   0  0  0  0  0  3  0  0  0  0  0  0
  161.8750  208.4540  150.6830 C   0  0  0  0  0  0  0  0  0  0  0  0
  160.8870  206.1380  150.7710 N   0  0  0  0  0  2  0  0  0  0  0  0
  161.6680  205.8780  149.5610 C   0  0  0  0  0  2  0  0  0  0  0  0
  160.8970  204.7110  147.6220 O   0  0  0  0  0  0  0  0  0  0  0  0
  161.1610  204.6620  148.8530 C   0  0  0  0  0  0  0  0  0  0  0  0
  160.9900  203.4730  149.5530 O   0  0  0  0  0  1  0  0  0  0  0  0
  158.0110  213.8520  152.4310 C   0  0  0  0  0  2  0  0  0  0  0  0
  158.1630  213.2760  151.0330 C   0  0  0  0  0  2  0  0  0  0  0  0
  159.3470  213.9040  150.3220 C   0  0  1  0  0  3  0  0  0  0  0  0
  160.4550  213.0620  150.4060 O   0  0  0  0  0  1  0  0  0  0  0  0
  158.9820  214.1230  148.8670 C   0  0  0  0  0  2  0  0  0  0  0  0
  158.4560  212.6960  145.9800 C   0  0  2  0  0  3  0  0  0  0  0  0
  159.9810  214.4520  146.4970 C   0  0  2  0  0  3  0  0  0  0  0  0
  158.5690  214.2010  146.0280 C   0  0  0  0  0  2  0  0  0  0  0  0
  157.0480  212.2780  146.3360 C   0  0  0  0  0  1  0  0  0  0  0  0
  160.4080  213.1000  147.0230 C   0  0  1  0  0  0  0  0  0  0  0  0
  160.2410  214.2520  148.0070 C   0  0  2  0  0  3  0  0  0  0  0  0
  159.3580  212.1580  146.9100 O   0  0  0  0  0  0  0  0  0  0  0  0
  161.8120  212.7200  146.5610 C   0  0  0  0  0  3  0  0  0  0  0  0
  162.7170  212.4000  147.7410 C   0  0  0  0  0  2  0  0  0  0  0  0
  162.8160  213.7460  147.0560 C   0  0  0  0  0  2  0  0  0  0  0  0
  1  9  1  0  0  0  0
  2  1  1  1  0  0  0
  3  8  1  1  0  0  0
  3  6  1  0  0  0  0
  5  4  2  0  0  0  0
  6 15  2  0  0  0  0
  6  5  1  0  0  0  0
  7 26  1  6  0  0  0
  7  2  1  0  0  0  0
  8 12  2  0  0  0  0
 10 15  1  0  0  0  0
 10  9  1  1  0  0  0
 11 12  1  1  0  0  0
 11  2  1  0  0  0  0
 11 10  1  0  0  0  0
 13 12  1  0  0  0  0
 13  7  1  0  0  0  0
 14  4  1  0  0  0  0
 15 14  1  0  0  0  0
 16 20  1  6  0  0  0
 16 17  1  0  0  0  0
 16 18  1  0  0  0  0
 18 17  1  1  0  0  0
 18  3  1  0  0  0  0
 19 20  3  0  0  0  0
 21 16  1  0  0  0  0
 22 21  1  0  0  0  0
 23 24  2  0  0  0  0
 24 25  1  0  0  0  0
 24 22  1  0  0  0  0
 27 26  1  0  0  0  0
 28 29  1  6  0  0  0
 28 27  1  0  0  0  0
 30 28  1  0  0  0  0
 31 33  1  0  0  0  0
 31 34  1  1  0  0  0
 31 37  1  0  0  0  0
 32 33  1  1  0  0  0
 32 35  1  0  0  0  0
 32 36  1  0  0  0  0
 35 38  1  6  0  0  0
 35 36  1  0  0  0  0
 36 30  1  1  0  0  0
 37 35  1  0  0  0  0
 38 40  1  0  0  0  0
 38 39  1  0  0  0  0
 40 39  1  0  0  0  0
M  END
>  <MODEL>
9

>  <REMARK>
 VINA RESULT:      -6.7      2.751      5.927
  Name = 
  11 active torsions:
  status: ('A' for Active; 'I' for Inactive)
    1  A    between atoms: C_2  and  C_20
    2  A    between atoms: C_5  and  C_27
    3  A    between atoms: C_11  and  N_36
    4  A    between atoms: C_11  and  C_40
    5  A    between atoms: C_16  and  C_39
    6  A    between atoms: C_17  and  C_22
    7  A    between atoms: C_17  and  N_36
    8  A    between atoms: C_21  and  C_25
    9  A    between atoms: C_21  and  C_29
   10  A    between atoms: C_25  and  C_31
   11  A    between atoms: C_31  and  C_39
                            x       y       z     vdW  Elec       q    Type
                         _______ _______ _______ _____ _____    ______ ____

>  <TORSDO>
F 11

$$$$
