=
 OpenBabel11042420453D

 27 29  0  0  1  0  0  0  0  0999 V2000
  162.0750  208.4530  151.1650 C   0  0  0  0  0  0  0  0  0  0  0  0
  160.7600  206.0030  150.5140 C   0  0  2  0  0  3  0  0  0  0  0  0
  161.6840  206.6690  149.5330 C   0  0  0  0  0  3  0  0  0  0  0  0
  161.4590  207.7530  152.1280 C   0  0  0  0  0  0  0  0  0  0  0  0
  160.9750  206.4660  151.8500 O   0  0  0  0  0  0  0  0  0  0  0  0
  162.2600  207.8330  149.8350 C   0  0  0  0  0  3  0  0  0  0  0  0
  161.0840  201.7370  150.4900 N   0  0  0  0  0  2  0  0  0  0  0  0
  160.9280  203.8600  149.2710 C   0  0  0  0  0  0  0  0  0  0  0  0
  160.8760  204.5090  150.4490 C   0  0  0  0  0  0  0  0  0  0  0  0
  160.8730  204.6110  147.9750 C   0  0  0  0  0  1  0  0  0  0  0  0
  161.0980  201.6680  148.0280 C   0  0  0  0  0  1  0  0  0  0  0  0
  160.9310  203.7390  151.7090 C   0  0  0  0  0  3  0  0  0  0  0  0
  161.0280  202.4450  151.7010 N   0  0  0  0  0  0  0  0  0  0  0  0
  161.0370  202.4260  149.2680 N   0  0  0  0  0  0  0  0  0  0  0  0
  162.2740  210.8540  150.6090 C   0  0  0  0  0  1  0  0  0  0  0  0
  162.5660  209.7360  151.4350 O   0  0  0  0  0  0  0  0  0  0  0  0
  161.3210  208.3160  153.5150 C   0  0  1  0  0  3  0  0  0  0  0  0
  159.4110  212.1680  153.7170 C   0  0  0  0  0  3  0  0  0  0  0  0
  159.4950  209.9280  152.8040 C   0  0  0  0  0  3  0  0  0  0  0  0
  158.8830  211.1820  152.8800 C   0  0  0  0  0  3  0  0  0  0  0  0
  161.1660  210.6460  154.4040 C   0  0  0  0  0  3  0  0  0  0  0  0
  160.6430  209.6550  153.5650 C   0  0  0  0  0  0  0  0  0  0  0  0
  160.5510  211.9000  154.4800 C   0  0  0  0  0  3  0  0  0  0  0  0
  160.8010  207.3100  154.5480 C   0  0  0  0  0  2  0  0  0  0  0  0
  159.7870  208.0050  156.5950 O   0  0  0  0  0  1  0  0  0  0  0  0
  162.0770  208.0660  156.5590 O   0  0  0  0  0  0  0  0  0  0  0  0
  160.8530  207.8130  155.9550 C   0  0  0  0  0  0  0  0  0  0  0  0
  1 16  1  0  0  0  0
  1  4  2  0  0  0  0
  2  9  1  1  0  0  0
  2  5  1  0  0  0  0
  3  6  2  0  0  0  0
  3  2  1  0  0  0  0
  4 17  1  0  0  0  0
  5  4  1  0  0  0  0
  6  1  1  0  0  0  0
  7 13  1  0  0  0  0
  8  9  2  0  0  0  0
  9 12  1  0  0  0  0
 10  8  1  0  0  0  0
 11 14  1  0  0  0  0
 13 12  2  0  0  0  0
 14  8  1  0  0  0  0
 14  7  1  0  0  0  0
 15 16  1  0  0  0  0
 17 22  1  0  0  0  0
 17 24  1  1  0  0  0
 18 23  1  0  0  0  0
 19 20  1  0  0  0  0
 19 22  2  0  0  0  0
 20 18  2  0  0  0  0
 21 23  2  0  0  0  0
 22 21  1  0  0  0  0
 24 27  1  0  0  0  0
 27 26  2  0  0  0  0
 27 25  1  0  0  0  0
M  END
>  <MODEL>
1

>  <REMARK>
 VINA RESULT:      -7.2      0.000      0.000
  Name = 
  6 active torsions:
  status: ('A' for Active; 'I' for Inactive)
    1  A    between atoms: C_5  and  O_23
    2  A    between atoms: C_7  and  C_8
    3  A    between atoms: C_11  and  C_14
    4  A    between atoms: C_11  and  C_15
    5  A    between atoms: C_11  and  C_20
    6  A    between atoms: C_14  and  C_27
                            x       y       z     vdW  Elec       q    Type
                         _______ _______ _______ _____ _____    ______ ____

>  <TORSDO>
F 6

$$$$
=
 OpenBabel11042420453D

 27 29  0  0  1  0  0  0  0  0999 V2000
  160.5480  207.3860  154.6500 C   0  0  0  0  0  0  0  0  0  0  0  0
  161.7630  206.5350  152.2100 C   0  0  2  0  0  3  0  0  0  0  0  0
  161.3450  205.5380  153.2540 C   0  0  0  0  0  3  0  0  0  0  0  0
  160.6860  208.2540  153.6380 C   0  0  0  0  0  0  0  0  0  0  0  0
  161.1100  207.7960  152.3820 O   0  0  0  0  0  0  0  0  0  0  0  0
  160.8150  205.9520  154.4050 C   0  0  0  0  0  3  0  0  0  0  0  0
  161.0610  204.8890  148.3240 N   0  0  0  0  0  2  0  0  0  0  0  0
  161.7550  206.7690  149.7390 C   0  0  0  0  0  0  0  0  0  0  0  0
  161.5350  206.0070  150.8240 C   0  0  0  0  0  0  0  0  0  0  0  0
  162.2380  208.1820  149.8740 C   0  0  0  0  0  1  0  0  0  0  0  0
  161.7360  206.9860  147.2220 C   0  0  0  0  0  1  0  0  0  0  0  0
  161.0570  204.6190  150.6570 C   0  0  0  0  0  3  0  0  0  0  0  0
  160.8430  204.1210  149.4780 N   0  0  0  0  0  0  0  0  0  0  0  0
  161.5170  206.2120  148.4340 N   0  0  0  0  0  0  0  0  0  0  0  0
  160.4420  207.1530  157.1090 C   0  0  0  0  0  1  0  0  0  0  0  0
  160.1200  207.8340  155.9050 O   0  0  0  0  0  0  0  0  0  0  0  0
  160.3490  209.7070  153.8250 C   0  0  1  0  0  3  0  0  0  0  0  0
  162.2590  211.4680  157.2570 C   0  0  0  0  0  3  0  0  0  0  0  0
  160.2350  210.9560  156.0300 C   0  0  0  0  0  3  0  0  0  0  0  0
  160.8670  211.5220  157.1410 C   0  0  0  0  0  3  0  0  0  0  0  0
  162.3880  210.2810  155.1490 C   0  0  0  0  0  3  0  0  0  0  0  0
  160.9950  210.3340  155.0260 C   0  0  0  0  0  0  0  0  0  0  0  0
  163.0190  210.8470  156.2620 C   0  0  0  0  0  3  0  0  0  0  0  0
  160.4590  210.5430  152.5440 C   0  0  0  0  0  2  0  0  0  0  0  0
  159.9610  212.8200  152.0250 O   0  0  0  0  0  0  0  0  0  0  0  0
  158.2830  211.6550  153.0630 O   0  0  0  0  0  1  0  0  0  0  0  0
  159.5610  211.7380  152.5280 C   0  0  0  0  0  0  0  0  0  0  0  0
  1 16  1  0  0  0  0
  2  9  1  6  0  0  0
  2  5  1  0  0  0  0
  2  3  1  0  0  0  0
  3  6  2  0  0  0  0
  4 17  1  0  0  0  0
  4  1  2  0  0  0  0
  5  4  1  0  0  0  0
  6  1  1  0  0  0  0
  7 14  1  0  0  0  0
  7 13  1  0  0  0  0
  8 10  1  0  0  0  0
  8  9  2  0  0  0  0
 11 14  1  0  0  0  0
 12  9  1  0  0  0  0
 13 12  2  0  0  0  0
 14  8  1  0  0  0  0
 16 15  1  0  0  0  0
 17 24  1  6  0  0  0
 17 22  1  0  0  0  0
 19 20  2  0  0  0  0
 20 18  1  0  0  0  0
 21 23  1  0  0  0  0
 22 21  2  0  0  0  0
 22 19  1  0  0  0  0
 23 18  2  0  0  0  0
 25 27  2  0  0  0  0
 27 24  1  0  0  0  0
 27 26  1  0  0  0  0
M  END
>  <MODEL>
2

>  <REMARK>
 VINA RESULT:      -7.0      2.103      4.108
  Name = 
  6 active torsions:
  status: ('A' for Active; 'I' for Inactive)
    1  A    between atoms: C_5  and  O_23
    2  A    between atoms: C_7  and  C_8
    3  A    between atoms: C_11  and  C_14
    4  A    between atoms: C_11  and  C_15
    5  A    between atoms: C_11  and  C_20
    6  A    between atoms: C_14  and  C_27
                            x       y       z     vdW  Elec       q    Type
                         _______ _______ _______ _____ _____    ______ ____

>  <TORSDO>
F 6

$$$$
=
 OpenBabel11042420453D

 27 29  0  0  1  0  0  0  0  0999 V2000
  161.8700  208.8020  150.1200 C   0  0  0  0  0  0  0  0  0  0  0  0
  161.9420  208.2950  152.9300 C   0  0  2  0  0  3  0  0  0  0  0  0
  161.9420  209.7010  152.3970 C   0  0  0  0  0  3  0  0  0  0  0  0
  161.6200  207.5670  150.5800 C   0  0  0  0  0  0  0  0  0  0  0  0
  161.4730  207.3560  151.9590 O   0  0  0  0  0  0  0  0  0  0  0  0
  161.9490  209.9220  151.0820 C   0  0  0  0  0  3  0  0  0  0  0  0
  159.6260  207.8390  156.4980 N   0  0  0  0  0  2  0  0  0  0  0  0
  161.0830  209.2050  155.0740 C   0  0  0  0  0  0  0  0  0  0  0  0
  161.1430  208.1890  154.1950 C   0  0  0  0  0  0  0  0  0  0  0  0
  161.8150  210.4880  154.8190 C   0  0  0  0  0  1  0  0  0  0  0  0
  160.1990  210.1080  157.2610 C   0  0  0  0  0  1  0  0  0  0  0  0
  160.4110  206.9360  154.4760 C   0  0  0  0  0  3  0  0  0  0  0  0
  159.7100  206.7980  155.5590 N   0  0  0  0  0  0  0  0  0  0  0  0
  160.3040  209.0470  156.2730 N   0  0  0  0  0  0  0  0  0  0  0  0
  161.9820  210.3230  148.1740 C   0  0  0  0  0  1  0  0  0  0  0  0
  162.0130  209.0230  148.7450 O   0  0  0  0  0  0  0  0  0  0  0  0
  161.4550  206.4150  149.6280 C   0  0  1  0  0  3  0  0  0  0  0  0
  160.8680  202.5880  151.5090 C   0  0  0  0  0  3  0  0  0  0  0  0
  161.3350  204.9560  151.7000 C   0  0  0  0  0  3  0  0  0  0  0  0
  161.1400  203.7090  152.2990 C   0  0  0  0  0  3  0  0  0  0  0  0
  160.9850  203.9640  149.5190 C   0  0  0  0  0  3  0  0  0  0  0  0
  161.2610  205.0890  150.3040 C   0  0  0  0  0  0  0  0  0  0  0  0
  160.7890  202.7160  150.1190 C   0  0  0  0  0  3  0  0  0  0  0  0
  160.4710  206.6880  148.4840 C   0  0  0  0  0  2  0  0  0  0  0  0
  160.2400  206.2780  146.1430 O   0  0  0  0  0  0  0  0  0  0  0  0
  162.3730  206.1250  146.9660 O   0  0  0  0  0  1  0  0  0  0  0  0
  161.0140  206.3520  147.1330 C   0  0  0  0  0  0  0  0  0  0  0  0
  1  4  2  0  0  0  0
  1  6  1  0  0  0  0
  2  9  1  1  0  0  0
  3  2  1  0  0  0  0
  4  5  1  0  0  0  0
  5  2  1  0  0  0  0
  6  3  2  0  0  0  0
  8 14  1  0  0  0  0
  9 12  1  0  0  0  0
  9  8  2  0  0  0  0
 10  8  1  0  0  0  0
 12 13  2  0  0  0  0
 13  7  1  0  0  0  0
 14  7  1  0  0  0  0
 14 11  1  0  0  0  0
 15 16  1  0  0  0  0
 16  1  1  0  0  0  0
 17 24  1  6  0  0  0
 17 22  1  0  0  0  0
 17  4  1  0  0  0  0
 18 20  1  0  0  0  0
 19 20  2  0  0  0  0
 21 23  1  0  0  0  0
 21 22  2  0  0  0  0
 22 19  1  0  0  0  0
 23 18  2  0  0  0  0
 25 27  2  0  0  0  0
 26 27  1  0  0  0  0
 27 24  1  0  0  0  0
M  END
>  <MODEL>
3

>  <REMARK>
 VINA RESULT:      -7.0      3.104      7.057
  Name = 
  6 active torsions:
  status: ('A' for Active; 'I' for Inactive)
    1  A    between atoms: C_5  and  O_23
    2  A    between atoms: C_7  and  C_8
    3  A    between atoms: C_11  and  C_14
    4  A    between atoms: C_11  and  C_15
    5  A    between atoms: C_11  and  C_20
    6  A    between atoms: C_14  and  C_27
                            x       y       z     vdW  Elec       q    Type
                         _______ _______ _______ _____ _____    ______ ____

>  <TORSDO>
F 6

$$$$
=
 OpenBabel11042420453D

 27 29  0  0  1  0  0  0  0  0999 V2000
  161.9030  208.9700  150.3760 C   0  0  0  0  0  0  0  0  0  0  0  0
  160.8090  206.3510  150.0560 C   0  0  2  0  0  3  0  0  0  0  0  0
  161.9620  206.8160  149.2130 C   0  0  0  0  0  3  0  0  0  0  0  0
  161.0510  208.4890  151.2930 C   0  0  0  0  0  0  0  0  0  0  0  0
  160.6580  207.1430  151.2380 O   0  0  0  0  0  0  0  0  0  0  0  0
  162.4370  208.0550  149.3450 C   0  0  0  0  0  3  0  0  0  0  0  0
  161.1730  202.2490  151.2160 N   0  0  0  0  0  2  0  0  0  0  0  0
  160.9550  203.9460  149.4580 C   0  0  0  0  0  0  0  0  0  0  0  0
  160.9370  204.8990  150.4080 C   0  0  0  0  0  0  0  0  0  0  0  0
  160.8470  204.3040  148.0070 C   0  0  0  0  0  1  0  0  0  0  0  0
  161.1020  201.4940  148.8740 C   0  0  0  0  0  1  0  0  0  0  0  0
  161.0430  204.5130  151.8310 C   0  0  0  0  0  3  0  0  0  0  0  0
  161.1520  203.2690  152.1820 N   0  0  0  0  0  0  0  0  0  0  0  0
  161.0770  202.5690  149.8530 N   0  0  0  0  0  0  0  0  0  0  0  0
  162.2820  211.1570  149.2870 C   0  0  0  0  0  1  0  0  0  0  0  0
  162.3040  210.3110  150.4270 O   0  0  0  0  0  0  0  0  0  0  0  0
  160.5460  209.3670  152.4040 C   0  0  1  0  0  3  0  0  0  0  0  0
  161.5010  207.9520  156.3560 C   0  0  0  0  0  3  0  0  0  0  0  0
  160.6300  207.5180  154.1390 C   0  0  0  0  0  3  0  0  0  0  0  0
  160.9470  207.0700  155.4240 C   0  0  0  0  0  3  0  0  0  0  0  0
  161.4220  209.7330  154.7150 C   0  0  0  0  0  3  0  0  0  0  0  0
  160.8650  208.8540  153.7790 C   0  0  0  0  0  0  0  0  0  0  0  0
  161.7400  209.2830  156.0010 C   0  0  0  0  0  3  0  0  0  0  0  0
  160.8410  210.8570  152.2050 C   0  0  0  0  0  2  0  0  0  0  0  0
  158.5690  211.2930  152.7990 O   0  0  0  0  0  1  0  0  0  0  0  0
  159.6570  213.0050  151.7330 O   0  0  0  0  0  0  0  0  0  0  0  0
  159.6240  211.7240  152.2640 C   0  0  0  0  0  0  0  0  0  0  0  0
  1 16  1  0  0  0  0
  1  4  2  0  0  0  0
  2  9  1  1  0  0  0
  2  5  1  0  0  0  0
  3  6  2  0  0  0  0
  3  2  1  0  0  0  0
  4 17  1  0  0  0  0
  5  4  1  0  0  0  0
  6  1  1  0  0  0  0
  7 13  1  0  0  0  0
  8 14  1  0  0  0  0
  8  9  2  0  0  0  0
  9 12  1  0  0  0  0
 10  8  1  0  0  0  0
 11 14  1  0  0  0  0
 12 13  2  0  0  0  0
 14  7  1  0  0  0  0
 15 16  1  0  0  0  0
 17 24  1  6  0  0  0
 17 22  1  0  0  0  0
 19 20  1  0  0  0  0
 20 18  2  0  0  0  0
 21 23  2  0  0  0  0
 22 19  2  0  0  0  0
 22 21  1  0  0  0  0
 23 18  1  0  0  0  0
 24 27  1  0  0  0  0
 26 27  2  0  0  0  0
 27 25  1  0  0  0  0
M  END
>  <MODEL>
4

>  <REMARK>
 VINA RESULT:      -7.0      1.745      2.859
  Name = 
  6 active torsions:
  status: ('A' for Active; 'I' for Inactive)
    1  A    between atoms: C_5  and  O_23
    2  A    between atoms: C_7  and  C_8
    3  A    between atoms: C_11  and  C_14
    4  A    between atoms: C_11  and  C_15
    5  A    between atoms: C_11  and  C_20
    6  A    between atoms: C_14  and  C_27
                            x       y       z     vdW  Elec       q    Type
                         _______ _______ _______ _____ _____    ______ ____

>  <TORSDO>
F 6

$$$$
=
 OpenBabel11042420453D

 27 29  0  0  1  0  0  0  0  0999 V2000
  160.8560  202.7630  150.2180 C   0  0  0  0  0  0  0  0  0  0  0  0
  160.4550  205.5780  150.4850 C   0  0  2  0  0  3  0  0  0  0  0  0
  160.7010  204.7140  151.6900 C   0  0  0  0  0  3  0  0  0  0  0  0
  160.8860  203.5460  149.1290 C   0  0  0  0  0  0  0  0  0  0  0  0
  160.8740  204.9410  149.2760 O   0  0  0  0  0  0  0  0  0  0  0  0
  160.8480  203.3960  151.5550 C   0  0  0  0  0  3  0  0  0  0  0  0
  162.3310  209.3810  151.0550 N   0  0  0  0  0  2  0  0  0  0  0  0
  161.3810  207.6860  149.5580 C   0  0  0  0  0  0  0  0  0  0  0  0
  161.1100  206.9200  150.6290 C   0  0  0  0  0  0  0  0  0  0  0  0
  161.0370  207.2240  148.1730 C   0  0  0  0  0  1  0  0  0  0  0  0
  162.3310  209.8370  148.6360 C   0  0  0  0  0  1  0  0  0  0  0  0
  161.4630  207.4030  151.9810 C   0  0  0  0  0  3  0  0  0  0  0  0
  162.0330  208.5560  152.1520 N   0  0  0  0  0  0  0  0  0  0  0  0
  162.0130  208.9630  149.7540 N   0  0  0  0  0  0  0  0  0  0  0  0
  159.7000  200.5780  150.1980 C   0  0  0  0  0  1  0  0  0  0  0  0
  160.8730  201.3700  150.0810 O   0  0  0  0  0  0  0  0  0  0  0  0
  160.9750  202.9420  147.7550 C   0  0  1  0  0  3  0  0  0  0  0  0
  162.1840  205.7490  144.7250 C   0  0  0  0  0  3  0  0  0  0  0  0
  160.4440  204.4310  145.7710 C   0  0  0  0  0  3  0  0  0  0  0  0
  160.8490  205.3440  144.7930 C   0  0  0  0  0  3  0  0  0  0  0  0
  162.7120  204.3280  146.6140 C   0  0  0  0  0  3  0  0  0  0  0  0
  161.3770  203.9160  146.6860 C   0  0  0  0  0  0  0  0  0  0  0  0
  163.1160  205.2430  145.6360 C   0  0  0  0  0  3  0  0  0  0  0  0
  161.7300  201.6090  147.7070 C   0  0  0  0  0  2  0  0  0  0  0  0
  161.5740  199.4550  146.6880 O   0  0  0  0  0  1  0  0  0  0  0  0
  160.3110  201.1010  145.7150 O   0  0  0  0  0  0  0  0  0  0  0  0
  161.2060  200.6590  146.6790 C   0  0  0  0  0  0  0  0  0  0  0  0
  1  6  1  0  0  0  0
  2  9  1  1  0  0  0
  2  3  1  0  0  0  0
  4  5  1  0  0  0  0
  4  1  2  0  0  0  0
  5  2  1  0  0  0  0
  6  3  2  0  0  0  0
  7 13  1  0  0  0  0
  8 14  1  0  0  0  0
  8  9  2  0  0  0  0
  9 12  1  0  0  0  0
 10  8  1  0  0  0  0
 11 14  1  0  0  0  0
 12 13  2  0  0  0  0
 14  7  1  0  0  0  0
 16 15  1  0  0  0  0
 16  1  1  0  0  0  0
 17 24  1  1  0  0  0
 17  4  1  0  0  0  0
 18 20  2  0  0  0  0
 18 23  1  0  0  0  0
 19 22  2  0  0  0  0
 20 19  1  0  0  0  0
 21 22  1  0  0  0  0
 22 17  1  0  0  0  0
 23 21  2  0  0  0  0
 26 27  2  0  0  0  0
 27 25  1  0  0  0  0
 27 24  1  0  0  0  0
M  END
>  <MODEL>
5

>  <REMARK>
 VINA RESULT:      -6.8      4.109      8.154
  Name = 
  6 active torsions:
  status: ('A' for Active; 'I' for Inactive)
    1  A    between atoms: C_5  and  O_23
    2  A    between atoms: C_7  and  C_8
    3  A    between atoms: C_11  and  C_14
    4  A    between atoms: C_11  and  C_15
    5  A    between atoms: C_11  and  C_20
    6  A    between atoms: C_14  and  C_27
                            x       y       z     vdW  Elec       q    Type
                         _______ _______ _______ _____ _____    ______ ____

>  <TORSDO>
F 6

$$$$
=
 OpenBabel11042420453D

 27 29  0  0  1  0  0  0  0  0999 V2000
  161.1390  202.9770  150.1660 C   0  0  0  0  0  0  0  0  0  0  0  0
  160.6180  205.7740  150.4150 C   0  0  2  0  0  3  0  0  0  0  0  0
  161.0550  204.9600  151.6000 C   0  0  0  0  0  3  0  0  0  0  0  0
  160.9940  203.7270  149.0640 C   0  0  0  0  0  0  0  0  0  0  0  0
  160.9230  205.1230  149.1780 O   0  0  0  0  0  0  0  0  0  0  0  0
  161.2560  203.6480  151.4790 C   0  0  0  0  0  3  0  0  0  0  0  0
  162.3270  209.6950  150.3440 N   0  0  0  0  0  2  0  0  0  0  0  0
  161.3110  207.8450  151.5940 C   0  0  0  0  0  0  0  0  0  0  0  0
  161.2110  207.1510  150.4460 C   0  0  0  0  0  0  0  0  0  0  0  0
  160.8310  207.2640  152.8900 C   0  0  0  0  0  1  0  0  0  0  0  0
  162.0210  209.9630  152.7720 C   0  0  0  0  0  1  0  0  0  0  0  0
  161.6910  207.7530  149.1850 C   0  0  0  0  0  3  0  0  0  0  0  0
  162.2090  208.9430  149.1640 N   0  0  0  0  0  0  0  0  0  0  0  0
  161.8860  209.1630  151.5650 N   0  0  0  0  0  0  0  0  0  0  0  0
  160.1500  200.7290  150.4480 C   0  0  0  0  0  1  0  0  0  0  0  0
  161.2160  201.5830  150.0600 O   0  0  0  0  0  0  0  0  0  0  0  0
  160.9510  203.0880  147.7030 C   0  0  1  0  0  3  0  0  0  0  0  0
  162.0980  205.6910  144.4730 C   0  0  0  0  0  3  0  0  0  0  0  0
  162.7210  204.3270  146.3740 C   0  0  0  0  0  3  0  0  0  0  0  0
  163.0810  205.1720  145.3200 C   0  0  0  0  0  3  0  0  0  0  0  0
  160.3930  204.5220  145.7340 C   0  0  0  0  0  3  0  0  0  0  0  0
  161.3720  204.0000  146.5880 C   0  0  0  0  0  0  0  0  0  0  0  0
  160.7550  205.3650  144.6800 C   0  0  0  0  0  3  0  0  0  0  0  0
  161.5840  201.6930  147.6480 C   0  0  0  0  0  2  0  0  0  0  0  0
  160.1560  201.2760  145.7800 O   0  0  0  0  0  0  0  0  0  0  0  0
  161.5220  199.5400  146.3850 O   0  0  0  0  0  1  0  0  0  0  0  0
  161.0440  200.8310  146.5540 C   0  0  0  0  0  0  0  0  0  0  0  0
  1  6  1  0  0  0  0
  2  9  1  6  0  0  0
  2  3  1  0  0  0  0
  4  5  1  0  0  0  0
  4  1  2  0  0  0  0
  5  2  1  0  0  0  0
  6  3  2  0  0  0  0
  7 14  1  0  0  0  0
  8 10  1  0  0  0  0
  9  8  2  0  0  0  0
 12  9  1  0  0  0  0
 13 12  2  0  0  0  0
 13  7  1  0  0  0  0
 14  8  1  0  0  0  0
 14 11  1  0  0  0  0
 16  1  1  0  0  0  0
 16 15  1  0  0  0  0
 17 24  1  1  0  0  0
 17  4  1  0  0  0  0
 18 23  2  0  0  0  0
 18 20  1  0  0  0  0
 19 22  1  0  0  0  0
 20 19  2  0  0  0  0
 21 22  2  0  0  0  0
 22 17  1  0  0  0  0
 23 21  1  0  0  0  0
 25 27  2  0  0  0  0
 26 27  1  0  0  0  0
 27 24  1  0  0  0  0
M  END
>  <MODEL>
6

>  <REMARK>
 VINA RESULT:      -6.4      3.845      8.373
  Name = 
  6 active torsions:
  status: ('A' for Active; 'I' for Inactive)
    1  A    between atoms: C_5  and  O_23
    2  A    between atoms: C_7  and  C_8
    3  A    between atoms: C_11  and  C_14
    4  A    between atoms: C_11  and  C_15
    5  A    between atoms: C_11  and  C_20
    6  A    between atoms: C_14  and  C_27
                            x       y       z     vdW  Elec       q    Type
                         _______ _______ _______ _____ _____    ______ ____

>  <TORSDO>
F 6

$$$$
=
 OpenBabel11042420453D

 27 29  0  0  1  0  0  0  0  0999 V2000
  160.4620  211.6680  154.5500 C   0  0  0  0  0  0  0  0  0  0  0  0
  161.5290  209.9770  152.5100 C   0  0  2  0  0  3  0  0  0  0  0  0
  161.9430  209.8130  153.9450 C   0  0  0  0  0  3  0  0  0  0  0  0
  159.9030  211.6630  153.3310 C   0  0  0  0  0  0  0  0  0  0  0  0
  160.3040  210.7050  152.3870 O   0  0  0  0  0  0  0  0  0  0  0  0
  161.4680  210.6350  154.8810 C   0  0  0  0  0  3  0  0  0  0  0  0
  161.2010  206.1310  150.6650 N   0  0  0  0  0  2  0  0  0  0  0  0
  161.6260  208.5410  150.4880 C   0  0  0  0  0  0  0  0  0  0  0  0
  161.4280  208.6530  151.8130 C   0  0  0  0  0  0  0  0  0  0  0  0
  161.9560  209.7420  149.6540 C   0  0  0  0  0  1  0  0  0  0  0  0
  161.7170  207.0600  148.4440 C   0  0  0  0  0  1  0  0  0  0  0  0
  161.1020  207.4500  152.6070 C   0  0  0  0  0  3  0  0  0  0  0  0
  161.0010  206.2840  152.0470 N   0  0  0  0  0  0  0  0  0  0  0  0
  161.5140  207.2460  149.8720 N   0  0  0  0  0  0  0  0  0  0  0  0
  159.4810  212.2520  156.7420 C   0  0  0  0  0  1  0  0  0  0  0  0
  160.0640  212.6160  155.5000 O   0  0  0  0  0  0  0  0  0  0  0  0
  158.8210  212.6460  152.9810 C   0  0  1  0  0  3  0  0  0  0  0  0
  158.8570  213.9510  148.8790 C   0  0  0  0  0  3  0  0  0  0  0  0
  160.0680  213.3650  150.8920 C   0  0  0  0  0  3  0  0  0  0  0  0
  160.0670  213.7860  149.5600 C   0  0  0  0  0  3  0  0  0  0  0  0
  157.6480  213.2730  150.8660 C   0  0  0  0  0  3  0  0  0  0  0  0
  158.8560  213.1090  151.5530 C   0  0  0  0  0  0  0  0  0  0  0  0
  157.6480  213.6920  149.5320 C   0  0  0  0  0  3  0  0  0  0  0  0
  157.4280  212.2430  153.4770 C   0  0  0  0  0  2  0  0  0  0  0  0
  155.5940  213.1030  154.7420 O   0  0  0  0  0  1  0  0  0  0  0  0
  157.4430  214.4520  154.6420 O   0  0  0  0  0  0  0  0  0  0  0  0
  156.7660  213.2850  154.3200 C   0  0  0  0  0  0  0  0  0  0  0  0
  1  6  1  0  0  0  0
  1 16  1  0  0  0  0
  2  9  1  1  0  0  0
  2  3  1  0  0  0  0
  3  6  2  0  0  0  0
  4  1  2  0  0  0  0
  5  2  1  0  0  0  0
  5  4  1  0  0  0  0
  7 13  1  0  0  0  0
  8  9  2  0  0  0  0
  9 12  1  0  0  0  0
 10  8  1  0  0  0  0
 11 14  1  0  0  0  0
 13 12  2  0  0  0  0
 14  8  1  0  0  0  0
 14  7  1  0  0  0  0
 16 15  1  0  0  0  0
 17  4  1  0  0  0  0
 17 24  1  6  0  0  0
 18 23  2  0  0  0  0
 18 20  1  0  0  0  0
 19 22  1  0  0  0  0
 20 19  2  0  0  0  0
 21 22  2  0  0  0  0
 22 17  1  0  0  0  0
 23 21  1  0  0  0  0
 24 27  1  0  0  0  0
 27 26  2  0  0  0  0
 27 25  1  0  0  0  0
M  END
>  <MODEL>
7

>  <REMARK>
 VINA RESULT:      -6.3      3.295      5.353
  Name = 
  6 active torsions:
  status: ('A' for Active; 'I' for Inactive)
    1  A    between atoms: C_5  and  O_23
    2  A    between atoms: C_7  and  C_8
    3  A    between atoms: C_11  and  C_14
    4  A    between atoms: C_11  and  C_15
    5  A    between atoms: C_11  and  C_20
    6  A    between atoms: C_14  and  C_27
                            x       y       z     vdW  Elec       q    Type
                         _______ _______ _______ _____ _____    ______ ____

>  <TORSDO>
F 6

$$$$
=
 OpenBabel11042420453D

 27 29  0  0  1  0  0  0  0  0999 V2000
  161.0650  210.7560  155.5590 C   0  0  0  0  0  0  0  0  0  0  0  0
  158.5150  211.9210  155.0160 C   0  0  2  0  0  3  0  0  0  0  0  0
  159.6080  212.7210  155.6670 C   0  0  0  0  0  3  0  0  0  0  0  0
  160.1970  210.1140  154.7640 C   0  0  0  0  0  0  0  0  0  0  0  0
  159.0250  210.7630  154.3480 O   0  0  0  0  0  0  0  0  0  0  0  0
  160.7800  212.1530  155.9500 C   0  0  0  0  0  3  0  0  0  0  0  0
  156.3310  214.3090  152.2180 N   0  0  0  0  0  2  0  0  0  0  0  0
  156.4650  213.1730  154.3880 C   0  0  0  0  0  0  0  0  0  0  0  0
  157.7060  212.7610  154.0730 C   0  0  0  0  0  0  0  0  0  0  0  0
  155.8410  212.8040  155.7000 C   0  0  0  0  0  1  0  0  0  0  0  0
  154.3900  214.4500  153.7250 C   0  0  0  0  0  1  0  0  0  0  0  0
  158.2930  213.1400  152.7700 C   0  0  0  0  0  3  0  0  0  0  0  0
  157.6300  213.8640  151.9210 N   0  0  0  0  0  0  0  0  0  0  0  0
  155.7350  213.9750  153.4430 N   0  0  0  0  0  0  0  0  0  0  0  0
  163.2760  210.8000  156.6640 C   0  0  0  0  0  1  0  0  0  0  0  0
  162.2400  210.1170  155.9740 O   0  0  0  0  0  0  0  0  0  0  0  0
  160.4870  208.7210  154.2800 C   0  0  1  0  0  3  0  0  0  0  0  0
  162.3070  208.5000  150.3850 C   0  0  0  0  0  3  0  0  0  0  0  0
  161.6360  209.8180  152.3020 C   0  0  0  0  0  3  0  0  0  0  0  0
  162.2260  209.7340  151.0380 C   0  0  0  0  0  3  0  0  0  0  0  0
  161.2060  207.4350  152.2610 C   0  0  0  0  0  3  0  0  0  0  0  0
  161.1190  208.6680  152.9190 C   0  0  0  0  0  0  0  0  0  0  0  0
  161.7990  207.3510  150.9970 C   0  0  0  0  0  3  0  0  0  0  0  0
  161.1660  207.8260  155.3230 C   0  0  0  0  0  2  0  0  0  0  0  0
  160.6020  206.5490  157.2610 O   0  0  0  0  0  1  0  0  0  0  0  0
  158.8710  206.9740  155.8210 O   0  0  0  0  0  0  0  0  0  0  0  0
  160.2050  207.0800  156.1910 C   0  0  0  0  0  0  0  0  0  0  0  0
  1  6  1  0  0  0  0
  1 16  1  0  0  0  0
  2  9  1  6  0  0  0
  2  3  1  0  0  0  0
  3  6  2  0  0  0  0
  4  1  2  0  0  0  0
  5  4  1  0  0  0  0
  5  2  1  0  0  0  0
  7 14  1  0  0  0  0
  8 10  1  0  0  0  0
  9  8  2  0  0  0  0
 12  9  1  0  0  0  0
 13  7  1  0  0  0  0
 13 12  2  0  0  0  0
 14 11  1  0  0  0  0
 14  8  1  0  0  0  0
 16 15  1  0  0  0  0
 17  4  1  0  0  0  0
 17 24  1  1  0  0  0
 18 23  2  0  0  0  0
 18 20  1  0  0  0  0
 19 22  1  0  0  0  0
 20 19  2  0  0  0  0
 21 22  2  0  0  0  0
 22 17  1  0  0  0  0
 23 21  1  0  0  0  0
 24 27  1  0  0  0  0
 26 27  2  0  0  0  0
 27 25  1  0  0  0  0
M  END
>  <MODEL>
8

>  <REMARK>
 VINA RESULT:      -6.3      4.815      7.855
  Name = 
  6 active torsions:
  status: ('A' for Active; 'I' for Inactive)
    1  A    between atoms: C_5  and  O_23
    2  A    between atoms: C_7  and  C_8
    3  A    between atoms: C_11  and  C_14
    4  A    between atoms: C_11  and  C_15
    5  A    between atoms: C_11  and  C_20
    6  A    between atoms: C_14  and  C_27
                            x       y       z     vdW  Elec       q    Type
                         _______ _______ _______ _____ _____    ______ ____

>  <TORSDO>
F 6

$$$$
=
 OpenBabel11042420453D

 27 29  0  0  1  0  0  0  0  0999 V2000
  159.5430  212.3610  154.2410 C   0  0  0  0  0  0  0  0  0  0  0  0
  158.9210  212.6800  151.4720 C   0  0  2  0  0  3  0  0  0  0  0  0
  158.5580  213.7400  152.4730 C   0  0  0  0  0  3  0  0  0  0  0  0
  160.0870  211.5330  153.3380 C   0  0  0  0  0  0  0  0  0  0  0  0
  159.9320  211.7990  151.9690 O   0  0  0  0  0  0  0  0  0  0  0  0
  158.8180  213.5610  153.7680 C   0  0  0  0  0  3  0  0  0  0  0  0
  160.2760  214.3920  147.7930 N   0  0  0  0  0  2  0  0  0  0  0  0
  158.4500  213.5400  149.1910 C   0  0  0  0  0  0  0  0  0  0  0  0
  159.3420  213.2810  150.1640 C   0  0  0  0  0  0  0  0  0  0  0  0
  156.9940  213.2340  149.3800 C   0  0  0  0  0  1  0  0  0  0  0  0
  157.9940  214.4170  146.8670 C   0  0  0  0  0  1  0  0  0  0  0  0
  160.7710  213.5920  149.9460 C   0  0  0  0  0  3  0  0  0  0  0  0
  161.1810  214.1110  148.8290 N   0  0  0  0  0  0  0  0  0  0  0  0
  158.9100  214.1150  147.9560 N   0  0  0  0  0  0  0  0  0  0  0  0
  158.6560  211.5560  156.4040 C   0  0  0  0  0  1  0  0  0  0  0  0
  159.6970  212.1060  155.6090 O   0  0  0  0  0  0  0  0  0  0  0  0
  160.8980  210.3460  153.7780 C   0  0  1  0  0  3  0  0  0  0  0  0
  161.7260  207.4860  150.6710 C   0  0  0  0  0  3  0  0  0  0  0  0
  161.9430  209.7310  151.5500 C   0  0  0  0  0  3  0  0  0  0  0  0
  162.2070  208.7920  150.5490 C   0  0  0  0  0  3  0  0  0  0  0  0
  160.7150  208.0560  152.7970 C   0  0  0  0  0  3  0  0  0  0  0  0
  161.1920  209.3660  152.6800 C   0  0  0  0  0  0  0  0  0  0  0  0
  160.9820  207.1170  151.7950 C   0  0  0  0  0  3  0  0  0  0  0  0
  162.1120  210.7060  154.6410 C   0  0  0  0  0  2  0  0  0  0  0  0
  161.3910  208.9950  156.1430 O   0  0  0  0  0  0  0  0  0  0  0  0
  163.0910  210.3270  156.9080 O   0  0  0  0  0  1  0  0  0  0  0  0
  162.1720  209.9600  155.9350 C   0  0  0  0  0  0  0  0  0  0  0  0
  1 16  1  0  0  0  0
  2  9  1  6  0  0  0
  2  5  1  0  0  0  0
  2  3  1  0  0  0  0
  3  6  2  0  0  0  0
  4 17  1  0  0  0  0
  4  1  2  0  0  0  0
  5  4  1  0  0  0  0
  6  1  1  0  0  0  0
  7 14  1  0  0  0  0
  7 13  1  0  0  0  0
  8 10  1  0  0  0  0
  8  9  2  0  0  0  0
 11 14  1  0  0  0  0
 12  9  1  0  0  0  0
 13 12  2  0  0  0  0
 14  8  1  0  0  0  0
 16 15  1  0  0  0  0
 17 24  1  6  0  0  0
 18 23  1  0  0  0  0
 19 22  2  0  0  0  0
 20 18  2  0  0  0  0
 20 19  1  0  0  0  0
 22 21  1  0  0  0  0
 22 17  1  0  0  0  0
 23 21  2  0  0  0  0
 24 27  1  0  0  0  0
 27 25  2  0  0  0  0
 27 26  1  0  0  0  0
M  END
>  <MODEL>
9

>  <REMARK>
 VINA RESULT:      -6.0      4.717      7.391
  Name = 
  6 active torsions:
  status: ('A' for Active; 'I' for Inactive)
    1  A    between atoms: C_5  and  O_23
    2  A    between atoms: C_7  and  C_8
    3  A    between atoms: C_11  and  C_14
    4  A    between atoms: C_11  and  C_15
    5  A    between atoms: C_11  and  C_20
    6  A    between atoms: C_14  and  C_27
                            x       y       z     vdW  Elec       q    Type
                         _______ _______ _______ _____ _____    ______ ____

>  <TORSDO>
F 6

$$$$
