=
 OpenBabel11042420373D

 49 56  0  0  1  0  0  0  0  0999 V2000
  156.9180  212.5590  153.2260 C   0  0  1  0  0  3  0  0  0  0  0  0
  160.5000  212.5270  150.9860 C   0  0  0  0  0  2  0  0  0  0  0  0
  160.1480  211.2380  151.7380 C   0  0  2  0  0  3  0  0  0  0  0  0
  155.3300  214.4520  152.9350 C   0  0  0  0  0  1  0  0  0  0  0  0
  157.5150  214.3920  151.7080 C   0  0  0  0  0  2  0  0  0  0  0  0
  157.2540  212.8670  146.1290 C   0  0  0  0  0  2  0  0  0  0  0  0
  156.7940  214.0700  153.0330 C   0  0  2  0  0  3  0  0  0  0  0  0
  158.0140  212.1710  152.3190 C   0  0  0  0  0  0  0  0  0  0  0  0
  160.6310  212.0000  144.8380 O   0  0  0  0  0  0  0  0  0  0  0  0
  159.0340  213.4010  147.7850 C   0  0  0  0  0  0  0  0  0  0  0  0
  159.8070  212.6910  145.4980 C   0  0  0  0  0  0  0  0  0  0  0  0
  160.0590  212.9530  146.8850 N   0  0  0  0  0  2  0  0  0  0  0  0
  158.2970  213.2720  144.6930 S   0  0  0  0  0  0  0  0  0  0  0  0
  159.2660  213.1090  150.3690 C   0  0  0  0  0  0  0  0  0  0  0  0
  159.0270  211.4460  152.6450 N   0  0  0  0  0  0  0  0  0  0  0  0
  157.9710  213.0550  151.1280 C   0  0  2  0  0  3  0  0  0  0  0  0
  157.6670  213.7660  147.2900 C   0  0  0  0  0  2  0  0  0  0  0  0
  159.1980  213.2590  149.0730 C   0  0  0  0  0  0  0  0  0  0  0  0
  159.7220  213.4340  156.4200 C   0  0  0  0  0  3  0  0  0  0  0  0
  156.3950  210.3020  156.4630 C   0  0  0  0  0  3  0  0  0  0  0  0
  155.0580  210.5520  154.5040 O   0  0  0  0  0  0  0  0  0  0  0  0
  157.9030  212.4650  155.4600 C   0  0  0  0  0  0  0  0  0  0  0  0
  159.2190  212.3300  157.2610 N   0  0  0  0  0  0  0  0  0  0  0  0
  158.8790  213.4600  155.2200 N   0  0  0  0  0  0  0  0  0  0  0  0
  156.9640  212.0180  154.6270 C   0  0  0  0  0  0  0  0  0  0  0  0
  156.0680  210.9410  155.1520 C   0  0  0  0  0  0  0  0  0  0  0  0
  157.4090  210.7270  157.1770 N   0  0  0  0  0  0  0  0  0  0  0  0
  158.1510  211.8620  156.7190 C   0  0  0  0  0  0  0  0  0  0  0  0
  161.7260  208.9060  154.0610 O   0  0  0  0  0  0  0  0  0  0  0  0
  161.3630  210.6640  152.4810 C   0  0  2  0  0  3  0  0  0  0  0  0
  161.1620  209.1950  152.8080 C   0  0  1  0  0  3  0  0  0  0  0  0
  161.8280  210.1290  154.7650 C   0  0  0  0  0  2  0  0  0  0  0  0
  161.4630  211.2800  153.8520 C   0  0  0  0  0  2  0  0  0  0  0  0
  161.8130  208.3090  151.7490 C   0  0  0  0  0  2  0  0  0  0  0  0
  160.8650  207.2950  151.3090 N   0  0  0  0  0  2  0  0  0  0  0  0
  161.0000  207.1730  149.8580 C   0  0  0  0  0  2  0  0  0  0  0  0
  162.1830  206.4310  147.2370 C   0  0  0  0  0  2  0  0  0  0  0  0
  160.6290  206.0600  145.4240 N   0  0  0  0  0  1  0  0  0  0  0  0
  162.0360  204.0790  147.7200 C   0  0  1  0  0  3  0  0  0  0  0  0
  160.5060  202.1290  147.5640 C   0  0  0  0  0  2  0  0  0  0  0  0
  160.5030  204.8060  150.0590 N   0  0  0  0  0  0  0  0  0  0  0  0
  161.9620  205.7340  145.9120 C   0  0  2  0  0  3  0  0  0  0  0  0
  160.5390  203.3850  149.6890 C   0  0  1  0  0  3  0  0  0  0  0  0
  160.9010  203.2230  148.2300 C   0  0  0  0  0  0  0  0  0  0  0  0
  162.0400  204.2380  146.2010 C   0  0  0  0  0  2  0  0  0  0  0  0
  161.9210  205.4280  148.2510 N   0  0  0  0  0  0  0  0  0  0  0  0
  161.1820  205.7370  149.4500 C   0  0  0  0  0  0  0  0  0  0  0  0
  161.3680  203.0770  152.0310 C   0  0  0  0  0  1  0  0  0  0  0  0
  161.5390  202.6590  150.5850 C   0  0  0  0  0  2  0  0  0  0  0  0
  1 25  1  1  0  0  0
  3  2  1  1  0  0  0
  3 30  1  0  0  0  0
  3 15  1  0  0  0  0
  5  7  1  0  0  0  0
  6 17  1  0  0  0  0
  7  4  1  6  0  0  0
  7  1  1  0  0  0  0
  8 15  2  0  0  0  0
  8  1  1  0  0  0  0
  9 11  2  0  0  0  0
 10 18  2  0  0  0  0
 11 12  1  0  0  0  0
 12 10  1  0  0  0  0
 13 11  1  0  0  0  0
 13  6  1  0  0  0  0
 14  2  1  0  0  0  0
 14 16  1  0  0  0  0
 16  5  1  1  0  0  0
 16  8  1  0  0  0  0
 17 10  1  0  0  0  0
 18 14  2  0  0  0  0
 19 23  1  0  0  0  0
 20 27  2  0  0  0  0
 21 26  2  0  0  0  0
 22 28  1  0  0  0  0
 24 22  1  0  0  0  0
 24 19  2  0  0  0  0
 25 26  1  0  0  0  0
 25 22  2  0  0  0  0
 26 20  1  0  0  0  0
 28 27  1  0  0  0  0
 28 23  2  0  0  0  0
 29 32  1  0  0  0  0
 30 31  1  0  0  0  0
 30 33  1  1  0  0  0
 31 34  1  6  0  0  0
 31 29  1  0  0  0  0
 33 32  1  0  0  0  0
 35 34  1  0  0  0  0
 36 35  1  0  0  0  0
 37 46  1  0  0  0  0
 39 45  1  6  0  0  0
 39 44  1  0  0  0  0
 39 46  1  0  0  0  0
 40 44  2  0  0  0  0
 42 38  1  1  0  0  0
 42 45  1  0  0  0  0
 42 37  1  0  0  0  0
 43 41  1  0  0  0  0
 43 49  1  1  0  0  0
 44 43  1  0  0  0  0
 46 47  1  0  0  0  0
 47 36  1  0  0  0  0
 47 41  2  0  0  0  0
 49 48  1  0  0  0  0
M  END
>  <MODEL>
1

>  <REMARK>
 VINA RESULT:      -6.1      0.000      0.000
  Name = 
  7 active torsions:
  status: ('A' for Active; 'I' for Inactive)
    1  A    between atoms: C_3  and  C_42
    2  A    between atoms: C_8  and  C_14
    3  A    between atoms: C_13  and  N_39
    4  A    between atoms: C_13  and  C_41
    5  A    between atoms: C_18  and  C_47
    6  A    between atoms: C_20  and  C_31
    7  A    between atoms: N_39  and  C_47
                            x       y       z     vdW  Elec       q    Type
                         _______ _______ _______ _____ _____    ______ ____

>  <TORSDO>
F 7

$$$$
=
 OpenBabel11042420373D

 49 56  0  0  1  0  0  0  0  0999 V2000
  156.6170  212.6720  152.9820 C   0  0  1  0  0  3  0  0  0  0  0  0
  160.3040  212.8550  150.9270 C   0  0  0  0  0  2  0  0  0  0  0  0
  160.0390  211.5900  151.7510 C   0  0  2  0  0  3  0  0  0  0  0  0
  154.8710  214.3710  152.4800 C   0  0  0  0  0  1  0  0  0  0  0  0
  157.1160  214.4510  151.3680 C   0  0  0  0  0  2  0  0  0  0  0  0
  157.3140  212.5410  145.9060 C   0  0  0  0  0  2  0  0  0  0  0  0
  156.3570  214.1460  152.6770 C   0  0  2  0  0  3  0  0  0  0  0  0
  157.7940  212.3380  152.1600 C   0  0  0  0  0  0  0  0  0  0  0  0
  160.8270  211.9380  144.8460 O   0  0  0  0  0  0  0  0  0  0  0  0
  158.9390  213.3620  147.6040 C   0  0  0  0  0  0  0  0  0  0  0  0
  159.9040  212.5840  145.4150 C   0  0  0  0  0  0  0  0  0  0  0  0
  160.0520  212.9620  146.7890 N   0  0  0  0  0  2  0  0  0  0  0  0
  158.3910  212.9550  144.4980 S   0  0  0  0  0  0  0  0  0  0  0  0
  159.0550  213.2670  150.2110 C   0  0  0  0  0  0  0  0  0  0  0  0
  158.8550  211.7420  152.5850 N   0  0  0  0  0  0  0  0  0  0  0  0
  157.7310  213.1320  150.9080 C   0  0  2  0  0  3  0  0  0  0  0  0
  157.5730  213.5520  147.0180 C   0  0  0  0  0  2  0  0  0  0  0  0
  159.0440  213.3230  148.9050 C   0  0  0  0  0  0  0  0  0  0  0  0
  158.9000  214.2640  156.3120 C   0  0  0  0  0  3  0  0  0  0  0  0
  156.2440  210.5460  156.3270 C   0  0  0  0  0  3  0  0  0  0  0  0
  155.0670  210.4150  154.2570 O   0  0  0  0  0  0  0  0  0  0  0  0
  157.3950  212.9030  155.2880 C   0  0  0  0  0  0  0  0  0  0  0  0
  158.5430  213.1330  157.1900 N   0  0  0  0  0  0  0  0  0  0  0  0
  158.1810  214.0550  155.0500 N   0  0  0  0  0  0  0  0  0  0  0  0
  156.6390  212.2320  154.4190 C   0  0  0  0  0  0  0  0  0  0  0  0
  155.9210  211.0320  154.9510 C   0  0  0  0  0  0  0  0  0  0  0  0
  157.0890  211.2030  157.0840 N   0  0  0  0  0  0  0  0  0  0  0  0
  157.6380  212.4340  156.6030 C   0  0  0  0  0  0  0  0  0  0  0  0
  161.9120  209.2730  153.8600 O   0  0  0  0  0  0  0  0  0  0  0  0
  161.2610  211.1930  152.5920 C   0  0  2  0  0  3  0  0  0  0  0  0
  161.4560  209.6870  152.5980 C   0  0  1  0  0  3  0  0  0  0  0  0
  161.5620  210.2850  154.7840 C   0  0  0  0  0  2  0  0  0  0  0  0
  160.9980  211.4810  154.0460 C   0  0  0  0  0  2  0  0  0  0  0  0
  162.4690  209.2670  151.5360 C   0  0  0  0  0  2  0  0  0  0  0  0
  162.3640  207.8330  151.2990 N   0  0  0  0  0  2  0  0  0  0  0  0
  160.9930  207.5620  150.8690 C   0  0  0  0  0  2  0  0  0  0  0  0
  160.3570  204.6890  151.2680 C   0  0  0  0  0  2  0  0  0  0  0  0
  162.2380  203.2110  151.6150 N   0  0  0  0  0  1  0  0  0  0  0  0
  160.5390  204.2160  148.9170 C   0  0  1  0  0  3  0  0  0  0  0  0
  162.1740  203.5940  147.1540 C   0  0  0  0  0  2  0  0  0  0  0  0
  161.5710  206.8980  148.6080 N   0  0  0  0  0  0  0  0  0  0  0  0
  160.8570  203.2650  151.1540 C   0  0  2  0  0  3  0  0  0  0  0  0
  161.6810  205.9940  147.4550 C   0  0  1  0  0  3  0  0  0  0  0  0
  161.6040  204.5500  147.9000 C   0  0  0  0  0  0  0  0  0  0  0  0
  160.8070  202.9150  149.6700 C   0  0  0  0  0  2  0  0  0  0  0  0
  160.4810  205.2510  149.9370 N   0  0  0  0  0  0  0  0  0  0  0  0
  160.9670  206.5900  149.7220 C   0  0  0  0  0  0  0  0  0  0  0  0
  161.0230  206.0330  145.0400 C   0  0  0  0  0  1  0  0  0  0  0  0
  160.5720  206.3180  146.4580 C   0  0  0  0  0  2  0  0  0  0  0  0
  1 25  1  1  0  0  0
  3  2  1  1  0  0  0
  3 15  1  0  0  0  0
  3 30  1  0  0  0  0
  5  7  1  0  0  0  0
  6 17  1  0  0  0  0
  7  4  1  6  0  0  0
  7  1  1  0  0  0  0
  8 15  2  0  0  0  0
  8  1  1  0  0  0  0
  9 11  2  0  0  0  0
 10 18  2  0  0  0  0
 11 12  1  0  0  0  0
 12 10  1  0  0  0  0
 13 11  1  0  0  0  0
 13  6  1  0  0  0  0
 14 16  1  0  0  0  0
 14  2  1  0  0  0  0
 16  5  1  1  0  0  0
 16  8  1  0  0  0  0
 17 10  1  0  0  0  0
 18 14  2  0  0  0  0
 19 23  1  0  0  0  0
 20 27  2  0  0  0  0
 21 26  2  0  0  0  0
 22 28  1  0  0  0  0
 24 22  1  0  0  0  0
 24 19  2  0  0  0  0
 25 26  1  0  0  0  0
 25 22  2  0  0  0  0
 26 20  1  0  0  0  0
 28 27  1  0  0  0  0
 28 23  2  0  0  0  0
 29 32  1  0  0  0  0
 30 31  1  0  0  0  0
 30 33  1  1  0  0  0
 31 34  1  6  0  0  0
 31 29  1  0  0  0  0
 33 32  1  0  0  0  0
 35 34  1  0  0  0  0
 36 35  1  0  0  0  0
 39 45  1  1  0  0  0
 39 46  1  0  0  0  0
 40 44  2  0  0  0  0
 41 47  2  0  0  0  0
 42 37  1  0  0  0  0
 42 38  1  6  0  0  0
 43 49  1  6  0  0  0
 43 44  1  0  0  0  0
 43 41  1  0  0  0  0
 44 39  1  0  0  0  0
 45 42  1  0  0  0  0
 46 37  1  0  0  0  0
 47 46  1  0  0  0  0
 47 36  1  0  0  0  0
 48 49  1  0  0  0  0
M  END
>  <MODEL>
2

>  <REMARK>
 VINA RESULT:      -6.0      0.923      2.315
  Name = 
  7 active torsions:
  status: ('A' for Active; 'I' for Inactive)
    1  A    between atoms: C_3  and  C_42
    2  A    between atoms: C_8  and  C_14
    3  A    between atoms: C_13  and  N_39
    4  A    between atoms: C_13  and  C_41
    5  A    between atoms: C_18  and  C_47
    6  A    between atoms: C_20  and  C_31
    7  A    between atoms: N_39  and  C_47
                            x       y       z     vdW  Elec       q    Type
                         _______ _______ _______ _____ _____    ______ ____

>  <TORSDO>
F 7

$$$$
=
 OpenBabel11042420373D

 49 56  0  0  1  0  0  0  0  0999 V2000
  158.5020  212.1990  153.1550 C   0  0  1  0  0  3  0  0  0  0  0  0
  161.4730  211.5900  150.2130 C   0  0  0  0  0  2  0  0  0  0  0  0
  160.9190  210.3360  150.8990 C   0  0  2  0  0  3  0  0  0  0  0  0
  157.4760  214.4530  153.3840 C   0  0  0  0  0  1  0  0  0  0  0  0
  159.3020  214.0230  151.7210 C   0  0  0  0  0  2  0  0  0  0  0  0
  157.6330  213.4490  146.2080 C   0  0  0  0  0  2  0  0  0  0  0  0
  158.7700  213.7030  153.1340 C   0  0  2  0  0  3  0  0  0  0  0  0
  159.2660  211.6830  152.0040 C   0  0  0  0  0  0  0  0  0  0  0  0
  160.3490  211.9540  144.1550 O   0  0  0  0  0  0  0  0  0  0  0  0
  159.7580  213.2660  147.4910 C   0  0  0  0  0  0  0  0  0  0  0  0
  159.8820  212.7270  145.0370 C   0  0  0  0  0  0  0  0  0  0  0  0
  160.4410  212.7110  146.3570 N   0  0  0  0  0  2  0  0  0  0  0  0
  158.4730  213.7830  144.6280 S   0  0  0  0  0  0  0  0  0  0  0  0
  160.3590  212.5500  149.9290 C   0  0  0  0  0  0  0  0  0  0  0  0
  160.0810  210.6850  152.0380 N   0  0  0  0  0  0  0  0  0  0  0  0
  159.2580  212.7140  150.9370 C   0  0  2  0  0  3  0  0  0  0  0  0
  158.4800  214.0330  147.3330 C   0  0  0  0  0  2  0  0  0  0  0  0
  160.1040  212.9000  148.6960 C   0  0  0  0  0  0  0  0  0  0  0  0
  155.4260  210.7720  155.8630 C   0  0  0  0  0  3  0  0  0  0  0  0
  159.9440  210.6950  156.5470 C   0  0  0  0  0  3  0  0  0  0  0  0
  161.0510  211.3650  154.5440 O   0  0  0  0  0  0  0  0  0  0  0  0
  157.5480  211.0830  155.1080 C   0  0  0  0  0  0  0  0  0  0  0  0
  156.4040  210.4610  156.9230 N   0  0  0  0  0  0  0  0  0  0  0  0
  156.2010  211.2350  154.7060 N   0  0  0  0  0  0  0  0  0  0  0  0
  158.6470  211.4640  154.4580 C   0  0  0  0  0  0  0  0  0  0  0  0
  159.9510  211.1820  155.1340 C   0  0  0  0  0  0  0  0  0  0  0  0
  158.8110  210.4470  157.1600 N   0  0  0  0  0  0  0  0  0  0  0  0
  157.5860  210.5780  156.4320 C   0  0  0  0  0  0  0  0  0  0  0  0
  162.3640  207.0030  151.2520 O   0  0  0  0  0  0  0  0  0  0  0  0
  162.0390  209.3710  151.3110 C   0  0  2  0  0  3  0  0  0  0  0  0
  162.0180  208.1120  150.4630 C   0  0  1  0  0  3  0  0  0  0  0  0
  162.1260  207.3580  152.6000 C   0  0  0  0  0  2  0  0  0  0  0  0
  161.7660  208.8260  152.6880 C   0  0  0  0  0  2  0  0  0  0  0  0
  163.0000  208.2250  149.3000 C   0  0  0  0  0  2  0  0  0  0  0  0
  162.7870  207.1250  148.3700 N   0  0  0  0  0  2  0  0  0  0  0  0
  161.3750  206.7530  148.4520 C   0  0  0  0  0  2  0  0  0  0  0  0
  160.3140  204.7990  150.4200 C   0  0  0  0  0  2  0  0  0  0  0  0
  161.9520  203.5760  151.7080 N   0  0  0  0  0  1  0  0  0  0  0  0
  160.3680  203.0030  148.8210 C   0  0  1  0  0  3  0  0  0  0  0  0
  161.8490  201.2390  147.8910 C   0  0  0  0  0  2  0  0  0  0  0  0
  161.7940  204.8040  147.0680 N   0  0  0  0  0  0  0  0  0  0  0  0
  160.5860  203.5340  151.2050 C   0  0  2  0  0  3  0  0  0  0  0  0
  161.7380  203.3880  146.6810 C   0  0  1  0  0  3  0  0  0  0  0  0
  161.4500  202.5180  147.8850 C   0  0  0  0  0  0  0  0  0  0  0  0
  160.4500  202.3820  150.2140 C   0  0  0  0  0  2  0  0  0  0  0  0
  160.4930  204.4370  149.0270 N   0  0  0  0  0  0  0  0  0  0  0  0
  161.1750  205.3050  148.1000 C   0  0  0  0  0  0  0  0  0  0  0  0
  160.6680  204.3760  144.6450 C   0  0  0  0  0  1  0  0  0  0  0  0
  160.6700  203.2040  145.6060 C   0  0  0  0  0  2  0  0  0  0  0  0
  1 25  1  1  0  0  0
  3  2  1  1  0  0  0
  3 30  1  0  0  0  0
  3 15  1  0  0  0  0
  5  7  1  0  0  0  0
  6 17  1  0  0  0  0
  7  1  1  0  0  0  0
  7  4  1  6  0  0  0
  8 15  2  0  0  0  0
  8  1  1  0  0  0  0
  9 11  2  0  0  0  0
 10 18  2  0  0  0  0
 11 12  1  0  0  0  0
 12 10  1  0  0  0  0
 13 11  1  0  0  0  0
 13  6  1  0  0  0  0
 14  2  1  0  0  0  0
 14 16  1  0  0  0  0
 16  5  1  1  0  0  0
 16  8  1  0  0  0  0
 17 10  1  0  0  0  0
 18 14  2  0  0  0  0
 19 23  1  0  0  0  0
 20 27  2  0  0  0  0
 21 26  2  0  0  0  0
 22 28  1  0  0  0  0
 24 22  1  0  0  0  0
 24 19  2  0  0  0  0
 25 22  2  0  0  0  0
 25 26  1  0  0  0  0
 26 20  1  0  0  0  0
 28 23  2  0  0  0  0
 28 27  1  0  0  0  0
 29 32  1  0  0  0  0
 30 33  1  1  0  0  0
 31 34  1  6  0  0  0
 31 29  1  0  0  0  0
 31 30  1  0  0  0  0
 32 33  1  0  0  0  0
 35 36  1  0  0  0  0
 35 34  1  0  0  0  0
 37 42  1  0  0  0  0
 39 46  1  0  0  0  0
 39 45  1  1  0  0  0
 41 47  2  0  0  0  0
 42 38  1  6  0  0  0
 43 49  1  6  0  0  0
 43 41  1  0  0  0  0
 43 44  1  0  0  0  0
 44 40  2  0  0  0  0
 44 39  1  0  0  0  0
 45 42  1  0  0  0  0
 46 37  1  0  0  0  0
 47 36  1  0  0  0  0
 47 46  1  0  0  0  0
 48 49  1  0  0  0  0
M  END
>  <MODEL>
3

>  <REMARK>
 VINA RESULT:      -4.3      1.765      3.059
  Name = 
  7 active torsions:
  status: ('A' for Active; 'I' for Inactive)
    1  A    between atoms: C_3  and  C_42
    2  A    between atoms: C_8  and  C_14
    3  A    between atoms: C_13  and  N_39
    4  A    between atoms: C_13  and  C_41
    5  A    between atoms: C_18  and  C_47
    6  A    between atoms: C_20  and  C_31
    7  A    between atoms: N_39  and  C_47
                            x       y       z     vdW  Elec       q    Type
                         _______ _______ _______ _____ _____    ______ ____

>  <TORSDO>
F 7

$$$$
=
 OpenBabel11042420373D

 49 56  0  0  1  0  0  0  0  0999 V2000
  158.4500  212.1990  152.8510 C   0  0  1  0  0  3  0  0  0  0  0  0
  161.7600  211.6350  150.2870 C   0  0  0  0  0  2  0  0  0  0  0  0
  161.1240  210.3700  150.8760 C   0  0  2  0  0  3  0  0  0  0  0  0
  157.4060  214.4520  152.9950 C   0  0  0  0  0  1  0  0  0  0  0  0
  159.4220  214.0470  151.5620 C   0  0  0  0  0  2  0  0  0  0  0  0
  158.4440  213.5800  145.8750 C   0  0  0  0  0  2  0  0  0  0  0  0
  158.7190  213.7020  152.8920 C   0  0  2  0  0  3  0  0  0  0  0  0
  159.3490  211.7020  151.7940 C   0  0  0  0  0  0  0  0  0  0  0  0
  161.3900  212.1150  144.1440 O   0  0  0  0  0  0  0  0  0  0  0  0
  160.3950  213.3670  147.4060 C   0  0  0  0  0  0  0  0  0  0  0  0
  160.8190  212.8720  144.9760 C   0  0  0  0  0  0  0  0  0  0  0  0
  161.2110  212.8300  146.3540 N   0  0  0  0  0  2  0  0  0  0  0  0
  159.4730  213.9400  144.4170 S   0  0  0  0  0  0  0  0  0  0  0  0
  160.6900  212.6030  149.8860 C   0  0  0  0  0  0  0  0  0  0  0  0
  160.1520  210.7010  151.9090 N   0  0  0  0  0  0  0  0  0  0  0  0
  159.4730  212.7530  150.7530 C   0  0  2  0  0  3  0  0  0  0  0  0
  159.1470  214.1410  147.1070 C   0  0  0  0  0  2  0  0  0  0  0  0
  160.5890  212.9770  148.6370 C   0  0  0  0  0  0  0  0  0  0  0  0
  155.0760  210.5540  155.0280 C   0  0  0  0  0  3  0  0  0  0  0  0
  159.4330  210.6840  156.3980 C   0  0  0  0  0  3  0  0  0  0  0  0
  160.7970  211.4590  154.6020 O   0  0  0  0  0  0  0  0  0  0  0  0
  157.2680  210.9880  154.6150 C   0  0  0  0  0  0  0  0  0  0  0  0
  155.8950  210.2640  156.2210 N   0  0  0  0  0  0  0  0  0  0  0  0
  155.9930  211.0830  154.0120 N   0  0  0  0  0  0  0  0  0  0  0  0
  158.4320  211.4400  154.1480 C   0  0  0  0  0  0  0  0  0  0  0  0
  159.6300  211.2070  155.0130 C   0  0  0  0  0  0  0  0  0  0  0  0
  158.2350  210.3650  156.8260 N   0  0  0  0  0  0  0  0  0  0  0  0
  157.1310  210.4530  155.9200 C   0  0  0  0  0  0  0  0  0  0  0  0
  162.2510  207.0620  151.9270 O   0  0  0  0  0  0  0  0  0  0  0  0
  162.1840  209.3940  151.4050 C   0  0  2  0  0  3  0  0  0  0  0  0
  161.9190  207.9800  150.9180 C   0  0  1  0  0  3  0  0  0  0  0  0
  162.2350  207.7640  153.1540 C   0  0  0  0  0  2  0  0  0  0  0  0
  162.0440  209.2440  152.8960 C   0  0  0  0  0  2  0  0  0  0  0  0
  162.7410  207.6730  149.6690 C   0  0  0  0  0  2  0  0  0  0  0  0
  162.0620  208.2010  148.4940 N   0  0  0  0  0  2  0  0  0  0  0  0
  160.8280  207.4360  148.3240 C   0  0  0  0  0  2  0  0  0  0  0  0
  162.1640  205.7760  146.2550 C   0  0  0  0  0  2  0  0  0  0  0  0
  160.7160  204.6510  144.6820 N   0  0  0  0  0  1  0  0  0  0  0  0
  162.0560  203.8000  147.6240 C   0  0  1  0  0  3  0  0  0  0  0  0
  160.5890  201.8800  148.1970 C   0  0  0  0  0  2  0  0  0  0  0  0
  160.3850  205.3210  149.4270 N   0  0  0  0  0  0  0  0  0  0  0  0
  162.0300  204.6030  145.3070 C   0  0  2  0  0  3  0  0  0  0  0  0
  160.4790  203.8710  149.6510 C   0  0  1  0  0  3  0  0  0  0  0  0
  160.9200  203.1640  148.3890 C   0  0  0  0  0  0  0  0  0  0  0  0
  162.1340  203.3480  146.1680 C   0  0  0  0  0  2  0  0  0  0  0  0
  161.8770  205.2430  147.5740 N   0  0  0  0  0  0  0  0  0  0  0  0
  161.0690  205.9660  148.5240 C   0  0  0  0  0  0  0  0  0  0  0  0
  161.7800  202.1280  150.8900 C   0  0  0  0  0  1  0  0  0  0  0  0
  161.4510  203.6040  150.7970 C   0  0  0  0  0  2  0  0  0  0  0  0
  1  7  1  0  0  0  0
  1 25  1  1  0  0  0
  3  2  1  1  0  0  0
  3 30  1  0  0  0  0
  3 15  1  0  0  0  0
  5  7  1  0  0  0  0
  6 17  1  0  0  0  0
  7  4  1  6  0  0  0
  8 15  2  0  0  0  0
  8  1  1  0  0  0  0
  9 11  2  0  0  0  0
 10 18  2  0  0  0  0
 11 12  1  0  0  0  0
 12 10  1  0  0  0  0
 13 11  1  0  0  0  0
 13  6  1  0  0  0  0
 14  2  1  0  0  0  0
 14 16  1  0  0  0  0
 16  5  1  1  0  0  0
 16  8  1  0  0  0  0
 17 10  1  0  0  0  0
 18 14  2  0  0  0  0
 19 23  1  0  0  0  0
 20 27  2  0  0  0  0
 21 26  2  0  0  0  0
 22 28  1  0  0  0  0
 24 22  1  0  0  0  0
 24 19  2  0  0  0  0
 25 22  2  0  0  0  0
 25 26  1  0  0  0  0
 26 20  1  0  0  0  0
 28 23  2  0  0  0  0
 28 27  1  0  0  0  0
 29 32  1  0  0  0  0
 30 33  1  1  0  0  0
 31 34  1  6  0  0  0
 31 30  1  0  0  0  0
 31 29  1  0  0  0  0
 33 32  1  0  0  0  0
 35 34  1  0  0  0  0
 36 35  1  0  0  0  0
 36 47  1  0  0  0  0
 37 46  1  0  0  0  0
 39 45  1  6  0  0  0
 39 44  1  0  0  0  0
 40 44  2  0  0  0  0
 41 43  1  0  0  0  0
 42 38  1  1  0  0  0
 42 45  1  0  0  0  0
 42 37  1  0  0  0  0
 43 49  1  1  0  0  0
 44 43  1  0  0  0  0
 46 39  1  0  0  0  0
 46 47  1  0  0  0  0
 47 41  2  0  0  0  0
 49 48  1  0  0  0  0
M  END
>  <MODEL>
4

>  <REMARK>
 VINA RESULT:      -4.1      1.691      2.195
  Name = 
  7 active torsions:
  status: ('A' for Active; 'I' for Inactive)
    1  A    between atoms: C_3  and  C_42
    2  A    between atoms: C_8  and  C_14
    3  A    between atoms: C_13  and  N_39
    4  A    between atoms: C_13  and  C_41
    5  A    between atoms: C_18  and  C_47
    6  A    between atoms: C_20  and  C_31
    7  A    between atoms: N_39  and  C_47
                            x       y       z     vdW  Elec       q    Type
                         _______ _______ _______ _____ _____    ______ ____

>  <TORSDO>
F 7

$$$$
=
 OpenBabel11042420373D

 49 56  0  0  1  0  0  0  0  0999 V2000
  158.8100  212.1520  152.9880 C   0  0  1  0  0  3  0  0  0  0  0  0
  161.9370  211.5590  150.2100 C   0  0  0  0  0  2  0  0  0  0  0  0
  161.2470  210.2990  150.7460 C   0  0  2  0  0  3  0  0  0  0  0  0
  157.9330  214.4520  153.3440 C   0  0  0  0  0  1  0  0  0  0  0  0
  159.8400  214.0200  151.7760 C   0  0  0  0  0  2  0  0  0  0  0  0
  158.5410  214.0280  146.1340 C   0  0  0  0  0  2  0  0  0  0  0  0
  159.1840  213.6270  153.1170 C   0  0  2  0  0  3  0  0  0  0  0  0
  159.6180  211.6740  151.8510 C   0  0  0  0  0  0  0  0  0  0  0  0
  161.2870  212.5020  144.1450 O   0  0  0  0  0  0  0  0  0  0  0  0
  160.5490  213.5780  147.5360 C   0  0  0  0  0  0  0  0  0  0  0  0
  160.8130  213.2340  145.0570 C   0  0  0  0  0  0  0  0  0  0  0  0
  161.2710  213.0670  146.4050 N   0  0  0  0  0  2  0  0  0  0  0  0
  159.5160  214.4250  144.6490 S   0  0  0  0  0  0  0  0  0  0  0  0
  160.9180  212.6210  149.9370 C   0  0  0  0  0  0  0  0  0  0  0  0
  160.3550  210.6170  151.8520 N   0  0  0  0  0  0  0  0  0  0  0  0
  159.7600  212.7870  150.8790 C   0  0  2  0  0  3  0  0  0  0  0  0
  159.3430  214.4520  147.3600 C   0  0  0  0  0  2  0  0  0  0  0  0
  160.7790  213.0900  148.7240 C   0  0  0  0  0  0  0  0  0  0  0  0
  162.1610  210.5910  155.2610 C   0  0  0  0  0  3  0  0  0  0  0  0
  157.7310  209.6830  155.9190 C   0  0  0  0  0  3  0  0  0  0  0  0
  156.4240  211.0930  154.5080 O   0  0  0  0  0  0  0  0  0  0  0  0
  159.9710  210.9720  154.7860 C   0  0  0  0  0  0  0  0  0  0  0  0
  161.2950  209.7110  156.0690 N   0  0  0  0  0  0  0  0  0  0  0  0
  161.2700  211.3630  154.3870 N   0  0  0  0  0  0  0  0  0  0  0  0
  158.8070  211.3030  154.2290 C   0  0  0  0  0  0  0  0  0  0  0  0
  157.5800  210.7280  154.8620 C   0  0  0  0  0  0  0  0  0  0  0  0
  158.9220  209.3280  156.3380 N   0  0  0  0  0  0  0  0  0  0  0  0
  160.0690  210.0110  155.8230 C   0  0  0  0  0  0  0  0  0  0  0  0
  162.3100  206.8300  151.1410 O   0  0  0  0  0  0  0  0  0  0  0  0
  162.2630  209.2210  151.1470 C   0  0  2  0  0  3  0  0  0  0  0  0
  162.0660  207.9530  150.3340 C   0  0  1  0  0  3  0  0  0  0  0  0
  162.1640  207.2420  152.4860 C   0  0  0  0  0  2  0  0  0  0  0  0
  161.9790  208.7430  152.5460 C   0  0  0  0  0  2  0  0  0  0  0  0
  163.0110  207.9240  149.1360 C   0  0  0  0  0  2  0  0  0  0  0  0
  162.3120  207.3940  147.9730 N   0  0  0  0  0  2  0  0  0  0  0  0
  161.0690  206.7900  148.4510 C   0  0  0  0  0  2  0  0  0  0  0  0
  161.8860  205.3440  145.9890 C   0  0  0  0  0  2  0  0  0  0  0  0
  160.1050  204.6470  144.5130 N   0  0  0  0  0  1  0  0  0  0  0  0
  161.7070  203.2000  147.0660 C   0  0  1  0  0  3  0  0  0  0  0  0
  160.0920  201.3840  147.5790 C   0  0  0  0  0  2  0  0  0  0  0  0
  160.5070  204.5870  149.2990 N   0  0  0  0  0  0  0  0  0  0  0  0
  161.4740  204.3580  144.9170 C   0  0  2  0  0  3  0  0  0  0  0  0
  160.4390  203.1190  149.2990 C   0  0  1  0  0  3  0  0  0  0  0  0
  160.6110  202.5770  147.8980 C   0  0  0  0  0  0  0  0  0  0  0  0
  161.5280  202.9780  145.5660 C   0  0  0  0  0  2  0  0  0  0  0  0
  161.7120  204.6430  147.2470 N   0  0  0  0  0  0  0  0  0  0  0  0
  161.1420  205.2890  148.4020 C   0  0  0  0  0  0  0  0  0  0  0  0
  160.9520  202.3340  151.6210 C   0  0  0  0  0  1  0  0  0  0  0  0
  161.5140  202.5700  150.2330 C   0  0  0  0  0  2  0  0  0  0  0  0
  1  7  1  0  0  0  0
  1 25  1  1  0  0  0
  3  2  1  1  0  0  0
  3 30  1  0  0  0  0
  3 15  1  0  0  0  0
  5  7  1  0  0  0  0
  6 17  1  0  0  0  0
  7  4  1  6  0  0  0
  8 15  2  0  0  0  0
  8  1  1  0  0  0  0
  9 11  2  0  0  0  0
 10 18  2  0  0  0  0
 11 12  1  0  0  0  0
 12 10  1  0  0  0  0
 13 11  1  0  0  0  0
 13  6  1  0  0  0  0
 14  2  1  0  0  0  0
 14 16  1  0  0  0  0
 16  5  1  1  0  0  0
 16  8  1  0  0  0  0
 17 10  1  0  0  0  0
 18 14  2  0  0  0  0
 19 23  1  0  0  0  0
 20 27  2  0  0  0  0
 21 26  2  0  0  0  0
 22 28  1  0  0  0  0
 24 22  1  0  0  0  0
 24 19  2  0  0  0  0
 25 22  2  0  0  0  0
 25 26  1  0  0  0  0
 26 20  1  0  0  0  0
 28 23  2  0  0  0  0
 28 27  1  0  0  0  0
 29 32  1  0  0  0  0
 30 33  1  1  0  0  0
 31 34  1  6  0  0  0
 31 29  1  0  0  0  0
 31 30  1  0  0  0  0
 32 33  1  0  0  0  0
 35 36  1  0  0  0  0
 35 34  1  0  0  0  0
 37 46  1  0  0  0  0
 39 45  1  6  0  0  0
 39 46  1  0  0  0  0
 39 44  1  0  0  0  0
 40 44  2  0  0  0  0
 41 43  1  0  0  0  0
 42 38  1  1  0  0  0
 42 45  1  0  0  0  0
 42 37  1  0  0  0  0
 43 49  1  1  0  0  0
 44 43  1  0  0  0  0
 46 47  1  0  0  0  0
 47 36  1  0  0  0  0
 47 41  2  0  0  0  0
 49 48  1  0  0  0  0
M  END
>  <MODEL>
5

>  <REMARK>
 VINA RESULT:      -4.0      1.705      2.122
  Name = 
  7 active torsions:
  status: ('A' for Active; 'I' for Inactive)
    1  A    between atoms: C_3  and  C_42
    2  A    between atoms: C_8  and  C_14
    3  A    between atoms: C_13  and  N_39
    4  A    between atoms: C_13  and  C_41
    5  A    between atoms: C_18  and  C_47
    6  A    between atoms: C_20  and  C_31
    7  A    between atoms: N_39  and  C_47
                            x       y       z     vdW  Elec       q    Type
                         _______ _______ _______ _____ _____    ______ ____

>  <TORSDO>
F 7

$$$$
