=
 OpenBabel11042422033D

 59 67  0  0  1  0  0  0  0  0999 V2000
  161.6350  204.9720  151.6180 C   0  0  0  0  0  0  0  0  0  0  0  0
  160.9650  209.6630  153.3290 C   0  0  0  0  0  0  0  0  0  0  0  0
  161.4530  209.7750  152.0640 N   0  0  0  0  0  0  0  0  0  0  0  0
  161.0600  207.2620  153.1340 C   0  0  0  0  0  0  0  0  0  0  0  0
  160.8610  205.9950  153.6810 C   0  0  0  0  0  3  0  0  0  0  0  0
  161.8340  206.2420  151.0690 C   0  0  0  0  0  3  0  0  0  0  0  0
  161.5510  207.3970  151.8190 C   0  0  0  0  0  0  0  0  0  0  0  0
  160.7800  208.3960  153.8900 C   0  0  0  0  0  3  0  0  0  0  0  0
  161.1460  204.8530  152.9260 C   0  0  0  0  0  3  0  0  0  0  0  0
  161.7510  208.6890  151.2980 C   0  0  0  0  0  0  0  0  0  0  0  0
  161.0060  209.4650  156.0580 O   0  0  0  0  0  0  0  0  0  0  0  0
  159.1640  213.1980  155.8140 C   0  0  1  0  0  3  0  0  0  0  0  0
  161.1240  211.7220  156.5570 N   0  0  0  0  0  2  0  0  0  0  0  0
  158.6200  213.1650  152.1600 N   0  0  0  0  0  2  0  0  0  0  0  0
  160.7350  210.9090  154.1450 C   0  0  1  0  0  3  0  0  0  0  0  0
  159.3960  211.5920  153.8180 C   0  0  1  0  0  3  0  0  0  0  0  0
  160.9320  213.9360  157.2320 O   0  0  0  0  0  0  0  0  0  0  0  0
  160.4570  212.9890  156.5450 C   0  0  0  0  0  0  0  0  0  0  0  0
  159.3910  213.0050  154.3090 C   0  0  1  0  0  3  0  0  0  0  0  0
  158.5400  213.7920  153.4170 N   0  0  0  0  0  0  0  0  0  0  0  0
  160.9210  210.6490  155.6290 C   0  0  0  0  0  0  0  0  0  0  0  0
  157.1460  213.7240  153.8220 C   0  0  0  0  0  1  0  0  0  0  0  0
  159.2030  211.8290  152.3410 C   0  0  0  0  0  2  0  0  0  0  0  0
  158.0680  212.2820  156.3770 C   0  0  0  0  0  2  0  0  0  0  0  0
  157.0990  213.0530  157.2590 C   0  0  0  0  0  2  0  0  0  0  0  0
  155.7240  212.4270  157.2090 C   0  0  0  0  0  2  0  0  0  0  0  0
  155.5400  211.7280  155.8780 C   0  0  0  0  0  2  0  0  0  0  0  0
  154.0840  210.1950  157.2610 N   0  0  0  0  0  1  0  0  0  0  0  0
  154.9140  209.5350  155.1910 O   0  0  0  0  0  0  0  0  0  0  0  0
  154.8410  210.4270  156.0770 C   0  0  0  0  0  0  0  0  0  0  0  0
  161.9420  203.8130  150.8340 N   0  0  0  0  0  2  0  0  0  0  0  0
  159.2110  201.6850  149.3190 C   0  0  0  0  0  2  0  0  0  0  0  0
  160.6430  201.6200  148.8110 C   0  0  2  0  0  0  0  0  0  0  0  0
  161.0510  202.6670  150.7110 C   0  0  2  0  0  3  0  0  0  0  0  0
  161.9510  201.2490  150.0070 S   0  0  0  0  0  0  0  0  0  0  0  0
  160.1320  202.8670  149.5230 C   0  0  2  0  0  3  0  0  0  0  0  0
  161.3270  204.3920  147.9060 C   0  0  0  0  0  2  0  0  0  0  0  0
  160.9720  201.9340  147.3830 C   0  0  0  0  0  0  0  0  0  0  0  0
  160.9030  201.0220  146.5070 O   0  0  0  0  0  0  0  0  0  0  0  0
  161.7210  203.6220  145.6470 C   0  0  0  0  0  2  0  0  0  0  0  0
  161.3390  203.2630  147.0000 N   0  0  0  0  0  0  0  0  0  0  0  0
  161.8930  205.1220  145.6570 C   0  0  0  0  0  2  0  0  0  0  0  0
  161.8950  205.5520  147.1170 C   0  0  0  0  0  2  0  0  0  0  0  0
  162.3230  208.8970  149.9280 C   0  0  0  0  0  2  0  0  0  0  0  0
  161.5710  209.9170  149.2100 N   0  0  0  0  0  2  0  0  0  0  0  0
  162.9030  211.6270  148.1120 C   0  0  0  0  0  2  0  0  0  0  0  0
  161.8970  212.7500  147.9610 C   0  0  2  0  0  3  0  0  0  0  0  0
  162.2410  211.1930  149.4050 C   0  0  1  0  0  3  0  0  0  0  0  0
  161.2400  212.3220  149.2590 C   0  0  0  0  0  2  0  0  0  0  0  0
  161.0020  212.4700  146.8500 N   0  0  0  0  0  2  0  0  0  0  0  0
  162.2680  213.6460  145.2890 O   0  0  0  0  0  0  0  0  0  0  0  0
  161.2770  212.9070  145.5180 C   0  0  0  0  0  0  0  0  0  0  0  0
  160.3930  212.4380  144.3990 C   0  0  1  0  0  3  0  0  0  0  0  0
  159.0120  213.0760  144.4230 C   0  0  0  0  0  1  0  0  0  0  0  0
  161.0590  212.6000  143.0340 C   0  0  0  0  0  2  0  0  0  0  0  0
  160.3470  211.8130  141.9360 C   0  0  2  0  0  3  0  0  0  0  0  0
  160.7990  210.5210  140.1240 O   0  0  0  0  0  1  0  0  0  0  0  0
  161.2770  211.5820  140.8220 N   0  0  0  0  0  0  0  0  0  0  0  0
  160.2540  212.6290  140.7380 C   0  0  0  0  0  2  0  0  0  0  0  0
  1  9  1  0  0  0  0
  2  8  1  0  0  0  0
  3  2  2  0  0  0  0
  4  5  1  0  0  0  0
  4  8  2  0  0  0  0
  6  1  2  0  0  0  0
  6  7  1  0  0  0  0
  7  4  1  0  0  0  0
  9  5  2  0  0  0  0
 10  7  2  0  0  0  0
 10  3  1  0  0  0  0
 12 24  1  1  0  0  0
 12 18  1  0  0  0  0
 14 23  1  0  0  0  0
 14 20  1  0  0  0  0
 15  2  1  6  0  0  0
 15 21  1  0  0  0  0
 16 23  1  6  0  0  0
 16 15  1  0  0  0  0
 16 19  1  0  0  0  0
 18 13  1  0  0  0  0
 18 17  2  0  0  0  0
 19 20  1  6  0  0  0
 19 12  1  0  0  0  0
 20 22  1  0  0  0  0
 21 11  2  0  0  0  0
 21 13  1  0  0  0  0
 24 25  1  0  0  0  0
 26 25  1  0  0  0  0
 27 30  1  0  0  0  0
 27 26  1  0  0  0  0
 29 30  2  0  0  0  0
 30 28  1  0  0  0  0
 31  1  1  0  0  0  0
 33 38  1  6  0  0  0
 33 32  1  0  0  0  0
 33 36  1  0  0  0  0
 33 35  1  0  0  0  0
 34 31  1  6  0  0  0
 35 34  1  0  0  0  0
 36 32  1  1  0  0  0
 36 34  1  0  0  0  0
 39 38  2  0  0  0  0
 40 42  1  0  0  0  0
 40 41  1  0  0  0  0
 41 38  1  0  0  0  0
 41 37  1  0  0  0  0
 42 43  1  0  0  0  0
 43 37  1  0  0  0  0
 44 10  1  0  0  0  0
 45 44  1  0  0  0  0
 46 48  1  0  0  0  0
 47 50  1  6  0  0  0
 47 46  1  0  0  0  0
 47 49  1  0  0  0  0
 48 45  1  6  0  0  0
 49 48  1  0  0  0  0
 51 52  2  0  0  0  0
 52 50  1  0  0  0  0
 53 54  1  6  0  0  0
 53 52  1  0  0  0  0
 55 53  1  0  0  0  0
 56 55  1  1  0  0  0
 57 58  1  0  0  0  0
 58 56  1  0  0  0  0
 59 58  1  0  0  0  0
 59 56  1  0  0  0  0
M  END
>  <MODEL>
1

>  <REMARK>
 VINA RESULT:      -7.6      0.000      0.000
  Name = 
  16 active torsions:
  status: ('A' for Active; 'I' for Inactive)
    1  A    between atoms: C_3  and  C_25
    2  A    between atoms: C_4  and  N_43
    3  A    between atoms: C_5  and  C_7
    4  A    between atoms: C_5  and  C_14
    5  A    between atoms: C_6  and  C_11
    6  A    between atoms: C_7  and  C_9
    7  A    between atoms: C_8  and  C_29
    8  A    between atoms: C_9  and  C_21
    9  A    between atoms: C_13  and  C_25
   10  A    between atoms: C_13  and  C_57
   11  A    between atoms: N_15  and  C_26
   12  A    between atoms: C_19  and  N_43
   13  A    between atoms: C_21  and  C_56
   14  A    between atoms: N_30  and  C_39
   15  A    between atoms: N_30  and  C_51
   16  A    between atoms: C_51  and  C_54
                            x       y       z     vdW  Elec       q    Type
                         _______ _______ _______ _____ _____    ______ ____

>  <TORSDO>
F 16

$$$$
=
 OpenBabel11042422033D

 59 67  0  0  1  0  0  0  0  0999 V2000
  161.0610  213.4390  146.7600 C   0  0  0  0  0  0  0  0  0  0  0  0
  160.8840  211.8880  151.5500 C   0  0  0  0  0  0  0  0  0  0  0  0
  161.4920  210.8980  150.8420 N   0  0  0  0  0  0  0  0  0  0  0  0
  160.6460  213.1690  149.5220 C   0  0  0  0  0  0  0  0  0  0  0  0
  160.2140  214.3180  148.8610 C   0  0  0  0  0  3  0  0  0  0  0  0
  161.4950  212.2870  147.4230 C   0  0  0  0  0  3  0  0  0  0  0  0
  161.2920  212.1390  148.8060 C   0  0  0  0  0  0  0  0  0  0  0  0
  160.4330  213.0340  150.8910 C   0  0  0  0  0  3  0  0  0  0  0  0
  160.4220  214.4530  147.4840 C   0  0  0  0  0  3  0  0  0  0  0  0
  161.7070  210.9880  149.5000 C   0  0  0  0  0  0  0  0  0  0  0  0
  162.3880  210.0580  152.9220 O   0  0  0  0  0  0  0  0  0  0  0  0
  159.3240  210.4500  155.7230 C   0  0  1  0  0  3  0  0  0  0  0  0
  161.7930  210.6780  155.0710 N   0  0  0  0  0  2  0  0  0  0  0  0
  157.0670  212.4650  153.6050 N   0  0  0  0  0  2  0  0  0  0  0  0
  160.6090  211.6840  153.0180 C   0  0  1  0  0  3  0  0  0  0  0  0
  159.1500  211.2860  153.2970 C   0  0  1  0  0  3  0  0  0  0  0  0
  161.0720  210.9630  157.2610 O   0  0  0  0  0  0  0  0  0  0  0  0
  160.7580  210.7370  156.0590 C   0  0  0  0  0  0  0  0  0  0  0  0
  158.8090  211.5060  154.7360 C   0  0  1  0  0  3  0  0  0  0  0  0
  157.3860  211.8340  154.8200 N   0  0  0  0  0  0  0  0  0  0  0  0
  161.6130  210.7380  153.6510 C   0  0  0  0  0  0  0  0  0  0  0  0
  156.5700  210.6330  154.8870 C   0  0  0  0  0  1  0  0  0  0  0  0
  158.1530  212.2140  152.6480 C   0  0  0  0  0  2  0  0  0  0  0  0
  159.1650  209.0150  155.2020 C   0  0  0  0  0  2  0  0  0  0  0  0
  159.9640  208.0280  156.0380 C   0  0  0  0  0  2  0  0  0  0  0  0
  160.3640  206.8310  155.2070 C   0  0  0  0  0  2  0  0  0  0  0  0
  161.1170  207.3010  153.9810 C   0  0  0  0  0  2  0  0  0  0  0  0
  160.6150  205.0650  152.9180 N   0  0  0  0  0  1  0  0  0  0  0  0
  162.6840  206.0910  152.6570 O   0  0  0  0  0  0  0  0  0  0  0  0
  161.5280  206.1310  153.1540 C   0  0  0  0  0  0  0  0  0  0  0  0
  161.2740  213.5570  145.3480 N   0  0  0  0  0  2  0  0  0  0  0  0
  159.6570  214.1690  141.9880 C   0  0  0  0  0  2  0  0  0  0  0  0
  160.3450  212.8520  142.3110 C   0  0  2  0  0  0  0  0  0  0  0  0
  160.1920  213.6180  144.3750 C   0  0  2  0  0  3  0  0  0  0  0  0
  159.7940  211.9440  143.7780 S   0  0  0  0  0  0  0  0  0  0  0  0
  160.7300  214.1260  143.0530 C   0  0  2  0  0  3  0  0  0  0  0  0
  159.9630  211.0430  139.9560 C   0  0  0  0  0  2  0  0  0  0  0  0
  161.4980  212.3590  141.4890 C   0  0  0  0  0  0  0  0  0  0  0  0
  162.6820  212.6580  141.8240 O   0  0  0  0  0  0  0  0  0  0  0  0
  162.3340  211.0680  139.4750 C   0  0  0  0  0  2  0  0  0  0  0  0
  161.2680  211.5330  140.3430 N   0  0  0  0  0  0  0  0  0  0  0  0
  161.6760  210.1320  138.4890 C   0  0  0  0  0  2  0  0  0  0  0  0
  160.1730  210.3250  138.6400 C   0  0  0  0  0  2  0  0  0  0  0  0
  162.3480  209.8360  148.7850 C   0  0  0  0  0  2  0  0  0  0  0  0
  161.3850  208.7610  148.5830 N   0  0  0  0  0  2  0  0  0  0  0  0
  160.4910  206.7170  149.5450 C   0  0  0  0  0  2  0  0  0  0  0  0
  161.6250  205.7420  149.3020 C   0  0  2  0  0  3  0  0  0  0  0  0
  161.4850  207.8490  149.7130 C   0  0  1  0  0  3  0  0  0  0  0  0
  162.6200  206.8720  149.4780 C   0  0  0  0  0  2  0  0  0  0  0  0
  161.6220  205.3110  147.9140 N   0  0  0  0  0  2  0  0  0  0  0  0
  161.3400  203.0550  148.4190 O   0  0  0  0  0  0  0  0  0  0  0  0
  161.4200  203.9480  147.5370 C   0  0  0  0  0  0  0  0  0  0  0  0
  161.2640  203.6080  146.0830 C   0  0  1  0  0  3  0  0  0  0  0  0
  160.9540  202.1370  145.8460 C   0  0  0  0  0  1  0  0  0  0  0  0
  160.2490  204.5110  145.3870 C   0  0  0  0  0  2  0  0  0  0  0  0
  160.9080  205.6650  144.6340 C   0  0  2  0  0  3  0  0  0  0  0  0
  161.6310  206.2230  142.5550 O   0  0  0  0  0  1  0  0  0  0  0  0
  161.4960  205.1590  143.3850 N   0  0  0  0  0  0  0  0  0  0  0  0
  162.3400  205.4340  144.5520 C   0  0  0  0  0  2  0  0  0  0  0  0
  1  6  2  0  0  0  0
  1  9  1  0  0  0  0
  3  2  2  0  0  0  0
  4  8  2  0  0  0  0
  5  4  1  0  0  0  0
  6  7  1  0  0  0  0
  7 10  2  0  0  0  0
  7  4  1  0  0  0  0
  8  2  1  0  0  0  0
  9  5  2  0  0  0  0
 10  3  1  0  0  0  0
 11 21  2  0  0  0  0
 12 24  1  6  0  0  0
 12 18  1  0  0  0  0
 13 18  1  0  0  0  0
 14 20  1  0  0  0  0
 15  2  1  6  0  0  0
 15 16  1  0  0  0  0
 15 21  1  0  0  0  0
 16 23  1  6  0  0  0
 16 19  1  0  0  0  0
 18 17  2  0  0  0  0
 19 20  1  6  0  0  0
 19 12  1  0  0  0  0
 20 22  1  0  0  0  0
 21 13  1  0  0  0  0
 23 14  1  0  0  0  0
 24 25  1  0  0  0  0
 26 25  1  0  0  0  0
 27 26  1  0  0  0  0
 28 30  1  0  0  0  0
 29 30  2  0  0  0  0
 30 27  1  0  0  0  0
 31  1  1  0  0  0  0
 32 33  1  0  0  0  0
 33 38  1  6  0  0  0
 33 36  1  0  0  0  0
 33 35  1  0  0  0  0
 34 31  1  1  0  0  0
 35 34  1  0  0  0  0
 36 32  1  6  0  0  0
 36 34  1  0  0  0  0
 37 41  1  0  0  0  0
 38 39  2  0  0  0  0
 40 41  1  0  0  0  0
 41 38  1  0  0  0  0
 42 43  1  0  0  0  0
 42 40  1  0  0  0  0
 43 37  1  0  0  0  0
 44 10  1  0  0  0  0
 45 44  1  0  0  0  0
 46 48  1  0  0  0  0
 47 50  1  6  0  0  0
 47 49  1  0  0  0  0
 47 46  1  0  0  0  0
 48 45  1  6  0  0  0
 49 48  1  0  0  0  0
 52 50  1  0  0  0  0
 52 51  2  0  0  0  0
 53 54  1  1  0  0  0
 53 52  1  0  0  0  0
 55 53  1  0  0  0  0
 56 55  1  1  0  0  0
 57 58  1  0  0  0  0
 58 59  1  0  0  0  0
 58 56  1  0  0  0  0
 59 56  1  0  0  0  0
M  END
>  <MODEL>
2

>  <REMARK>
 VINA RESULT:      -7.2      2.716      7.815
  Name = 
  16 active torsions:
  status: ('A' for Active; 'I' for Inactive)
    1  A    between atoms: C_3  and  C_25
    2  A    between atoms: C_4  and  N_43
    3  A    between atoms: C_5  and  C_7
    4  A    between atoms: C_5  and  C_14
    5  A    between atoms: C_6  and  C_11
    6  A    between atoms: C_7  and  C_9
    7  A    between atoms: C_8  and  C_29
    8  A    between atoms: C_9  and  C_21
    9  A    between atoms: C_13  and  C_25
   10  A    between atoms: C_13  and  C_57
   11  A    between atoms: N_15  and  C_26
   12  A    between atoms: C_19  and  N_43
   13  A    between atoms: C_21  and  C_56
   14  A    between atoms: N_30  and  C_39
   15  A    between atoms: N_30  and  C_51
   16  A    between atoms: C_51  and  C_54
                            x       y       z     vdW  Elec       q    Type
                         _______ _______ _______ _____ _____    ______ ____

>  <TORSDO>
F 16

$$$$
=
 OpenBabel11042422033D

 59 67  0  0  1  0  0  0  0  0999 V2000
  162.4190  207.2120  149.1250 C   0  0  0  0  0  0  0  0  0  0  0  0
  160.8320  210.9180  152.1460 C   0  0  0  0  0  0  0  0  0  0  0  0
  161.0270  211.4720  150.9190 N   0  0  0  0  0  0  0  0  0  0  0  0
  161.5370  208.7840  151.2760 C   0  0  0  0  0  0  0  0  0  0  0  0
  161.7960  207.4260  151.4630 C   0  0  0  0  0  3  0  0  0  0  0  0
  162.1590  208.5720  148.9360 C   0  0  0  0  0  3  0  0  0  0  0  0
  161.7190  209.3710  150.0060 C   0  0  0  0  0  0  0  0  0  0  0  0
  161.1070  209.5620  152.3460 C   0  0  0  0  0  3  0  0  0  0  0  0
  162.2340  206.6420  150.3910 C   0  0  0  0  0  3  0  0  0  0  0  0
  161.4590  210.7450  149.8510 C   0  0  0  0  0  0  0  0  0  0  0  0
  161.6790  210.2520  154.6620 O   0  0  0  0  0  0  0  0  0  0  0  0
  158.7000  212.9430  155.7890 C   0  0  1  0  0  3  0  0  0  0  0  0
  161.1650  212.2410  155.7270 N   0  0  0  0  0  2  0  0  0  0  0  0
  157.2250  213.3750  152.4300 N   0  0  0  0  0  2  0  0  0  0  0  0
  160.4290  211.8010  153.2990 C   0  0  1  0  0  3  0  0  0  0  0  0
  158.9040  211.9540  153.4230 C   0  0  1  0  0  3  0  0  0  0  0  0
  160.4330  214.0380  157.0050 O   0  0  0  0  0  0  0  0  0  0  0  0
  160.1360  213.1250  156.1850 C   0  0  0  0  0  0  0  0  0  0  0  0
  158.5600  213.1350  154.2730 C   0  0  1  0  0  3  0  0  0  0  0  0
  157.2850  213.6770  153.8020 N   0  0  0  0  0  0  0  0  0  0  0  0
  161.0890  211.3660  154.5950 C   0  0  0  0  0  0  0  0  0  0  0  0
  156.1610  212.9950  154.4220 C   0  0  0  0  0  1  0  0  0  0  0  0
  158.2480  212.3650  152.1280 C   0  0  0  0  0  2  0  0  0  0  0  0
  158.1720  211.5850  156.2720 C   0  0  0  0  0  2  0  0  0  0  0  0
  158.7310  210.4420  155.4410 C   0  0  0  0  0  2  0  0  0  0  0  0
  158.8240  209.1800  156.2680 C   0  0  0  0  0  2  0  0  0  0  0  0
  159.9640  209.3110  157.2550 C   0  0  0  0  0  2  0  0  0  0  0  0
  160.2880  206.8110  157.0910 N   0  0  0  0  0  1  0  0  0  0  0  0
  162.1010  208.2650  157.1670 O   0  0  0  0  0  0  0  0  0  0  0  0
  160.8510  208.1170  157.1730 C   0  0  0  0  0  0  0  0  0  0  0  0
  162.8760  206.4260  148.0180 N   0  0  0  0  0  2  0  0  0  0  0  0
  161.9170  205.0370  144.6370 C   0  0  0  0  0  2  0  0  0  0  0  0
  161.1800  204.6280  145.9020 C   0  0  2  0  0  0  0  0  0  0  0  0
  162.2120  206.3980  146.7230 C   0  0  2  0  0  3  0  0  0  0  0  0
  160.4620  205.9370  146.9270 S   0  0  0  0  0  0  0  0  0  0  0  0
  162.6130  205.1430  145.9750 C   0  0  2  0  0  3  0  0  0  0  0  0
  161.0560  203.8340  148.7870 C   0  0  0  0  0  2  0  0  0  0  0  0
  161.1190  203.1930  146.3320 C   0  0  0  0  0  0  0  0  0  0  0  0
  161.1830  202.2740  145.4640 O   0  0  0  0  0  0  0  0  0  0  0  0
  160.8960  201.4930  148.1980 C   0  0  0  0  0  2  0  0  0  0  0  0
  161.0140  202.8580  147.7190 N   0  0  0  0  0  0  0  0  0  0  0  0
  160.9470  201.5850  149.7050 C   0  0  0  0  0  2  0  0  0  0  0  0
  160.7890  203.0570  150.0580 C   0  0  0  0  0  2  0  0  0  0  0  0
  161.6870  211.4380  148.5410 C   0  0  0  0  0  2  0  0  0  0  0  0
  162.7310  212.4450  148.6710 N   0  0  0  0  0  2  0  0  0  0  0  0
  162.8390  214.4510  147.3030 C   0  0  0  0  0  2  0  0  0  0  0  0
  161.6110  214.2920  146.4290 C   0  0  2  0  0  3  0  0  0  0  0  0
  162.1290  213.7510  148.4450 C   0  0  1  0  0  3  0  0  0  0  0  0
  160.8980  213.5990  147.5740 C   0  0  0  0  0  2  0  0  0  0  0  0
  161.8760  213.3310  145.3710 N   0  0  0  0  0  2  0  0  0  0  0  0
  160.2910  214.2180  143.9130 O   0  0  0  0  0  0  0  0  0  0  0  0
  161.2120  213.3840  144.1070 C   0  0  0  0  0  0  0  0  0  0  0  0
  161.6570  212.4620  143.0090 C   0  0  1  0  0  3  0  0  0  0  0  0
  160.5240  211.6190  142.4440 C   0  0  0  0  0  1  0  0  0  0  0  0
  162.4060  213.2040  141.9030 C   0  0  0  0  0  2  0  0  0  0  0  0
  162.3010  212.5030  140.5510 C   0  0  2  0  0  3  0  0  0  0  0  0
  163.6080  211.7740  138.8420 O   0  0  0  0  0  1  0  0  0  0  0  0
  163.5240  212.7550  139.7760 N   0  0  0  0  0  0  0  0  0  0  0  0
  162.2920  213.4950  139.4900 C   0  0  0  0  0  2  0  0  0  0  0  0
  1  9  1  0  0  0  0
  2  8  1  0  0  0  0
  3  2  2  0  0  0  0
  4  5  1  0  0  0  0
  4  8  2  0  0  0  0
  6  1  2  0  0  0  0
  6  7  1  0  0  0  0
  7  4  1  0  0  0  0
  9  5  2  0  0  0  0
 10  7  2  0  0  0  0
 10  3  1  0  0  0  0
 12 18  1  0  0  0  0
 12 24  1  6  0  0  0
 13 18  1  0  0  0  0
 14 20  1  0  0  0  0
 15  2  1  6  0  0  0
 15 16  1  0  0  0  0
 15 21  1  0  0  0  0
 16 23  1  6  0  0  0
 16 19  1  0  0  0  0
 18 17  2  0  0  0  0
 19 20  1  1  0  0  0
 19 12  1  0  0  0  0
 20 22  1  0  0  0  0
 21 11  2  0  0  0  0
 21 13  1  0  0  0  0
 23 14  1  0  0  0  0
 25 26  1  0  0  0  0
 25 24  1  0  0  0  0
 26 27  1  0  0  0  0
 28 30  1  0  0  0  0
 29 30  2  0  0  0  0
 30 27  1  0  0  0  0
 31  1  1  0  0  0  0
 32 33  1  0  0  0  0
 33 36  1  0  0  0  0
 33 38  1  1  0  0  0
 33 35  1  0  0  0  0
 34 35  1  0  0  0  0
 34 31  1  1  0  0  0
 36 32  1  6  0  0  0
 36 34  1  0  0  0  0
 37 43  1  0  0  0  0
 38 41  1  0  0  0  0
 39 38  2  0  0  0  0
 40 42  1  0  0  0  0
 41 40  1  0  0  0  0
 41 37  1  0  0  0  0
 42 43  1  0  0  0  0
 44 45  1  0  0  0  0
 44 10  1  0  0  0  0
 46 48  1  0  0  0  0
 47 50  1  6  0  0  0
 47 46  1  0  0  0  0
 47 49  1  0  0  0  0
 48 45  1  6  0  0  0
 49 48  1  0  0  0  0
 51 52  2  0  0  0  0
 52 50  1  0  0  0  0
 53 54  1  6  0  0  0
 53 52  1  0  0  0  0
 55 53  1  0  0  0  0
 56 55  1  1  0  0  0
 57 58  1  0  0  0  0
 58 56  1  0  0  0  0
 59 58  1  0  0  0  0
 59 56  1  0  0  0  0
M  END
>  <MODEL>
3

>  <REMARK>
 VINA RESULT:      -6.3      2.143      3.262
  Name = 
  16 active torsions:
  status: ('A' for Active; 'I' for Inactive)
    1  A    between atoms: C_3  and  C_25
    2  A    between atoms: C_4  and  N_43
    3  A    between atoms: C_5  and  C_7
    4  A    between atoms: C_5  and  C_14
    5  A    between atoms: C_6  and  C_11
    6  A    between atoms: C_7  and  C_9
    7  A    between atoms: C_8  and  C_29
    8  A    between atoms: C_9  and  C_21
    9  A    between atoms: C_13  and  C_25
   10  A    between atoms: C_13  and  C_57
   11  A    between atoms: N_15  and  C_26
   12  A    between atoms: C_19  and  N_43
   13  A    between atoms: C_21  and  C_56
   14  A    between atoms: N_30  and  C_39
   15  A    between atoms: N_30  and  C_51
   16  A    between atoms: C_51  and  C_54
                            x       y       z     vdW  Elec       q    Type
                         _______ _______ _______ _____ _____    ______ ____

>  <TORSDO>
F 16

$$$$
=
 OpenBabel11042422033D

 59 67  0  0  1  0  0  0  0  0999 V2000
  161.6110  204.4440  151.4220 C   0  0  0  0  0  0  0  0  0  0  0  0
  160.9910  209.1170  153.1990 C   0  0  0  0  0  0  0  0  0  0  0  0
  161.2870  209.2390  151.8770 N   0  0  0  0  0  0  0  0  0  0  0  0
  161.1610  206.7210  152.9980 C   0  0  0  0  0  0  0  0  0  0  0  0
  161.0990  205.4510  153.5720 C   0  0  0  0  0  3  0  0  0  0  0  0
  161.6730  205.7160  150.8460 C   0  0  0  0  0  3  0  0  0  0  0  0
  161.4510  206.8650  151.6260 C   0  0  0  0  0  0  0  0  0  0  0  0
  160.9450  207.8490  153.7840 C   0  0  0  0  0  3  0  0  0  0  0  0
  161.3210  204.3170  152.7860 C   0  0  0  0  0  3  0  0  0  0  0  0
  161.5180  208.1600  151.0790 C   0  0  0  0  0  0  0  0  0  0  0  0
  160.6480  208.8380  155.8990 O   0  0  0  0  0  0  0  0  0  0  0  0
  159.3770  212.7980  155.5990 C   0  0  1  0  0  3  0  0  0  0  0  0
  161.0050  211.0410  156.5130 N   0  0  0  0  0  2  0  0  0  0  0  0
  159.3170  212.9460  151.9080 N   0  0  0  0  0  2  0  0  0  0  0  0
  160.8270  210.3590  154.0360 C   0  0  1  0  0  3  0  0  0  0  0  0
  159.6480  211.2330  153.5760 C   0  0  1  0  0  3  0  0  0  0  0  0
  161.0280  213.2400  157.2610 O   0  0  0  0  0  0  0  0  0  0  0  0
  160.5230  212.3890  156.4760 C   0  0  0  0  0  0  0  0  0  0  0  0
  159.7710  212.6180  154.1270 C   0  0  1  0  0  3  0  0  0  0  0  0
  159.1580  213.5420  153.1720 N   0  0  0  0  0  0  0  0  0  0  0  0
  160.7810  210.0340  155.5180 C   0  0  0  0  0  0  0  0  0  0  0  0
  157.7270  213.6590  153.3960 C   0  0  0  0  0  1  0  0  0  0  0  0
  159.6840  211.5370  152.0990 C   0  0  0  0  0  2  0  0  0  0  0  0
  158.1030  212.0300  155.9770 C   0  0  0  0  0  2  0  0  0  0  0  0
  156.9660  212.9770  156.3250 C   0  0  0  0  0  2  0  0  0  0  0  0
  155.6960  212.2030  156.5980 C   0  0  0  0  0  2  0  0  0  0  0  0
  155.6050  211.0350  155.6380 C   0  0  0  0  0  2  0  0  0  0  0  0
  154.0920  209.0560  155.2190 N   0  0  0  0  0  1  0  0  0  0  0  0
  154.0830  210.1760  157.2560 O   0  0  0  0  0  0  0  0  0  0  0  0
  154.5550  210.0800  156.0930 C   0  0  0  0  0  0  0  0  0  0  0  0
  161.8510  203.2920  150.6040 N   0  0  0  0  0  2  0  0  0  0  0  0
  159.0240  201.4550  148.8980 C   0  0  0  0  0  2  0  0  0  0  0  0
  160.4670  201.2830  148.4520 C   0  0  2  0  0  0  0  0  0  0  0  0
  160.8740  202.2320  150.4020 C   0  0  2  0  0  3  0  0  0  0  0  0
  161.6820  200.7640  149.6900 S   0  0  0  0  0  0  0  0  0  0  0  0
  160.0310  202.5470  149.1840 C   0  0  2  0  0  3  0  0  0  0  0  0
  160.9530  204.0970  147.5530 C   0  0  0  0  0  2  0  0  0  0  0  0
  160.8880  201.6110  147.0510 C   0  0  0  0  0  0  0  0  0  0  0  0
  160.9860  200.6860  146.1920 O   0  0  0  0  0  0  0  0  0  0  0  0
  161.6170  203.3440  145.3520 C   0  0  0  0  0  2  0  0  0  0  0  0
  161.1550  202.9650  146.6740 N   0  0  0  0  0  0  0  0  0  0  0  0
  161.6400  204.8540  145.3460 C   0  0  0  0  0  2  0  0  0  0  0  0
  161.4720  205.2990  146.7920 C   0  0  0  0  0  2  0  0  0  0  0  0
  161.8770  208.3800  149.6390 C   0  0  0  0  0  2  0  0  0  0  0  0
  161.5000  209.7220  149.2180 N   0  0  0  0  0  2  0  0  0  0  0  0
  163.0100  211.0600  147.8650 C   0  0  0  0  0  2  0  0  0  0  0  0
  162.6200  212.4680  148.2700 C   0  0  2  0  0  3  0  0  0  0  0  0
  162.6900  210.5580  149.2590 C   0  0  1  0  0  3  0  0  0  0  0  0
  162.3080  211.9680  149.6670 C   0  0  0  0  0  2  0  0  0  0  0  0
  161.3850  212.8520  147.6060 N   0  0  0  0  0  2  0  0  0  0  0  0
  162.4230  214.2980  146.1040 O   0  0  0  0  0  0  0  0  0  0  0  0
  161.3630  213.7380  146.4860 C   0  0  0  0  0  0  0  0  0  0  0  0
  160.0720  213.9560  145.7520 C   0  0  1  0  0  3  0  0  0  0  0  0
  160.2500  214.0260  144.2420 C   0  0  0  0  0  1  0  0  0  0  0  0
  159.0090  212.9310  146.1410 C   0  0  0  0  0  2  0  0  0  0  0  0
  158.0990  213.4250  147.2630 C   0  0  2  0  0  3  0  0  0  0  0  0
  156.6330  212.6440  148.8120 O   0  0  0  0  0  1  0  0  0  0  0  0
  157.0870  212.4000  147.5570 N   0  0  0  0  0  0  0  0  0  0  0  0
  156.7460  213.5800  146.7570 C   0  0  0  0  0  2  0  0  0  0  0  0
  1  9  1  0  0  0  0
  2  8  1  0  0  0  0
  3  2  2  0  0  0  0
  4  5  1  0  0  0  0
  4  8  2  0  0  0  0
  6  1  2  0  0  0  0
  6  7  1  0  0  0  0
  7  4  1  0  0  0  0
  9  5  2  0  0  0  0
 10  7  2  0  0  0  0
 10  3  1  0  0  0  0
 12 24  1  1  0  0  0
 12 18  1  0  0  0  0
 14 23  1  0  0  0  0
 14 20  1  0  0  0  0
 15  2  1  6  0  0  0
 15 21  1  0  0  0  0
 16 23  1  6  0  0  0
 16 15  1  0  0  0  0
 16 19  1  0  0  0  0
 18 13  1  0  0  0  0
 18 17  2  0  0  0  0
 19 20  1  6  0  0  0
 19 12  1  0  0  0  0
 20 22  1  0  0  0  0
 21 11  2  0  0  0  0
 21 13  1  0  0  0  0
 24 25  1  0  0  0  0
 25 26  1  0  0  0  0
 27 30  1  0  0  0  0
 27 26  1  0  0  0  0
 28 30  1  0  0  0  0
 30 29  2  0  0  0  0
 31  1  1  0  0  0  0
 33 38  1  6  0  0  0
 33 32  1  0  0  0  0
 33 36  1  0  0  0  0
 33 35  1  0  0  0  0
 34 31  1  6  0  0  0
 35 34  1  0  0  0  0
 36 32  1  1  0  0  0
 36 34  1  0  0  0  0
 39 38  2  0  0  0  0
 40 41  1  0  0  0  0
 41 38  1  0  0  0  0
 41 37  1  0  0  0  0
 42 40  1  0  0  0  0
 42 43  1  0  0  0  0
 43 37  1  0  0  0  0
 44 10  1  0  0  0  0
 45 44  1  0  0  0  0
 46 47  1  0  0  0  0
 46 48  1  0  0  0  0
 47 50  1  6  0  0  0
 47 49  1  0  0  0  0
 48 45  1  6  0  0  0
 48 49  1  0  0  0  0
 51 52  2  0  0  0  0
 52 50  1  0  0  0  0
 53 54  1  6  0  0  0
 53 55  1  0  0  0  0
 53 52  1  0  0  0  0
 56 55  1  6  0  0  0
 56 58  1  0  0  0  0
 58 57  1  0  0  0  0
 59 56  1  0  0  0  0
 59 58  1  0  0  0  0
M  END
>  <MODEL>
4

>  <REMARK>
 VINA RESULT:      -4.9      1.682      2.255
  Name = 
  16 active torsions:
  status: ('A' for Active; 'I' for Inactive)
    1  A    between atoms: C_3  and  C_25
    2  A    between atoms: C_4  and  N_43
    3  A    between atoms: C_5  and  C_7
    4  A    between atoms: C_5  and  C_14
    5  A    between atoms: C_6  and  C_11
    6  A    between atoms: C_7  and  C_9
    7  A    between atoms: C_8  and  C_29
    8  A    between atoms: C_9  and  C_21
    9  A    between atoms: C_13  and  C_25
   10  A    between atoms: C_13  and  C_57
   11  A    between atoms: N_15  and  C_26
   12  A    between atoms: C_19  and  N_43
   13  A    between atoms: C_21  and  C_56
   14  A    between atoms: N_30  and  C_39
   15  A    between atoms: N_30  and  C_51
   16  A    between atoms: C_51  and  C_54
                            x       y       z     vdW  Elec       q    Type
                         _______ _______ _______ _____ _____    ______ ____

>  <TORSDO>
F 16

$$$$
