=
 OpenBabel11052410013D

 39 44  0  0  1  0  0  0  0  0999 V2000
  161.1470  205.8010  151.8920 C   0  0  0  0  0  3  0  0  0  0  0  0
  161.6590  208.3430  150.9150 C   0  0  0  0  0  0  0  0  0  0  0  0
  161.7510  207.5120  148.6380 C   0  0  0  0  0  3  0  0  0  0  0  0
  161.2270  206.9000  152.7460 C   0  0  0  0  0  0  0  0  0  0  0  0
  161.8910  209.6380  150.4460 C   0  0  0  0  0  3  0  0  0  0  0  0
  162.0570  209.8800  149.0800 C   0  0  0  0  0  0  0  0  0  0  0  0
  161.3400  205.9560  150.5120 C   0  0  0  0  0  0  0  0  0  0  0  0
  161.4760  208.1360  152.2440 N   0  0  0  0  0  0  0  0  0  0  0  0
  161.9840  208.8100  148.1770 C   0  0  0  0  0  3  0  0  0  0  0  0
  161.5940  207.2560  150.0080 C   0  0  0  0  0  0  0  0  0  0  0  0
  161.0520  202.4740  147.9740 C   0  0  0  0  0  0  0  0  0  0  0  0
  160.7420  203.5380  150.1430 C   0  0  0  0  0  3  0  0  0  0  0  0
  160.1090  201.2110  149.8910 N   0  0  0  0  0  1  0  0  0  0  0  0
  161.5510  203.6900  147.4850 C   0  0  0  0  0  3  0  0  0  0  0  0
  160.6400  202.4080  149.3270 C   0  0  0  0  0  0  0  0  0  0  0  0
  161.2530  204.7460  149.6520 C   0  0  0  0  0  0  0  0  0  0  0  0
  161.6470  204.8120  148.3090 C   0  0  0  0  0  3  0  0  0  0  0  0
  160.4070  201.4390  145.7470 N   0  0  0  0  0  1  0  0  0  0  0  0
  161.4440  200.2000  147.3970 O   0  0  0  0  0  0  0  0  0  0  0  0
  160.9850  201.3190  147.0430 C   0  0  0  0  0  0  0  0  0  0  0  0
  162.2810  211.1890  148.6480 O   0  0  0  0  0  0  0  0  0  0  0  0
  161.5720  212.3080  149.1750 C   0  0  2  0  0  3  0  0  0  0  0  0
  160.5930  212.8420  148.2620 C   0  0  1  0  0  3  0  0  0  0  0  0
  161.9390  213.5610  148.3760 C   0  0  0  0  0  0  0  0  0  0  0  0
  162.7220  214.4380  148.0510 O   0  0  0  0  0  0  0  0  0  0  0  0
  160.0030  211.9740  144.6300 O   0  0  0  0  0  0  0  0  0  0  0  0
  160.0290  212.7100  145.8060 C   0  0  0  0  0  0  0  0  0  0  0  0
  160.5370  212.1150  147.0000 N   0  0  0  0  0  2  0  0  0  0  0  0
  159.6060  213.8960  145.8090 O   0  0  0  0  0  1  0  0  0  0  0  0
  160.9890  206.7250  154.2080 C   0  0  0  0  0  2  0  0  0  0  0  0
  160.9290  208.0500  154.8880 C   0  0  0  0  0  0  0  0  0  0  0  0
  161.6320  208.2590  156.0790 C   0  0  0  0  0  3  0  0  0  0  0  0
  160.0560  210.3140  155.0050 C   0  0  0  0  0  0  0  0  0  0  0  0
  161.5610  209.4970  156.7240 C   0  0  0  0  0  3  0  0  0  0  0  0
  160.1470  209.0780  154.3500 C   0  0  0  0  0  3  0  0  0  0  0  0
  160.7800  210.5230  156.1870 C   0  0  0  0  0  3  0  0  0  0  0  0
  159.2510  211.4290  154.4120 C   0  0  2  0  0  3  0  0  0  0  0  0
  159.0640  211.2250  152.9760 C   0  0  0  0  0  2  0  0  0  0  0  0
  160.0700  212.1850  153.4480 N   0  0  0  0  0  2  0  0  0  0  0  0
  1  4  1  0  0  0  0
  2  8  1  0  0  0  0
  3 10  1  0  0  0  0
  4 30  1  0  0  0  0
  5  2  1  0  0  0  0
  6  5  2  0  0  0  0
  7  1  2  0  0  0  0
  8  4  2  0  0  0  0
  9  3  2  0  0  0  0
  9  6  1  0  0  0  0
 10  7  1  0  0  0  0
 10  2  2  0  0  0  0
 11 15  1  0  0  0  0
 14 11  2  0  0  0  0
 14 17  1  0  0  0  0
 15 13  1  0  0  0  0
 15 12  2  0  0  0  0
 16 12  1  0  0  0  0
 16  7  1  0  0  0  0
 17 16  2  0  0  0  0
 18 20  1  0  0  0  0
 20 19  2  0  0  0  0
 20 11  1  0  0  0  0
 21  6  1  0  0  0  0
 22 21  1  6  0  0  0
 23 28  1  6  0  0  0
 23 24  1  0  0  0  0
 23 22  1  0  0  0  0
 24 22  1  0  0  0  0
 25 24  2  0  0  0  0
 26 27  2  0  0  0  0
 27 29  1  0  0  0  0
 27 28  1  0  0  0  0
 30 31  1  0  0  0  0
 31 32  1  0  0  0  0
 32 34  2  0  0  0  0
 33 36  2  0  0  0  0
 35 31  2  0  0  0  0
 35 33  1  0  0  0  0
 36 34  1  0  0  0  0
 37 33  1  1  0  0  0
 38 39  1  0  0  0  0
 38 37  1  0  0  0  0
 39 37  1  0  0  0  0
M  END
>  <MODEL>
1

>  <REMARK>
 VINA RESULT:     -10.4      0.000      0.000
  Name = 
  8 active torsions:
  status: ('A' for Active; 'I' for Inactive)
    1  A    between atoms: C_3  and  C_37
    2  A    between atoms: O_5  and  C_7
    3  A    between atoms: O_5  and  C_30
    4  A    between atoms: C_6  and  C_8
    5  A    between atoms: C_11  and  N_25
    6  A    between atoms: C_16  and  C_19
    7  A    between atoms: C_24  and  C_37
    8  A    between atoms: C_29  and  C_31
                            x       y       z     vdW  Elec       q    Type
                         _______ _______ _______ _____ _____    ______ ____

>  <TORSDO>
F 8

$$$$
=
 OpenBabel11052410013D

 39 44  0  0  1  0  0  0  0  0999 V2000
  161.9370  208.4680  148.5570 C   0  0  0  0  0  3  0  0  0  0  0  0
  161.6700  209.0890  151.2440 C   0  0  0  0  0  0  0  0  0  0  0  0
  161.2460  206.7650  151.7990 C   0  0  0  0  0  3  0  0  0  0  0  0
  162.0870  209.7760  149.0140 C   0  0  0  0  0  0  0  0  0  0  0  0
  161.5650  209.4250  152.5970 C   0  0  0  0  0  3  0  0  0  0  0  0
  161.2990  208.4430  153.5540 C   0  0  0  0  0  0  0  0  0  0  0  0
  161.6320  207.4320  149.4520 C   0  0  0  0  0  0  0  0  0  0  0  0
  161.9540  210.0560  150.3360 N   0  0  0  0  0  0  0  0  0  0  0  0
  161.1410  207.1100  153.1490 C   0  0  0  0  0  3  0  0  0  0  0  0
  161.5030  207.7450  150.8280 C   0  0  0  0  0  0  0  0  0  0  0  0
  161.2110  203.4200  147.9100 C   0  0  0  0  0  0  0  0  0  0  0  0
  161.8200  205.7550  147.5820 C   0  0  0  0  0  3  0  0  0  0  0  0
  162.0630  204.2210  145.7210 N   0  0  0  0  0  1  0  0  0  0  0  0
  160.8780  203.7270  149.2370 C   0  0  0  0  0  3  0  0  0  0  0  0
  161.6920  204.4590  147.0760 C   0  0  0  0  0  0  0  0  0  0  0  0
  161.4740  206.0580  148.9050 C   0  0  0  0  0  0  0  0  0  0  0  0
  161.0110  205.0250  149.7310 C   0  0  0  0  0  3  0  0  0  0  0  0
  161.3320  200.9140  148.2990 N   0  0  0  0  0  1  0  0  0  0  0  0
  160.6250  201.7880  146.2820 O   0  0  0  0  0  0  0  0  0  0  0  0
  161.0380  202.0190  147.4500 C   0  0  0  0  0  0  0  0  0  0  0  0
  161.2070  208.8160  154.8960 O   0  0  0  0  0  0  0  0  0  0  0  0
  159.9840  208.7660  155.6290 C   0  0  2  0  0  3  0  0  0  0  0  0
  160.0940  209.3150  156.9570 C   0  0  1  0  0  3  0  0  0  0  0  0
  160.1370  207.7930  156.8020 C   0  0  0  0  0  0  0  0  0  0  0  0
  160.2480  206.6670  157.2580 O   0  0  0  0  0  0  0  0  0  0  0  0
  163.1210  211.5610  157.2600 O   0  0  0  0  0  1  0  0  0  0  0  0
  161.8360  211.1420  156.9460 C   0  0  0  0  0  0  0  0  0  0  0  0
  161.4320  209.8090  157.2590 N   0  0  0  0  0  2  0  0  0  0  0  0
  161.0370  211.9410  156.3900 O   0  0  0  0  0  0  0  0  0  0  0  0
  162.4420  210.8620  148.0550 C   0  0  0  0  0  2  0  0  0  0  0  0
  161.3620  211.8890  148.0090 C   0  0  0  0  0  0  0  0  0  0  0  0
  161.2510  212.8360  149.0320 C   0  0  0  0  0  3  0  0  0  0  0  0
  159.4010  212.8280  146.9260 C   0  0  0  0  0  0  0  0  0  0  0  0
  160.2280  213.7870  148.9960 C   0  0  0  0  0  3  0  0  0  0  0  0
  160.4420  211.8890  146.9560 C   0  0  0  0  0  3  0  0  0  0  0  0
  159.3090  213.7870  147.9440 C   0  0  0  0  0  3  0  0  0  0  0  0
  158.4370  212.8560  145.7810 C   0  0  2  0  0  3  0  0  0  0  0  0
  157.3000  213.7260  146.0820 C   0  0  0  0  0  2  0  0  0  0  0  0
  157.1490  212.2700  146.1920 N   0  0  0  0  0  2  0  0  0  0  0  0
  1  4  2  0  0  0  0
  1  7  1  0  0  0  0
  2  5  1  0  0  0  0
  3  9  2  0  0  0  0
  4  8  1  0  0  0  0
  5  6  2  0  0  0  0
  6 21  1  0  0  0  0
  7 10  2  0  0  0  0
  8  2  2  0  0  0  0
  9  6  1  0  0  0  0
 10  2  1  0  0  0  0
 10  3  1  0  0  0  0
 11 14  1  0  0  0  0
 12 16  2  0  0  0  0
 13 15  1  0  0  0  0
 14 17  2  0  0  0  0
 15 12  1  0  0  0  0
 15 11  2  0  0  0  0
 16  7  1  0  0  0  0
 16 17  1  0  0  0  0
 19 20  2  0  0  0  0
 20 11  1  0  0  0  0
 20 18  1  0  0  0  0
 22 21  1  6  0  0  0
 22 24  1  0  0  0  0
 22 23  1  0  0  0  0
 23 28  1  6  0  0  0
 24 23  1  0  0  0  0
 24 25  2  0  0  0  0
 27 28  1  0  0  0  0
 27 26  1  0  0  0  0
 29 27  2  0  0  0  0
 30  4  1  0  0  0  0
 31 30  1  0  0  0  0
 31 32  1  0  0  0  0
 33 35  1  0  0  0  0
 33 36  2  0  0  0  0
 34 32  2  0  0  0  0
 35 31  2  0  0  0  0
 36 34  1  0  0  0  0
 37 38  1  0  0  0  0
 37 39  1  0  0  0  0
 37 33  1  1  0  0  0
 38 39  1  0  0  0  0
M  END
>  <MODEL>
2

>  <REMARK>
 VINA RESULT:      -9.6      3.380      6.897
  Name = 
  8 active torsions:
  status: ('A' for Active; 'I' for Inactive)
    1  A    between atoms: C_3  and  C_37
    2  A    between atoms: O_5  and  C_7
    3  A    between atoms: O_5  and  C_30
    4  A    between atoms: C_6  and  C_8
    5  A    between atoms: C_11  and  N_25
    6  A    between atoms: C_16  and  C_19
    7  A    between atoms: C_24  and  C_37
    8  A    between atoms: C_29  and  C_31
                            x       y       z     vdW  Elec       q    Type
                         _______ _______ _______ _____ _____    ______ ____

>  <TORSDO>
F 8

$$$$
=
 OpenBabel11052410013D

 39 44  0  0  1  0  0  0  0  0999 V2000
  161.9290  211.3870  150.3540 C   0  0  0  0  0  3  0  0  0  0  0  0
  161.9710  208.9040  149.1250 C   0  0  0  0  0  0  0  0  0  0  0  0
  161.1610  207.8270  151.1420 C   0  0  0  0  0  3  0  0  0  0  0  0
  162.3260  211.2460  149.0250 C   0  0  0  0  0  0  0  0  0  0  0  0
  161.9790  207.6680  148.4740 C   0  0  0  0  0  3  0  0  0  0  0  0
  161.5830  206.5090  149.1480 C   0  0  0  0  0  0  0  0  0  0  0  0
  161.5540  210.2660  151.1080 C   0  0  0  0  0  0  0  0  0  0  0  0
  162.3360  210.0190  148.4440 N   0  0  0  0  0  0  0  0  0  0  0  0
  161.1730  206.5940  150.4850 C   0  0  0  0  0  3  0  0  0  0  0  0
  161.5670  208.9960  150.4800 C   0  0  0  0  0  0  0  0  0  0  0  0
  160.3560  210.9340  155.2030 C   0  0  0  0  0  0  0  0  0  0  0  0
  162.0800  210.4010  153.5670 C   0  0  0  0  0  3  0  0  0  0  0  0
  162.7020  210.5300  155.9060 N   0  0  0  0  0  1  0  0  0  0  0  0
  159.4310  211.0200  154.1520 C   0  0  0  0  0  3  0  0  0  0  0  0
  161.7020  210.6210  154.8940 C   0  0  0  0  0  0  0  0  0  0  0  0
  161.1490  210.4770  152.5230 C   0  0  0  0  0  0  0  0  0  0  0  0
  159.8210  210.8000  152.8300 C   0  0  0  0  0  3  0  0  0  0  0  0
  159.9230  212.4670  157.1800 N   0  0  0  0  0  1  0  0  0  0  0  0
  159.4020  210.2180  157.2610 O   0  0  0  0  0  0  0  0  0  0  0  0
  159.8710  211.1740  156.5850 C   0  0  0  0  0  0  0  0  0  0  0  0
  161.5980  205.2920  148.4630 O   0  0  0  0  0  0  0  0  0  0  0  0
  161.4160  205.1990  147.0510 C   0  0  2  0  0  3  0  0  0  0  0  0
  161.3020  203.8410  146.5810 C   0  0  1  0  0  3  0  0  0  0  0  0
  162.6520  204.5460  146.4250 C   0  0  0  0  0  0  0  0  0  0  0  0
  163.8250  204.5620  146.0920 O   0  0  0  0  0  0  0  0  0  0  0  0
  161.1850  200.5870  148.5040 O   0  0  0  0  0  1  0  0  0  0  0  0
  161.0790  201.4810  147.4480 C   0  0  0  0  0  0  0  0  0  0  0  0
  161.3900  202.8580  147.6550 N   0  0  0  0  0  2  0  0  0  0  0  0
  160.7130  201.0680  146.3160 O   0  0  0  0  0  0  0  0  0  0  0  0
  162.6930  212.4520  148.2270 C   0  0  0  0  0  2  0  0  0  0  0  0
  161.6570  212.7240  147.1900 C   0  0  0  0  0  0  0  0  0  0  0  0
  162.0360  213.1690  145.9200 C   0  0  0  0  0  3  0  0  0  0  0  0
  159.3200  212.8520  146.5380 C   0  0  0  0  0  0  0  0  0  0  0  0
  161.0630  213.4410  144.9550 C   0  0  0  0  0  3  0  0  0  0  0  0
  160.3010  212.5610  147.4960 C   0  0  0  0  0  3  0  0  0  0  0  0
  159.7090  213.2780  145.2600 C   0  0  0  0  0  3  0  0  0  0  0  0
  157.8700  212.6420  146.8490 C   0  0  2  0  0  3  0  0  0  0  0  0
  157.0320  213.4940  146.0060 C   0  0  0  0  0  2  0  0  0  0  0  0
  157.2880  213.8780  147.4000 N   0  0  0  0  0  2  0  0  0  0  0  0
  1  7  1  0  0  0  0
  2 10  1  0  0  0  0
  4  1  2  0  0  0  0
  5  2  1  0  0  0  0
  5  6  2  0  0  0  0
  6  9  1  0  0  0  0
  7 16  1  0  0  0  0
  8  4  1  0  0  0  0
  8  2  2  0  0  0  0
  9  3  2  0  0  0  0
 10  7  2  0  0  0  0
 10  3  1  0  0  0  0
 11 20  1  0  0  0  0
 12 15  2  0  0  0  0
 14 11  2  0  0  0  0
 15 11  1  0  0  0  0
 15 13  1  0  0  0  0
 16 17  2  0  0  0  0
 16 12  1  0  0  0  0
 17 14  1  0  0  0  0
 20 18  1  0  0  0  0
 20 19  2  0  0  0  0
 21  6  1  0  0  0  0
 22 21  1  1  0  0  0
 23 22  1  0  0  0  0
 23 28  1  1  0  0  0
 24 23  1  0  0  0  0
 24 22  1  0  0  0  0
 25 24  2  0  0  0  0
 27 28  1  0  0  0  0
 27 26  1  0  0  0  0
 29 27  2  0  0  0  0
 30  4  1  0  0  0  0
 31 35  1  0  0  0  0
 31 30  1  0  0  0  0
 32 31  2  0  0  0  0
 33 35  2  0  0  0  0
 34 36  2  0  0  0  0
 34 32  1  0  0  0  0
 36 33  1  0  0  0  0
 37 33  1  6  0  0  0
 37 39  1  0  0  0  0
 38 37  1  0  0  0  0
 38 39  1  0  0  0  0
M  END
>  <MODEL>
3

>  <REMARK>
 VINA RESULT:      -9.3      3.206      9.015
  Name = 
  8 active torsions:
  status: ('A' for Active; 'I' for Inactive)
    1  A    between atoms: C_3  and  C_37
    2  A    between atoms: O_5  and  C_7
    3  A    between atoms: O_5  and  C_30
    4  A    between atoms: C_6  and  C_8
    5  A    between atoms: C_11  and  N_25
    6  A    between atoms: C_16  and  C_19
    7  A    between atoms: C_24  and  C_37
    8  A    between atoms: C_29  and  C_31
                            x       y       z     vdW  Elec       q    Type
                         _______ _______ _______ _____ _____    ______ ____

>  <TORSDO>
F 8

$$$$
=
 OpenBabel11052410013D

 39 44  0  0  1  0  0  0  0  0999 V2000
  161.8980  211.4310  150.3790 C   0  0  0  0  0  3  0  0  0  0  0  0
  161.9440  208.9650  149.1160 C   0  0  0  0  0  0  0  0  0  0  0  0
  161.1370  207.8590  151.1190 C   0  0  0  0  0  3  0  0  0  0  0  0
  162.2940  211.3090  149.0480 C   0  0  0  0  0  0  0  0  0  0  0  0
  161.9520  207.7370  148.4490 C   0  0  0  0  0  3  0  0  0  0  0  0
  161.5590  206.5690  149.1070 C   0  0  0  0  0  0  0  0  0  0  0  0
  161.5260  210.2990  151.1180 C   0  0  0  0  0  0  0  0  0  0  0  0
  162.3060  210.0900  148.4500 N   0  0  0  0  0  0  0  0  0  0  0  0
  161.1500  206.6350  150.4460 C   0  0  0  0  0  3  0  0  0  0  0  0
  161.5400  209.0370  150.4730 C   0  0  0  0  0  0  0  0  0  0  0  0
  160.3350  210.9100  155.2240 C   0  0  0  0  0  0  0  0  0  0  0  0
  162.0380  210.3240  153.5840 C   0  0  0  0  0  3  0  0  0  0  0  0
  162.6450  210.3400  155.9300 N   0  0  0  0  0  1  0  0  0  0  0  0
  159.4270  211.0870  154.1700 C   0  0  0  0  0  3  0  0  0  0  0  0
  161.6620  210.5250  154.9150 C   0  0  0  0  0  0  0  0  0  0  0  0
  161.1220  210.4900  152.5360 C   0  0  0  0  0  0  0  0  0  0  0  0
  159.8130  210.8840  152.8440 C   0  0  0  0  0  3  0  0  0  0  0  0
  159.9520  212.4120  157.2340 N   0  0  0  0  0  1  0  0  0  0  0  0
  159.3450  210.1840  157.2610 O   0  0  0  0  0  0  0  0  0  0  0  0
  159.8530  211.1370  156.6090 C   0  0  0  0  0  0  0  0  0  0  0  0
  161.5760  205.3610  148.4050 O   0  0  0  0  0  0  0  0  0  0  0  0
  161.3900  205.2860  146.9930 C   0  0  2  0  0  3  0  0  0  0  0  0
  161.2710  203.9350  146.5060 C   0  0  1  0  0  3  0  0  0  0  0  0
  162.6220  204.6390  146.3550 C   0  0  0  0  0  0  0  0  0  0  0  0
  163.7950  204.6570  146.0200 O   0  0  0  0  0  0  0  0  0  0  0  0
  161.1830  200.6520  148.3800 O   0  0  0  0  0  1  0  0  0  0  0  0
  161.0790  201.5590  147.3350 C   0  0  0  0  0  0  0  0  0  0  0  0
  161.3600  202.9390  147.5670 N   0  0  0  0  0  2  0  0  0  0  0  0
  160.7390  201.1560  146.1910 O   0  0  0  0  0  0  0  0  0  0  0  0
  162.6580  212.5250  148.2650 C   0  0  0  0  0  2  0  0  0  0  0  0
  161.7790  212.6550  147.0680 C   0  0  0  0  0  0  0  0  0  0  0  0
  160.4020  212.4440  147.1820 C   0  0  0  0  0  3  0  0  0  0  0  0
  161.5220  213.0480  144.6840 C   0  0  0  0  0  0  0  0  0  0  0  0
  159.5820  212.5500  146.0560 C   0  0  0  0  0  3  0  0  0  0  0  0
  162.3370  212.9610  145.8210 C   0  0  0  0  0  3  0  0  0  0  0  0
  160.1390  212.8560  144.8110 C   0  0  0  0  0  3  0  0  0  0  0  0
  162.1090  213.4130  143.3560 C   0  0  2  0  0  3  0  0  0  0  0  0
  161.1570  213.1440  142.2780 C   0  0  0  0  0  2  0  0  0  0  0  0
  162.2610  212.2070  142.5230 N   0  0  0  0  0  2  0  0  0  0  0  0
  1  7  1  0  0  0  0
  2 10  1  0  0  0  0
  4  1  2  0  0  0  0
  5  6  2  0  0  0  0
  5  2  1  0  0  0  0
  6  9  1  0  0  0  0
  7 16  1  0  0  0  0
  8  4  1  0  0  0  0
  8  2  2  0  0  0  0
  9  3  2  0  0  0  0
 10  7  2  0  0  0  0
 10  3  1  0  0  0  0
 11 20  1  0  0  0  0
 12 15  2  0  0  0  0
 14 11  2  0  0  0  0
 15 11  1  0  0  0  0
 15 13  1  0  0  0  0
 16 17  2  0  0  0  0
 16 12  1  0  0  0  0
 17 14  1  0  0  0  0
 20 18  1  0  0  0  0
 20 19  2  0  0  0  0
 21  6  1  0  0  0  0
 22 21  1  1  0  0  0
 23 22  1  0  0  0  0
 23 28  1  1  0  0  0
 24 23  1  0  0  0  0
 24 22  1  0  0  0  0
 25 24  2  0  0  0  0
 27 28  1  0  0  0  0
 27 26  1  0  0  0  0
 29 27  2  0  0  0  0
 30  4  1  0  0  0  0
 31 32  1  0  0  0  0
 31 30  1  0  0  0  0
 33 36  2  0  0  0  0
 33 35  1  0  0  0  0
 34 32  2  0  0  0  0
 35 31  2  0  0  0  0
 36 34  1  0  0  0  0
 37 33  1  1  0  0  0
 38 39  1  0  0  0  0
 38 37  1  0  0  0  0
 39 37  1  0  0  0  0
M  END
>  <MODEL>
4

>  <REMARK>
 VINA RESULT:      -9.2      3.187      9.323
  Name = 
  8 active torsions:
  status: ('A' for Active; 'I' for Inactive)
    1  A    between atoms: C_3  and  C_37
    2  A    between atoms: O_5  and  C_7
    3  A    between atoms: O_5  and  C_30
    4  A    between atoms: C_6  and  C_8
    5  A    between atoms: C_11  and  N_25
    6  A    between atoms: C_16  and  C_19
    7  A    between atoms: C_24  and  C_37
    8  A    between atoms: C_29  and  C_31
                            x       y       z     vdW  Elec       q    Type
                         _______ _______ _______ _____ _____    ______ ____

>  <TORSDO>
F 8

$$$$
=
 OpenBabel11052410013D

 39 44  0  0  1  0  0  0  0  0999 V2000
  161.9410  208.4970  148.5550 C   0  0  0  0  0  3  0  0  0  0  0  0
  161.6660  209.1100  151.2430 C   0  0  0  0  0  0  0  0  0  0  0  0
  161.2470  206.7850  151.7920 C   0  0  0  0  0  3  0  0  0  0  0  0
  162.0860  209.8050  149.0160 C   0  0  0  0  0  0  0  0  0  0  0  0
  161.5570  209.4430  152.5960 C   0  0  0  0  0  3  0  0  0  0  0  0
  161.2910  208.4580  153.5500 C   0  0  0  0  0  0  0  0  0  0  0  0
  161.6360  207.4580  149.4460 C   0  0  0  0  0  0  0  0  0  0  0  0
  161.9500  210.0810  150.3380 N   0  0  0  0  0  0  0  0  0  0  0  0
  161.1370  207.1260  153.1420 C   0  0  0  0  0  3  0  0  0  0  0  0
  161.5030  207.7670  150.8230 C   0  0  0  0  0  0  0  0  0  0  0  0
  161.2260  203.4490  147.8950 C   0  0  0  0  0  0  0  0  0  0  0  0
  161.8840  205.7740  147.5900 C   0  0  0  0  0  3  0  0  0  0  0  0
  162.1890  204.2310  145.7460 N   0  0  0  0  0  1  0  0  0  0  0  0
  160.8380  203.7640  149.2060 C   0  0  0  0  0  3  0  0  0  0  0  0
  161.7590  204.4780  147.0830 C   0  0  0  0  0  0  0  0  0  0  0  0
  161.4830  206.0850  148.8960 C   0  0  0  0  0  0  0  0  0  0  0  0
  160.9670  205.0610  149.7030 C   0  0  0  0  0  3  0  0  0  0  0  0
  161.2840  200.9420  148.2970 N   0  0  0  0  0  1  0  0  0  0  0  0
  160.6970  201.8210  146.2440 O   0  0  0  0  0  0  0  0  0  0  0  0
  161.0530  202.0490  147.4310 C   0  0  0  0  0  0  0  0  0  0  0  0
  161.1940  208.8270  154.8940 O   0  0  0  0  0  0  0  0  0  0  0  0
  159.9580  208.8380  155.6040 C   0  0  2  0  0  3  0  0  0  0  0  0
  160.0680  209.3980  156.9280 C   0  0  1  0  0  3  0  0  0  0  0  0
  160.0480  207.8730  156.7900 C   0  0  0  0  0  0  0  0  0  0  0  0
  160.1020  206.7490  157.2600 O   0  0  0  0  0  0  0  0  0  0  0  0
  163.1890  211.5090  157.2430 O   0  0  0  0  0  1  0  0  0  0  0  0
  161.8940  211.1410  156.9090 C   0  0  0  0  0  0  0  0  0  0  0  0
  161.4210  209.8380  157.2490 N   0  0  0  0  0  2  0  0  0  0  0  0
  161.1470  211.9600  156.3120 O   0  0  0  0  0  0  0  0  0  0  0  0
  162.4410  210.8940  148.0610 C   0  0  0  0  0  2  0  0  0  0  0  0
  161.4760  212.0240  148.1790 C   0  0  0  0  0  0  0  0  0  0  0  0
  161.0030  212.6650  147.0290 C   0  0  0  0  0  3  0  0  0  0  0  0
  160.1860  213.5500  149.5600 C   0  0  0  0  0  0  0  0  0  0  0  0
  160.1110  213.7350  147.1410 C   0  0  0  0  0  3  0  0  0  0  0  0
  161.0640  212.4630  149.4410 C   0  0  0  0  0  3  0  0  0  0  0  0
  159.7000  214.1730  148.4030 C   0  0  0  0  0  3  0  0  0  0  0  0
  159.7120  213.9980  150.9080 C   0  0  2  0  0  3  0  0  0  0  0  0
  159.5600  212.8560  151.8100 C   0  0  0  0  0  2  0  0  0  0  0  0
  158.3720  213.4480  151.1810 N   0  0  0  0  0  2  0  0  0  0  0  0
  1  4  2  0  0  0  0
  1  7  1  0  0  0  0
  2  5  1  0  0  0  0
  3  9  2  0  0  0  0
  4  8  1  0  0  0  0
  5  6  2  0  0  0  0
  6 21  1  0  0  0  0
  7 10  2  0  0  0  0
  8  2  2  0  0  0  0
  9  6  1  0  0  0  0
 10  2  1  0  0  0  0
 10  3  1  0  0  0  0
 11 14  1  0  0  0  0
 12 16  2  0  0  0  0
 13 15  1  0  0  0  0
 14 17  2  0  0  0  0
 15 12  1  0  0  0  0
 15 11  2  0  0  0  0
 16  7  1  0  0  0  0
 16 17  1  0  0  0  0
 19 20  2  0  0  0  0
 20 11  1  0  0  0  0
 20 18  1  0  0  0  0
 22 21  1  6  0  0  0
 22 24  1  0  0  0  0
 22 23  1  0  0  0  0
 23 28  1  6  0  0  0
 24 23  1  0  0  0  0
 24 25  2  0  0  0  0
 27 26  1  0  0  0  0
 27 28  1  0  0  0  0
 29 27  2  0  0  0  0
 30 31  1  0  0  0  0
 30  4  1  0  0  0  0
 31 35  1  0  0  0  0
 32 34  1  0  0  0  0
 32 31  2  0  0  0  0
 34 36  2  0  0  0  0
 35 33  2  0  0  0  0
 36 33  1  0  0  0  0
 37 33  1  6  0  0  0
 37 39  1  0  0  0  0
 37 38  1  0  0  0  0
 39 38  1  0  0  0  0
M  END
>  <MODEL>
5

>  <REMARK>
 VINA RESULT:      -9.2      3.346      6.576
  Name = 
  8 active torsions:
  status: ('A' for Active; 'I' for Inactive)
    1  A    between atoms: C_3  and  C_37
    2  A    between atoms: O_5  and  C_7
    3  A    between atoms: O_5  and  C_30
    4  A    between atoms: C_6  and  C_8
    5  A    between atoms: C_11  and  N_25
    6  A    between atoms: C_16  and  C_19
    7  A    between atoms: C_24  and  C_37
    8  A    between atoms: C_29  and  C_31
                            x       y       z     vdW  Elec       q    Type
                         _______ _______ _______ _____ _____    ______ ____

>  <TORSDO>
F 8

$$$$
=
 OpenBabel11052410013D

 39 44  0  0  1  0  0  0  0  0999 V2000
  162.0160  208.6240  148.8180 C   0  0  0  0  0  3  0  0  0  0  0  0
  161.5330  209.7190  151.3170 C   0  0  0  0  0  0  0  0  0  0  0  0
  160.8760  207.5570  152.2020 C   0  0  0  0  0  3  0  0  0  0  0  0
  162.2210  209.9810  149.0630 C   0  0  0  0  0  0  0  0  0  0  0  0
  161.3200  210.2920  152.5740 C   0  0  0  0  0  3  0  0  0  0  0  0
  160.8850  209.5090  153.6460 C   0  0  0  0  0  0  0  0  0  0  0  0
  161.5440  207.7800  149.8330 C   0  0  0  0  0  0  0  0  0  0  0  0
  161.9800  210.4940  150.2970 N   0  0  0  0  0  0  0  0  0  0  0  0
  160.6640  208.1380  153.4550 C   0  0  0  0  0  3  0  0  0  0  0  0
  161.3030  208.3360  151.1150 C   0  0  0  0  0  0  0  0  0  0  0  0
  160.9800  203.5940  148.9360 C   0  0  0  0  0  0  0  0  0  0  0  0
  161.5050  205.8570  148.2070 C   0  0  0  0  0  3  0  0  0  0  0  0
  161.5200  204.0770  146.5620 N   0  0  0  0  0  1  0  0  0  0  0  0
  160.8230  204.0850  150.2410 C   0  0  0  0  0  3  0  0  0  0  0  0
  161.3300  204.5030  147.9090 C   0  0  0  0  0  0  0  0  0  0  0  0
  161.3350  206.3440  149.5100 C   0  0  0  0  0  0  0  0  0  0  0  0
  161.0020  205.4390  150.5260 C   0  0  0  0  0  3  0  0  0  0  0  0
  159.8200  201.3970  149.4610 N   0  0  0  0  0  1  0  0  0  0  0  0
  161.4390  201.5440  147.8210 O   0  0  0  0  0  0  0  0  0  0  0  0
  160.7680  202.1430  148.7040 C   0  0  0  0  0  0  0  0  0  0  0  0
  160.6890  210.1150  154.8890 O   0  0  0  0  0  0  0  0  0  0  0  0
  160.6050  209.3740  156.1050 C   0  0  2  0  0  3  0  0  0  0  0  0
  160.3740  210.2030  157.2610 C   0  0  1  0  0  3  0  0  0  0  0  0
  161.8020  209.7230  156.9930 C   0  0  0  0  0  0  0  0  0  0  0  0
  162.9920  209.6820  157.2590 O   0  0  0  0  0  0  0  0  0  0  0  0
  158.9650  213.6250  156.4870 O   0  0  0  0  0  0  0  0  0  0  0  0
  159.0070  212.2730  156.7950 C   0  0  0  0  0  0  0  0  0  0  0  0
  160.2680  211.6190  156.9330 N   0  0  0  0  0  2  0  0  0  0  0  0
  157.9330  211.6360  156.9530 O   0  0  0  0  0  1  0  0  0  0  0  0
  162.7530  210.8600  147.9830 C   0  0  0  0  0  2  0  0  0  0  0  0
  161.8980  212.0720  147.8290 C   0  0  0  0  0  0  0  0  0  0  0  0
  162.3720  213.3210  148.2440 C   0  0  0  0  0  3  0  0  0  0  0  0
  159.7870  213.0850  147.1850 C   0  0  0  0  0  0  0  0  0  0  0  0
  161.5630  214.4530  148.1150 C   0  0  0  0  0  3  0  0  0  0  0  0
  160.6100  211.9560  147.2960 C   0  0  0  0  0  3  0  0  0  0  0  0
  160.2760  214.3370  147.5820 C   0  0  0  0  0  3  0  0  0  0  0  0
  158.4220  212.9720  146.5790 C   0  0  2  0  0  3  0  0  0  0  0  0
  157.5310  214.0010  147.1160 C   0  0  0  0  0  2  0  0  0  0  0  0
  157.4360  212.6240  147.6180 N   0  0  0  0  0  2  0  0  0  0  0  0
  1  4  2  0  0  0  0
  1  7  1  0  0  0  0
  2  5  1  0  0  0  0
  3  9  2  0  0  0  0
  4  8  1  0  0  0  0
  5  6  2  0  0  0  0
  6 21  1  0  0  0  0
  7 10  2  0  0  0  0
  8  2  2  0  0  0  0
  9  6  1  0  0  0  0
 10  2  1  0  0  0  0
 10  3  1  0  0  0  0
 11 14  1  0  0  0  0
 12 16  2  0  0  0  0
 13 15  1  0  0  0  0
 14 17  2  0  0  0  0
 15 12  1  0  0  0  0
 15 11  2  0  0  0  0
 16  7  1  0  0  0  0
 16 17  1  0  0  0  0
 19 20  2  0  0  0  0
 20 11  1  0  0  0  0
 20 18  1  0  0  0  0
 22 21  1  6  0  0  0
 22 24  1  0  0  0  0
 22 23  1  0  0  0  0
 23 28  1  6  0  0  0
 24 25  2  0  0  0  0
 24 23  1  0  0  0  0
 26 27  2  0  0  0  0
 27 28  1  0  0  0  0
 27 29  1  0  0  0  0
 30  4  1  0  0  0  0
 31 30  1  0  0  0  0
 31 32  1  0  0  0  0
 33 35  1  0  0  0  0
 33 36  2  0  0  0  0
 34 32  2  0  0  0  0
 35 31  2  0  0  0  0
 36 34  1  0  0  0  0
 37 38  1  0  0  0  0
 37 33  1  1  0  0  0
 37 39  1  0  0  0  0
 38 39  1  0  0  0  0
M  END
>  <MODEL>
6

>  <REMARK>
 VINA RESULT:      -9.0      3.232      6.733
  Name = 
  8 active torsions:
  status: ('A' for Active; 'I' for Inactive)
    1  A    between atoms: C_3  and  C_37
    2  A    between atoms: O_5  and  C_7
    3  A    between atoms: O_5  and  C_30
    4  A    between atoms: C_6  and  C_8
    5  A    between atoms: C_11  and  N_25
    6  A    between atoms: C_16  and  C_19
    7  A    between atoms: C_24  and  C_37
    8  A    between atoms: C_29  and  C_31
                            x       y       z     vdW  Elec       q    Type
                         _______ _______ _______ _____ _____    ______ ____

>  <TORSDO>
F 8

$$$$
=
 OpenBabel11052410013D

 39 44  0  0  1  0  0  0  0  0999 V2000
  161.9460  210.3560  150.2990 C   0  0  0  0  0  3  0  0  0  0  0  0
  161.7810  208.1310  148.6560 C   0  0  0  0  0  0  0  0  0  0  0  0
  161.1660  206.7200  150.5310 C   0  0  0  0  0  3  0  0  0  0  0  0
  162.1900  210.4510  148.9300 C   0  0  0  0  0  0  0  0  0  0  0  0
  161.6810  207.0300  147.8020 C   0  0  0  0  0  3  0  0  0  0  0  0
  161.3280  205.7740  148.3010 C   0  0  0  0  0  0  0  0  0  0  0  0
  161.6240  209.1220  150.8820 C   0  0  0  0  0  0  0  0  0  0  0  0
  162.1010  209.3470  148.1440 N   0  0  0  0  0  0  0  0  0  0  0  0
  161.0700  205.6230  149.6710 C   0  0  0  0  0  3  0  0  0  0  0  0
  161.5300  207.9840  150.0430 C   0  0  0  0  0  0  0  0  0  0  0  0
  160.8750  208.9700  155.1320 C   0  0  0  0  0  0  0  0  0  0  0  0
  161.2590  210.2570  153.1000 C   0  0  0  0  0  3  0  0  0  0  0  0
  160.8950  211.4520  155.1780 N   0  0  0  0  0  1  0  0  0  0  0  0
  160.9880  207.7970  154.3720 C   0  0  0  0  0  3  0  0  0  0  0  0
  161.0120  210.2170  154.4750 C   0  0  0  0  0  0  0  0  0  0  0  0
  161.3830  209.0820  152.3490 C   0  0  0  0  0  0  0  0  0  0  0  0
  161.2340  207.8500  152.9990 C   0  0  0  0  0  3  0  0  0  0  0  0
  160.7570  207.5910  157.2610 N   0  0  0  0  0  1  0  0  0  0  0  0
  160.2670  209.8480  157.2580 O   0  0  0  0  0  0  0  0  0  0  0  0
  160.6190  208.8390  156.5890 C   0  0  0  0  0  0  0  0  0  0  0  0
  161.2320  204.6980  147.4160 O   0  0  0  0  0  0  0  0  0  0  0  0
  161.1620  204.8660  146.0010 C   0  0  2  0  0  3  0  0  0  0  0  0
  161.2220  203.6220  145.2770 C   0  0  1  0  0  3  0  0  0  0  0  0
  162.5000  204.4590  145.3770 C   0  0  0  0  0  0  0  0  0  0  0  0
  163.6860  204.6430  145.1600 O   0  0  0  0  0  0  0  0  0  0  0  0
  160.8210  200.1520  146.7250 O   0  0  0  0  0  1  0  0  0  0  0  0
  160.6750  201.2280  145.8610 C   0  0  0  0  0  0  0  0  0  0  0  0
  161.3350  202.4600  146.1510 N   0  0  0  0  0  2  0  0  0  0  0  0
  159.9660  201.1070  144.8280 O   0  0  0  0  0  0  0  0  0  0  0  0
  162.5010  211.7750  148.3190 C   0  0  0  0  0  2  0  0  0  0  0  0
  161.2460  212.5390  148.0650 C   0  0  0  0  0  0  0  0  0  0  0  0
  160.8460  213.5450  148.9510 C   0  0  0  0  0  3  0  0  0  0  0  0
  159.2520  212.9190  146.7310 C   0  0  0  0  0  0  0  0  0  0  0  0
  159.6610  214.2480  148.7200 C   0  0  0  0  0  3  0  0  0  0  0  0
  160.4530  212.2300  146.9550 C   0  0  0  0  0  3  0  0  0  0  0  0
  158.8680  213.9400  147.6110 C   0  0  0  0  0  3  0  0  0  0  0  0
  158.4200  212.6190  145.5230 C   0  0  2  0  0  3  0  0  0  0  0  0
  159.2650  212.4510  144.3410 C   0  0  0  0  0  2  0  0  0  0  0  0
  158.5400  213.7130  144.5430 N   0  0  0  0  0  2  0  0  0  0  0  0
  1  7  1  0  0  0  0
  2 10  1  0  0  0  0
  4  1  2  0  0  0  0
  5  6  2  0  0  0  0
  5  2  1  0  0  0  0
  6  9  1  0  0  0  0
  7 16  1  0  0  0  0
  8  2  2  0  0  0  0
  8  4  1  0  0  0  0
  9  3  2  0  0  0  0
 10  3  1  0  0  0  0
 10  7  2  0  0  0  0
 11 20  1  0  0  0  0
 12 15  2  0  0  0  0
 14 11  2  0  0  0  0
 15 11  1  0  0  0  0
 15 13  1  0  0  0  0
 16 17  2  0  0  0  0
 16 12  1  0  0  0  0
 17 14  1  0  0  0  0
 20 19  2  0  0  0  0
 20 18  1  0  0  0  0
 21  6  1  0  0  0  0
 22 21  1  1  0  0  0
 23 24  1  0  0  0  0
 23 22  1  0  0  0  0
 23 28  1  1  0  0  0
 24 22  1  0  0  0  0
 25 24  2  0  0  0  0
 27 28  1  0  0  0  0
 27 26  1  0  0  0  0
 29 27  2  0  0  0  0
 30  4  1  0  0  0  0
 31 30  1  0  0  0  0
 31 32  1  0  0  0  0
 33 35  1  0  0  0  0
 33 36  2  0  0  0  0
 34 32  2  0  0  0  0
 35 31  2  0  0  0  0
 36 34  1  0  0  0  0
 37 33  1  1  0  0  0
 38 39  1  0  0  0  0
 38 37  1  0  0  0  0
 39 37  1  0  0  0  0
M  END
>  <MODEL>
7

>  <REMARK>
 VINA RESULT:      -8.9      3.241      8.541
  Name = 
  8 active torsions:
  status: ('A' for Active; 'I' for Inactive)
    1  A    between atoms: C_3  and  C_37
    2  A    between atoms: O_5  and  C_7
    3  A    between atoms: O_5  and  C_30
    4  A    between atoms: C_6  and  C_8
    5  A    between atoms: C_11  and  N_25
    6  A    between atoms: C_16  and  C_19
    7  A    between atoms: C_24  and  C_37
    8  A    between atoms: C_29  and  C_31
                            x       y       z     vdW  Elec       q    Type
                         _______ _______ _______ _____ _____    ______ ____

>  <TORSDO>
F 8

$$$$
=
 OpenBabel11052410013D

 39 44  0  0  1  0  0  0  0  0999 V2000
  161.1420  208.8690  152.6750 C   0  0  0  0  0  3  0  0  0  0  0  0
  161.8790  209.8980  150.2100 C   0  0  0  0  0  0  0  0  0  0  0  0
  160.8080  212.0170  150.7090 C   0  0  0  0  0  3  0  0  0  0  0  0
  161.8810  208.1100  151.7670 C   0  0  0  0  0  0  0  0  0  0  0  0
  162.2850  210.4020  148.9710 C   0  0  0  0  0  3  0  0  0  0  0  0
  161.9550  211.7050  148.5930 C   0  0  0  0  0  0  0  0  0  0  0  0
  160.7410  210.1730  152.3530 C   0  0  0  0  0  0  0  0  0  0  0  0
  162.2320  208.6370  150.5660 N   0  0  0  0  0  0  0  0  0  0  0  0
  161.2150  212.5120  149.4680 C   0  0  0  0  0  3  0  0  0  0  0  0
  161.1230  210.7050  151.0960 C   0  0  0  0  0  0  0  0  0  0  0  0
  158.4180  212.4110  155.2240 C   0  0  0  0  0  0  0  0  0  0  0  0
  160.5410  211.4530  154.5120 C   0  0  0  0  0  3  0  0  0  0  0  0
  160.4670  212.6880  156.5970 N   0  0  0  0  0  1  0  0  0  0  0  0
  157.8320  211.8950  154.0580 C   0  0  0  0  0  3  0  0  0  0  0  0
  159.7980  212.1830  155.4440 C   0  0  0  0  0  0  0  0  0  0  0  0
  159.9470  210.9300  153.3560 C   0  0  0  0  0  0  0  0  0  0  0  0
  158.5840  211.1690  153.1350 C   0  0  0  0  0  3  0  0  0  0  0  0
  156.7560  212.5070  157.1410 N   0  0  0  0  0  1  0  0  0  0  0  0
  157.5180  214.4280  156.1080 O   0  0  0  0  0  0  0  0  0  0  0  0
  157.5560  213.1690  156.1650 C   0  0  0  0  0  0  0  0  0  0  0  0
  162.3830  212.1760  147.3490 O   0  0  0  0  0  0  0  0  0  0  0  0
  162.5180  213.5650  147.0540 C   0  0  2  0  0  3  0  0  0  0  0  0
  161.4180  214.0920  146.2860 C   0  0  1  0  0  3  0  0  0  0  0  0
  162.7120  213.7440  145.5460 C   0  0  0  0  0  0  0  0  0  0  0  0
  163.3770  213.6470  144.5280 O   0  0  0  0  0  0  0  0  0  0  0  0
  158.1450  212.2040  146.1700 O   0  0  0  0  0  0  0  0  0  0  0  0
  159.0730  213.1830  146.4930 C   0  0  0  0  0  0  0  0  0  0  0  0
  160.4030  213.0900  145.9850 N   0  0  0  0  0  2  0  0  0  0  0  0
  158.7330  214.1460  147.2300 O   0  0  0  0  0  1  0  0  0  0  0  0
  162.3270  206.7360  152.1360 C   0  0  0  0  0  2  0  0  0  0  0  0
  161.7910  205.7370  151.1670 C   0  0  0  0  0  0  0  0  0  0  0  0
  161.4440  204.4540  151.6030 C   0  0  0  0  0  3  0  0  0  0  0  0
  161.1930  205.1280  148.8930 C   0  0  0  0  0  0  0  0  0  0  0  0
  160.9580  203.5140  150.6910 C   0  0  0  0  0  3  0  0  0  0  0  0
  161.6610  206.0740  149.8160 C   0  0  0  0  0  3  0  0  0  0  0  0
  160.8280  203.8510  149.3400 C   0  0  0  0  0  3  0  0  0  0  0  0
  161.0160  205.4960  147.4530 C   0  0  2  0  0  3  0  0  0  0  0  0
  161.5930  204.4720  146.5820 C   0  0  0  0  0  2  0  0  0  0  0  0
  162.3300  205.7190  146.8240 N   0  0  0  0  0  2  0  0  0  0  0  0
  2  8  2  0  0  0  0
  2 10  1  0  0  0  0
  3 10  1  0  0  0  0
  4 30  1  0  0  0  0
  4  1  2  0  0  0  0
  5  2  1  0  0  0  0
  6  5  2  0  0  0  0
  6  9  1  0  0  0  0
  7  1  1  0  0  0  0
  7 16  1  0  0  0  0
  8  4  1  0  0  0  0
  9  3  2  0  0  0  0
 10  7  2  0  0  0  0
 11 15  1  0  0  0  0
 11 20  1  0  0  0  0
 12 15  2  0  0  0  0
 14 11  2  0  0  0  0
 15 13  1  0  0  0  0
 16 12  1  0  0  0  0
 17 16  2  0  0  0  0
 17 14  1  0  0  0  0
 19 20  2  0  0  0  0
 20 18  1  0  0  0  0
 21  6  1  0  0  0  0
 22 21  1  6  0  0  0
 23 28  1  6  0  0  0
 23 22  1  0  0  0  0
 24 23  1  0  0  0  0
 24 22  1  0  0  0  0
 25 24  2  0  0  0  0
 26 27  2  0  0  0  0
 27 29  1  0  0  0  0
 28 27  1  0  0  0  0
 31 32  1  0  0  0  0
 31 30  1  0  0  0  0
 33 36  2  0  0  0  0
 33 35  1  0  0  0  0
 34 32  2  0  0  0  0
 35 31  2  0  0  0  0
 36 34  1  0  0  0  0
 37 33  1  1  0  0  0
 38 39  1  0  0  0  0
 38 37  1  0  0  0  0
 39 37  1  0  0  0  0
M  END
>  <MODEL>
8

>  <REMARK>
 VINA RESULT:      -8.7      2.857      7.748
  Name = 
  8 active torsions:
  status: ('A' for Active; 'I' for Inactive)
    1  A    between atoms: C_3  and  C_37
    2  A    between atoms: O_5  and  C_7
    3  A    between atoms: O_5  and  C_30
    4  A    between atoms: C_6  and  C_8
    5  A    between atoms: C_11  and  N_25
    6  A    between atoms: C_16  and  C_19
    7  A    between atoms: C_24  and  C_37
    8  A    between atoms: C_29  and  C_31
                            x       y       z     vdW  Elec       q    Type
                         _______ _______ _______ _____ _____    ______ ____

>  <TORSDO>
F 8

$$$$
=
 OpenBabel11052410013D

 39 44  0  0  1  0  0  0  0  0999 V2000
  161.9160  210.4550  150.1420 C   0  0  0  0  0  3  0  0  0  0  0  0
  161.6250  207.9770  148.9360 C   0  0  0  0  0  0  0  0  0  0  0  0
  160.8570  206.9900  151.0160 C   0  0  0  0  0  3  0  0  0  0  0  0
  162.2010  210.2720  148.7890 C   0  0  0  0  0  0  0  0  0  0  0  0
  161.4630  206.7440  148.2980 C   0  0  0  0  0  3  0  0  0  0  0  0
  161.0040  205.6320  149.0090 C   0  0  0  0  0  0  0  0  0  0  0  0
  161.4860  209.3780  150.9300 C   0  0  0  0  0  0  0  0  0  0  0  0
  162.0490  209.0490  148.2200 N   0  0  0  0  0  0  0  0  0  0  0  0
  160.7000  205.7610  150.3710 C   0  0  0  0  0  3  0  0  0  0  0  0
  161.3280  208.1120  150.3150 C   0  0  0  0  0  0  0  0  0  0  0  0
  160.6410  210.0610  155.1100 C   0  0  0  0  0  0  0  0  0  0  0  0
  160.5590  210.8000  152.7910 C   0  0  0  0  0  3  0  0  0  0  0  0
  159.6150  212.2370  154.5000 N   0  0  0  0  0  1  0  0  0  0  0  0
  161.2770  208.8870  154.6800 C   0  0  0  0  0  3  0  0  0  0  0  0
  160.2770  211.0270  154.1410 C   0  0  0  0  0  0  0  0  0  0  0  0
  161.2060  209.6320  152.3690 C   0  0  0  0  0  0  0  0  0  0  0  0
  161.5520  208.6720  153.3290 C   0  0  0  0  0  3  0  0  0  0  0  0
  160.7770  211.4050  157.2600 N   0  0  0  0  0  1  0  0  0  0  0  0
  159.8110  209.3080  157.2080 O   0  0  0  0  0  0  0  0  0  0  0  0
  160.3850  210.2270  156.5630 C   0  0  0  0  0  0  0  0  0  0  0  0
  160.8500  204.4180  148.3360 O   0  0  0  0  0  0  0  0  0  0  0  0
  161.5480  203.2320  148.7130 C   0  0  2  0  0  3  0  0  0  0  0  0
  161.4810  202.1930  147.7170 C   0  0  1  0  0  3  0  0  0  0  0  0
  160.5410  202.0980  148.9210 C   0  0  0  0  0  0  0  0  0  0  0  0
  159.6460  201.5550  149.5470 O   0  0  0  0  0  0  0  0  0  0  0  0
  160.4680  203.8390  144.4680 O   0  0  0  0  0  0  0  0  0  0  0  0
  161.2330  203.5060  145.5760 C   0  0  0  0  0  0  0  0  0  0  0  0
  160.7200  202.5840  146.5370 N   0  0  0  0  0  2  0  0  0  0  0  0
  162.3740  204.0180  145.7230 O   0  0  0  0  0  1  0  0  0  0  0  0
  162.6270  211.4330  147.9550 C   0  0  0  0  0  2  0  0  0  0  0  0
  161.5060  212.4040  147.8040 C   0  0  0  0  0  0  0  0  0  0  0  0
  161.4580  213.5500  148.6040 C   0  0  0  0  0  3  0  0  0  0  0  0
  159.4090  213.0450  146.7580 C   0  0  0  0  0  0  0  0  0  0  0  0
  160.3970  214.4500  148.4730 C   0  0  0  0  0  3  0  0  0  0  0  0
  160.4860  212.1550  146.8790 C   0  0  0  0  0  3  0  0  0  0  0  0
  159.3780  214.2020  147.5490 C   0  0  0  0  0  3  0  0  0  0  0  0
  158.3350  212.8030  145.7430 C   0  0  2  0  0  3  0  0  0  0  0  0
  157.1600  213.6260  146.0270 C   0  0  0  0  0  2  0  0  0  0  0  0
  157.1550  212.2030  146.3910 N   0  0  0  0  0  2  0  0  0  0  0  0
  1  7  1  0  0  0  0
  2 10  1  0  0  0  0
  4  1  2  0  0  0  0
  5  2  1  0  0  0  0
  5  6  2  0  0  0  0
  6  9  1  0  0  0  0
  7 16  1  0  0  0  0
  8  4  1  0  0  0  0
  8  2  2  0  0  0  0
  9  3  2  0  0  0  0
 10  7  2  0  0  0  0
 10  3  1  0  0  0  0
 11 20  1  0  0  0  0
 12 15  1  0  0  0  0
 14 11  1  0  0  0  0
 15 13  1  0  0  0  0
 15 11  2  0  0  0  0
 16 12  2  0  0  0  0
 16 17  1  0  0  0  0
 17 14  2  0  0  0  0
 20 19  2  0  0  0  0
 20 18  1  0  0  0  0
 21  6  1  0  0  0  0
 22 21  1  6  0  0  0
 22 24  1  0  0  0  0
 23 28  1  6  0  0  0
 23 22  1  0  0  0  0
 23 24  1  0  0  0  0
 24 25  2  0  0  0  0
 26 27  2  0  0  0  0
 27 29  1  0  0  0  0
 27 28  1  0  0  0  0
 30  4  1  0  0  0  0
 31 30  1  0  0  0  0
 31 32  1  0  0  0  0
 33 35  1  0  0  0  0
 33 36  2  0  0  0  0
 34 32  2  0  0  0  0
 35 31  2  0  0  0  0
 36 34  1  0  0  0  0
 37 38  1  0  0  0  0
 37 39  1  0  0  0  0
 37 33  1  1  0  0  0
 38 39  1  0  0  0  0
M  END
>  <MODEL>
9

>  <REMARK>
 VINA RESULT:      -8.5      3.250      8.664
  Name = 
  8 active torsions:
  status: ('A' for Active; 'I' for Inactive)
    1  A    between atoms: C_3  and  C_37
    2  A    between atoms: O_5  and  C_7
    3  A    between atoms: O_5  and  C_30
    4  A    between atoms: C_6  and  C_8
    5  A    between atoms: C_11  and  N_25
    6  A    between atoms: C_16  and  C_19
    7  A    between atoms: C_24  and  C_37
    8  A    between atoms: C_29  and  C_31
                            x       y       z     vdW  Elec       q    Type
                         _______ _______ _______ _____ _____    ______ ____

>  <TORSDO>
F 8

$$$$
