=
 OpenBabel11052410463D

 37 39  0  0  1  0  0  0  0  0999 V2000
  161.8720  208.6320  149.5340 C   0  0  0  0  0  2  0  0  0  0  0  0
  161.0500  209.2640  151.8190 C   0  0  2  0  0  3  0  0  0  0  0  0
  161.5660  207.9300  152.3720 C   0  0  0  0  0  2  0  0  0  0  0  0
  162.4000  207.3180  150.0990 C   0  0  0  0  0  2  0  0  0  0  0  0
  161.8770  209.7130  150.6130 C   0  0  0  0  0  2  0  0  0  0  0  0
  161.5330  206.8730  151.2740 C   0  0  1  0  0  3  0  0  0  0  0  0
  160.9740  210.3690  152.8850 C   0  0  1  0  0  3  0  0  0  0  0  0
  158.4020  214.4530  150.4860 C   0  0  0  0  0  3  0  0  0  0  0  0
  160.1850  212.8320  150.8030 C   0  0  0  0  0  3  0  0  0  0  0  0
  158.7320  211.1600  153.6840 C   0  0  0  0  0  3  0  0  0  0  0  0
  159.7240  211.2150  152.7890 C   0  0  0  0  0  0  0  0  0  0  0  0
  158.2460  212.8660  152.2180 C   0  0  0  0  0  0  0  0  0  0  0  0
  157.7220  213.9230  151.5450 N   0  0  0  0  0  2  0  0  0  0  0  0
  157.6620  212.1830  153.3970 C   0  0  0  0  0  3  0  0  0  0  0  0
  159.6460  213.9190  150.0980 C   0  0  0  0  0  3  0  0  0  0  0  0
  159.4460  212.3110  151.8660 C   0  0  0  0  0  0  0  0  0  0  0  0
  161.9540  210.5030  155.1530 C   0  0  0  0  0  3  0  0  0  0  0  0
  161.1770  209.8530  154.2850 C   0  0  0  0  0  3  0  0  0  0  0  0
  163.4230  210.3120  156.9940 O   0  0  0  0  0  1  0  0  0  0  0  0
  162.1460  209.9770  156.5360 C   0  0  2  0  0  3  0  0  0  0  0  0
  161.9820  208.4660  156.5260 C   0  0  0  0  0  2  0  0  0  0  0  0
  159.6490  208.8550  156.8420 O   0  0  0  0  0  1  0  0  0  0  0  0
  160.7160  208.0580  157.2610 C   0  0  0  0  0  3  0  0  0  0  0  0
  160.4300  206.7240  156.9810 O   0  0  0  0  0  1  0  0  0  0  0  0
  162.0270  205.6100  151.7930 N   0  0  0  0  0  2  0  0  0  0  0  0
  161.0150  204.6660  151.5760 N   0  0  0  0  0  2  0  0  0  0  0  0
  159.9160  203.2090  150.1460 O   0  0  0  0  0  0  0  0  0  0  0  0
  161.6820  204.4020  149.2070 N   0  0  0  0  0  0  0  0  0  0  0  0
  160.8310  204.0600  150.3000 C   0  0  0  0  0  0  0  0  0  0  0  0
  163.0180  205.2950  146.9220 O   0  0  0  0  0  0  0  0  0  0  0  0
  161.4190  203.9220  147.9170 N   0  0  0  0  0  0  0  0  0  0  0  0
  162.0880  204.4550  146.7720 C   0  0  0  0  0  0  0  0  0  0  0  0
  161.6960  204.0300  145.3850 C   0  0  1  0  0  3  0  0  0  0  0  0
  160.8070  202.7940  145.3780 C   0  0  0  0  0  1  0  0  0  0  0  0
  160.0510  205.7400  145.1560 O   0  0  0  0  0  0  0  0  0  0  0  0
  161.5180  205.5590  143.3650 N   0  0  0  0  0  1  0  0  0  0  0  0
  161.0380  205.1510  144.6440 C   0  0  0  0  0  0  0  0  0  0  0  0
  1  4  1  0  0  0  0
  1  5  1  0  0  0  0
  2  3  1  0  0  0  0
  2  7  1  1  0  0  0
  4  6  1  0  0  0  0
  5  2  1  0  0  0  0
  6 25  1  1  0  0  0
  6  3  1  0  0  0  0
  7 18  1  1  0  0  0
  8 13  1  0  0  0  0
  9 16  2  0  0  0  0
 11  7  1  0  0  0  0
 11 10  2  0  0  0  0
 12 14  2  0  0  0  0
 13 12  1  0  0  0  0
 14 10  1  0  0  0  0
 15  8  2  0  0  0  0
 15  9  1  0  0  0  0
 16 12  1  0  0  0  0
 16 11  1  0  0  0  0
 17 20  1  0  0  0  0
 18 17  2  0  0  0  0
 20 19  1  6  0  0  0
 21 20  1  0  0  0  0
 21 23  1  0  0  0  0
 22 23  1  0  0  0  0
 24 23  1  0  0  0  0
 26 25  1  0  0  0  0
 27 29  2  0  0  0  0
 28 29  1  0  0  0  0
 29 26  1  0  0  0  0
 31 28  2  0  0  0  0
 32 30  2  0  0  0  0
 32 31  1  0  0  0  0
 33 34  1  1  0  0  0
 33 32  1  0  0  0  0
 36 37  1  0  0  0  0
 37 35  2  0  0  0  0
 37 33  1  0  0  0  0
M  END
>  <MODEL>
1

>  <REMARK>
 VINA RESULT:      -7.4      0.000      0.000
  Name = 
  11 active torsions:
  status: ('A' for Active; 'I' for Inactive)
    1  A    between atoms: C_5  and  C_6
    2  A    between atoms: C_6  and  C_21
    3  A    between atoms: C_6  and  C_37
    4  A    between atoms: C_7  and  C_30
    5  A    between atoms: C_10  and  C_12
    6  A    between atoms: C_10  and  C_33
    7  A    between atoms: N_11  and  N_25
    8  A    between atoms: N_13  and  N_17
    9  A    between atoms: N_13  and  C_29
   10  A    between atoms: C_14  and  C_19
   11  A    between atoms: C_14  and  C_30
                            x       y       z     vdW  Elec       q    Type
                         _______ _______ _______ _____ _____    ______ ____

>  <TORSDO>
F 11

$$$$
=
 OpenBabel11052410463D

 37 39  0  0  1  0  0  0  0  0999 V2000
  162.0340  208.2990  150.0720 C   0  0  0  0  0  2  0  0  0  0  0  0
  160.4580  208.3210  152.0250 C   0  0  2  0  0  3  0  0  0  0  0  0
  161.0380  206.9860  152.5050 C   0  0  0  0  0  2  0  0  0  0  0  0
  162.6170  206.9820  150.5710 C   0  0  0  0  0  2  0  0  0  0  0  0
  161.5010  209.1210  151.2440 C   0  0  0  0  0  2  0  0  0  0  0  0
  161.5450  206.1860  151.3100 C   0  0  1  0  0  3  0  0  0  0  0  0
  159.8490  209.1590  153.1620 C   0  0  1  0  0  3  0  0  0  0  0  0
  163.4540  210.2770  157.0090 C   0  0  0  0  0  3  0  0  0  0  0  0
  162.2330  210.6350  154.9390 C   0  0  0  0  0  3  0  0  0  0  0  0
  160.0790  207.7210  155.2030 C   0  0  0  0  0  3  0  0  0  0  0  0
  160.4120  208.8240  154.5250 C   0  0  0  0  0  0  0  0  0  0  0  0
  161.7460  208.7820  156.3840 C   0  0  0  0  0  0  0  0  0  0  0  0
  162.7130  209.1570  157.2610 N   0  0  0  0  0  2  0  0  0  0  0  0
  160.8680  207.5920  156.4820 C   0  0  0  0  0  3  0  0  0  0  0  0
  163.2290  211.0340  155.8440 C   0  0  0  0  0  3  0  0  0  0  0  0
  161.4890  209.4960  155.2460 C   0  0  0  0  0  0  0  0  0  0  0  0
  158.7890  211.3570  152.7580 C   0  0  0  0  0  3  0  0  0  0  0  0
  159.9050  210.6400  152.8960 C   0  0  0  0  0  3  0  0  0  0  0  0
  158.2730  213.5220  153.5500 O   0  0  0  0  0  1  0  0  0  0  0  0
  158.8610  212.8230  152.4930 C   0  0  2  0  0  3  0  0  0  0  0  0
  158.1280  213.1370  151.1990 C   0  0  0  0  0  2  0  0  0  0  0  0
  160.3620  213.3730  150.3950 O   0  0  0  0  0  1  0  0  0  0  0  0
  159.0540  213.8250  150.2100 C   0  0  0  0  0  3  0  0  0  0  0  0
  158.6440  213.5290  148.9120 O   0  0  0  0  0  1  0  0  0  0  0  0
  162.0990  204.9240  151.7640 N   0  0  0  0  0  2  0  0  0  0  0  0
  161.1390  203.9430  151.4850 N   0  0  0  0  0  2  0  0  0  0  0  0
  160.0470  202.5980  149.9440 O   0  0  0  0  0  0  0  0  0  0  0  0
  161.6660  204.0250  149.0680 N   0  0  0  0  0  0  0  0  0  0  0  0
  160.9120  203.4880  150.1540 C   0  0  0  0  0  0  0  0  0  0  0  0
  163.0090  205.0630  146.8490 O   0  0  0  0  0  0  0  0  0  0  0  0
  161.3510  203.6920  147.7440 N   0  0  0  0  0  0  0  0  0  0  0  0
  162.0280  204.2970  146.6400 C   0  0  0  0  0  0  0  0  0  0  0  0
  161.5860  204.0350  145.2280 C   0  0  1  0  0  3  0  0  0  0  0  0
  160.5010  202.9700  145.1400 C   0  0  0  0  0  1  0  0  0  0  0  0
  161.6050  205.6060  143.4360 O   0  0  0  0  0  0  0  0  0  0  0  0
  160.1810  206.1490  145.1880 N   0  0  0  0  0  1  0  0  0  0  0  0
  161.1360  205.2960  144.5620 C   0  0  0  0  0  0  0  0  0  0  0  0
  1  4  1  0  0  0  0
  1  5  1  0  0  0  0
  2  3  1  0  0  0  0
  2  7  1  1  0  0  0
  4  6  1  0  0  0  0
  5  2  1  0  0  0  0
  6 25  1  1  0  0  0
  6  3  1  0  0  0  0
  7 18  1  6  0  0  0
  7 11  1  0  0  0  0
  8 13  1  0  0  0  0
  9 16  2  0  0  0  0
  9 15  1  0  0  0  0
 10 14  1  0  0  0  0
 11 10  2  0  0  0  0
 11 16  1  0  0  0  0
 12 14  2  0  0  0  0
 12 13  1  0  0  0  0
 15  8  2  0  0  0  0
 16 12  1  0  0  0  0
 17 18  2  0  0  0  0
 20 17  1  0  0  0  0
 20 19  1  1  0  0  0
 21 20  1  0  0  0  0
 23 22  1  0  0  0  0
 23 21  1  0  0  0  0
 24 23  1  0  0  0  0
 26 25  1  0  0  0  0
 27 29  2  0  0  0  0
 28 29  1  0  0  0  0
 29 26  1  0  0  0  0
 31 28  2  0  0  0  0
 32 30  2  0  0  0  0
 32 31  1  0  0  0  0
 33 34  1  1  0  0  0
 33 32  1  0  0  0  0
 35 37  2  0  0  0  0
 37 36  1  0  0  0  0
 37 33  1  0  0  0  0
M  END
>  <MODEL>
2

>  <REMARK>
 VINA RESULT:      -7.2      2.638      4.751
  Name = 
  11 active torsions:
  status: ('A' for Active; 'I' for Inactive)
    1  A    between atoms: C_5  and  C_6
    2  A    between atoms: C_6  and  C_21
    3  A    between atoms: C_6  and  C_37
    4  A    between atoms: C_7  and  C_30
    5  A    between atoms: C_10  and  C_12
    6  A    between atoms: C_10  and  C_33
    7  A    between atoms: N_11  and  N_25
    8  A    between atoms: N_13  and  N_17
    9  A    between atoms: N_13  and  C_29
   10  A    between atoms: C_14  and  C_19
   11  A    between atoms: C_14  and  C_30
                            x       y       z     vdW  Elec       q    Type
                         _______ _______ _______ _____ _____    ______ ____

>  <TORSDO>
F 11

$$$$
=
 OpenBabel11052410463D

 37 39  0  0  1  0  0  0  0  0999 V2000
  160.3390  203.9690  151.1710 C   0  0  0  0  0  2  0  0  0  0  0  0
  161.3840  205.8670  149.9050 C   0  0  2  0  0  3  0  0  0  0  0  0
  162.0810  206.3360  151.1880 C   0  0  0  0  0  2  0  0  0  0  0  0
  161.0550  204.4320  152.4350 C   0  0  0  0  0  2  0  0  0  0  0  0
  161.1450  204.3570  149.9330 C   0  0  0  0  0  2  0  0  0  0  0  0
  161.2430  205.9460  152.4000 C   0  0  1  0  0  3  0  0  0  0  0  0
  162.1240  206.2910  148.6260 C   0  0  1  0  0  3  0  0  0  0  0  0
  160.6070  202.4740  145.1370 C   0  0  0  0  0  3  0  0  0  0  0  0
  161.5760  203.3500  147.1860 C   0  0  0  0  0  3  0  0  0  0  0  0
  160.9110  206.8570  146.5050 C   0  0  0  0  0  3  0  0  0  0  0  0
  161.3830  205.9390  147.3560 C   0  0  1  0  0  3  0  0  0  0  0  0
  160.5710  204.7910  145.5500 C   0  0  0  0  0  0  0  0  0  0  0  0
  160.2740  203.7390  144.7450 N   0  0  0  0  0  0  0  0  0  0  0  0
  160.3090  206.2240  145.2760 C   0  0  0  0  0  3  0  0  0  0  0  0
  161.2650  202.2570  146.3630 C   0  0  0  0  0  3  0  0  0  0  0  0
  161.2010  204.6220  146.7530 C   0  0  0  0  0  0  0  0  0  0  0  0
  161.8430  208.6460  149.3270 C   0  0  0  0  0  3  0  0  0  0  0  0
  162.5340  207.7400  148.6350 C   0  0  0  0  0  3  0  0  0  0  0  0
  161.9450  210.6640  150.5520 O   0  0  0  0  0  1  0  0  0  0  0  0
  162.2610  210.0780  149.3240 C   0  0  2  0  0  3  0  0  0  0  0  0
  161.5400  210.8100  148.2040 C   0  0  0  0  0  2  0  0  0  0  0  0
  162.0100  212.6000  146.6970 O   0  0  0  0  0  1  0  0  0  0  0  0
  162.0910  212.2170  148.0370 C   0  0  0  0  0  3  0  0  0  0  0  0
  161.3450  213.1000  148.8140 O   0  0  0  0  0  1  0  0  0  0  0  0
  161.9050  206.3840  153.6150 N   0  0  0  0  0  2  0  0  0  0  0  0
  160.9120  206.4760  154.5990 N   0  0  0  0  0  2  0  0  0  0  0  0
  159.4740  207.7770  155.8710 O   0  0  0  0  0  0  0  0  0  0  0  0
  160.8330  208.9410  154.3790 N   0  0  0  0  0  2  0  0  0  0  0  0
  160.3720  207.7360  154.9900 C   0  0  0  0  0  0  0  0  0  0  0  0
  159.3410  210.7540  152.8670 O   0  0  0  0  0  0  0  0  0  0  0  0
  160.4150  210.1900  154.8560 N   0  0  0  0  0  2  0  0  0  0  0  0
  159.7050  211.1080  154.0220 C   0  0  0  0  0  0  0  0  0  0  0  0
  159.3860  212.4960  154.5020 C   0  0  1  0  0  3  0  0  0  0  0  0
  158.9050  213.4090  153.3830 C   0  0  0  0  0  1  0  0  0  0  0  0
  158.5280  213.2410  156.5970 O   0  0  0  0  0  0  0  0  0  0  0  0
  157.2830  211.5660  155.5780 N   0  0  0  0  0  1  0  0  0  0  0  0
  158.3890  212.4640  155.6160 C   0  0  0  0  0  0  0  0  0  0  0  0
  1  4  1  0  0  0  0
  2  7  1  6  0  0  0
  2  5  1  0  0  0  0
  2  3  1  0  0  0  0
  3  6  1  0  0  0  0
  5  1  1  0  0  0  0
  6  4  1  0  0  0  0
  6 25  1  1  0  0  0
  7 18  1  1  0  0  0
  8 15  1  0  0  0  0
 10 11  1  0  0  0  0
 11  7  1  6  0  0  0
 12 16  2  0  0  0  0
 13  8  2  0  0  0  0
 13 12  1  0  0  0  0
 14 12  1  0  0  0  0
 14 10  2  0  0  0  0
 15  9  2  0  0  0  0
 16  9  1  0  0  0  0
 16 11  1  0  0  0  0
 18 17  2  0  0  0  0
 20 17  1  0  0  0  0
 20 19  1  1  0  0  0
 21 20  1  0  0  0  0
 22 23  1  0  0  0  0
 23 21  1  0  0  0  0
 23 24  1  0  0  0  0
 25 26  1  0  0  0  0
 26 29  1  0  0  0  0
 28 31  1  0  0  0  0
 28 29  1  0  0  0  0
 29 27  2  0  0  0  0
 30 32  2  0  0  0  0
 32 33  1  0  0  0  0
 32 31  1  0  0  0  0
 33 34  1  6  0  0  0
 33 37  1  0  0  0  0
 36 37  1  0  0  0  0
 37 35  2  0  0  0  0
M  END
>  <MODEL>
3

>  <REMARK>
 VINA RESULT:      -7.0      3.167      9.134
  Name = 
  11 active torsions:
  status: ('A' for Active; 'I' for Inactive)
    1  A    between atoms: C_5  and  C_6
    2  A    between atoms: C_6  and  C_21
    3  A    between atoms: C_6  and  C_37
    4  A    between atoms: C_7  and  C_30
    5  A    between atoms: C_10  and  C_12
    6  A    between atoms: C_10  and  C_33
    7  A    between atoms: N_11  and  N_25
    8  A    between atoms: N_13  and  N_17
    9  A    between atoms: N_13  and  C_29
   10  A    between atoms: C_14  and  C_19
   11  A    between atoms: C_14  and  C_30
                            x       y       z     vdW  Elec       q    Type
                         _______ _______ _______ _____ _____    ______ ____

>  <TORSDO>
F 11

$$$$
=
 OpenBabel11052410463D

 37 39  0  0  1  0  0  0  0  0999 V2000
  162.0030  209.9700  151.4510 C   0  0  0  0  0  2  0  0  0  0  0  0
  162.2440  207.4860  151.1790 C   0  0  2  0  0  3  0  0  0  0  0  0
  161.2580  207.2660  152.3310 C   0  0  0  0  0  2  0  0  0  0  0  0
  161.0070  209.7380  152.5810 C   0  0  0  0  0  2  0  0  0  0  0  0
  161.9610  208.8070  150.4610 C   0  0  0  0  0  2  0  0  0  0  0  0
  161.3370  208.4360  153.3060 C   0  0  1  0  0  3  0  0  0  0  0  0
  162.2870  206.3110  150.1880 C   0  0  1  0  0  3  0  0  0  0  0  0
  160.2590  201.4010  149.2800 C   0  0  0  0  0  3  0  0  0  0  0  0
  161.2810  203.5250  148.6890 C   0  0  0  0  0  3  0  0  0  0  0  0
  161.4930  204.8500  152.0660 C   0  0  0  0  0  3  0  0  0  0  0  0
  161.7600  205.0160  150.7660 C   0  0  0  0  0  0  0  0  0  0  0  0
  160.8000  202.9490  150.9690 C   0  0  0  0  0  0  0  0  0  0  0  0
  160.2830  201.7490  150.6000 N   0  0  0  0  0  2  0  0  0  0  0  0
  160.8840  203.4990  152.3430 C   0  0  0  0  0  3  0  0  0  0  0  0
  160.7550  202.2830  148.3010 C   0  0  0  0  0  3  0  0  0  0  0  0
  161.3010  203.8300  150.0500 C   0  0  0  0  0  0  0  0  0  0  0  0
  162.2000  206.2770  147.7160 C   0  0  0  0  0  3  0  0  0  0  0  0
  161.6310  206.6280  148.8700 C   0  0  0  0  0  3  0  0  0  0  0  0
  160.1690  206.3360  146.5090 O   0  0  0  0  0  1  0  0  0  0  0  0
  161.5380  206.6000  146.4190 C   0  0  2  0  0  3  0  0  0  0  0  0
  162.1540  205.7530  145.3170 C   0  0  0  0  0  2  0  0  0  0  0  0
  161.2430  205.0690  143.2200 O   0  0  0  0  0  1  0  0  0  0  0  0
  161.0870  204.9420  144.6020 C   0  0  0  0  0  3  0  0  0  0  0  0
  161.2110  203.6010  144.9570 O   0  0  0  0  0  1  0  0  0  0  0  0
  160.3990  208.2320  154.3950 N   0  0  0  0  0  2  0  0  0  0  0  0
  160.9290  208.8990  155.5070 N   0  0  0  0  0  2  0  0  0  0  0  0
  160.7190  210.5230  157.1490 O   0  0  0  0  0  0  0  0  0  0  0  0
  158.9330  210.3550  155.6630 N   0  0  0  0  0  0  0  0  0  0  0  0
  160.2150  209.9540  156.1460 C   0  0  0  0  0  0  0  0  0  0  0  0
  156.6240  211.4770  154.5630 O   0  0  0  0  0  0  0  0  0  0  0  0
  158.2900  211.4820  156.1920 N   0  0  0  0  0  0  0  0  0  0  0  0
  157.1450  212.0550  155.5560 C   0  0  0  0  0  0  0  0  0  0  0  0
  156.5520  213.3420  156.0550 C   0  0  1  0  0  3  0  0  0  0  0  0
  156.2840  214.3390  154.9350 C   0  0  0  0  0  1  0  0  0  0  0  0
  154.5490  214.0550  157.1330 O   0  0  0  0  0  0  0  0  0  0  0  0
  154.9600  211.7740  157.2600 N   0  0  0  0  0  1  0  0  0  0  0  0
  155.3040  213.0910  156.8400 C   0  0  0  0  0  0  0  0  0  0  0  0
  1  4  1  0  0  0  0
  2  7  1  6  0  0  0
  2  3  1  0  0  0  0
  3  6  1  0  0  0  0
  4  6  1  0  0  0  0
  5  2  1  0  0  0  0
  5  1  1  0  0  0  0
  6 25  1  1  0  0  0
  7 18  1  6  0  0  0
  7 11  1  0  0  0  0
  8 13  1  0  0  0  0
  9 16  2  0  0  0  0
 10 14  1  0  0  0  0
 11 10  2  0  0  0  0
 12 14  2  0  0  0  0
 13 12  1  0  0  0  0
 15  9  1  0  0  0  0
 15  8  2  0  0  0  0
 16 11  1  0  0  0  0
 16 12  1  0  0  0  0
 17 18  2  0  0  0  0
 20 19  1  1  0  0  0
 20 17  1  0  0  0  0
 21 20  1  0  0  0  0
 22 23  1  0  0  0  0
 23 24  1  0  0  0  0
 23 21  1  0  0  0  0
 25 26  1  0  0  0  0
 26 29  1  0  0  0  0
 28 29  1  0  0  0  0
 28 31  2  0  0  0  0
 29 27  2  0  0  0  0
 30 32  2  0  0  0  0
 32 33  1  0  0  0  0
 32 31  1  0  0  0  0
 33 34  1  6  0  0  0
 33 37  1  0  0  0  0
 37 35  2  0  0  0  0
 37 36  1  0  0  0  0
M  END
>  <MODEL>
4

>  <REMARK>
 VINA RESULT:      -6.9      3.053     10.381
  Name = 
  11 active torsions:
  status: ('A' for Active; 'I' for Inactive)
    1  A    between atoms: C_5  and  C_6
    2  A    between atoms: C_6  and  C_21
    3  A    between atoms: C_6  and  C_37
    4  A    between atoms: C_7  and  C_30
    5  A    between atoms: C_10  and  C_12
    6  A    between atoms: C_10  and  C_33
    7  A    between atoms: N_11  and  N_25
    8  A    between atoms: N_13  and  N_17
    9  A    between atoms: N_13  and  C_29
   10  A    between atoms: C_14  and  C_19
   11  A    between atoms: C_14  and  C_30
                            x       y       z     vdW  Elec       q    Type
                         _______ _______ _______ _____ _____    ______ ____

>  <TORSDO>
F 11

$$$$
=
 OpenBabel11052410463D

 37 39  0  0  1  0  0  0  0  0999 V2000
  162.2510  210.1330  149.8540 C   0  0  0  0  0  2  0  0  0  0  0  0
  162.2070  207.6290  150.0230 C   0  0  2  0  0  3  0  0  0  0  0  0
  161.3450  207.7310  151.2860 C   0  0  0  0  0  2  0  0  0  0  0  0
  161.3760  210.2210  151.1000 C   0  0  0  0  0  2  0  0  0  0  0  0
  161.9760  208.8310  149.1050 C   0  0  0  0  0  2  0  0  0  0  0  0
  161.6560  209.0330  152.0160 C   0  0  1  0  0  3  0  0  0  0  0  0
  162.0130  206.3050  149.2660 C   0  0  1  0  0  3  0  0  0  0  0  0
  160.4340  201.1660  149.6430 C   0  0  0  0  0  3  0  0  0  0  0  0
  161.2880  203.1500  148.5300 C   0  0  0  0  0  3  0  0  0  0  0  0
  161.2950  205.3090  151.4520 C   0  0  0  0  0  3  0  0  0  0  0  0
  161.5830  205.1600  150.1550 C   0  0  0  0  0  0  0  0  0  0  0  0
  160.7950  203.1360  150.8790 C   0  0  0  0  0  0  0  0  0  0  0  0
  160.3920  201.8410  150.8300 N   0  0  0  0  0  2  0  0  0  0  0  0
  160.7950  204.0250  152.0650 C   0  0  0  0  0  3  0  0  0  0  0  0
  160.8810  201.8080  148.4730 C   0  0  0  0  0  3  0  0  0  0  0  0
  161.2450  203.7940  149.7670 C   0  0  0  0  0  0  0  0  0  0  0  0
  161.5570  206.1890  146.8380 C   0  0  0  0  0  3  0  0  0  0  0  0
  161.1090  206.4370  148.0690 C   0  0  0  0  0  3  0  0  0  0  0  0
  159.3190  206.2940  146.0870 O   0  0  0  0  0  1  0  0  0  0  0  0
  160.6490  206.3260  145.6620 C   0  0  2  0  0  3  0  0  0  0  0  0
  160.9080  205.1850  144.6910 C   0  0  0  0  0  2  0  0  0  0  0  0
  160.8630  202.8260  145.0460 O   0  0  0  0  0  1  0  0  0  0  0  0
  161.5280  203.9980  145.4100 C   0  0  0  0  0  3  0  0  0  0  0  0
  162.8710  203.8940  145.0560 O   0  0  0  0  0  1  0  0  0  0  0  0
  160.8370  209.1340  153.2100 N   0  0  0  0  0  2  0  0  0  0  0  0
  161.4330  210.1090  154.0220 N   0  0  0  0  0  2  0  0  0  0  0  0
  161.3100  211.5410  155.8410 O   0  0  0  0  0  0  0  0  0  0  0  0
  159.4100  210.2540  155.4410 N   0  0  0  0  0  2  0  0  0  0  0  0
  160.7380  210.6740  155.1300 C   0  0  0  0  0  0  0  0  0  0  0  0
  157.3870  212.1030  154.9010 O   0  0  0  0  0  0  0  0  0  0  0  0
  158.6680  210.9050  156.4350 N   0  0  0  0  0  2  0  0  0  0  0  0
  157.6840  211.8890  156.1080 C   0  0  0  0  0  0  0  0  0  0  0  0
  156.9960  212.6780  157.1870 C   0  0  1  0  0  3  0  0  0  0  0  0
  157.3260  214.1630  157.1310 C   0  0  0  0  0  1  0  0  0  0  0  0
  155.0540  211.3010  157.0750 O   0  0  0  0  0  0  0  0  0  0  0  0
  154.6230  213.5800  157.1850 N   0  0  0  0  0  1  0  0  0  0  0  0
  155.5150  212.4700  157.1450 C   0  0  0  0  0  0  0  0  0  0  0  0
  1  4  1  0  0  0  0
  2  7  1  6  0  0  0
  2  3  1  0  0  0  0
  3  6  1  0  0  0  0
  4  6  1  0  0  0  0
  5  1  1  0  0  0  0
  5  2  1  0  0  0  0
  6 25  1  1  0  0  0
  7 18  1  6  0  0  0
  7 11  1  0  0  0  0
  8 13  1  0  0  0  0
  9 16  2  0  0  0  0
 10 14  1  0  0  0  0
 11 10  2  0  0  0  0
 12 14  2  0  0  0  0
 13 12  1  0  0  0  0
 15  9  1  0  0  0  0
 15  8  2  0  0  0  0
 16 11  1  0  0  0  0
 16 12  1  0  0  0  0
 17 18  2  0  0  0  0
 20 19  1  1  0  0  0
 20 17  1  0  0  0  0
 21 23  1  0  0  0  0
 21 20  1  0  0  0  0
 22 23  1  0  0  0  0
 24 23  1  0  0  0  0
 25 26  1  0  0  0  0
 26 29  1  0  0  0  0
 28 31  1  0  0  0  0
 29 28  1  0  0  0  0
 29 27  2  0  0  0  0
 30 32  2  0  0  0  0
 32 31  1  0  0  0  0
 32 33  1  0  0  0  0
 33 34  1  6  0  0  0
 35 37  2  0  0  0  0
 37 36  1  0  0  0  0
 37 33  1  0  0  0  0
M  END
>  <MODEL>
5

>  <REMARK>
 VINA RESULT:      -6.8      3.146     10.472
  Name = 
  11 active torsions:
  status: ('A' for Active; 'I' for Inactive)
    1  A    between atoms: C_5  and  C_6
    2  A    between atoms: C_6  and  C_21
    3  A    between atoms: C_6  and  C_37
    4  A    between atoms: C_7  and  C_30
    5  A    between atoms: C_10  and  C_12
    6  A    between atoms: C_10  and  C_33
    7  A    between atoms: N_11  and  N_25
    8  A    between atoms: N_13  and  N_17
    9  A    between atoms: N_13  and  C_29
   10  A    between atoms: C_14  and  C_19
   11  A    between atoms: C_14  and  C_30
                            x       y       z     vdW  Elec       q    Type
                         _______ _______ _______ _____ _____    ______ ____

>  <TORSDO>
F 11

$$$$
=
 OpenBabel11052410463D

 37 39  0  0  1  0  0  0  0  0999 V2000
  161.4130  207.2640  147.8830 C   0  0  0  0  0  2  0  0  0  0  0  0
  161.5350  206.6740  150.3200 C   0  0  2  0  0  3  0  0  0  0  0  0
  161.7160  208.1560  150.6680 C   0  0  0  0  0  2  0  0  0  0  0  0
  161.5720  208.7370  148.2430 C   0  0  0  0  0  2  0  0  0  0  0  0
  160.7360  206.5090  149.0260 C   0  0  0  0  0  2  0  0  0  0  0  0
  162.4070  208.8740  149.5130 C   0  0  1  0  0  3  0  0  0  0  0  0
  160.9160  205.8560  151.4650 C   0  0  1  0  0  3  0  0  0  0  0  0
  161.2050  201.6390  148.1220 C   0  0  0  0  0  3  0  0  0  0  0  0
  161.1040  203.9900  148.7260 C   0  0  0  0  0  3  0  0  0  0  0  0
  161.0600  203.5050  152.3260 C   0  0  0  0  0  3  0  0  0  0  0  0
  161.0860  204.3630  151.3000 C   0  0  0  0  0  0  0  0  0  0  0  0
  161.1750  202.2640  150.3910 C   0  0  0  0  0  0  0  0  0  0  0  0
  161.2110  201.2920  149.4440 N   0  0  0  0  0  2  0  0  0  0  0  0
  161.1500  202.0740  151.8620 C   0  0  0  0  0  3  0  0  0  0  0  0
  161.1500  202.9920  147.7400 C   0  0  0  0  0  3  0  0  0  0  0  0
  161.1300  203.5910  150.0620 C   0  0  0  0  0  0  0  0  0  0  0  0
  160.5790  207.0460  153.6070 C   0  0  0  0  0  3  0  0  0  0  0  0
  161.3710  206.3110  152.8270 C   0  0  0  0  0  3  0  0  0  0  0  0
  160.2310  206.9330  155.9420 O   0  0  0  0  0  1  0  0  0  0  0  0
  161.0450  207.4900  154.9530 C   0  0  2  0  0  3  0  0  0  0  0  0
  160.9840  209.0070  155.0300 C   0  0  0  0  0  2  0  0  0  0  0  0
  162.7150  209.9980  156.3410 O   0  0  0  0  0  1  0  0  0  0  0  0
  161.4150  209.4930  156.4040 C   0  0  0  0  0  3  0  0  0  0  0  0
  160.5510  210.5000  156.8290 O   0  0  0  0  0  1  0  0  0  0  0  0
  162.5730  210.2780  149.8390 N   0  0  0  0  0  2  0  0  0  0  0  0
  162.0770  211.0030  148.7470 N   0  0  0  0  0  2  0  0  0  0  0  0
  160.7870  212.7460  147.9270 O   0  0  0  0  0  0  0  0  0  0  0  0
  160.8170  212.5180  150.2450 N   0  0  0  0  0  2  0  0  0  0  0  0
  161.2050  212.1140  148.9320 C   0  0  0  0  0  0  0  0  0  0  0  0
  158.5620  212.2020  151.8630 O   0  0  0  0  0  0  0  0  0  0  0  0
  159.8500  213.5140  150.4310 N   0  0  0  0  0  2  0  0  0  0  0  0
  158.6810  213.2820  151.2210 C   0  0  0  0  0  0  0  0  0  0  0  0
  157.5870  214.3090  151.2970 C   0  0  1  0  0  3  0  0  0  0  0  0
  156.5590  214.1560  150.1840 C   0  0  0  0  0  1  0  0  0  0  0  0
  155.6720  214.1100  152.7020 O   0  0  0  0  0  0  0  0  0  0  0  0
  157.6720  214.4530  153.8300 N   0  0  0  0  0  1  0  0  0  0  0  0
  156.9170  214.2840  152.6340 C   0  0  0  0  0  0  0  0  0  0  0  0
  1  4  1  0  0  0  0
  1  5  1  0  0  0  0
  2  3  1  0  0  0  0
  2  7  1  1  0  0  0
  4  6  1  0  0  0  0
  5  2  1  0  0  0  0
  6 25  1  1  0  0  0
  6  3  1  0  0  0  0
  7 18  1  1  0  0  0
  8 13  1  0  0  0  0
  9 16  2  0  0  0  0
 11  7  1  0  0  0  0
 11 10  2  0  0  0  0
 12 14  2  0  0  0  0
 13 12  1  0  0  0  0
 14 10  1  0  0  0  0
 15  8  2  0  0  0  0
 15  9  1  0  0  0  0
 16 12  1  0  0  0  0
 16 11  1  0  0  0  0
 17 20  1  0  0  0  0
 18 17  2  0  0  0  0
 20 21  1  0  0  0  0
 20 19  1  1  0  0  0
 21 23  1  0  0  0  0
 22 23  1  0  0  0  0
 23 24  1  0  0  0  0
 26 29  1  0  0  0  0
 26 25  1  0  0  0  0
 27 29  2  0  0  0  0
 28 31  1  0  0  0  0
 29 28  1  0  0  0  0
 31 32  1  0  0  0  0
 32 33  1  0  0  0  0
 32 30  2  0  0  0  0
 33 34  1  6  0  0  0
 33 37  1  0  0  0  0
 37 35  2  0  0  0  0
 37 36  1  0  0  0  0
M  END
>  <MODEL>
6

>  <REMARK>
 VINA RESULT:      -6.6      3.224      8.411
  Name = 
  11 active torsions:
  status: ('A' for Active; 'I' for Inactive)
    1  A    between atoms: C_5  and  C_6
    2  A    between atoms: C_6  and  C_21
    3  A    between atoms: C_6  and  C_37
    4  A    between atoms: C_7  and  C_30
    5  A    between atoms: C_10  and  C_12
    6  A    between atoms: C_10  and  C_33
    7  A    between atoms: N_11  and  N_25
    8  A    between atoms: N_13  and  N_17
    9  A    between atoms: N_13  and  C_29
   10  A    between atoms: C_14  and  C_19
   11  A    between atoms: C_14  and  C_30
                            x       y       z     vdW  Elec       q    Type
                         _______ _______ _______ _____ _____    ______ ____

>  <TORSDO>
F 11

$$$$
=
 OpenBabel11052410463D

 37 39  0  0  1  0  0  0  0  0999 V2000
  160.8180  207.2920  152.2120 C   0  0  0  0  0  2  0  0  0  0  0  0
  161.5940  209.6660  152.4630 C   0  0  2  0  0  3  0  0  0  0  0  0
  161.9080  209.7200  150.9640 C   0  0  0  0  0  2  0  0  0  0  0  0
  161.1150  207.3640  150.7180 C   0  0  0  0  0  2  0  0  0  0  0  0
  160.4630  208.6760  152.7500 C   0  0  0  0  0  2  0  0  0  0  0  0
  162.2730  208.3260  150.4650 C   0  0  1  0  0  3  0  0  0  0  0  0
  161.2920  211.0470  153.0670 C   0  0  1  0  0  3  0  0  0  0  0  0
  158.9230  214.1360  149.3390 C   0  0  0  0  0  3  0  0  0  0  0  0
  160.7400  212.8840  150.3570 C   0  0  0  0  0  3  0  0  0  0  0  0
  158.8660  211.6640  153.2210 C   0  0  0  0  0  3  0  0  0  0  0  0
  160.0180  211.6690  152.5410 C   0  0  0  0  0  0  0  0  0  0  0  0
  158.5480  212.9400  151.3320 C   0  0  0  0  0  0  0  0  0  0  0  0
  158.0830  213.7480  150.3450 N   0  0  0  0  0  2  0  0  0  0  0  0
  157.7920  212.4430  152.5060 C   0  0  0  0  0  3  0  0  0  0  0  0
  160.2660  213.7130  149.3280 C   0  0  0  0  0  3  0  0  0  0  0  0
  159.8430  212.4980  151.3530 C   0  0  0  0  0  0  0  0  0  0  0  0
  162.3360  210.5040  155.2430 C   0  0  0  0  0  3  0  0  0  0  0  0
  161.3210  211.0520  154.5720 C   0  0  0  0  0  3  0  0  0  0  0  0
  163.4950  211.1690  157.1910 O   0  0  0  0  0  1  0  0  0  0  0  0
  162.3490  210.5140  156.7340 C   0  0  2  0  0  3  0  0  0  0  0  0
  162.3340  209.0830  157.2470 C   0  0  0  0  0  2  0  0  0  0  0  0
  159.9970  209.5650  157.2610 O   0  0  0  0  0  1  0  0  0  0  0  0
  160.9230  208.5200  157.2300 C   0  0  0  0  0  3  0  0  0  0  0  0
  160.7370  207.7760  156.0670 O   0  0  0  0  0  1  0  0  0  0  0  0
  162.5650  208.3740  149.0440 N   0  0  0  0  0  2  0  0  0  0  0  0
  161.3770  208.0410  148.3810 N   0  0  0  0  0  2  0  0  0  0  0  0
  160.1210  206.5020  147.1850 O   0  0  0  0  0  0  0  0  0  0  0  0
  162.2500  205.7950  147.8120 N   0  0  0  0  0  2  0  0  0  0  0  0
  161.2060  206.7670  147.7640 C   0  0  0  0  0  0  0  0  0  0  0  0
  161.0080  203.4930  148.7910 O   0  0  0  0  0  0  0  0  0  0  0  0
  162.1490  204.6000  147.0880 N   0  0  0  0  0  2  0  0  0  0  0  0
  161.5570  203.4300  147.6570 C   0  0  0  0  0  0  0  0  0  0  0  0
  161.5800  202.1200  146.9210 C   0  0  1  0  0  3  0  0  0  0  0  0
  161.1120  200.9550  147.7810 C   0  0  0  0  0  1  0  0  0  0  0  0
  160.1950  201.1650  145.2330 O   0  0  0  0  0  0  0  0  0  0  0  0
  160.6640  203.4210  144.9430 N   0  0  0  0  0  1  0  0  0  0  0  0
  160.7770  202.1960  145.6610 C   0  0  0  0  0  0  0  0  0  0  0  0
  1  5  1  0  0  0  0
  2  5  1  0  0  0  0
  2  7  1  6  0  0  0
  3  2  1  0  0  0  0
  4  1  1  0  0  0  0
  6 25  1  6  0  0  0
  6  4  1  0  0  0  0
  6  3  1  0  0  0  0
  7 18  1  1  0  0  0
  8 13  1  0  0  0  0
  9 16  2  0  0  0  0
 11  7  1  0  0  0  0
 11 10  2  0  0  0  0
 12 16  1  0  0  0  0
 12 14  2  0  0  0  0
 13 12  1  0  0  0  0
 14 10  1  0  0  0  0
 15  8  2  0  0  0  0
 15  9  1  0  0  0  0
 16 11  1  0  0  0  0
 17 20  1  0  0  0  0
 18 17  2  0  0  0  0
 20 19  1  6  0  0  0
 20 21  1  0  0  0  0
 23 21  1  0  0  0  0
 23 22  1  0  0  0  0
 24 23  1  0  0  0  0
 26 25  1  0  0  0  0
 27 29  2  0  0  0  0
 29 28  1  0  0  0  0
 29 26  1  0  0  0  0
 31 32  1  0  0  0  0
 31 28  1  0  0  0  0
 32 30  2  0  0  0  0
 33 32  1  0  0  0  0
 33 34  1  1  0  0  0
 35 37  2  0  0  0  0
 36 37  1  0  0  0  0
 37 33  1  0  0  0  0
M  END
>  <MODEL>
7

>  <REMARK>
 VINA RESULT:      -6.5      1.752      2.255
  Name = 
  11 active torsions:
  status: ('A' for Active; 'I' for Inactive)
    1  A    between atoms: C_5  and  C_6
    2  A    between atoms: C_6  and  C_21
    3  A    between atoms: C_6  and  C_37
    4  A    between atoms: C_7  and  C_30
    5  A    between atoms: C_10  and  C_12
    6  A    between atoms: C_10  and  C_33
    7  A    between atoms: N_11  and  N_25
    8  A    between atoms: N_13  and  N_17
    9  A    between atoms: N_13  and  C_29
   10  A    between atoms: C_14  and  C_19
   11  A    between atoms: C_14  and  C_30
                            x       y       z     vdW  Elec       q    Type
                         _______ _______ _______ _____ _____    ______ ____

>  <TORSDO>
F 11

$$$$
=
 OpenBabel11052410463D

 37 39  0  0  1  0  0  0  0  0999 V2000
  162.2590  207.2310  148.0560 C   0  0  0  0  0  2  0  0  0  0  0  0
  161.5750  206.7130  150.4140 C   0  0  2  0  0  3  0  0  0  0  0  0
  161.3110  208.2030  150.6630 C   0  0  0  0  0  2  0  0  0  0  0  0
  161.9730  208.7070  148.3080 C   0  0  0  0  0  2  0  0  0  0  0  0
  161.3700  206.3600  148.9400 C   0  0  0  0  0  2  0  0  0  0  0  0
  162.2250  209.0410  149.7760 C   0  0  1  0  0  3  0  0  0  0  0  0
  160.7490  205.7930  151.3280 C   0  0  1  0  0  3  0  0  0  0  0  0
  161.0620  201.6320  147.9170 C   0  0  0  0  0  3  0  0  0  0  0  0
  160.8070  203.9620  148.5600 C   0  0  0  0  0  3  0  0  0  0  0  0
  161.2090  203.4640  152.1360 C   0  0  0  0  0  3  0  0  0  0  0  0
  161.0400  204.3230  151.1250 C   0  0  0  0  0  0  0  0  0  0  0  0
  161.2260  202.2450  150.1840 C   0  0  0  0  0  0  0  0  0  0  0  0
  161.2480  201.2840  149.2250 N   0  0  0  0  0  2  0  0  0  0  0  0
  161.3830  202.0490  151.6450 C   0  0  0  0  0  3  0  0  0  0  0  0
  160.8370  202.9760  147.5610 C   0  0  0  0  0  3  0  0  0  0  0  0
  161.0190  203.5630  149.8790 C   0  0  0  0  0  0  0  0  0  0  0  0
  161.1020  207.4260  153.1520 C   0  0  0  0  0  3  0  0  0  0  0  0
  160.8400  206.1720  152.7830 C   0  0  0  0  0  3  0  0  0  0  0  0
  160.4720  206.8600  155.3580 O   0  0  0  0  0  1  0  0  0  0  0  0
  161.1910  207.7850  154.5980 C   0  0  2  0  0  3  0  0  0  0  0  0
  160.6190  209.1780  154.8050 C   0  0  0  0  0  2  0  0  0  0  0  0
  160.8930  211.3060  153.7620 O   0  0  0  0  0  1  0  0  0  0  0  0
  161.5950  210.2380  154.3230 C   0  0  0  0  0  3  0  0  0  0  0  0
  162.3460  210.6970  155.4020 O   0  0  0  0  0  1  0  0  0  0  0  0
  161.9720  210.4520  150.0060 N   0  0  0  0  0  2  0  0  0  0  0  0
  162.8300  211.1560  149.1510 N   0  0  0  0  0  2  0  0  0  0  0  0
  163.1670  212.8690  147.6260 O   0  0  0  0  0  0  0  0  0  0  0  0
  160.9990  212.6690  148.4550 N   0  0  0  0  0  2  0  0  0  0  0  0
  162.3630  212.2560  148.3750 C   0  0  0  0  0  0  0  0  0  0  0  0
  159.9280  212.1150  145.9360 O   0  0  0  0  0  0  0  0  0  0  0  0
  160.4980  213.6520  147.5920 N   0  0  0  0  0  2  0  0  0  0  0  0
  160.0160  213.3240  146.2870 C   0  0  0  0  0  0  0  0  0  0  0  0
  159.6120  214.4030  145.3220 C   0  0  1  0  0  3  0  0  0  0  0  0
  160.5020  214.4510  144.0880 C   0  0  0  0  0  1  0  0  0  0  0  0
  157.8730  214.1850  143.7060 O   0  0  0  0  0  0  0  0  0  0  0  0
  157.1500  214.2070  145.9120 N   0  0  0  0  0  1  0  0  0  0  0  0
  158.1760  214.2600  144.9250 C   0  0  0  0  0  0  0  0  0  0  0  0
  1  4  1  0  0  0  0
  1  5  1  0  0  0  0
  2  3  1  0  0  0  0
  2  7  1  1  0  0  0
  4  6  1  0  0  0  0
  5  2  1  0  0  0  0
  6 25  1  6  0  0  0
  6  3  1  0  0  0  0
  7 18  1  1  0  0  0
  8 13  1  0  0  0  0
  9 16  2  0  0  0  0
 11  7  1  0  0  0  0
 11 10  2  0  0  0  0
 12 14  2  0  0  0  0
 13 12  1  0  0  0  0
 14 10  1  0  0  0  0
 15  8  2  0  0  0  0
 15  9  1  0  0  0  0
 16 12  1  0  0  0  0
 16 11  1  0  0  0  0
 17 20  1  0  0  0  0
 18 17  2  0  0  0  0
 20 21  1  0  0  0  0
 20 19  1  1  0  0  0
 22 23  1  0  0  0  0
 23 21  1  0  0  0  0
 23 24  1  0  0  0  0
 26 25  1  0  0  0  0
 27 29  2  0  0  0  0
 29 28  1  0  0  0  0
 29 26  1  0  0  0  0
 30 32  2  0  0  0  0
 31 28  1  0  0  0  0
 32 31  1  0  0  0  0
 33 34  1  6  0  0  0
 33 32  1  0  0  0  0
 35 37  2  0  0  0  0
 37 33  1  0  0  0  0
 37 36  1  0  0  0  0
M  END
>  <MODEL>
8

>  <REMARK>
 VINA RESULT:      -6.4      3.752      7.866
  Name = 
  11 active torsions:
  status: ('A' for Active; 'I' for Inactive)
    1  A    between atoms: C_5  and  C_6
    2  A    between atoms: C_6  and  C_21
    3  A    between atoms: C_6  and  C_37
    4  A    between atoms: C_7  and  C_30
    5  A    between atoms: C_10  and  C_12
    6  A    between atoms: C_10  and  C_33
    7  A    between atoms: N_11  and  N_25
    8  A    between atoms: N_13  and  N_17
    9  A    between atoms: N_13  and  C_29
   10  A    between atoms: C_14  and  C_19
   11  A    between atoms: C_14  and  C_30
                            x       y       z     vdW  Elec       q    Type
                         _______ _______ _______ _____ _____    ______ ____

>  <TORSDO>
F 11

$$$$
=
 OpenBabel11052410463D

 37 39  0  0  1  0  0  0  0  0999 V2000
  161.8620  206.4960  147.0240 C   0  0  0  0  0  2  0  0  0  0  0  0
  161.3150  205.6740  149.3310 C   0  0  2  0  0  3  0  0  0  0  0  0
  161.1980  207.1230  149.8180 C   0  0  0  0  0  2  0  0  0  0  0  0
  161.7210  207.9330  147.5140 C   0  0  0  0  0  2  0  0  0  0  0  0
  160.9700  205.5660  147.8440 C   0  0  0  0  0  2  0  0  0  0  0  0
  162.1100  208.0190  148.9880 C   0  0  1  0  0  3  0  0  0  0  0  0
  160.4850  204.6870  150.1680 C   0  0  1  0  0  3  0  0  0  0  0  0
  161.0770  200.7200  146.5690 C   0  0  0  0  0  3  0  0  0  0  0  0
  160.7260  203.0050  147.3160 C   0  0  0  0  0  3  0  0  0  0  0  0
  160.9710  202.3310  150.8780 C   0  0  0  0  0  3  0  0  0  0  0  0
  160.8260  203.2370  149.9050 C   0  0  0  0  0  0  0  0  0  0  0  0
  161.1140  201.2170  148.8690 C   0  0  0  0  0  0  0  0  0  0  0  0
  161.2090  200.3090  147.8640 N   0  0  0  0  0  2  0  0  0  0  0  0
  161.2070  200.9490  150.3240 C   0  0  0  0  0  3  0  0  0  0  0  0
  160.8310  202.0740  146.2710 C   0  0  0  0  0  3  0  0  0  0  0  0
  160.8860  202.5430  148.6220 C   0  0  0  0  0  0  0  0  0  0  0  0
  161.3570  205.8990  152.1400 C   0  0  0  0  0  3  0  0  0  0  0  0
  160.5130  204.9950  151.6420 C   0  0  0  0  0  3  0  0  0  0  0  0
  160.9500  205.0680  154.3140 O   0  0  0  0  0  1  0  0  0  0  0  0
  161.3740  206.1930  153.6020 C   0  0  2  0  0  3  0  0  0  0  0  0
  160.4490  207.3640  153.8910 C   0  0  0  0  0  2  0  0  0  0  0  0
  160.2570  209.2950  155.2790 O   0  0  0  0  0  1  0  0  0  0  0  0
  160.7970  208.0090  155.2220 C   0  0  0  0  0  3  0  0  0  0  0  0
  160.2690  207.2420  156.2580 O   0  0  0  0  0  1  0  0  0  0  0  0
  161.9960  209.3920  149.4430 N   0  0  0  0  0  2  0  0  0  0  0  0
  162.3450  209.3930  150.8000 N   0  0  0  0  0  2  0  0  0  0  0  0
  162.1100  210.2940  152.9230 O   0  0  0  0  0  0  0  0  0  0  0  0
  160.8310  211.2970  151.2540 N   0  0  0  0  0  2  0  0  0  0  0  0
  161.7780  210.3310  151.7100 C   0  0  0  0  0  0  0  0  0  0  0  0
  158.5550  211.0720  152.8580 O   0  0  0  0  0  0  0  0  0  0  0  0
  160.3780  212.3130  152.1070 N   0  0  0  0  0  2  0  0  0  0  0  0
  159.1730  212.1720  152.8620 C   0  0  0  0  0  0  0  0  0  0  0  0
  158.6280  213.3200  153.6630 C   0  0  1  0  0  3  0  0  0  0  0  0
  157.1760  213.6340  153.3280 C   0  0  0  0  0  1  0  0  0  0  0  0
  159.8990  212.7090  155.5840 O   0  0  0  0  0  0  0  0  0  0  0  0
  157.6840  213.2540  156.0190 N   0  0  0  0  0  1  0  0  0  0  0  0
  158.7840  213.0760  155.1310 C   0  0  0  0  0  0  0  0  0  0  0  0
  1  4  1  0  0  0  0
  1  5  1  0  0  0  0
  2  3  1  0  0  0  0
  2  7  1  1  0  0  0
  4  6  1  0  0  0  0
  5  2  1  0  0  0  0
  6 25  1  1  0  0  0
  6  3  1  0  0  0  0
  7 18  1  1  0  0  0
  8 13  1  0  0  0  0
  9 16  2  0  0  0  0
 11  7  1  0  0  0  0
 11 10  2  0  0  0  0
 12 14  2  0  0  0  0
 13 12  1  0  0  0  0
 14 10  1  0  0  0  0
 15  8  2  0  0  0  0
 15  9  1  0  0  0  0
 16 12  1  0  0  0  0
 16 11  1  0  0  0  0
 17 20  1  0  0  0  0
 18 17  2  0  0  0  0
 20 21  1  0  0  0  0
 20 19  1  1  0  0  0
 21 23  1  0  0  0  0
 23 22  1  0  0  0  0
 23 24  1  0  0  0  0
 25 26  1  0  0  0  0
 26 29  1  0  0  0  0
 28 29  1  0  0  0  0
 28 31  1  0  0  0  0
 29 27  2  0  0  0  0
 30 32  2  0  0  0  0
 31 32  1  0  0  0  0
 32 33  1  0  0  0  0
 33 34  1  1  0  0  0
 33 37  1  0  0  0  0
 37 35  2  0  0  0  0
 37 36  1  0  0  0  0
M  END
>  <MODEL>
9

>  <REMARK>
 VINA RESULT:      -6.2      3.320      8.909
  Name = 
  11 active torsions:
  status: ('A' for Active; 'I' for Inactive)
    1  A    between atoms: C_5  and  C_6
    2  A    between atoms: C_6  and  C_21
    3  A    between atoms: C_6  and  C_37
    4  A    between atoms: C_7  and  C_30
    5  A    between atoms: C_10  and  C_12
    6  A    between atoms: C_10  and  C_33
    7  A    between atoms: N_11  and  N_25
    8  A    between atoms: N_13  and  N_17
    9  A    between atoms: N_13  and  C_29
   10  A    between atoms: C_14  and  C_19
   11  A    between atoms: C_14  and  C_30
                            x       y       z     vdW  Elec       q    Type
                         _______ _______ _______ _____ _____    ______ ____

>  <TORSDO>
F 11

$$$$
