=
 OpenBabel11052411263D

 43 46  0  0  1  0  0  0  0  0999 V2000
  162.1400  208.9580  152.4970 C   0  0  2  0  0  3  0  0  0  0  0  0
  160.8210  209.8430  153.7280 C   0  0  1  0  0  3  0  0  0  0  0  0
  160.8440  208.4660  153.1070 C   0  0  2  0  0  3  0  0  0  0  0  0
  162.0230  210.2230  153.0970 O   0  0  0  0  0  0  0  0  0  0  0  0
  161.9640  210.3170  150.3560 C   0  0  0  0  0  3  0  0  0  0  0  0
  162.0290  209.2160  148.2020 C   0  0  0  0  0  3  0  0  0  0  0  0
  161.9380  210.3880  148.9630 C   0  0  0  0  0  0  0  0  0  0  0  0
  162.1470  207.9750  148.8310 C   0  0  0  0  0  0  0  0  0  0  0  0
  161.8320  211.7100  148.2880 C   0  0  0  0  0  1  0  0  0  0  0  0
  162.1740  207.9110  150.2320 C   0  0  0  0  0  3  0  0  0  0  0  0
  162.0730  209.0730  151.0000 C   0  0  0  0  0  0  0  0  0  0  0  0
  162.2560  206.7910  148.0310 N   0  0  0  0  0  2  0  0  0  0  0  0
  161.1170  204.7070  148.5720 C   0  0  0  0  0  1  0  0  0  0  0  0
  161.1210  205.9410  147.6880 C   0  0  2  0  0  3  0  0  0  0  0  0
  161.1460  205.5590  146.2340 C   0  0  0  0  0  0  0  0  0  0  0  0
  160.3910  206.2150  145.3520 C   0  0  0  0  0  2  0  0  0  0  0  0
  161.9840  204.4280  145.8010 C   0  0  0  0  0  0  0  0  0  0  0  0
  163.2360  204.5500  145.7170 O   0  0  0  0  0  1  0  0  0  0  0  0
  161.3950  203.2130  145.4700 O   0  0  0  0  0  0  0  0  0  0  0  0
  161.1120  207.4180  154.1470 C   0  0  0  0  0  0  0  0  0  0  0  0
  161.3670  207.7650  155.3350 O   0  0  0  0  0  0  0  0  0  0  0  0
  161.1520  206.0380  153.7690 N   0  0  0  0  0  0  0  0  0  0  0  0
  161.1290  205.6590  152.5330 C   0  0  0  0  0  3  0  0  0  0  0  0
  161.1720  204.2110  152.1970 C   0  0  0  0  0  1  0  0  0  0  0  0
  159.6440  210.6380  153.1700 C   0  0  0  0  0  2  0  0  0  0  0  0
  159.6680  212.0670  153.6860 C   0  0  2  0  0  3  0  0  0  0  0  0
  160.2240  212.1560  155.0970 C   0  0  0  0  0  1  0  0  0  0  0  0
  156.0640  213.2300  154.2080 N   0  0  0  0  0  0  0  0  0  0  0  0
  158.0920  214.1560  150.3420 C   0  0  0  0  0  0  0  0  0  0  0  0
  158.8450  213.4950  151.2530 N   0  0  0  0  0  2  0  0  0  0  0  0
  154.5260  214.4530  152.7960 N   0  0  0  0  0  1  0  0  0  0  0  0
  158.0350  213.3730  152.3180 C   0  0  0  0  0  0  0  0  0  0  0  0
  155.8060  213.8760  153.0350 C   0  0  0  0  0  0  0  0  0  0  0  0
  158.3260  212.7260  153.5220 C   0  0  0  0  0  0  0  0  0  0  0  0
  156.8100  214.4510  150.8010 C   0  0  0  0  0  3  0  0  0  0  0  0
  157.2760  212.6490  154.4750 C   0  0  0  0  0  0  0  0  0  0  0  0
  156.8130  213.9310  152.0780 C   0  0  0  0  0  0  0  0  0  0  0  0
  157.4430  211.9210  155.7670 C   0  0  0  0  0  1  0  0  0  0  0  0
  158.5770  214.4440  148.9650 C   0  0  0  0  0  2  0  0  0  0  0  0
  157.4530  214.2090  147.9710 C   0  0  0  0  0  2  0  0  0  0  0  0
  157.3340  212.7280  147.6450 C   0  0  0  0  0  2  0  0  0  0  0  0
  157.5060  212.4910  146.1780 C   0  0  0  0  0  3  0  0  0  0  0  0
  158.6770  212.6930  145.5770 C   0  0  0  0  0  2  0  0  0  0  0  0
  1 11  1  6  0  0  0
  1  4  1  0  0  0  0
  1  3  1  0  0  0  0
  2 25  1  6  0  0  0
  3  2  1  0  0  0  0
  3 20  1  1  0  0  0
  4  2  1  0  0  0  0
  5 11  1  0  0  0  0
  6  8  2  0  0  0  0
  6  7  1  0  0  0  0
  7  5  2  0  0  0  0
  8 10  1  0  0  0  0
  9  7  1  0  0  0  0
 10 11  2  0  0  0  0
 12  8  1  0  0  0  0
 14 12  1  0  0  0  0
 14 13  1  1  0  0  0
 15 14  1  0  0  0  0
 16 15  2  0  0  0  0
 17 15  1  0  0  0  0
 18 17  1  0  0  0  0
 19 17  2  0  0  0  0
 20 21  2  0  0  0  0
 22 20  1  0  0  0  0
 23 22  2  0  0  0  0
 24 23  1  0  0  0  0
 25 26  1  0  0  0  0
 26 27  1  1  0  0  0
 28 36  1  0  0  0  0
 29 35  2  0  0  0  0
 29 30  1  0  0  0  0
 30 32  1  0  0  0  0
 31 33  1  0  0  0  0
 32 34  1  0  0  0  0
 33 28  2  0  0  0  0
 34 26  1  0  0  0  0
 34 36  2  0  0  0  0
 35 37  1  0  0  0  0
 36 38  1  0  0  0  0
 37 32  2  0  0  0  0
 37 33  1  0  0  0  0
 39 29  1  0  0  0  0
 40 39  1  0  0  0  0
 41 40  1  0  0  0  0
 42 41  1  0  0  0  0
 43 42  2  0  0  0  0
M  END
>  <MODEL>
1

>  <REMARK>
 VINA RESULT:      -7.9      0.000      0.000
  Name = 
  14 active torsions:
  status: ('A' for Active; 'I' for Inactive)
    1  A    between atoms: N_2  and  C_3
    2  A    between atoms: C_3  and  C_24
    3  A    between atoms: C_4  and  C_16
    4  A    between atoms: C_4  and  C_34
    5  A    between atoms: C_5  and  C_10
    6  A    between atoms: C_5  and  C_18
    7  A    between atoms: C_7  and  C_41
    8  A    between atoms: C_8  and  C_13
    9  A    between atoms: C_8  and  C_39
   10  A    between atoms: C_9  and  C_11
   11  A    between atoms: C_9  and  C_39
   12  A    between atoms: C_18  and  N_43
   13  A    between atoms: C_26  and  C_34
   14  A    between atoms: C_33  and  N_43
                            x       y       z     vdW  Elec       q    Type
                         _______ _______ _______ _____ _____    ______ ____

>  <TORSDO>
F 14

$$$$
=
 OpenBabel11052411263D

 43 46  0  0  1  0  0  0  0  0999 V2000
  161.1690  213.1390  148.6980 C   0  0  2  0  0  3  0  0  0  0  0  0
  161.9360  211.3330  148.2640 C   0  0  1  0  0  3  0  0  0  0  0  0
  160.9300  212.1950  147.5380 C   0  0  2  0  0  3  0  0  0  0  0  0
  162.0760  212.2610  149.3150 O   0  0  0  0  0  0  0  0  0  0  0  0
  158.6830  213.5700  149.0010 C   0  0  0  0  0  3  0  0  0  0  0  0
  157.7100  213.6010  151.2160 C   0  0  0  0  0  3  0  0  0  0  0  0
  157.5670  213.7080  149.8270 C   0  0  0  0  0  0  0  0  0  0  0  0
  158.9640  213.3530  151.7790 C   0  0  0  0  0  0  0  0  0  0  0  0
  156.2260  213.9530  149.2310 C   0  0  0  0  0  1  0  0  0  0  0  0
  160.0800  213.2140  150.9410 C   0  0  0  0  0  3  0  0  0  0  0  0
  159.9510  213.3300  149.5550 C   0  0  0  0  0  0  0  0  0  0  0  0
  159.0820  213.2310  153.2010 N   0  0  0  0  0  2  0  0  0  0  0  0
  157.5960  211.5990  154.2320 C   0  0  0  0  0  1  0  0  0  0  0  0
  159.0360  211.9560  153.9090 C   0  0  2  0  0  3  0  0  0  0  0  0
  159.8720  211.9960  155.1580 C   0  0  0  0  0  0  0  0  0  0  0  0
  159.8780  213.0820  155.9310 C   0  0  0  0  0  2  0  0  0  0  0  0
  160.7150  210.8360  155.4980 C   0  0  0  0  0  0  0  0  0  0  0  0
  161.9720  210.9240  155.4700 O   0  0  0  0  0  0  0  0  0  0  0  0
  160.1260  209.6260  155.8440 O   0  0  0  0  0  1  0  0  0  0  0  0
  161.5180  212.7480  146.2740 C   0  0  0  0  0  0  0  0  0  0  0  0
  162.7650  212.9350  146.1910 O   0  0  0  0  0  0  0  0  0  0  0  0
  160.6540  213.1330  145.1980 N   0  0  0  0  0  0  0  0  0  0  0  0
  160.4500  212.3750  144.1710 C   0  0  0  0  0  3  0  0  0  0  0  0
  159.5430  212.8250  143.0820 C   0  0  0  0  0  1  0  0  0  0  0  0
  161.2570  210.0570  148.7570 C   0  0  0  0  0  2  0  0  0  0  0  0
  162.2890  209.0550  149.2450 C   0  0  2  0  0  3  0  0  0  0  0  0
  162.6980  208.0780  148.1550 C   0  0  0  0  0  1  0  0  0  0  0  0
  161.5160  208.2890  152.9100 N   0  0  0  0  0  0  0  0  0  0  0  0
  161.0000  205.0580  149.8730 C   0  0  0  0  0  0  0  0  0  0  0  0
  161.4000  206.2570  149.3890 N   0  0  0  0  0  0  0  0  0  0  0  0
  160.7480  206.2850  154.0280 N   0  0  0  0  0  1  0  0  0  0  0  0
  161.4440  207.0490  150.4730 C   0  0  0  0  0  0  0  0  0  0  0  0
  161.1120  206.9880  152.8440 C   0  0  2  0  0  3  0  0  0  0  0  0
  161.8400  208.3890  150.5160 C   0  0  0  0  0  0  0  0  0  0  0  0
  160.7950  205.0650  151.2520 C   0  0  0  0  0  3  0  0  0  0  0  0
  161.8880  208.9990  151.7980 C   0  0  0  0  0  0  0  0  0  0  0  0
  161.0910  206.3660  151.6000 C   0  0  0  0  0  0  0  0  0  0  0  0
  162.3640  210.4010  151.9800 C   0  0  0  0  0  1  0  0  0  0  0  0
  160.8860  203.8480  149.0150 C   0  0  0  0  0  2  0  0  0  0  0  0
  160.8600  202.6060  149.8890 C   0  0  0  0  0  2  0  0  0  0  0  0
  160.9010  201.3520  149.0300 C   0  0  0  0  0  2  0  0  0  0  0  0
  160.8790  201.7010  147.5760 C   0  0  0  0  0  3  0  0  0  0  0  0
  160.9840  200.7610  146.6370 C   0  0  0  0  0  2  0  0  0  0  0  0
  1  4  1  0  0  0  0
  1 11  1  1  0  0  0
  2 25  1  1  0  0  0
  2  4  1  0  0  0  0
  3 20  1  6  0  0  0
  3  2  1  0  0  0  0
  3  1  1  0  0  0  0
  5 11  2  0  0  0  0
  5  7  1  0  0  0  0
  6  8  1  0  0  0  0
  7  6  2  0  0  0  0
  8 12  1  0  0  0  0
  9  7  1  0  0  0  0
 10  8  2  0  0  0  0
 11 10  1  0  0  0  0
 12 14  1  0  0  0  0
 14 13  1  1  0  0  0
 14 15  1  0  0  0  0
 15 17  1  0  0  0  0
 15 16  2  0  0  0  0
 17 19  1  0  0  0  0
 18 17  2  0  0  0  0
 21 20  2  0  0  0  0
 22 20  1  0  0  0  0
 23 22  2  0  0  0  0
 24 23  1  0  0  0  0
 25 26  1  0  0  0  0
 26 27  1  6  0  0  0
 26 34  1  0  0  0  0
 29 35  1  0  0  0  0
 30 29  2  0  0  0  0
 30 32  1  0  0  0  0
 32 34  2  0  0  0  0
 32 37  1  0  0  0  0
 33 28  1  0  0  0  0
 33 31  1  1  0  0  0
 34 36  1  0  0  0  0
 35 37  2  0  0  0  0
 36 38  1  0  0  0  0
 36 28  2  0  0  0  0
 37 33  1  0  0  0  0
 39 29  1  0  0  0  0
 39 40  1  0  0  0  0
 41 40  1  0  0  0  0
 42 41  1  0  0  0  0
 43 42  2  0  0  0  0
M  END
>  <MODEL>
2

>  <REMARK>
 VINA RESULT:      -7.1      2.760      9.023
  Name = 
  14 active torsions:
  status: ('A' for Active; 'I' for Inactive)
    1  A    between atoms: N_2  and  C_3
    2  A    between atoms: C_3  and  C_24
    3  A    between atoms: C_4  and  C_16
    4  A    between atoms: C_4  and  C_34
    5  A    between atoms: C_5  and  C_10
    6  A    between atoms: C_5  and  C_18
    7  A    between atoms: C_7  and  C_41
    8  A    between atoms: C_8  and  C_13
    9  A    between atoms: C_8  and  C_39
   10  A    between atoms: C_9  and  C_11
   11  A    between atoms: C_9  and  C_39
   12  A    between atoms: C_18  and  N_43
   13  A    between atoms: C_26  and  C_34
   14  A    between atoms: C_33  and  N_43
                            x       y       z     vdW  Elec       q    Type
                         _______ _______ _______ _____ _____    ______ ____

>  <TORSDO>
F 14

$$$$
=
 OpenBabel11052411263D

 43 46  0  0  1  0  0  0  0  0999 V2000
  158.2830  212.3710  153.2500 C   0  0  2  0  0  3  0  0  0  0  0  0
  159.4010  210.7190  153.4890 C   0  0  1  0  0  3  0  0  0  0  0  0
  159.7550  212.1860  153.5560 C   0  0  2  0  0  3  0  0  0  0  0  0
  158.0520  210.9870  153.1840 O   0  0  0  0  0  0  0  0  0  0  0  0
  156.7580  213.4060  151.5010 C   0  0  0  0  0  3  0  0  0  0  0  0
  157.6780  214.2740  149.4380 C   0  0  0  0  0  3  0  0  0  0  0  0
  156.5760  214.0310  150.2660 C   0  0  0  0  0  0  0  0  0  0  0  0
  158.9610  213.8960  149.8420 C   0  0  0  0  0  0  0  0  0  0  0  0
  155.2140  214.4530  149.8410 C   0  0  0  0  0  1  0  0  0  0  0  0
  159.1360  213.2710  151.0850 C   0  0  0  0  0  3  0  0  0  0  0  0
  158.0410  213.0130  151.9140 C   0  0  0  0  0  0  0  0  0  0  0  0
  160.0740  214.1710  148.9840 N   0  0  0  0  0  2  0  0  0  0  0  0
  159.1520  212.5630  147.4040 C   0  0  0  0  0  1  0  0  0  0  0  0
  160.3400  213.4450  147.7460 C   0  0  2  0  0  3  0  0  0  0  0  0
  161.6000  212.6320  147.8500 C   0  0  0  0  0  0  0  0  0  0  0  0
  161.5540  211.3700  148.2750 C   0  0  0  0  0  2  0  0  0  0  0  0
  162.8910  213.2590  147.5150 C   0  0  0  0  0  0  0  0  0  0  0  0
  163.9540  212.8800  148.0760 O   0  0  0  0  0  1  0  0  0  0  0  0
  162.9430  214.2860  146.5800 O   0  0  0  0  0  0  0  0  0  0  0  0
  160.0600  212.5960  154.9660 C   0  0  0  0  0  0  0  0  0  0  0  0
  159.4880  213.6070  155.4620 O   0  0  0  0  0  0  0  0  0  0  0  0
  161.0550  211.8850  155.7120 N   0  0  0  0  0  0  0  0  0  0  0  0
  160.7940  210.7810  156.3330 C   0  0  0  0  0  3  0  0  0  0  0  0
  161.8650  210.0850  157.0940 C   0  0  0  0  0  1  0  0  0  0  0  0
  160.1060  210.0730  152.2990 C   0  0  0  0  0  2  0  0  0  0  0  0
  161.3610  209.3450  152.7490 C   0  0  2  0  0  3  0  0  0  0  0  0
  162.6080  209.8710  152.0580 C   0  0  0  0  0  1  0  0  0  0  0  0
  161.0730  205.6160  153.5420 N   0  0  0  0  0  0  0  0  0  0  0  0
  161.2140  206.9100  149.2730 C   0  0  0  0  0  0  0  0  0  0  0  0
  161.2500  207.9070  150.1870 N   0  0  0  0  0  2  0  0  0  0  0  0
  160.9380  203.6560  152.1300 N   0  0  0  0  0  1  0  0  0  0  0  0
  161.1600  207.2720  151.3670 C   0  0  0  0  0  0  0  0  0  0  0  0
  161.0220  205.0680  152.2950 C   0  0  0  0  0  0  0  0  0  0  0  0
  161.1920  207.8540  152.6380 C   0  0  0  0  0  0  0  0  0  0  0  0
  161.1110  205.6440  149.8470 C   0  0  0  0  0  3  0  0  0  0  0  0
  161.1680  206.9680  153.7470 C   0  0  0  0  0  0  0  0  0  0  0  0
  161.0780  205.9200  151.1970 C   0  0  0  0  0  0  0  0  0  0  0  0
  161.2700  207.4670  155.1500 C   0  0  0  0  0  1  0  0  0  0  0  0
  161.3630  207.1590  147.8140 C   0  0  0  0  0  2  0  0  0  0  0  0
  162.2960  206.1220  147.2140 C   0  0  0  0  0  2  0  0  0  0  0  0
  161.8530  205.7610  145.8050 C   0  0  0  0  0  2  0  0  0  0  0  0
  161.4630  204.3200  145.7220 C   0  0  0  0  0  3  0  0  0  0  0  0
  161.5540  203.5160  146.7800 C   0  0  0  0  0  2  0  0  0  0  0  0
  1 11  1  6  0  0  0
  1  3  1  0  0  0  0
  2 25  1  6  0  0  0
  2  3  1  0  0  0  0
  3 20  1  1  0  0  0
  4  1  1  0  0  0  0
  4  2  1  0  0  0  0
  5 11  1  0  0  0  0
  6  8  2  0  0  0  0
  6  7  1  0  0  0  0
  7  5  2  0  0  0  0
  8 10  1  0  0  0  0
  9  7  1  0  0  0  0
 10 11  2  0  0  0  0
 12  8  1  0  0  0  0
 14 13  1  1  0  0  0
 14 15  1  0  0  0  0
 14 12  1  0  0  0  0
 15 16  2  0  0  0  0
 17 15  1  0  0  0  0
 17 18  1  0  0  0  0
 19 17  2  0  0  0  0
 20 21  2  0  0  0  0
 20 22  1  0  0  0  0
 22 23  2  0  0  0  0
 23 24  1  0  0  0  0
 25 26  1  0  0  0  0
 26 27  1  6  0  0  0
 28 36  1  0  0  0  0
 29 35  2  0  0  0  0
 29 30  1  0  0  0  0
 30 32  1  0  0  0  0
 31 33  1  0  0  0  0
 32 34  1  0  0  0  0
 33 28  2  0  0  0  0
 34 26  1  0  0  0  0
 34 36  2  0  0  0  0
 35 37  1  0  0  0  0
 36 38  1  0  0  0  0
 37 32  2  0  0  0  0
 37 33  1  0  0  0  0
 39 29  1  0  0  0  0
 40 39  1  0  0  0  0
 41 40  1  0  0  0  0
 42 41  1  0  0  0  0
 42 43  2  0  0  0  0
M  END
>  <MODEL>
3

>  <REMARK>
 VINA RESULT:      -6.9      2.947      7.387
  Name = 
  14 active torsions:
  status: ('A' for Active; 'I' for Inactive)
    1  A    between atoms: N_2  and  C_3
    2  A    between atoms: C_3  and  C_24
    3  A    between atoms: C_4  and  C_16
    4  A    between atoms: C_4  and  C_34
    5  A    between atoms: C_5  and  C_10
    6  A    between atoms: C_5  and  C_18
    7  A    between atoms: C_7  and  C_41
    8  A    between atoms: C_8  and  C_13
    9  A    between atoms: C_8  and  C_39
   10  A    between atoms: C_9  and  C_11
   11  A    between atoms: C_9  and  C_39
   12  A    between atoms: C_18  and  N_43
   13  A    between atoms: C_26  and  C_34
   14  A    between atoms: C_33  and  N_43
                            x       y       z     vdW  Elec       q    Type
                         _______ _______ _______ _____ _____    ______ ____

>  <TORSDO>
F 14

$$$$
=
 OpenBabel11052411263D

 43 46  0  0  1  0  0  0  0  0999 V2000
  159.9380  210.3740  155.4580 C   0  0  2  0  0  3  0  0  0  0  0  0
  160.7230  208.7290  154.6110 C   0  0  1  0  0  3  0  0  0  0  0  0
  161.3560  210.0290  155.0510 C   0  0  2  0  0  3  0  0  0  0  0  0
  159.4330  209.1460  154.9980 O   0  0  0  0  0  0  0  0  0  0  0  0
  158.3190  212.3100  155.1570 C   0  0  0  0  0  3  0  0  0  0  0  0
  158.3970  213.6680  153.1560 C   0  0  0  0  0  3  0  0  0  0  0  0
  157.8340  213.3810  154.4050 C   0  0  0  0  0  0  0  0  0  0  0  0
  159.4450  212.8890  152.6590 C   0  0  0  0  0  0  0  0  0  0  0  0
  156.7320  214.2250  154.9400 C   0  0  0  0  0  1  0  0  0  0  0  0
  159.9270  211.8150  153.4210 C   0  0  0  0  0  3  0  0  0  0  0  0
  159.3650  211.5130  154.6630 C   0  0  0  0  0  0  0  0  0  0  0  0
  160.0150  213.2130  151.3850 N   0  0  0  0  0  2  0  0  0  0  0  0
  157.7990  213.7720  150.5430 C   0  0  0  0  0  1  0  0  0  0  0  0
  159.2960  213.9260  150.3350 C   0  0  2  0  0  3  0  0  0  0  0  0
  159.7010  213.4400  148.9710 C   0  0  0  0  0  0  0  0  0  0  0  0
  158.7860  213.2730  148.0160 C   0  0  0  0  0  2  0  0  0  0  0  0
  161.1140  213.1140  148.7130 C   0  0  0  0  0  0  0  0  0  0  0  0
  162.0160  213.9790  148.8840 O   0  0  0  0  0  1  0  0  0  0  0  0
  161.4660  211.8450  148.2670 O   0  0  0  0  0  0  0  0  0  0  0  0
  162.2180  209.8180  156.2600 C   0  0  0  0  0  0  0  0  0  0  0  0
  162.2490  208.6850  156.8180 O   0  0  0  0  0  0  0  0  0  0  0  0
  162.9410  210.9220  156.8170 N   0  0  0  0  0  0  0  0  0  0  0  0
  164.2160  211.0630  156.6590 C   0  0  0  0  0  3  0  0  0  0  0  0
  164.9160  212.2290  157.2610 C   0  0  0  0  0  1  0  0  0  0  0  0
  160.8160  208.6000  153.0930 C   0  0  0  0  0  2  0  0  0  0  0  0
  160.9900  207.1470  152.6870 C   0  0  2  0  0  3  0  0  0  0  0  0
  161.9730  206.4160  153.5850 C   0  0  0  0  0  1  0  0  0  0  0  0
  161.8240  207.9250  149.0380 N   0  0  0  0  0  0  0  0  0  0  0  0
  160.8250  203.7260  150.1770 C   0  0  0  0  0  0  0  0  0  0  0  0
  160.8310  204.6210  151.1920 N   0  0  0  0  0  2  0  0  0  0  0  0
  161.9410  206.5340  147.0620 N   0  0  0  0  0  1  0  0  0  0  0  0
  161.1880  205.7760  150.6070 C   0  0  0  0  0  0  0  0  0  0  0  0
  161.7270  206.6930  148.4610 C   0  0  0  0  0  0  0  0  0  0  0  0
  161.3040  207.0260  151.2220 C   0  0  0  0  0  0  0  0  0  0  0  0
  161.1650  204.2890  148.9480 C   0  0  0  0  0  3  0  0  0  0  0  0
  161.6130  208.1260  150.3780 C   0  0  0  0  0  0  0  0  0  0  0  0
  161.3920  205.6110  149.2680 C   0  0  0  0  0  0  0  0  0  0  0  0
  161.6920  209.5200  150.9050 C   0  0  0  0  0  1  0  0  0  0  0  0
  160.4070  202.3100  150.3640 C   0  0  0  0  0  2  0  0  0  0  0  0
  160.0180  201.7150  149.0210 C   0  0  0  0  0  2  0  0  0  0  0  0
  161.2130  201.0280  148.3800 C   0  0  0  0  0  2  0  0  0  0  0  0
  161.0940  201.0350  146.8890 C   0  0  0  0  0  3  0  0  0  0  0  0
  160.8340  202.1580  146.2210 C   0  0  0  0  0  2  0  0  0  0  0  0
  1 11  1  6  0  0  0
  2 25  1  6  0  0  0
  2  4  1  0  0  0  0
  2  3  1  0  0  0  0
  3  1  1  0  0  0  0
  3 20  1  1  0  0  0
  4  1  1  0  0  0  0
  6  7  1  0  0  0  0
  7  9  1  0  0  0  0
  7  5  2  0  0  0  0
  8  6  2  0  0  0  0
  8 10  1  0  0  0  0
 10 11  2  0  0  0  0
 11  5  1  0  0  0  0
 12  8  1  0  0  0  0
 14 13  1  1  0  0  0
 14 12  1  0  0  0  0
 15 14  1  0  0  0  0
 16 15  2  0  0  0  0
 17 18  1  0  0  0  0
 17 15  1  0  0  0  0
 19 17  2  0  0  0  0
 20 22  1  0  0  0  0
 20 21  2  0  0  0  0
 23 22  2  0  0  0  0
 23 24  1  0  0  0  0
 26 25  1  0  0  0  0
 26 27  1  1  0  0  0
 28 36  1  0  0  0  0
 29 39  1  0  0  0  0
 29 30  1  0  0  0  0
 31 33  1  0  0  0  0
 32 30  1  0  0  0  0
 32 34  1  0  0  0  0
 33 28  2  0  0  0  0
 33 37  1  0  0  0  0
 34 26  1  0  0  0  0
 35 37  1  0  0  0  0
 35 29  2  0  0  0  0
 36 38  1  0  0  0  0
 36 34  2  0  0  0  0
 37 32  2  0  0  0  0
 40 39  1  0  0  0  0
 41 40  1  0  0  0  0
 42 41  1  0  0  0  0
 43 42  2  0  0  0  0
M  END
>  <MODEL>
4

>  <REMARK>
 VINA RESULT:      -6.7      2.737      8.349
  Name = 
  14 active torsions:
  status: ('A' for Active; 'I' for Inactive)
    1  A    between atoms: N_2  and  C_3
    2  A    between atoms: C_3  and  C_24
    3  A    between atoms: C_4  and  C_16
    4  A    between atoms: C_4  and  C_34
    5  A    between atoms: C_5  and  C_10
    6  A    between atoms: C_5  and  C_18
    7  A    between atoms: C_7  and  C_41
    8  A    between atoms: C_8  and  C_13
    9  A    between atoms: C_8  and  C_39
   10  A    between atoms: C_9  and  C_11
   11  A    between atoms: C_9  and  C_39
   12  A    between atoms: C_18  and  N_43
   13  A    between atoms: C_26  and  C_34
   14  A    between atoms: C_33  and  N_43
                            x       y       z     vdW  Elec       q    Type
                         _______ _______ _______ _____ _____    ______ ____

>  <TORSDO>
F 14

$$$$
=
 OpenBabel11052411263D

 43 46  0  0  1  0  0  0  0  0999 V2000
  161.8220  206.0460  153.1010 C   0  0  2  0  0  3  0  0  0  0  0  0
  161.7210  208.0490  152.9740 C   0  0  1  0  0  3  0  0  0  0  0  0
  160.7120  207.0220  153.4330 C   0  0  2  0  0  3  0  0  0  0  0  0
  162.6850  207.0670  152.6700 O   0  0  0  0  0  0  0  0  0  0  0  0
  161.3750  203.7410  152.1290 C   0  0  0  0  0  3  0  0  0  0  0  0
  160.7440  203.4970  149.8050 C   0  0  0  0  0  3  0  0  0  0  0  0
  161.0140  202.9260  151.0550 C   0  0  0  0  0  0  0  0  0  0  0  0
  160.8300  204.8800  149.6290 C   0  0  0  0  0  0  0  0  0  0  0  0
  160.9030  201.4540  151.2440 C   0  0  0  0  0  1  0  0  0  0  0  0
  161.1900  205.6920  150.7130 C   0  0  0  0  0  3  0  0  0  0  0  0
  161.4730  205.1310  151.9610 C   0  0  0  0  0  0  0  0  0  0  0  0
  160.5320  205.4420  148.3450 N   0  0  0  0  0  2  0  0  0  0  0  0
  161.6080  207.4640  147.5180 C   0  0  0  0  0  1  0  0  0  0  0  0
  161.5480  205.9490  147.4290 C   0  0  2  0  0  3  0  0  0  0  0  0
  161.2800  205.5040  146.0180 C   0  0  0  0  0  0  0  0  0  0  0  0
  160.4920  206.2260  145.2220 C   0  0  0  0  0  2  0  0  0  0  0  0
  161.8680  204.2410  145.5380 C   0  0  0  0  0  0  0  0  0  0  0  0
  163.0760  204.1890  145.1790 O   0  0  0  0  0  0  0  0  0  0  0  0
  161.0880  203.0930  145.4660 O   0  0  0  0  0  1  0  0  0  0  0  0
  160.5060  207.1050  154.9160 C   0  0  0  0  0  0  0  0  0  0  0  0
  159.4160  206.7130  155.4200 O   0  0  0  0  0  0  0  0  0  0  0  0
  161.5150  207.7000  155.7400 N   0  0  0  0  0  0  0  0  0  0  0  0
  161.3300  208.8210  156.3580 C   0  0  0  0  0  3  0  0  0  0  0  0
  162.4130  209.3930  157.2000 C   0  0  0  0  0  1  0  0  0  0  0  0
  161.2200  208.7270  151.7010 C   0  0  0  0  0  2  0  0  0  0  0  0
  162.0000  210.0010  151.4290 C   0  0  2  0  0  3  0  0  0  0  0  0
  162.9720  210.3280  152.5500 C   0  0  0  0  0  1  0  0  0  0  0  0
  160.3250  212.9590  149.6790 N   0  0  0  0  0  0  0  0  0  0  0  0
  158.9450  211.8020  153.7630 C   0  0  0  0  0  0  0  0  0  0  0  0
  159.9260  211.0320  153.2380 N   0  0  0  0  0  0  0  0  0  0  0  0
  158.5440  214.4530  150.3510 N   0  0  0  0  0  1  0  0  0  0  0  0
  160.1310  211.5530  152.0170 C   0  0  0  0  0  0  0  0  0  0  0  0
  159.3920  213.3360  150.6000 C   0  0  2  0  0  3  0  0  0  0  0  0
  161.0790  211.1370  151.0770 C   0  0  0  0  0  0  0  0  0  0  0  0
  158.5240  212.8160  152.9030 C   0  0  0  0  0  3  0  0  0  0  0  0
  161.1710  211.9000  149.8830 C   0  0  0  0  0  0  0  0  0  0  0  0
  159.3120  212.6200  151.7890 C   0  0  0  0  0  0  0  0  0  0  0  0
  162.1920  211.5980  148.8380 C   0  0  0  0  0  1  0  0  0  0  0  0
  158.4480  211.6230  155.1540 C   0  0  0  0  0  2  0  0  0  0  0  0
  157.5940  212.8170  155.5460 C   0  0  0  0  0  2  0  0  0  0  0  0
  156.2090  212.3600  155.9760 C   0  0  0  0  0  2  0  0  0  0  0  0
  155.5980  211.4670  154.9440 C   0  0  0  0  0  3  0  0  0  0  0  0
  155.3200  210.1910  155.2090 C   0  0  0  0  0  2  0  0  0  0  0  0
  1 11  1  6  0  0  0
  1  3  1  0  0  0  0
  2 25  1  6  0  0  0
  2  3  1  0  0  0  0
  3 20  1  1  0  0  0
  4  2  1  0  0  0  0
  4  1  1  0  0  0  0
  6  7  1  0  0  0  0
  7  9  1  0  0  0  0
  7  5  2  0  0  0  0
  8  6  2  0  0  0  0
  8 10  1  0  0  0  0
 10 11  2  0  0  0  0
 11  5  1  0  0  0  0
 12  8  1  0  0  0  0
 14 13  1  6  0  0  0
 14 12  1  0  0  0  0
 15 14  1  0  0  0  0
 16 15  2  0  0  0  0
 17 15  1  0  0  0  0
 18 17  2  0  0  0  0
 19 17  1  0  0  0  0
 20 21  2  0  0  0  0
 20 22  1  0  0  0  0
 22 23  2  0  0  0  0
 23 24  1  0  0  0  0
 26 25  1  0  0  0  0
 26 27  1  1  0  0  0
 28 36  2  0  0  0  0
 28 33  1  0  0  0  0
 29 39  1  0  0  0  0
 30 29  2  0  0  0  0
 32 30  1  0  0  0  0
 33 31  1  1  0  0  0
 33 37  1  0  0  0  0
 34 26  1  0  0  0  0
 34 32  2  0  0  0  0
 35 29  1  0  0  0  0
 36 34  1  0  0  0  0
 37 32  1  0  0  0  0
 37 35  2  0  0  0  0
 38 36  1  0  0  0  0
 39 40  1  0  0  0  0
 40 41  1  0  0  0  0
 42 43  2  0  0  0  0
 42 41  1  0  0  0  0
M  END
>  <MODEL>
5

>  <REMARK>
 VINA RESULT:      -6.3      2.197      5.043
  Name = 
  14 active torsions:
  status: ('A' for Active; 'I' for Inactive)
    1  A    between atoms: N_2  and  C_3
    2  A    between atoms: C_3  and  C_24
    3  A    between atoms: C_4  and  C_16
    4  A    between atoms: C_4  and  C_34
    5  A    between atoms: C_5  and  C_10
    6  A    between atoms: C_5  and  C_18
    7  A    between atoms: C_7  and  C_41
    8  A    between atoms: C_8  and  C_13
    9  A    between atoms: C_8  and  C_39
   10  A    between atoms: C_9  and  C_11
   11  A    between atoms: C_9  and  C_39
   12  A    between atoms: C_18  and  N_43
   13  A    between atoms: C_26  and  C_34
   14  A    between atoms: C_33  and  N_43
                            x       y       z     vdW  Elec       q    Type
                         _______ _______ _______ _____ _____    ______ ____

>  <TORSDO>
F 14

$$$$
=
 OpenBabel11052411263D

 43 46  0  0  1  0  0  0  0  0999 V2000
  161.7160  207.0200  153.8250 C   0  0  2  0  0  3  0  0  0  0  0  0
  161.0020  208.8910  153.9930 C   0  0  1  0  0  3  0  0  0  0  0  0
  160.4950  207.5730  154.5290 C   0  0  2  0  0  3  0  0  0  0  0  0
  162.0990  208.2850  153.3480 O   0  0  0  0  0  0  0  0  0  0  0  0
  161.2010  204.7240  152.8640 C   0  0  0  0  0  3  0  0  0  0  0  0
  160.6440  204.4780  150.5220 C   0  0  0  0  0  3  0  0  0  0  0  0
  160.8440  203.9120  151.7870 C   0  0  0  0  0  0  0  0  0  0  0  0
  160.7980  205.8530  150.3330 C   0  0  0  0  0  0  0  0  0  0  0  0
  160.6600  202.4490  151.9890 C   0  0  0  0  0  1  0  0  0  0  0  0
  161.1550  206.6630  151.4200 C   0  0  0  0  0  3  0  0  0  0  0  0
  161.3680  206.1070  152.6840 C   0  0  0  0  0  0  0  0  0  0  0  0
  160.5720  206.4100  149.0330 N   0  0  0  0  0  2  0  0  0  0  0  0
  161.8930  208.0830  147.8540 C   0  0  0  0  0  1  0  0  0  0  0  0
  161.6250  206.6000  148.0400 C   0  0  2  0  0  3  0  0  0  0  0  0
  161.2650  205.9510  146.7330 C   0  0  0  0  0  0  0  0  0  0  0  0
  160.4580  206.5710  145.8720 C   0  0  0  0  0  2  0  0  0  0  0  0
  161.7830  204.6050  146.4300 C   0  0  0  0  0  0  0  0  0  0  0  0
  162.0450  204.2690  145.2440 O   0  0  0  0  0  0  0  0  0  0  0  0
  161.9760  203.6880  147.4570 O   0  0  0  0  0  1  0  0  0  0  0  0
  160.6640  207.5040  156.0180 C   0  0  0  0  0  0  0  0  0  0  0  0
  159.7800  206.9430  156.7250 O   0  0  0  0  0  0  0  0  0  0  0  0
  161.7890  208.1430  156.6340 N   0  0  0  0  0  0  0  0  0  0  0  0
  161.9570  209.4240  156.6050 C   0  0  0  0  0  3  0  0  0  0  0  0
  163.1440  210.0330  157.2600 C   0  0  0  0  0  1  0  0  0  0  0  0
  160.0130  209.4440  152.9700 C   0  0  0  0  0  2  0  0  0  0  0  0
  160.2670  210.9210  152.7220 C   0  0  2  0  0  3  0  0  0  0  0  0
  161.5300  211.4080  153.4120 C   0  0  0  0  0  1  0  0  0  0  0  0
  157.1240  212.3300  154.3800 N   0  0  0  0  0  0  0  0  0  0  0  0
  158.3030  213.8460  150.3510 C   0  0  0  0  0  0  0  0  0  0  0  0
  159.1330  212.9250  150.8950 N   0  0  0  0  0  0  0  0  0  0  0  0
  155.5130  213.9910  153.6710 N   0  0  0  0  0  1  0  0  0  0  0  0
  158.5890  212.6640  152.0950 C   0  0  0  0  0  0  0  0  0  0  0  0
  156.7030  213.2390  153.4550 C   0  0  0  0  0  0  0  0  0  0  0  0
  159.0480  211.7430  153.0410 C   0  0  0  0  0  0  0  0  0  0  0  0
  157.2300  214.1730  151.1780 C   0  0  0  0  0  2  0  0  0  0  0  0
  158.2550  211.5760  154.2070 C   0  0  0  0  0  0  0  0  0  0  0  0
  157.4510  213.3910  152.2920 C   0  0  0  0  0  0  0  0  0  0  0  0
  158.6030  210.5710  155.2540 C   0  0  0  0  0  1  0  0  0  0  0  0
  158.4890  214.3710  148.9710 C   0  0  0  0  0  2  0  0  0  0  0  0
  159.0740  213.2820  148.0880 C   0  0  0  0  0  2  0  0  0  0  0  0
  160.5860  213.4200  148.0080 C   0  0  0  0  0  2  0  0  0  0  0  0
  161.2370  212.0800  147.8750 C   0  0  0  0  0  3  0  0  0  0  0  0
  162.3380  211.7740  148.5600 C   0  0  0  0  0  2  0  0  0  0  0  0
  1 11  1  6  0  0  0
  1  3  1  0  0  0  0
  2 25  1  6  0  0  0
  2  3  1  0  0  0  0
  3 20  1  1  0  0  0
  4  1  1  0  0  0  0
  4  2  1  0  0  0  0
  6  7  1  0  0  0  0
  7  9  1  0  0  0  0
  7  5  2  0  0  0  0
  8  6  2  0  0  0  0
  8 10  1  0  0  0  0
 10 11  2  0  0  0  0
 11  5  1  0  0  0  0
 12  8  1  0  0  0  0
 14 13  1  6  0  0  0
 14 12  1  0  0  0  0
 15 14  1  0  0  0  0
 16 15  2  0  0  0  0
 17 15  1  0  0  0  0
 17 19  1  0  0  0  0
 18 17  2  0  0  0  0
 20 22  1  0  0  0  0
 20 21  2  0  0  0  0
 23 22  2  0  0  0  0
 23 24  1  0  0  0  0
 26 25  1  0  0  0  0
 26 34  1  0  0  0  0
 26 27  1  1  0  0  0
 29 30  2  0  0  0  0
 29 35  1  0  0  0  0
 30 32  1  0  0  0  0
 32 37  2  0  0  0  0
 32 34  1  0  0  0  0
 33 31  1  0  0  0  0
 33 28  2  0  0  0  0
 34 36  2  0  0  0  0
 35 37  1  0  0  0  0
 36 28  1  0  0  0  0
 36 38  1  0  0  0  0
 37 33  1  0  0  0  0
 39 29  1  0  0  0  0
 40 39  1  0  0  0  0
 41 40  1  0  0  0  0
 42 41  1  0  0  0  0
 42 43  2  0  0  0  0
M  END
>  <MODEL>
6

>  <REMARK>
 VINA RESULT:      -6.2      1.594      3.338
  Name = 
  14 active torsions:
  status: ('A' for Active; 'I' for Inactive)
    1  A    between atoms: N_2  and  C_3
    2  A    between atoms: C_3  and  C_24
    3  A    between atoms: C_4  and  C_16
    4  A    between atoms: C_4  and  C_34
    5  A    between atoms: C_5  and  C_10
    6  A    between atoms: C_5  and  C_18
    7  A    between atoms: C_7  and  C_41
    8  A    between atoms: C_8  and  C_13
    9  A    between atoms: C_8  and  C_39
   10  A    between atoms: C_9  and  C_11
   11  A    between atoms: C_9  and  C_39
   12  A    between atoms: C_18  and  N_43
   13  A    between atoms: C_26  and  C_34
   14  A    between atoms: C_33  and  N_43
                            x       y       z     vdW  Elec       q    Type
                         _______ _______ _______ _____ _____    ______ ____

>  <TORSDO>
F 14

$$$$
=
 OpenBabel11052411263D

 43 46  0  0  1  0  0  0  0  0999 V2000
  159.5610  214.1010  148.8480 C   0  0  2  0  0  3  0  0  0  0  0  0
  161.0850  212.8140  149.0930 C   0  0  1  0  0  3  0  0  0  0  0  0
  159.7880  212.6970  148.3280 C   0  0  2  0  0  3  0  0  0  0  0  0
  160.7780  214.1120  149.5500 O   0  0  0  0  0  0  0  0  0  0  0  0
  157.0760  214.3000  149.3440 C   0  0  0  0  0  3  0  0  0  0  0  0
  156.2820  214.2770  151.6290 C   0  0  0  0  0  3  0  0  0  0  0  0
  156.0210  214.3460  150.2550 C   0  0  0  0  0  0  0  0  0  0  0  0
  157.5950  214.1600  152.0920 C   0  0  0  0  0  0  0  0  0  0  0  0
  154.6200  214.4520  149.7650 C   0  0  0  0  0  1  0  0  0  0  0  0
  158.6490  214.1120  151.1700 C   0  0  0  0  0  3  0  0  0  0  0  0
  158.4010  214.1910  149.7980 C   0  0  0  0  0  0  0  0  0  0  0  0
  157.8340  214.0750  153.5020 N   0  0  0  0  0  2  0  0  0  0  0  0
  157.1670  213.4060  155.7470 C   0  0  0  0  0  1  0  0  0  0  0  0
  157.4250  212.9410  154.3250 C   0  0  2  0  0  3  0  0  0  0  0  0
  158.4550  211.8470  154.2960 C   0  0  0  0  0  0  0  0  0  0  0  0
  158.5830  211.0700  153.2210 C   0  0  0  0  0  2  0  0  0  0  0  0
  159.2940  211.6170  155.4850 C   0  0  0  0  0  0  0  0  0  0  0  0
  160.3820  212.2370  155.6340 O   0  0  0  0  0  0  0  0  0  0  0  0
  158.8960  210.7020  156.4520 O   0  0  0  0  0  1  0  0  0  0  0  0
  160.0390  212.7130  146.8490 C   0  0  0  0  0  0  0  0  0  0  0  0
  159.3840  211.9410  146.0930 O   0  0  0  0  0  0  0  0  0  0  0  0
  161.0740  213.5470  146.3140 N   0  0  0  0  0  0  0  0  0  0  0  0
  161.5190  213.4080  145.1080 C   0  0  0  0  0  3  0  0  0  0  0  0
  162.5960  214.3010  144.6060 C   0  0  0  0  0  1  0  0  0  0  0  0
  161.0900  211.8210  150.2510 C   0  0  0  0  0  2  0  0  0  0  0  0
  162.1810  210.7810  150.0620 C   0  0  2  0  0  3  0  0  0  0  0  0
  162.5350  210.5820  148.5980 C   0  0  0  0  0  1  0  0  0  0  0  0
  161.6100  208.1270  152.7550 N   0  0  0  0  0  0  0  0  0  0  0  0
  161.3300  206.9410  148.4610 C   0  0  0  0  0  0  0  0  0  0  0  0
  161.5890  208.2500  148.6900 N   0  0  0  0  0  0  0  0  0  0  0  0
  161.0870  205.7680  152.6320 N   0  0  0  0  0  1  0  0  0  0  0  0
  161.5860  208.3530  150.0290 C   0  0  0  0  0  0  0  0  0  0  0  0
  161.3390  207.0210  152.0040 C   0  0  0  0  0  0  0  0  0  0  0  0
  161.8440  209.5030  150.7810 C   0  0  0  0  0  0  0  0  0  0  0  0
  161.1700  206.2010  149.6310 C   0  0  0  0  0  2  0  0  0  0  0  0
  161.8710  209.3500  152.1920 C   0  0  0  0  0  0  0  0  0  0  0  0
  161.3420  207.1470  150.6190 C   0  0  0  0  0  0  0  0  0  0  0  0
  162.2060  210.4880  153.0970 C   0  0  0  0  0  1  0  0  0  0  0  0
  161.3130  206.3580  147.0920 C   0  0  0  0  0  2  0  0  0  0  0  0
  162.6160  205.6200  146.8380 C   0  0  0  0  0  2  0  0  0  0  0  0
  162.4300  204.5720  145.7530 C   0  0  0  0  0  2  0  0  0  0  0  0
  161.4160  203.5530  146.1640 C   0  0  0  0  0  3  0  0  0  0  0  0
  160.7700  202.8160  145.2610 C   0  0  0  0  0  2  0  0  0  0  0  0
  1  4  1  0  0  0  0
  1 11  1  1  0  0  0
  2  4  1  0  0  0  0
  2 25  1  1  0  0  0
  3 20  1  6  0  0  0
  3  1  1  0  0  0  0
  3  2  1  0  0  0  0
  5 11  2  0  0  0  0
  5  7  1  0  0  0  0
  6  8  1  0  0  0  0
  7  6  2  0  0  0  0
  8 12  1  0  0  0  0
  9  7  1  0  0  0  0
 10  8  2  0  0  0  0
 11 10  1  0  0  0  0
 12 14  1  0  0  0  0
 14 13  1  1  0  0  0
 15 14  1  0  0  0  0
 15 17  1  0  0  0  0
 16 15  2  0  0  0  0
 17 18  2  0  0  0  0
 17 19  1  0  0  0  0
 21 20  2  0  0  0  0
 22 20  1  0  0  0  0
 23 22  2  0  0  0  0
 24 23  1  0  0  0  0
 26 27  1  6  0  0  0
 26 25  1  0  0  0  0
 26 34  1  0  0  0  0
 29 30  2  0  0  0  0
 29 35  1  0  0  0  0
 30 32  1  0  0  0  0
 32 37  2  0  0  0  0
 32 34  1  0  0  0  0
 33 31  1  0  0  0  0
 33 28  2  0  0  0  0
 34 36  2  0  0  0  0
 35 37  1  0  0  0  0
 36 28  1  0  0  0  0
 36 38  1  0  0  0  0
 37 33  1  0  0  0  0
 39 29  1  0  0  0  0
 40 39  1  0  0  0  0
 41 42  1  0  0  0  0
 41 40  1  0  0  0  0
 43 42  2  0  0  0  0
M  END
>  <MODEL>
7

>  <REMARK>
 VINA RESULT:      -6.1      2.534      8.873
  Name = 
  14 active torsions:
  status: ('A' for Active; 'I' for Inactive)
    1  A    between atoms: N_2  and  C_3
    2  A    between atoms: C_3  and  C_24
    3  A    between atoms: C_4  and  C_16
    4  A    between atoms: C_4  and  C_34
    5  A    between atoms: C_5  and  C_10
    6  A    between atoms: C_5  and  C_18
    7  A    between atoms: C_7  and  C_41
    8  A    between atoms: C_8  and  C_13
    9  A    between atoms: C_8  and  C_39
   10  A    between atoms: C_9  and  C_11
   11  A    between atoms: C_9  and  C_39
   12  A    between atoms: C_18  and  N_43
   13  A    between atoms: C_26  and  C_34
   14  A    between atoms: C_33  and  N_43
                            x       y       z     vdW  Elec       q    Type
                         _______ _______ _______ _____ _____    ______ ____

>  <TORSDO>
F 14

$$$$
=
 OpenBabel11052411263D

 43 46  0  0  1  0  0  0  0  0999 V2000
  160.8550  208.2480  150.3270 C   0  0  2  0  0  3  0  0  0  0  0  0
  161.2970  209.7090  151.6340 C   0  0  1  0  0  3  0  0  0  0  0  0
  162.0970  209.0960  150.5080 C   0  0  2  0  0  3  0  0  0  0  0  0
  160.1960  208.8580  151.4070 O   0  0  0  0  0  0  0  0  0  0  0  0
  161.0090  206.2630  151.9070 C   0  0  0  0  0  3  0  0  0  0  0  0
  161.4870  204.0520  151.0470 C   0  0  0  0  0  3  0  0  0  0  0  0
  161.2060  204.8990  152.1260 C   0  0  0  0  0  0  0  0  0  0  0  0
  161.5680  204.5660  149.7500 C   0  0  0  0  0  0  0  0  0  0  0  0
  161.1010  204.3450  153.5030 C   0  0  0  0  0  1  0  0  0  0  0  0
  161.3670  205.9370  149.5380 C   0  0  0  0  0  3  0  0  0  0  0  0
  161.0970  206.7920  150.6090 C   0  0  0  0  0  0  0  0  0  0  0  0
  161.8400  203.6760  148.6610 N   0  0  0  0  0  2  0  0  0  0  0  0
  160.9690  202.2960  146.8530 C   0  0  0  0  0  1  0  0  0  0  0  0
  161.1200  203.7070  147.3920 C   0  0  2  0  0  3  0  0  0  0  0  0
  161.8130  204.5920  146.3940 C   0  0  0  0  0  0  0  0  0  0  0  0
  163.1410  204.7030  146.3990 C   0  0  0  0  0  2  0  0  0  0  0  0
  161.0050  205.3660  145.4350 C   0  0  0  0  0  0  0  0  0  0  0  0
  160.4550  206.4460  145.7810 O   0  0  0  0  0  1  0  0  0  0  0  0
  160.8340  204.9010  144.1360 O   0  0  0  0  0  0  0  0  0  0  0  0
  162.2470  210.0660  149.3740 C   0  0  0  0  0  0  0  0  0  0  0  0
  162.6920  209.6650  148.2610 O   0  0  0  0  0  0  0  0  0  0  0  0
  161.9590  211.4530  149.5840 N   0  0  0  0  0  0  0  0  0  0  0  0
  161.7830  212.2780  148.6040 C   0  0  0  0  0  3  0  0  0  0  0  0
  161.4870  213.7080  148.8790 C   0  0  0  0  0  1  0  0  0  0  0  0
  161.9610  209.3870  152.9700 C   0  0  0  0  0  2  0  0  0  0  0  0
  161.8730  210.5740  153.9140 C   0  0  2  0  0  3  0  0  0  0  0  0
  162.9070  210.5020  155.0240 C   0  0  0  0  0  1  0  0  0  0  0  0
  158.5450  210.1860  155.7560 N   0  0  0  0  0  0  0  0  0  0  0  0
  158.8670  213.2170  152.4950 C   0  0  0  0  0  0  0  0  0  0  0  0
  159.9980  212.5240  152.7620 N   0  0  0  0  0  0  0  0  0  0  0  0
  156.4150  211.3100  155.5250 N   0  0  0  0  0  1  0  0  0  0  0  0
  159.6560  211.7210  153.7830 C   0  0  0  0  0  0  0  0  0  0  0  0
  157.7770  211.1340  155.1470 C   0  0  0  0  0  0  0  0  0  0  0  0
  160.4660  210.7690  154.4090 C   0  0  0  0  0  0  0  0  0  0  0  0
  157.8010  212.8650  153.3220 C   0  0  0  0  0  2  0  0  0  0  0  0
  159.8560  209.9730  155.4140 C   0  0  0  0  0  0  0  0  0  0  0  0
  158.3500  211.8990  154.1380 C   0  0  0  0  0  0  0  0  0  0  0  0
  160.5980  208.8770  156.1030 C   0  0  0  0  0  1  0  0  0  0  0  0
  158.7700  214.1840  151.3680 C   0  0  0  0  0  2  0  0  0  0  0  0
  157.3220  214.3050  150.9250 C   0  0  0  0  0  2  0  0  0  0  0  0
  157.0290  213.3290  149.7970 C   0  0  0  0  0  2  0  0  0  0  0  0
  157.8710  213.6310  148.5990 C   0  0  0  0  0  3  0  0  0  0  0  0
  157.7200  212.9560  147.4600 C   0  0  0  0  0  2  0  0  0  0  0  0
  1  3  1  0  0  0  0
  1 11  1  1  0  0  0
  1  4  1  0  0  0  0
  2 25  1  1  0  0  0
  3 20  1  6  0  0  0
  3  2  1  0  0  0  0
  4  2  1  0  0  0  0
  5  7  1  0  0  0  0
  6  7  2  0  0  0  0
  7  9  1  0  0  0  0
  8  6  1  0  0  0  0
 10  8  2  0  0  0  0
 10 11  1  0  0  0  0
 11  5  2  0  0  0  0
 12  8  1  0  0  0  0
 14 13  1  6  0  0  0
 14 12  1  0  0  0  0
 15 16  2  0  0  0  0
 15 14  1  0  0  0  0
 17 18  1  0  0  0  0
 17 15  1  0  0  0  0
 19 17  2  0  0  0  0
 20 22  1  0  0  0  0
 21 20  2  0  0  0  0
 23 24  1  0  0  0  0
 23 22  2  0  0  0  0
 25 26  1  0  0  0  0
 26 34  1  0  0  0  0
 26 27  1  1  0  0  0
 29 30  2  0  0  0  0
 29 35  1  0  0  0  0
 30 32  1  0  0  0  0
 32 37  2  0  0  0  0
 32 34  1  0  0  0  0
 33 31  1  0  0  0  0
 33 28  2  0  0  0  0
 34 36  2  0  0  0  0
 35 37  1  0  0  0  0
 36 28  1  0  0  0  0
 36 38  1  0  0  0  0
 37 33  1  0  0  0  0
 39 29  1  0  0  0  0
 40 39  1  0  0  0  0
 41 40  1  0  0  0  0
 42 41  1  0  0  0  0
 43 42  2  0  0  0  0
M  END
>  <MODEL>
8

>  <REMARK>
 VINA RESULT:      -6.0      1.951      4.236
  Name = 
  14 active torsions:
  status: ('A' for Active; 'I' for Inactive)
    1  A    between atoms: N_2  and  C_3
    2  A    between atoms: C_3  and  C_24
    3  A    between atoms: C_4  and  C_16
    4  A    between atoms: C_4  and  C_34
    5  A    between atoms: C_5  and  C_10
    6  A    between atoms: C_5  and  C_18
    7  A    between atoms: C_7  and  C_41
    8  A    between atoms: C_8  and  C_13
    9  A    between atoms: C_8  and  C_39
   10  A    between atoms: C_9  and  C_11
   11  A    between atoms: C_9  and  C_39
   12  A    between atoms: C_18  and  N_43
   13  A    between atoms: C_26  and  C_34
   14  A    between atoms: C_33  and  N_43
                            x       y       z     vdW  Elec       q    Type
                         _______ _______ _______ _____ _____    ______ ____

>  <TORSDO>
F 14

$$$$
=
 OpenBabel11052411263D

 43 46  0  0  1  0  0  0  0  0999 V2000
  161.4850  211.7010  151.5930 C   0  0  2  0  0  3  0  0  0  0  0  0
  162.0860  209.9850  150.7380 C   0  0  1  0  0  3  0  0  0  0  0  0
  161.1780  211.0860  150.2440 C   0  0  2  0  0  3  0  0  0  0  0  0
  162.2960  210.6210  151.9780 O   0  0  0  0  0  0  0  0  0  0  0  0
  159.2110  212.6670  152.1900 C   0  0  0  0  0  3  0  0  0  0  0  0
  158.0180  211.8680  154.1380 C   0  0  0  0  0  3  0  0  0  0  0  0
  158.0880  212.7050  153.0180 C   0  0  0  0  0  0  0  0  0  0  0  0
  159.0670  210.9930  154.4300 C   0  0  0  0  0  0  0  0  0  0  0  0
  156.9610  213.6230  152.6990 C   0  0  0  0  0  1  0  0  0  0  0  0
  160.1910  210.9590  153.5930 C   0  0  0  0  0  3  0  0  0  0  0  0
  160.2760  211.7980  152.4790 C   0  0  0  0  0  0  0  0  0  0  0  0
  158.9650  210.1350  155.5730 N   0  0  0  0  0  2  0  0  0  0  0  0
  159.9250  211.8740  156.9820 C   0  0  0  0  0  1  0  0  0  0  0  0
  159.6450  210.3890  156.8380 C   0  0  2  0  0  3  0  0  0  0  0  0
  160.9150  209.5900  156.9440 C   0  0  0  0  0  0  0  0  0  0  0  0
  162.0790  210.2010  157.1640 C   0  0  0  0  0  2  0  0  0  0  0  0
  160.8640  208.1290  156.7630 C   0  0  0  0  0  0  0  0  0  0  0  0
  159.9190  207.4530  157.2520 O   0  0  0  0  0  1  0  0  0  0  0  0
  161.8690  207.4800  156.0560 O   0  0  0  0  0  0  0  0  0  0  0  0
  161.8350  211.8650  149.1430 C   0  0  0  0  0  0  0  0  0  0  0  0
  162.9700  211.5100  148.7160 O   0  0  0  0  0  0  0  0  0  0  0  0
  161.2070  213.0490  148.6390 N   0  0  0  0  0  0  0  0  0  0  0  0
  160.0100  213.0420  148.1510 C   0  0  0  0  0  3  0  0  0  0  0  0
  159.4070  214.3010  147.6400 C   0  0  0  0  0  1  0  0  0  0  0  0
  161.2840  208.6990  150.9180 C   0  0  0  0  0  2  0  0  0  0  0  0
  161.8470  207.5890  150.0480 C   0  0  2  0  0  3  0  0  0  0  0  0
  161.5250  207.7950  148.5780 C   0  0  0  0  0  1  0  0  0  0  0  0
  160.9490  204.6560  152.3300 N   0  0  0  0  0  0  0  0  0  0  0  0
  161.4310  203.9180  147.9540 C   0  0  0  0  0  0  0  0  0  0  0  0
  161.5950  205.2010  148.3520 N   0  0  0  0  0  0  0  0  0  0  0  0
  160.5520  202.3100  151.8880 N   0  0  0  0  0  1  0  0  0  0  0  0
  161.3670  205.1640  149.6750 C   0  0  0  0  0  0  0  0  0  0  0  0
  160.8520  203.6280  151.4390 C   0  0  0  0  0  0  0  0  0  0  0  0
  161.4490  206.2350  150.5700 C   0  0  0  0  0  0  0  0  0  0  0  0
  161.1110  203.0560  149.0020 C   0  0  0  0  0  2  0  0  0  0  0  0
  161.2490  205.9360  151.9430 C   0  0  0  0  0  0  0  0  0  0  0  0
  161.0780  203.8980  150.0940 C   0  0  0  0  0  0  0  0  0  0  0  0
  161.3830  206.9810  153.0000 C   0  0  0  0  0  1  0  0  0  0  0  0
  161.6650  203.4810  146.5510 C   0  0  0  0  0  2  0  0  0  0  0  0
  162.7100  204.3770  145.9080 C   0  0  0  0  0  2  0  0  0  0  0  0
  162.1520  205.0250  144.6510 C   0  0  0  0  0  2  0  0  0  0  0  0
  160.6650  205.1630  144.7380 C   0  0  0  0  0  3  0  0  0  0  0  0
  160.1010  206.2480  145.2670 C   0  0  0  0  0  2  0  0  0  0  0  0
  1  4  1  0  0  0  0
  1 11  1  1  0  0  0
  2 25  1  1  0  0  0
  2  4  1  0  0  0  0
  3 20  1  6  0  0  0
  3  2  1  0  0  0  0
  3  1  1  0  0  0  0
  5 11  2  0  0  0  0
  5  7  1  0  0  0  0
  6  8  1  0  0  0  0
  7  6  2  0  0  0  0
  8 12  1  0  0  0  0
  9  7  1  0  0  0  0
 10  8  2  0  0  0  0
 11 10  1  0  0  0  0
 12 14  1  0  0  0  0
 14 15  1  0  0  0  0
 14 13  1  6  0  0  0
 15 16  2  0  0  0  0
 17 15  1  0  0  0  0
 17 18  1  0  0  0  0
 19 17  2  0  0  0  0
 21 20  2  0  0  0  0
 22 20  1  0  0  0  0
 23 22  2  0  0  0  0
 24 23  1  0  0  0  0
 26 27  1  6  0  0  0
 26 34  1  0  0  0  0
 26 25  1  0  0  0  0
 29 30  2  0  0  0  0
 29 35  1  0  0  0  0
 30 32  1  0  0  0  0
 32 37  2  0  0  0  0
 32 34  1  0  0  0  0
 33 31  1  0  0  0  0
 33 28  2  0  0  0  0
 34 36  2  0  0  0  0
 35 37  1  0  0  0  0
 36 28  1  0  0  0  0
 36 38  1  0  0  0  0
 37 33  1  0  0  0  0
 39 29  1  0  0  0  0
 40 39  1  0  0  0  0
 41 42  1  0  0  0  0
 41 40  1  0  0  0  0
 42 43  2  0  0  0  0
M  END
>  <MODEL>
9

>  <REMARK>
 VINA RESULT:      -5.9      2.672      8.914
  Name = 
  14 active torsions:
  status: ('A' for Active; 'I' for Inactive)
    1  A    between atoms: N_2  and  C_3
    2  A    between atoms: C_3  and  C_24
    3  A    between atoms: C_4  and  C_16
    4  A    between atoms: C_4  and  C_34
    5  A    between atoms: C_5  and  C_10
    6  A    between atoms: C_5  and  C_18
    7  A    between atoms: C_7  and  C_41
    8  A    between atoms: C_8  and  C_13
    9  A    between atoms: C_8  and  C_39
   10  A    between atoms: C_9  and  C_11
   11  A    between atoms: C_9  and  C_39
   12  A    between atoms: C_18  and  N_43
   13  A    between atoms: C_26  and  C_34
   14  A    between atoms: C_33  and  N_43
                            x       y       z     vdW  Elec       q    Type
                         _______ _______ _______ _____ _____    ______ ____

>  <TORSDO>
F 14

$$$$
