=
 OpenBabel11052409553D

 29 32  0  0  1  0  0  0  0  0999 V2000
  161.8450  209.3500  148.2070 C   0  0  0  0  0  3  0  0  0  0  0  0
  161.8720  208.2110  150.7740 C   0  0  0  0  0  0  0  0  0  0  0  0
  161.6090  207.9850  148.3700 C   0  0  0  0  0  3  0  0  0  0  0  0
  162.1080  210.1490  149.3200 C   0  0  0  0  0  0  0  0  0  0  0  0
  162.1110  209.5820  150.5950 C   0  0  0  0  0  3  0  0  0  0  0  0
  161.6270  207.3890  149.6430 C   0  0  0  0  0  0  0  0  0  0  0  0
  161.1390  203.7570  148.6550 C   0  0  0  0  0  3  0  0  0  0  0  0
  160.9980  203.9130  151.0630 C   0  0  0  0  0  3  0  0  0  0  0  0
  161.3790  205.9240  149.7430 C   0  0  0  0  0  0  0  0  0  0  0  0
  160.9610  203.1450  149.8980 C   0  0  0  0  0  0  0  0  0  0  0  0
  161.2090  205.2920  150.9850 C   0  0  0  0  0  3  0  0  0  0  0  0
  161.3510  205.1360  148.5790 C   0  0  0  0  0  3  0  0  0  0  0  0
  160.7430  201.7290  149.9770 C   0  0  0  0  0  0  0  0  0  0  0  0
  160.5670  200.5860  150.0400 N   0  0  0  0  0  0  0  0  0  0  0  0
  162.3370  211.6110  149.1530 C   0  0  0  0  0  2  0  0  0  0  0  0
  161.7670  212.0640  147.8950 N   0  0  0  0  0  2  0  0  0  0  0  0
  162.7720  212.8860  147.2450 C   0  0  0  0  0  1  0  0  0  0  0  0
  161.8450  207.6630  152.0990 N   0  0  0  0  0  2  0  0  0  0  0  0
  159.2020  211.5730  157.2610 C   0  0  0  0  0  1  0  0  0  0  0  0
  160.0760  210.0940  152.8810 O   0  0  0  0  0  0  0  0  0  0  0  0
  161.2010  207.8590  155.2350 C   0  0  1  0  0  3  0  0  0  0  0  0
  159.8490  211.0550  156.0680 N   0  0  0  0  0  2  0  0  0  0  0  0
  160.3560  209.7230  156.0020 C   0  0  0  0  0  0  0  0  0  0  0  0
  160.8370  207.6520  156.5900 N   0  0  0  0  0  2  0  0  0  0  0  0
  160.5490  209.1160  153.5160 C   0  0  0  0  0  0  0  0  0  0  0  0
  160.9740  206.9800  154.2630 C   0  0  0  0  0  2  0  0  0  0  0  0
  160.6870  207.7290  152.9830 C   0  0  2  0  0  3  0  0  0  0  0  0
  160.2980  208.8840  156.9940 N   0  0  0  0  0  0  0  0  0  0  0  0
  161.0040  209.1930  154.8510 N   0  0  0  0  0  0  0  0  0  0  0  0
  1  3  2  0  0  0  0
  1  4  1  0  0  0  0
  2 18  1  0  0  0  0
  3  6  1  0  0  0  0
  4  5  2  0  0  0  0
  5  2  1  0  0  0  0
  6  9  1  0  0  0  0
  6  2  2  0  0  0  0
  7 10  1  0  0  0  0
  9 11  2  0  0  0  0
 10 13  1  0  0  0  0
 10  8  2  0  0  0  0
 11  8  1  0  0  0  0
 12  7  2  0  0  0  0
 12  9  1  0  0  0  0
 13 14  3  0  0  0  0
 15  4  1  0  0  0  0
 16 15  1  0  0  0  0
 17 16  1  0  0  0  0
 20 25  2  0  0  0  0
 21 26  1  6  0  0  0
 21 24  1  0  0  0  0
 22 19  1  0  0  0  0
 23 22  1  0  0  0  0
 23 28  2  0  0  0  0
 24 28  1  0  0  0  0
 25 29  1  0  0  0  0
 27 18  1  6  0  0  0
 27 25  1  0  0  0  0
 27 26  1  0  0  0  0
 29 21  1  0  0  0  0
 29 23  1  0  0  0  0
M  END
>  <MODEL>
1

>  <REMARK>
 VINA RESULT:      -8.1      0.000      0.000
  Name = 
  6 active torsions:
  status: ('A' for Active; 'I' for Inactive)
    1  A    between atoms: C_1  and  C_12
    2  A    between atoms: C_4  and  C_17
    3  A    between atoms: C_4  and  N_23
    4  A    between atoms: C_11  and  C_27
    5  A    between atoms: C_15  and  N_21
    6  A    between atoms: C_20  and  N_21
                            x       y       z     vdW  Elec       q    Type
                         _______ _______ _______ _____ _____    ______ ____

>  <TORSDO>
F 6

$$$$
=
 OpenBabel11052409553D

 29 32  0  0  1  0  0  0  0  0999 V2000
  160.6550  209.2730  153.9980 C   0  0  0  0  0  3  0  0  0  0  0  0
  161.4730  208.3230  151.4850 C   0  0  0  0  0  0  0  0  0  0  0  0
  160.8190  210.1600  152.9340 C   0  0  0  0  0  3  0  0  0  0  0  0
  160.9090  207.9140  153.8180 C   0  0  0  0  0  0  0  0  0  0  0  0
  161.3060  207.4430  152.5660 C   0  0  0  0  0  3  0  0  0  0  0  0
  161.2360  209.7100  151.6690 C   0  0  0  0  0  0  0  0  0  0  0  0
  160.8750  212.8980  149.6390 C   0  0  0  0  0  3  0  0  0  0  0  0
  162.4320  211.4440  148.4960 C   0  0  0  0  0  3  0  0  0  0  0  0
  161.4040  210.7130  150.5800 C   0  0  0  0  0  0  0  0  0  0  0  0
  161.7320  212.6500  148.5660 C   0  0  0  0  0  0  0  0  0  0  0  0
  162.2700  210.4840  149.4990 C   0  0  0  0  0  3  0  0  0  0  0  0
  160.7150  211.9370  150.6420 C   0  0  0  0  0  3  0  0  0  0  0  0
  161.8970  213.6360  147.5350 C   0  0  0  0  0  0  0  0  0  0  0  0
  162.0310  214.4300  146.7030 N   0  0  0  0  0  0  0  0  0  0  0  0
  160.7130  206.9610  154.9450 C   0  0  0  0  0  2  0  0  0  0  0  0
  159.8730  207.5640  155.9670 N   0  0  0  0  0  2  0  0  0  0  0  0
  160.4430  207.2030  157.2520 C   0  0  0  0  0  1  0  0  0  0  0  0
  161.8460  207.8050  150.2010 N   0  0  0  0  0  2  0  0  0  0  0  0
  160.9300  201.6730  146.9640 C   0  0  0  0  0  1  0  0  0  0  0  0
  160.6450  204.9440  150.3350 O   0  0  0  0  0  0  0  0  0  0  0  0
  161.9090  206.2270  147.4100 C   0  0  1  0  0  3  0  0  0  0  0  0
  161.2310  202.7550  147.8850 N   0  0  0  0  0  2  0  0  0  0  0  0
  161.5180  204.0770  147.4280 C   0  0  0  0  0  0  0  0  0  0  0  0
  161.8120  205.7860  146.0650 N   0  0  0  0  0  2  0  0  0  0  0  0
  161.0970  205.6600  149.4040 C   0  0  0  0  0  0  0  0  0  0  0  0
  161.3600  207.3500  147.8630 C   0  0  0  0  0  2  0  0  0  0  0  0
  160.9210  207.1380  149.2930 C   0  0  2  0  0  3  0  0  0  0  0  0
  161.5510  204.4100  146.1730 N   0  0  0  0  0  0  0  0  0  0  0  0
  161.8280  205.1530  148.3070 N   0  0  0  0  0  0  0  0  0  0  0  0
  2  6  2  0  0  0  0
  2  5  1  0  0  0  0
  3  1  2  0  0  0  0
  4  1  1  0  0  0  0
  4 15  1  0  0  0  0
  5  4  2  0  0  0  0
  6  3  1  0  0  0  0
  7 12  1  0  0  0  0
  8 10  1  0  0  0  0
  8 11  2  0  0  0  0
  9 12  2  0  0  0  0
  9  6  1  0  0  0  0
 10  7  2  0  0  0  0
 11  9  1  0  0  0  0
 13 10  1  0  0  0  0
 14 13  3  0  0  0  0
 15 16  1  0  0  0  0
 16 17  1  0  0  0  0
 18  2  1  0  0  0  0
 19 22  1  0  0  0  0
 21 26  1  1  0  0  0
 21 29  1  0  0  0  0
 23 22  1  0  0  0  0
 23 29  1  0  0  0  0
 24 28  1  0  0  0  0
 24 21  1  0  0  0  0
 25 20  2  0  0  0  0
 26 27  1  0  0  0  0
 27 25  1  0  0  0  0
 27 18  1  1  0  0  0
 28 23  2  0  0  0  0
 29 25  1  0  0  0  0
M  END
>  <MODEL>
2

>  <REMARK>
 VINA RESULT:      -7.9      2.532      8.396
  Name = 
  6 active torsions:
  status: ('A' for Active; 'I' for Inactive)
    1  A    between atoms: C_1  and  C_12
    2  A    between atoms: C_4  and  C_17
    3  A    between atoms: C_4  and  N_23
    4  A    between atoms: C_11  and  C_27
    5  A    between atoms: C_15  and  N_21
    6  A    between atoms: C_20  and  N_21
                            x       y       z     vdW  Elec       q    Type
                         _______ _______ _______ _____ _____    ______ ____

>  <TORSDO>
F 6

$$$$
=
 OpenBabel11052409553D

 29 32  0  0  1  0  0  0  0  0999 V2000
  161.1820  204.3670  149.2750 C   0  0  0  0  0  3  0  0  0  0  0  0
  161.4320  206.2170  151.3730 C   0  0  0  0  0  0  0  0  0  0  0  0
  161.4160  205.7140  148.9970 C   0  0  0  0  0  3  0  0  0  0  0  0
  161.0600  203.9400  150.5970 C   0  0  0  0  0  0  0  0  0  0  0  0
  161.1940  204.8590  151.6370 C   0  0  0  0  0  3  0  0  0  0  0  0
  161.5350  206.6610  150.0290 C   0  0  0  0  0  0  0  0  0  0  0  0
  161.7830  209.8420  147.9730 C   0  0  0  0  0  3  0  0  0  0  0  0
  162.3430  210.3750  150.2630 C   0  0  0  0  0  3  0  0  0  0  0  0
  161.7720  208.0850  149.6610 C   0  0  0  0  0  0  0  0  0  0  0  0
  162.1640  210.7760  148.9380 C   0  0  0  0  0  0  0  0  0  0  0  0
  162.1450  209.0380  150.6210 C   0  0  0  0  0  3  0  0  0  0  0  0
  161.5850  208.5060  148.3330 C   0  0  0  0  0  3  0  0  0  0  0  0
  162.3680  212.1480  148.5700 C   0  0  0  0  0  0  0  0  0  0  0  0
  162.5350  213.2540  148.2720 N   0  0  0  0  0  0  0  0  0  0  0  0
  160.8340  202.4990  150.8980 C   0  0  0  0  0  2  0  0  0  0  0  0
  160.2090  201.8440  149.7610 N   0  0  0  0  0  2  0  0  0  0  0  0
  161.2000  200.9500  149.1890 C   0  0  0  0  0  1  0  0  0  0  0  0
  161.6030  207.1320  152.4640 N   0  0  0  0  0  2  0  0  0  0  0  0
  160.0000  211.9670  157.2560 C   0  0  0  0  0  1  0  0  0  0  0  0
  160.2560  209.8680  153.0530 O   0  0  0  0  0  0  0  0  0  0  0  0
  161.2850  207.7890  155.5870 C   0  0  1  0  0  3  0  0  0  0  0  0
  160.4580  211.2230  156.0960 N   0  0  0  0  0  2  0  0  0  0  0  0
  160.7730  209.8330  156.1670 C   0  0  0  0  0  0  0  0  0  0  0  0
  161.0240  207.7980  156.9810 N   0  0  0  0  0  2  0  0  0  0  0  0
  160.6510  208.9140  153.7730 C   0  0  0  0  0  0  0  0  0  0  0  0
  160.8520  206.8430  154.7580 C   0  0  0  0  0  2  0  0  0  0  0  0
  160.5510  207.4680  153.4160 C   0  0  2  0  0  3  0  0  0  0  0  0
  160.6950  209.1350  157.2600 N   0  0  0  0  0  0  0  0  0  0  0  0
  161.2340  209.0820  155.0480 N   0  0  0  0  0  0  0  0  0  0  0  0
  1  4  1  0  0  0  0
  2  5  1  0  0  0  0
  2 18  1  0  0  0  0
  3  1  2  0  0  0  0
  3  6  1  0  0  0  0
  4 15  1  0  0  0  0
  4  5  2  0  0  0  0
  6  2  2  0  0  0  0
  7 12  2  0  0  0  0
  7 10  1  0  0  0  0
  8 11  1  0  0  0  0
  9  6  1  0  0  0  0
  9 11  2  0  0  0  0
 10  8  2  0  0  0  0
 12  9  1  0  0  0  0
 13 10  1  0  0  0  0
 14 13  3  0  0  0  0
 16 15  1  0  0  0  0
 17 16  1  0  0  0  0
 20 25  2  0  0  0  0
 21 26  1  6  0  0  0
 21 24  1  0  0  0  0
 22 23  1  0  0  0  0
 22 19  1  0  0  0  0
 23 28  2  0  0  0  0
 24 28  1  0  0  0  0
 25 29  1  0  0  0  0
 27 18  1  6  0  0  0
 27 25  1  0  0  0  0
 27 26  1  0  0  0  0
 29 21  1  0  0  0  0
 29 23  1  0  0  0  0
M  END
>  <MODEL>
3

>  <REMARK>
 VINA RESULT:      -7.6      0.797      5.596
  Name = 
  6 active torsions:
  status: ('A' for Active; 'I' for Inactive)
    1  A    between atoms: C_1  and  C_12
    2  A    between atoms: C_4  and  C_17
    3  A    between atoms: C_4  and  N_23
    4  A    between atoms: C_11  and  C_27
    5  A    between atoms: C_15  and  N_21
    6  A    between atoms: C_20  and  N_21
                            x       y       z     vdW  Elec       q    Type
                         _______ _______ _______ _____ _____    ______ ____

>  <TORSDO>
F 6

$$$$
=
 OpenBabel11052409553D

 29 32  0  0  1  0  0  0  0  0999 V2000
  161.3950  210.1660  154.8110 C   0  0  0  0  0  3  0  0  0  0  0  0
  161.1850  208.8980  152.3130 C   0  0  0  0  0  0  0  0  0  0  0  0
  161.3380  210.9260  153.6430 C   0  0  0  0  0  3  0  0  0  0  0  0
  161.3600  208.7740  154.7380 C   0  0  0  0  0  0  0  0  0  0  0  0
  161.2460  208.1470  153.4970 C   0  0  0  0  0  3  0  0  0  0  0  0
  161.2420  210.3150  152.3800 C   0  0  0  0  0  0  0  0  0  0  0  0
  161.9730  211.6900  148.9180 C   0  0  0  0  0  3  0  0  0  0  0  0
  160.2810  213.0790  149.9440 C   0  0  0  0  0  3  0  0  0  0  0  0
  161.1980  211.1860  151.1730 C   0  0  0  0  0  0  0  0  0  0  0  0
  161.1070  212.7840  148.8570 C   0  0  0  0  0  0  0  0  0  0  0  0
  160.3250  212.2830  151.0920 C   0  0  0  0  0  3  0  0  0  0  0  0
  162.0150  210.8950  150.0670 C   0  0  0  0  0  3  0  0  0  0  0  0
  161.0630  213.6020  147.6790 C   0  0  0  0  0  0  0  0  0  0  0  0
  161.0280  214.2600  146.7280 N   0  0  0  0  0  0  0  0  0  0  0  0
  161.3970  207.9600  155.9850 C   0  0  0  0  0  2  0  0  0  0  0  0
  160.1190  208.0400  156.6710 N   0  0  0  0  0  2  0  0  0  0  0  0
  159.3120  206.9300  156.1990 C   0  0  0  0  0  1  0  0  0  0  0  0
  161.0300  208.2280  151.0560 N   0  0  0  0  0  2  0  0  0  0  0  0
  162.1450  204.2490  145.4130 C   0  0  0  0  0  1  0  0  0  0  0  0
  162.4360  207.9530  148.3000 O   0  0  0  0  0  0  0  0  0  0  0  0
  160.8810  205.2810  149.7980 C   0  0  1  0  0  3  0  0  0  0  0  0
  161.8340  205.3060  146.3590 N   0  0  0  0  0  2  0  0  0  0  0  0
  161.4230  205.0250  147.6970 C   0  0  0  0  0  0  0  0  0  0  0  0
  160.9140  203.8910  149.5190 N   0  0  0  0  0  2  0  0  0  0  0  0
  161.8700  207.1410  149.0780 C   0  0  0  0  0  0  0  0  0  0  0  0
  161.3800  205.8270  150.9040 C   0  0  0  0  0  2  0  0  0  0  0  0
  161.9330  207.1920  150.5690 C   0  0  2  0  0  3  0  0  0  0  0  0
  161.2780  203.8210  148.1640 N   0  0  0  0  0  0  0  0  0  0  0  0
  161.1010  206.0410  148.6410 N   0  0  0  0  0  0  0  0  0  0  0  0
  2  6  2  0  0  0  0
  2  5  1  0  0  0  0
  3  1  2  0  0  0  0
  4  1  1  0  0  0  0
  4 15  1  0  0  0  0
  5  4  2  0  0  0  0
  6  3  1  0  0  0  0
  7 12  1  0  0  0  0
  8 11  2  0  0  0  0
  9  6  1  0  0  0  0
 10  7  2  0  0  0  0
 10  8  1  0  0  0  0
 11  9  1  0  0  0  0
 12  9  2  0  0  0  0
 13 10  1  0  0  0  0
 14 13  3  0  0  0  0
 15 16  1  0  0  0  0
 17 16  1  0  0  0  0
 18  2  1  0  0  0  0
 19 22  1  0  0  0  0
 20 25  2  0  0  0  0
 21 26  1  1  0  0  0
 22 23  1  0  0  0  0
 23 28  2  0  0  0  0
 23 29  1  0  0  0  0
 24 21  1  0  0  0  0
 25 27  1  0  0  0  0
 27 26  1  0  0  0  0
 27 18  1  1  0  0  0
 28 24  1  0  0  0  0
 29 25  1  0  0  0  0
 29 21  1  0  0  0  0
M  END
>  <MODEL>
4

>  <REMARK>
 VINA RESULT:      -7.6      2.492      8.073
  Name = 
  6 active torsions:
  status: ('A' for Active; 'I' for Inactive)
    1  A    between atoms: C_1  and  C_12
    2  A    between atoms: C_4  and  C_17
    3  A    between atoms: C_4  and  N_23
    4  A    between atoms: C_11  and  C_27
    5  A    between atoms: C_15  and  N_21
    6  A    between atoms: C_20  and  N_21
                            x       y       z     vdW  Elec       q    Type
                         _______ _______ _______ _____ _____    ______ ____

>  <TORSDO>
F 6

$$$$
=
 OpenBabel11052409553D

 29 32  0  0  1  0  0  0  0  0999 V2000
  161.7780  211.7850  150.0530 C   0  0  0  0  0  3  0  0  0  0  0  0
  161.7070  208.9770  150.0420 C   0  0  0  0  0  0  0  0  0  0  0  0
  161.5280  211.0860  151.2340 C   0  0  0  0  0  3  0  0  0  0  0  0
  161.9810  211.0890  148.8620 C   0  0  0  0  0  0  0  0  0  0  0  0
  161.9550  209.6940  148.8610 C   0  0  0  0  0  3  0  0  0  0  0  0
  161.4790  209.6810  151.2530 C   0  0  0  0  0  0  0  0  0  0  0  0
  160.6190  209.1390  154.9100 C   0  0  0  0  0  3  0  0  0  0  0  0
  160.8790  206.9750  153.8640 C   0  0  0  0  0  3  0  0  0  0  0  0
  161.1940  209.0000  152.5470 C   0  0  0  0  0  0  0  0  0  0  0  0
  160.6060  207.7460  154.9960 C   0  0  0  0  0  0  0  0  0  0  0  0
  161.1680  207.6000  152.6480 C   0  0  0  0  0  3  0  0  0  0  0  0
  160.9070  209.7620  153.6920 C   0  0  0  0  0  3  0  0  0  0  0  0
  160.3110  207.1050  156.2460 C   0  0  0  0  0  0  0  0  0  0  0  0
  160.0730  206.5870  157.2540 N   0  0  0  0  0  0  0  0  0  0  0  0
  162.2710  211.8300  147.6030 C   0  0  0  0  0  2  0  0  0  0  0  0
  161.3580  212.9520  147.4630 N   0  0  0  0  0  2  0  0  0  0  0  0
  160.2020  212.4710  146.7290 C   0  0  0  0  0  1  0  0  0  0  0  0
  161.7240  207.5440  150.0180 N   0  0  0  0  0  2  0  0  0  0  0  0
  160.8500  200.9580  147.8320 C   0  0  0  0  0  1  0  0  0  0  0  0
  160.5290  204.7390  150.6130 O   0  0  0  0  0  0  0  0  0  0  0  0
  161.8150  205.5270  147.5270 C   0  0  1  0  0  3  0  0  0  0  0  0
  161.1420  202.1790  148.5640 N   0  0  0  0  0  2  0  0  0  0  0  0
  161.4290  203.4080  147.8970 C   0  0  0  0  0  0  0  0  0  0  0  0
  161.7300  204.8690  146.2730 N   0  0  0  0  0  2  0  0  0  0  0  0
  160.9870  205.2940  149.5800 C   0  0  0  0  0  0  0  0  0  0  0  0
  161.2590  206.7070  147.7830 C   0  0  0  0  0  2  0  0  0  0  0  0
  160.8080  206.7330  149.2250 C   0  0  2  0  0  3  0  0  0  0  0  0
  161.4720  203.5290  146.6040 N   0  0  0  0  0  0  0  0  0  0  0  0
  161.7280  204.6150  148.5890 N   0  0  0  0  0  0  0  0  0  0  0  0
  1  3  1  0  0  0  0
  2  6  1  0  0  0  0
  3  6  2  0  0  0  0
  4  1  2  0  0  0  0
  5  4  1  0  0  0  0
  5  2  2  0  0  0  0
  6  9  1  0  0  0  0
  7 10  1  0  0  0  0
  8 10  2  0  0  0  0
  9 11  2  0  0  0  0
  9 12  1  0  0  0  0
 10 13  1  0  0  0  0
 11  8  1  0  0  0  0
 12  7  2  0  0  0  0
 13 14  3  0  0  0  0
 15  4  1  0  0  0  0
 16 15  1  0  0  0  0
 17 16  1  0  0  0  0
 18  2  1  0  0  0  0
 19 22  1  0  0  0  0
 21 26  1  1  0  0  0
 21 29  1  0  0  0  0
 23 22  1  0  0  0  0
 23 29  1  0  0  0  0
 24 28  1  0  0  0  0
 24 21  1  0  0  0  0
 25 20  2  0  0  0  0
 26 27  1  0  0  0  0
 27 25  1  0  0  0  0
 27 18  1  1  0  0  0
 28 23  2  0  0  0  0
 29 25  1  0  0  0  0
M  END
>  <MODEL>
5

>  <REMARK>
 VINA RESULT:      -7.5      2.313      6.864
  Name = 
  6 active torsions:
  status: ('A' for Active; 'I' for Inactive)
    1  A    between atoms: C_1  and  C_12
    2  A    between atoms: C_4  and  C_17
    3  A    between atoms: C_4  and  N_23
    4  A    between atoms: C_11  and  C_27
    5  A    between atoms: C_15  and  N_21
    6  A    between atoms: C_20  and  N_21
                            x       y       z     vdW  Elec       q    Type
                         _______ _______ _______ _____ _____    ______ ____

>  <TORSDO>
F 6

$$$$
=
 OpenBabel11052409553D

 29 32  0  0  1  0  0  0  0  0999 V2000
  161.3380  202.4550  151.6330 C   0  0  0  0  0  3  0  0  0  0  0  0
  160.7370  204.7150  150.0790 C   0  0  0  0  0  0  0  0  0  0  0  0
  161.3600  203.7260  152.2080 C   0  0  0  0  0  3  0  0  0  0  0  0
  161.0300  202.3070  150.2820 C   0  0  0  0  0  0  0  0  0  0  0  0
  160.7220  203.4300  149.5140 C   0  0  0  0  0  3  0  0  0  0  0  0
  161.0720  204.8730  151.4490 C   0  0  0  0  0  0  0  0  0  0  0  0
  160.9580  207.5290  154.1590 C   0  0  0  0  0  3  0  0  0  0  0  0
  161.5100  208.6050  152.0660 C   0  0  0  0  0  3  0  0  0  0  0  0
  161.1250  206.2010  152.1230 C   0  0  0  0  0  0  0  0  0  0  0  0
  161.2650  208.6850  153.4380 C   0  0  0  0  0  0  0  0  0  0  0  0
  161.4430  207.3700  151.4150 C   0  0  0  0  0  3  0  0  0  0  0  0
  160.8920  206.2950  153.5060 C   0  0  0  0  0  3  0  0  0  0  0  0
  161.3320  209.9530  154.1070 C   0  0  0  0  0  0  0  0  0  0  0  0
  161.3870  210.9750  154.6470 N   0  0  0  0  0  0  0  0  0  0  0  0
  160.9830  200.9500  149.6700 C   0  0  0  0  0  2  0  0  0  0  0  0
  160.6110  201.0470  148.2680 N   0  0  0  0  0  2  0  0  0  0  0  0
  161.5300  200.2040  147.5250 C   0  0  0  0  0  1  0  0  0  0  0  0
  160.3790  205.8470  149.2750 N   0  0  0  0  0  2  0  0  0  0  0  0
  161.7650  205.7540  142.4200 C   0  0  0  0  0  1  0  0  0  0  0  0
  159.7390  207.0230  146.4720 O   0  0  0  0  0  0  0  0  0  0  0  0
  162.4420  204.9650  146.9820 C   0  0  1  0  0  3  0  0  0  0  0  0
  161.1620  205.7380  143.7420 N   0  0  0  0  0  2  0  0  0  0  0  0
  161.8930  205.3360  144.9000 C   0  0  0  0  0  0  0  0  0  0  0  0
  163.5650  204.6640  146.1710 N   0  0  0  0  0  2  0  0  0  0  0  0
  160.6770  206.3220  146.9330 C   0  0  0  0  0  0  0  0  0  0  0  0
  162.5150  205.6270  148.1330 C   0  0  0  0  0  2  0  0  0  0  0  0
  161.2670  206.4640  148.2970 C   0  0  2  0  0  3  0  0  0  0  0  0
  163.1300  204.9390  144.8640 N   0  0  0  0  0  0  0  0  0  0  0  0
  161.3250  205.3010  146.2040 N   0  0  0  0  0  0  0  0  0  0  0  0
  1  3  1  0  0  0  0
  2  6  1  0  0  0  0
  4  1  2  0  0  0  0
  5  2  2  0  0  0  0
  5  4  1  0  0  0  0
  6  9  1  0  0  0  0
  6  3  2  0  0  0  0
  8 10  1  0  0  0  0
  9 12  2  0  0  0  0
 10 13  1  0  0  0  0
 10  7  2  0  0  0  0
 11  8  2  0  0  0  0
 11  9  1  0  0  0  0
 12  7  1  0  0  0  0
 13 14  3  0  0  0  0
 15  4  1  0  0  0  0
 16 15  1  0  0  0  0
 17 16  1  0  0  0  0
 18  2  1  0  0  0  0
 19 22  1  0  0  0  0
 20 25  2  0  0  0  0
 21 26  1  1  0  0  0
 22 23  1  0  0  0  0
 23 29  1  0  0  0  0
 24 21  1  0  0  0  0
 25 27  1  0  0  0  0
 26 27  1  0  0  0  0
 27 18  1  1  0  0  0
 28 23  2  0  0  0  0
 28 24  1  0  0  0  0
 29 25  1  0  0  0  0
 29 21  1  0  0  0  0
M  END
>  <MODEL>
6

>  <REMARK>
 VINA RESULT:      -7.3      3.467      8.742
  Name = 
  6 active torsions:
  status: ('A' for Active; 'I' for Inactive)
    1  A    between atoms: C_1  and  C_12
    2  A    between atoms: C_4  and  C_17
    3  A    between atoms: C_4  and  N_23
    4  A    between atoms: C_11  and  C_27
    5  A    between atoms: C_15  and  N_21
    6  A    between atoms: C_20  and  N_21
                            x       y       z     vdW  Elec       q    Type
                         _______ _______ _______ _____ _____    ______ ____

>  <TORSDO>
F 6

$$$$
=
 OpenBabel11052409553D

 29 32  0  0  1  0  0  0  0  0999 V2000
  161.0730  204.8330  150.2350 C   0  0  0  0  0  3  0  0  0  0  0  0
  161.4380  206.9480  152.0450 C   0  0  0  0  0  0  0  0  0  0  0  0
  161.3280  206.1210  149.7640 C   0  0  0  0  0  3  0  0  0  0  0  0
  160.9860  204.5970  151.6060 C   0  0  0  0  0  0  0  0  0  0  0  0
  161.1770  205.6480  152.5040 C   0  0  0  0  0  3  0  0  0  0  0  0
  161.5060  207.1980  150.6500 C   0  0  0  0  0  0  0  0  0  0  0  0
  161.9410  210.0080  148.1350 C   0  0  0  0  0  3  0  0  0  0  0  0
  162.2300  210.9250  150.3530 C   0  0  0  0  0  3  0  0  0  0  0  0
  161.7630  208.5500  150.0780 C   0  0  0  0  0  0  0  0  0  0  0  0
  162.1970  211.0980  148.9680 C   0  0  0  0  0  0  0  0  0  0  0  0
  162.0110  209.6590  150.9030 C   0  0  0  0  0  3  0  0  0  0  0  0
  161.7220  208.7430  148.6870 C   0  0  0  0  0  3  0  0  0  0  0  0
  162.4240  212.3980  148.4020 C   0  0  0  0  0  0  0  0  0  0  0  0
  162.6060  213.4470  147.9470 N   0  0  0  0  0  0  0  0  0  0  0  0
  160.7360  203.2190  152.1130 C   0  0  0  0  0  2  0  0  0  0  0  0
  161.6480  202.2820  151.4790 N   0  0  0  0  0  2  0  0  0  0  0  0
  160.8630  201.4870  150.5520 C   0  0  0  0  0  1  0  0  0  0  0  0
  161.6670  208.0010  152.9910 N   0  0  0  0  0  2  0  0  0  0  0  0
  159.6050  213.5330  156.7400 C   0  0  0  0  0  1  0  0  0  0  0  0
  159.7350  210.4230  153.2130 O   0  0  0  0  0  0  0  0  0  0  0  0
  161.6990  209.4440  155.8550 C   0  0  1  0  0  3  0  0  0  0  0  0
  160.0530  212.6070  155.7150 N   0  0  0  0  0  2  0  0  0  0  0  0
  160.7460  211.4020  156.0380 C   0  0  0  0  0  0  0  0  0  0  0  0
  161.6790  209.7970  157.2290 N   0  0  0  0  0  2  0  0  0  0  0  0
  160.4900  209.8290  154.0260 C   0  0  0  0  0  0  0  0  0  0  0  0
  161.4130  208.2280  155.3980 C   0  0  0  0  0  2  0  0  0  0  0  0
  160.7350  208.3570  154.0550 C   0  0  2  0  0  3  0  0  0  0  0  0
  161.0450  211.0500  157.2520 N   0  0  0  0  0  0  0  0  0  0  0  0
  161.2050  210.4820  155.0530 N   0  0  0  0  0  0  0  0  0  0  0  0
  1  4  1  0  0  0  0
  2  5  1  0  0  0  0
  2 18  1  0  0  0  0
  3  1  2  0  0  0  0
  3  6  1  0  0  0  0
  4 15  1  0  0  0  0
  4  5  2  0  0  0  0
  6  2  2  0  0  0  0
  7 12  2  0  0  0  0
  7 10  1  0  0  0  0
  8 11  1  0  0  0  0
  9  6  1  0  0  0  0
  9 11  2  0  0  0  0
 10  8  2  0  0  0  0
 12  9  1  0  0  0  0
 13 10  1  0  0  0  0
 14 13  3  0  0  0  0
 16 15  1  0  0  0  0
 17 16  1  0  0  0  0
 20 25  2  0  0  0  0
 21 26  1  1  0  0  0
 21 24  1  0  0  0  0
 22 23  1  0  0  0  0
 22 19  1  0  0  0  0
 23 28  2  0  0  0  0
 24 28  1  0  0  0  0
 25 27  1  0  0  0  0
 25 29  1  0  0  0  0
 27 18  1  6  0  0  0
 27 26  1  0  0  0  0
 29 21  1  0  0  0  0
 29 23  1  0  0  0  0
M  END
>  <MODEL>
7

>  <REMARK>
 VINA RESULT:      -7.1      1.315      5.722
  Name = 
  6 active torsions:
  status: ('A' for Active; 'I' for Inactive)
    1  A    between atoms: C_1  and  C_12
    2  A    between atoms: C_4  and  C_17
    3  A    between atoms: C_4  and  N_23
    4  A    between atoms: C_11  and  C_27
    5  A    between atoms: C_15  and  N_21
    6  A    between atoms: C_20  and  N_21
                            x       y       z     vdW  Elec       q    Type
                         _______ _______ _______ _____ _____    ______ ____

>  <TORSDO>
F 6

$$$$
=
 OpenBabel11052409553D

 29 32  0  0  1  0  0  0  0  0999 V2000
  160.9600  206.2170  154.6440 C   0  0  0  0  0  3  0  0  0  0  0  0
  160.8350  208.4420  152.9340 C   0  0  0  0  0  0  0  0  0  0  0  0
  161.1450  206.0560  153.2710 C   0  0  0  0  0  3  0  0  0  0  0  0
  160.7000  207.4830  155.1680 C   0  0  0  0  0  0  0  0  0  0  0  0
  160.6480  208.5880  154.3170 C   0  0  0  0  0  3  0  0  0  0  0  0
  161.0780  207.1520  152.3930 C   0  0  0  0  0  0  0  0  0  0  0  0
  162.3320  207.5150  148.8290 C   0  0  0  0  0  3  0  0  0  0  0  0
  160.8630  205.5970  148.9240 C   0  0  0  0  0  3  0  0  0  0  0  0
  161.2730  206.9060  150.9370 C   0  0  0  0  0  0  0  0  0  0  0  0
  161.7010  206.4430  148.1940 C   0  0  0  0  0  0  0  0  0  0  0  0
  160.6540  205.8270  150.2870 C   0  0  0  0  0  3  0  0  0  0  0  0
  162.1220  207.7420  150.1920 C   0  0  0  0  0  3  0  0  0  0  0  0
  161.9140  206.2080  146.7950 C   0  0  0  0  0  0  0  0  0  0  0  0
  162.0880  206.0210  145.6650 N   0  0  0  0  0  0  0  0  0  0  0  0
  160.5250  207.6630  156.6360 C   0  0  0  0  0  2  0  0  0  0  0  0
  160.9020  209.0130  157.0210 N   0  0  0  0  0  2  0  0  0  0  0  0
  162.3340  209.0040  157.2570 C   0  0  0  0  0  1  0  0  0  0  0  0
  160.8140  209.6000  152.0890 N   0  0  0  0  0  2  0  0  0  0  0  0
  156.0460  214.4520  153.7140 C   0  0  0  0  0  1  0  0  0  0  0  0
  158.9620  210.8030  154.2740 O   0  0  0  0  0  0  0  0  0  0  0  0
  159.4590  212.3880  151.2680 C   0  0  1  0  0  3  0  0  0  0  0  0
  156.8110  213.2360  153.5060 N   0  0  0  0  0  2  0  0  0  0  0  0
  157.8080  213.1360  152.4890 C   0  0  0  0  0  0  0  0  0  0  0  0
  159.1460  213.7000  150.8290 N   0  0  0  0  0  2  0  0  0  0  0  0
  159.3600  211.2010  153.1480 C   0  0  0  0  0  0  0  0  0  0  0  0
  160.7000  211.9360  151.4260 C   0  0  0  0  0  2  0  0  0  0  0  0
  160.7230  210.9680  152.5860 C   0  0  2  0  0  3  0  0  0  0  0  0
  158.0940  214.1020  151.6680 N   0  0  0  0  0  0  0  0  0  0  0  0
  158.5650  211.9530  152.2560 N   0  0  0  0  0  0  0  0  0  0  0  0
  1  4  1  0  0  0  0
  2  5  1  0  0  0  0
  3  1  2  0  0  0  0
  4 15  1  0  0  0  0
  5  4  2  0  0  0  0
  6  2  2  0  0  0  0
  6  3  1  0  0  0  0
  7 12  1  0  0  0  0
  8 11  2  0  0  0  0
  9  6  1  0  0  0  0
 10  7  2  0  0  0  0
 10  8  1  0  0  0  0
 11  9  1  0  0  0  0
 12  9  2  0  0  0  0
 13 10  1  0  0  0  0
 14 13  3  0  0  0  0
 15 16  1  0  0  0  0
 16 17  1  0  0  0  0
 18  2  1  0  0  0  0
 21 26  1  1  0  0  0
 21 29  1  0  0  0  0
 22 19  1  0  0  0  0
 23 22  1  0  0  0  0
 24 21  1  0  0  0  0
 24 28  1  0  0  0  0
 25 20  2  0  0  0  0
 26 27  1  0  0  0  0
 27 18  1  6  0  0  0
 27 25  1  0  0  0  0
 28 23  2  0  0  0  0
 29 23  1  0  0  0  0
 29 25  1  0  0  0  0
M  END
>  <MODEL>
8

>  <REMARK>
 VINA RESULT:      -7.0      2.938      5.581
  Name = 
  6 active torsions:
  status: ('A' for Active; 'I' for Inactive)
    1  A    between atoms: C_1  and  C_12
    2  A    between atoms: C_4  and  C_17
    3  A    between atoms: C_4  and  N_23
    4  A    between atoms: C_11  and  C_27
    5  A    between atoms: C_15  and  N_21
    6  A    between atoms: C_20  and  N_21
                            x       y       z     vdW  Elec       q    Type
                         _______ _______ _______ _____ _____    ______ ____

>  <TORSDO>
F 6

$$$$
=
 OpenBabel11052409553D

 29 32  0  0  1  0  0  0  0  0999 V2000
  160.7800  207.3930  155.4740 C   0  0  0  0  0  3  0  0  0  0  0  0
  161.5650  208.3830  152.9660 C   0  0  0  0  0  0  0  0  0  0  0  0
  160.8240  206.5430  154.3690 C   0  0  0  0  0  3  0  0  0  0  0  0
  161.1150  208.7390  155.3310 C   0  0  0  0  0  0  0  0  0  0  0  0
  161.5140  209.2260  154.0860 C   0  0  0  0  0  3  0  0  0  0  0  0
  161.2050  207.0170  153.1010 C   0  0  0  0  0  0  0  0  0  0  0  0
  161.5800  203.7990  151.1220 C   0  0  0  0  0  3  0  0  0  0  0  0
  160.8300  205.5330  149.6140 C   0  0  0  0  0  3  0  0  0  0  0  0
  161.2170  206.0570  151.9610 C   0  0  0  0  0  0  0  0  0  0  0  0
  161.2060  204.2070  149.8410 C   0  0  0  0  0  0  0  0  0  0  0  0
  160.8330  206.4500  150.6690 C   0  0  0  0  0  3  0  0  0  0  0  0
  161.5820  204.7180  152.1760 C   0  0  0  0  0  3  0  0  0  0  0  0
  161.2040  203.2660  148.7570 C   0  0  0  0  0  0  0  0  0  0  0  0
  161.2050  202.5060  147.8830 N   0  0  0  0  0  0  0  0  0  0  0  0
  161.0920  209.6440  156.5140 C   0  0  0  0  0  2  0  0  0  0  0  0
  162.3350  209.5240  157.2570 N   0  0  0  0  0  2  0  0  0  0  0  0
  163.1350  210.6930  156.9380 C   0  0  0  0  0  1  0  0  0  0  0  0
  162.0150  208.9020  151.7080 N   0  0  0  0  0  2  0  0  0  0  0  0
  162.2760  213.3270  146.2980 C   0  0  0  0  0  1  0  0  0  0  0  0
  162.3770  209.2500  148.6420 O   0  0  0  0  0  0  0  0  0  0  0  0
  161.3250  211.8440  150.6330 C   0  0  1  0  0  3  0  0  0  0  0  0
  162.5110  212.3000  147.2970 N   0  0  0  0  0  2  0  0  0  0  0  0
  161.9430  212.3750  148.6050 C   0  0  0  0  0  0  0  0  0  0  0  0
  160.7620  213.1070  150.3180 N   0  0  0  0  0  2  0  0  0  0  0  0
  161.9500  209.9950  149.5630 C   0  0  0  0  0  0  0  0  0  0  0  0
  160.6650  210.8740  151.2580 C   0  0  0  0  0  2  0  0  0  0  0  0
  161.1400  209.5400  150.7310 C   0  0  2  0  0  3  0  0  0  0  0  0
  161.1970  213.3610  149.0070 N   0  0  0  0  0  0  0  0  0  0  0  0
  162.1650  211.3890  149.6070 N   0  0  0  0  0  0  0  0  0  0  0  0
  2  6  2  0  0  0  0
  2  5  1  0  0  0  0
  3  1  2  0  0  0  0
  4  1  1  0  0  0  0
  4 15  1  0  0  0  0
  5  4  2  0  0  0  0
  6  3  1  0  0  0  0
  7 12  1  0  0  0  0
  8 10  1  0  0  0  0
  8 11  2  0  0  0  0
  9 12  2  0  0  0  0
  9  6  1  0  0  0  0
 10  7  2  0  0  0  0
 11  9  1  0  0  0  0
 13 10  1  0  0  0  0
 14 13  3  0  0  0  0
 15 16  1  0  0  0  0
 17 16  1  0  0  0  0
 18  2  1  0  0  0  0
 19 22  1  0  0  0  0
 20 25  2  0  0  0  0
 21 26  1  6  0  0  0
 22 23  1  0  0  0  0
 23 28  2  0  0  0  0
 23 29  1  0  0  0  0
 24 21  1  0  0  0  0
 25 29  1  0  0  0  0
 25 27  1  0  0  0  0
 27 26  1  0  0  0  0
 27 18  1  1  0  0  0
 28 24  1  0  0  0  0
 29 21  1  0  0  0  0
M  END
>  <MODEL>
9

>  <REMARK>
 VINA RESULT:      -6.9      1.864      6.009
  Name = 
  6 active torsions:
  status: ('A' for Active; 'I' for Inactive)
    1  A    between atoms: C_1  and  C_12
    2  A    between atoms: C_4  and  C_17
    3  A    between atoms: C_4  and  N_23
    4  A    between atoms: C_11  and  C_27
    5  A    between atoms: C_15  and  N_21
    6  A    between atoms: C_20  and  N_21
                            x       y       z     vdW  Elec       q    Type
                         _______ _______ _______ _____ _____    ______ ____

>  <TORSDO>
F 6

$$$$
