=
 OpenBabel11042422053D

 59 69  0  0  1  0  0  0  0  0999 V2000
  161.5940  206.9560  151.0620 C   0  0  1  0  0  3  0  0  0  0  0  0
  161.0770  209.6070  153.0280 C   0  0  0  0  0  2  0  0  0  0  0  0
  162.7140  205.5250  152.8870 C   0  0  0  0  0  2  0  0  0  0  0  0
  157.9580  209.7480  155.0870 C   0  0  0  0  0  2  0  0  0  0  0  0
  163.2300  205.2280  145.7380 F   0  0  0  0  0  0  0  0  0  0  0  0
  160.7690  211.8390  150.9420 C   0  0  0  0  0  2  0  0  0  0  0  0
  158.8310  212.2730  154.7130 C   0  0  0  0  0  2  0  0  0  0  0  0
  160.6620  204.0920  148.3110 C   0  0  2  0  0  3  0  0  0  0  0  0
  162.3110  208.2930  151.3170 C   0  0  0  0  0  2  0  0  0  0  0  0
  158.9590  213.5330  153.8640 C   0  0  0  0  0  2  0  0  0  0  0  0
  159.8730  206.0170  146.0300 C   0  0  0  0  0  2  0  0  0  0  0  0
  161.3900  206.0820  152.3190 C   0  0  1  0  0  3  0  0  0  0  0  0
  160.5090  206.6290  149.0250 C   0  0  2  0  0  3  0  0  0  0  0  0
  160.6710  212.5600  152.2790 C   0  0  0  0  0  2  0  0  0  0  0  0
  159.8030  205.2740  148.8170 C   0  0  0  0  0  2  0  0  0  0  0  0
  162.1030  205.3570  146.5210 C   0  0  2  0  0  0  0  0  0  0  0  0
  163.5850  204.9470  151.9240 O   0  0  0  0  0  0  0  0  0  0  0  0
  160.8820  204.9200  145.7550 C   0  0  1  0  0  3  0  0  0  0  0  0
  161.8030  206.7490  148.4670 O   0  0  0  0  0  0  0  0  0  0  0  0
  161.3410  209.4580  151.5380 C   0  0  2  0  0  3  0  0  0  0  0  0
  161.4610  203.4090  149.3850 C   0  0  0  0  0  0  0  0  0  0  0  0
  161.8680  210.7780  150.9490 C   0  0  1  0  0  3  0  0  0  0  0  0
  162.1690  204.1900  150.1870 C   0  0  0  0  0  3  0  0  0  0  0  0
  160.3880  207.1240  150.3470 O   0  0  0  0  0  0  0  0  0  0  0  0
  162.3600  202.8470  152.2730 C   0  0  0  0  0  3  0  0  0  0  0  0
  161.5970  201.2510  150.5630 N   0  0  0  0  0  0  0  0  0  0  0  0
  161.7520  206.7260  147.0520 C   0  0  2  0  0  3  0  0  0  0  0  0
  159.6850  209.0970  153.3760 C   0  0  2  0  0  3  0  0  0  0  0  0
  161.4970  201.9260  149.4490 C   0  0  0  0  0  0  0  0  0  0  0  0
  159.4110  209.3500  154.8490 C   0  0  0  0  0  2  0  0  0  0  0  0
  161.7510  201.7170  151.9130 C   0  0  0  0  0  3  0  0  0  0  0  0
  159.3020  213.2160  152.4100 C   0  0  2  0  0  3  0  0  0  0  0  0
  157.4550  211.2280  154.1310 S   0  0  0  0  0  0  0  0  0  0  0  0
  160.5560  206.7290  153.3980 C   0  0  0  0  0  0  0  0  0  0  0  0
  161.3890  204.0880  146.9400 C   0  0  2  0  0  3  0  0  0  0  0  0
  160.7240  206.4220  154.6080 O   0  0  0  0  0  0  0  0  0  0  0  0
  160.5310  207.1670  146.4990 O   0  0  0  0  0  0  0  0  0  0  0  0
  161.2580  199.8510  148.2210 O   0  0  0  0  0  1  0  0  0  0  0  0
  161.2920  201.2050  148.2360 N   0  0  0  0  0  2  0  0  0  0  0  0
  159.5500  207.6820  153.0470 N   0  0  0  0  0  2  0  0  0  0  0  0
  163.0400  203.7830  151.3160 C   0  0  2  0  0  3  0  0  0  0  0  0
  158.7270  214.4130  150.3820 N   0  0  0  0  0  2  0  0  0  0  0  0
  159.2070  214.4520  151.5700 C   0  0  0  0  0  3  0  0  0  0  0  0
  162.3720  210.6030  149.5160 C   0  0  0  0  0  2  0  0  0  0  0  0
  162.9520  211.8110  149.0370 O   0  0  0  0  0  0  0  0  0  0  0  0
  162.2120  212.7440  148.3150 C   0  0  0  0  0  0  0  0  0  0  0  0
  161.7260  212.4310  147.0070 N   0  0  0  0  0  2  0  0  0  0  0  0
  161.9940  213.8770  148.8190 O   0  0  0  0  0  0  0  0  0  0  0  0
  161.4610  212.8800  143.8770 N   0  0  2  0  0  0  0  0  0  0  0  0
  159.5770  212.0210  142.7450 N   0  0  0  0  0  2  0  0  0  0  0  0
  160.5110  212.7940  144.9470 C   0  0  2  0  0  0  0  0  0  0  0  0
  162.2450  214.2350  145.6160 O   0  0  0  0  0  0  0  0  0  0  0  0
  159.2940  212.7630  144.0190 C   0  0  2  0  0  0  0  0  0  0  0  0
  159.4890  213.9770  144.7590 C   0  0  0  0  0  2  0  0  0  0  0  0
  161.1850  213.4510  146.1210 C   0  0  2  0  0  3  0  0  0  0  0  0
  162.2450  214.0640  144.2130 C   0  0  1  0  0  3  0  0  0  0  0  0
  160.3340  213.1820  142.9990 C   0  0  1  0  0  3  0  0  0  0  0  0
  163.6700  214.4530  142.4100 C   0  0  0  0  0  1  0  0  0  0  0  0
  163.6100  213.8910  143.7460 N   0  0  0  0  0  2  0  0  0  0  0  0
  1  9  1  1  0  0  0
  1 12  1  0  0  0  0
  6 22  1  0  0  0  0
  6 14  1  0  0  0  0
  8 15  1  1  0  0  0
  8 21  1  0  0  0  0
 10  7  1  0  0  0  0
 11 37  1  0  0  0  0
 12  3  1  1  0  0  0
 12 34  1  0  0  0  0
 13 15  1  1  0  0  0
 13 24  1  0  0  0  0
 14 32  1  0  0  0  0
 16  5  1  6  0  0  0
 16 35  1  0  0  0  0
 16 27  1  0  0  0  0
 17  3  1  0  0  0  0
 18 11  1  1  0  0  0
 18 16  1  0  0  0  0
 18 35  1  0  0  0  0
 19 13  1  0  0  0  0
 20  9  1  1  0  0  0
 20  2  1  0  0  0  0
 21 29  1  0  0  0  0
 21 23  2  0  0  0  0
 22 44  1  6  0  0  0
 22 20  1  0  0  0  0
 23 41  1  0  0  0  0
 24  1  1  0  0  0  0
 26 31  1  0  0  0  0
 27 37  1  1  0  0  0
 27 19  1  0  0  0  0
 28  2  1  1  0  0  0
 28 30  1  0  0  0  0
 29 26  2  0  0  0  0
 30  4  1  0  0  0  0
 31 25  2  0  0  0  0
 32 43  1  6  0  0  0
 32 10  1  0  0  0  0
 33  7  1  0  0  0  0
 33  4  1  0  0  0  0
 34 36  2  0  0  0  0
 35  8  1  0  0  0  0
 38 39  1  0  0  0  0
 39 29  1  0  0  0  0
 40 28  1  0  0  0  0
 40 34  1  0  0  0  0
 41 17  1  0  0  0  0
 41 25  1  0  0  0  0
 42 43  2  0  0  0  0
 45 44  1  0  0  0  0
 46 48  2  0  0  0  0
 46 45  1  0  0  0  0
 47 46  1  0  0  0  0
 49 56  1  0  0  0  0
 49 51  1  0  0  0  0
 50 57  1  0  0  0  0
 50 53  1  0  0  0  0
 51 55  1  0  0  0  0
 52 55  1  0  0  0  0
 53 54  1  0  0  0  0
 53 51  1  0  0  0  0
 54 51  1  0  0  0  0
 55 47  1  0  0  0  0
 56 52  1  0  0  0  0
 57 49  1  0  0  0  0
 57 53  1  0  0  0  0
 58 59  1  0  0  0  0
 59 56  1  0  0  0  0
M  END
>  <MODEL>
1

>  <REMARK>
 VINA RESULT:       3.9      0.000      0.000
  Name = 
  6 active torsions:
  status: ('A' for Active; 'I' for Inactive)
    1  A    between atoms: C_13  and  O_23
    2  A    between atoms: O_23  and  C_57
    3  A    between atoms: N_27  and  C_40
    4  A    between atoms: C_33  and  C_57
    5  A    between atoms: N_37  and  C_43
    6  A    between atoms: C_46  and  C_49
                            x       y       z     vdW  Elec       q    Type
                         _______ _______ _______ _____ _____    ______ ____

>  <TORSDO>
F 6

$$$$
=
 OpenBabel11042422053D

 59 69  0  0  1  0  0  0  0  0999 V2000
  161.6310  206.8430  151.0980 C   0  0  1  0  0  3  0  0  0  0  0  0
  161.1790  209.4200  153.1760 C   0  0  0  0  0  2  0  0  0  0  0  0
  162.6600  205.2880  152.8730 C   0  0  0  0  0  2  0  0  0  0  0  0
  158.0280  209.5890  155.1850 C   0  0  0  0  0  2  0  0  0  0  0  0
  163.3010  205.2980  145.7290 F   0  0  0  0  0  0  0  0  0  0  0  0
  160.9970  211.7560  151.1910 C   0  0  0  0  0  2  0  0  0  0  0  0
  159.0050  212.0920  154.9440 C   0  0  0  0  0  2  0  0  0  0  0  0
  160.6430  204.1470  148.2010 C   0  0  2  0  0  3  0  0  0  0  0  0
  162.3940  208.1380  151.4270 C   0  0  0  0  0  2  0  0  0  0  0  0
  159.1980  213.3830  154.1560 C   0  0  0  0  0  2  0  0  0  0  0  0
  159.9720  206.2040  145.9990 C   0  0  0  0  0  2  0  0  0  0  0  0
  161.3700  205.9210  152.3090 C   0  0  1  0  0  3  0  0  0  0  0  0
  160.5730  206.6530  149.0290 C   0  0  2  0  0  3  0  0  0  0  0  0
  160.9010  212.4170  152.5580 C   0  0  0  0  0  2  0  0  0  0  0  0
  159.8210  205.3370  148.7460 C   0  0  0  0  0  2  0  0  0  0  0  0
  162.1650  205.4350  146.4970 C   0  0  2  0  0  0  0  0  0  0  0  0
  163.5270  204.7210  151.9000 O   0  0  0  0  0  0  0  0  0  0  0  0
  160.9430  205.0820  145.6910 C   0  0  1  0  0  3  0  0  0  0  0  0
  161.8820  206.7470  148.5000 O   0  0  0  0  0  0  0  0  0  0  0  0
  161.4660  209.3290  151.6860 C   0  0  2  0  0  3  0  0  0  0  0  0
  161.3940  203.3850  149.2550 C   0  0  0  0  0  0  0  0  0  0  0  0
  162.0530  210.6530  151.1680 C   0  0  1  0  0  3  0  0  0  0  0  0
  162.1160  204.1000  150.1050 C   0  0  0  0  0  3  0  0  0  0  0  0
  160.4470  207.0910  150.3700 O   0  0  0  0  0  0  0  0  0  0  0  0
  162.2150  202.6560  152.1300 C   0  0  0  0  0  3  0  0  0  0  0  0
  161.4250  201.1720  150.3340 N   0  0  0  0  0  0  0  0  0  0  0  0
  161.8570  206.7910  147.0850 C   0  0  2  0  0  3  0  0  0  0  0  0
  159.7620  208.9500  153.4750 C   0  0  2  0  0  3  0  0  0  0  0  0
  161.3720  201.9010  149.2520 C   0  0  0  0  0  0  0  0  0  0  0  0
  159.4700  209.1450  154.9530 C   0  0  0  0  0  2  0  0  0  0  0  0
  161.5710  201.5680  151.7070 C   0  0  0  0  0  3  0  0  0  0  0  0
  159.5560  213.1200  152.6950 C   0  0  2  0  0  3  0  0  0  0  0  0
  157.6010  211.1300  154.2900 S   0  0  0  0  0  0  0  0  0  0  0  0
  160.5410  206.5500  153.4020 C   0  0  0  0  0  0  0  0  0  0  0  0
  161.3950  204.1780  146.8440 C   0  0  2  0  0  3  0  0  0  0  0  0
  160.6740  206.1820  154.6000 O   0  0  0  0  0  0  0  0  0  0  0  0
  160.6650  207.3050  146.5320 O   0  0  0  0  0  0  0  0  0  0  0  0
  161.0770  199.8940  147.9240 O   0  0  0  0  0  1  0  0  0  0  0  0
  161.1630  201.2440  148.0030 N   0  0  0  0  0  2  0  0  0  0  0  0
  159.5790  207.5570  153.0790 N   0  0  0  0  0  2  0  0  0  0  0  0
  162.9490  203.6070  151.2290 C   0  0  2  0  0  3  0  0  0  0  0  0
  159.0410  214.4360  150.7260 N   0  0  0  0  0  2  0  0  0  0  0  0
  159.5240  214.3960  151.9120 C   0  0  0  0  0  3  0  0  0  0  0  0
  162.5780  210.5240  149.7370 C   0  0  0  0  0  2  0  0  0  0  0  0
  162.0190  211.5330  148.9040 O   0  0  0  0  0  0  0  0  0  0  0  0
  161.3480  211.2210  147.7240 C   0  0  0  0  0  0  0  0  0  0  0  0
  161.0000  212.2490  146.7930 N   0  0  0  0  0  2  0  0  0  0  0  0
  161.0300  210.0240  147.4950 O   0  0  0  0  0  0  0  0  0  0  0  0
  159.5240  213.9930  144.5900 N   0  0  2  0  0  0  0  0  0  0  0  0
  160.6150  214.4310  142.5440 N   0  0  0  0  0  2  0  0  0  0  0  0
  160.4460  212.8970  144.5280 C   0  0  2  0  0  0  0  0  0  0  0  0
  158.7740  212.3650  146.0950 O   0  0  0  0  0  0  0  0  0  0  0  0
  160.6540  213.0060  143.0160 C   0  0  2  0  0  0  0  0  0  0  0  0
  159.8890  211.8790  143.4650 C   0  0  0  0  0  2  0  0  0  0  0  0
  160.0800  212.0130  145.6910 C   0  0  2  0  0  3  0  0  0  0  0  0
  158.3550  213.4180  145.2490 C   0  0  1  0  0  3  0  0  0  0  0  0
  159.4450  213.9130  143.1340 C   0  0  1  0  0  3  0  0  0  0  0  0
  156.6600  213.7690  146.8090 C   0  0  0  0  0  1  0  0  0  0  0  0
  157.6910  214.4400  146.0400 N   0  0  0  0  0  2  0  0  0  0  0  0
  1  9  1  1  0  0  0
  1 12  1  0  0  0  0
  6 14  1  0  0  0  0
  8 15  1  1  0  0  0
  8 21  1  0  0  0  0
 10  7  1  0  0  0  0
 11 37  1  0  0  0  0
 12  3  1  1  0  0  0
 12 34  1  0  0  0  0
 13 15  1  1  0  0  0
 13 24  1  0  0  0  0
 14 32  1  0  0  0  0
 16  5  1  6  0  0  0
 16 35  1  0  0  0  0
 16 27  1  0  0  0  0
 17  3  1  0  0  0  0
 18 11  1  1  0  0  0
 18 16  1  0  0  0  0
 18 35  1  0  0  0  0
 19 13  1  0  0  0  0
 20  9  1  1  0  0  0
 20  2  1  0  0  0  0
 21 23  2  0  0  0  0
 22 44  1  6  0  0  0
 22  6  1  0  0  0  0
 22 20  1  0  0  0  0
 23 41  1  0  0  0  0
 24  1  1  0  0  0  0
 26 31  1  0  0  0  0
 27 37  1  1  0  0  0
 27 19  1  0  0  0  0
 28  2  1  1  0  0  0
 28 30  1  0  0  0  0
 29 21  1  0  0  0  0
 29 26  2  0  0  0  0
 30  4  1  0  0  0  0
 31 25  2  0  0  0  0
 32 43  1  6  0  0  0
 32 10  1  0  0  0  0
 33  7  1  0  0  0  0
 33  4  1  0  0  0  0
 34 36  2  0  0  0  0
 35  8  1  0  0  0  0
 38 39  1  0  0  0  0
 39 29  1  0  0  0  0
 40 34  1  0  0  0  0
 40 28  1  0  0  0  0
 41 17  1  0  0  0  0
 41 25  1  0  0  0  0
 42 43  2  0  0  0  0
 45 44  1  0  0  0  0
 46 45  1  0  0  0  0
 47 46  1  0  0  0  0
 48 46  2  0  0  0  0
 49 56  1  0  0  0  0
 50 53  1  0  0  0  0
 50 57  1  0  0  0  0
 51 49  1  0  0  0  0
 51 55  1  0  0  0  0
 53 57  1  0  0  0  0
 53 54  1  0  0  0  0
 53 51  1  0  0  0  0
 54 51  1  0  0  0  0
 55 52  1  0  0  0  0
 55 47  1  0  0  0  0
 56 59  1  0  0  0  0
 56 52  1  0  0  0  0
 57 49  1  0  0  0  0
 59 58  1  0  0  0  0
M  END
>  <MODEL>
2

>  <REMARK>
 VINA RESULT:       5.2      1.177      1.813
  Name = 
  6 active torsions:
  status: ('A' for Active; 'I' for Inactive)
    1  A    between atoms: C_13  and  O_23
    2  A    between atoms: O_23  and  C_57
    3  A    between atoms: N_27  and  C_40
    4  A    between atoms: C_33  and  C_57
    5  A    between atoms: N_37  and  C_43
    6  A    between atoms: C_46  and  C_49
                            x       y       z     vdW  Elec       q    Type
                         _______ _______ _______ _____ _____    ______ ____

>  <TORSDO>
F 6

$$$$
