=
 OpenBabel11052411213D

 41 44  0  0  1  0  0  0  0  0999 V2000
  161.1220  203.2130  148.0520 C   0  0  0  0  0  0  0  0  0  0  0  0
  160.8710  205.0200  150.6580 C   0  0  0  0  0  0  0  0  0  0  0  0
  160.9280  203.6340  151.1600 C   0  0  0  0  0  3  0  0  0  0  0  0
  161.1330  204.5350  148.1950 C   0  0  0  0  0  3  0  0  0  0  0  0
  161.0360  205.4180  149.3760 C   0  0  0  0  0  0  0  0  0  0  0  0
  161.0020  202.4710  150.5270 C   0  0  0  0  0  3  0  0  0  0  0  0
  161.0500  202.2690  149.1190 N   0  0  0  0  0  2  0  0  0  0  0  0
  162.1260  206.5450  152.3130 C   0  0  2  0  0  3  0  0  0  0  0  0
  161.2950  205.5550  153.0940 C   0  0  2  0  0  3  0  0  0  0  0  0
  160.7740  206.0640  151.7560 C   0  0  2  0  0  3  0  0  0  0  0  0
  163.2210  205.8710  151.7680 O   0  0  0  0  0  1  0  0  0  0  0  0
  160.5760  206.2800  154.2150 C   0  0  0  0  0  2  0  0  0  0  0  0
  161.2590  207.6070  154.5100 C   0  0  0  0  0  2  0  0  0  0  0  0
  159.5160  207.7110  156.1420 O   0  0  0  0  0  1  0  0  0  0  0  0
  160.7930  208.1890  155.8390 C   0  0  2  0  0  3  0  0  0  0  0  0
  160.7910  209.7160  155.8190 C   0  0  0  0  0  2  0  0  0  0  0  0
  161.5770  210.2260  154.7020 N   0  0  0  0  0  0  0  0  0  0  0  0
  162.6670  210.8280  155.2330 O   0  0  0  0  0  1  0  0  0  0  0  0
  160.7910  211.2720  154.0670 C   0  0  0  0  0  2  0  0  0  0  0  0
  159.8620  210.6780  153.0170 C   0  0  0  0  0  2  0  0  0  0  0  0
  158.7130  212.8110  153.6220 C   0  0  0  0  0  1  0  0  0  0  0  0
  158.7470  211.6460  152.6520 C   0  0  0  0  0  2  0  0  0  0  0  0
  161.2410  202.6810  146.6670 C   0  0  0  0  0  2  0  0  0  0  0  0
  161.6450  203.7920  145.7160 C   0  0  0  0  0  2  0  0  0  0  0  0
  160.6870  203.9160  144.7110 O   0  0  0  0  0  1  0  0  0  0  0  0
  161.1240  206.8000  149.1380 O   0  0  0  0  0  0  0  0  0  0  0  0
  162.2990  207.4550  148.6670 C   0  0  0  0  0  2  0  0  0  0  0  0
  162.1030  208.9670  148.6640 C   0  0  0  0  0  2  0  0  0  0  0  0
  162.1630  209.5470  150.0730 C   0  0  0  0  0  2  0  0  0  0  0  0
  161.9120  211.0460  150.0660 C   0  0  0  0  0  2  0  0  0  0  0  0
  161.9830  211.5840  148.6500 C   0  0  0  0  0  2  0  0  0  0  0  0
  161.6590  213.0630  148.6510 C   0  0  0  0  0  2  0  0  0  0  0  0
  161.1720  213.4300  147.3950 O   0  0  0  0  0  0  0  0  0  0  0  0
  159.0960  212.6500  146.7520 N   0  0  0  0  0  0  0  0  0  0  0  0
  160.0090  212.2670  145.5920 C   0  0  2  0  0  0  0  0  0  0  0  0
  156.7630  213.2620  146.4170 O   0  0  0  0  0  0  0  0  0  0  0  0
  157.7030  213.2590  148.5080 O   0  0  0  0  0  1  0  0  0  0  0  0
  160.5000  212.2830  146.9230 C   0  0  1  0  0  3  0  0  0  0  0  0
  159.8950  213.4520  144.8000 O   0  0  0  0  0  0  0  0  0  0  0  0
  157.8400  213.0660  147.2720 C   0  0  0  0  0  0  0  0  0  0  0  0
  161.1700  212.9790  144.9140 C   0  0  0  0  0  2  0  0  0  0  0  0
  1  4  2  0  0  0  0
  1  7  1  0  0  0  0
  2  3  1  0  0  0  0
  4  5  1  0  0  0  0
  5  2  2  0  0  0  0
  6  3  2  0  0  0  0
  7  6  1  0  0  0  0
  8 11  1  6  0  0  0
  8  9  1  0  0  0  0
  9 12  1  1  0  0  0
 10  2  1  6  0  0  0
 10  8  1  0  0  0  0
 10  9  1  0  0  0  0
 12 13  1  0  0  0  0
 13 15  1  0  0  0  0
 15 14  1  6  0  0  0
 16 15  1  0  0  0  0
 17 18  1  0  0  0  0
 17 16  1  0  0  0  0
 19 17  1  0  0  0  0
 20 19  1  0  0  0  0
 22 20  1  0  0  0  0
 22 21  1  0  0  0  0
 23  1  1  0  0  0  0
 24 23  1  0  0  0  0
 25 24  1  0  0  0  0
 26  5  1  0  0  0  0
 27 26  1  0  0  0  0
 28 27  1  0  0  0  0
 28 29  1  0  0  0  0
 30 29  1  0  0  0  0
 31 32  1  0  0  0  0
 31 30  1  0  0  0  0
 33 32  1  0  0  0  0
 34 38  1  0  0  0  0
 34 40  1  0  0  0  0
 35 41  1  6  0  0  0
 35 34  1  0  0  0  0
 35 38  1  0  0  0  0
 36 40  2  0  0  0  0
 38 33  1  6  0  0  0
 39 41  1  0  0  0  0
 39 35  1  0  0  0  0
 40 37  1  0  0  0  0
M  END
>  <MODEL>
1

>  <REMARK>
 VINA RESULT:      -6.8      0.000      0.000
  Name = 
  20 active torsions:
  status: ('A' for Active; 'I' for Inactive)
    1  A    between atoms: C_1  and  C_22
    2  A    between atoms: C_1  and  O_28
    3  A    between atoms: C_4  and  C_12
    4  A    between atoms: C_4  and  C_22
    5  A    between atoms: C_5  and  C_12
    6  A    between atoms: C_5  and  C_25
    7  A    between atoms: C_6  and  C_30
    8  A    between atoms: C_7  and  C_14
    9  A    between atoms: C_7  and  C_40
   10  A    between atoms: C_9  and  C_30
   11  A    between atoms: C_10  and  C_18
   12  A    between atoms: C_11  and  N_34
   13  A    between atoms: C_11  and  C_40
   14  A    between atoms: C_14  and  C_17
   15  A    between atoms: O_16  and  C_25
   16  A    between atoms: O_16  and  C_27
   17  A    between atoms: C_20  and  O_28
   18  A    between atoms: C_26  and  C_35
   19  A    between atoms: C_26  and  C_39
   20  A    between atoms: N_34  and  C_39
                            x       y       z     vdW  Elec       q    Type
                         _______ _______ _______ _____ _____    ______ ____

>  <TORSDO>
F 20

$$$$
=
 OpenBabel11052411213D

 41 44  0  0  1  0  0  0  0  0999 V2000
  161.3840  206.3240  152.8770 C   0  0  0  0  0  0  0  0  0  0  0  0
  160.4330  209.1490  153.9880 C   0  0  0  0  0  0  0  0  0  0  0  0
  160.3150  208.2300  155.1350 C   0  0  0  0  0  3  0  0  0  0  0  0
  161.3790  207.5250  152.3050 C   0  0  0  0  0  3  0  0  0  0  0  0
  160.9660  208.8620  152.7790 C   0  0  0  0  0  0  0  0  0  0  0  0
  160.5440  206.9290  155.2480 C   0  0  0  0  0  3  0  0  0  0  0  0
  160.9900  206.0510  154.2200 N   0  0  0  0  0  2  0  0  0  0  0  0
  161.1090  211.3800  155.0850 C   0  0  2  0  0  3  0  0  0  0  0  0
  159.9040  210.8260  155.8080 C   0  0  2  0  0  3  0  0  0  0  0  0
  160.0460  210.5820  154.3100 C   0  0  2  0  0  3  0  0  0  0  0  0
  162.2260  210.6190  155.4380 O   0  0  0  0  0  1  0  0  0  0  0  0
  158.9020  211.9400  156.0360 C   0  0  0  0  0  2  0  0  0  0  0  0
  159.1110  213.0540  155.0210 C   0  0  0  0  0  2  0  0  0  0  0  0
  157.0350  212.3240  154.0850 O   0  0  0  0  0  1  0  0  0  0  0  0
  157.7970  213.4620  154.3650 C   0  0  2  0  0  3  0  0  0  0  0  0
  158.0270  214.2670  153.0880 C   0  0  0  0  0  2  0  0  0  0  0  0
  157.9750  213.4080  151.9110 N   0  0  0  0  0  0  0  0  0  0  0  0
  159.2500  213.0450  151.6350 O   0  0  0  0  0  1  0  0  0  0  0  0
  157.5270  214.2310  150.7990 C   0  0  0  0  0  2  0  0  0  0  0  0
  157.0080  213.3570  149.6650 C   0  0  0  0  0  2  0  0  0  0  0  0
  157.3350  212.6220  147.3000 C   0  0  0  0  0  1  0  0  0  0  0  0
  157.8710  213.4930  148.4200 C   0  0  0  0  0  2  0  0  0  0  0  0
  161.8830  205.1860  152.0590 C   0  0  0  0  0  2  0  0  0  0  0  0
  160.7990  204.1340  151.9140 C   0  0  0  0  0  2  0  0  0  0  0  0
  161.3790  202.8670  151.8920 O   0  0  0  0  0  1  0  0  0  0  0  0
  161.1460  209.9300  151.8850 O   0  0  0  0  0  0  0  0  0  0  0  0
  162.2660  210.0600  151.0120 C   0  0  0  0  0  2  0  0  0  0  0  0
  161.8220  210.5670  149.6450 C   0  0  0  0  0  2  0  0  0  0  0  0
  162.1630  209.5750  148.5370 C   0  0  0  0  0  2  0  0  0  0  0  0
  162.3280  208.1670  149.0860 C   0  0  0  0  0  2  0  0  0  0  0  0
  162.1220  207.1460  147.9840 C   0  0  0  0  0  2  0  0  0  0  0  0
  160.7220  206.5760  148.0740 C   0  0  0  0  0  2  0  0  0  0  0  0
  160.5480  205.6170  147.0750 O   0  0  0  0  0  0  0  0  0  0  0  0
  161.5110  203.5200  146.9880 N   0  0  0  0  0  0  0  0  0  0  0  0
  162.1310  204.2590  145.8080 C   0  0  2  0  0  0  0  0  0  0  0  0
  161.0550  201.1280  146.9250 O   0  0  0  0  0  0  0  0  0  0  0  0
  160.5430  202.3870  148.7720 O   0  0  0  0  0  1  0  0  0  0  0  0
  161.7910  204.9530  146.9980 C   0  0  1  0  0  3  0  0  0  0  0  0
  161.1680  203.9430  144.7990 O   0  0  0  0  0  0  0  0  0  0  0  0
  161.0170  202.3380  147.6070 C   0  0  0  0  0  0  0  0  0  0  0  0
  161.5680  205.2480  144.7990 C   0  0  0  0  0  2  0  0  0  0  0  0
  1  7  1  0  0  0  0
  2  3  1  0  0  0  0
  3  6  2  0  0  0  0
  4  5  1  0  0  0  0
  4  1  2  0  0  0  0
  5  2  2  0  0  0  0
  7  6  1  0  0  0  0
  8 11  1  1  0  0  0
  8  9  1  0  0  0  0
  9 12  1  6  0  0  0
 10  2  1  1  0  0  0
 10  8  1  0  0  0  0
 10  9  1  0  0  0  0
 13 12  1  0  0  0  0
 15 14  1  6  0  0  0
 15 13  1  0  0  0  0
 16 15  1  0  0  0  0
 17 16  1  0  0  0  0
 18 17  1  0  0  0  0
 19 17  1  0  0  0  0
 20 19  1  0  0  0  0
 21 22  1  0  0  0  0
 22 20  1  0  0  0  0
 23  1  1  0  0  0  0
 24 23  1  0  0  0  0
 25 24  1  0  0  0  0
 26  5  1  0  0  0  0
 27 26  1  0  0  0  0
 28 27  1  0  0  0  0
 29 30  1  0  0  0  0
 29 28  1  0  0  0  0
 31 32  1  0  0  0  0
 31 30  1  0  0  0  0
 33 32  1  0  0  0  0
 34 38  1  0  0  0  0
 34 40  1  0  0  0  0
 35 41  1  6  0  0  0
 35 34  1  0  0  0  0
 35 38  1  0  0  0  0
 36 40  2  0  0  0  0
 38 33  1  6  0  0  0
 39 35  1  0  0  0  0
 40 37  1  0  0  0  0
 41 39  1  0  0  0  0
M  END
>  <MODEL>
2

>  <REMARK>
 VINA RESULT:      -6.2      2.664      6.636
  Name = 
  20 active torsions:
  status: ('A' for Active; 'I' for Inactive)
    1  A    between atoms: C_1  and  C_22
    2  A    between atoms: C_1  and  O_28
    3  A    between atoms: C_4  and  C_12
    4  A    between atoms: C_4  and  C_22
    5  A    between atoms: C_5  and  C_12
    6  A    between atoms: C_5  and  C_25
    7  A    between atoms: C_6  and  C_30
    8  A    between atoms: C_7  and  C_14
    9  A    between atoms: C_7  and  C_40
   10  A    between atoms: C_9  and  C_30
   11  A    between atoms: C_10  and  C_18
   12  A    between atoms: C_11  and  N_34
   13  A    between atoms: C_11  and  C_40
   14  A    between atoms: C_14  and  C_17
   15  A    between atoms: O_16  and  C_25
   16  A    between atoms: O_16  and  C_27
   17  A    between atoms: C_20  and  O_28
   18  A    between atoms: C_26  and  C_35
   19  A    between atoms: C_26  and  C_39
   20  A    between atoms: N_34  and  C_39
                            x       y       z     vdW  Elec       q    Type
                         _______ _______ _______ _____ _____    ______ ____

>  <TORSDO>
F 20

$$$$
=
 OpenBabel11052411213D

 41 44  0  0  1  0  0  0  0  0999 V2000
  161.3900  209.7190  154.8640 C   0  0  0  0  0  0  0  0  0  0  0  0
  160.9120  207.1000  153.1230 C   0  0  0  0  0  0  0  0  0  0  0  0
  160.6080  206.6970  154.5080 C   0  0  0  0  0  3  0  0  0  0  0  0
  161.4210  209.5350  153.5470 C   0  0  0  0  0  3  0  0  0  0  0  0
  161.1920  208.3510  152.6930 C   0  0  0  0  0  0  0  0  0  0  0  0
  160.6640  207.3650  155.6530 C   0  0  0  0  0  3  0  0  0  0  0  0
  161.0560  208.7230  155.8270 N   0  0  0  0  0  2  0  0  0  0  0  0
  162.0150  205.2790  151.6710 C   0  0  2  0  0  3  0  0  0  0  0  0
  161.3720  206.3040  150.7660 C   0  0  2  0  0  3  0  0  0  0  0  0
  160.7200  205.9880  152.1070 C   0  0  2  0  0  3  0  0  0  0  0  0
  163.1680  205.8400  152.2270 O   0  0  0  0  0  1  0  0  0  0  0  0
  160.6130  205.5910  149.6650 C   0  0  0  0  0  2  0  0  0  0  0  0
  160.5470  206.4620  148.4190 C   0  0  0  0  0  2  0  0  0  0  0  0
  162.6970  206.8420  147.4450 O   0  0  0  0  0  1  0  0  0  0  0  0
  161.5690  206.0200  147.3780 C   0  0  2  0  0  3  0  0  0  0  0  0
  160.9870  206.0430  145.9670 C   0  0  0  0  0  2  0  0  0  0  0  0
  161.5460  204.9720  145.1520 N   0  0  0  0  0  0  0  0  0  0  0  0
  160.5870  204.6090  144.2680 O   0  0  0  0  0  1  0  0  0  0  0  0
  161.7570  203.8310  146.0290 C   0  0  0  0  0  2  0  0  0  0  0  0
  160.8900  202.6570  145.5940 C   0  0  0  0  0  2  0  0  0  0  0  0
  160.8850  202.1600  148.0410 C   0  0  0  0  0  1  0  0  0  0  0  0
  160.8710  201.5600  146.6480 C   0  0  0  0  0  2  0  0  0  0  0  0
  161.6860  211.0890  155.3630 C   0  0  0  0  0  2  0  0  0  0  0  0
  160.4050  211.8980  155.4560 C   0  0  0  0  0  2  0  0  0  0  0  0
  159.7110  211.5390  156.6100 O   0  0  0  0  0  1  0  0  0  0  0  0
  161.2760  208.5510  151.3050 O   0  0  0  0  0  0  0  0  0  0  0  0
  161.9450  209.6530  150.6960 C   0  0  0  0  0  2  0  0  0  0  0  0
  161.8800  209.5450  149.1780 C   0  0  0  0  0  2  0  0  0  0  0  0
  162.2400  210.8640  148.5020 C   0  0  0  0  0  2  0  0  0  0  0  0
  161.5740  212.0420  149.1970 C   0  0  0  0  0  2  0  0  0  0  0  0
  161.4420  213.2100  148.2400 C   0  0  0  0  0  2  0  0  0  0  0  0
  161.9320  212.8020  146.8670 C   0  0  0  0  0  2  0  0  0  0  0  0
  161.0630  213.3040  145.8970 O   0  0  0  0  0  0  0  0  0  0  0  0
  158.8910  212.5480  145.6940 N   0  0  0  0  0  0  0  0  0  0  0  0
  159.5020  212.2850  144.3220 C   0  0  2  0  0  0  0  0  0  0  0  0
  156.5470  213.1470  145.9760 O   0  0  0  0  0  0  0  0  0  0  0  0
  157.9550  212.9760  147.7780 O   0  0  0  0  0  1  0  0  0  0  0  0
  160.2930  212.1920  145.4960 C   0  0  1  0  0  3  0  0  0  0  0  0
  159.2080  213.5330  143.6900 O   0  0  0  0  0  0  0  0  0  0  0  0
  157.7950  212.8950  146.5320 C   0  0  0  0  0  0  0  0  0  0  0  0
  160.4710  213.0740  143.4560 C   0  0  0  0  0  2  0  0  0  0  0  0
  1 23  1  0  0  0  0
  1  7  1  0  0  0  0
  2  3  1  0  0  0  0
  3  6  2  0  0  0  0
  4  1  2  0  0  0  0
  5  2  2  0  0  0  0
  5  4  1  0  0  0  0
  6  7  1  0  0  0  0
  8 10  1  0  0  0  0
  8 11  1  1  0  0  0
  9 12  1  6  0  0  0
  9  8  1  0  0  0  0
  9 10  1  0  0  0  0
 10  2  1  1  0  0  0
 13 12  1  0  0  0  0
 15 14  1  6  0  0  0
 15 13  1  0  0  0  0
 16 15  1  0  0  0  0
 17 16  1  0  0  0  0
 17 19  1  0  0  0  0
 18 17  1  0  0  0  0
 20 19  1  0  0  0  0
 20 22  1  0  0  0  0
 22 21  1  0  0  0  0
 23 24  1  0  0  0  0
 24 25  1  0  0  0  0
 26  5  1  0  0  0  0
 27 26  1  0  0  0  0
 28 27  1  0  0  0  0
 29 28  1  0  0  0  0
 29 30  1  0  0  0  0
 31 30  1  0  0  0  0
 32 31  1  0  0  0  0
 33 32  1  0  0  0  0
 34 40  1  0  0  0  0
 35 41  1  6  0  0  0
 35 38  1  0  0  0  0
 35 34  1  0  0  0  0
 36 40  2  0  0  0  0
 38 34  1  0  0  0  0
 38 33  1  6  0  0  0
 39 35  1  0  0  0  0
 40 37  1  0  0  0  0
 41 39  1  0  0  0  0
M  END
>  <MODEL>
3

>  <REMARK>
 VINA RESULT:      -5.8      1.760      7.054
  Name = 
  20 active torsions:
  status: ('A' for Active; 'I' for Inactive)
    1  A    between atoms: C_1  and  C_22
    2  A    between atoms: C_1  and  O_28
    3  A    between atoms: C_4  and  C_12
    4  A    between atoms: C_4  and  C_22
    5  A    between atoms: C_5  and  C_12
    6  A    between atoms: C_5  and  C_25
    7  A    between atoms: C_6  and  C_30
    8  A    between atoms: C_7  and  C_14
    9  A    between atoms: C_7  and  C_40
   10  A    between atoms: C_9  and  C_30
   11  A    between atoms: C_10  and  C_18
   12  A    between atoms: C_11  and  N_34
   13  A    between atoms: C_11  and  C_40
   14  A    between atoms: C_14  and  C_17
   15  A    between atoms: O_16  and  C_25
   16  A    between atoms: O_16  and  C_27
   17  A    between atoms: C_20  and  O_28
   18  A    between atoms: C_26  and  C_35
   19  A    between atoms: C_26  and  C_39
   20  A    between atoms: N_34  and  C_39
                            x       y       z     vdW  Elec       q    Type
                         _______ _______ _______ _____ _____    ______ ____

>  <TORSDO>
F 20

$$$$
=
 OpenBabel11052411213D

 41 44  0  0  1  0  0  0  0  0999 V2000
  161.5680  205.6170  152.3230 C   0  0  0  0  0  0  0  0  0  0  0  0
  160.8010  208.6320  152.9910 C   0  0  0  0  0  0  0  0  0  0  0  0
  160.7500  207.9300  154.2870 C   0  0  0  0  0  3  0  0  0  0  0  0
  161.5540  206.7000  151.5520 C   0  0  0  0  0  3  0  0  0  0  0  0
  161.2240  208.1170  151.8150 C   0  0  0  0  0  0  0  0  0  0  0  0
  160.9460  206.6580  154.6080 C   0  0  0  0  0  3  0  0  0  0  0  0
  161.2780  205.5970  153.7200 N   0  0  0  0  0  2  0  0  0  0  0  0
  161.3110  210.8840  154.1340 C   0  0  2  0  0  3  0  0  0  0  0  0
  159.8810  210.4990  154.4290 C   0  0  2  0  0  3  0  0  0  0  0  0
  160.4880  210.1140  153.0860 C   0  0  2  0  0  3  0  0  0  0  0  0
  162.1560  210.0650  154.8870 O   0  0  0  0  0  1  0  0  0  0  0  0
  158.9880  211.7100  154.2420 C   0  0  0  0  0  2  0  0  0  0  0  0
  158.6070  211.8640  152.7770 C   0  0  0  0  0  2  0  0  0  0  0  0
  158.2380  214.1470  153.3850 O   0  0  0  0  0  1  0  0  0  0  0  0
  158.6640  213.3230  152.3390 C   0  0  2  0  0  3  0  0  0  0  0  0
  157.8170  213.5740  151.0940 C   0  0  0  0  0  2  0  0  0  0  0  0
  158.5870  214.2640  150.0670 N   0  0  0  0  0  0  0  0  0  0  0  0
  158.1870  213.7640  148.8740 O   0  0  0  0  0  1  0  0  0  0  0  0
  159.9770  213.8730  150.2380 C   0  0  0  0  0  2  0  0  0  0  0  0
  160.7230  213.9630  148.9130 C   0  0  0  0  0  2  0  0  0  0  0  0
  160.8570  212.0390  147.3260 C   0  0  0  0  0  1  0  0  0  0  0  0
  161.4330  212.6580  148.5860 C   0  0  0  0  0  2  0  0  0  0  0  0
  161.9620  204.3340  151.6820 C   0  0  0  0  0  2  0  0  0  0  0  0
  161.0030  203.2320  152.0910 C   0  0  0  0  0  2  0  0  0  0  0  0
  159.8550  203.2970  151.3020 O   0  0  0  0  0  1  0  0  0  0  0  0
  161.3630  209.0060  150.7360 O   0  0  0  0  0  0  0  0  0  0  0  0
  162.4030  208.9240  149.7640 C   0  0  0  0  0  2  0  0  0  0  0  0
  161.8460  208.4640  148.4220 C   0  0  0  0  0  2  0  0  0  0  0  0
  162.1870  207.0050  148.1390 C   0  0  0  0  0  2  0  0  0  0  0  0
  161.6220  206.5540  146.8010 C   0  0  0  0  0  2  0  0  0  0  0  0
  161.4580  205.0460  146.7820 C   0  0  0  0  0  2  0  0  0  0  0  0
  161.3950  204.5240  148.2020 C   0  0  0  0  0  2  0  0  0  0  0  0
  161.6960  203.1600  148.2060 O   0  0  0  0  0  0  0  0  0  0  0  0
  160.3990  201.7490  146.9190 N   0  0  0  0  0  0  0  0  0  0  0  0
  160.3820  201.1060  148.3020 C   0  0  2  0  0  0  0  0  0  0  0  0
  160.3320  200.4280  144.8750 O   0  0  0  0  0  1  0  0  0  0  0  0
  160.4480  202.7170  144.8070 O   0  0  0  0  0  0  0  0  0  0  0  0
  160.4420  202.5170  148.1610 C   0  0  1  0  0  3  0  0  0  0  0  0
  161.5380  200.2730  148.1880 O   0  0  0  0  0  0  0  0  0  0  0  0
  160.3940  201.6670  145.4990 C   0  0  0  0  0  0  0  0  0  0  0  0
  161.4470  200.9400  149.3750 C   0  0  0  0  0  2  0  0  0  0  0  0
  1  7  1  0  0  0  0
  2  3  1  0  0  0  0
  3  6  2  0  0  0  0
  4  5  1  0  0  0  0
  4  1  2  0  0  0  0
  5  2  2  0  0  0  0
  7  6  1  0  0  0  0
  8  9  1  0  0  0  0
  8 11  1  1  0  0  0
  9 12  1  6  0  0  0
 10  2  1  1  0  0  0
 10  8  1  0  0  0  0
 10  9  1  0  0  0  0
 13 12  1  0  0  0  0
 15 13  1  0  0  0  0
 15 14  1  1  0  0  0
 16 15  1  0  0  0  0
 17 19  1  0  0  0  0
 17 16  1  0  0  0  0
 18 17  1  0  0  0  0
 20 19  1  0  0  0  0
 21 22  1  0  0  0  0
 22 20  1  0  0  0  0
 23 24  1  0  0  0  0
 23  1  1  0  0  0  0
 25 24  1  0  0  0  0
 26  5  1  0  0  0  0
 27 26  1  0  0  0  0
 28 27  1  0  0  0  0
 29 28  1  0  0  0  0
 30 29  1  0  0  0  0
 31 30  1  0  0  0  0
 31 32  1  0  0  0  0
 32 33  1  0  0  0  0
 34 38  1  0  0  0  0
 34 35  1  0  0  0  0
 35 41  1  1  0  0  0
 36 40  1  0  0  0  0
 37 40  2  0  0  0  0
 38 33  1  6  0  0  0
 38 35  1  0  0  0  0
 39 35  1  0  0  0  0
 39 41  1  0  0  0  0
 40 34  1  0  0  0  0
M  END
>  <MODEL>
4

>  <REMARK>
 VINA RESULT:      -5.8      2.227      7.404
  Name = 
  20 active torsions:
  status: ('A' for Active; 'I' for Inactive)
    1  A    between atoms: C_1  and  C_22
    2  A    between atoms: C_1  and  O_28
    3  A    between atoms: C_4  and  C_12
    4  A    between atoms: C_4  and  C_22
    5  A    between atoms: C_5  and  C_12
    6  A    between atoms: C_5  and  C_25
    7  A    between atoms: C_6  and  C_30
    8  A    between atoms: C_7  and  C_14
    9  A    between atoms: C_7  and  C_40
   10  A    between atoms: C_9  and  C_30
   11  A    between atoms: C_10  and  C_18
   12  A    between atoms: C_11  and  N_34
   13  A    between atoms: C_11  and  C_40
   14  A    between atoms: C_14  and  C_17
   15  A    between atoms: O_16  and  C_25
   16  A    between atoms: O_16  and  C_27
   17  A    between atoms: C_20  and  O_28
   18  A    between atoms: C_26  and  C_35
   19  A    between atoms: C_26  and  C_39
   20  A    between atoms: N_34  and  C_39
                            x       y       z     vdW  Elec       q    Type
                         _______ _______ _______ _____ _____    ______ ____

>  <TORSDO>
F 20

$$$$
=
 OpenBabel11052411213D

 41 44  0  0  1  0  0  0  0  0999 V2000
  160.8750  202.3640  148.5720 C   0  0  0  0  0  0  0  0  0  0  0  0
  161.6320  204.2770  146.1440 C   0  0  0  0  0  0  0  0  0  0  0  0
  161.1840  203.0210  145.5140 C   0  0  0  0  0  3  0  0  0  0  0  0
  161.2410  203.6430  148.5550 C   0  0  0  0  0  2  0  0  0  0  0  0
  161.5860  204.5750  147.4620 C   0  0  0  0  0  0  0  0  0  0  0  0
  160.7830  201.8690  146.0340 C   0  0  0  0  0  3  0  0  0  0  0  0
  160.6770  201.5500  147.4180 N   0  0  0  0  0  0  0  0  0  0  0  0
  160.8660  206.2580  144.6860 C   0  0  2  0  0  3  0  0  0  0  0  0
  161.3710  205.1550  143.7860 C   0  0  2  0  0  3  0  0  0  0  0  0
  162.0220  205.3550  145.1490 C   0  0  2  0  0  3  0  0  0  0  0  0
  159.6240  205.8760  145.2000 O   0  0  0  0  0  1  0  0  0  0  0  0
  162.2650  205.7530  142.7170 C   0  0  0  0  0  2  0  0  0  0  0  0
  161.4770  206.7270  141.8540 C   0  0  0  0  0  2  0  0  0  0  0  0
  163.3190  206.3830  140.3690 O   0  0  0  0  0  1  0  0  0  0  0  0
  161.9600  206.7040  140.4080 C   0  0  2  0  0  3  0  0  0  0  0  0
  161.7160  208.0390  139.7080 C   0  0  0  0  0  2  0  0  0  0  0  0
  161.0610  207.8430  138.4210 N   0  0  0  0  0  0  0  0  0  0  0  0
  162.0400  207.6130  137.5140 O   0  0  0  0  0  1  0  0  0  0  0  0
  160.4450  209.1090  138.0550 C   0  0  0  0  0  2  0  0  0  0  0  0
  160.3590  210.0290  139.2650 C   0  0  0  0  0  2  0  0  0  0  0  0
  157.8880  209.8810  138.9300 C   0  0  0  0  0  1  0  0  0  0  0  0
  159.0450  210.7960  139.2870 C   0  0  0  0  0  2  0  0  0  0  0  0
  160.6100  201.7530  149.9010 C   0  0  0  0  0  2  0  0  0  0  0  0
  160.7630  202.7950  150.9940 C   0  0  0  0  0  2  0  0  0  0  0  0
  161.9100  202.5240  151.7380 O   0  0  0  0  0  1  0  0  0  0  0  0
  161.8940  205.8950  147.8340 O   0  0  0  0  0  0  0  0  0  0  0  0
  160.9210  206.8650  148.2140 C   0  0  0  0  0  2  0  0  0  0  0  0
  160.8500  206.9850  149.7320 C   0  0  0  0  0  2  0  0  0  0  0  0
  162.2240  207.2440  150.3420 C   0  0  0  0  0  2  0  0  0  0  0  0
  162.4390  206.4100  151.5950 C   0  0  0  0  0  2  0  0  0  0  0  0
  161.1170  206.1560  152.2920 C   0  0  0  0  0  2  0  0  0  0  0  0
  161.2850  206.3380  153.7850 C   0  0  0  0  0  2  0  0  0  0  0  0
  160.4930  207.4040  154.2130 O   0  0  0  0  0  0  0  0  0  0  0  0
  161.0340  209.6480  154.1500 N   0  0  0  0  0  0  0  0  0  0  0  0
  160.9600  209.3290  155.6390 C   0  0  2  0  0  0  0  0  0  0  0  0
  160.3900  211.8200  153.2560 O   0  0  0  0  0  1  0  0  0  0  0  0
  161.1190  210.1370  151.8800 O   0  0  0  0  0  0  0  0  0  0  0  0
  161.4090  208.3530  154.7120 C   0  0  1  0  0  3  0  0  0  0  0  0
  159.5730  209.5910  155.8680 O   0  0  0  0  0  0  0  0  0  0  0  0
  160.8560  210.5280  153.0470 C   0  0  0  0  0  0  0  0  0  0  0  0
  160.0290  208.4500  156.4610 C   0  0  0  0  0  2  0  0  0  0  0  0
  1 23  1  0  0  0  0
  2  5  2  0  0  0  0
  3  6  2  0  0  0  0
  3  2  1  0  0  0  0
  4  1  1  0  0  0  0
  5 26  1  0  0  0  0
  5  4  1  0  0  0  0
  6  7  1  0  0  0  0
  7  1  2  0  0  0  0
  8 10  1  0  0  0  0
  8 11  1  1  0  0  0
  9 12  1  6  0  0  0
  9  8  1  0  0  0  0
  9 10  1  0  0  0  0
 10  2  1  1  0  0  0
 13 12  1  0  0  0  0
 15 14  1  1  0  0  0
 15 13  1  0  0  0  0
 16 15  1  0  0  0  0
 17 16  1  0  0  0  0
 18 17  1  0  0  0  0
 19 17  1  0  0  0  0
 19 20  1  0  0  0  0
 20 22  1  0  0  0  0
 21 22  1  0  0  0  0
 23 24  1  0  0  0  0
 24 25  1  0  0  0  0
 26 27  1  0  0  0  0
 27 28  1  0  0  0  0
 28 29  1  0  0  0  0
 29 30  1  0  0  0  0
 30 31  1  0  0  0  0
 31 32  1  0  0  0  0
 32 33  1  0  0  0  0
 34 38  1  0  0  0  0
 34 35  1  0  0  0  0
 35 39  1  0  0  0  0
 35 41  1  1  0  0  0
 37 40  2  0  0  0  0
 38 33  1  6  0  0  0
 38 35  1  0  0  0  0
 39 41  1  0  0  0  0
 40 36  1  0  0  0  0
 40 34  1  0  0  0  0
M  END
>  <MODEL>
5

>  <REMARK>
 VINA RESULT:      -5.6      3.868      9.723
  Name = 
  20 active torsions:
  status: ('A' for Active; 'I' for Inactive)
    1  A    between atoms: C_1  and  C_22
    2  A    between atoms: C_1  and  O_28
    3  A    between atoms: C_4  and  C_12
    4  A    between atoms: C_4  and  C_22
    5  A    between atoms: C_5  and  C_12
    6  A    between atoms: C_5  and  C_25
    7  A    between atoms: C_6  and  C_30
    8  A    between atoms: C_7  and  C_14
    9  A    between atoms: C_7  and  C_40
   10  A    between atoms: C_9  and  C_30
   11  A    between atoms: C_10  and  C_18
   12  A    between atoms: C_11  and  N_34
   13  A    between atoms: C_11  and  C_40
   14  A    between atoms: C_14  and  C_17
   15  A    between atoms: O_16  and  C_25
   16  A    between atoms: O_16  and  C_27
   17  A    between atoms: C_20  and  O_28
   18  A    between atoms: C_26  and  C_35
   19  A    between atoms: C_26  and  C_39
   20  A    between atoms: N_34  and  C_39
                            x       y       z     vdW  Elec       q    Type
                         _______ _______ _______ _____ _____    ______ ____

>  <TORSDO>
F 20

$$$$
=
 OpenBabel11052411213D

 41 44  0  0  1  0  0  0  0  0999 V2000
  158.1850  213.3980  147.4170 C   0  0  0  0  0  0  0  0  0  0  0  0
  159.0040  213.5410  150.4880 C   0  0  0  0  0  0  0  0  0  0  0  0
  157.5290  213.5530  150.4870 C   0  0  0  0  0  3  0  0  0  0  0  0
  159.3760  213.3190  148.0020 C   0  0  0  0  0  3  0  0  0  0  0  0
  159.8070  213.3630  149.4150 C   0  0  0  0  0  0  0  0  0  0  0  0
  156.6500  213.5420  149.4950 C   0  0  0  0  0  3  0  0  0  0  0  0
  156.9380  213.5120  148.1010 N   0  0  0  0  0  2  0  0  0  0  0  0
  160.0020  212.2030  152.4510 C   0  0  2  0  0  3  0  0  0  0  0  0
  158.7400  212.8890  152.9180 C   0  0  2  0  0  3  0  0  0  0  0  0
  159.6150  213.5770  151.8780 C   0  0  2  0  0  3  0  0  0  0  0  0
  159.6450  211.1360  151.6220 O   0  0  0  0  0  1  0  0  0  0  0  0
  158.9880  213.5230  154.2730 C   0  0  0  0  0  2  0  0  0  0  0  0
  159.9130  212.6470  155.1040 C   0  0  0  0  0  2  0  0  0  0  0  0
  158.1770  211.7530  156.4830 O   0  0  0  0  0  1  0  0  0  0  0  0
  159.1980  211.3950  155.5990 C   0  0  2  0  0  3  0  0  0  0  0  0
  160.1610  210.4220  156.2750 C   0  0  0  0  0  2  0  0  0  0  0  0
  159.9100  209.0520  155.8420 N   0  0  0  0  0  0  0  0  0  0  0  0
  160.0180  208.2680  156.9400 O   0  0  0  0  0  1  0  0  0  0  0  0
  160.9990  208.6760  154.9550 C   0  0  0  0  0  2  0  0  0  0  0  0
  160.7410  207.3060  154.3440 C   0  0  0  0  0  2  0  0  0  0  0  0
  161.2800  205.7690  152.4500 C   0  0  0  0  0  1  0  0  0  0  0  0
  161.3320  207.2010  152.9460 C   0  0  0  0  0  2  0  0  0  0  0  0
  158.1520  213.3160  145.9320 C   0  0  0  0  0  2  0  0  0  0  0  0
  159.3320  212.5040  145.4300 C   0  0  0  0  0  2  0  0  0  0  0  0
  159.8290  213.0780  144.2620 O   0  0  0  0  0  1  0  0  0  0  0  0
  161.1820  213.2060  149.6590 O   0  0  0  0  0  0  0  0  0  0  0  0
  162.0450  212.3950  148.8660 C   0  0  0  0  0  2  0  0  0  0  0  0
  162.3050  211.0600  149.5540 C   0  0  0  0  0  2  0  0  0  0  0  0
  161.9000  209.8820  148.6740 C   0  0  0  0  0  2  0  0  0  0  0  0
  161.8970  208.5800  149.4580 C   0  0  0  0  0  2  0  0  0  0  0  0
  161.2640  207.4730  148.6370 C   0  0  0  0  0  2  0  0  0  0  0  0
  162.3400  206.7200  147.8840 C   0  0  0  0  0  2  0  0  0  0  0  0
  161.8510  206.3440  146.6320 O   0  0  0  0  0  0  0  0  0  0  0  0
  161.8750  204.0410  146.7910 N   0  0  0  0  0  0  0  0  0  0  0  0
  162.0900  204.3090  145.3060 C   0  0  2  0  0  0  0  0  0  0  0  0
  160.6490  202.0940  147.5920 O   0  0  0  0  0  0  0  0  0  0  0  0
  161.5190  203.6340  149.0510 O   0  0  0  0  0  1  0  0  0  0  0  0
  162.6020  205.2020  146.2840 C   0  0  1  0  0  3  0  0  0  0  0  0
  160.7280  204.3420  144.8720 O   0  0  0  0  0  0  0  0  0  0  0  0
  161.3500  203.2630  147.8610 C   0  0  0  0  0  0  0  0  0  0  0  0
  161.5040  205.3340  144.3470 C   0  0  0  0  0  2  0  0  0  0  0  0
  1  4  2  0  0  0  0
  1  7  1  0  0  0  0
  3  2  1  0  0  0  0
  4  5  1  0  0  0  0
  5 26  1  0  0  0  0
  5  2  2  0  0  0  0
  6  3  2  0  0  0  0
  7  6  1  0  0  0  0
  8 11  1  6  0  0  0
  8  9  1  0  0  0  0
  9 12  1  1  0  0  0
 10  2  1  6  0  0  0
 10  8  1  0  0  0  0
 10  9  1  0  0  0  0
 12 13  1  0  0  0  0
 13 15  1  0  0  0  0
 15 16  1  0  0  0  0
 15 14  1  1  0  0  0
 17 16  1  0  0  0  0
 17 18  1  0  0  0  0
 19 17  1  0  0  0  0
 20 19  1  0  0  0  0
 21 22  1  0  0  0  0
 22 20  1  0  0  0  0
 23  1  1  0  0  0  0
 24 23  1  0  0  0  0
 25 24  1  0  0  0  0
 27 28  1  0  0  0  0
 27 26  1  0  0  0  0
 29 30  1  0  0  0  0
 29 28  1  0  0  0  0
 31 30  1  0  0  0  0
 32 31  1  0  0  0  0
 33 32  1  0  0  0  0
 34 40  1  0  0  0  0
 35 41  1  6  0  0  0
 35 38  1  0  0  0  0
 35 34  1  0  0  0  0
 36 40  2  0  0  0  0
 38 33  1  6  0  0  0
 38 34  1  0  0  0  0
 39 35  1  0  0  0  0
 40 37  1  0  0  0  0
 41 39  1  0  0  0  0
M  END
>  <MODEL>
6

>  <REMARK>
 VINA RESULT:      -5.3      1.992      7.574
  Name = 
  20 active torsions:
  status: ('A' for Active; 'I' for Inactive)
    1  A    between atoms: C_1  and  C_22
    2  A    between atoms: C_1  and  O_28
    3  A    between atoms: C_4  and  C_12
    4  A    between atoms: C_4  and  C_22
    5  A    between atoms: C_5  and  C_12
    6  A    between atoms: C_5  and  C_25
    7  A    between atoms: C_6  and  C_30
    8  A    between atoms: C_7  and  C_14
    9  A    between atoms: C_7  and  C_40
   10  A    between atoms: C_9  and  C_30
   11  A    between atoms: C_10  and  C_18
   12  A    between atoms: C_11  and  N_34
   13  A    between atoms: C_11  and  C_40
   14  A    between atoms: C_14  and  C_17
   15  A    between atoms: O_16  and  C_25
   16  A    between atoms: O_16  and  C_27
   17  A    between atoms: C_20  and  O_28
   18  A    between atoms: C_26  and  C_35
   19  A    between atoms: C_26  and  C_39
   20  A    between atoms: N_34  and  C_39
                            x       y       z     vdW  Elec       q    Type
                         _______ _______ _______ _____ _____    ______ ____

>  <TORSDO>
F 20

$$$$
=
 OpenBabel11052411213D

 41 44  0  0  1  0  0  0  0  0999 V2000
  160.8820  202.4020  148.6210 C   0  0  0  0  0  0  0  0  0  0  0  0
  161.6180  204.3310  146.2000 C   0  0  0  0  0  0  0  0  0  0  0  0
  161.2100  203.0640  145.5660 C   0  0  0  0  0  3  0  0  0  0  0  0
  161.2160  203.6890  148.6070 C   0  0  0  0  0  2  0  0  0  0  0  0
  161.5490  204.6300  147.5170 C   0  0  0  0  0  0  0  0  0  0  0  0
  160.8310  201.9030  146.0830 C   0  0  0  0  0  3  0  0  0  0  0  0
  160.7180  201.5820  147.4650 N   0  0  0  0  0  0  0  0  0  0  0  0
  160.8210  206.3000  144.7410 C   0  0  2  0  0  3  0  0  0  0  0  0
  161.3520  205.2080  143.8420 C   0  0  2  0  0  3  0  0  0  0  0  0
  161.9920  205.4180  145.2090 C   0  0  2  0  0  3  0  0  0  0  0  0
  159.5840  205.8930  145.2490 O   0  0  0  0  0  1  0  0  0  0  0  0
  162.2390  205.8250  142.7780 C   0  0  0  0  0  2  0  0  0  0  0  0
  161.4150  206.6980  141.8440 C   0  0  0  0  0  2  0  0  0  0  0  0
  163.0830  205.8300  140.3680 O   0  0  0  0  0  1  0  0  0  0  0  0
  161.9870  206.6940  140.4310 C   0  0  2  0  0  3  0  0  0  0  0  0
  162.3970  208.0950  139.9820 C   0  0  0  0  0  2  0  0  0  0  0  0
  161.2540  209.0000  139.9830 N   0  0  0  0  0  0  0  0  0  0  0  0
  160.5030  208.6840  138.9020 O   0  0  0  0  0  1  0  0  0  0  0  0
  161.7680  210.3410  139.7530 C   0  0  0  0  0  2  0  0  0  0  0  0
  161.1750  211.3200  140.7570 C   0  0  0  0  0  2  0  0  0  0  0  0
  161.9460  212.4490  142.8470 C   0  0  0  0  0  1  0  0  0  0  0  0
  162.2510  212.1940  141.3830 C   0  0  0  0  0  2  0  0  0  0  0  0
  160.6160  201.7850  149.9480 C   0  0  0  0  0  2  0  0  0  0  0  0
  160.7920  202.8170  151.0460 C   0  0  0  0  0  2  0  0  0  0  0  0
  161.6670  202.3230  152.0130 O   0  0  0  0  0  1  0  0  0  0  0  0
  161.8200  205.9570  147.8910 O   0  0  0  0  0  0  0  0  0  0  0  0
  160.8680  206.8230  148.5050 C   0  0  0  0  0  2  0  0  0  0  0  0
  161.1420  206.9440  149.9990 C   0  0  0  0  0  2  0  0  0  0  0  0
  162.3210  207.8690  150.2840 C   0  0  0  0  0  2  0  0  0  0  0  0
  161.9660  209.3210  150.0060 C   0  0  0  0  0  2  0  0  0  0  0  0
  161.4360  209.9830  151.2630 C   0  0  0  0  0  2  0  0  0  0  0  0
  162.3340  209.6430  152.4340 C   0  0  0  0  0  2  0  0  0  0  0  0
  161.8970  210.3320  153.5660 O   0  0  0  0  0  0  0  0  0  0  0  0
  160.4350  208.8490  154.5640 N   0  0  0  0  0  0  0  0  0  0  0  0
  159.8650  210.2190  154.9140 C   0  0  2  0  0  0  0  0  0  0  0  0
  160.2610  206.9480  156.0760 O   0  0  0  0  0  1  0  0  0  0  0  0
  161.3210  206.7630  154.0510 O   0  0  0  0  0  0  0  0  0  0  0  0
  160.5290  210.0070  153.6770 C   0  0  1  0  0  3  0  0  0  0  0  0
  160.5700  210.4640  156.1330 O   0  0  0  0  0  0  0  0  0  0  0  0
  160.6950  207.4850  154.8710 C   0  0  0  0  0  0  0  0  0  0  0  0
  160.5150  211.5400  155.2960 C   0  0  0  0  0  2  0  0  0  0  0  0
  1 23  1  0  0  0  0
  2  5  2  0  0  0  0
  3  6  2  0  0  0  0
  3  2  1  0  0  0  0
  4  1  1  0  0  0  0
  5 26  1  0  0  0  0
  5  4  1  0  0  0  0
  6  7  1  0  0  0  0
  7  1  2  0  0  0  0
  8 10  1  0  0  0  0
  8 11  1  1  0  0  0
  9 12  1  6  0  0  0
  9  8  1  0  0  0  0
  9 10  1  0  0  0  0
 10  2  1  1  0  0  0
 13 12  1  0  0  0  0
 15 14  1  1  0  0  0
 15 13  1  0  0  0  0
 16 17  1  0  0  0  0
 16 15  1  0  0  0  0
 18 17  1  0  0  0  0
 19 17  1  0  0  0  0
 19 20  1  0  0  0  0
 20 22  1  0  0  0  0
 22 21  1  0  0  0  0
 23 24  1  0  0  0  0
 24 25  1  0  0  0  0
 26 27  1  0  0  0  0
 27 28  1  0  0  0  0
 28 29  1  0  0  0  0
 30 29  1  0  0  0  0
 30 31  1  0  0  0  0
 31 32  1  0  0  0  0
 32 33  1  0  0  0  0
 34 40  1  0  0  0  0
 34 35  1  0  0  0  0
 35 41  1  6  0  0  0
 35 39  1  0  0  0  0
 37 40  2  0  0  0  0
 38 33  1  1  0  0  0
 38 34  1  0  0  0  0
 38 35  1  0  0  0  0
 40 36  1  0  0  0  0
 41 39  1  0  0  0  0
M  END
>  <MODEL>
7

>  <REMARK>
 VINA RESULT:      -5.0      3.377      9.241
  Name = 
  20 active torsions:
  status: ('A' for Active; 'I' for Inactive)
    1  A    between atoms: C_1  and  C_22
    2  A    between atoms: C_1  and  O_28
    3  A    between atoms: C_4  and  C_12
    4  A    between atoms: C_4  and  C_22
    5  A    between atoms: C_5  and  C_12
    6  A    between atoms: C_5  and  C_25
    7  A    between atoms: C_6  and  C_30
    8  A    between atoms: C_7  and  C_14
    9  A    between atoms: C_7  and  C_40
   10  A    between atoms: C_9  and  C_30
   11  A    between atoms: C_10  and  C_18
   12  A    between atoms: C_11  and  N_34
   13  A    between atoms: C_11  and  C_40
   14  A    between atoms: C_14  and  C_17
   15  A    between atoms: O_16  and  C_25
   16  A    between atoms: O_16  and  C_27
   17  A    between atoms: C_20  and  O_28
   18  A    between atoms: C_26  and  C_35
   19  A    between atoms: C_26  and  C_39
   20  A    between atoms: N_34  and  C_39
                            x       y       z     vdW  Elec       q    Type
                         _______ _______ _______ _____ _____    ______ ____

>  <TORSDO>
F 20

$$$$
=
 OpenBabel11052411213D

 41 44  0  0  1  0  0  0  0  0999 V2000
  161.8090  208.1270  149.4140 C   0  0  0  0  0  0  0  0  0  0  0  0
  161.4520  209.1040  152.4200 C   0  0  0  0  0  0  0  0  0  0  0  0
  161.7050  210.3350  151.6480 C   0  0  0  0  0  3  0  0  0  0  0  0
  161.4680  207.4560  150.5100 C   0  0  0  0  0  2  0  0  0  0  0  0
  161.2750  207.8620  151.9180 C   0  0  0  0  0  0  0  0  0  0  0  0
  161.9550  210.5300  150.3600 C   0  0  0  0  0  3  0  0  0  0  0  0
  162.0430  209.5320  149.3490 N   0  0  0  0  0  0  0  0  0  0  0  0
  159.8400  209.9170  154.2590 C   0  0  2  0  0  3  0  0  0  0  0  0
  161.0470  210.8260  154.2300 C   0  0  2  0  0  3  0  0  0  0  0  0
  161.2250  209.3480  153.9020 C   0  0  2  0  0  3  0  0  0  0  0  0
  159.0500  210.1950  153.1400 O   0  0  0  0  0  1  0  0  0  0  0  0
  161.5160  211.0790  155.6490 C   0  0  0  0  0  2  0  0  0  0  0  0
  160.3480  211.5110  156.5220 C   0  0  0  0  0  2  0  0  0  0  0  0
  160.1180  213.8890  156.4380 O   0  0  0  0  0  1  0  0  0  0  0  0
  159.6090  212.6980  155.9140 C   0  0  2  0  0  3  0  0  0  0  0  0
  158.1050  212.6160  156.1610 C   0  0  0  0  0  2  0  0  0  0  0  0
  157.3880  213.5960  155.3540 N   0  0  0  0  0  0  0  0  0  0  0  0
  156.2240  213.8550  155.9950 O   0  0  0  0  0  1  0  0  0  0  0  0
  157.0370  212.9460  154.1010 C   0  0  0  0  0  2  0  0  0  0  0  0
  157.4160  213.8270  152.9190 C   0  0  0  0  0  2  0  0  0  0  0  0
  159.6820  213.4550  151.9360 C   0  0  0  0  0  1  0  0  0  0  0  0
  158.2210  213.0530  151.8850 C   0  0  0  0  0  2  0  0  0  0  0  0
  161.9090  207.3520  148.1480 C   0  0  0  0  0  2  0  0  0  0  0  0
  160.7120  206.4300  148.0070 C   0  0  0  0  0  2  0  0  0  0  0  0
  160.3380  206.3530  146.6660 O   0  0  0  0  0  1  0  0  0  0  0  0
  160.8680  206.8580  152.8120 O   0  0  0  0  0  0  0  0  0  0  0  0
  161.6070  205.6640  153.0610 C   0  0  0  0  0  2  0  0  0  0  0  0
  160.8300  204.4450  152.5770 C   0  0  0  0  0  2  0  0  0  0  0  0
  161.4250  203.8690  151.2950 C   0  0  0  0  0  2  0  0  0  0  0  0
  160.8980  202.4700  151.0210 C   0  0  0  0  0  2  0  0  0  0  0  0
  160.5850  202.3060  149.5460 C   0  0  0  0  0  2  0  0  0  0  0  0
  161.2210  201.0330  149.0290 C   0  0  0  0  0  2  0  0  0  0  0  0
  161.4210  201.1420  147.6520 O   0  0  0  0  0  0  0  0  0  0  0  0
  161.1850  202.9690  146.2610 N   0  0  0  0  0  0  0  0  0  0  0  0
  159.9970  202.0810  145.9070 C   0  0  2  0  0  0  0  0  0  0  0  0
  162.3030  204.3580  144.6030 O   0  0  0  0  0  0  0  0  0  0  0  0
  163.0110  204.3080  146.7830 O   0  0  0  0  0  1  0  0  0  0  0  0
  160.4980  202.1230  147.2340 C   0  0  1  0  0  3  0  0  0  0  0  0
  160.5960  201.2820  144.8840 O   0  0  0  0  0  0  0  0  0  0  0  0
  162.2010  203.9000  145.9100 C   0  0  0  0  0  0  0  0  0  0  0  0
  159.8400  200.5740  145.7720 C   0  0  0  0  0  2  0  0  0  0  0  0
  1  4  1  0  0  0  0
  3  2  1  0  0  0  0
  4  5  1  0  0  0  0
  5  2  2  0  0  0  0
  5 26  1  0  0  0  0
  6  3  2  0  0  0  0
  7  1  2  0  0  0  0
  7  6  1  0  0  0  0
  8 11  1  6  0  0  0
  9  8  1  0  0  0  0
  9 12  1  1  0  0  0
 10  2  1  6  0  0  0
 10  9  1  0  0  0  0
 10  8  1  0  0  0  0
 12 13  1  0  0  0  0
 15 16  1  0  0  0  0
 15 14  1  1  0  0  0
 15 13  1  0  0  0  0
 17 18  1  0  0  0  0
 17 16  1  0  0  0  0
 19 17  1  0  0  0  0
 20 19  1  0  0  0  0
 22 21  1  0  0  0  0
 22 20  1  0  0  0  0
 23  1  1  0  0  0  0
 24 23  1  0  0  0  0
 25 24  1  0  0  0  0
 26 27  1  0  0  0  0
 28 27  1  0  0  0  0
 29 28  1  0  0  0  0
 30 29  1  0  0  0  0
 31 30  1  0  0  0  0
 32 31  1  0  0  0  0
 33 32  1  0  0  0  0
 34 38  1  0  0  0  0
 35 41  1  6  0  0  0
 35 34  1  0  0  0  0
 35 38  1  0  0  0  0
 36 40  2  0  0  0  0
 38 33  1  6  0  0  0
 39 41  1  0  0  0  0
 39 35  1  0  0  0  0
 40 34  1  0  0  0  0
 40 37  1  0  0  0  0
M  END
>  <MODEL>
8

>  <REMARK>
 VINA RESULT:      -5.0      3.374      7.225
  Name = 
  20 active torsions:
  status: ('A' for Active; 'I' for Inactive)
    1  A    between atoms: C_1  and  C_22
    2  A    between atoms: C_1  and  O_28
    3  A    between atoms: C_4  and  C_12
    4  A    between atoms: C_4  and  C_22
    5  A    between atoms: C_5  and  C_12
    6  A    between atoms: C_5  and  C_25
    7  A    between atoms: C_6  and  C_30
    8  A    between atoms: C_7  and  C_14
    9  A    between atoms: C_7  and  C_40
   10  A    between atoms: C_9  and  C_30
   11  A    between atoms: C_10  and  C_18
   12  A    between atoms: C_11  and  N_34
   13  A    between atoms: C_11  and  C_40
   14  A    between atoms: C_14  and  C_17
   15  A    between atoms: O_16  and  C_25
   16  A    between atoms: O_16  and  C_27
   17  A    between atoms: C_20  and  O_28
   18  A    between atoms: C_26  and  C_35
   19  A    between atoms: C_26  and  C_39
   20  A    between atoms: N_34  and  C_39
                            x       y       z     vdW  Elec       q    Type
                         _______ _______ _______ _____ _____    ______ ____

>  <TORSDO>
F 20

$$$$
=
 OpenBabel11052411213D

 41 44  0  0  1  0  0  0  0  0999 V2000
  160.8140  202.4120  149.4140 C   0  0  0  0  0  0  0  0  0  0  0  0
  160.9080  205.2510  150.8460 C   0  0  0  0  0  0  0  0  0  0  0  0
  161.0460  204.2690  151.9380 C   0  0  0  0  0  3  0  0  0  0  0  0
  160.8310  203.6400  148.9050 C   0  0  0  0  0  3  0  0  0  0  0  0
  160.8900  204.9820  149.5210 C   0  0  0  0  0  0  0  0  0  0  0  0
  161.0420  202.9430  151.9350 C   0  0  0  0  0  3  0  0  0  0  0  0
  160.8980  202.0940  150.8020 N   0  0  0  0  0  2  0  0  0  0  0  0
  162.3500  207.3400  151.2880 C   0  0  2  0  0  3  0  0  0  0  0  0
  161.7570  206.8690  152.5950 C   0  0  2  0  0  3  0  0  0  0  0  0
  160.9530  206.6950  151.3130 C   0  0  2  0  0  3  0  0  0  0  0  0
  163.3630  206.4520  150.9160 O   0  0  0  0  0  1  0  0  0  0  0  0
  161.2210  208.0640  153.3590 C   0  0  0  0  0  2  0  0  0  0  0  0
  160.3280  208.9070  152.4610 C   0  0  0  0  0  2  0  0  0  0  0  0
  161.3210  210.8310  151.4480 O   0  0  0  0  0  1  0  0  0  0  0  0
  160.6510  210.3910  152.5920 C   0  0  2  0  0  3  0  0  0  0  0  0
  161.4890  210.6810  153.8350 C   0  0  0  0  0  2  0  0  0  0  0  0
  160.6420  210.8640  155.0070 N   0  0  0  0  0  0  0  0  0  0  0  0
  160.1760  212.1340  154.9600 O   0  0  0  0  0  1  0  0  0  0  0  0
  161.5020  210.7800  156.1760 C   0  0  0  0  0  2  0  0  0  0  0  0
  160.9940  209.7140  157.1380 C   0  0  0  0  0  2  0  0  0  0  0  0
  160.1000  207.3840  157.0550 C   0  0  0  0  0  1  0  0  0  0  0  0
  161.1940  208.3160  156.5720 C   0  0  0  0  0  2  0  0  0  0  0  0
  160.7450  201.2800  148.4500 C   0  0  0  0  0  2  0  0  0  0  0  0
  160.7320  201.8090  147.0280 C   0  0  0  0  0  2  0  0  0  0  0  0
  160.8180  200.7420  146.1340 O   0  0  0  0  0  1  0  0  0  0  0  0
  160.9310  206.0770  148.6420 O   0  0  0  0  0  0  0  0  0  0  0  0
  161.7900  206.1570  147.5070 C   0  0  0  0  0  2  0  0  0  0  0  0
  161.0000  205.9360  146.2220 C   0  0  0  0  0  2  0  0  0  0  0  0
  161.8870  205.4120  145.0970 C   0  0  0  0  0  2  0  0  0  0  0  0
  161.2010  205.5410  143.7460 C   0  0  0  0  0  2  0  0  0  0  0  0
  161.9840  206.4790  142.8470 C   0  0  0  0  0  2  0  0  0  0  0  0
  161.6280  206.2100  141.4000 C   0  0  0  0  0  2  0  0  0  0  0  0
  162.2920  207.1280  140.5830 O   0  0  0  0  0  0  0  0  0  0  0  0
  161.7770  209.0280  139.3770 N   0  0  0  0  0  0  0  0  0  0  0  0
  161.4520  207.8850  138.4210 C   0  0  2  0  0  0  0  0  0  0  0  0
  162.6260  211.1720  138.5940 O   0  0  0  0  0  0  0  0  0  0  0  0
  162.2990  210.7670  140.8270 O   0  0  0  0  0  1  0  0  0  0  0  0
  161.2710  207.7310  139.8200 C   0  0  1  0  0  3  0  0  0  0  0  0
  162.7260  207.7370  137.7890 O   0  0  0  0  0  0  0  0  0  0  0  0
  162.2390  210.3470  139.6420 C   0  0  0  0  0  0  0  0  0  0  0  0
  162.1330  206.5560  138.1320 C   0  0  0  0  0  2  0  0  0  0  0  0
  1  7  1  0  0  0  0
  2  3  1  0  0  0  0
  4  1  2  0  0  0  0
  4  5  1  0  0  0  0
  5  2  2  0  0  0  0
  6  3  2  0  0  0  0
  7  6  1  0  0  0  0
  8 11  1  6  0  0  0
  8 10  1  0  0  0  0
  8  9  1  0  0  0  0
  9 12  1  1  0  0  0
 10  2  1  6  0  0  0
 10  9  1  0  0  0  0
 13 15  1  0  0  0  0
 13 12  1  0  0  0  0
 15 14  1  6  0  0  0
 15 16  1  0  0  0  0
 16 17  1  0  0  0  0
 17 19  1  0  0  0  0
 18 17  1  0  0  0  0
 19 20  1  0  0  0  0
 22 21  1  0  0  0  0
 22 20  1  0  0  0  0
 23  1  1  0  0  0  0
 24 23  1  0  0  0  0
 25 24  1  0  0  0  0
 26  5  1  0  0  0  0
 27 26  1  0  0  0  0
 28 27  1  0  0  0  0
 29 28  1  0  0  0  0
 30 29  1  0  0  0  0
 31 30  1  0  0  0  0
 32 31  1  0  0  0  0
 33 32  1  0  0  0  0
 34 40  1  0  0  0  0
 34 38  1  0  0  0  0
 35 41  1  6  0  0  0
 35 34  1  0  0  0  0
 35 38  1  0  0  0  0
 36 40  2  0  0  0  0
 38 33  1  1  0  0  0
 39 41  1  0  0  0  0
 39 35  1  0  0  0  0
 40 37  1  0  0  0  0
M  END
>  <MODEL>
9

>  <REMARK>
 VINA RESULT:      -5.0      3.821      5.553
  Name = 
  20 active torsions:
  status: ('A' for Active; 'I' for Inactive)
    1  A    between atoms: C_1  and  C_22
    2  A    between atoms: C_1  and  O_28
    3  A    between atoms: C_4  and  C_12
    4  A    between atoms: C_4  and  C_22
    5  A    between atoms: C_5  and  C_12
    6  A    between atoms: C_5  and  C_25
    7  A    between atoms: C_6  and  C_30
    8  A    between atoms: C_7  and  C_14
    9  A    between atoms: C_7  and  C_40
   10  A    between atoms: C_9  and  C_30
   11  A    between atoms: C_10  and  C_18
   12  A    between atoms: C_11  and  N_34
   13  A    between atoms: C_11  and  C_40
   14  A    between atoms: C_14  and  C_17
   15  A    between atoms: O_16  and  C_25
   16  A    between atoms: O_16  and  C_27
   17  A    between atoms: C_20  and  O_28
   18  A    between atoms: C_26  and  C_35
   19  A    between atoms: C_26  and  C_39
   20  A    between atoms: N_34  and  C_39
                            x       y       z     vdW  Elec       q    Type
                         _______ _______ _______ _____ _____    ______ ____

>  <TORSDO>
F 20

$$$$
