=
 OpenBabel11042422393D

 33 36  0  0  1  0  0  0  0  0999 V2000
  160.2520  209.5330  154.6510 C   0  0  0  0  0  0  0  0  0  0  0  0
  159.6120  210.5220  156.4320 N   0  0  0  0  0  0  0  0  0  0  0  0
  159.7640  210.6890  155.1260 N   0  0  0  0  0  0  0  0  0  0  0  0
  160.8980  206.8280  154.0390 C   0  0  0  0  0  2  0  0  0  0  0  0
  160.5260  209.2140  153.2160 C   0  0  0  0  0  2  0  0  0  0  0  0
  159.9800  209.2780  156.8200 C   0  0  0  0  0  3  0  0  0  0  0  0
  160.3700  208.6230  155.6710 C   0  0  0  0  0  0  0  0  0  0  0  0
  161.4000  207.9520  153.1140 C   0  0  2  0  0  3  0  0  0  0  0  0
  160.9490  207.2540  155.5140 C   0  0  0  0  0  2  0  0  0  0  0  0
  161.0980  203.5020  148.8120 C   0  0  0  0  0  0  0  0  0  0  0  0
  161.5670  206.5340  149.0080 C   0  0  0  0  0  2  0  0  0  0  0  0
  160.6610  201.3790  150.0770 C   0  0  0  0  0  1  0  0  0  0  0  0
  161.4580  207.4870  151.7340 N   0  0  0  0  0  0  0  0  0  0  0  0
  160.8730  201.3200  147.5900 C   0  0  0  0  0  1  0  0  0  0  0  0
  161.9640  210.0550  150.7620 S   0  0  0  0  0  0  0  0  0  0  0  0
  162.1530  210.2310  149.0920 C   0  0  0  0  0  0  0  0  0  0  0  0
  162.4250  211.5190  148.4040 C   0  0  0  0  0  1  0  0  0  0  0  0
  161.2690  206.1240  151.4320 N   0  0  0  0  0  0  0  0  0  0  0  0
  161.1000  204.2340  150.0460 N   0  0  0  0  0  2  0  0  0  0  0  0
  161.7070  208.3980  150.6680 C   0  0  0  0  0  0  0  0  0  0  0  0
  160.8790  202.0840  148.8260 N   0  0  0  0  0  0  0  0  0  0  0  0
  161.3090  205.6430  150.2160 C   0  0  0  0  0  0  0  0  0  0  0  0
  161.7640  207.9730  149.3640 C   0  0  0  0  0  0  0  0  0  0  0  0
  161.2870  204.0940  147.7140 O   0  0  0  0  0  0  0  0  0  0  0  0
  162.0170  209.0020  148.4510 C   0  0  0  0  0  3  0  0  0  0  0  0
  159.1420  211.5200  157.2600 O   0  0  0  0  0  0  0  0  0  0  0  0
  157.7930  211.9670  157.2010 C   0  0  0  0  0  2  0  0  0  0  0  0
  157.7570  213.4760  157.0610 C   0  0  0  0  0  2  0  0  0  0  0  0
  157.9640  213.8330  155.7290 O   0  0  0  0  0  0  0  0  0  0  0  0
  156.9470  213.1820  155.0290 C   0  0  0  0  0  2  0  0  0  0  0  0
  157.3680  212.9620  153.5880 C   0  0  0  0  0  2  0  0  0  0  0  0
  158.6540  213.7110  153.2970 C   0  0  0  0  0  2  0  0  0  0  0  0
  159.5670  212.8580  151.9840 S   0  0  0  0  0  1  0  0  0  0  0  0
  1  3  2  0  0  0  0
  1  7  1  0  0  0  0
  2  6  1  0  0  0  0
  2 26  1  0  0  0  0
  3  2  1  0  0  0  0
  4  9  1  0  0  0  0
  5  1  1  0  0  0  0
  7  6  2  0  0  0  0
  8 13  1  6  0  0  0
  8  5  1  0  0  0  0
  8  4  1  0  0  0  0
  9  7  1  0  0  0  0
 10 21  1  0  0  0  0
 10 19  1  0  0  0  0
 11 23  1  0  0  0  0
 11 22  1  0  0  0  0
 14 21  1  0  0  0  0
 16 15  1  0  0  0  0
 17 16  1  0  0  0  0
 18 13  1  0  0  0  0
 19 22  1  0  0  0  0
 20 15  1  0  0  0  0
 20 13  1  0  0  0  0
 21 12  1  0  0  0  0
 22 18  2  0  0  0  0
 23 20  2  0  0  0  0
 24 10  2  0  0  0  0
 25 16  2  0  0  0  0
 25 23  1  0  0  0  0
 27 26  1  0  0  0  0
 28 27  1  0  0  0  0
 29 28  1  0  0  0  0
 30 29  1  0  0  0  0
 31 30  1  0  0  0  0
 32 31  1  0  0  0  0
 33 32  1  0  0  0  0
M  END
>  <MODEL>
1

>  <REMARK>
 VINA RESULT:      -7.4      0.000      0.000
  Name = 
  8 active torsions:
  status: ('A' for Active; 'I' for Inactive)
    1  A    between atoms: C_3  and  C_6
    2  A    between atoms: C_3  and  O_23
    3  A    between atoms: N_5  and  C_26
    4  A    between atoms: C_6  and  O_8
    5  A    between atoms: O_8  and  C_15
    6  A    between atoms: N_9  and  O_23
    7  A    between atoms: C_12  and  C_30
    8  A    between atoms: C_15  and  C_30
                            x       y       z     vdW  Elec       q    Type
                         _______ _______ _______ _____ _____    ______ ____

>  <TORSDO>
F 8

$$$$
=
 OpenBabel11042422393D

 33 36  0  0  1  0  0  0  0  0999 V2000
  161.9680  211.5810  149.2150 C   0  0  0  0  0  0  0  0  0  0  0  0
  162.1710  213.1390  147.7680 N   0  0  0  0  0  0  0  0  0  0  0  0
  162.5320  211.8920  148.0370 N   0  0  0  0  0  0  0  0  0  0  0  0
  160.2950  211.2330  151.4930 C   0  0  0  0  0  2  0  0  0  0  0  0
  162.0340  210.2550  149.9030 C   0  0  0  0  0  2  0  0  0  0  0  0
  161.3750  213.6460  148.7390 C   0  0  0  0  0  3  0  0  0  0  0  0
  161.2170  212.6370  149.6650 C   0  0  0  0  0  0  0  0  0  0  0  0
  161.5820  210.3970  151.3660 C   0  0  2  0  0  3  0  0  0  0  0  0
  160.5060  212.6650  150.9800 C   0  0  0  0  0  2  0  0  0  0  0  0
  160.9750  204.2400  151.0040 C   0  0  0  0  0  0  0  0  0  0  0  0
  161.0280  206.4620  153.1280 C   0  0  0  0  0  2  0  0  0  0  0  0
  161.0970  203.7010  148.5560 C   0  0  0  0  0  1  0  0  0  0  0  0
  161.3960  209.0820  151.9670 N   0  0  0  0  0  0  0  0  0  0  0  0
  160.7860  201.8630  150.2170 C   0  0  0  0  0  1  0  0  0  0  0  0
  161.2910  210.1420  154.5490 S   0  0  0  0  0  0  0  0  0  0  0  0
  161.0730  209.0580  155.8250 C   0  0  0  0  0  0  0  0  0  0  0  0
  160.9950  209.4450  157.2580 C   0  0  0  0  0  1  0  0  0  0  0  0
  161.3420  207.9290  151.1590 N   0  0  0  0  0  0  0  0  0  0  0  0
  161.1420  205.6330  150.7020 N   0  0  0  0  0  2  0  0  0  0  0  0
  161.2640  208.9380  153.3780 C   0  0  0  0  0  0  0  0  0  0  0  0
  160.9540  203.2800  149.9380 N   0  0  0  0  0  0  0  0  0  0  0  0
  161.1780  206.7220  151.6350 C   0  0  0  0  0  0  0  0  0  0  0  0
  161.0880  207.7060  153.9570 C   0  0  0  0  0  0  0  0  0  0  0  0
  160.8470  203.8530  152.1970 O   0  0  0  0  0  0  0  0  0  0  0  0
  160.9770  207.7520  155.3500 C   0  0  0  0  0  3  0  0  0  0  0  0
  162.5840  213.8040  146.6330 O   0  0  0  0  0  0  0  0  0  0  0  0
  161.9120  213.6470  145.3880 C   0  0  0  0  0  2  0  0  0  0  0  0
  162.9230  213.6300  144.2580 C   0  0  0  0  0  2  0  0  0  0  0  0
  162.6840  212.5350  143.4260 O   0  0  0  0  0  0  0  0  0  0  0  0
  161.2960  212.5020  143.2810 C   0  0  0  0  0  2  0  0  0  0  0  0
  160.9340  212.1960  141.8400 C   0  0  0  0  0  2  0  0  0  0  0  0
  162.1900  212.0000  141.0130 C   0  0  0  0  0  2  0  0  0  0  0  0
  162.0670  210.4470  140.0860 S   0  0  0  0  0  1  0  0  0  0  0  0
  1  7  1  0  0  0  0
  1  5  1  0  0  0  0
  2  3  1  0  0  0  0
  2  6  1  0  0  0  0
  3  1  2  0  0  0  0
  6  7  2  0  0  0  0
  7  9  1  0  0  0  0
  8  5  1  6  0  0  0
  8  4  1  0  0  0  0
  8 13  1  0  0  0  0
  9  4  1  0  0  0  0
 10 24  2  0  0  0  0
 11 23  1  0  0  0  0
 12 21  1  0  0  0  0
 13 20  1  0  0  0  0
 15 16  1  0  0  0  0
 16 17  1  0  0  0  0
 18 22  2  0  0  0  0
 18 13  1  0  0  0  0
 19 10  1  0  0  0  0
 19 22  1  0  0  0  0
 20 23  2  0  0  0  0
 20 15  1  0  0  0  0
 21 14  1  0  0  0  0
 21 10  1  0  0  0  0
 22 11  1  0  0  0  0
 23 25  1  0  0  0  0
 25 16  2  0  0  0  0
 26  2  1  0  0  0  0
 27 26  1  0  0  0  0
 28 27  1  0  0  0  0
 29 28  1  0  0  0  0
 30 29  1  0  0  0  0
 31 30  1  0  0  0  0
 32 31  1  0  0  0  0
 33 32  1  0  0  0  0
M  END
>  <MODEL>
2

>  <REMARK>
 VINA RESULT:      -6.9      4.384      7.798
  Name = 
  8 active torsions:
  status: ('A' for Active; 'I' for Inactive)
    1  A    between atoms: C_3  and  C_6
    2  A    between atoms: C_3  and  O_23
    3  A    between atoms: N_5  and  C_26
    4  A    between atoms: C_6  and  O_8
    5  A    between atoms: O_8  and  C_15
    6  A    between atoms: N_9  and  O_23
    7  A    between atoms: C_12  and  C_30
    8  A    between atoms: C_15  and  C_30
                            x       y       z     vdW  Elec       q    Type
                         _______ _______ _______ _____ _____    ______ ____

>  <TORSDO>
F 8

$$$$
=
 OpenBabel11042422393D

 33 36  0  0  1  0  0  0  0  0999 V2000
  160.8410  203.9500  149.6080 C   0  0  0  0  0  0  0  0  0  0  0  0
  160.8550  202.0790  148.5780 N   0  0  0  0  0  0  0  0  0  0  0  0
  160.6700  203.3800  148.4050 N   0  0  0  0  0  0  0  0  0  0  0  0
  161.6590  204.7550  152.2140 C   0  0  0  0  0  2  0  0  0  0  0  0
  160.7970  205.4150  149.9050 C   0  0  0  0  0  2  0  0  0  0  0  0
  161.1550  201.7870  149.8660 C   0  0  0  0  0  3  0  0  0  0  0  0
  161.1740  202.9930  150.5340 C   0  0  0  0  0  0  0  0  0  0  0  0
  160.6800  205.6420  151.4220 C   0  0  2  0  0  3  0  0  0  0  0  0
  161.3670  203.2640  151.9910 C   0  0  0  0  0  2  0  0  0  0  0  0
  161.5910  211.5530  149.7990 C   0  0  0  0  0  0  0  0  0  0  0  0
  161.3220  209.8410  152.3400 C   0  0  0  0  0  2  0  0  0  0  0  0
  161.6260  211.5570  147.2900 C   0  0  0  0  0  1  0  0  0  0  0  0
  160.8950  207.0470  151.7410 N   0  0  0  0  0  0  0  0  0  0  0  0
  161.9330  213.6970  148.5400 C   0  0  0  0  0  1  0  0  0  0  0  0
  160.8120  206.5630  154.4900 S   0  0  0  0  0  0  0  0  0  0  0  0
  161.0120  207.8880  155.5180 C   0  0  0  0  0  0  0  0  0  0  0  0
  160.9960  207.8150  157.0020 C   0  0  0  0  0  1  0  0  0  0  0  0
  161.0450  207.9980  150.7110 N   0  0  0  0  0  0  0  0  0  0  0  0
  161.3770  210.1330  149.7910 N   0  0  0  0  0  2  0  0  0  0  0  0
  160.9580  207.4870  153.0940 C   0  0  0  0  0  0  0  0  0  0  0  0
  161.7140  212.2600  148.5580 N   0  0  0  0  0  0  0  0  0  0  0  0
  161.2400  209.2720  150.9300 C   0  0  0  0  0  0  0  0  0  0  0  0
  161.1600  208.8070  153.4080 C   0  0  0  0  0  0  0  0  0  0  0  0
  161.6740  212.1820  150.8890 O   0  0  0  0  0  0  0  0  0  0  0  0
  161.1940  209.0570  154.7840 C   0  0  0  0  0  3  0  0  0  0  0  0
  160.7410  201.1680  147.5490 O   0  0  0  0  0  0  0  0  0  0  0  0
  161.1590  201.4780  146.2250 C   0  0  0  0  0  2  0  0  0  0  0  0
  159.9700  201.4280  145.2860 C   0  0  0  0  0  2  0  0  0  0  0  0
  159.8580  202.6380  144.6000 O   0  0  0  0  0  0  0  0  0  0  0  0
  160.9610  203.3820  145.0200 C   0  0  0  0  0  2  0  0  0  0  0  0
  160.7790  204.8390  144.6350 C   0  0  0  0  0  2  0  0  0  0  0  0
  161.4710  205.7380  145.6410 C   0  0  0  0  0  2  0  0  0  0  0  0
  163.0230  204.9660  146.1750 S   0  0  0  0  0  1  0  0  0  0  0  0
  1  5  1  0  0  0  0
  1  7  1  0  0  0  0
  2  6  1  0  0  0  0
  3  2  1  0  0  0  0
  3  1  2  0  0  0  0
  6  7  2  0  0  0  0
  7  9  1  0  0  0  0
  8  5  1  6  0  0  0
  8 13  1  0  0  0  0
  8  4  1  0  0  0  0
  9  4  1  0  0  0  0
 10 24  2  0  0  0  0
 11 23  1  0  0  0  0
 12 21  1  0  0  0  0
 13 20  1  0  0  0  0
 14 21  1  0  0  0  0
 15 16  1  0  0  0  0
 16 17  1  0  0  0  0
 18 22  2  0  0  0  0
 18 13  1  0  0  0  0
 19 10  1  0  0  0  0
 19 22  1  0  0  0  0
 20 23  2  0  0  0  0
 20 15  1  0  0  0  0
 21 10  1  0  0  0  0
 22 11  1  0  0  0  0
 23 25  1  0  0  0  0
 25 16  2  0  0  0  0
 26  2  1  0  0  0  0
 27 26  1  0  0  0  0
 28 27  1  0  0  0  0
 29 30  1  0  0  0  0
 29 28  1  0  0  0  0
 31 30  1  0  0  0  0
 31 32  1  0  0  0  0
 32 33  1  0  0  0  0
M  END
>  <MODEL>
3

>  <REMARK>
 VINA RESULT:      -6.1      3.554      9.441
  Name = 
  8 active torsions:
  status: ('A' for Active; 'I' for Inactive)
    1  A    between atoms: C_3  and  C_6
    2  A    between atoms: C_3  and  O_23
    3  A    between atoms: N_5  and  C_26
    4  A    between atoms: C_6  and  O_8
    5  A    between atoms: O_8  and  C_15
    6  A    between atoms: N_9  and  O_23
    7  A    between atoms: C_12  and  C_30
    8  A    between atoms: C_15  and  C_30
                            x       y       z     vdW  Elec       q    Type
                         _______ _______ _______ _____ _____    ______ ____

>  <TORSDO>
F 8

$$$$
=
 OpenBabel11042422393D

 33 36  0  0  1  0  0  0  0  0999 V2000
  161.4690  205.1290  148.4920 C   0  0  0  0  0  0  0  0  0  0  0  0
  161.3410  203.3060  147.3860 N   0  0  0  0  0  0  0  0  0  0  0  0
  161.2650  203.8080  148.6110 N   0  0  0  0  0  0  0  0  0  0  0  0
  161.5610  207.8730  147.7360 C   0  0  0  0  0  2  0  0  0  0  0  0
  161.4120  206.1340  149.5970 C   0  0  0  0  0  2  0  0  0  0  0  0
  161.5800  204.2720  146.4680 C   0  0  0  0  0  3  0  0  0  0  0  0
  161.6380  205.4570  147.1700 C   0  0  0  0  0  0  0  0  0  0  0  0
  162.0450  207.4590  149.1380 C   0  0  2  0  0  3  0  0  0  0  0  0
  161.9570  206.8320  146.6790 C   0  0  0  0  0  2  0  0  0  0  0  0
  160.5840  209.4350  154.8280 C   0  0  0  0  0  0  0  0  0  0  0  0
  161.2090  210.5820  152.0440 C   0  0  0  0  0  2  0  0  0  0  0  0
  160.3120  207.3550  156.2060 C   0  0  0  0  0  1  0  0  0  0  0  0
  161.7670  208.5140  150.1040 N   0  0  0  0  0  0  0  0  0  0  0  0
  159.9800  209.5950  157.2590 C   0  0  0  0  0  1  0  0  0  0  0  0
  162.1420  210.5240  148.2030 S   0  0  0  0  0  0  0  0  0  0  0  0
  161.9510  212.1230  148.7140 C   0  0  0  0  0  0  0  0  0  0  0  0
  162.1130  213.3140  147.8400 C   0  0  0  0  0  1  0  0  0  0  0  0
  161.4550  208.1940  151.4410 N   0  0  0  0  0  0  0  0  0  0  0  0
  160.8930  208.6300  153.6800 N   0  0  0  0  0  2  0  0  0  0  0  0
  161.8020  209.8850  149.7180 C   0  0  0  0  0  0  0  0  0  0  0  0
  160.2960  208.8020  156.0820 N   0  0  0  0  0  0  0  0  0  0  0  0
  161.1960  209.0910  152.3550 C   0  0  0  0  0  0  0  0  0  0  0  0
  161.5420  210.8870  150.6180 C   0  0  0  0  0  0  0  0  0  0  0  0
  160.5630  210.6930  154.7420 O   0  0  0  0  0  0  0  0  0  0  0  0
  161.6210  212.1700  150.0660 C   0  0  0  0  0  3  0  0  0  0  0  0
  161.1970  201.9600  147.1240 O   0  0  0  0  0  0  0  0  0  0  0  0
  161.1110  200.9990  148.1690 C   0  0  0  0  0  2  0  0  0  0  0  0
  159.8490  201.2320  148.9780 C   0  0  0  0  0  2  0  0  0  0  0  0
  160.1040  200.9990  150.3290 O   0  0  0  0  0  0  0  0  0  0  0  0
  161.3680  201.5500  150.5470 C   0  0  0  0  0  2  0  0  0  0  0  0
  161.4020  202.2520  151.8920 C   0  0  0  0  0  2  0  0  0  0  0  0
  160.4520  203.4340  151.8900 C   0  0  0  0  0  2  0  0  0  0  0  0
  161.2010  204.8120  152.7990 S   0  0  0  0  0  1  0  0  0  0  0  0
  1  3  2  0  0  0  0
  1  5  1  0  0  0  0
  2  3  1  0  0  0  0
  6  7  2  0  0  0  0
  6  2  1  0  0  0  0
  7  1  1  0  0  0  0
  8  4  1  6  0  0  0
  8  5  1  0  0  0  0
  8 13  1  0  0  0  0
  9  7  1  0  0  0  0
  9  4  1  0  0  0  0
 10 21  1  0  0  0  0
 11 22  1  0  0  0  0
 13 18  1  0  0  0  0
 15 16  1  0  0  0  0
 15 20  1  0  0  0  0
 16 25  2  0  0  0  0
 17 16  1  0  0  0  0
 18 22  2  0  0  0  0
 19 10  1  0  0  0  0
 20 13  1  0  0  0  0
 20 23  2  0  0  0  0
 21 12  1  0  0  0  0
 21 14  1  0  0  0  0
 22 19  1  0  0  0  0
 23 11  1  0  0  0  0
 24 10  2  0  0  0  0
 25 23  1  0  0  0  0
 26  2  1  0  0  0  0
 26 27  1  0  0  0  0
 27 28  1  0  0  0  0
 28 29  1  0  0  0  0
 29 30  1  0  0  0  0
 30 31  1  0  0  0  0
 32 31  1  0  0  0  0
 32 33  1  0  0  0  0
M  END
>  <MODEL>
4

>  <REMARK>
 VINA RESULT:      -4.8      2.492      8.887
  Name = 
  8 active torsions:
  status: ('A' for Active; 'I' for Inactive)
    1  A    between atoms: C_3  and  C_6
    2  A    between atoms: C_3  and  O_23
    3  A    between atoms: N_5  and  C_26
    4  A    between atoms: C_6  and  O_8
    5  A    between atoms: O_8  and  C_15
    6  A    between atoms: N_9  and  O_23
    7  A    between atoms: C_12  and  C_30
    8  A    between atoms: C_15  and  C_30
                            x       y       z     vdW  Elec       q    Type
                         _______ _______ _______ _____ _____    ______ ____

>  <TORSDO>
F 8

$$$$
=
 OpenBabel11042422393D

 33 36  0  0  1  0  0  0  0  0999 V2000
  161.5950  207.0170  151.1100 C   0  0  0  0  0  0  0  0  0  0  0  0
  161.9160  204.9060  151.0740 N   0  0  0  0  0  0  0  0  0  0  0  0
  161.4890  205.8980  151.8430 N   0  0  0  0  0  0  0  0  0  0  0  0
  161.6220  209.0340  149.1000 C   0  0  0  0  0  2  0  0  0  0  0  0
  161.1700  208.3890  151.5270 C   0  0  0  0  0  2  0  0  0  0  0  0
  162.2890  205.3510  149.8510 C   0  0  0  0  0  3  0  0  0  0  0  0
  162.0600  206.7110  149.8560 C   0  0  0  0  0  0  0  0  0  0  0  0
  161.7740  209.4390  150.5780 C   0  0  2  0  0  3  0  0  0  0  0  0
  162.3650  207.7240  148.8000 C   0  0  0  0  0  2  0  0  0  0  0  0
  158.3610  213.3670  153.9440 C   0  0  0  0  0  0  0  0  0  0  0  0
  159.9480  213.3140  151.3100 C   0  0  0  0  0  2  0  0  0  0  0  0
  157.6100  212.0510  155.9450 C   0  0  0  0  0  1  0  0  0  0  0  0
  161.1660  210.7420  150.8140 N   0  0  0  0  0  0  0  0  0  0  0  0
  156.9220  214.4390  155.6990 C   0  0  0  0  0  1  0  0  0  0  0  0
  162.2020  211.7910  148.4430 S   0  0  0  0  0  0  0  0  0  0  0  0
  161.8410  213.4010  148.0820 C   0  0  0  0  0  0  0  0  0  0  0  0
  162.3070  214.1200  146.8680 C   0  0  0  0  0  1  0  0  0  0  0  0
  160.3940  210.9710  151.9700 N   0  0  0  0  0  0  0  0  0  0  0  0
  159.0630  212.2140  153.4540 N   0  0  0  0  0  2  0  0  0  0  0  0
  161.3390  211.8060  149.8830 C   0  0  0  0  0  0  0  0  0  0  0  0
  157.6410  213.2860  155.1810 N   0  0  0  0  0  0  0  0  0  0  0  0
  159.8230  212.1150  152.2410 C   0  0  0  0  0  0  0  0  0  0  0  0
  160.7720  213.0380  150.0930 C   0  0  0  0  0  0  0  0  0  0  0  0
  158.3730  214.4490  153.2960 O   0  0  0  0  0  0  0  0  0  0  0  0
  161.0450  213.9610  149.0790 C   0  0  0  0  0  3  0  0  0  0  0  0
  161.9670  203.5970  151.5080 O   0  0  0  0  0  0  0  0  0  0  0  0
  160.8020  202.7830  151.5640 C   0  0  0  0  0  2  0  0  0  0  0  0
  160.8110  201.7940  150.4150 C   0  0  0  0  0  2  0  0  0  0  0  0
  160.1460  202.3390  149.3160 O   0  0  0  0  0  0  0  0  0  0  0  0
  160.5370  201.5420  148.2390 C   0  0  0  0  0  2  0  0  0  0  0  0
  161.5670  202.2760  147.4000 C   0  0  0  0  0  2  0  0  0  0  0  0
  161.1220  203.7040  147.1520 C   0  0  0  0  0  2  0  0  0  0  0  0
  161.9570  204.3510  145.6790 S   0  0  0  0  0  1  0  0  0  0  0  0
  1  5  1  0  0  0  0
  1  3  2  0  0  0  0
  2 26  1  0  0  0  0
  2  3  1  0  0  0  0
  6  7  2  0  0  0  0
  6  2  1  0  0  0  0
  7  1  1  0  0  0  0
  8  4  1  6  0  0  0
  8 13  1  0  0  0  0
  8  5  1  0  0  0  0
  9  4  1  0  0  0  0
  9  7  1  0  0  0  0
 10 21  1  0  0  0  0
 11 22  1  0  0  0  0
 13 18  1  0  0  0  0
 15 20  1  0  0  0  0
 16 15  1  0  0  0  0
 16 25  2  0  0  0  0
 17 16  1  0  0  0  0
 18 22  2  0  0  0  0
 19 10  1  0  0  0  0
 20 23  2  0  0  0  0
 20 13  1  0  0  0  0
 21 14  1  0  0  0  0
 21 12  1  0  0  0  0
 22 19  1  0  0  0  0
 23 11  1  0  0  0  0
 24 10  2  0  0  0  0
 25 23  1  0  0  0  0
 26 27  1  0  0  0  0
 28 27  1  0  0  0  0
 29 28  1  0  0  0  0
 30 29  1  0  0  0  0
 31 30  1  0  0  0  0
 32 31  1  0  0  0  0
 33 32  1  0  0  0  0
M  END
>  <MODEL>
5

>  <REMARK>
 VINA RESULT:      -4.7      2.480      9.084
  Name = 
  8 active torsions:
  status: ('A' for Active; 'I' for Inactive)
    1  A    between atoms: C_3  and  C_6
    2  A    between atoms: C_3  and  O_23
    3  A    between atoms: N_5  and  C_26
    4  A    between atoms: C_6  and  O_8
    5  A    between atoms: O_8  and  C_15
    6  A    between atoms: N_9  and  O_23
    7  A    between atoms: C_12  and  C_30
    8  A    between atoms: C_15  and  C_30
                            x       y       z     vdW  Elec       q    Type
                         _______ _______ _______ _____ _____    ______ ____

>  <TORSDO>
F 8

$$$$
