=
 OpenBabel11042420123D

 25 28  0  0  1  0  0  0  0  0999 V2000
  160.6080  209.8280  152.6800 C   0  0  0  0  0  0  0  0  0  0  0  0
  160.8060  210.8200  151.7080 C   0  0  0  0  0  0  0  0  0  0  0  0
  162.4740  208.5910  151.4740 C   0  0  1  0  0  3  0  0  0  0  0  0
  158.8870  212.0360  152.5400 C   0  0  0  0  0  3  0  0  0  0  0  0
  161.8830  210.6400  150.7840 N   0  0  0  0  0  2  0  0  0  0  0  0
  162.9570  209.8750  151.1280 O   0  0  0  0  0  0  0  0  0  0  0  0
  159.5720  209.9740  153.6120 C   0  0  0  0  0  3  0  0  0  0  0  0
  158.7130  211.0750  153.5410 C   0  0  0  0  0  3  0  0  0  0  0  0
  161.5550  208.6470  152.7270 C   0  0  2  0  0  3  0  0  0  0  0  0
  159.9270  211.9100  151.6150 C   0  0  0  0  0  0  0  0  0  0  0  0
  161.8840  207.8990  150.3240 N   0  0  0  0  0  0  0  0  0  0  0  0
  160.4420  206.8220  149.0090 N   0  0  0  0  0  0  0  0  0  0  0  0
  160.6530  207.3580  150.2270 C   0  0  0  0  0  3  0  0  0  0  0  0
  162.4930  207.7250  149.1410 C   0  0  0  0  0  3  0  0  0  0  0  0
  161.5940  207.0470  148.3470 C   0  0  0  0  0  0  0  0  0  0  0  0
  161.8190  206.6690  146.9260 C   0  0  0  0  0  2  0  0  0  0  0  0
  160.6130  206.2770  146.3490 O   0  0  0  0  0  1  0  0  0  0  0  0
  160.5690  207.1060  155.6210 O   0  0  0  0  0  0  0  0  0  0  0  0
  160.8310  207.3210  152.9710 C   0  0  2  0  0  3  0  0  0  0  0  0
  160.9110  206.9650  154.4580 C   0  0  0  0  0  0  0  0  0  0  0  0
  161.7490  206.2980  153.3690 C   0  0  1  0  0  3  0  0  0  0  0  0
  161.1710  204.9300  153.0710 C   0  0  0  0  0  2  0  0  0  0  0  0
  161.6610  204.4740  151.8470 O   0  0  0  0  0  1  0  0  0  0  0  0
  160.2190  213.7200  149.7770 N   0  0  0  0  0  0  0  0  0  0  0  0
  160.0880  212.9140  150.5970 C   0  0  0  0  0  0  0  0  0  0  0  0
  1  7  1  0  0  0  0
  2  1  2  0  0  0  0
  3 11  1  6  0  0  0
  3  9  1  0  0  0  0
  4  8  1  0  0  0  0
  5  6  1  0  0  0  0
  5  2  1  0  0  0  0
  6  3  1  0  0  0  0
  8  7  2  0  0  0  0
  9  1  1  6  0  0  0
  9 19  1  0  0  0  0
 10  2  1  0  0  0  0
 10  4  2  0  0  0  0
 12 13  2  0  0  0  0
 13 11  1  0  0  0  0
 14 11  1  0  0  0  0
 15 12  1  0  0  0  0
 15 14  2  0  0  0  0
 16 15  1  0  0  0  0
 17 16  1  0  0  0  0
 19 21  1  0  0  0  0
 19 20  1  1  0  0  0
 20 18  2  0  0  0  0
 21 22  1  6  0  0  0
 21 20  1  0  0  0  0
 23 22  1  0  0  0  0
 24 25  3  0  0  0  0
 25 10  1  0  0  0  0
M  END
>  <MODEL>
1

>  <REMARK>
 VINA RESULT:      -5.4      0.000      0.000
  Name = 
  5 active torsions:
  status: ('A' for Active; 'I' for Inactive)
    1  A    between atoms: C_1  and  C_25
    2  A    between atoms: C_2  and  CA_23
    3  A    between atoms: C_5  and  N_10
    4  A    between atoms: C_13  and  C_17
    5  A    between atoms: C_19  and  C_24
                            x       y       z     vdW  Elec       q    Type
                         _______ _______ _______ _____ _____    ______ ____

>  <TORSDO>
F 5

$$$$
=
 OpenBabel11042420123D

 25 28  0  0  1  0  0  0  0  0999 V2000
  161.6540  208.1430  150.9460 C   0  0  0  0  0  0  0  0  0  0  0  0
  161.9880  209.1900  150.0750 C   0  0  0  0  0  0  0  0  0  0  0  0
  162.6970  206.6420  149.1780 C   0  0  1  0  0  3  0  0  0  0  0  0
  160.8140  210.7600  151.4950 C   0  0  0  0  0  3  0  0  0  0  0  0
  162.7290  208.8650  148.8960 N   0  0  0  0  0  2  0  0  0  0  0  0
  163.5170  207.7530  148.8700 O   0  0  0  0  0  0  0  0  0  0  0  0
  160.9390  208.4220  152.1180 C   0  0  0  0  0  3  0  0  0  0  0  0
  160.5190  209.7280  152.3910 C   0  0  0  0  0  3  0  0  0  0  0  0
  162.1210  206.7400  150.6190 C   0  0  2  0  0  3  0  0  0  0  0  0
  161.5420  210.4970  150.3310 C   0  0  0  0  0  0  0  0  0  0  0  0
  161.6880  206.4010  148.1410 N   0  0  0  0  0  0  0  0  0  0  0  0
  159.7310  206.2060  147.0910 N   0  0  0  0  0  0  0  0  0  0  0  0
  160.3460  206.4650  148.2620 C   0  0  0  0  0  3  0  0  0  0  0  0
  161.9620  206.1050  146.8610 C   0  0  0  0  0  3  0  0  0  0  0  0
  160.7440  205.9740  146.2330 C   0  0  0  0  0  0  0  0  0  0  0  0
  160.5510  205.6880  144.7860 C   0  0  0  0  0  2  0  0  0  0  0  0
  160.8730  204.3570  144.5250 O   0  0  0  0  0  1  0  0  0  0  0  0
  161.2290  205.0870  153.4810 O   0  0  0  0  0  0  0  0  0  0  0  0
  161.0460  205.6830  150.8840 C   0  0  2  0  0  3  0  0  0  0  0  0
  161.2770  205.0580  152.2620 C   0  0  0  0  0  0  0  0  0  0  0  0
  161.6140  204.3710  150.9410 C   0  0  1  0  0  3  0  0  0  0  0  0
  160.5570  203.3290  150.6420 C   0  0  0  0  0  2  0  0  0  0  0  0
  160.5810  203.0160  149.2830 O   0  0  0  0  0  1  0  0  0  0  0  0
  162.0720  212.4450  148.6980 N   0  0  0  0  0  0  0  0  0  0  0  0
  161.8360  211.5760  149.4260 C   0  0  0  0  0  0  0  0  0  0  0  0
  1  7  1  0  0  0  0
  2 10  1  0  0  0  0
  2  1  2  0  0  0  0
  3 11  1  6  0  0  0
  3  9  1  0  0  0  0
  4  8  1  0  0  0  0
  5  2  1  0  0  0  0
  6  5  1  0  0  0  0
  6  3  1  0  0  0  0
  7  8  2  0  0  0  0
  9 19  1  0  0  0  0
  9  1  1  6  0  0  0
 10  4  2  0  0  0  0
 11 13  1  0  0  0  0
 12 13  2  0  0  0  0
 14 11  1  0  0  0  0
 15 14  2  0  0  0  0
 15 12  1  0  0  0  0
 16 15  1  0  0  0  0
 17 16  1  0  0  0  0
 19 21  1  0  0  0  0
 19 20  1  1  0  0  0
 20 18  2  0  0  0  0
 21 22  1  6  0  0  0
 21 20  1  0  0  0  0
 23 22  1  0  0  0  0
 24 25  3  0  0  0  0
 25 10  1  0  0  0  0
M  END
>  <MODEL>
2

>  <REMARK>
 VINA RESULT:      -5.3      1.938      2.718
  Name = 
  5 active torsions:
  status: ('A' for Active; 'I' for Inactive)
    1  A    between atoms: C_1  and  C_25
    2  A    between atoms: C_2  and  CA_23
    3  A    between atoms: C_5  and  N_10
    4  A    between atoms: C_13  and  C_17
    5  A    between atoms: C_19  and  C_24
                            x       y       z     vdW  Elec       q    Type
                         _______ _______ _______ _____ _____    ______ ____

>  <TORSDO>
F 5

$$$$
=
 OpenBabel11042420123D

 25 28  0  0  1  0  0  0  0  0999 V2000
  160.3840  210.4050  153.5370 C   0  0  0  0  0  0  0  0  0  0  0  0
  160.5070  209.8170  154.8050 C   0  0  0  0  0  0  0  0  0  0  0  0
  159.6910  212.4890  154.8190 C   0  0  1  0  0  3  0  0  0  0  0  0
  160.9310  207.6670  153.7800 C   0  0  0  0  0  3  0  0  0  0  0  0
  160.3070  210.6530  155.9480 N   0  0  0  0  0  2  0  0  0  0  0  0
  160.5180  211.9970  155.8560 O   0  0  0  0  0  0  0  0  0  0  0  0
  160.5860  209.6220  152.3930 C   0  0  0  0  0  3  0  0  0  0  0  0
  160.8570  208.2560  152.5150 C   0  0  0  0  0  3  0  0  0  0  0  0
  160.0860  211.8870  153.4410 C   0  0  2  0  0  3  0  0  0  0  0  0
  160.7490  208.4400  154.9300 C   0  0  0  0  0  0  0  0  0  0  0  0
  158.2670  212.3620  155.1450 N   0  0  0  0  0  0  0  0  0  0  0  0
  156.1880  211.5720  155.2950 N   0  0  0  0  0  0  0  0  0  0  0  0
  157.4240  211.3690  154.7980 C   0  0  0  0  0  3  0  0  0  0  0  0
  157.5740  213.2320  155.8970 C   0  0  0  0  0  3  0  0  0  0  0  0
  156.2910  212.7360  155.9670 C   0  0  0  0  0  0  0  0  0  0  0  0
  155.1750  213.3490  156.7340 C   0  0  0  0  0  2  0  0  0  0  0  0
  154.6120  214.3880  155.9940 O   0  0  0  0  0  1  0  0  0  0  0  0
  160.4730  212.9820  150.2210 O   0  0  0  0  0  0  0  0  0  0  0  0
  159.0600  212.2120  152.3530 C   0  0  2  0  0  3  0  0  0  0  0  0
  159.7530  212.9520  151.2070 C   0  0  0  0  0  0  0  0  0  0  0  0
  158.8560  213.6240  152.2430 C   0  0  1  0  0  3  0  0  0  0  0  0
  157.5070  213.9100  151.6150 C   0  0  0  0  0  2  0  0  0  0  0  0
  156.5470  214.0470  152.6180 O   0  0  0  0  0  1  0  0  0  0  0  0
  160.9000  207.3060  157.2610 N   0  0  0  0  0  0  0  0  0  0  0  0
  160.8340  207.8120  156.2220 C   0  0  0  0  0  0  0  0  0  0  0  0
  1  2  1  0  0  0  0
  2 10  2  0  0  0  0
  2  5  1  0  0  0  0
  3 11  1  1  0  0  0
  3  6  1  0  0  0  0
  4 10  1  0  0  0  0
  6  5  1  0  0  0  0
  7  8  1  0  0  0  0
  7  1  2  0  0  0  0
  8  4  2  0  0  0  0
  9  1  1  1  0  0  0
  9  3  1  0  0  0  0
 10 25  1  0  0  0  0
 11 14  1  0  0  0  0
 12 15  1  0  0  0  0
 13 11  1  0  0  0  0
 13 12  2  0  0  0  0
 14 15  2  0  0  0  0
 15 16  1  0  0  0  0
 17 16  1  0  0  0  0
 18 20  2  0  0  0  0
 19 20  1  6  0  0  0
 19  9  1  0  0  0  0
 20 21  1  0  0  0  0
 21 22  1  6  0  0  0
 21 19  1  0  0  0  0
 22 23  1  0  0  0  0
 25 24  3  0  0  0  0
M  END
>  <MODEL>
3

>  <REMARK>
 VINA RESULT:      -5.3      4.203      7.850
  Name = 
  5 active torsions:
  status: ('A' for Active; 'I' for Inactive)
    1  A    between atoms: C_1  and  C_25
    2  A    between atoms: C_2  and  CA_23
    3  A    between atoms: C_5  and  N_10
    4  A    between atoms: C_13  and  C_17
    5  A    between atoms: C_19  and  C_24
                            x       y       z     vdW  Elec       q    Type
                         _______ _______ _______ _____ _____    ______ ____

>  <TORSDO>
F 5

$$$$
=
 OpenBabel11042420123D

 25 28  0  0  1  0  0  0  0  0999 V2000
  161.5920  208.1530  152.2460 C   0  0  0  0  0  0  0  0  0  0  0  0
  161.2720  208.1600  153.6120 C   0  0  0  0  0  0  0  0  0  0  0  0
  161.7930  210.6740  152.5100 C   0  0  1  0  0  3  0  0  0  0  0  0
  160.7730  205.7940  153.5190 C   0  0  0  0  0  3  0  0  0  0  0  0
  161.3450  209.4090  154.3060 N   0  0  0  0  0  2  0  0  0  0  0  0
  162.1640  210.3980  153.8470 O   0  0  0  0  0  0  0  0  0  0  0  0
  161.5460  206.9470  151.5340 C   0  0  0  0  0  3  0  0  0  0  0  0
  161.1360  205.7710  152.1700 C   0  0  0  0  0  3  0  0  0  0  0  0
  162.0290  209.4450  151.5880 C   0  0  2  0  0  3  0  0  0  0  0  0
  160.8310  206.9880  154.2450 C   0  0  0  0  0  0  0  0  0  0  0  0
  160.4450  211.2440  152.4210 N   0  0  0  0  0  0  0  0  0  0  0  0
  158.2600  211.5780  152.7140 N   0  0  0  0  0  0  0  0  0  0  0  0
  159.3140  210.7840  152.9930 C   0  0  0  0  0  3  0  0  0  0  0  0
  160.1320  212.3700  151.7610 C   0  0  0  0  0  3  0  0  0  0  0  0
  158.7790  212.5520  151.9410 C   0  0  0  0  0  0  0  0  0  0  0  0
  157.9910  213.7010  151.4210 C   0  0  0  0  0  2  0  0  0  0  0  0
  157.5340  213.4130  150.1360 O   0  0  0  0  0  1  0  0  0  0  0  0
  162.6980  207.9430  148.5860 O   0  0  0  0  0  0  0  0  0  0  0  0
  161.4130  209.6380  150.2000 C   0  0  2  0  0  3  0  0  0  0  0  0
  162.2870  208.9400  149.1550 C   0  0  0  0  0  0  0  0  0  0  0  0
  162.2500  210.4510  149.3730 C   0  0  1  0  0  3  0  0  0  0  0  0
  161.4330  211.0890  148.2680 C   0  0  0  0  0  2  0  0  0  0  0  0
  162.1680  212.1180  147.6800 O   0  0  0  0  0  1  0  0  0  0  0  0
  160.1560  206.9840  156.7520 N   0  0  0  0  0  0  0  0  0  0  0  0
  160.4560  206.9860  155.6340 C   0  0  0  0  0  0  0  0  0  0  0  0
  1  2  1  0  0  0  0
  2 10  2  0  0  0  0
  2  5  1  0  0  0  0
  3 11  1  1  0  0  0
  3  6  1  0  0  0  0
  4 10  1  0  0  0  0
  6  5  1  0  0  0  0
  7  8  1  0  0  0  0
  7  1  2  0  0  0  0
  8  4  2  0  0  0  0
  9  1  1  1  0  0  0
  9  3  1  0  0  0  0
 10 25  1  0  0  0  0
 11 13  1  0  0  0  0
 12 13  2  0  0  0  0
 14 15  2  0  0  0  0
 14 11  1  0  0  0  0
 15 12  1  0  0  0  0
 16 15  1  0  0  0  0
 17 16  1  0  0  0  0
 18 20  2  0  0  0  0
 19 20  1  6  0  0  0
 19  9  1  0  0  0  0
 20 21  1  0  0  0  0
 21 22  1  6  0  0  0
 21 19  1  0  0  0  0
 23 22  1  0  0  0  0
 25 24  3  0  0  0  0
M  END
>  <MODEL>
4

>  <REMARK>
 VINA RESULT:      -5.0      2.840      6.085
  Name = 
  5 active torsions:
  status: ('A' for Active; 'I' for Inactive)
    1  A    between atoms: C_1  and  C_25
    2  A    between atoms: C_2  and  CA_23
    3  A    between atoms: C_5  and  N_10
    4  A    between atoms: C_13  and  C_17
    5  A    between atoms: C_19  and  C_24
                            x       y       z     vdW  Elec       q    Type
                         _______ _______ _______ _____ _____    ______ ____

>  <TORSDO>
F 5

$$$$
=
 OpenBabel11042420123D

 25 28  0  0  1  0  0  0  0  0999 V2000
  161.5750  206.7520  150.4500 C   0  0  0  0  0  0  0  0  0  0  0  0
  162.0030  207.9190  149.8020 C   0  0  0  0  0  0  0  0  0  0  0  0
  162.5980  205.5420  148.4610 C   0  0  1  0  0  3  0  0  0  0  0  0
  160.8670  209.2690  151.4580 C   0  0  0  0  0  3  0  0  0  0  0  0
  162.7700  207.7730  148.6040 N   0  0  0  0  0  2  0  0  0  0  0  0
  163.4930  206.6360  148.3910 O   0  0  0  0  0  0  0  0  0  0  0  0
  160.8320  206.8530  151.6340 C   0  0  0  0  0  3  0  0  0  0  0  0
  160.4780  208.1100  152.1360 C   0  0  0  0  0  3  0  0  0  0  0  0
  161.9730  205.4070  149.8790 C   0  0  2  0  0  3  0  0  0  0  0  0
  161.6230  209.1810  150.2860 C   0  0  0  0  0  0  0  0  0  0  0  0
  161.6190  205.5630  147.3700 N   0  0  0  0  0  0  0  0  0  0  0  0
  159.9530  206.1910  146.0280 N   0  0  0  0  0  0  0  0  0  0  0  0
  160.6560  206.4790  147.1410 C   0  0  0  0  0  3  0  0  0  0  0  0
  161.5560  204.6590  146.3810 C   0  0  0  0  0  3  0  0  0  0  0  0
  160.5140  205.0540  145.5710 C   0  0  0  0  0  0  0  0  0  0  0  0
  160.0960  204.3720  144.3170 C   0  0  0  0  0  2  0  0  0  0  0  0
  160.1320  202.9910  144.5000 O   0  0  0  0  0  1  0  0  0  0  0  0
  160.8770  203.3090  152.3520 O   0  0  0  0  0  0  0  0  0  0  0  0
  160.8290  204.3910  149.9100 C   0  0  2  0  0  3  0  0  0  0  0  0
  160.9700  203.5060  151.1510 C   0  0  0  0  0  0  0  0  0  0  0  0
  161.3180  203.0580  149.7330 C   0  0  1  0  0  3  0  0  0  0  0  0
  160.2150  202.1590  149.2150 C   0  0  0  0  0  2  0  0  0  0  0  0
  160.4520  201.8560  147.8750 O   0  0  0  0  0  1  0  0  0  0  0  0
  162.3290  211.3590  149.0630 N   0  0  0  0  0  0  0  0  0  0  0  0
  162.0150  210.3890  149.6090 C   0  0  0  0  0  0  0  0  0  0  0  0
  1  7  1  0  0  0  0
  2 10  1  0  0  0  0
  2  1  2  0  0  0  0
  3 11  1  6  0  0  0
  3  9  1  0  0  0  0
  4  8  1  0  0  0  0
  5  2  1  0  0  0  0
  6  3  1  0  0  0  0
  6  5  1  0  0  0  0
  7  8  2  0  0  0  0
  9 19  1  0  0  0  0
  9  1  1  6  0  0  0
 10  4  2  0  0  0  0
 12 13  2  0  0  0  0
 13 11  1  0  0  0  0
 14 11  1  0  0  0  0
 15 12  1  0  0  0  0
 15 14  2  0  0  0  0
 16 17  1  0  0  0  0
 16 15  1  0  0  0  0
 19 20  1  1  0  0  0
 20 18  2  0  0  0  0
 21 22  1  6  0  0  0
 21 19  1  0  0  0  0
 21 20  1  0  0  0  0
 23 22  1  0  0  0  0
 24 25  3  0  0  0  0
 25 10  1  0  0  0  0
M  END
>  <MODEL>
5

>  <REMARK>
 VINA RESULT:      -4.6      2.668      4.027
  Name = 
  5 active torsions:
  status: ('A' for Active; 'I' for Inactive)
    1  A    between atoms: C_1  and  C_25
    2  A    between atoms: C_2  and  CA_23
    3  A    between atoms: C_5  and  N_10
    4  A    between atoms: C_13  and  C_17
    5  A    between atoms: C_19  and  C_24
                            x       y       z     vdW  Elec       q    Type
                         _______ _______ _______ _____ _____    ______ ____

>  <TORSDO>
F 5

$$$$
=
 OpenBabel11042420123D

 25 28  0  0  1  0  0  0  0  0999 V2000
  161.6080  206.6090  150.2650 C   0  0  0  0  0  0  0  0  0  0  0  0
  161.6840  205.2560  150.6290 C   0  0  0  0  0  0  0  0  0  0  0  0
  162.6590  207.0450  152.5400 C   0  0  1  0  0  3  0  0  0  0  0  0
  160.4560  204.6410  148.6360 C   0  0  0  0  0  3  0  0  0  0  0  0
  162.3290  204.9340  151.8640 N   0  0  0  0  0  2  0  0  0  0  0  0
  163.2650  205.7770  152.3860 O   0  0  0  0  0  0  0  0  0  0  0  0
  160.9960  206.9650  149.0570 C   0  0  0  0  0  3  0  0  0  0  0  0
  160.4200  205.9820  148.2450 C   0  0  0  0  0  3  0  0  0  0  0  0
  162.2400  207.6480  151.1690 C   0  0  2  0  0  3  0  0  0  0  0  0
  161.0800  204.2710  149.8320 C   0  0  0  0  0  0  0  0  0  0  0  0
  161.5880  207.0230  153.5410 N   0  0  0  0  0  0  0  0  0  0  0  0
  159.7220  206.4900  154.6390 N   0  0  0  0  0  0  0  0  0  0  0  0
  160.4750  206.2620  153.5450 C   0  0  0  0  0  3  0  0  0  0  0  0
  161.5730  207.7610  154.6620 C   0  0  0  0  0  3  0  0  0  0  0  0
  160.4090  207.4290  155.3190 C   0  0  0  0  0  0  0  0  0  0  0  0
  159.9840  207.9700  156.6390 C   0  0  0  0  0  2  0  0  0  0  0  0
  159.9170  209.3610  156.5750 O   0  0  0  0  0  1  0  0  0  0  0  0
  162.1650  210.5920  149.4250 O   0  0  0  0  0  0  0  0  0  0  0  0
  161.3700  208.8970  151.3290 C   0  0  2  0  0  3  0  0  0  0  0  0
  161.9560  210.0340  150.4900 C   0  0  0  0  0  0  0  0  0  0  0  0
  162.0800  209.9360  152.0090 C   0  0  1  0  0  3  0  0  0  0  0  0
  161.1070  210.9050  152.6470 C   0  0  0  0  0  2  0  0  0  0  0  0
  159.8650  210.2880  152.7960 O   0  0  0  0  0  1  0  0  0  0  0  0
  161.1300  201.7670  150.5160 N   0  0  0  0  0  0  0  0  0  0  0  0
  161.1080  202.8840  150.2120 C   0  0  0  0  0  0  0  0  0  0  0  0
  1  2  1  0  0  0  0
  2  5  1  0  0  0  0
  3 11  1  1  0  0  0
  4 10  1  0  0  0  0
  5  6  1  0  0  0  0
  6  3  1  0  0  0  0
  7  1  2  0  0  0  0
  8  4  2  0  0  0  0
  8  7  1  0  0  0  0
  9  1  1  6  0  0  0
  9 19  1  0  0  0  0
  9  3  1  0  0  0  0
 10 25  1  0  0  0  0
 10  2  2  0  0  0  0
 11 13  1  0  0  0  0
 11 14  1  0  0  0  0
 12 15  1  0  0  0  0
 13 12  2  0  0  0  0
 14 15  2  0  0  0  0
 15 16  1  0  0  0  0
 17 16  1  0  0  0  0
 18 20  2  0  0  0  0
 19 20  1  6  0  0  0
 19 21  1  0  0  0  0
 20 21  1  0  0  0  0
 21 22  1  1  0  0  0
 22 23  1  0  0  0  0
 25 24  3  0  0  0  0
M  END
>  <MODEL>
6

>  <REMARK>
 VINA RESULT:      -4.3      2.863      6.648
  Name = 
  5 active torsions:
  status: ('A' for Active; 'I' for Inactive)
    1  A    between atoms: C_1  and  C_25
    2  A    between atoms: C_2  and  CA_23
    3  A    between atoms: C_5  and  N_10
    4  A    between atoms: C_13  and  C_17
    5  A    between atoms: C_19  and  C_24
                            x       y       z     vdW  Elec       q    Type
                         _______ _______ _______ _____ _____    ______ ____

>  <TORSDO>
F 5

$$$$
=
 OpenBabel11042420123D

 25 28  0  0  1  0  0  0  0  0999 V2000
  161.1250  204.3200  148.3690 C   0  0  0  0  0  0  0  0  0  0  0  0
  160.9300  205.0130  147.1650 C   0  0  0  0  0  0  0  0  0  0  0  0
  160.0330  206.3460  149.4510 C   0  0  1  0  0  3  0  0  0  0  0  0
  162.1740  203.3150  145.9720 C   0  0  0  0  0  3  0  0  0  0  0  0
  160.2170  206.2520  147.2190 N   0  0  0  0  0  2  0  0  0  0  0  0
  159.3330  206.4890  148.2300 O   0  0  0  0  0  0  0  0  0  0  0  0
  161.8060  203.0960  148.3570 C   0  0  0  0  0  3  0  0  0  0  0  0
  162.3310  202.5960  147.1610 C   0  0  0  0  0  3  0  0  0  0  0  0
  160.5470  204.8920  149.6470 C   0  0  2  0  0  3  0  0  0  0  0  0
  161.4810  204.5290  145.9690 C   0  0  0  0  0  0  0  0  0  0  0  0
  161.0630  207.3760  149.6170 N   0  0  0  0  0  0  0  0  0  0  0  0
  162.7970  208.7220  149.2300 N   0  0  0  0  0  0  0  0  0  0  0  0
  162.0470  207.7080  148.7560 C   0  0  0  0  0  3  0  0  0  0  0  0
  161.1610  208.1970  150.6740 C   0  0  0  0  0  3  0  0  0  0  0  0
  162.2450  209.0100  150.4250 C   0  0  0  0  0  0  0  0  0  0  0  0
  162.7130  210.1110  151.3090 C   0  0  0  0  0  2  0  0  0  0  0  0
  162.1700  209.9510  152.5830 O   0  0  0  0  0  1  0  0  0  0  0  0
  161.0550  202.3710  151.9060 O   0  0  0  0  0  0  0  0  0  0  0  0
  161.5070  204.7740  150.8330 C   0  0  2  0  0  3  0  0  0  0  0  0
  161.1100  203.5710  151.6900 C   0  0  0  0  0  0  0  0  0  0  0  0
  160.8320  205.0230  152.0700 C   0  0  1  0  0  3  0  0  0  0  0  0
  161.8240  205.4540  153.1300 C   0  0  0  0  0  2  0  0  0  0  0  0
  161.3040  206.5340  153.8440 O   0  0  0  0  0  1  0  0  0  0  0  0
  161.2060  205.8280  143.7380 N   0  0  0  0  0  0  0  0  0  0  0  0
  161.3290  205.2500  144.7320 C   0  0  0  0  0  0  0  0  0  0  0  0
  2  5  1  0  0  0  0
  2  1  2  0  0  0  0
  3 11  1  6  0  0  0
  3  9  1  0  0  0  0
  4  8  1  0  0  0  0
  5  6  1  0  0  0  0
  6  3  1  0  0  0  0
  7  1  1  0  0  0  0
  8  7  2  0  0  0  0
  9  1  1  6  0  0  0
  9 19  1  0  0  0  0
 10  4  2  0  0  0  0
 10  2  1  0  0  0  0
 11 14  1  0  0  0  0
 12 15  1  0  0  0  0
 13 12  2  0  0  0  0
 13 11  1  0  0  0  0
 15 14  2  0  0  0  0
 15 16  1  0  0  0  0
 16 17  1  0  0  0  0
 19 20  1  1  0  0  0
 19 21  1  0  0  0  0
 20 18  2  0  0  0  0
 20 21  1  0  0  0  0
 21 22  1  1  0  0  0
 22 23  1  0  0  0  0
 24 25  3  0  0  0  0
 25 10  1  0  0  0  0
M  END
>  <MODEL>
7

>  <REMARK>
 VINA RESULT:      -4.3      2.638      6.402
  Name = 
  5 active torsions:
  status: ('A' for Active; 'I' for Inactive)
    1  A    between atoms: C_1  and  C_25
    2  A    between atoms: C_2  and  CA_23
    3  A    between atoms: C_5  and  N_10
    4  A    between atoms: C_13  and  C_17
    5  A    between atoms: C_19  and  C_24
                            x       y       z     vdW  Elec       q    Type
                         _______ _______ _______ _____ _____    ______ ____

>  <TORSDO>
F 5

$$$$
=
 OpenBabel11042420123D

 25 28  0  0  1  0  0  0  0  0999 V2000
  159.3040  213.1520  147.9410 C   0  0  0  0  0  0  0  0  0  0  0  0
  159.9580  212.8010  146.7500 C   0  0  0  0  0  0  0  0  0  0  0  0
  161.5870  212.8470  149.0190 C   0  0  1  0  0  3  0  0  0  0  0  0
  157.8400  212.7790  145.5800 C   0  0  0  0  0  3  0  0  0  0  0  0
  161.3740  212.6080  146.8000 N   0  0  0  0  0  2  0  0  0  0  0  0
  162.1140  213.2280  147.7630 O   0  0  0  0  0  0  0  0  0  0  0  0
  157.9190  213.3630  147.9300 C   0  0  0  0  0  3  0  0  0  0  0  0
  157.1890  213.1750  146.7520 C   0  0  0  0  0  3  0  0  0  0  0  0
  160.1250  213.3450  149.1990 C   0  0  2  0  0  3  0  0  0  0  0  0
  159.2240  212.5820  145.5740 C   0  0  0  0  0  0  0  0  0  0  0  0
  161.7720  211.4160  149.2800 N   0  0  0  0  0  0  0  0  0  0  0  0
  162.0560  209.4710  150.3330 N   0  0  0  0  0  0  0  0  0  0  0  0
  161.9400  210.8070  150.4720 C   0  0  0  0  0  3  0  0  0  0  0  0
  161.7670  210.4590  148.3380 C   0  0  0  0  0  3  0  0  0  0  0  0
  161.9580  209.2690  149.0040 C   0  0  0  0  0  0  0  0  0  0  0  0
  161.9820  207.9250  148.3690 C   0  0  0  0  0  2  0  0  0  0  0  0
  161.1060  207.0730  149.0400 O   0  0  0  0  0  1  0  0  0  0  0  0
  157.5150  214.4390  151.1250 O   0  0  0  0  0  0  0  0  0  0  0  0
  159.4570  212.7400  150.4360 C   0  0  2  0  0  3  0  0  0  0  0  0
  158.5440  213.7850  151.0820 C   0  0  0  0  0  0  0  0  0  0  0  0
  159.9100  213.3810  151.6320 C   0  0  1  0  0  3  0  0  0  0  0  0
  159.7120  212.4680  152.8240 C   0  0  0  0  0  2  0  0  0  0  0  0
  158.6230  211.6290  152.5920 O   0  0  0  0  0  1  0  0  0  0  0  0
  160.3920  211.8510  143.3740 N   0  0  0  0  0  0  0  0  0  0  0  0
  159.8720  212.1770  144.3550 C   0  0  0  0  0  0  0  0  0  0  0  0
  2  5  1  0  0  0  0
  2  1  2  0  0  0  0
  3  9  1  0  0  0  0
  3 11  1  6  0  0  0
  4  8  1  0  0  0  0
  5  6  1  0  0  0  0
  6  3  1  0  0  0  0
  7  1  1  0  0  0  0
  8  7  2  0  0  0  0
  9  1  1  6  0  0  0
  9 19  1  0  0  0  0
 10  4  2  0  0  0  0
 10  2  1  0  0  0  0
 11 13  1  0  0  0  0
 12 13  2  0  0  0  0
 14 15  2  0  0  0  0
 14 11  1  0  0  0  0
 15 12  1  0  0  0  0
 16 15  1  0  0  0  0
 16 17  1  0  0  0  0
 19 20  1  6  0  0  0
 19 21  1  0  0  0  0
 20 18  2  0  0  0  0
 20 21  1  0  0  0  0
 21 22  1  1  0  0  0
 23 22  1  0  0  0  0
 24 25  3  0  0  0  0
 25 10  1  0  0  0  0
M  END
>  <MODEL>
8

>  <REMARK>
 VINA RESULT:      -4.2      3.731      5.884
  Name = 
  5 active torsions:
  status: ('A' for Active; 'I' for Inactive)
    1  A    between atoms: C_1  and  C_25
    2  A    between atoms: C_2  and  CA_23
    3  A    between atoms: C_5  and  N_10
    4  A    between atoms: C_13  and  C_17
    5  A    between atoms: C_19  and  C_24
                            x       y       z     vdW  Elec       q    Type
                         _______ _______ _______ _____ _____    ______ ____

>  <TORSDO>
F 5

$$$$
=
 OpenBabel11042420123D

 25 28  0  0  1  0  0  0  0  0999 V2000
  161.5210  206.1630  152.1720 C   0  0  0  0  0  0  0  0  0  0  0  0
  161.7580  207.5250  151.9340 C   0  0  0  0  0  0  0  0  0  0  0  0
  162.6260  205.8060  149.9100 C   0  0  1  0  0  3  0  0  0  0  0  0
  160.5100  208.1020  153.9250 C   0  0  0  0  0  3  0  0  0  0  0  0
  162.4930  207.8770  150.7580 N   0  0  0  0  0  2  0  0  0  0  0  0
  163.3570  206.9820  150.2000 O   0  0  0  0  0  0  0  0  0  0  0  0
  160.8160  205.7770  153.3200 C   0  0  0  0  0  3  0  0  0  0  0  0
  160.3110  206.7450  154.1930 C   0  0  0  0  0  3  0  0  0  0  0  0
  162.0800  205.1410  151.2040 C   0  0  2  0  0  3  0  0  0  0  0  0
  161.2260  208.5000  152.7920 C   0  0  0  0  0  0  0  0  0  0  0  0
  161.6130  206.0320  148.8740 N   0  0  0  0  0  0  0  0  0  0  0  0
  159.7060  206.5780  147.8560 N   0  0  0  0  0  0  0  0  0  0  0  0
  160.3460  206.4640  149.0370 C   0  0  0  0  0  3  0  0  0  0  0  0
  161.8150  205.8680  147.5580 C   0  0  0  0  0  3  0  0  0  0  0  0
  160.6240  206.1960  146.9470 C   0  0  0  0  0  0  0  0  0  0  0  0
  160.3860  206.2030  145.4790 C   0  0  0  0  0  2  0  0  0  0  0  0
  161.1260  205.1860  144.8790 O   0  0  0  0  0  1  0  0  0  0  0  0
  162.0440  201.8470  152.1350 O   0  0  0  0  0  0  0  0  0  0  0  0
  161.0900  204.0140  150.9000 C   0  0  2  0  0  3  0  0  0  0  0  0
  161.7080  202.6730  151.3030 C   0  0  0  0  0  0  0  0  0  0  0  0
  161.5810  203.1620  149.8620 C   0  0  1  0  0  3  0  0  0  0  0  0
  160.4330  202.4350  149.1930 C   0  0  0  0  0  2  0  0  0  0  0  0
  160.7890  201.1040  148.9720 O   0  0  0  0  0  1  0  0  0  0  0  0
  161.5760  211.0310  152.3340 N   0  0  0  0  0  0  0  0  0  0  0  0
  161.4210  209.9030  152.5380 C   0  0  0  0  0  0  0  0  0  0  0  0
  1  7  1  0  0  0  0
  2  1  2  0  0  0  0
  2 10  1  0  0  0  0
  3 11  1  6  0  0  0
  3  6  1  0  0  0  0
  3  9  1  0  0  0  0
  4  8  1  0  0  0  0
  5  2  1  0  0  0  0
  6  5  1  0  0  0  0
  7  8  2  0  0  0  0
  9  1  1  1  0  0  0
 10  4  2  0  0  0  0
 11 13  1  0  0  0  0
 12 13  2  0  0  0  0
 14 11  1  0  0  0  0
 15 14  2  0  0  0  0
 15 12  1  0  0  0  0
 16 15  1  0  0  0  0
 17 16  1  0  0  0  0
 19  9  1  0  0  0  0
 19 20  1  1  0  0  0
 20 18  2  0  0  0  0
 21 22  1  6  0  0  0
 21 19  1  0  0  0  0
 21 20  1  0  0  0  0
 23 22  1  0  0  0  0
 24 25  3  0  0  0  0
 25 10  1  0  0  0  0
M  END
>  <MODEL>
9

>  <REMARK>
 VINA RESULT:      -4.1      2.394      3.759
  Name = 
  5 active torsions:
  status: ('A' for Active; 'I' for Inactive)
    1  A    between atoms: C_1  and  C_25
    2  A    between atoms: C_2  and  CA_23
    3  A    between atoms: C_5  and  N_10
    4  A    between atoms: C_13  and  C_17
    5  A    between atoms: C_19  and  C_24
                            x       y       z     vdW  Elec       q    Type
                         _______ _______ _______ _____ _____    ______ ____

>  <TORSDO>
F 5

$$$$
