=
 OpenBabel11052411523D

 32 36  0  0  1  0  0  0  0  0999 V2000
  159.1480  211.5430  155.3640 C   0  0  0  0  0  3  0  0  0  0  0  0
  160.8850  208.6970  151.0830 C   0  0  0  0  0  3  0  0  0  0  0  0
  162.3670  206.7870  151.5260 C   0  0  0  0  0  0  0  0  0  0  0  0
  160.0450  209.8830  153.2950 C   0  0  0  0  0  0  0  0  0  0  0  0
  158.9040  211.8840  154.0050 C   0  0  0  0  0  3  0  0  0  0  0  0
  160.9020  208.8010  157.1280 C   0  0  0  0  0  3  0  0  0  0  0  0
  159.8460  210.3590  155.6620 C   0  0  0  0  0  0  0  0  0  0  0  0
  163.2940  206.0350  151.1230 O   0  0  0  0  0  0  0  0  0  0  0  0
  161.3300  208.0020  156.0360 C   0  0  0  0  0  3  0  0  0  0  0  0
  159.3620  211.0530  152.9480 C   0  0  0  0  0  3  0  0  0  0  0  0
  161.2410  207.9450  153.4000 C   0  0  0  0  0  0  0  0  0  0  0  0
  161.6820  207.7340  150.5830 C   0  0  0  0  0  0  0  0  0  0  0  0
  160.9630  208.4290  154.7580 C   0  0  0  0  0  0  0  0  0  0  0  0
  160.2520  209.5740  154.6040 C   0  0  0  0  0  0  0  0  0  0  0  0
  160.6980  208.8140  152.5330 C   0  0  0  0  0  0  0  0  0  0  0  0
  160.1740  209.9540  156.9240 N   0  0  0  0  0  0  0  0  0  0  0  0
  161.9340  206.6820  152.9720 C   0  0  1  0  0  3  0  0  0  0  0  0
  161.0510  206.8330  148.3040 N   0  0  0  0  0  2  0  0  0  0  0  0
  161.2420  206.7150  146.8680 C   0  0  0  0  0  1  0  0  0  0  0  0
  161.8850  207.6620  149.1170 C   0  0  0  0  0  0  0  0  0  0  0  0
  162.8030  208.3390  148.5750 O   0  0  0  0  0  0  0  0  0  0  0  0
  161.0230  205.5510  153.1010 N   0  0  0  0  0  2  0  0  0  0  0  0
  160.7850  205.0700  151.8570 O   0  0  0  0  0  0  0  0  0  0  0  0
  160.9180  203.6870  151.9870 C   0  0  0  0  0  2  0  0  0  0  0  0
  161.0030  203.0580  150.6360 C   0  0  0  0  0  0  0  0  0  0  0  0
  161.1280  203.8450  149.5530 C   0  0  0  0  0  3  0  0  0  0  0  0
  160.6540  201.8910  148.0410 C   0  0  2  0  0  3  0  0  0  0  0  0
  161.2480  203.2960  148.1530 C   0  0  0  0  0  2  0  0  0  0  0  0
  160.7990  201.5640  150.5210 C   0  0  0  0  0  2  0  0  0  0  0  0
  161.2090  201.0090  149.1560 C   0  0  0  0  0  2  0  0  0  0  0  0
  160.9560  201.2830  146.6740 C   0  0  0  0  0  2  0  0  0  0  0  0
  160.7920  202.2300  145.6590 O   0  0  0  0  0  1  0  0  0  0  0  0
  1  7  1  0  0  0  0
  2 15  1  0  0  0  0
  3 17  1  0  0  0  0
  4 14  1  0  0  0  0
  5  1  2  0  0  0  0
  7 16  2  0  0  0  0
  8  3  2  0  0  0  0
  9  6  2  0  0  0  0
 10  4  2  0  0  0  0
 10  5  1  0  0  0  0
 11 13  1  0  0  0  0
 12  2  2  0  0  0  0
 12  3  1  0  0  0  0
 13  9  1  0  0  0  0
 14 13  2  0  0  0  0
 14  7  1  0  0  0  0
 15  4  1  0  0  0  0
 15 11  2  0  0  0  0
 16  6  1  0  0  0  0
 17 22  1  6  0  0  0
 17 11  1  0  0  0  0
 18 20  1  0  0  0  0
 19 18  1  0  0  0  0
 20 12  1  0  0  0  0
 21 20  2  0  0  0  0
 23 24  1  0  0  0  0
 23 22  1  0  0  0  0
 25 24  1  0  0  0  0
 26 25  2  0  0  0  0
 27 31  1  6  0  0  0
 27 28  1  0  0  0  0
 27 30  1  0  0  0  0
 28 26  1  0  0  0  0
 29 25  1  0  0  0  0
 30 29  1  0  0  0  0
 32 31  1  0  0  0  0
M  END
>  <MODEL>
1

>  <REMARK>
 VINA RESULT:      -9.2      0.000      0.000
  Name = 
  6 active torsions:
  status: ('A' for Active; 'I' for Inactive)
    1  A    between atoms: C_2  and  C_3
    2  A    between atoms: C_2  and  O_13
    3  A    between atoms: C_10  and  C_17
    4  A    between atoms: O_13  and  N_20
    5  A    between atoms: C_18  and  C_24
    6  A    between atoms: N_20  and  C_32
                            x       y       z     vdW  Elec       q    Type
                         _______ _______ _______ _____ _____    ______ ____

>  <TORSDO>
F 6

$$$$
=
 OpenBabel11052411523D

 32 36  0  0  1  0  0  0  0  0999 V2000
  161.5850  202.7790  145.8530 C   0  0  0  0  0  3  0  0  0  0  0  0
  162.0180  207.4990  148.4950 C   0  0  0  0  0  3  0  0  0  0  0  0
  161.0280  207.6290  150.7410 C   0  0  0  0  0  0  0  0  0  0  0  0
  161.8160  205.0900  147.4180 C   0  0  0  0  0  0  0  0  0  0  0  0
  162.1250  203.9740  145.3040 C   0  0  0  0  0  3  0  0  0  0  0  0
  160.1700  201.7770  149.1240 C   0  0  0  0  0  3  0  0  0  0  0  0
  161.1670  202.7670  147.1960 C   0  0  0  0  0  0  0  0  0  0  0  0
  160.4950  208.3360  151.6370 O   0  0  0  0  0  0  0  0  0  0  0  0
  160.3140  202.9790  149.8650 C   0  0  0  0  0  3  0  0  0  0  0  0
  162.2390  205.1550  146.0860 C   0  0  0  0  0  3  0  0  0  0  0  0
  161.1970  205.4490  149.5820 C   0  0  0  0  0  0  0  0  0  0  0  0
  161.6890  208.2650  149.5520 C   0  0  0  0  0  0  0  0  0  0  0  0
  160.9190  204.0550  149.2130 C   0  0  0  0  0  0  0  0  0  0  0  0
  161.3170  203.9290  147.9220 C   0  0  0  0  0  0  0  0  0  0  0  0
  161.7250  206.0630  148.5120 C   0  0  0  0  0  0  0  0  0  0  0  0
  160.5960  201.6930  147.8160 N   0  0  0  0  0  0  0  0  0  0  0  0
  161.0210  206.1260  150.9130 C   0  0  1  0  0  3  0  0  0  0  0  0
  161.7810  210.4490  148.2760 N   0  0  0  0  0  2  0  0  0  0  0  0
  162.0670  211.8710  148.1740 C   0  0  0  0  0  1  0  0  0  0  0  0
  161.9590  209.7210  149.4930 C   0  0  0  0  0  0  0  0  0  0  0  0
  162.3520  210.3300  150.5270 O   0  0  0  0  0  0  0  0  0  0  0  0
  162.1160  205.7570  151.8020 N   0  0  0  0  0  2  0  0  0  0  0  0
  162.2200  206.7210  152.7480 O   0  0  0  0  0  0  0  0  0  0  0  0
  161.5390  206.2020  153.8500 C   0  0  0  0  0  2  0  0  0  0  0  0
  161.1220  207.3130  154.7560 C   0  0  0  0  0  0  0  0  0  0  0  0
  160.4560  207.0230  155.8870 C   0  0  0  0  0  3  0  0  0  0  0  0
  159.8890  209.4520  156.2130 C   0  0  2  0  0  3  0  0  0  0  0  0
  160.0200  208.0770  156.8730 C   0  0  0  0  0  2  0  0  0  0  0  0
  161.3350  208.7380  154.2950 C   0  0  0  0  0  2  0  0  0  0  0  0
  161.1550  209.7620  155.4170 C   0  0  0  0  0  2  0  0  0  0  0  0
  159.6350  210.5330  157.2610 C   0  0  0  0  0  2  0  0  0  0  0  0
  158.6490  211.4250  156.8290 O   0  0  0  0  0  1  0  0  0  0  0  0
  1  7  1  0  0  0  0
  2 15  1  0  0  0  0
  2 12  2  0  0  0  0
  3 17  1  0  0  0  0
  3  8  2  0  0  0  0
  4 14  1  0  0  0  0
  4 15  1  0  0  0  0
  5  1  2  0  0  0  0
  5 10  1  0  0  0  0
  6  9  1  0  0  0  0
  7 16  1  0  0  0  0
  7 14  2  0  0  0  0
 10  4  2  0  0  0  0
 11 17  1  0  0  0  0
 12  3  1  0  0  0  0
 13 11  1  0  0  0  0
 13  9  2  0  0  0  0
 14 13  1  0  0  0  0
 15 11  2  0  0  0  0
 16  6  2  0  0  0  0
 17 22  1  1  0  0  0
 18 20  1  0  0  0  0
 19 18  1  0  0  0  0
 20 12  1  0  0  0  0
 20 21  2  0  0  0  0
 22 23  1  0  0  0  0
 23 24  1  0  0  0  0
 24 25  1  0  0  0  0
 25 26  2  0  0  0  0
 26 28  1  0  0  0  0
 27 28  1  0  0  0  0
 27 31  1  1  0  0  0
 29 25  1  0  0  0  0
 29 30  1  0  0  0  0
 30 27  1  0  0  0  0
 32 31  1  0  0  0  0
M  END
>  <MODEL>
2

>  <REMARK>
 VINA RESULT:      -8.9      2.630      8.137
  Name = 
  6 active torsions:
  status: ('A' for Active; 'I' for Inactive)
    1  A    between atoms: C_2  and  C_3
    2  A    between atoms: C_2  and  O_13
    3  A    between atoms: C_10  and  C_17
    4  A    between atoms: O_13  and  N_20
    5  A    between atoms: C_18  and  C_24
    6  A    between atoms: N_20  and  C_32
                            x       y       z     vdW  Elec       q    Type
                         _______ _______ _______ _____ _____    ______ ____

>  <TORSDO>
F 6

$$$$
=
 OpenBabel11052411523D

 32 36  0  0  1  0  0  0  0  0999 V2000
  160.8670  209.3700  156.2270 C   0  0  0  0  0  3  0  0  0  0  0  0
  161.2460  205.2470  152.7200 C   0  0  0  0  0  3  0  0  0  0  0  0
  160.6910  205.7100  150.3710 C   0  0  0  0  0  0  0  0  0  0  0  0
  161.1230  207.4010  154.2520 C   0  0  0  0  0  0  0  0  0  0  0  0
  161.1520  208.0230  156.5810 C   0  0  0  0  0  3  0  0  0  0  0  0
  160.2220  211.1940  153.0710 C   0  0  0  0  0  3  0  0  0  0  0  0
  160.7150  209.7080  154.8700 C   0  0  0  0  0  0  0  0  0  0  0  0
  160.2590  205.2810  149.2680 O   0  0  0  0  0  0  0  0  0  0  0  0
  160.3640  210.1530  152.1170 C   0  0  0  0  0  3  0  0  0  0  0  0
  161.2760  207.0140  155.5870 C   0  0  0  0  0  3  0  0  0  0  0  0
  160.8870  207.5700  151.9910 C   0  0  0  0  0  0  0  0  0  0  0  0
  161.0370  204.7600  151.4820 C   0  0  0  0  0  0  0  0  0  0  0  0
  160.7070  208.8910  152.6060 C   0  0  0  0  0  0  0  0  0  0  0  0
  160.8650  208.7000  153.9410 C   0  0  0  0  0  0  0  0  0  0  0  0
  161.1300  206.6860  152.9710 C   0  0  0  0  0  0  0  0  0  0  0  0
  160.3990  210.9560  154.4170 N   0  0  0  0  0  0  0  0  0  0  0  0
  160.8900  207.2010  150.5340 C   0  0  1  0  0  3  0  0  0  0  0  0
  160.8330  202.7320  149.9830 N   0  0  0  0  0  2  0  0  0  0  0  0
  160.8760  201.2990  149.7410 C   0  0  0  0  0  1  0  0  0  0  0  0
  161.1220  203.2970  151.2630 C   0  0  0  0  0  0  0  0  0  0  0  0
  161.4550  202.5370  152.2150 O   0  0  0  0  0  0  0  0  0  0  0  0
  162.1680  207.5650  149.9340 N   0  0  0  0  0  2  0  0  0  0  0  0
  161.9270  207.9780  148.6680 O   0  0  0  0  0  0  0  0  0  0  0  0
  162.8900  207.3240  147.8990 C   0  0  0  0  0  2  0  0  0  0  0  0
  162.2290  206.3530  146.9780 C   0  0  0  0  0  0  0  0  0  0  0  0
  161.0190  206.6490  146.4710 C   0  0  0  0  0  3  0  0  0  0  0  0
  160.7560  204.2890  145.6400 C   0  0  2  0  0  3  0  0  0  0  0  0
  160.2890  205.7410  145.5140 C   0  0  0  0  0  2  0  0  0  0  0  0
  162.8780  205.0040  146.7640 C   0  0  0  0  0  2  0  0  0  0  0  0
  162.2800  204.2330  145.5850 C   0  0  0  0  0  2  0  0  0  0  0  0
  160.1460  203.4260  144.5380 C   0  0  0  0  0  2  0  0  0  0  0  0
  160.1640  202.0740  144.8940 O   0  0  0  0  0  1  0  0  0  0  0  0
  1  5  1  0  0  0  0
  2 15  1  0  0  0  0
  3 17  1  0  0  0  0
  3 12  1  0  0  0  0
  4 10  1  0  0  0  0
  6 16  2  0  0  0  0
  7  1  2  0  0  0  0
  8  3  2  0  0  0  0
  9 13  2  0  0  0  0
  9  6  1  0  0  0  0
 10  5  2  0  0  0  0
 11 13  1  0  0  0  0
 11 15  2  0  0  0  0
 12  2  2  0  0  0  0
 13 14  1  0  0  0  0
 14  4  2  0  0  0  0
 14  7  1  0  0  0  0
 15  4  1  0  0  0  0
 16  7  1  0  0  0  0
 17 22  1  1  0  0  0
 17 11  1  0  0  0  0
 18 20  1  0  0  0  0
 19 18  1  0  0  0  0
 20 12  1  0  0  0  0
 20 21  2  0  0  0  0
 23 22  1  0  0  0  0
 24 23  1  0  0  0  0
 25 24  1  0  0  0  0
 26 25  2  0  0  0  0
 27 31  1  6  0  0  0
 28 27  1  0  0  0  0
 28 26  1  0  0  0  0
 29 25  1  0  0  0  0
 30 27  1  0  0  0  0
 30 29  1  0  0  0  0
 31 32  1  0  0  0  0
M  END
>  <MODEL>
3

>  <REMARK>
 VINA RESULT:      -8.9      1.806      4.033
  Name = 
  6 active torsions:
  status: ('A' for Active; 'I' for Inactive)
    1  A    between atoms: C_2  and  C_3
    2  A    between atoms: C_2  and  O_13
    3  A    between atoms: C_10  and  C_17
    4  A    between atoms: O_13  and  N_20
    5  A    between atoms: C_18  and  C_24
    6  A    between atoms: N_20  and  C_32
                            x       y       z     vdW  Elec       q    Type
                         _______ _______ _______ _____ _____    ______ ____

>  <TORSDO>
F 6

$$$$
=
 OpenBabel11052411523D

 32 36  0  0  1  0  0  0  0  0999 V2000
  160.4420  208.8550  156.1710 C   0  0  0  0  0  3  0  0  0  0  0  0
  161.0520  205.6550  151.8310 C   0  0  0  0  0  3  0  0  0  0  0  0
  160.8100  206.6980  149.6190 C   0  0  0  0  0  0  0  0  0  0  0  0
  160.8440  207.3920  153.8170 C   0  0  0  0  0  0  0  0  0  0  0  0
  160.6180  207.4440  156.2160 C   0  0  0  0  0  3  0  0  0  0  0  0
  160.2720  211.4130  153.5010 C   0  0  0  0  0  3  0  0  0  0  0  0
  160.4720  209.5120  154.9290 C   0  0  0  0  0  0  0  0  0  0  0  0
  160.4960  206.5740  148.4050 O   0  0  0  0  0  0  0  0  0  0  0  0
  160.4800  210.6170  152.3440 C   0  0  0  0  0  3  0  0  0  0  0  0
  160.8150  206.6910  155.0280 C   0  0  0  0  0  3  0  0  0  0  0  0
  160.8940  208.1050  151.6530 C   0  0  0  0  0  0  0  0  0  0  0  0
  160.9730  205.4910  150.4970 C   0  0  0  0  0  0  0  0  0  0  0  0
  160.7020  209.2540  152.5470 C   0  0  0  0  0  0  0  0  0  0  0  0
  160.6870  208.7430  153.8040 C   0  0  0  0  0  0  0  0  0  0  0  0
  160.9730  207.0000  152.4100 C   0  0  0  0  0  0  0  0  0  0  0  0
  160.2720  210.8520  154.7600 N   0  0  0  0  0  0  0  0  0  0  0  0
  161.0570  208.0900  150.1580 C   0  0  1  0  0  3  0  0  0  0  0  0
  160.8290  202.9810  150.7860 N   0  0  0  0  0  2  0  0  0  0  0  0
  160.8960  201.6200  150.2800 C   0  0  0  0  0  1  0  0  0  0  0  0
  161.0160  204.1180  149.9410 C   0  0  0  0  0  0  0  0  0  0  0  0
  161.2190  203.9460  148.7060 O   0  0  0  0  0  0  0  0  0  0  0  0
  162.4140  208.4880  149.8050 N   0  0  0  0  0  2  0  0  0  0  0  0
  162.3330  209.3460  148.7610 O   0  0  0  0  0  0  0  0  0  0  0  0
  162.2790  210.6090  149.3510 C   0  0  0  0  0  2  0  0  0  0  0  0
  162.0280  211.6450  148.3050 C   0  0  0  0  0  0  0  0  0  0  0  0
  160.8530  211.6470  147.6530 C   0  0  0  0  0  3  0  0  0  0  0  0
  161.7530  213.2910  145.9740 C   0  0  2  0  0  3  0  0  0  0  0  0
  160.5030  212.6710  146.6020 C   0  0  0  0  0  2  0  0  0  0  0  0
  163.1630  212.5660  147.9150 C   0  0  0  0  0  2  0  0  0  0  0  0
  162.7020  213.7590  147.0750 C   0  0  0  0  0  2  0  0  0  0  0  0
  161.3790  214.4530  145.0580 C   0  0  0  0  0  2  0  0  0  0  0  0
  160.2790  214.1260  144.2600 O   0  0  0  0  0  1  0  0  0  0  0  0
  1  5  1  0  0  0  0
  2 15  1  0  0  0  0
  3 17  1  0  0  0  0
  3 12  1  0  0  0  0
  4 10  1  0  0  0  0
  6 16  2  0  0  0  0
  7  1  2  0  0  0  0
  8  3  2  0  0  0  0
  9 13  2  0  0  0  0
  9  6  1  0  0  0  0
 10  5  2  0  0  0  0
 11 15  2  0  0  0  0
 11 13  1  0  0  0  0
 12  2  2  0  0  0  0
 13 14  1  0  0  0  0
 14  4  2  0  0  0  0
 14  7  1  0  0  0  0
 15  4  1  0  0  0  0
 16  7  1  0  0  0  0
 17 22  1  1  0  0  0
 17 11  1  0  0  0  0
 19 18  1  0  0  0  0
 20 12  1  0  0  0  0
 20 18  1  0  0  0  0
 21 20  2  0  0  0  0
 23 24  1  0  0  0  0
 23 22  1  0  0  0  0
 25 24  1  0  0  0  0
 26 25  2  0  0  0  0
 27 31  1  1  0  0  0
 27 28  1  0  0  0  0
 27 30  1  0  0  0  0
 28 26  1  0  0  0  0
 29 25  1  0  0  0  0
 30 29  1  0  0  0  0
 32 31  1  0  0  0  0
M  END
>  <MODEL>
4

>  <REMARK>
 VINA RESULT:      -8.8      3.433      6.558
  Name = 
  6 active torsions:
  status: ('A' for Active; 'I' for Inactive)
    1  A    between atoms: C_2  and  C_3
    2  A    between atoms: C_2  and  O_13
    3  A    between atoms: C_10  and  C_17
    4  A    between atoms: O_13  and  N_20
    5  A    between atoms: C_18  and  C_24
    6  A    between atoms: N_20  and  C_32
                            x       y       z     vdW  Elec       q    Type
                         _______ _______ _______ _____ _____    ______ ____

>  <TORSDO>
F 6

$$$$
=
 OpenBabel11052411523D

 32 36  0  0  1  0  0  0  0  0999 V2000
  160.7430  201.8850  147.2880 C   0  0  0  0  0  3  0  0  0  0  0  0
  160.8570  205.3680  151.4470 C   0  0  0  0  0  3  0  0  0  0  0  0
  162.1890  207.4140  151.1690 C   0  0  0  0  0  0  0  0  0  0  0  0
  160.8230  203.8570  149.2750 C   0  0  0  0  0  0  0  0  0  0  0  0
  160.1560  201.6530  148.5620 C   0  0  0  0  0  3  0  0  0  0  0  0
  162.6260  204.6550  145.7110 C   0  0  0  0  0  3  0  0  0  0  0  0
  161.3660  203.1200  147.0320 C   0  0  0  0  0  0  0  0  0  0  0  0
  162.8760  208.3270  151.7020 O   0  0  0  0  0  0  0  0  0  0  0  0
  162.6330  205.6140  146.7570 C   0  0  0  0  0  3  0  0  0  0  0  0
  160.1970  202.6430  149.5800 C   0  0  0  0  0  3  0  0  0  0  0  0
  161.7830  205.9240  149.2360 C   0  0  0  0  0  0  0  0  0  0  0  0
  161.3680  206.4800  152.0090 C   0  0  0  0  0  0  0  0  0  0  0  0
  161.9620  205.2710  147.9330 C   0  0  0  0  0  0  0  0  0  0  0  0
  161.3630  204.0580  148.0430 C   0  0  0  0  0  0  0  0  0  0  0  0
  161.1100  205.0800  150.0330 C   0  0  0  0  0  0  0  0  0  0  0  0
  161.9990  203.4370  145.8650 N   0  0  0  0  0  0  0  0  0  0  0  0
  162.1830  207.3100  149.6590 C   0  0  1  0  0  3  0  0  0  0  0  0
  160.8310  208.0430  153.9260 N   0  0  0  0  0  2  0  0  0  0  0  0
  160.6240  208.3270  155.3370 C   0  0  0  0  0  1  0  0  0  0  0  0
  161.1300  206.7280  153.4510 C   0  0  0  0  0  0  0  0  0  0  0  0
  161.1920  205.7710  154.2720 O   0  0  0  0  0  0  0  0  0  0  0  0
  161.2320  208.2810  149.1320 N   0  0  0  0  0  2  0  0  0  0  0  0
  161.9140  209.1290  148.3270 O   0  0  0  0  0  0  0  0  0  0  0  0
  161.8180  210.3680  148.9640 C   0  0  0  0  0  2  0  0  0  0  0  0
  161.7510  211.4570  147.9450 C   0  0  0  0  0  0  0  0  0  0  0  0
  160.6690  211.5470  147.1510 C   0  0  0  0  0  3  0  0  0  0  0  0
  161.8510  213.2080  145.6780 C   0  0  2  0  0  3  0  0  0  0  0  0
  160.5040  212.6300  146.1150 C   0  0  0  0  0  2  0  0  0  0  0  0
  162.9680  212.3310  147.7430 C   0  0  0  0  0  2  0  0  0  0  0  0
  162.6740  213.5800  146.9090 C   0  0  0  0  0  2  0  0  0  0  0  0
  161.6520  214.4250  144.7770 C   0  0  0  0  0  2  0  0  0  0  0  0
  161.6290  214.0510  143.4300 O   0  0  0  0  0  1  0  0  0  0  0  0
  1  5  1  0  0  0  0
  2 12  2  0  0  0  0
  3  8  2  0  0  0  0
  3 12  1  0  0  0  0
  4 10  1  0  0  0  0
  4 15  1  0  0  0  0
  5 10  2  0  0  0  0
  6 16  2  0  0  0  0
  6  9  1  0  0  0  0
  7  1  2  0  0  0  0
  7 14  1  0  0  0  0
  9 13  2  0  0  0  0
 11 17  1  0  0  0  0
 11 15  2  0  0  0  0
 12 20  1  0  0  0  0
 13 14  1  0  0  0  0
 13 11  1  0  0  0  0
 14  4  2  0  0  0  0
 15  2  1  0  0  0  0
 16  7  1  0  0  0  0
 17 22  1  6  0  0  0
 17  3  1  0  0  0  0
 18 19  1  0  0  0  0
 20 18  1  0  0  0  0
 20 21  2  0  0  0  0
 23 24  1  0  0  0  0
 23 22  1  0  0  0  0
 25 24  1  0  0  0  0
 26 25  2  0  0  0  0
 27 31  1  6  0  0  0
 27 28  1  0  0  0  0
 27 30  1  0  0  0  0
 28 26  1  0  0  0  0
 29 25  1  0  0  0  0
 30 29  1  0  0  0  0
 32 31  1  0  0  0  0
M  END
>  <MODEL>
5

>  <REMARK>
 VINA RESULT:      -8.6      3.467      8.741
  Name = 
  6 active torsions:
  status: ('A' for Active; 'I' for Inactive)
    1  A    between atoms: C_2  and  C_3
    2  A    between atoms: C_2  and  O_13
    3  A    between atoms: C_10  and  C_17
    4  A    between atoms: O_13  and  N_20
    5  A    between atoms: C_18  and  C_24
    6  A    between atoms: N_20  and  C_32
                            x       y       z     vdW  Elec       q    Type
                         _______ _______ _______ _____ _____    ______ ____

>  <TORSDO>
F 6

$$$$
=
 OpenBabel11052411523D

 32 36  0  0  1  0  0  0  0  0999 V2000
  160.3960  209.2350  155.6520 C   0  0  0  0  0  3  0  0  0  0  0  0
  161.4470  210.6690  150.5260 C   0  0  0  0  0  3  0  0  0  0  0  0
  162.2990  208.9250  149.0190 C   0  0  0  0  0  0  0  0  0  0  0  0
  160.8790  209.7550  152.9430 C   0  0  0  0  0  0  0  0  0  0  0  0
  160.3240  210.5610  155.1460 C   0  0  0  0  0  3  0  0  0  0  0  0
  161.2090  205.9080  154.2440 C   0  0  0  0  0  3  0  0  0  0  0  0
  160.7120  208.1800  154.7770 C   0  0  0  0  0  0  0  0  0  0  0  0
  162.9910  208.6250  148.0090 O   0  0  0  0  0  0  0  0  0  0  0  0
  161.4420  206.2360  152.8830 C   0  0  0  0  0  3  0  0  0  0  0  0
  160.5750  210.8380  153.7750 C   0  0  0  0  0  3  0  0  0  0  0  0
  161.4640  208.3230  151.2690 C   0  0  0  0  0  0  0  0  0  0  0  0
  161.9590  210.3560  149.3200 C   0  0  0  0  0  0  0  0  0  0  0  0
  161.2730  207.5720  152.5170 C   0  0  0  0  0  0  0  0  0  0  0  0
  160.9270  208.4940  153.4510 C   0  0  0  0  0  0  0  0  0  0  0  0
  161.2340  209.6190  151.5260 C   0  0  0  0  0  0  0  0  0  0  0  0
  160.8520  206.8770  155.1580 N   0  0  0  0  0  0  0  0  0  0  0  0
  161.7870  207.8030  149.8960 C   0  0  1  0  0  3  0  0  0  0  0  0
  161.1470  211.9170  147.5020 N   0  0  0  0  0  2  0  0  0  0  0  0
  161.3560  212.9580  146.5090 C   0  0  0  0  0  1  0  0  0  0  0  0
  162.2020  211.4410  148.3410 C   0  0  0  0  0  0  0  0  0  0  0  0
  163.3510  211.9540  148.2420 O   0  0  0  0  0  0  0  0  0  0  0  0
  160.5860  207.2490  149.2830 N   0  0  0  0  0  2  0  0  0  0  0  0
  160.9580  206.1800  148.5390 O   0  0  0  0  0  0  0  0  0  0  0  0
  161.1830  205.1680  149.4730 C   0  0  0  0  0  2  0  0  0  0  0  0
  161.1260  203.8370  148.7990 C   0  0  0  0  0  0  0  0  0  0  0  0
  160.7860  202.7520  149.5170 C   0  0  0  0  0  3  0  0  0  0  0  0
  161.5110  201.2440  147.6380 C   0  0  2  0  0  3  0  0  0  0  0  0
  160.6760  201.3740  148.9140 C   0  0  0  0  0  2  0  0  0  0  0  0
  161.5940  203.7340  147.3650 C   0  0  0  0  0  2  0  0  0  0  0  0
  161.2030  202.4110  146.7030 C   0  0  0  0  0  2  0  0  0  0  0  0
  161.2360  199.9120  146.9450 C   0  0  0  0  0  2  0  0  0  0  0  0
  160.7830  200.1140  145.6380 O   0  0  0  0  0  1  0  0  0  0  0  0
  2 15  1  0  0  0  0
  3 12  1  0  0  0  0
  3 17  1  0  0  0  0
  4 14  2  0  0  0  0
  4 10  1  0  0  0  0
  5  1  1  0  0  0  0
  6 16  2  0  0  0  0
  7 16  1  0  0  0  0
  7  1  2  0  0  0  0
  8  3  2  0  0  0  0
  9  6  1  0  0  0  0
 10  5  2  0  0  0  0
 11 15  2  0  0  0  0
 11 13  1  0  0  0  0
 12  2  2  0  0  0  0
 13  9  2  0  0  0  0
 13 14  1  0  0  0  0
 14  7  1  0  0  0  0
 15  4  1  0  0  0  0
 17 22  1  6  0  0  0
 17 11  1  0  0  0  0
 18 20  1  0  0  0  0
 19 18  1  0  0  0  0
 20 12  1  0  0  0  0
 21 20  2  0  0  0  0
 23 22  1  0  0  0  0
 23 24  1  0  0  0  0
 25 24  1  0  0  0  0
 25 26  2  0  0  0  0
 27 31  1  6  0  0  0
 27 28  1  0  0  0  0
 28 26  1  0  0  0  0
 29 25  1  0  0  0  0
 30 29  1  0  0  0  0
 30 27  1  0  0  0  0
 32 31  1  0  0  0  0
M  END
>  <MODEL>
6

>  <REMARK>
 VINA RESULT:      -8.6      2.123      3.085
  Name = 
  6 active torsions:
  status: ('A' for Active; 'I' for Inactive)
    1  A    between atoms: C_2  and  C_3
    2  A    between atoms: C_2  and  O_13
    3  A    between atoms: C_10  and  C_17
    4  A    between atoms: O_13  and  N_20
    5  A    between atoms: C_18  and  C_24
    6  A    between atoms: N_20  and  C_32
                            x       y       z     vdW  Elec       q    Type
                         _______ _______ _______ _____ _____    ______ ____

>  <TORSDO>
F 6

$$$$
=
 OpenBabel11052411523D

 32 36  0  0  1  0  0  0  0  0999 V2000
  160.8380  202.8920  148.6410 C   0  0  0  0  0  3  0  0  0  0  0  0
  160.9390  207.0510  152.1250 C   0  0  0  0  0  3  0  0  0  0  0  0
  162.2630  209.0220  151.4900 C   0  0  0  0  0  0  0  0  0  0  0  0
  160.9100  205.1820  150.2520 C   0  0  0  0  0  0  0  0  0  0  0  0
  160.2530  202.8850  149.9370 C   0  0  0  0  0  3  0  0  0  0  0  0
  162.7080  205.3510  146.6000 C   0  0  0  0  0  3  0  0  0  0  0  0
  161.4550  204.0660  148.1720 C   0  0  0  0  0  0  0  0  0  0  0  0
  162.9450  210.0170  151.8530 O   0  0  0  0  0  0  0  0  0  0  0  0
  162.7110  206.4780  147.4620 C   0  0  0  0  0  3  0  0  0  0  0  0
  160.2910  204.0380  150.7650 C   0  0  0  0  0  3  0  0  0  0  0  0
  161.8610  207.2140  149.8490 C   0  0  0  0  0  0  0  0  0  0  0  0
  161.4460  208.2460  152.4820 C   0  0  0  0  0  0  0  0  0  0  0  0
  162.0420  206.3440  148.6800 C   0  0  0  0  0  0  0  0  0  0  0  0
  161.4490  205.1660  149.0020 C   0  0  0  0  0  0  0  0  0  0  0  0
  161.1920  206.5200  150.7820 C   0  0  0  0  0  0  0  0  0  0  0  0
  162.0860  204.1760  146.9660 N   0  0  0  0  0  0  0  0  0  0  0  0
  162.2560  208.6540  150.0220 C   0  0  1  0  0  3  0  0  0  0  0  0
  161.2170  207.8450  154.9710 N   0  0  0  0  0  2  0  0  0  0  0  0
  160.9570  208.2920  156.3290 C   0  0  0  0  0  1  0  0  0  0  0  0
  161.2080  208.7430  153.8590 C   0  0  0  0  0  0  0  0  0  0  0  0
  160.9950  209.9710  154.0560 O   0  0  0  0  0  0  0  0  0  0  0  0
  161.3000  209.5140  149.3340 N   0  0  0  0  0  2  0  0  0  0  0  0
  161.9270  210.0510  148.2610 O   0  0  0  0  0  0  0  0  0  0  0  0
  162.1820  211.3720  148.6310 C   0  0  0  0  0  2  0  0  0  0  0  0
  160.9880  212.2190  148.3360 C   0  0  0  0  0  0  0  0  0  0  0  0
  160.4080  212.9060  149.3350 C   0  0  0  0  0  3  0  0  0  0  0  0
  158.4260  213.4190  147.8740 C   0  0  2  0  0  3  0  0  0  0  0  0
  159.2170  213.8060  149.1250 C   0  0  0  0  0  2  0  0  0  0  0  0
  160.3850  212.1580  146.9500 C   0  0  0  0  0  2  0  0  0  0  0  0
  159.3770  213.2790  146.6880 C   0  0  0  0  0  2  0  0  0  0  0  0
  157.3430  214.4530  147.5750 C   0  0  0  0  0  2  0  0  0  0  0  0
  156.9360  214.3790  146.2400 O   0  0  0  0  0  1  0  0  0  0  0  0
  1  5  1  0  0  0  0
  2 12  2  0  0  0  0
  3  8  2  0  0  0  0
  3 12  1  0  0  0  0
  4 10  1  0  0  0  0
  4 15  1  0  0  0  0
  5 10  2  0  0  0  0
  6 16  2  0  0  0  0
  6  9  1  0  0  0  0
  7  1  2  0  0  0  0
  7 14  1  0  0  0  0
  9 13  2  0  0  0  0
 11 17  1  0  0  0  0
 11 15  2  0  0  0  0
 12 20  1  0  0  0  0
 13 14  1  0  0  0  0
 13 11  1  0  0  0  0
 14  4  2  0  0  0  0
 15  2  1  0  0  0  0
 16  7  1  0  0  0  0
 17 22  1  6  0  0  0
 17  3  1  0  0  0  0
 18 19  1  0  0  0  0
 20 21  2  0  0  0  0
 20 18  1  0  0  0  0
 23 24  1  0  0  0  0
 23 22  1  0  0  0  0
 25 24  1  0  0  0  0
 25 26  2  0  0  0  0
 27 31  1  6  0  0  0
 27 28  1  0  0  0  0
 28 26  1  0  0  0  0
 29 25  1  0  0  0  0
 30 29  1  0  0  0  0
 30 27  1  0  0  0  0
 32 31  1  0  0  0  0
M  END
>  <MODEL>
7

>  <REMARK>
 VINA RESULT:      -8.0      3.522      8.488
  Name = 
  6 active torsions:
  status: ('A' for Active; 'I' for Inactive)
    1  A    between atoms: C_2  and  C_3
    2  A    between atoms: C_2  and  O_13
    3  A    between atoms: C_10  and  C_17
    4  A    between atoms: O_13  and  N_20
    5  A    between atoms: C_18  and  C_24
    6  A    between atoms: N_20  and  C_32
                            x       y       z     vdW  Elec       q    Type
                         _______ _______ _______ _____ _____    ______ ____

>  <TORSDO>
F 6

$$$$
=
 OpenBabel11052411523D

 32 36  0  0  1  0  0  0  0  0999 V2000
  160.8000  203.3690  148.8100 C   0  0  0  0  0  3  0  0  0  0  0  0
  160.9220  207.2220  152.6290 C   0  0  0  0  0  3  0  0  0  0  0  0
  162.2000  209.2620  152.1320 C   0  0  0  0  0  0  0  0  0  0  0  0
  160.8760  205.5170  150.6060 C   0  0  0  0  0  0  0  0  0  0  0  0
  160.2460  203.2430  150.1140 C   0  0  0  0  0  3  0  0  0  0  0  0
  162.5820  206.0220  146.9410 C   0  0  0  0  0  3  0  0  0  0  0  0
  161.3880  204.5880  148.4280 C   0  0  0  0  0  0  0  0  0  0  0  0
  162.8760  210.2340  152.5620 O   0  0  0  0  0  0  0  0  0  0  0  0
  162.5890  207.0720  147.8950 C   0  0  0  0  0  3  0  0  0  0  0  0
  160.2870  204.3230  151.0360 C   0  0  0  0  0  3  0  0  0  0  0  0
  161.7860  207.5910  150.3540 C   0  0  0  0  0  0  0  0  0  0  0  0
  161.4190  208.3920  153.0740 C   0  0  0  0  0  0  0  0  0  0  0  0
  161.9520  206.8250  149.1130 C   0  0  0  0  0  0  0  0  0  0  0  0
  161.3850  205.6140  149.3480 C   0  0  0  0  0  0  0  0  0  0  0  0
  161.1510  206.8100  151.2410 C   0  0  0  0  0  0  0  0  0  0  0  0
  161.9870  204.8100  147.2210 N   0  0  0  0  0  0  0  0  0  0  0  0
  162.1630  209.0190  150.6390 C   0  0  1  0  0  3  0  0  0  0  0  0
  160.5120  207.8910  155.3830 N   0  0  0  0  0  2  0  0  0  0  0  0
  160.2600  208.2410  156.7710 C   0  0  0  0  0  1  0  0  0  0  0  0
  161.2080  208.7660  154.4920 C   0  0  0  0  0  0  0  0  0  0  0  0
  161.6450  209.8700  154.9230 O   0  0  0  0  0  0  0  0  0  0  0  0
  161.1780  209.9170  150.0480 N   0  0  0  0  0  2  0  0  0  0  0  0
  161.6650  210.3350  148.8560 O   0  0  0  0  0  0  0  0  0  0  0  0
  161.5200  211.7230  148.8900 C   0  0  0  0  0  2  0  0  0  0  0  0
  161.4500  212.2580  147.4980 C   0  0  0  0  0  0  0  0  0  0  0  0
  162.5730  212.7090  146.9100 C   0  0  0  0  0  3  0  0  0  0  0  0
  161.2240  213.7370  145.0520 C   0  0  2  0  0  3  0  0  0  0  0  0
  162.6000  213.2390  145.4990 C   0  0  0  0  0  2  0  0  0  0  0  0
  160.0920  212.4090  146.8500 C   0  0  0  0  0  2  0  0  0  0  0  0
  160.1730  212.6690  145.3450 C   0  0  0  0  0  2  0  0  0  0  0  0
  161.2320  214.0900  143.5670 C   0  0  0  0  0  2  0  0  0  0  0  0
  162.4960  213.8760  143.0100 O   0  0  0  0  0  1  0  0  0  0  0  0
  1  5  1  0  0  0  0
  2 12  2  0  0  0  0
  3  8  2  0  0  0  0
  3 12  1  0  0  0  0
  4 10  1  0  0  0  0
  4 15  1  0  0  0  0
  5 10  2  0  0  0  0
  6 16  2  0  0  0  0
  6  9  1  0  0  0  0
  7  1  2  0  0  0  0
  7 14  1  0  0  0  0
  9 13  2  0  0  0  0
 11 17  1  0  0  0  0
 11 15  2  0  0  0  0
 12 20  1  0  0  0  0
 13 14  1  0  0  0  0
 13 11  1  0  0  0  0
 14  4  2  0  0  0  0
 15  2  1  0  0  0  0
 16  7  1  0  0  0  0
 17 22  1  6  0  0  0
 17  3  1  0  0  0  0
 18 19  1  0  0  0  0
 20 21  2  0  0  0  0
 20 18  1  0  0  0  0
 23 24  1  0  0  0  0
 23 22  1  0  0  0  0
 25 24  1  0  0  0  0
 26 25  2  0  0  0  0
 27 31  1  6  0  0  0
 27 30  1  0  0  0  0
 27 28  1  0  0  0  0
 28 26  1  0  0  0  0
 29 25  1  0  0  0  0
 30 29  1  0  0  0  0
 32 31  1  0  0  0  0
M  END
>  <MODEL>
8

>  <REMARK>
 VINA RESULT:      -7.5      3.839      8.348
  Name = 
  6 active torsions:
  status: ('A' for Active; 'I' for Inactive)
    1  A    between atoms: C_2  and  C_3
    2  A    between atoms: C_2  and  O_13
    3  A    between atoms: C_10  and  C_17
    4  A    between atoms: O_13  and  N_20
    5  A    between atoms: C_18  and  C_24
    6  A    between atoms: N_20  and  C_32
                            x       y       z     vdW  Elec       q    Type
                         _______ _______ _______ _____ _____    ______ ____

>  <TORSDO>
F 6

$$$$
=
 OpenBabel11052411523D

 32 36  0  0  1  0  0  0  0  0999 V2000
  160.2550  208.0410  155.2210 C   0  0  0  0  0  3  0  0  0  0  0  0
  160.8340  211.2820  150.9070 C   0  0  0  0  0  3  0  0  0  0  0  0
  162.3290  210.5150  149.1140 C   0  0  0  0  0  0  0  0  0  0  0  0
  160.5840  209.5190  152.8640 C   0  0  0  0  0  0  0  0  0  0  0  0
  159.6990  209.3450  155.1000 C   0  0  0  0  0  3  0  0  0  0  0  0
  162.3120  205.8350  153.0750 C   0  0  0  0  0  3  0  0  0  0  0  0
  160.9740  207.4970  154.1420 C   0  0  0  0  0  0  0  0  0  0  0  0
  163.1130  210.8110  148.1730 O   0  0  0  0  0  0  0  0  0  0  0  0
  162.4430  206.6320  151.9080 C   0  0  0  0  0  3  0  0  0  0  0  0
  159.8670  210.1060  153.9120 C   0  0  0  0  0  3  0  0  0  0  0  0
  161.7190  208.9860  150.9610 C   0  0  0  0  0  0  0  0  0  0  0  0
  161.4630  211.5630  149.7500 C   0  0  0  0  0  0  0  0  0  0  0  0
  161.7900  207.8660  151.9080 C   0  0  0  0  0  0  0  0  0  0  0  0
  161.0920  208.2640  153.0020 C   0  0  0  0  0  0  0  0  0  0  0  0
  161.0060  209.9680  151.5340 C   0  0  0  0  0  0  0  0  0  0  0  0
  161.5860  206.2770  154.1600 N   0  0  0  0  0  0  0  0  0  0  0  0
  162.2560  209.0710  149.5590 C   0  0  1  0  0  3  0  0  0  0  0  0
  161.3590  213.1000  147.7420 N   0  0  0  0  0  2  0  0  0  0  0  0
  161.2380  214.4130  147.1300 C   0  0  0  0  0  1  0  0  0  0  0  0
  161.3030  212.9130  149.1580 C   0  0  0  0  0  0  0  0  0  0  0  0
  161.1160  213.9100  149.9090 O   0  0  0  0  0  0  0  0  0  0  0  0
  161.3740  208.3510  148.6490 N   0  0  0  0  0  2  0  0  0  0  0  0
  162.1370  207.4970  147.9260 O   0  0  0  0  0  0  0  0  0  0  0  0
  161.2160  206.6810  147.2660 C   0  0  0  0  0  2  0  0  0  0  0  0
  161.1230  205.3620  147.9590 C   0  0  0  0  0  0  0  0  0  0  0  0
  160.7790  205.3260  149.2590 C   0  0  0  0  0  3  0  0  0  0  0  0
  161.4400  202.9040  149.3990 C   0  0  2  0  0  3  0  0  0  0  0  0
  160.6330  204.0400  150.0310 C   0  0  0  0  0  2  0  0  0  0  0  0
  161.5610  204.1220  147.2130 C   0  0  0  0  0  2  0  0  0  0  0  0
  161.1350  202.8260  147.9050 C   0  0  0  0  0  2  0  0  0  0  0  0
  161.1290  201.5740  150.0810 C   0  0  0  0  0  2  0  0  0  0  0  0
  159.8150  201.1740  149.8190 O   0  0  0  0  0  1  0  0  0  0  0  0
  2 15  1  0  0  0  0
  3 17  1  0  0  0  0
  3 12  1  0  0  0  0
  4 14  2  0  0  0  0
  4 10  1  0  0  0  0
  5  1  1  0  0  0  0
  6 16  2  0  0  0  0
  7 16  1  0  0  0  0
  7  1  2  0  0  0  0
  8  3  2  0  0  0  0
  9  6  1  0  0  0  0
 10  5  2  0  0  0  0
 11 15  2  0  0  0  0
 11 13  1  0  0  0  0
 12  2  2  0  0  0  0
 13  9  2  0  0  0  0
 13 14  1  0  0  0  0
 14  7  1  0  0  0  0
 15  4  1  0  0  0  0
 17 22  1  6  0  0  0
 17 11  1  0  0  0  0
 18 20  1  0  0  0  0
 19 18  1  0  0  0  0
 20 12  1  0  0  0  0
 20 21  2  0  0  0  0
 23 22  1  0  0  0  0
 24 23  1  0  0  0  0
 24 25  1  0  0  0  0
 25 26  2  0  0  0  0
 26 28  1  0  0  0  0
 27 28  1  0  0  0  0
 27 31  1  1  0  0  0
 29 30  1  0  0  0  0
 29 25  1  0  0  0  0
 30 27  1  0  0  0  0
 32 31  1  0  0  0  0
M  END
>  <MODEL>
9

>  <REMARK>
 VINA RESULT:      -7.4      2.639      4.120
  Name = 
  6 active torsions:
  status: ('A' for Active; 'I' for Inactive)
    1  A    between atoms: C_2  and  C_3
    2  A    between atoms: C_2  and  O_13
    3  A    between atoms: C_10  and  C_17
    4  A    between atoms: O_13  and  N_20
    5  A    between atoms: C_18  and  C_24
    6  A    between atoms: N_20  and  C_32
                            x       y       z     vdW  Elec       q    Type
                         _______ _______ _______ _____ _____    ______ ____

>  <TORSDO>
F 6

$$$$
