=
 OpenBabel11062410143D

 43 48  0  0  1  0  0  0  0  0999 V2000
  161.2560  203.9410  148.3190 C   0  0  0  0  0  0  0  0  0  0  0  0
  161.6650  208.2570  150.9920 C   0  0  0  0  0  0  0  0  0  0  0  0
  162.0520  210.3120  149.0960 C   0  0  0  0  0  0  0  0  0  0  0  0
  161.3370  205.5990  150.1200 C   0  0  0  0  0  0  0  0  0  0  0  0
  161.4730  204.8560  147.3730 C   0  0  0  0  0  3  0  0  0  0  0  0
  161.1000  202.6410  147.9710 F   0  0  0  0  0  0  0  0  0  0  0  0
  161.5730  206.6230  149.1740 C   0  0  0  0  0  0  0  0  0  0  0  0
  161.1850  204.3290  149.7360 C   0  0  0  0  0  3  0  0  0  0  0  0
  161.6510  206.3160  147.6950 C   0  0  0  0  0  2  0  0  0  0  0  0
  161.9340  208.9770  148.6840 O   0  0  0  0  0  0  0  0  0  0  0  0
  161.7270  207.9480  149.6140 C   0  0  0  0  0  0  0  0  0  0  0  0
  161.4170  207.2260  151.9110 C   0  0  0  0  0  3  0  0  0  0  0  0
  161.8190  209.5410  151.3940 C   0  0  0  0  0  0  0  0  0  0  0  0
  161.9950  210.6130  150.3940 C   0  0  0  0  0  3  0  0  0  0  0  0
  161.2580  205.9090  151.4780 C   0  0  0  0  0  3  0  0  0  0  0  0
  162.2440  211.3940  148.0900 C   0  0  1  0  0  3  0  0  0  0  0  0
  160.9050  211.8840  147.5830 C   0  0  0  0  0  2  0  0  0  0  0  0
  162.9300  212.4740  148.6660 O   0  0  0  0  0  0  0  0  0  0  0  0
  161.0610  213.3730  147.5300 C   0  0  1  0  0  3  0  0  0  0  0  0
  162.4920  213.6050  147.9630 C   0  0  0  0  0  2  0  0  0  0  0  0
  160.8550  213.8620  146.1070 C   0  0  0  0  0  2  0  0  0  0  0  0
  159.4490  214.2050  145.8860 N   0  0  0  0  0  0  0  0  0  0  0  0
  157.8140  212.5740  145.3820 N   0  0  0  0  0  0  0  0  0  0  0  0
  158.7450  213.7640  147.0170 N   0  0  0  0  0  2  0  0  0  0  0  0
  158.8090  213.4520  144.7690 C   0  0  1  0  0  0  0  0  0  0  0  0
  158.0970  214.4510  143.8710 C   0  0  0  0  0  1  0  0  0  0  0  0
  157.8010  212.7860  146.6460 C   0  0  0  0  0  3  0  0  0  0  0  0
  159.7880  212.6210  143.9120 C   0  0  0  0  0  2  0  0  0  0  0  0
  160.0440  212.0390  141.6150 C   0  0  0  0  0  2  0  0  0  0  0  0
  161.0460  214.0960  142.5350 C   0  0  0  0  0  2  0  0  0  0  0  0
  162.3050  212.0290  142.4800 O   0  0  0  0  0  0  0  0  0  0  0  0
  162.3970  213.4110  142.2690 C   0  0  0  0  0  2  0  0  0  0  0  0
  161.4920  211.5530  141.4420 C   0  0  0  0  0  2  0  0  0  0  0  0
  159.9100  213.1600  142.5600 N   0  0  0  0  0  0  0  0  0  0  0  0
  161.7590  209.9220  152.7770 N   0  0  0  0  0  2  0  0  0  0  0  0
  160.5580  210.0960  153.5390 C   0  0  0  0  0  0  0  0  0  0  0  0
  160.4900  209.6810  155.1260 S   0  0  0  0  0  0  0  0  0  0  0  0
  159.4390  210.8890  152.9550 C   0  0  0  0  0  2  0  0  0  0  0  0
  159.6920  212.3810  153.1080 C   0  0  2  0  0  3  0  0  0  0  0  0
  159.0220  212.8700  154.2310 O   0  0  0  0  0  1  0  0  0  0  0  0
  158.0010  213.7630  151.8900 O   0  0  0  0  0  1  0  0  0  0  0  0
  159.9310  213.0930  150.8500 O   0  0  0  0  0  0  0  0  0  0  0  0
  159.2240  213.1010  151.8900 C   0  0  0  0  0  0  0  0  0  0  0  0
  1  8  1  0  0  0  0
  2 13  2  0  0  0  0
  2 12  1  0  0  0  0
  3 14  2  0  0  0  0
  4 15  1  0  0  0  0
  5  9  1  0  0  0  0
  5  1  2  0  0  0  0
  6  1  1  0  0  0  0
  7 11  2  0  0  0  0
  7  4  1  0  0  0  0
  8  4  2  0  0  0  0
  9  7  1  0  0  0  0
 10  3  1  0  0  0  0
 10 11  1  0  0  0  0
 11  2  1  0  0  0  0
 13 35  1  0  0  0  0
 14 13  1  0  0  0  0
 15 12  2  0  0  0  0
 16 18  1  0  0  0  0
 16  3  1  1  0  0  0
 17 16  1  0  0  0  0
 19 21  1  6  0  0  0
 19 17  1  0  0  0  0
 19 20  1  0  0  0  0
 20 18  1  0  0  0  0
 22 21  1  0  0  0  0
 22 24  1  0  0  0  0
 23 27  2  0  0  0  0
 25 26  1  6  0  0  0
 25 23  1  0  0  0  0
 25 22  1  0  0  0  0
 27 24  1  0  0  0  0
 28 25  1  0  0  0  0
 29 34  1  0  0  0  0
 30 34  1  0  0  0  0
 32 31  1  0  0  0  0
 32 30  1  0  0  0  0
 33 29  1  0  0  0  0
 33 31  1  0  0  0  0
 34 28  1  0  0  0  0
 35 36  1  0  0  0  0
 36 37  2  0  0  0  0
 38 39  1  0  0  0  0
 38 36  1  0  0  0  0
 39 40  1  1  0  0  0
 41 43  1  0  0  0  0
 42 43  2  0  0  0  0
 43 39  1  0  0  0  0
M  END
>  <MODEL>
1

>  <REMARK>
 VINA RESULT:      -8.8      0.000      0.000
  Name = 
  10 active torsions:
  status: ('A' for Active; 'I' for Inactive)
    1  A    between atoms: C_1  and  C_9
    2  A    between atoms: C_1  and  N_35
    3  A    between atoms: C_2  and  C_13
    4  A    between atoms: C_3  and  N_4
    5  A    between atoms: C_3  and  C_12
    6  A    between atoms: C_9  and  C_32
    7  A    between atoms: C_14  and  C_22
    8  A    between atoms: C_14  and  N_40
    9  A    between atoms: C_32  and  C_37
   10  A    between atoms: C_34  and  N_35
                            x       y       z     vdW  Elec       q    Type
                         _______ _______ _______ _____ _____    ______ ____

>  <TORSDO>
F 10

$$$$
=
 OpenBabel11062410143D

 43 48  0  0  1  0  0  0  0  0999 V2000
  161.2020  203.9780  148.2070 C   0  0  0  0  0  0  0  0  0  0  0  0
  161.7000  208.2640  150.9130 C   0  0  0  0  0  0  0  0  0  0  0  0
  162.0810  210.3320  149.0300 C   0  0  0  0  0  0  0  0  0  0  0  0
  161.3290  205.6180  150.0220 C   0  0  0  0  0  0  0  0  0  0  0  0
  161.4150  204.8990  147.2660 C   0  0  0  0  0  3  0  0  0  0  0  0
  161.0270  202.6840  147.8500 F   0  0  0  0  0  0  0  0  0  0  0  0
  161.5620  206.6480  149.0820 C   0  0  0  0  0  0  0  0  0  0  0  0
  161.1570  204.3540  149.6290 C   0  0  0  0  0  3  0  0  0  0  0  0
  161.6150  206.3540  147.6000 C   0  0  0  0  0  2  0  0  0  0  0  0
  161.9420  209.0030  148.6080 O   0  0  0  0  0  0  0  0  0  0  0  0
  161.7380  207.9680  149.5320 C   0  0  0  0  0  0  0  0  0  0  0  0
  161.4540  207.2280  151.8260 C   0  0  0  0  0  3  0  0  0  0  0  0
  161.8740  209.5430  151.3240 C   0  0  0  0  0  0  0  0  0  0  0  0
  162.0480  210.6220  150.3310 C   0  0  0  0  0  3  0  0  0  0  0  0
  161.2730  205.9180  151.3840 C   0  0  0  0  0  3  0  0  0  0  0  0
  162.2710  211.4210  148.0310 C   0  0  1  0  0  3  0  0  0  0  0  0
  160.9320  211.9090  147.5240 C   0  0  0  0  0  2  0  0  0  0  0  0
  162.9510  212.5010  148.6150 O   0  0  0  0  0  0  0  0  0  0  0  0
  161.0800  213.3990  147.4800 C   0  0  1  0  0  3  0  0  0  0  0  0
  162.5100  213.6340  147.9180 C   0  0  0  0  0  2  0  0  0  0  0  0
  160.8760  213.8960  146.0600 C   0  0  0  0  0  2  0  0  0  0  0  0
  159.4650  214.2180  145.8330 N   0  0  0  0  0  0  0  0  0  0  0  0
  157.8590  212.5640  145.3120 N   0  0  0  0  0  0  0  0  0  0  0  0
  158.7630  213.7610  146.9580 N   0  0  0  0  0  2  0  0  0  0  0  0
  158.8430  213.4600  144.7090 C   0  0  1  0  0  0  0  0  0  0  0  0
  158.1210  214.4530  143.8120 C   0  0  0  0  0  1  0  0  0  0  0  0
  157.8360  212.7700  146.5770 C   0  0  0  0  0  3  0  0  0  0  0  0
  159.8400  212.6490  143.8530 C   0  0  0  0  0  2  0  0  0  0  0  0
  160.0040  212.0610  141.5490 C   0  0  0  0  0  2  0  0  0  0  0  0
  161.1210  214.0710  142.4410 C   0  0  0  0  0  2  0  0  0  0  0  0
  162.2870  211.9520  142.3490 O   0  0  0  0  0  0  0  0  0  0  0  0
  162.4320  213.3290  142.1360 C   0  0  0  0  0  2  0  0  0  0  0  0
  161.4250  211.5130  141.3350 C   0  0  0  0  0  2  0  0  0  0  0  0
  159.9460  213.1850  142.4990 N   0  0  0  0  0  0  0  0  0  0  0  0
  161.8390  209.9120  152.7110 N   0  0  0  0  0  2  0  0  0  0  0  0
  160.6530  210.1860  153.4680 C   0  0  0  0  0  0  0  0  0  0  0  0
  159.4670  211.1530  152.8730 S   0  0  0  0  0  0  0  0  0  0  0  0
  160.3810  209.3880  154.6980 C   0  0  0  0  0  2  0  0  0  0  0  0
  161.6680  209.0990  155.4540 C   0  0  2  0  0  3  0  0  0  0  0  0
  161.4750  208.0420  156.3460 O   0  0  0  0  0  1  0  0  0  0  0  0
  161.2270  210.9510  157.0750 O   0  0  0  0  0  1  0  0  0  0  0  0
  163.2560  210.7780  156.0240 O   0  0  0  0  0  0  0  0  0  0  0  0
  162.1000  210.3140  156.2010 C   0  0  0  0  0  0  0  0  0  0  0  0
  1  8  1  0  0  0  0
  2 13  2  0  0  0  0
  2 12  1  0  0  0  0
  3 14  2  0  0  0  0
  4 15  1  0  0  0  0
  5  9  1  0  0  0  0
  5  1  2  0  0  0  0
  6  1  1  0  0  0  0
  7 11  2  0  0  0  0
  7  4  1  0  0  0  0
  8  4  2  0  0  0  0
  9  7  1  0  0  0  0
 10  3  1  0  0  0  0
 10 11  1  0  0  0  0
 11  2  1  0  0  0  0
 13 35  1  0  0  0  0
 14 13  1  0  0  0  0
 15 12  2  0  0  0  0
 16 18  1  0  0  0  0
 16  3  1  1  0  0  0
 17 16  1  0  0  0  0
 19 21  1  6  0  0  0
 19 17  1  0  0  0  0
 19 20  1  0  0  0  0
 20 18  1  0  0  0  0
 22 21  1  0  0  0  0
 22 24  1  0  0  0  0
 23 27  2  0  0  0  0
 25 26  1  6  0  0  0
 25 23  1  0  0  0  0
 25 22  1  0  0  0  0
 27 24  1  0  0  0  0
 28 25  1  0  0  0  0
 29 34  1  0  0  0  0
 30 34  1  0  0  0  0
 32 31  1  0  0  0  0
 32 30  1  0  0  0  0
 33 29  1  0  0  0  0
 33 31  1  0  0  0  0
 34 28  1  0  0  0  0
 35 36  1  0  0  0  0
 36 38  1  0  0  0  0
 37 36  2  0  0  0  0
 38 39  1  0  0  0  0
 39 43  1  0  0  0  0
 39 40  1  1  0  0  0
 42 43  2  0  0  0  0
 43 41  1  0  0  0  0
M  END
>  <MODEL>
2

>  <REMARK>
 VINA RESULT:      -8.7      1.539      2.112
  Name = 
  10 active torsions:
  status: ('A' for Active; 'I' for Inactive)
    1  A    between atoms: C_1  and  C_9
    2  A    between atoms: C_1  and  N_35
    3  A    between atoms: C_2  and  C_13
    4  A    between atoms: C_3  and  N_4
    5  A    between atoms: C_3  and  C_12
    6  A    between atoms: C_9  and  C_32
    7  A    between atoms: C_14  and  C_22
    8  A    between atoms: C_14  and  N_40
    9  A    between atoms: C_32  and  C_37
   10  A    between atoms: C_34  and  N_35
                            x       y       z     vdW  Elec       q    Type
                         _______ _______ _______ _____ _____    ______ ____

>  <TORSDO>
F 10

$$$$
=
 OpenBabel11062410143D

 43 48  0  0  1  0  0  0  0  0999 V2000
  160.8510  202.4980  148.9970 C   0  0  0  0  0  0  0  0  0  0  0  0
  161.5940  207.5350  149.1220 C   0  0  0  0  0  0  0  0  0  0  0  0
  161.5620  208.2580  151.8500 C   0  0  0  0  0  0  0  0  0  0  0  0
  161.2590  204.8350  148.3910 C   0  0  0  0  0  0  0  0  0  0  0  0
  160.7870  202.7740  150.3000 C   0  0  0  0  0  3  0  0  0  0  0  0
  160.6870  201.2210  148.5740 F   0  0  0  0  0  0  0  0  0  0  0  0
  161.2010  205.2050  149.7540 C   0  0  0  0  0  0  0  0  0  0  0  0
  161.0960  203.5650  148.0140 C   0  0  0  0  0  3  0  0  0  0  0  0
  160.9630  204.1720  150.8330 C   0  0  0  0  0  3  0  0  0  0  0  0
  161.3500  206.9270  151.4650 O   0  0  0  0  0  0  0  0  0  0  0  0
  161.3780  206.5510  150.1140 C   0  0  0  0  0  0  0  0  0  0  0  0
  161.6610  207.1430  147.7770 C   0  0  0  0  0  2  0  0  0  0  0  0
  161.7600  208.8270  149.4910 C   0  0  0  0  0  0  0  0  0  0  0  0
  161.7670  209.1930  150.9220 C   0  0  0  0  0  3  0  0  0  0  0  0
  161.4920  205.8060  147.4150 C   0  0  0  0  0  3  0  0  0  0  0  0
  161.5560  208.6320  153.2930 C   0  0  1  0  0  3  0  0  0  0  0  0
  160.2060  209.1930  153.6830 C   0  0  0  0  0  2  0  0  0  0  0  0
  161.8210  207.5050  154.0860 O   0  0  0  0  0  0  0  0  0  0  0  0
  159.9280  208.5720  155.0190 C   0  0  1  0  0  3  0  0  0  0  0  0
  161.1650  207.7480  155.3000 C   0  0  0  0  0  2  0  0  0  0  0  0
  159.7680  209.6580  156.0680 C   0  0  0  0  0  2  0  0  0  0  0  0
  160.4110  210.8950  155.6220 N   0  0  0  0  0  0  0  0  0  0  0  0
  160.3710  212.8760  156.9120 N   0  0  0  0  0  0  0  0  0  0  0  0
  161.5580  211.0580  156.4140 N   0  0  0  0  0  2  0  0  0  0  0  0
  159.6200  212.1270  155.9070 C   0  0  1  0  0  0  0  0  0  0  0  0
  159.5520  212.9490  154.6290 C   0  0  0  0  0  1  0  0  0  0  0  0
  161.4610  212.2480  157.1640 C   0  0  0  0  0  3  0  0  0  0  0  0
  158.1840  211.8650  156.4090 C   0  0  0  0  0  2  0  0  0  0  0  0
  156.2990  213.3050  156.1760 C   0  0  0  0  0  2  0  0  0  0  0  0
  156.4830  211.2150  154.8800 C   0  0  0  0  0  2  0  0  0  0  0  0
  155.3620  211.2400  157.0250 O   0  0  0  0  0  0  0  0  0  0  0  0
  155.2910  210.7310  155.7220 C   0  0  0  0  0  2  0  0  0  0  0  0
  155.1270  212.6150  156.8950 C   0  0  0  0  0  2  0  0  0  0  0  0
  157.1860  212.3670  155.4680 N   0  0  0  0  0  0  0  0  0  0  0  0
  161.9910  209.8730  148.5350 N   0  0  0  0  0  2  0  0  0  0  0  0
  162.1420  211.2640  148.8450 C   0  0  0  0  0  0  0  0  0  0  0  0
  163.3460  212.1590  148.1790 S   0  0  0  0  0  0  0  0  0  0  0  0
  161.0500  211.9620  149.5820 C   0  0  0  0  0  2  0  0  0  0  0  0
  160.9150  213.4040  149.1150 C   0  0  2  0  0  3  0  0  0  0  0  0
  160.5250  214.2200  150.1790 O   0  0  0  0  0  1  0  0  0  0  0  0
  160.2880  213.8690  146.7390 O   0  0  0  0  0  0  0  0  0  0  0  0
  158.6990  213.2340  148.2640 O   0  0  0  0  0  1  0  0  0  0  0  0
  159.9060  213.4890  148.0210 C   0  0  0  0  0  0  0  0  0  0  0  0
  1  5  1  0  0  0  0
  2 13  2  0  0  0  0
  2 11  1  0  0  0  0
  4  7  1  0  0  0  0
  5  9  2  0  0  0  0
  6  1  1  0  0  0  0
  7 11  2  0  0  0  0
  7  9  1  0  0  0  0
  8  4  1  0  0  0  0
  8  1  2  0  0  0  0
 10  3  1  0  0  0  0
 11 10  1  0  0  0  0
 12  2  1  0  0  0  0
 13 14  1  0  0  0  0
 14  3  2  0  0  0  0
 15 12  1  0  0  0  0
 15  4  2  0  0  0  0
 16  3  1  6  0  0  0
 16 17  1  0  0  0  0
 16 18  1  0  0  0  0
 17 19  1  0  0  0  0
 18 20  1  0  0  0  0
 19 20  1  0  0  0  0
 19 21  1  1  0  0  0
 22 25  1  0  0  0  0
 22 21  1  0  0  0  0
 22 24  1  0  0  0  0
 23 27  2  0  0  0  0
 24 27  1  0  0  0  0
 25 26  1  6  0  0  0
 25 28  1  0  0  0  0
 25 23  1  0  0  0  0
 29 33  1  0  0  0  0
 30 34  1  0  0  0  0
 30 32  1  0  0  0  0
 32 31  1  0  0  0  0
 33 31  1  0  0  0  0
 34 29  1  0  0  0  0
 34 28  1  0  0  0  0
 35 36  1  0  0  0  0
 35 13  1  0  0  0  0
 36 38  1  0  0  0  0
 37 36  2  0  0  0  0
 39 38  1  0  0  0  0
 39 40  1  1  0  0  0
 41 43  2  0  0  0  0
 43 42  1  0  0  0  0
 43 39  1  0  0  0  0
M  END
>  <MODEL>
3

>  <REMARK>
 VINA RESULT:      -8.2      3.626      8.349
  Name = 
  10 active torsions:
  status: ('A' for Active; 'I' for Inactive)
    1  A    between atoms: C_1  and  C_9
    2  A    between atoms: C_1  and  N_35
    3  A    between atoms: C_2  and  C_13
    4  A    between atoms: C_3  and  N_4
    5  A    between atoms: C_3  and  C_12
    6  A    between atoms: C_9  and  C_32
    7  A    between atoms: C_14  and  C_22
    8  A    between atoms: C_14  and  N_40
    9  A    between atoms: C_32  and  C_37
   10  A    between atoms: C_34  and  N_35
                            x       y       z     vdW  Elec       q    Type
                         _______ _______ _______ _____ _____    ______ ____

>  <TORSDO>
F 10

$$$$
=
 OpenBabel11062410143D

 43 48  0  0  1  0  0  0  0  0999 V2000
  161.2380  203.7700  147.3890 C   0  0  0  0  0  0  0  0  0  0  0  0
  161.7610  207.7110  150.5740 C   0  0  0  0  0  0  0  0  0  0  0  0
  162.1210  209.9860  148.9420 C   0  0  0  0  0  0  0  0  0  0  0  0
  161.3820  205.1870  149.3820 C   0  0  0  0  0  0  0  0  0  0  0  0
  161.4410  204.7960  146.5600 C   0  0  0  0  0  3  0  0  0  0  0  0
  161.0600  202.5270  146.8840 F   0  0  0  0  0  0  0  0  0  0  0  0
  161.6050  206.3200  148.5670 C   0  0  0  0  0  0  0  0  0  0  0  0
  161.2070  203.9770  148.8450 C   0  0  0  0  0  3  0  0  0  0  0  0
  161.6430  206.2030  147.0600 C   0  0  0  0  0  2  0  0  0  0  0  0
  161.9790  208.7150  148.3690 O   0  0  0  0  0  0  0  0  0  0  0  0
  161.7840  207.5780  149.1670 C   0  0  0  0  0  0  0  0  0  0  0  0
  161.5240  206.5750  151.3610 C   0  0  0  0  0  3  0  0  0  0  0  0
  161.9380  208.9330  151.1300 C   0  0  0  0  0  0  0  0  0  0  0  0
  162.1010  210.1210  150.2690 C   0  0  0  0  0  3  0  0  0  0  0  0
  161.3400  205.3240  150.7700 C   0  0  0  0  0  3  0  0  0  0  0  0
  162.3000  211.1850  148.0760 C   0  0  1  0  0  3  0  0  0  0  0  0
  161.0430  212.0270  148.0780 C   0  0  0  0  0  2  0  0  0  0  0  0
  163.3660  211.9670  148.5460 O   0  0  0  0  0  0  0  0  0  0  0  0
  161.5490  213.4340  148.1740 C   0  0  1  0  0  3  0  0  0  0  0  0
  163.0540  213.2800  148.1670 C   0  0  0  0  0  2  0  0  0  0  0  0
  161.0950  214.2280  146.9610 C   0  0  0  0  0  2  0  0  0  0  0  0
  161.1520  213.3950  145.7580 N   0  0  0  0  0  0  0  0  0  0  0  0
  160.1710  214.0610  143.7130 N   0  0  0  0  0  0  0  0  0  0  0  0
  162.0630  214.0120  144.8870 N   0  0  0  0  0  2  0  0  0  0  0  0
  159.8850  213.3770  144.9720 C   0  0  1  0  0  0  0  0  0  0  0  0
  159.5330  211.9280  144.6760 C   0  0  0  0  0  1  0  0  0  0  0  0
  161.4090  214.3940  143.6980 C   0  0  0  0  0  3  0  0  0  0  0  0
  158.6850  214.0480  145.6750 C   0  0  0  0  0  2  0  0  0  0  0  0
  156.3010  214.0180  145.6850 C   0  0  0  0  0  2  0  0  0  0  0  0
  157.6090  212.2750  146.8400 C   0  0  0  0  0  2  0  0  0  0  0  0
  156.8970  214.2660  148.0190 O   0  0  0  0  0  0  0  0  0  0  0  0
  157.0390  212.8770  148.1350 C   0  0  0  0  0  2  0  0  0  0  0  0
  155.8620  214.4530  147.0930 C   0  0  0  0  0  2  0  0  0  0  0  0
  157.5110  213.1780  145.6810 N   0  0  0  0  0  0  0  0  0  0  0  0
  161.9170  209.1370  152.5510 N   0  0  0  0  0  2  0  0  0  0  0  0
  160.7670  209.5160  153.3190 C   0  0  0  0  0  0  0  0  0  0  0  0
  159.8080  210.7650  152.8560 S   0  0  0  0  0  0  0  0  0  0  0  0
  160.2960  208.6130  154.4080 C   0  0  0  0  0  2  0  0  0  0  0  0
  161.2460  208.6520  155.5960 C   0  0  2  0  0  3  0  0  0  0  0  0
  160.6820  207.9860  156.6850 O   0  0  0  0  0  1  0  0  0  0  0  0
  160.6540  210.7780  156.7720 O   0  0  0  0  0  1  0  0  0  0  0  0
  162.5740  210.6260  155.5290 O   0  0  0  0  0  0  0  0  0  0  0  0
  161.5350  210.0670  155.9660 C   0  0  0  0  0  0  0  0  0  0  0  0
  1  8  1  0  0  0  0
  2 13  2  0  0  0  0
  2 12  1  0  0  0  0
  3 14  2  0  0  0  0
  4 15  1  0  0  0  0
  5  9  1  0  0  0  0
  5  1  2  0  0  0  0
  6  1  1  0  0  0  0
  7 11  2  0  0  0  0
  7  4  1  0  0  0  0
  8  4  2  0  0  0  0
  9  7  1  0  0  0  0
 10  3  1  0  0  0  0
 10 11  1  0  0  0  0
 11  2  1  0  0  0  0
 13 35  1  0  0  0  0
 14 13  1  0  0  0  0
 15 12  2  0  0  0  0
 16 17  1  0  0  0  0
 16 18  1  0  0  0  0
 16  3  1  1  0  0  0
 17 19  1  0  0  0  0
 19 21  1  6  0  0  0
 20 19  1  0  0  0  0
 20 18  1  0  0  0  0
 22 21  1  0  0  0  0
 23 25  1  0  0  0  0
 24 22  1  0  0  0  0
 25 26  1  6  0  0  0
 25 28  1  0  0  0  0
 25 22  1  0  0  0  0
 27 23  2  0  0  0  0
 27 24  1  0  0  0  0
 28 34  1  0  0  0  0
 29 33  1  0  0  0  0
 30 32  1  0  0  0  0
 31 32  1  0  0  0  0
 33 31  1  0  0  0  0
 34 29  1  0  0  0  0
 34 30  1  0  0  0  0
 35 36  1  0  0  0  0
 36 38  1  0  0  0  0
 37 36  2  0  0  0  0
 38 39  1  0  0  0  0
 39 43  1  0  0  0  0
 39 40  1  1  0  0  0
 42 43  2  0  0  0  0
 43 41  1  0  0  0  0
M  END
>  <MODEL>
4

>  <REMARK>
 VINA RESULT:      -7.9      2.045      3.554
  Name = 
  10 active torsions:
  status: ('A' for Active; 'I' for Inactive)
    1  A    between atoms: C_1  and  C_9
    2  A    between atoms: C_1  and  N_35
    3  A    between atoms: C_2  and  C_13
    4  A    between atoms: C_3  and  N_4
    5  A    between atoms: C_3  and  C_12
    6  A    between atoms: C_9  and  C_32
    7  A    between atoms: C_14  and  C_22
    8  A    between atoms: C_14  and  N_40
    9  A    between atoms: C_32  and  C_37
   10  A    between atoms: C_34  and  N_35
                            x       y       z     vdW  Elec       q    Type
                         _______ _______ _______ _____ _____    ______ ____

>  <TORSDO>
F 10

$$$$
=
 OpenBabel11062410143D

 43 48  0  0  1  0  0  0  0  0999 V2000
  161.3670  204.4170  147.2460 C   0  0  0  0  0  0  0  0  0  0  0  0
  161.3830  207.6120  151.2120 C   0  0  0  0  0  0  0  0  0  0  0  0
  161.7690  210.1910  150.1310 C   0  0  0  0  0  0  0  0  0  0  0  0
  161.2510  205.3850  149.4930 C   0  0  0  0  0  0  0  0  0  0  0  0
  161.5890  205.6000  146.6720 C   0  0  0  0  0  3  0  0  0  0  0  0
  161.3020  203.3020  146.4800 F   0  0  0  0  0  0  0  0  0  0  0  0
  161.4860  206.6720  148.9570 C   0  0  0  0  0  0  0  0  0  0  0  0
  161.1910  204.3100  148.7030 C   0  0  0  0  0  3  0  0  0  0  0  0
  161.6680  206.8750  147.4690 C   0  0  0  0  0  2  0  0  0  0  0  0
  161.7480  209.0660  149.2960 O   0  0  0  0  0  0  0  0  0  0  0  0
  161.5430  207.7800  149.8180 C   0  0  0  0  0  0  0  0  0  0  0  0
  161.1370  206.3280  151.7200 C   0  0  0  0  0  3  0  0  0  0  0  0
  161.4430  208.6950  152.0240 C   0  0  0  0  0  0  0  0  0  0  0  0
  161.6200  210.0430  151.4480 C   0  0  0  0  0  3  0  0  0  0  0  0
  161.0750  205.2250  150.8680 C   0  0  0  0  0  3  0  0  0  0  0  0
  161.9610  211.5510  149.5530 C   0  0  1  0  0  3  0  0  0  0  0  0
  161.8630  211.5000  148.0440 C   0  0  0  0  0  2  0  0  0  0  0  0
  160.9780  212.4270  150.0390 O   0  0  0  0  0  0  0  0  0  0  0  0
  161.0540  212.7110  147.6920 C   0  0  1  0  0  3  0  0  0  0  0  0
  160.8020  213.3790  149.0260 C   0  0  0  0  0  2  0  0  0  0  0  0
  161.8630  213.6250  146.7890 C   0  0  0  0  0  2  0  0  0  0  0  0
  161.9310  213.0720  145.4350 N   0  0  0  0  0  0  0  0  0  0  0  0
  161.2030  214.2810  143.5380 N   0  0  0  0  0  0  0  0  0  0  0  0
  162.9730  213.7450  144.7790 N   0  0  0  0  0  2  0  0  0  0  0  0
  160.7400  213.3810  144.5920 C   0  0  1  0  0  0  0  0  0  0  0  0
  160.2610  212.0850  143.9580 C   0  0  0  0  0  1  0  0  0  0  0  0
  162.4670  214.4530  143.6710 C   0  0  0  0  0  3  0  0  0  0  0  0
  159.5640  214.0270  145.3560 C   0  0  0  0  0  2  0  0  0  0  0  0
  157.2250  214.4530  145.1870 C   0  0  0  0  0  2  0  0  0  0  0  0
  158.0830  212.1970  145.6920 C   0  0  0  0  0  2  0  0  0  0  0  0
  157.5280  213.7330  147.4790 O   0  0  0  0  0  0  0  0  0  0  0  0
  157.4400  212.3940  147.0750 C   0  0  0  0  0  2  0  0  0  0  0  0
  156.6690  214.4320  146.6200 C   0  0  0  0  0  2  0  0  0  0  0  0
  158.2820  213.4550  144.9530 N   0  0  0  0  0  0  0  0  0  0  0  0
  161.2810  208.5940  153.4470 N   0  0  0  0  0  2  0  0  0  0  0  0
  161.0420  209.6930  154.3350 C   0  0  0  0  0  0  0  0  0  0  0  0
  162.2720  210.4090  155.1530 S   0  0  0  0  0  0  0  0  0  0  0  0
  159.7050  210.3520  154.3270 C   0  0  0  0  0  2  0  0  0  0  0  0
  159.8320  211.8460  154.5840 C   0  0  2  0  0  3  0  0  0  0  0  0
  159.4590  212.1420  155.8960 O   0  0  0  0  0  1  0  0  0  0  0  0
  159.5270  213.2730  152.5530 O   0  0  0  0  0  0  0  0  0  0  0  0
  157.7230  212.6390  153.8180 O   0  0  0  0  0  1  0  0  0  0  0  0
  158.9670  212.5980  153.6320 C   0  0  0  0  0  0  0  0  0  0  0  0
  1  8  1  0  0  0  0
  2 12  1  0  0  0  0
  2 13  2  0  0  0  0
  3 14  2  0  0  0  0
  4 15  1  0  0  0  0
  5  1  2  0  0  0  0
  5  9  1  0  0  0  0
  6  1  1  0  0  0  0
  7  4  1  0  0  0  0
  7 11  2  0  0  0  0
  8  4  2  0  0  0  0
  9  7  1  0  0  0  0
 10 11  1  0  0  0  0
 10  3  1  0  0  0  0
 11  2  1  0  0  0  0
 13 35  1  0  0  0  0
 14 13  1  0  0  0  0
 15 12  2  0  0  0  0
 16 18  1  0  0  0  0
 16  3  1  1  0  0  0
 17 16  1  0  0  0  0
 19 21  1  6  0  0  0
 19 17  1  0  0  0  0
 19 20  1  0  0  0  0
 20 18  1  0  0  0  0
 22 21  1  0  0  0  0
 23 27  2  0  0  0  0
 23 25  1  0  0  0  0
 24 22  1  0  0  0  0
 25 26  1  6  0  0  0
 25 28  1  0  0  0  0
 25 22  1  0  0  0  0
 27 24  1  0  0  0  0
 29 33  1  0  0  0  0
 30 32  1  0  0  0  0
 32 31  1  0  0  0  0
 33 31  1  0  0  0  0
 34 29  1  0  0  0  0
 34 28  1  0  0  0  0
 34 30  1  0  0  0  0
 35 36  1  0  0  0  0
 36 37  2  0  0  0  0
 38 36  1  0  0  0  0
 38 39  1  0  0  0  0
 39 40  1  1  0  0  0
 41 43  2  0  0  0  0
 43 42  1  0  0  0  0
 43 39  1  0  0  0  0
M  END
>  <MODEL>
5

>  <REMARK>
 VINA RESULT:      -7.8      1.725      2.972
  Name = 
  10 active torsions:
  status: ('A' for Active; 'I' for Inactive)
    1  A    between atoms: C_1  and  C_9
    2  A    between atoms: C_1  and  N_35
    3  A    between atoms: C_2  and  C_13
    4  A    between atoms: C_3  and  N_4
    5  A    between atoms: C_3  and  C_12
    6  A    between atoms: C_9  and  C_32
    7  A    between atoms: C_14  and  C_22
    8  A    between atoms: C_14  and  N_40
    9  A    between atoms: C_32  and  C_37
   10  A    between atoms: C_34  and  N_35
                            x       y       z     vdW  Elec       q    Type
                         _______ _______ _______ _____ _____    ______ ____

>  <TORSDO>
F 10

$$$$
=
 OpenBabel11062410143D

 43 48  0  0  1  0  0  0  0  0999 V2000
  161.0820  202.4760  147.9060 C   0  0  0  0  0  0  0  0  0  0  0  0
  161.0560  205.4360  152.0510 C   0  0  0  0  0  0  0  0  0  0  0  0
  161.9510  207.9740  151.1980 C   0  0  0  0  0  0  0  0  0  0  0  0
  160.8220  203.3410  150.1830 C   0  0  0  0  0  0  0  0  0  0  0  0
  161.5470  203.6370  147.4430 C   0  0  0  0  0  3  0  0  0  0  0  0
  160.9550  201.4220  147.0640 F   0  0  0  0  0  0  0  0  0  0  0  0
  161.3100  204.6000  149.7660 C   0  0  0  0  0  0  0  0  0  0  0  0
  160.7080  202.3270  149.3210 C   0  0  0  0  0  3  0  0  0  0  0  0
  161.7090  204.8450  148.3280 C   0  0  0  0  0  2  0  0  0  0  0  0
  161.8730  206.9070  150.2930 O   0  0  0  0  0  0  0  0  0  0  0  0
  161.4160  205.6440  150.7000 C   0  0  0  0  0  0  0  0  0  0  0  0
  160.5620  204.1820  152.4380 C   0  0  0  0  0  3  0  0  0  0  0  0
  161.1690  206.4560  152.9340 C   0  0  0  0  0  0  0  0  0  0  0  0
  161.6140  207.7870  152.4750 C   0  0  0  0  0  3  0  0  0  0  0  0
  160.4490  203.1430  151.5130 C   0  0  0  0  0  3  0  0  0  0  0  0
  162.4130  209.3150  150.7410 C   0  0  1  0  0  3  0  0  0  0  0  0
  162.1490  209.4830  149.2610 C   0  0  0  0  0  2  0  0  0  0  0  0
  161.7320  210.3250  151.4370 O   0  0  0  0  0  0  0  0  0  0  0  0
  161.6330  210.8850  149.1410 C   0  0  1  0  0  3  0  0  0  0  0  0
  161.6930  211.4150  150.5570 C   0  0  0  0  0  2  0  0  0  0  0  0
  162.5450  211.6950  148.2370 C   0  0  0  0  0  2  0  0  0  0  0  0
  161.7890  212.2400  147.1080 N   0  0  0  0  0  0  0  0  0  0  0  0
  160.9210  214.4380  147.1120 N   0  0  0  0  0  0  0  0  0  0  0  0
  162.6300  213.1640  146.4690 N   0  0  0  0  0  2  0  0  0  0  0  0
  160.6130  213.0660  147.5080 C   0  0  1  0  0  0  0  0  0  0  0  0
  159.4060  212.5850  146.7180 C   0  0  0  0  0  1  0  0  0  0  0  0
  162.0590  214.4510  146.5220 C   0  0  0  0  0  3  0  0  0  0  0  0
  160.2760  213.0150  149.0140 C   0  0  0  0  0  2  0  0  0  0  0  0
  160.0610  214.4020  150.9410 C   0  0  0  0  0  2  0  0  0  0  0  0
  158.3550  214.4100  149.1600 C   0  0  0  0  0  2  0  0  0  0  0  0
  158.1450  212.9260  151.0610 O   0  0  0  0  0  0  0  0  0  0  0  0
  157.4280  213.7790  150.2130 C   0  0  0  0  0  2  0  0  0  0  0  0
  158.9690  213.7690  151.8190 C   0  0  0  0  0  2  0  0  0  0  0  0
  159.7840  214.3030  149.4970 N   0  0  0  0  0  0  0  0  0  0  0  0
  160.8120  206.3120  154.3170 N   0  0  0  0  0  2  0  0  0  0  0  0
  160.6920  207.3860  155.2600 C   0  0  0  0  0  0  0  0  0  0  0  0
  161.9000  207.7310  156.3150 S   0  0  0  0  0  0  0  0  0  0  0  0
  159.5660  208.3530  155.1130 C   0  0  0  0  0  2  0  0  0  0  0  0
  159.9250  209.7010  155.7210 C   0  0  2  0  0  3  0  0  0  0  0  0
  158.8500  210.1950  156.4620 O   0  0  0  0  0  1  0  0  0  0  0  0
  159.5000  210.7480  153.4910 O   0  0  0  0  0  0  0  0  0  0  0  0
  161.2950  211.3940  154.7620 O   0  0  0  0  0  1  0  0  0  0  0  0
  160.2770  210.6650  154.6410 C   0  0  0  0  0  0  0  0  0  0  0  0
  1  8  1  0  0  0  0
  2 12  1  0  0  0  0
  2 13  2  0  0  0  0
  3 14  2  0  0  0  0
  4 15  1  0  0  0  0
  5  1  2  0  0  0  0
  5  9  1  0  0  0  0
  6  1  1  0  0  0  0
  7  4  1  0  0  0  0
  7 11  2  0  0  0  0
  8  4  2  0  0  0  0
  9  7  1  0  0  0  0
 10 11  1  0  0  0  0
 10  3  1  0  0  0  0
 11  2  1  0  0  0  0
 13 35  1  0  0  0  0
 14 13  1  0  0  0  0
 15 12  2  0  0  0  0
 16  3  1  1  0  0  0
 16 18  1  0  0  0  0
 17 16  1  0  0  0  0
 19 21  1  6  0  0  0
 19 17  1  0  0  0  0
 19 20  1  0  0  0  0
 20 18  1  0  0  0  0
 22 25  1  0  0  0  0
 22 21  1  0  0  0  0
 23 25  1  0  0  0  0
 24 27  1  0  0  0  0
 24 22  1  0  0  0  0
 25 26  1  6  0  0  0
 25 28  1  0  0  0  0
 27 23  2  0  0  0  0
 28 34  1  0  0  0  0
 29 33  1  0  0  0  0
 30 34  1  0  0  0  0
 30 32  1  0  0  0  0
 31 33  1  0  0  0  0
 32 31  1  0  0  0  0
 34 29  1  0  0  0  0
 35 36  1  0  0  0  0
 36 37  2  0  0  0  0
 38 36  1  0  0  0  0
 38 39  1  0  0  0  0
 39 40  1  6  0  0  0
 41 43  2  0  0  0  0
 43 42  1  0  0  0  0
 43 39  1  0  0  0  0
M  END
>  <MODEL>
6

>  <REMARK>
 VINA RESULT:      -6.6      2.828      4.559
  Name = 
  10 active torsions:
  status: ('A' for Active; 'I' for Inactive)
    1  A    between atoms: C_1  and  C_9
    2  A    between atoms: C_1  and  N_35
    3  A    between atoms: C_2  and  C_13
    4  A    between atoms: C_3  and  N_4
    5  A    between atoms: C_3  and  C_12
    6  A    between atoms: C_9  and  C_32
    7  A    between atoms: C_14  and  C_22
    8  A    between atoms: C_14  and  N_40
    9  A    between atoms: C_32  and  C_37
   10  A    between atoms: C_34  and  N_35
                            x       y       z     vdW  Elec       q    Type
                         _______ _______ _______ _____ _____    ______ ____

>  <TORSDO>
F 10

$$$$
=
 OpenBabel11062410143D

 43 48  0  0  1  0  0  0  0  0999 V2000
  155.7310  212.1370  156.3010 C   0  0  0  0  0  0  0  0  0  0  0  0
  158.7470  213.2270  152.3440 C   0  0  0  0  0  0  0  0  0  0  0  0
  160.5270  211.0490  152.1010 C   0  0  0  0  0  0  0  0  0  0  0  0
  156.7840  213.2040  154.3640 C   0  0  0  0  0  0  0  0  0  0  0  0
  156.5620  211.0950  156.2670 C   0  0  0  0  0  3  0  0  0  0  0  0
  154.7690  212.1970  157.2530 F   0  0  0  0  0  0  0  0  0  0  0  0
  157.7020  212.1340  154.2670 C   0  0  0  0  0  0  0  0  0  0  0  0
  155.8470  213.2230  155.3150 C   0  0  0  0  0  3  0  0  0  0  0  0
  157.6500  210.9710  155.2320 C   0  0  0  0  0  3  0  0  0  0  0  0
  159.5740  211.0770  153.1290 O   0  0  0  0  0  0  0  0  0  0  0  0
  158.6740  212.1460  153.2530 C   0  0  0  0  0  0  0  0  0  0  0  0
  157.8170  214.2710  152.4510 C   0  0  0  0  0  2  0  0  0  0  0  0
  159.6930  213.2190  151.3750 C   0  0  0  0  0  0  0  0  0  0  0  0
  160.6030  212.0640  151.2400 C   0  0  0  0  0  3  0  0  0  0  0  0
  156.8460  214.2600  153.4540 C   0  0  0  0  0  3  0  0  0  0  0  0
  161.4560  209.8910  151.9710 C   0  0  1  0  0  3  0  0  0  0  0  0
  160.7040  208.5910  152.1500 C   0  0  0  0  0  2  0  0  0  0  0  0
  162.0550  209.8930  150.7020 O   0  0  0  0  0  0  0  0  0  0  0  0
  161.2650  207.6970  151.0870 C   0  0  1  0  0  3  0  0  0  0  0  0
  162.3270  208.5470  150.4220 C   0  0  0  0  0  2  0  0  0  0  0  0
  161.8940  206.4710  151.7240 C   0  0  0  0  0  2  0  0  0  0  0  0
  160.9060  205.3970  151.8430 N   0  0  0  0  0  0  0  0  0  0  0  0
  161.3420  203.1930  151.1070 N   0  0  0  0  0  0  0  0  0  0  0  0
  161.3540  204.5520  152.8700 N   0  0  0  0  0  2  0  0  0  0  0  0
  160.8470  204.4920  150.6580 C   0  0  1  0  0  0  0  0  0  0  0  0
  159.3910  204.3500  150.2460 C   0  0  0  0  0  1  0  0  0  0  0  0
  161.6070  203.2630  152.3590 C   0  0  0  0  0  3  0  0  0  0  0  0
  161.6650  204.9760  149.4410 C   0  0  0  0  0  2  0  0  0  0  0  0
  161.6380  203.8270  147.3530 C   0  0  0  0  0  2  0  0  0  0  0  0
  160.7660  206.1250  147.5630 C   0  0  0  0  0  2  0  0  0  0  0  0
  163.0770  205.7340  146.9570 O   0  0  0  0  0  0  0  0  0  0  0  0
  161.9560  206.5280  146.6780 C   0  0  0  0  0  2  0  0  0  0  0  0
  162.7460  204.4550  146.4910 C   0  0  0  0  0  2  0  0  0  0  0  0
  160.9250  204.8040  148.1940 N   0  0  0  0  0  0  0  0  0  0  0  0
  159.8160  214.2800  150.4170 N   0  0  0  0  0  2  0  0  0  0  0  0
  159.6090  214.1520  149.0040 C   0  0  0  0  0  0  0  0  0  0  0  0
  158.1190  214.3330  148.3420 S   0  0  0  0  0  0  0  0  0  0  0  0
  160.7960  214.1040  148.1020 C   0  0  0  0  0  2  0  0  0  0  0  0
  160.9400  212.7290  147.4670 C   0  0  2  0  0  3  0  0  0  0  0  0
  162.1240  212.1240  147.8920 O   0  0  0  0  0  1  0  0  0  0  0  0
  161.9730  213.5330  145.3370 O   0  0  0  0  0  1  0  0  0  0  0  0
  160.0020  212.3640  145.3110 O   0  0  0  0  0  0  0  0  0  0  0  0
  160.9450  212.8560  145.9820 C   0  0  0  0  0  0  0  0  0  0  0  0
  1  6  1  0  0  0  0
  2 12  1  0  0  0  0
  2 11  1  0  0  0  0
  3 10  1  0  0  0  0
  4  8  1  0  0  0  0
  5  1  1  0  0  0  0
  7  4  1  0  0  0  0
  7  9  1  0  0  0  0
  8  1  2  0  0  0  0
  9  5  2  0  0  0  0
 10 11  1  0  0  0  0
 11  7  2  0  0  0  0
 12 15  1  0  0  0  0
 13  2  2  0  0  0  0
 14 13  1  0  0  0  0
 14  3  2  0  0  0  0
 15  4  2  0  0  0  0
 16  3  1  6  0  0  0
 16 17  1  0  0  0  0
 18 16  1  0  0  0  0
 19 21  1  1  0  0  0
 19 17  1  0  0  0  0
 20 18  1  0  0  0  0
 20 19  1  0  0  0  0
 21 22  1  0  0  0  0
 22 24  1  0  0  0  0
 23 27  2  0  0  0  0
 25 26  1  6  0  0  0
 25 23  1  0  0  0  0
 25 22  1  0  0  0  0
 27 24  1  0  0  0  0
 28 25  1  0  0  0  0
 29 34  1  0  0  0  0
 30 34  1  0  0  0  0
 32 31  1  0  0  0  0
 32 30  1  0  0  0  0
 33 31  1  0  0  0  0
 33 29  1  0  0  0  0
 34 28  1  0  0  0  0
 35 13  1  0  0  0  0
 36 35  1  0  0  0  0
 37 36  2  0  0  0  0
 38 36  1  0  0  0  0
 39 40  1  1  0  0  0
 39 38  1  0  0  0  0
 41 43  1  0  0  0  0
 42 43  2  0  0  0  0
 43 39  1  0  0  0  0
M  END
>  <MODEL>
7

>  <REMARK>
 VINA RESULT:      -6.1      3.866      8.623
  Name = 
  10 active torsions:
  status: ('A' for Active; 'I' for Inactive)
    1  A    between atoms: C_1  and  C_9
    2  A    between atoms: C_1  and  N_35
    3  A    between atoms: C_2  and  C_13
    4  A    between atoms: C_3  and  N_4
    5  A    between atoms: C_3  and  C_12
    6  A    between atoms: C_9  and  C_32
    7  A    between atoms: C_14  and  C_22
    8  A    between atoms: C_14  and  N_40
    9  A    between atoms: C_32  and  C_37
   10  A    between atoms: C_34  and  N_35
                            x       y       z     vdW  Elec       q    Type
                         _______ _______ _______ _____ _____    ______ ____

>  <TORSDO>
F 10

$$$$
=
 OpenBabel11062410143D

 43 48  0  0  1  0  0  0  0  0999 V2000
  160.7480  202.0420  149.0980 C   0  0  0  0  0  0  0  0  0  0  0  0
  161.4210  205.9550  152.2880 C   0  0  0  0  0  0  0  0  0  0  0  0
  162.0860  208.1710  150.6710 C   0  0  0  0  0  0  0  0  0  0  0  0
  160.8930  203.4620  151.0880 C   0  0  0  0  0  0  0  0  0  0  0  0
  161.0930  203.0370  148.2780 C   0  0  0  0  0  3  0  0  0  0  0  0
  160.4910  200.8140  148.5890 F   0  0  0  0  0  0  0  0  0  0  0  0
  161.2670  204.5620  150.2830 C   0  0  0  0  0  0  0  0  0  0  0  0
  160.6440  202.2670  150.5480 C   0  0  0  0  0  3  0  0  0  0  0  0
  161.3890  204.4250  148.7820 C   0  0  0  0  0  2  0  0  0  0  0  0
  161.8660  206.9120  150.0960 O   0  0  0  0  0  0  0  0  0  0  0  0
  161.5210  205.8060  150.8860 C   0  0  0  0  0  0  0  0  0  0  0  0
  161.0350  204.8530  153.0650 C   0  0  0  0  0  3  0  0  0  0  0  0
  161.6710  207.1630  152.8480 C   0  0  0  0  0  0  0  0  0  0  0  0
  161.9940  208.3220  151.9920 C   0  0  0  0  0  3  0  0  0  0  0  0
  160.7760  203.6180  152.4700 C   0  0  0  0  0  3  0  0  0  0  0  0
  162.4260  209.3400  149.8110 C   0  0  1  0  0  3  0  0  0  0  0  0
  161.4890  209.4090  148.6250 C   0  0  0  0  0  2  0  0  0  0  0  0
  162.3110  210.5300  150.5450 O   0  0  0  0  0  0  0  0  0  0  0  0
  161.1620  210.8660  148.5050 C   0  0  1  0  0  3  0  0  0  0  0  0
  161.9800  211.5130  149.6020 C   0  0  0  0  0  2  0  0  0  0  0  0
  161.6020  211.3830  147.1460 C   0  0  0  0  0  2  0  0  0  0  0  0
  161.8000  212.8330  147.1930 N   0  0  0  0  0  0  0  0  0  0  0  0
  160.4300  214.3340  145.9870 N   0  0  0  0  0  0  0  0  0  0  0  0
  160.7490  213.3560  147.9610 N   0  0  0  0  0  2  0  0  0  0  0  0
  161.6320  213.5110  145.8760 C   0  0  1  0  0  0  0  0  0  0  0  0
  162.8320  214.4190  145.6550 C   0  0  0  0  0  1  0  0  0  0  0  0
  159.9680  214.2290  147.1780 C   0  0  0  0  0  3  0  0  0  0  0  0
  161.5040  212.5520  144.6720 C   0  0  0  0  0  2  0  0  0  0  0  0
  160.0580  212.0360  142.8490 C   0  0  0  0  0  2  0  0  0  0  0  0
  161.5390  214.0070  142.7910 C   0  0  0  0  0  2  0  0  0  0  0  0
  162.2800  211.8820  141.9000 O   0  0  0  0  0  0  0  0  0  0  0  0
  162.2830  213.2640  141.6690 C   0  0  0  0  0  2  0  0  0  0  0  0
  160.9480  211.4830  141.7240 C   0  0  0  0  0  2  0  0  0  0  0  0
  160.6850  213.1300  143.6100 N   0  0  0  0  0  0  0  0  0  0  0  0
  161.5790  207.3840  154.2630 N   0  0  0  0  0  2  0  0  0  0  0  0
  160.8670  208.4570  154.8920 C   0  0  0  0  0  0  0  0  0  0  0  0
  161.1780  208.8910  156.4440 S   0  0  0  0  0  0  0  0  0  0  0  0
  160.0150  209.3480  154.0530 C   0  0  0  0  0  2  0  0  0  0  0  0
  160.5230  210.7810  154.0940 C   0  0  2  0  0  3  0  0  0  0  0  0
  161.8370  210.8140  154.5640 O   0  0  0  0  0  1  0  0  0  0  0  0
  158.3290  211.2320  155.2070 O   0  0  0  0  0  0  0  0  0  0  0  0
  160.1080  212.6450  155.5150 O   0  0  0  0  0  1  0  0  0  0  0  0
  159.6510  211.6010  154.9820 C   0  0  0  0  0  0  0  0  0  0  0  0
  1  8  1  0  0  0  0
  2 13  2  0  0  0  0
  2 12  1  0  0  0  0
  3 14  2  0  0  0  0
  4 15  1  0  0  0  0
  5  9  1  0  0  0  0
  5  1  2  0  0  0  0
  6  1  1  0  0  0  0
  7 11  2  0  0  0  0
  7  4  1  0  0  0  0
  8  4  2  0  0  0  0
  9  7  1  0  0  0  0
 10  3  1  0  0  0  0
 10 11  1  0  0  0  0
 11  2  1  0  0  0  0
 13 35  1  0  0  0  0
 14 13  1  0  0  0  0
 15 12  2  0  0  0  0
 16 18  1  0  0  0  0
 16  3  1  1  0  0  0
 17 16  1  0  0  0  0
 19 21  1  6  0  0  0
 19 17  1  0  0  0  0
 19 20  1  0  0  0  0
 20 18  1  0  0  0  0
 21 22  1  0  0  0  0
 22 24  1  0  0  0  0
 23 27  2  0  0  0  0
 25 26  1  6  0  0  0
 25 23  1  0  0  0  0
 25 22  1  0  0  0  0
 27 24  1  0  0  0  0
 28 25  1  0  0  0  0
 29 34  1  0  0  0  0
 30 34  1  0  0  0  0
 32 31  1  0  0  0  0
 32 30  1  0  0  0  0
 33 31  1  0  0  0  0
 33 29  1  0  0  0  0
 34 28  1  0  0  0  0
 35 36  1  0  0  0  0
 36 37  2  0  0  0  0
 38 39  1  0  0  0  0
 38 36  1  0  0  0  0
 39 40  1  1  0  0  0
 39 43  1  0  0  0  0
 43 41  2  0  0  0  0
 43 42  1  0  0  0  0
M  END
>  <MODEL>
8

>  <REMARK>
 VINA RESULT:      -6.0      1.915      2.630
  Name = 
  10 active torsions:
  status: ('A' for Active; 'I' for Inactive)
    1  A    between atoms: C_1  and  C_9
    2  A    between atoms: C_1  and  N_35
    3  A    between atoms: C_2  and  C_13
    4  A    between atoms: C_3  and  N_4
    5  A    between atoms: C_3  and  C_12
    6  A    between atoms: C_9  and  C_32
    7  A    between atoms: C_14  and  C_22
    8  A    between atoms: C_14  and  N_40
    9  A    between atoms: C_32  and  C_37
   10  A    between atoms: C_34  and  N_35
                            x       y       z     vdW  Elec       q    Type
                         _______ _______ _______ _____ _____    ______ ____

>  <TORSDO>
F 10

$$$$
