=
 OpenBabel11062408473D

 55 58  0  0  1  0  0  0  0  0999 V2000
  160.4800  206.2550  145.9650 C   0  0  0  0  0  0  0  0  0  0  0  0
  161.3000  205.6870  143.6720 C   0  0  0  0  0  1  0  0  0  0  0  0
  161.5420  205.8310  145.0970 N   0  0  0  0  0  0  0  0  0  0  0  0
  159.2990  206.3300  145.5290 O   0  0  0  0  0  0  0  0  0  0  0  0
  160.7480  206.6170  147.3900 C   0  0  0  0  0  2  0  0  0  0  0  0
  162.1350  207.2160  147.5170 C   0  0  0  0  0  2  0  0  0  0  0  0
  162.4360  207.5860  148.9610 C   0  0  0  0  0  2  0  0  0  0  0  0
  161.9650  209.0000  149.2530 C   0  0  0  0  0  2  0  0  0  0  0  0
  161.7510  209.1810  150.7490 C   0  0  0  0  0  2  0  0  0  0  0  0
  162.2120  210.5580  151.1930 C   0  0  0  0  0  2  0  0  0  0  0  0
  161.1770  211.2240  151.9740 N   0  0  0  0  0  0  0  0  0  0  0  0
  159.8740  209.3960  154.8400 O   0  0  0  0  0  0  0  0  0  0  0  0
  160.5240  210.2660  152.7830 N   0  0  0  0  0  2  0  0  0  0  0  0
  160.3950  210.3490  154.2120 C   0  0  0  0  0  0  0  0  0  0  0  0
  160.8390  211.4700  154.9150 O   0  0  0  0  0  1  0  0  0  0  0  0
  160.2020  211.8020  151.0500 C   0  0  0  0  0  2  0  0  0  0  0  0
  158.3710  214.1620  150.2580 N   0  0  0  0  0  0  0  0  0  0  0  0
  161.4230  211.9640  148.5790 F   0  0  0  0  0  0  0  0  0  0  0  0
  160.6760  213.1610  150.5310 C   0  0  1  0  0  3  0  0  0  0  0  0
  157.1650  213.1330  146.8020 C   0  0  0  0  0  2  0  0  0  0  0  0
  161.9290  214.1390  148.7790 F   0  0  0  0  0  0  0  0  0  0  0  0
  160.9420  213.1970  149.0110 C   0  0  0  0  0  0  0  0  0  0  0  0
  157.4760  213.4600  151.1670 C   0  0  0  0  0  1  0  0  0  0  0  0
  158.4440  213.4280  146.0300 C   0  0  0  0  0  2  0  0  0  0  0  0
  159.6490  212.9480  146.8270 C   0  0  0  0  0  2  0  0  0  0  0  0
  158.3830  213.4140  148.9860 C   0  0  2  0  0  3  0  0  0  0  0  0
  159.6960  213.6210  148.2050 C   0  0  1  0  0  3  0  0  0  0  0  0
  157.1900  213.8640  148.1380 C   0  0  0  0  0  2  0  0  0  0  0  0
  159.6820  214.2580  150.9310 C   0  0  0  0  0  2  0  0  0  0  0  0
  162.8910  205.6040  145.5920 C   0  0  0  0  0  2  0  0  0  0  0  0
  163.2090  204.1180  145.5750 C   0  0  0  0  0  2  0  0  0  0  0  0
  163.2020  203.5380  146.9760 C   0  0  0  0  0  2  0  0  0  0  0  0
  161.7910  203.5520  147.5570 C   0  0  0  0  0  2  0  0  0  0  0  0
  159.8090  201.9160  144.6980 C   0  0  0  0  0  3  0  0  0  0  0  0
  160.8060  200.1510  146.0190 C   0  0  1  0  0  3  0  0  0  0  0  0
  160.2930  203.0060  145.6260 C   0  0  0  0  0  2  0  0  0  0  0  0
  161.6910  201.2160  146.6770 C   0  0  0  0  0  2  0  0  0  0  0  0
  160.0890  200.6670  144.8680 N   0  0  0  0  0  0  0  0  0  0  0  0
  160.8780  202.4840  146.9460 C   0  0  1  0  0  0  0  0  0  0  0  0
  161.5650  198.8770  145.6540 C   0  0  1  0  0  3  0  0  0  0  0  0
  162.0620  198.2060  146.8440 N   0  0  0  0  0  1  0  0  0  0  0  0
  160.6890  197.9320  144.8520 C   0  0  0  0  0  1  0  0  0  0  0  0
  159.5170  202.0800  148.1210 S   0  0  0  0  0  0  0  0  0  0  0  0
  161.8830  202.0680  152.0540 C   0  0  0  0  0  3  0  0  0  0  0  0
  161.9220  200.9620  151.2060 C   0  0  0  0  0  3  0  0  0  0  0  0
  159.6570  204.3010  150.1840 F   0  0  0  0  0  0  0  0  0  0  0  0
  160.4690  202.1140  149.6420 C   0  0  0  0  0  0  0  0  0  0  0  0
  161.2150  200.9870  150.0000 C   0  0  0  0  0  3  0  0  0  0  0  0
  160.4180  203.2210  150.5030 C   0  0  0  0  0  0  0  0  0  0  0  0
  161.1360  203.2070  151.7080 C   0  0  0  0  0  0  0  0  0  0  0  0
  161.0900  204.3400  152.5360 O   0  0  0  0  0  0  0  0  0  0  0  0
  161.2240  206.6140  153.2850 C   0  0  0  0  0  1  0  0  0  0  0  0
  160.7760  206.0710  151.0380 F   0  0  0  0  0  0  0  0  0  0  0  0
  162.9780  205.6780  151.8370 C   0  0  0  0  0  1  0  0  0  0  0  0
  161.4930  205.6550  152.1460 C   0  0  0  0  0  0  0  0  0  0  0  0
  1  5  1  0  0  0  0
  2  3  1  0  0  0  0
  3 30  1  0  0  0  0
  3  1  1  0  0  0  0
  4  1  2  0  0  0  0
  5  6  1  0  0  0  0
  6  7  1  0  0  0  0
  7  8  1  0  0  0  0
  8  9  1  0  0  0  0
  9 10  1  0  0  0  0
 10 11  1  0  0  0  0
 11 13  1  0  0  0  0
 13 14  1  0  0  0  0
 14 12  2  0  0  0  0
 14 15  1  0  0  0  0
 16 11  1  0  0  0  0
 17 29  1  0  0  0  0
 17 23  1  0  0  0  0
 18 22  1  0  0  0  0
 19 29  1  0  0  0  0
 19 16  1  6  0  0  0
 20 28  1  0  0  0  0
 21 22  1  0  0  0  0
 22 19  1  0  0  0  0
 24 20  1  0  0  0  0
 24 25  1  0  0  0  0
 26 28  1  6  0  0  0
 26 17  1  0  0  0  0
 27 25  1  6  0  0  0
 27 26  1  0  0  0  0
 27 22  1  0  0  0  0
 31 30  1  0  0  0  0
 31 32  1  0  0  0  0
 32 33  1  0  0  0  0
 34 38  2  0  0  0  0
 34 36  1  0  0  0  0
 35 40  1  6  0  0  0
 35 37  1  0  0  0  0
 36 39  1  0  0  0  0
 37 39  1  0  0  0  0
 38 35  1  0  0  0  0
 39 33  1  1  0  0  0
 39 43  1  0  0  0  0
 40 42  1  1  0  0  0
 40 41  1  0  0  0  0
 43 47  1  0  0  0  0
 45 44  2  0  0  0  0
 46 49  1  0  0  0  0
 47 48  2  0  0  0  0
 47 49  1  0  0  0  0
 48 45  1  0  0  0  0
 49 50  2  0  0  0  0
 50 44  1  0  0  0  0
 50 51  1  0  0  0  0
 53 55  1  0  0  0  0
 54 55  1  0  0  0  0
 55 51  1  0  0  0  0
 55 52  1  0  0  0  0
M  END
>  <MODEL>
1

>  <REMARK>
 VINA RESULT:      -2.2      0.000      0.000
  Name = 
  20 active torsions:
  status: ('A' for Active; 'I' for Inactive)
    1  A    between atoms: C_2  and  C_28
    2  A    between atoms: C_2  and  N_44
    3  A    between atoms: C_6  and  C_46
    4  A    between atoms: N_8  and  N_22
    5  A    between atoms: C_10  and  C_32
    6  A    between atoms: C_17  and  S_36
    7  A    between atoms: O_19  and  C_40
    8  A    between atoms: O_19  and  C_45
    9  A    between atoms: N_22  and  C_35
   10  A    between atoms: N_22  and  C_46
   11  A    between atoms: C_24  and  C_31
   12  A    between atoms: C_27  and  C_31
   13  A    between atoms: C_27  and  C_54
   14  A    between atoms: C_28  and  C_49
   15  A    between atoms: C_33  and  C_49
   16  A    between atoms: C_33  and  C_52
   17  A    between atoms: C_35  and  C_43
   18  A    between atoms: S_36  and  C_52
   19  A    between atoms: C_43  and  C_51
   20  A    between atoms: C_51  and  C_54
                            x       y       z     vdW  Elec       q    Type
                         _______ _______ _______ _____ _____    ______ ____

>  <TORSDO>
F 20

$$$$
=
 OpenBabel11062408473D

 55 58  0  0  1  0  0  0  0  0999 V2000
  161.7350  204.3220  147.4510 C   0  0  0  0  0  0  0  0  0  0  0  0
  160.9860  204.9380  149.7560 C   0  0  0  0  0  1  0  0  0  0  0  0
  161.5780  205.3090  148.4820 N   0  0  0  0  0  0  0  0  0  0  0  0
  161.2020  203.1860  147.5760 O   0  0  0  0  0  0  0  0  0  0  0  0
  162.5280  204.6160  146.2190 C   0  0  0  0  0  2  0  0  0  0  0  0
  161.5950  204.8340  145.0450 C   0  0  0  0  0  2  0  0  0  0  0  0
  161.7780  206.2230  144.4560 C   0  0  0  0  0  2  0  0  0  0  0  0
  161.1550  206.2970  143.0730 C   0  0  0  0  0  2  0  0  0  0  0  0
  162.2130  206.0430  142.0090 C   0  0  0  0  0  2  0  0  0  0  0  0
  162.4220  207.2820  141.1550 C   0  0  0  0  0  2  0  0  0  0  0  0
  161.5570  207.2530  139.9810 N   0  0  0  0  0  0  0  0  0  0  0  0
  162.7850  205.5280  137.0200 O   0  0  0  0  0  0  0  0  0  0  0  0
  162.0220  206.2560  139.0930 N   0  0  0  0  0  2  0  0  0  0  0  0
  162.4790  206.4990  137.7520 C   0  0  0  0  0  0  0  0  0  0  0  0
  162.5890  207.7960  137.2490 O   0  0  0  0  0  1  0  0  0  0  0  0
  161.6410  208.5520  139.3150 C   0  0  0  0  0  2  0  0  0  0  0  0
  160.1680  211.1440  138.5020 N   0  0  0  0  0  0  0  0  0  0  0  0
  163.5980  210.0830  140.5180 F   0  0  0  0  0  0  0  0  0  0  0  0
  161.2370  209.6820  140.2650 C   0  0  1  0  0  3  0  0  0  0  0  0
  162.9690  213.2390  137.0110 C   0  0  0  0  0  2  0  0  0  0  0  0
  162.1600  211.2290  141.7990 F   0  0  0  0  0  0  0  0  0  0  0  0
  162.3570  210.7110  140.5300 C   0  0  0  0  0  0  0  0  0  0  0  0
  159.7530  210.2800  137.4050 C   0  0  0  0  0  1  0  0  0  0  0  0
  163.6550  213.6380  138.3100 C   0  0  0  0  0  2  0  0  0  0  0  0
  163.7240  212.4390  139.2460 C   0  0  0  0  0  2  0  0  0  0  0  0
  161.5610  211.5520  138.2380 C   0  0  2  0  0  3  0  0  0  0  0  0
  162.3200  211.8910  139.5360 C   0  0  1  0  0  3  0  0  0  0  0  0
  161.5510  212.7650  137.3030 C   0  0  0  0  0  2  0  0  0  0  0  0
  159.9720  210.3810  139.7510 C   0  0  0  0  0  2  0  0  0  0  0  0
  162.0630  206.6710  148.3190 C   0  0  0  0  0  2  0  0  0  0  0  0
  161.4590  207.5690  149.3860 C   0  0  0  0  0  2  0  0  0  0  0  0
  162.3240  207.6020  150.6320 C   0  0  0  0  0  2  0  0  0  0  0  0
  162.2310  208.9640  151.3140 C   0  0  0  0  0  2  0  0  0  0  0  0
  161.7930  207.6540  154.9020 C   0  0  0  0  0  3  0  0  0  0  0  0
  161.3770  210.0370  154.9230 C   0  0  1  0  0  3  0  0  0  0  0  0
  161.9610  207.6060  153.4010 C   0  0  0  0  0  2  0  0  0  0  0  0
  162.0020  210.1050  153.5250 C   0  0  0  0  0  2  0  0  0  0  0  0
  161.5820  208.7480  155.5550 N   0  0  0  0  0  0  0  0  0  0  0  0
  161.5560  208.9040  152.6890 C   0  0  1  0  0  0  0  0  0  0  0  0
  161.8310  211.1680  155.8430 C   0  0  1  0  0  3  0  0  0  0  0  0
  160.7040  211.7440  156.5580 N   0  0  0  0  0  1  0  0  0  0  0  0
  162.8780  210.6810  156.8280 C   0  0  0  0  0  1  0  0  0  0  0  0
  159.7250  208.9660  152.4870 S   0  0  0  0  0  0  0  0  0  0  0  0
  159.2940  213.5180  152.9000 C   0  0  0  0  0  3  0  0  0  0  0  0
  160.1270  212.9760  151.9220 C   0  0  0  0  0  3  0  0  0  0  0  0
  158.0120  210.4730  154.4880 F   0  0  0  0  0  0  0  0  0  0  0  0
  159.5080  210.7410  152.6370 C   0  0  0  0  0  0  0  0  0  0  0  0
  160.2320  211.5880  151.7920 C   0  0  0  0  0  3  0  0  0  0  0  0
  158.6810  211.2880  153.6310 C   0  0  0  0  0  0  0  0  0  0  0  0
  158.5620  212.6800  153.7580 C   0  0  0  0  0  0  0  0  0  0  0  0
  157.7050  213.1980  154.7430 O   0  0  0  0  0  0  0  0  0  0  0  0
  155.8460  212.4740  156.0740 C   0  0  0  0  0  1  0  0  0  0  0  0
  155.8800  212.2030  153.7350 F   0  0  0  0  0  0  0  0  0  0  0  0
  155.6200  214.4090  154.5730 C   0  0  0  0  0  1  0  0  0  0  0  0
  156.2820  213.0560  154.7470 C   0  0  0  0  0  0  0  0  0  0  0  0
  1  4  2  0  0  0  0
  1  3  1  0  0  0  0
  3  2  1  0  0  0  0
  5  1  1  0  0  0  0
  6  5  1  0  0  0  0
  7  6  1  0  0  0  0
  8  7  1  0  0  0  0
  9  8  1  0  0  0  0
 10  9  1  0  0  0  0
 11 10  1  0  0  0  0
 12 14  2  0  0  0  0
 13 11  1  0  0  0  0
 14 13  1  0  0  0  0
 15 14  1  0  0  0  0
 16 11  1  0  0  0  0
 17 29  1  0  0  0  0
 18 22  1  0  0  0  0
 19 16  1  6  0  0  0
 19 22  1  0  0  0  0
 20 28  1  0  0  0  0
 20 24  1  0  0  0  0
 22 21  1  0  0  0  0
 23 17  1  0  0  0  0
 24 25  1  0  0  0  0
 26 28  1  6  0  0  0
 26 17  1  0  0  0  0
 26 27  1  0  0  0  0
 27 25  1  6  0  0  0
 27 22  1  0  0  0  0
 29 19  1  0  0  0  0
 30  3  1  0  0  0  0
 30 31  1  0  0  0  0
 31 32  1  0  0  0  0
 32 33  1  0  0  0  0
 34 38  2  0  0  0  0
 35 38  1  0  0  0  0
 35 40  1  1  0  0  0
 36 34  1  0  0  0  0
 37 35  1  0  0  0  0
 39 33  1  6  0  0  0
 39 36  1  0  0  0  0
 39 37  1  0  0  0  0
 40 41  1  0  0  0  0
 40 42  1  1  0  0  0
 43 47  1  0  0  0  0
 43 39  1  0  0  0  0
 44 50  1  0  0  0  0
 45 44  2  0  0  0  0
 47 49  1  0  0  0  0
 48 45  1  0  0  0  0
 48 47  2  0  0  0  0
 49 50  2  0  0  0  0
 49 46  1  0  0  0  0
 50 51  1  0  0  0  0
 51 55  1  0  0  0  0
 53 55  1  0  0  0  0
 54 55  1  0  0  0  0
 55 52  1  0  0  0  0
M  END
>  <MODEL>
2

>  <REMARK>
 VINA RESULT:      -1.9      5.219     10.703
  Name = 
  20 active torsions:
  status: ('A' for Active; 'I' for Inactive)
    1  A    between atoms: C_2  and  C_28
    2  A    between atoms: C_2  and  N_44
    3  A    between atoms: C_6  and  C_46
    4  A    between atoms: N_8  and  N_22
    5  A    between atoms: C_10  and  C_32
    6  A    between atoms: C_17  and  S_36
    7  A    between atoms: O_19  and  C_40
    8  A    between atoms: O_19  and  C_45
    9  A    between atoms: N_22  and  C_35
   10  A    between atoms: N_22  and  C_46
   11  A    between atoms: C_24  and  C_31
   12  A    between atoms: C_27  and  C_31
   13  A    between atoms: C_27  and  C_54
   14  A    between atoms: C_28  and  C_49
   15  A    between atoms: C_33  and  C_49
   16  A    between atoms: C_33  and  C_52
   17  A    between atoms: C_35  and  C_43
   18  A    between atoms: S_36  and  C_52
   19  A    between atoms: C_43  and  C_51
   20  A    between atoms: C_51  and  C_54
                            x       y       z     vdW  Elec       q    Type
                         _______ _______ _______ _____ _____    ______ ____

>  <TORSDO>
F 20

$$$$
=
 OpenBabel11062408473D

 55 58  0  0  1  0  0  0  0  0999 V2000
  161.4520  202.8470  151.8520 C   0  0  0  0  0  0  0  0  0  0  0  0
  160.8200  201.1560  150.1200 C   0  0  0  0  0  1  0  0  0  0  0  0
  160.6880  202.4870  150.6900 N   0  0  0  0  0  0  0  0  0  0  0  0
  162.3640  202.0830  152.2710 O   0  0  0  0  0  0  0  0  0  0  0  0
  161.1840  204.1220  152.5830 C   0  0  0  0  0  2  0  0  0  0  0  0
  161.9510  205.2590  151.9360 C   0  0  0  0  0  2  0  0  0  0  0  0
  162.3920  206.2770  152.9760 C   0  0  0  0  0  2  0  0  0  0  0  0
  161.2430  206.6080  153.9120 C   0  0  0  0  0  2  0  0  0  0  0  0
  160.7860  208.0420  153.6900 C   0  0  0  0  0  2  0  0  0  0  0  0
  161.3140  208.9480  154.7890 C   0  0  0  0  0  2  0  0  0  0  0  0
  160.2210  209.4680  155.6020 N   0  0  0  0  0  0  0  0  0  0  0  0
  158.9310  206.3050  156.8620 O   0  0  0  0  0  0  0  0  0  0  0  0
  159.3610  208.4010  155.9500 N   0  0  0  0  0  2  0  0  0  0  0  0
  159.7570  207.2330  156.6870 C   0  0  0  0  0  0  0  0  0  0  0  0
  161.0450  207.1120  157.2120 O   0  0  0  0  0  1  0  0  0  0  0  0
  159.4720  210.4360  154.8030 C   0  0  0  0  0  2  0  0  0  0  0  0
  156.9350  211.6150  156.1150 N   0  0  0  0  0  0  0  0  0  0  0  0
  159.7610  212.7650  153.3490 F   0  0  0  0  0  0  0  0  0  0  0  0
  159.3850  211.7860  155.5170 C   0  0  1  0  0  3  0  0  0  0  0  0
  155.0100  212.9440  153.1180 C   0  0  0  0  0  2  0  0  0  0  0  0
  159.7170  214.1000  155.1490 F   0  0  0  0  0  0  0  0  0  0  0  0
  159.1370  212.9830  154.5730 C   0  0  0  0  0  0  0  0  0  0  0  0
  156.5900  210.2010  156.1570 C   0  0  0  0  0  1  0  0  0  0  0  0
  155.8540  214.1820  152.8500 C   0  0  0  0  0  2  0  0  0  0  0  0
  157.3320  213.8390  152.9880 C   0  0  0  0  0  2  0  0  0  0  0  0
  156.7390  212.0760  154.7280 C   0  0  2  0  0  3  0  0  0  0  0  0
  157.6340  213.2840  154.3870 C   0  0  1  0  0  3  0  0  0  0  0  0
  155.2650  212.4430  154.5340 C   0  0  0  0  0  2  0  0  0  0  0  0
  158.3180  211.7370  156.6180 C   0  0  0  0  0  2  0  0  0  0  0  0
  159.7210  203.3960  150.0960 C   0  0  0  0  0  2  0  0  0  0  0  0
  160.4370  204.4500  149.2680 C   0  0  0  0  0  2  0  0  0  0  0  0
  159.7810  205.8090  149.4190 C   0  0  0  0  0  2  0  0  0  0  0  0
  160.0540  206.6780  148.1950 C   0  0  0  0  0  2  0  0  0  0  0  0
  161.7120  210.1400  147.9860 C   0  0  0  0  0  3  0  0  0  0  0  0
  162.3350  209.1420  150.1000 C   0  0  1  0  0  3  0  0  0  0  0  0
  160.9750  208.9070  147.5190 C   0  0  0  0  0  2  0  0  0  0  0  0
  161.2280  208.1040  149.8760 C   0  0  0  0  0  2  0  0  0  0  0  0
  162.2640  210.2350  149.1490 N   0  0  0  0  0  0  0  0  0  0  0  0
  161.1980  207.6750  148.4070 C   0  0  1  0  0  0  0  0  0  0  0  0
  162.3840  209.6730  151.5310 C   0  0  1  0  0  3  0  0  0  0  0  0
  163.6440  210.3480  151.7950 N   0  0  0  0  0  1  0  0  0  0  0  0
  161.2230  210.6130  151.8030 C   0  0  0  0  0  1  0  0  0  0  0  0
  162.8060  206.8790  147.9870 S   0  0  0  0  0  0  0  0  0  0  0  0
  161.2460  204.3190  144.5120 C   0  0  0  0  0  3  0  0  0  0  0  0
  161.2140  205.7100  144.4300 C   0  0  0  0  0  3  0  0  0  0  0  0
  162.7290  203.8500  147.8310 F   0  0  0  0  0  0  0  0  0  0  0  0
  162.2420  205.8600  146.6220 C   0  0  0  0  0  0  0  0  0  0  0  0
  161.7130  206.4790  145.4860 C   0  0  0  0  0  3  0  0  0  0  0  0
  162.2610  204.4580  146.7100 C   0  0  0  0  0  0  0  0  0  0  0  0
  161.7740  203.6820  145.6480 C   0  0  0  0  0  0  0  0  0  0  0  0
  161.8310  202.2830  145.7520 O   0  0  0  0  0  0  0  0  0  0  0  0
  159.8150  201.2900  144.9140 C   0  0  0  0  0  1  0  0  0  0  0  0
  160.0110  202.0060  147.1480 F   0  0  0  0  0  0  0  0  0  0  0  0
  161.2290  200.0690  146.5130 C   0  0  0  0  0  1  0  0  0  0  0  0
  160.7300  201.4430  146.1100 C   0  0  0  0  0  0  0  0  0  0  0  0
  1  4  2  0  0  0  0
  1  5  1  0  0  0  0
  2  3  1  0  0  0  0
  3  1  1  0  0  0  0
  6  5  1  0  0  0  0
  6  7  1  0  0  0  0
  7  8  1  0  0  0  0
  9  8  1  0  0  0  0
  9 10  1  0  0  0  0
 10 11  1  0  0  0  0
 11 13  1  0  0  0  0
 13 14  1  0  0  0  0
 14 12  2  0  0  0  0
 14 15  1  0  0  0  0
 16 11  1  0  0  0  0
 17 23  1  0  0  0  0
 17 29  1  0  0  0  0
 18 22  1  0  0  0  0
 19 16  1  6  0  0  0
 19 29  1  0  0  0  0
 20 28  1  0  0  0  0
 22 21  1  0  0  0  0
 22 19  1  0  0  0  0
 24 25  1  0  0  0  0
 24 20  1  0  0  0  0
 26 28  1  1  0  0  0
 26 17  1  0  0  0  0
 27 25  1  6  0  0  0
 27 22  1  0  0  0  0
 27 26  1  0  0  0  0
 30  3  1  0  0  0  0
 31 32  1  0  0  0  0
 31 30  1  0  0  0  0
 33 32  1  0  0  0  0
 34 38  2  0  0  0  0
 35 40  1  1  0  0  0
 36 34  1  0  0  0  0
 36 39  1  0  0  0  0
 37 35  1  0  0  0  0
 38 35  1  0  0  0  0
 39 33  1  6  0  0  0
 39 37  1  0  0  0  0
 40 41  1  0  0  0  0
 40 42  1  6  0  0  0
 43 39  1  0  0  0  0
 44 50  1  0  0  0  0
 45 44  2  0  0  0  0
 45 48  1  0  0  0  0
 47 49  1  0  0  0  0
 47 43  1  0  0  0  0
 48 47  2  0  0  0  0
 49 46  1  0  0  0  0
 50 51  1  0  0  0  0
 50 49  2  0  0  0  0
 51 55  1  0  0  0  0
 52 55  1  0  0  0  0
 55 54  1  0  0  0  0
 55 53  1  0  0  0  0
M  END
>  <MODEL>
3

>  <REMARK>
 VINA RESULT:      -1.5      3.159      6.939
  Name = 
  20 active torsions:
  status: ('A' for Active; 'I' for Inactive)
    1  A    between atoms: C_2  and  C_28
    2  A    between atoms: C_2  and  N_44
    3  A    between atoms: C_6  and  C_46
    4  A    between atoms: N_8  and  N_22
    5  A    between atoms: C_10  and  C_32
    6  A    between atoms: C_17  and  S_36
    7  A    between atoms: O_19  and  C_40
    8  A    between atoms: O_19  and  C_45
    9  A    between atoms: N_22  and  C_35
   10  A    between atoms: N_22  and  C_46
   11  A    between atoms: C_24  and  C_31
   12  A    between atoms: C_27  and  C_31
   13  A    between atoms: C_27  and  C_54
   14  A    between atoms: C_28  and  C_49
   15  A    between atoms: C_33  and  C_49
   16  A    between atoms: C_33  and  C_52
   17  A    between atoms: C_35  and  C_43
   18  A    between atoms: S_36  and  C_52
   19  A    between atoms: C_43  and  C_51
   20  A    between atoms: C_51  and  C_54
                            x       y       z     vdW  Elec       q    Type
                         _______ _______ _______ _____ _____    ______ ____

>  <TORSDO>
F 20

$$$$
=
 OpenBabel11062408473D

 55 58  0  0  1  0  0  0  0  0999 V2000
  160.5230  206.2910  146.2280 C   0  0  0  0  0  0  0  0  0  0  0  0
  161.3210  205.7310  143.9250 C   0  0  0  0  0  1  0  0  0  0  0  0
  161.5700  205.8460  145.3520 N   0  0  0  0  0  0  0  0  0  0  0  0
  159.3440  206.4100  145.7950 O   0  0  0  0  0  0  0  0  0  0  0  0
  160.8050  206.6220  147.6570 C   0  0  0  0  0  2  0  0  0  0  0  0
  162.2690  206.9770  147.8250 C   0  0  0  0  0  2  0  0  0  0  0  0
  162.4320  208.4330  148.2340 C   0  0  0  0  0  2  0  0  0  0  0  0
  161.4830  208.7710  149.3700 C   0  0  0  0  0  2  0  0  0  0  0  0
  162.2580  209.3600  150.5400 C   0  0  0  0  0  2  0  0  0  0  0  0
  162.3380  210.8730  150.4220 C   0  0  0  0  0  2  0  0  0  0  0  0
  161.0040  211.4590  150.3670 N   0  0  0  0  0  0  0  0  0  0  0  0
  161.9830  213.8460  147.7990 O   0  0  0  0  0  0  0  0  0  0  0  0
  161.0260  212.5680  149.4890 N   0  0  0  0  0  2  0  0  0  0  0  0
  162.0070  212.7810  148.4620 C   0  0  0  0  0  0  0  0  0  0  0  0
  162.9870  211.8260  148.1870 O   0  0  0  0  0  1  0  0  0  0  0  0
  160.6510  211.9270  151.7070 C   0  0  0  0  0  2  0  0  0  0  0  0
  158.4960  212.4880  153.8480 N   0  0  0  0  0  0  0  0  0  0  0  0
  161.9480  210.2720  153.4950 F   0  0  0  0  0  0  0  0  0  0  0  0
  159.8540  210.8650  152.4660 C   0  0  1  0  0  3  0  0  0  0  0  0
  160.5880  213.2820  156.9220 C   0  0  0  0  0  2  0  0  0  0  0  0
  160.1440  209.0050  153.9000 F   0  0  0  0  0  0  0  0  0  0  0  0
  160.5740  210.3070  153.7120 C   0  0  0  0  0  0  0  0  0  0  0  0
  158.4440  213.7490  153.1220 C   0  0  0  0  0  1  0  0  0  0  0  0
  161.0290  211.8630  157.2550 C   0  0  0  0  0  2  0  0  0  0  0  0
  161.4110  211.1280  155.9770 C   0  0  0  0  0  2  0  0  0  0  0  0
  159.7040  212.5150  154.6940 C   0  0  2  0  0  3  0  0  0  0  0  0
  160.2340  211.0990  154.9930 C   0  0  1  0  0  3  0  0  0  0  0  0
  159.3750  213.2400  156.0020 C   0  0  0  0  0  2  0  0  0  0  0  0
  158.4690  211.4080  152.8410 C   0  0  0  0  0  2  0  0  0  0  0  0
  162.9120  205.5680  145.8400 C   0  0  0  0  0  2  0  0  0  0  0  0
  163.3120  204.1460  145.4850 C   0  0  0  0  0  2  0  0  0  0  0  0
  163.2010  203.2270  146.6860 C   0  0  0  0  0  2  0  0  0  0  0  0
  161.7990  203.2930  147.2860 C   0  0  0  0  0  2  0  0  0  0  0  0
  159.7420  201.3930  144.6520 C   0  0  0  0  0  3  0  0  0  0  0  0
  160.8200  199.7600  146.0760 C   0  0  1  0  0  3  0  0  0  0  0  0
  160.2400  202.5650  145.4670 C   0  0  0  0  0  2  0  0  0  0  0  0
  161.7090  200.8900  146.6090 C   0  0  0  0  0  2  0  0  0  0  0  0
  160.0500  200.1670  144.9150 N   0  0  0  0  0  0  0  0  0  0  0  0
  160.8830  202.1640  146.8020 C   0  0  1  0  0  0  0  0  0  0  0  0
  161.5870  198.4720  145.7900 C   0  0  1  0  0  3  0  0  0  0  0  0
  160.9630  197.3350  146.4470 N   0  0  0  0  0  1  0  0  0  0  0  0
  161.6890  198.2180  144.2970 C   0  0  0  0  0  1  0  0  0  0  0  0
  159.5750  201.8400  148.0590 S   0  0  0  0  0  0  0  0  0  0  0  0
  162.0200  202.4030  151.9020 C   0  0  0  0  0  3  0  0  0  0  0  0
  161.7040  201.1220  151.4510 C   0  0  0  0  0  3  0  0  0  0  0  0
  160.4370  204.4630  149.3160 F   0  0  0  0  0  0  0  0  0  0  0  0
  160.5670  202.0820  149.5340 C   0  0  0  0  0  0  0  0  0  0  0  0
  160.9770  200.9640  150.2670 C   0  0  0  0  0  3  0  0  0  0  0  0
  160.8740  203.3710  149.9970 C   0  0  0  0  0  0  0  0  0  0  0  0
  161.6130  203.5360  151.1770 C   0  0  0  0  0  0  0  0  0  0  0  0
  161.9300  204.8370  151.6000 O   0  0  0  0  0  0  0  0  0  0  0  0
  161.9760  206.2400  153.5450 C   0  0  0  0  0  1  0  0  0  0  0  0
  160.1280  204.8700  153.0450 F   0  0  0  0  0  0  0  0  0  0  0  0
  160.4800  206.7700  151.6660 C   0  0  0  0  0  1  0  0  0  0  0  0
  161.1130  205.6410  152.4560 C   0  0  0  0  0  0  0  0  0  0  0  0
  1  5  1  0  0  0  0
  2  3  1  0  0  0  0
  3 30  1  0  0  0  0
  3  1  1  0  0  0  0
  4  1  2  0  0  0  0
  5  6  1  0  0  0  0
  6  7  1  0  0  0  0
  7  8  1  0  0  0  0
  8  9  1  0  0  0  0
 10  9  1  0  0  0  0
 11 10  1  0  0  0  0
 11 16  1  0  0  0  0
 12 14  2  0  0  0  0
 13 11  1  0  0  0  0
 14 13  1  0  0  0  0
 15 14  1  0  0  0  0
 17 26  1  0  0  0  0
 18 22  1  0  0  0  0
 19 16  1  1  0  0  0
 19 29  1  0  0  0  0
 19 22  1  0  0  0  0
 20 24  1  0  0  0  0
 22 21  1  0  0  0  0
 22 27  1  0  0  0  0
 23 17  1  0  0  0  0
 25 24  1  0  0  0  0
 26 27  1  0  0  0  0
 26 28  1  1  0  0  0
 27 25  1  1  0  0  0
 28 20  1  0  0  0  0
 29 17  1  0  0  0  0
 31 30  1  0  0  0  0
 31 32  1  0  0  0  0
 32 33  1  0  0  0  0
 34 38  2  0  0  0  0
 34 36  1  0  0  0  0
 35 40  1  6  0  0  0
 35 37  1  0  0  0  0
 36 39  1  0  0  0  0
 37 39  1  0  0  0  0
 38 35  1  0  0  0  0
 39 33  1  1  0  0  0
 39 43  1  0  0  0  0
 40 42  1  6  0  0  0
 40 41  1  0  0  0  0
 43 47  1  0  0  0  0
 45 44  1  0  0  0  0
 46 49  1  0  0  0  0
 47 49  2  0  0  0  0
 47 48  1  0  0  0  0
 48 45  2  0  0  0  0
 49 50  1  0  0  0  0
 50 51  1  0  0  0  0
 50 44  2  0  0  0  0
 51 55  1  0  0  0  0
 54 55  1  0  0  0  0
 55 53  1  0  0  0  0
 55 52  1  0  0  0  0
M  END
>  <MODEL>
4

>  <REMARK>
 VINA RESULT:      -1.0      2.370      3.964
  Name = 
  20 active torsions:
  status: ('A' for Active; 'I' for Inactive)
    1  A    between atoms: C_2  and  C_28
    2  A    between atoms: C_2  and  N_44
    3  A    between atoms: C_6  and  C_46
    4  A    between atoms: N_8  and  N_22
    5  A    between atoms: C_10  and  C_32
    6  A    between atoms: C_17  and  S_36
    7  A    between atoms: O_19  and  C_40
    8  A    between atoms: O_19  and  C_45
    9  A    between atoms: N_22  and  C_35
   10  A    between atoms: N_22  and  C_46
   11  A    between atoms: C_24  and  C_31
   12  A    between atoms: C_27  and  C_31
   13  A    between atoms: C_27  and  C_54
   14  A    between atoms: C_28  and  C_49
   15  A    between atoms: C_33  and  C_49
   16  A    between atoms: C_33  and  C_52
   17  A    between atoms: C_35  and  C_43
   18  A    between atoms: S_36  and  C_52
   19  A    between atoms: C_43  and  C_51
   20  A    between atoms: C_51  and  C_54
                            x       y       z     vdW  Elec       q    Type
                         _______ _______ _______ _____ _____    ______ ____

>  <TORSDO>
F 20

$$$$
=
 OpenBabel11062408473D

 55 58  0  0  1  0  0  0  0  0999 V2000
  161.5340  208.3140  152.2430 C   0  0  0  0  0  0  0  0  0  0  0  0
  161.7070  210.3320  153.7100 C   0  0  0  0  0  1  0  0  0  0  0  0
  161.9000  209.6910  152.4200 N   0  0  0  0  0  0  0  0  0  0  0  0
  160.8840  207.7120  153.1400 O   0  0  0  0  0  0  0  0  0  0  0  0
  161.9150  207.5710  151.0040 C   0  0  0  0  0  2  0  0  0  0  0  0
  160.8360  207.7350  149.9520 C   0  0  0  0  0  2  0  0  0  0  0  0
  161.4350  208.1610  148.6210 C   0  0  0  0  0  2  0  0  0  0  0  0
  162.6390  207.2990  148.2850 C   0  0  0  0  0  2  0  0  0  0  0  0
  162.6120  206.9150  146.8130 C   0  0  0  0  0  2  0  0  0  0  0  0
  161.5170  205.8960  146.5450 C   0  0  0  0  0  2  0  0  0  0  0  0
  162.0370  204.5380  146.6490 N   0  0  0  0  0  0  0  0  0  0  0  0
  159.6970  203.2360  144.1820 O   0  0  0  0  0  0  0  0  0  0  0  0
  161.2160  203.6730  145.8890 N   0  0  0  0  0  2  0  0  0  0  0  0
  160.4650  204.0650  144.7280 C   0  0  0  0  0  0  0  0  0  0  0  0
  160.5730  205.3500  144.1950 O   0  0  0  0  0  1  0  0  0  0  0  0
  161.9810  204.1280  148.0510 C   0  0  0  0  0  2  0  0  0  0  0  0
  160.9070  203.8070  150.9300 N   0  0  0  0  0  0  0  0  0  0  0  0
  161.2320  201.5250  147.5170 F   0  0  0  0  0  0  0  0  0  0  0  0
  160.5760  203.6560  148.4290 C   0  0  1  0  0  3  0  0  0  0  0  0
  162.4370  200.4960  152.0060 C   0  0  0  0  0  2  0  0  0  0  0  0
  159.1060  201.8210  148.1630 F   0  0  0  0  0  0  0  0  0  0  0  0
  160.4200  202.1210  148.4780 C   0  0  0  0  0  0  0  0  0  0  0  0
  161.9630  204.7790  151.1770 C   0  0  0  0  0  1  0  0  0  0  0  0
  161.5310  199.5700  151.2060 C   0  0  0  0  0  2  0  0  0  0  0  0
  161.3160  200.1390  149.8090 C   0  0  0  0  0  2  0  0  0  0  0  0
  161.5510  202.4920  150.7540 C   0  0  2  0  0  3  0  0  0  0  0  0
  160.7040  201.5440  149.8820 C   0  0  1  0  0  3  0  0  0  0  0  0
  161.7870  201.8680  152.1320 C   0  0  0  0  0  2  0  0  0  0  0  0
  160.1440  204.2850  149.7600 C   0  0  0  0  0  2  0  0  0  0  0  0
  162.5330  210.4590  151.3590 C   0  0  0  0  0  2  0  0  0  0  0  0
  161.5200  211.3930  150.7180 C   0  0  0  0  0  2  0  0  0  0  0  0
  162.0960  212.0700  149.4890 C   0  0  0  0  0  2  0  0  0  0  0  0
  161.3260  211.6570  148.2370 C   0  0  0  0  0  2  0  0  0  0  0  0
  162.9260  213.3340  145.1700 C   0  0  0  0  0  3  0  0  0  0  0  0
  160.5290  213.3050  144.8380 C   0  0  1  0  0  3  0  0  0  0  0  0
  162.8300  212.7540  146.5620 C   0  0  0  0  0  2  0  0  0  0  0  0
  160.4340  212.3030  145.9950 C   0  0  0  0  0  2  0  0  0  0  0  0
  161.8980  213.5250  144.4120 N   0  0  0  0  0  0  0  0  0  0  0  0
  161.4000  212.6970  147.1150 C   0  0  1  0  0  0  0  0  0  0  0  0
  159.6440  212.9400  143.6490 C   0  0  1  0  0  3  0  0  0  0  0  0
  159.3170  214.1160  142.8600 N   0  0  0  0  0  1  0  0  0  0  0  0
  160.3130  211.8950  142.7730 C   0  0  0  0  0  1  0  0  0  0  0  0
  160.9110  214.3510  147.7650 S   0  0  0  0  0  0  0  0  0  0  0  0
  156.8110  213.2720  149.5240 C   0  0  0  0  0  3  0  0  0  0  0  0
  157.0360  213.1720  148.1520 C   0  0  0  0  0  3  0  0  0  0  0  0
  160.0830  214.4500  150.6830 F   0  0  0  0  0  0  0  0  0  0  0  0
  159.3300  213.8930  148.4790 C   0  0  0  0  0  0  0  0  0  0  0  0
  158.2960  213.4820  147.6310 C   0  0  0  0  0  3  0  0  0  0  0  0
  159.0980  214.0070  149.8590 C   0  0  0  0  0  0  0  0  0  0  0  0
  157.8400  213.6840  150.3880 C   0  0  0  0  0  0  0  0  0  0  0  0
  157.6460  213.7810  151.7760 O   0  0  0  0  0  0  0  0  0  0  0  0
  159.4200  213.2880  153.3120 C   0  0  0  0  0  1  0  0  0  0  0  0
  158.2910  211.5910  152.1320 F   0  0  0  0  0  0  0  0  0  0  0  0
  157.0980  212.6940  153.8640 C   0  0  0  0  0  1  0  0  0  0  0  0
  158.1010  212.8220  152.7340 C   0  0  0  0  0  0  0  0  0  0  0  0
  1  3  1  0  0  0  0
  1  4  2  0  0  0  0
  3  2  1  0  0  0  0
  5  1  1  0  0  0  0
  6  5  1  0  0  0  0
  7  6  1  0  0  0  0
  8  7  1  0  0  0  0
  9  8  1  0  0  0  0
 10 11  1  0  0  0  0
 10  9  1  0  0  0  0
 11 16  1  0  0  0  0
 12 14  2  0  0  0  0
 13 11  1  0  0  0  0
 14 13  1  0  0  0  0
 15 14  1  0  0  0  0
 17 23  1  0  0  0  0
 18 22  1  0  0  0  0
 19 16  1  1  0  0  0
 19 22  1  0  0  0  0
 19 29  1  0  0  0  0
 20 28  1  0  0  0  0
 21 22  1  0  0  0  0
 22 27  1  0  0  0  0
 24 20  1  0  0  0  0
 25 24  1  0  0  0  0
 26 17  1  0  0  0  0
 26 28  1  1  0  0  0
 27 25  1  6  0  0  0
 27 26  1  0  0  0  0
 29 17  1  0  0  0  0
 30  3  1  0  0  0  0
 31 30  1  0  0  0  0
 32 31  1  0  0  0  0
 33 32  1  0  0  0  0
 34 36  1  0  0  0  0
 35 40  1  6  0  0  0
 35 37  1  0  0  0  0
 36 39  1  0  0  0  0
 37 39  1  0  0  0  0
 38 35  1  0  0  0  0
 38 34  2  0  0  0  0
 39 43  1  0  0  0  0
 39 33  1  1  0  0  0
 40 42  1  6  0  0  0
 41 40  1  0  0  0  0
 43 47  1  0  0  0  0
 44 50  1  0  0  0  0
 45 44  2  0  0  0  0
 47 49  1  0  0  0  0
 48 45  1  0  0  0  0
 48 47  2  0  0  0  0
 49 50  2  0  0  0  0
 49 46  1  0  0  0  0
 50 51  1  0  0  0  0
 51 55  1  0  0  0  0
 53 55  1  0  0  0  0
 55 52  1  0  0  0  0
 55 54  1  0  0  0  0
M  END
>  <MODEL>
5

>  <REMARK>
 VINA RESULT:      -0.8      3.111     10.628
  Name = 
  20 active torsions:
  status: ('A' for Active; 'I' for Inactive)
    1  A    between atoms: C_2  and  C_28
    2  A    between atoms: C_2  and  N_44
    3  A    between atoms: C_6  and  C_46
    4  A    between atoms: N_8  and  N_22
    5  A    between atoms: C_10  and  C_32
    6  A    between atoms: C_17  and  S_36
    7  A    between atoms: O_19  and  C_40
    8  A    between atoms: O_19  and  C_45
    9  A    between atoms: N_22  and  C_35
   10  A    between atoms: N_22  and  C_46
   11  A    between atoms: C_24  and  C_31
   12  A    between atoms: C_27  and  C_31
   13  A    between atoms: C_27  and  C_54
   14  A    between atoms: C_28  and  C_49
   15  A    between atoms: C_33  and  C_49
   16  A    between atoms: C_33  and  C_52
   17  A    between atoms: C_35  and  C_43
   18  A    between atoms: S_36  and  C_52
   19  A    between atoms: C_43  and  C_51
   20  A    between atoms: C_51  and  C_54
                            x       y       z     vdW  Elec       q    Type
                         _______ _______ _______ _____ _____    ______ ____

>  <TORSDO>
F 20

$$$$
=
 OpenBabel11062408473D

 55 58  0  0  1  0  0  0  0  0999 V2000
  161.0840  202.7550  151.8570 C   0  0  0  0  0  0  0  0  0  0  0  0
  161.1250  200.4960  150.7830 C   0  0  0  0  0  1  0  0  0  0  0  0
  160.5650  201.8330  150.8850 N   0  0  0  0  0  0  0  0  0  0  0  0
  162.1360  202.4750  152.4950 O   0  0  0  0  0  0  0  0  0  0  0  0
  160.3960  204.0510  152.1320 C   0  0  0  0  0  2  0  0  0  0  0  0
  161.3840  205.0490  152.7020 C   0  0  0  0  0  2  0  0  0  0  0  0
  160.6680  206.1290  153.4980 C   0  0  0  0  0  2  0  0  0  0  0  0
  161.3600  207.4680  153.3130 C   0  0  0  0  0  2  0  0  0  0  0  0
  160.3460  208.5980  153.4120 C   0  0  0  0  0  2  0  0  0  0  0  0
  161.0200  209.8840  153.8600 C   0  0  0  0  0  2  0  0  0  0  0  0
  160.2250  210.5580  154.8790 N   0  0  0  0  0  0  0  0  0  0  0  0
  159.7900  207.8070  157.2240 O   0  0  0  0  0  1  0  0  0  0  0  0
  159.6520  209.5860  155.7320 N   0  0  0  0  0  2  0  0  0  0  0  0
  160.3980  208.6920  156.5750 C   0  0  0  0  0  0  0  0  0  0  0  0
  161.7850  208.7900  156.6840 O   0  0  0  0  0  0  0  0  0  0  0  0
  159.1490  211.2930  154.2140 C   0  0  0  0  0  2  0  0  0  0  0  0
  157.6900  213.8980  155.0050 N   0  0  0  0  0  0  0  0  0  0  0  0
  159.0890  212.1000  151.5750 F   0  0  0  0  0  0  0  0  0  0  0  0
  159.5970  212.7090  153.8490 C   0  0  1  0  0  3  0  0  0  0  0  0
  154.8350  214.0270  152.4970 C   0  0  0  0  0  2  0  0  0  0  0  0
  160.0640  214.0780  151.9760 F   0  0  0  0  0  0  0  0  0  0  0  0
  159.1280  213.1780  152.4550 C   0  0  0  0  0  0  0  0  0  0  0  0
  157.1960  213.0200  156.0560 C   0  0  0  0  0  1  0  0  0  0  0  0
  155.6390  214.4520  151.2760 C   0  0  0  0  0  2  0  0  0  0  0  0
  156.9490  213.6770  151.2260 C   0  0  0  0  0  2  0  0  0  0  0  0
  156.9560  213.5640  153.7700 C   0  0  2  0  0  3  0  0  0  0  0  0
  157.7670  213.9050  152.5050 C   0  0  1  0  0  3  0  0  0  0  0  0
  155.6270  214.3250  153.7640 C   0  0  0  0  0  2  0  0  0  0  0  0
  159.1510  213.7020  154.9300 C   0  0  0  0  0  2  0  0  0  0  0  0
  159.4340  202.1720  150.0350 C   0  0  0  0  0  2  0  0  0  0  0  0
  159.5180  201.4040  148.7270 C   0  0  0  0  0  2  0  0  0  0  0  0
  160.5210  202.0350  147.7810 C   0  0  0  0  0  2  0  0  0  0  0  0
  161.2940  203.1490  148.4820 C   0  0  0  0  0  2  0  0  0  0  0  0
  163.2490  205.9810  146.7680 C   0  0  0  0  0  3  0  0  0  0  0  0
  161.4640  205.3010  145.2820 C   0  0  1  0  0  3  0  0  0  0  0  0
  162.8000  205.0560  147.8750 C   0  0  0  0  0  2  0  0  0  0  0  0
  161.2860  204.0530  146.1530 C   0  0  0  0  0  2  0  0  0  0  0  0
  162.6700  206.0370  145.6150 N   0  0  0  0  0  0  0  0  0  0  0  0
  161.4250  204.4180  147.6320 C   0  0  1  0  0  0  0  0  0  0  0  0
  161.4080  205.0070  143.7850 C   0  0  1  0  0  3  0  0  0  0  0  0
  160.4230  203.9790  143.4910 N   0  0  0  0  0  1  0  0  0  0  0  0
  161.1010  206.2650  142.9930 C   0  0  0  0  0  1  0  0  0  0  0  0
  160.0910  205.6090  148.0800 S   0  0  0  0  0  0  0  0  0  0  0  0
  162.6380  208.9180  149.9860 C   0  0  0  0  0  3  0  0  0  0  0  0
  162.3910  207.7330  150.6790 C   0  0  0  0  0  3  0  0  0  0  0  0
  160.8250  208.2900  146.8630 F   0  0  0  0  0  0  0  0  0  0  0  0
  161.1200  206.8970  148.7880 C   0  0  0  0  0  0  0  0  0  0  0  0
  161.6320  206.7240  150.0780 C   0  0  0  0  0  3  0  0  0  0  0  0
  161.3580  208.0950  148.0970 C   0  0  0  0  0  0  0  0  0  0  0  0
  162.1290  209.1060  148.6890 C   0  0  0  0  0  0  0  0  0  0  0  0
  162.3750  210.2830  147.9630 O   0  0  0  0  0  0  0  0  0  0  0  0
  163.1040  212.5600  148.1470 C   0  0  0  0  0  1  0  0  0  0  0  0
  161.6170  211.6010  149.7020 F   0  0  0  0  0  0  0  0  0  0  0  0
  160.7810  212.0460  147.5240 C   0  0  0  0  0  1  0  0  0  0  0  0
  161.9600  211.5920  148.3620 C   0  0  0  0  0  0  0  0  0  0  0  0
  1  5  1  0  0  0  0
  1  4  2  0  0  0  0
  2  3  1  0  0  0  0
  3  1  1  0  0  0  0
  5  6  1  0  0  0  0
  6  7  1  0  0  0  0
  8  9  1  0  0  0  0
  8  7  1  0  0  0  0
  9 10  1  0  0  0  0
 10 11  1  0  0  0  0
 11 13  1  0  0  0  0
 13 14  1  0  0  0  0
 14 15  2  0  0  0  0
 14 12  1  0  0  0  0
 16 11  1  0  0  0  0
 17 23  1  0  0  0  0
 18 22  1  0  0  0  0
 19 16  1  1  0  0  0
 19 29  1  0  0  0  0
 20 28  1  0  0  0  0
 21 22  1  0  0  0  0
 22 27  1  0  0  0  0
 22 19  1  0  0  0  0
 24 20  1  0  0  0  0
 25 24  1  0  0  0  0
 26 28  1  6  0  0  0
 26 17  1  0  0  0  0
 27 25  1  6  0  0  0
 27 26  1  0  0  0  0
 29 17  1  0  0  0  0
 30  3  1  0  0  0  0
 31 30  1  0  0  0  0
 32 33  1  0  0  0  0
 32 31  1  0  0  0  0
 34 36  1  0  0  0  0
 35 40  1  6  0  0  0
 35 38  1  0  0  0  0
 35 37  1  0  0  0  0
 37 39  1  0  0  0  0
 38 34  2  0  0  0  0
 39 36  1  0  0  0  0
 39 43  1  0  0  0  0
 39 33  1  1  0  0  0
 40 42  1  6  0  0  0
 41 40  1  0  0  0  0
 43 47  1  0  0  0  0
 44 45  1  0  0  0  0
 46 49  1  0  0  0  0
 47 48  1  0  0  0  0
 48 45  2  0  0  0  0
 49 50  1  0  0  0  0
 49 47  2  0  0  0  0
 50 44  2  0  0  0  0
 51 55  1  0  0  0  0
 51 50  1  0  0  0  0
 52 55  1  0  0  0  0
 54 55  1  0  0  0  0
 55 53  1  0  0  0  0
M  END
>  <MODEL>
6

>  <REMARK>
 VINA RESULT:      -0.8      2.620      5.473
  Name = 
  20 active torsions:
  status: ('A' for Active; 'I' for Inactive)
    1  A    between atoms: C_2  and  C_28
    2  A    between atoms: C_2  and  N_44
    3  A    between atoms: C_6  and  C_46
    4  A    between atoms: N_8  and  N_22
    5  A    between atoms: C_10  and  C_32
    6  A    between atoms: C_17  and  S_36
    7  A    between atoms: O_19  and  C_40
    8  A    between atoms: O_19  and  C_45
    9  A    between atoms: N_22  and  C_35
   10  A    between atoms: N_22  and  C_46
   11  A    between atoms: C_24  and  C_31
   12  A    between atoms: C_27  and  C_31
   13  A    between atoms: C_27  and  C_54
   14  A    between atoms: C_28  and  C_49
   15  A    between atoms: C_33  and  C_49
   16  A    between atoms: C_33  and  C_52
   17  A    between atoms: C_35  and  C_43
   18  A    between atoms: S_36  and  C_52
   19  A    between atoms: C_43  and  C_51
   20  A    between atoms: C_51  and  C_54
                            x       y       z     vdW  Elec       q    Type
                         _______ _______ _______ _____ _____    ______ ____

>  <TORSDO>
F 20

$$$$
=
 OpenBabel11062408473D

 55 58  0  0  1  0  0  0  0  0999 V2000
  162.3310  206.0140  146.3170 C   0  0  0  0  0  0  0  0  0  0  0  0
  160.7000  204.8550  144.8160 C   0  0  0  0  0  1  0  0  0  0  0  0
  161.0770  205.3380  146.1340 N   0  0  0  0  0  0  0  0  0  0  0  0
  163.0220  206.3470  145.3160 O   0  0  0  0  0  0  0  0  0  0  0  0
  162.8420  206.3300  147.6850 C   0  0  0  0  0  2  0  0  0  0  0  0
  162.6890  207.8130  147.9610 C   0  0  0  0  0  2  0  0  0  0  0  0
  162.9320  208.1190  149.4310 C   0  0  0  0  0  2  0  0  0  0  0  0
  161.7510  208.8750  150.0150 C   0  0  0  0  0  2  0  0  0  0  0  0
  162.2440  209.9930  150.9220 C   0  0  0  0  0  2  0  0  0  0  0  0
  161.1880  210.3470  151.9560 C   0  0  0  0  0  2  0  0  0  0  0  0
  160.8100  211.7510  151.8510 N   0  0  0  0  0  0  0  0  0  0  0  0
  159.0400  212.0540  155.0180 O   0  0  0  0  0  1  0  0  0  0  0  0
  159.8320  212.0370  152.8310 N   0  0  0  0  0  2  0  0  0  0  0  0
  160.0080  211.8510  154.2450 C   0  0  0  0  0  0  0  0  0  0  0  0
  161.2350  211.4500  154.7750 O   0  0  0  0  0  0  0  0  0  0  0  0
  160.2300  211.9740  150.5280 C   0  0  0  0  0  2  0  0  0  0  0  0
  158.6320  214.3380  149.3430 N   0  0  0  0  0  0  0  0  0  0  0  0
  161.5660  211.7170  148.1250 F   0  0  0  0  0  0  0  0  0  0  0  0
  160.8350  213.2130  149.8650 C   0  0  1  0  0  3  0  0  0  0  0  0
  157.4970  212.9550  145.9880 C   0  0  0  0  0  2  0  0  0  0  0  0
  162.2370  213.8550  148.0710 F   0  0  0  0  0  0  0  0  0  0  0  0
  161.1680  213.0280  148.3690 C   0  0  0  0  0  0  0  0  0  0  0  0
  157.6440  213.8320  150.2860 C   0  0  0  0  0  1  0  0  0  0  0  0
  158.8270  213.0500  145.2540 C   0  0  0  0  0  2  0  0  0  0  0  0
  159.9550  212.5900  146.1690 C   0  0  0  0  0  2  0  0  0  0  0  0
  158.6380  213.4310  148.1800 C   0  0  2  0  0  3  0  0  0  0  0  0
  159.9960  213.4340  147.4500 C   0  0  1  0  0  3  0  0  0  0  0  0
  157.5240  213.8530  147.2190 C   0  0  0  0  0  2  0  0  0  0  0  0
  159.9160  214.4250  150.0680 C   0  0  0  0  0  2  0  0  0  0  0  0
  160.1900  205.0540  147.2510 C   0  0  0  0  0  2  0  0  0  0  0  0
  159.8230  206.3440  147.9660 C   0  0  0  0  0  2  0  0  0  0  0  0
  159.8560  206.1670  149.4710 C   0  0  0  0  0  2  0  0  0  0  0  0
  160.9650  205.2000  149.8750 C   0  0  0  0  0  2  0  0  0  0  0  0
  163.0700  205.4520  153.0830 C   0  0  0  0  0  3  0  0  0  0  0  0
  160.8860  206.3840  153.5490 C   0  0  1  0  0  3  0  0  0  0  0  0
  162.6870  205.0230  151.6850 C   0  0  0  0  0  2  0  0  0  0  0  0
  160.6310  206.4060  152.0370 C   0  0  0  0  0  2  0  0  0  0  0  0
  162.2710  206.0920  153.8690 N   0  0  0  0  0  0  0  0  0  0  0  0
  161.1850  205.1350  151.3900 C   0  0  1  0  0  0  0  0  0  0  0  0
  160.4230  207.6540  154.2590 C   0  0  1  0  0  3  0  0  0  0  0  0
  159.3840  207.3600  155.2320 N   0  0  0  0  0  1  0  0  0  0  0  0
  161.5880  208.3540  154.9360 C   0  0  0  0  0  1  0  0  0  0  0  0
  160.2970  203.6780  152.0870 S   0  0  0  0  0  0  0  0  0  0  0  0
  161.9610  200.5650  149.1530 C   0  0  0  0  0  3  0  0  0  0  0  0
  162.6330  200.8400  150.3420 C   0  0  0  0  0  3  0  0  0  0  0  0
  159.0980  202.8370  149.4290 F   0  0  0  0  0  0  0  0  0  0  0  0
  160.9060  202.4330  150.9470 C   0  0  0  0  0  0  0  0  0  0  0  0
  162.1050  201.7740  151.2380 C   0  0  0  0  0  3  0  0  0  0  0  0
  160.2370  202.1660  149.7420 C   0  0  0  0  0  0  0  0  0  0  0  0
  160.7560  201.2200  148.8450 C   0  0  0  0  0  0  0  0  0  0  0  0
  160.0500  200.9530  147.6610 O   0  0  0  0  0  0  0  0  0  0  0  0
  161.0530  199.9170  145.7440 C   0  0  0  0  0  1  0  0  0  0  0  0
  161.5760  202.1230  146.3810 F   0  0  0  0  0  0  0  0  0  0  0  0
  159.4210  201.7360  145.4620 C   0  0  0  0  0  1  0  0  0  0  0  0
  160.5390  201.2090  146.3420 C   0  0  0  0  0  0  0  0  0  0  0  0
  1  5  1  0  0  0  0
  2  3  1  0  0  0  0
  3  1  1  0  0  0  0
  3 30  1  0  0  0  0
  4  1  2  0  0  0  0
  5  6  1  0  0  0  0
  6  7  1  0  0  0  0
  7  8  1  0  0  0  0
  8  9  1  0  0  0  0
  9 10  1  0  0  0  0
 11 10  1  0  0  0  0
 11 13  1  0  0  0  0
 13 14  1  0  0  0  0
 14 15  2  0  0  0  0
 14 12  1  0  0  0  0
 16 11  1  0  0  0  0
 17 29  1  0  0  0  0
 17 23  1  0  0  0  0
 18 22  1  0  0  0  0
 19 29  1  0  0  0  0
 19 16  1  6  0  0  0
 20 28  1  0  0  0  0
 21 22  1  0  0  0  0
 22 19  1  0  0  0  0
 24 20  1  0  0  0  0
 24 25  1  0  0  0  0
 26 28  1  6  0  0  0
 26 17  1  0  0  0  0
 27 25  1  6  0  0  0
 27 26  1  0  0  0  0
 27 22  1  0  0  0  0
 30 31  1  0  0  0  0
 31 32  1  0  0  0  0
 32 33  1  0  0  0  0
 34 38  2  0  0  0  0
 35 38  1  0  0  0  0
 35 40  1  6  0  0  0
 36 34  1  0  0  0  0
 37 35  1  0  0  0  0
 39 33  1  6  0  0  0
 39 36  1  0  0  0  0
 39 37  1  0  0  0  0
 39 43  1  0  0  0  0
 40 42  1  1  0  0  0
 40 41  1  0  0  0  0
 44 45  1  0  0  0  0
 45 48  2  0  0  0  0
 46 49  1  0  0  0  0
 47 48  1  0  0  0  0
 47 43  1  0  0  0  0
 49 47  2  0  0  0  0
 50 44  2  0  0  0  0
 50 49  1  0  0  0  0
 51 50  1  0  0  0  0
 52 55  1  0  0  0  0
 54 55  1  0  0  0  0
 55 53  1  0  0  0  0
 55 51  1  0  0  0  0
M  END
>  <MODEL>
7

>  <REMARK>
 VINA RESULT:      -0.5      2.074      5.102
  Name = 
  20 active torsions:
  status: ('A' for Active; 'I' for Inactive)
    1  A    between atoms: C_2  and  C_28
    2  A    between atoms: C_2  and  N_44
    3  A    between atoms: C_6  and  C_46
    4  A    between atoms: N_8  and  N_22
    5  A    between atoms: C_10  and  C_32
    6  A    between atoms: C_17  and  S_36
    7  A    between atoms: O_19  and  C_40
    8  A    between atoms: O_19  and  C_45
    9  A    between atoms: N_22  and  C_35
   10  A    between atoms: N_22  and  C_46
   11  A    between atoms: C_24  and  C_31
   12  A    between atoms: C_27  and  C_31
   13  A    between atoms: C_27  and  C_54
   14  A    between atoms: C_28  and  C_49
   15  A    between atoms: C_33  and  C_49
   16  A    between atoms: C_33  and  C_52
   17  A    between atoms: C_35  and  C_43
   18  A    between atoms: S_36  and  C_52
   19  A    between atoms: C_43  and  C_51
   20  A    between atoms: C_51  and  C_54
                            x       y       z     vdW  Elec       q    Type
                         _______ _______ _______ _____ _____    ______ ____

>  <TORSDO>
F 20

$$$$
=
 OpenBabel11062408473D

 55 58  0  0  1  0  0  0  0  0999 V2000
  159.3380  213.1370  148.0250 C   0  0  0  0  0  0  0  0  0  0  0  0
  157.2970  214.2940  147.1580 C   0  0  0  0  0  1  0  0  0  0  0  0
  157.9800  213.5640  148.2130 N   0  0  0  0  0  0  0  0  0  0  0  0
  159.9970  213.5450  147.0300 O   0  0  0  0  0  0  0  0  0  0  0  0
  159.9930  212.2070  148.9940 C   0  0  0  0  0  2  0  0  0  0  0  0
  161.2990  212.8040  149.4800 C   0  0  0  0  0  2  0  0  0  0  0  0
  162.4880  212.0430  148.9170 C   0  0  0  0  0  2  0  0  0  0  0  0
  162.0420  211.1220  147.7950 C   0  0  0  0  0  2  0  0  0  0  0  0
  162.6980  209.7570  147.9470 C   0  0  0  0  0  2  0  0  0  0  0  0
  161.6490  208.6760  148.1420 C   0  0  0  0  0  2  0  0  0  0  0  0
  162.2620  207.3530  148.1440 N   0  0  0  0  0  0  0  0  0  0  0  0
  161.0880  204.8180  145.8100 O   0  0  0  0  0  0  0  0  0  0  0  0
  161.4390  206.4650  147.4140 N   0  0  0  0  0  2  0  0  0  0  0  0
  161.9150  205.4950  146.4680 C   0  0  0  0  0  0  0  0  0  0  0  0
  163.2810  205.2900  146.2670 O   0  0  0  0  0  1  0  0  0  0  0  0
  162.3470  206.8880  149.5270 C   0  0  0  0  0  2  0  0  0  0  0  0
  161.7080  205.4940  152.2100 N   0  0  0  0  0  0  0  0  0  0  0  0
  160.4760  205.2820  148.2860 F   0  0  0  0  0  0  0  0  0  0  0  0
  160.9550  206.7390  150.1430 C   0  0  1  0  0  3  0  0  0  0  0  0
  161.8110  201.8130  151.2610 C   0  0  0  0  0  2  0  0  0  0  0  0
  158.8160  205.8350  149.6870 F   0  0  0  0  0  0  0  0  0  0  0  0
  160.1620  205.5210  149.6210 C   0  0  0  0  0  0  0  0  0  0  0  0
  163.1040  205.8360  152.4460 C   0  0  0  0  0  1  0  0  0  0  0  0
  160.4810  201.7440  150.5230 C   0  0  0  0  0  2  0  0  0  0  0  0
  160.3140  202.9760  149.6420 C   0  0  0  0  0  2  0  0  0  0  0  0
  161.6860  204.3270  151.3080 C   0  0  2  0  0  3  0  0  0  0  0  0
  160.3880  204.2590  150.4810 C   0  0  1  0  0  3  0  0  0  0  0  0
  161.8440  203.0540  152.1440 C   0  0  0  0  0  2  0  0  0  0  0  0
  161.0520  206.7030  151.6740 C   0  0  0  0  0  2  0  0  0  0  0  0
  157.2290  213.2240  149.4120 C   0  0  0  0  0  2  0  0  0  0  0  0
  157.2170  214.4030  150.3700 C   0  0  0  0  0  2  0  0  0  0  0  0
  156.6160  214.0180  151.7090 C   0  0  0  0  0  2  0  0  0  0  0  0
  157.6070  214.2830  152.8390 C   0  0  0  0  0  2  0  0  0  0  0  0
  159.0860  212.4480  155.8760 C   0  0  0  0  0  3  0  0  0  0  0  0
  156.6970  212.0640  155.8640 C   0  0  1  0  0  3  0  0  0  0  0  0
  159.0620  213.2000  154.5660 C   0  0  0  0  0  2  0  0  0  0  0  0
  156.5740  213.1950  154.8360 C   0  0  0  0  0  2  0  0  0  0  0  0
  158.0220  211.9970  156.4520 N   0  0  0  0  0  0  0  0  0  0  0  0
  157.7200  213.1160  153.8260 C   0  0  1  0  0  0  0  0  0  0  0  0
  155.6260  212.1170  156.9520 C   0  0  1  0  0  3  0  0  0  0  0  0
  154.6940  213.2060  156.7150 N   0  0  0  0  0  1  0  0  0  0  0  0
  154.8770  210.8000  157.0420 C   0  0  0  0  0  1  0  0  0  0  0  0
  157.6020  211.5170  152.9170 S   0  0  0  0  0  0  0  0  0  0  0  0
  162.0010  210.2160  153.0720 C   0  0  0  0  0  3  0  0  0  0  0  0
  161.5600  211.0870  152.0770 C   0  0  0  0  0  3  0  0  0  0  0  0
  158.8920  209.6490  154.9300 F   0  0  0  0  0  0  0  0  0  0  0  0
  159.3260  211.0300  153.0220 C   0  0  0  0  0  0  0  0  0  0  0  0
  160.2220  211.4940  152.0540 C   0  0  0  0  0  3  0  0  0  0  0  0
  159.7670  210.1420  154.0150 C   0  0  0  0  0  0  0  0  0  0  0  0
  161.1110  209.7410  154.0500 C   0  0  0  0  0  0  0  0  0  0  0  0
  161.5310  208.8730  155.0720 O   0  0  0  0  0  0  0  0  0  0  0  0
  162.6260  210.1820  156.7560 C   0  0  0  0  0  1  0  0  0  0  0  0
  161.7440  208.0490  157.2200 F   0  0  0  0  0  0  0  0  0  0  0  0
  160.1970  209.8130  156.8550 C   0  0  0  0  0  1  0  0  0  0  0  0
  161.5230  209.1880  156.4670 C   0  0  0  0  0  0  0  0  0  0  0  0
  1  3  1  0  0  0  0
  1  5  1  0  0  0  0
  2  3  1  0  0  0  0
  3 30  1  0  0  0  0
  4  1  2  0  0  0  0
  5  6  1  0  0  0  0
  7  6  1  0  0  0  0
  8  9  1  0  0  0  0
  8  7  1  0  0  0  0
  9 10  1  0  0  0  0
 10 11  1  0  0  0  0
 11 16  1  0  0  0  0
 12 14  2  0  0  0  0
 13 11  1  0  0  0  0
 14 13  1  0  0  0  0
 15 14  1  0  0  0  0
 17 23  1  0  0  0  0
 18 22  1  0  0  0  0
 19 16  1  6  0  0  0
 19 29  1  0  0  0  0
 20 28  1  0  0  0  0
 22 21  1  0  0  0  0
 22 19  1  0  0  0  0
 22 27  1  0  0  0  0
 24 20  1  0  0  0  0
 25 24  1  0  0  0  0
 26 28  1  1  0  0  0
 26 17  1  0  0  0  0
 27 25  1  6  0  0  0
 27 26  1  0  0  0  0
 29 17  1  0  0  0  0
 30 31  1  0  0  0  0
 31 32  1  0  0  0  0
 32 33  1  0  0  0  0
 34 38  2  0  0  0  0
 35 38  1  0  0  0  0
 35 40  1  1  0  0  0
 36 34  1  0  0  0  0
 37 35  1  0  0  0  0
 39 33  1  6  0  0  0
 39 36  1  0  0  0  0
 39 37  1  0  0  0  0
 40 42  1  6  0  0  0
 41 40  1  0  0  0  0
 43 47  1  0  0  0  0
 43 39  1  0  0  0  0
 44 50  1  0  0  0  0
 45 44  2  0  0  0  0
 47 49  1  0  0  0  0
 48 45  1  0  0  0  0
 48 47  2  0  0  0  0
 49 50  2  0  0  0  0
 49 46  1  0  0  0  0
 50 51  1  0  0  0  0
 51 55  1  0  0  0  0
 55 52  1  0  0  0  0
 55 54  1  0  0  0  0
 55 53  1  0  0  0  0
M  END
>  <MODEL>
8

>  <REMARK>
 VINA RESULT:       0.3      3.519     10.384
  Name = 
  20 active torsions:
  status: ('A' for Active; 'I' for Inactive)
    1  A    between atoms: C_2  and  C_28
    2  A    between atoms: C_2  and  N_44
    3  A    between atoms: C_6  and  C_46
    4  A    between atoms: N_8  and  N_22
    5  A    between atoms: C_10  and  C_32
    6  A    between atoms: C_17  and  S_36
    7  A    between atoms: O_19  and  C_40
    8  A    between atoms: O_19  and  C_45
    9  A    between atoms: N_22  and  C_35
   10  A    between atoms: N_22  and  C_46
   11  A    between atoms: C_24  and  C_31
   12  A    between atoms: C_27  and  C_31
   13  A    between atoms: C_27  and  C_54
   14  A    between atoms: C_28  and  C_49
   15  A    between atoms: C_33  and  C_49
   16  A    between atoms: C_33  and  C_52
   17  A    between atoms: C_35  and  C_43
   18  A    between atoms: S_36  and  C_52
   19  A    between atoms: C_43  and  C_51
   20  A    between atoms: C_51  and  C_54
                            x       y       z     vdW  Elec       q    Type
                         _______ _______ _______ _____ _____    ______ ____

>  <TORSDO>
F 20

$$$$
=
 OpenBabel11062408473D

 55 58  0  0  1  0  0  0  0  0999 V2000
  160.3380  208.1290  155.6070 C   0  0  0  0  0  0  0  0  0  0  0  0
  160.5690  205.9230  154.4500 C   0  0  0  0  0  1  0  0  0  0  0  0
  160.5850  207.3760  154.4090 N   0  0  0  0  0  0  0  0  0  0  0  0
  160.2830  207.5420  156.7230 O   0  0  0  0  0  0  0  0  0  0  0  0
  160.1370  209.6080  155.5580 C   0  0  0  0  0  2  0  0  0  0  0  0
  160.3880  210.2080  156.9270 C   0  0  0  0  0  2  0  0  0  0  0  0
  160.4070  211.7270  156.8600 C   0  0  0  0  0  2  0  0  0  0  0  0
  159.0540  212.2900  157.2580 C   0  0  0  0  0  2  0  0  0  0  0  0
  158.1700  212.4470  156.0290 C   0  0  0  0  0  2  0  0  0  0  0  0
  158.5360  213.7070  155.2640 C   0  0  0  0  0  2  0  0  0  0  0  0
  157.5410  213.9990  154.2400 N   0  0  0  0  0  0  0  0  0  0  0  0
  154.8360  211.8040  155.2990 O   0  0  0  0  0  0  0  0  0  0  0  0
  156.5470  212.9930  154.2650 N   0  0  0  0  0  2  0  0  0  0  0  0
  155.6180  212.7850  155.3410 C   0  0  0  0  0  0  0  0  0  0  0  0
  155.5680  213.6530  156.4320 O   0  0  0  0  0  1  0  0  0  0  0  0
  158.2010  213.9760  152.9350 C   0  0  0  0  0  2  0  0  0  0  0  0
  159.9110  211.6180  151.9030 N   0  0  0  0  0  0  0  0  0  0  0  0
  157.3580  214.4520  150.3500 F   0  0  0  0  0  0  0  0  0  0  0  0
  157.6910  212.8130  152.0830 C   0  0  1  0  0  3  0  0  0  0  0  0
  161.7140  213.1590  148.9310 C   0  0  0  0  0  2  0  0  0  0  0  0
  156.6340  212.3570  150.0150 F   0  0  0  0  0  0  0  0  0  0  0  0
  157.6560  213.1100  150.5680 C   0  0  0  0  0  0  0  0  0  0  0  0
  160.7180  212.0140  153.0490 C   0  0  0  0  0  1  0  0  0  0  0  0
  160.5450  213.1770  147.9550 C   0  0  0  0  0  2  0  0  0  0  0  0
  159.2810  213.6300  148.6730 C   0  0  0  0  0  2  0  0  0  0  0  0
  160.1590  212.5980  150.8290 C   0  0  2  0  0  3  0  0  0  0  0  0
  158.9660  212.7080  149.8580 C   0  0  1  0  0  3  0  0  0  0  0  0
  161.4210  212.1860  150.0660 C   0  0  0  0  0  2  0  0  0  0  0  0
  158.5100  211.5470  152.3650 C   0  0  0  0  0  2  0  0  0  0  0  0
  160.7860  208.0250  153.1240 C   0  0  0  0  0  2  0  0  0  0  0  0
  162.2490  208.4020  152.9530 C   0  0  0  0  0  2  0  0  0  0  0  0
  162.8020  207.8790  151.6410 C   0  0  0  0  0  2  0  0  0  0  0  0
  162.1230  206.5690  151.2550 C   0  0  0  0  0  2  0  0  0  0  0  0
  161.1990  208.2360  147.9170 C   0  0  0  0  0  3  0  0  0  0  0  0
  161.8660  205.9570  147.4520 C   0  0  1  0  0  3  0  0  0  0  0  0
  161.3110  208.0590  149.4130 C   0  0  0  0  0  2  0  0  0  0  0  0
  162.4420  205.8920  148.8720 C   0  0  0  0  0  2  0  0  0  0  0  0
  161.4950  207.3070  147.0700 N   0  0  0  0  0  0  0  0  0  0  0  0
  161.5060  206.6010  149.8530 C   0  0  1  0  0  0  0  0  0  0  0  0
  162.7800  205.3310  146.4010 C   0  0  1  0  0  3  0  0  0  0  0  0
  164.1380  205.1980  146.9010 N   0  0  0  0  0  1  0  0  0  0  0  0
  162.2530  203.9780  145.9570 C   0  0  0  0  0  1  0  0  0  0  0  0
  159.8840  205.7250  149.8650 S   0  0  0  0  0  0  0  0  0  0  0  0
  161.4900  201.6380  151.2000 C   0  0  0  0  0  3  0  0  0  0  0  0
  161.5160  202.7240  152.0740 C   0  0  0  0  0  3  0  0  0  0  0  0
  159.9770  203.1690  148.2330 F   0  0  0  0  0  0  0  0  0  0  0  0
  160.4660  204.1080  150.3810 C   0  0  0  0  0  0  0  0  0  0  0  0
  161.0040  203.9580  151.6630 C   0  0  0  0  0  3  0  0  0  0  0  0
  160.4530  203.0180  149.4970 C   0  0  0  0  0  0  0  0  0  0  0  0
  160.9550  201.7750  149.9080 C   0  0  0  0  0  0  0  0  0  0  0  0
  160.9030  200.6940  149.0120 O   0  0  0  0  0  0  0  0  0  0  0  0
  162.3620  199.4530  147.5690 C   0  0  0  0  0  1  0  0  0  0  0  0
  162.2800  201.8060  147.5270 F   0  0  0  0  0  0  0  0  0  0  0  0
  160.4120  200.6340  146.6460 C   0  0  0  0  0  1  0  0  0  0  0  0
  161.4920  200.6840  147.7090 C   0  0  0  0  0  0  0  0  0  0  0  0
  1  4  2  0  0  0  0
  3  2  1  0  0  0  0
  3  1  1  0  0  0  0
  5  1  1  0  0  0  0
  5  6  1  0  0  0  0
  7  6  1  0  0  0  0
  7  8  1  0  0  0  0
  9  8  1  0  0  0  0
 10  9  1  0  0  0  0
 11 13  1  0  0  0  0
 11 10  1  0  0  0  0
 12 14  2  0  0  0  0
 13 14  1  0  0  0  0
 14 15  1  0  0  0  0
 16 11  1  0  0  0  0
 17 29  1  0  0  0  0
 17 23  1  0  0  0  0
 18 22  1  0  0  0  0
 19 29  1  0  0  0  0
 19 16  1  1  0  0  0
 20 28  1  0  0  0  0
 21 22  1  0  0  0  0
 22 19  1  0  0  0  0
 24 25  1  0  0  0  0
 24 20  1  0  0  0  0
 26 28  1  6  0  0  0
 26 17  1  0  0  0  0
 27 25  1  6  0  0  0
 27 22  1  0  0  0  0
 27 26  1  0  0  0  0
 30  3  1  0  0  0  0
 31 30  1  0  0  0  0
 32 31  1  0  0  0  0
 33 32  1  0  0  0  0
 34 36  1  0  0  0  0
 35 40  1  6  0  0  0
 35 37  1  0  0  0  0
 36 39  1  0  0  0  0
 37 39  1  0  0  0  0
 38 35  1  0  0  0  0
 38 34  2  0  0  0  0
 39 43  1  0  0  0  0
 39 33  1  1  0  0  0
 40 42  1  1  0  0  0
 40 41  1  0  0  0  0
 43 47  1  0  0  0  0
 44 45  1  0  0  0  0
 46 49  1  0  0  0  0
 47 48  1  0  0  0  0
 48 45  2  0  0  0  0
 49 50  1  0  0  0  0
 49 47  2  0  0  0  0
 50 44  2  0  0  0  0
 51 50  1  0  0  0  0
 52 55  1  0  0  0  0
 53 55  1  0  0  0  0
 54 55  1  0  0  0  0
 55 51  1  0  0  0  0
M  END
>  <MODEL>
9

>  <REMARK>
 VINA RESULT:       0.3      2.731      6.169
  Name = 
  20 active torsions:
  status: ('A' for Active; 'I' for Inactive)
    1  A    between atoms: C_2  and  C_28
    2  A    between atoms: C_2  and  N_44
    3  A    between atoms: C_6  and  C_46
    4  A    between atoms: N_8  and  N_22
    5  A    between atoms: C_10  and  C_32
    6  A    between atoms: C_17  and  S_36
    7  A    between atoms: O_19  and  C_40
    8  A    between atoms: O_19  and  C_45
    9  A    between atoms: N_22  and  C_35
   10  A    between atoms: N_22  and  C_46
   11  A    between atoms: C_24  and  C_31
   12  A    between atoms: C_27  and  C_31
   13  A    between atoms: C_27  and  C_54
   14  A    between atoms: C_28  and  C_49
   15  A    between atoms: C_33  and  C_49
   16  A    between atoms: C_33  and  C_52
   17  A    between atoms: C_35  and  C_43
   18  A    between atoms: S_36  and  C_52
   19  A    between atoms: C_43  and  C_51
   20  A    between atoms: C_51  and  C_54
                            x       y       z     vdW  Elec       q    Type
                         _______ _______ _______ _____ _____    ______ ____

>  <TORSDO>
F 20

$$$$
