=
 OpenBabel11062407513D

 34 37  0  0  1  0  0  0  0  0999 V2000
  159.9820  207.9020  155.1910 C   0  0  1  0  0  3  0  0  0  0  0  0
  160.8850  210.9470  151.4950 C   0  0  2  0  0  3  0  0  0  0  0  0
  159.2990  211.3240  155.4990 C   0  0  1  0  0  3  0  0  0  0  0  0
  158.0100  210.3210  152.0660 O   0  0  0  0  0  1  0  0  0  0  0  0
  161.0830  207.2290  157.2580 O   0  0  0  0  0  1  0  0  0  0  0  0
  160.4290  209.8770  153.7450 N   0  0  0  0  0  0  0  0  0  0  0  0
  160.5310  208.4120  153.8460 C   0  0  1  0  0  3  0  0  0  0  0  0
  160.1860  212.3010  151.4250 C   0  0  0  0  0  2  0  0  0  0  0  0
  158.4000  211.2260  153.0540 C   0  0  2  0  0  3  0  0  0  0  0  0
  159.6450  206.4160  155.1190 C   0  0  0  0  0  1  0  0  0  0  0  0
  162.4500  210.9690  153.3340 O   0  0  0  0  0  0  0  0  0  0  0  0
  160.4250  210.7870  156.4050 C   0  0  1  0  0  0  0  0  0  0  0  0
  160.8810  208.2960  156.3780 C   0  0  2  0  0  3  0  0  0  0  0  0
  161.3280  210.6020  152.8940 C   0  0  0  0  0  0  0  0  0  0  0  0
  161.7850  211.3450  156.2410 C   0  0  0  0  0  2  0  0  0  0  0  0
  160.9230  211.7880  157.2600 O   0  0  0  0  0  0  0  0  0  0  0  0
  159.0430  212.4870  152.4360 C   0  0  1  0  0  3  0  0  0  0  0  0
  159.1730  210.5090  154.1860 C   0  0  2  0  0  3  0  0  0  0  0  0
  160.2770  209.4620  157.1480 C   0  0  0  0  0  2  0  0  0  0  0  0
  156.2510  213.0630  156.8900 C   0  0  0  0  0  0  0  0  0  0  0  0
  155.2410  211.9880  156.8790 C   0  0  0  0  0  3  0  0  0  0  0  0
  157.9570  211.3760  156.2720 C   0  0  1  0  0  3  0  0  0  0  0  0
  155.5140  210.8170  156.2960 C   0  0  0  0  0  3  0  0  0  0  0  0
  157.5180  212.7940  156.5600 C   0  0  0  0  0  3  0  0  0  0  0  0
  156.8170  210.6190  155.5710 C   0  0  0  0  0  2  0  0  0  0  0  0
  155.8570  214.4490  157.2480 C   0  0  0  0  0  1  0  0  0  0  0  0
  161.8090  209.5170  149.7630 C   0  0  0  0  0  1  0  0  0  0  0  0
  161.9040  210.8050  150.4400 N   0  0  0  0  0  0  0  0  0  0  0  0
  161.7280  211.8530  149.4460 C   0  0  0  0  0  1  0  0  0  0  0  0
  159.3090  213.5890  153.4130 C   0  0  0  0  0  0  0  0  0  0  0  0
  158.2760  214.4360  153.7900 O   0  0  0  0  0  0  0  0  0  0  0  0
  160.4530  213.7370  153.9190 O   0  0  0  0  0  1  0  0  0  0  0  0
  161.9550  207.9040  153.5870 C   0  0  0  0  0  2  0  0  0  0  0  0
  161.9770  206.9760  152.3900 C   0  0  0  0  0  1  0  0  0  0  0  0
  1 10  1  6  0  0  0
  1 13  1  0  0  0  0
  2 28  1  6  0  0  0
  2 14  1  0  0  0  0
  3 22  1  1  0  0  0
  3 12  1  0  0  0  0
  6  7  1  0  0  0  0
  7 33  1  1  0  0  0
  7  1  1  0  0  0  0
  8  2  1  0  0  0  0
  8 17  1  0  0  0  0
  9  4  1  6  0  0  0
  9 18  1  0  0  0  0
 12 15  1  6  0  0  0
 12 19  1  0  0  0  0
 12 16  1  0  0  0  0
 13 19  1  0  0  0  0
 13  5  1  1  0  0  0
 14 11  2  0  0  0  0
 14  6  1  0  0  0  0
 15 16  1  0  0  0  0
 17  9  1  0  0  0  0
 17 30  1  1  0  0  0
 18  6  1  6  0  0  0
 18  3  1  0  0  0  0
 20 26  1  0  0  0  0
 21 20  1  0  0  0  0
 22 25  1  6  0  0  0
 22 24  1  0  0  0  0
 23 21  2  0  0  0  0
 24 20  2  0  0  0  0
 25 23  1  0  0  0  0
 27 28  1  0  0  0  0
 29 28  1  0  0  0  0
 30 31  2  0  0  0  0
 30 32  1  0  0  0  0
 34 33  1  0  0  0  0
M  END
>  <MODEL>
1

>  <REMARK>
 VINA RESULT:       2.3      0.000      0.000
  Name = 
  4 active torsions:
  status: ('A' for Active; 'I' for Inactive)
    1  A    between atoms: C_2  and  C_15
    2  A    between atoms: C_3  and  N_14
    3  A    between atoms: C_4  and  C_12
    4  A    between atoms: C_13  and  C_29
                            x       y       z     vdW  Elec       q    Type
                         _______ _______ _______ _____ _____    ______ ____

>  <TORSDO>
F 4

$$$$
=
 OpenBabel11062407513D

 34 37  0  0  1  0  0  0  0  0999 V2000
  159.2690  211.6820  151.5000 C   0  0  1  0  0  3  0  0  0  0  0  0
  159.0230  211.6780  156.3670 C   0  0  2  0  0  3  0  0  0  0  0  0
  160.8860  209.1920  153.3610 C   0  0  1  0  0  3  0  0  0  0  0  0
  157.4430  209.5770  154.9270 O   0  0  0  0  0  1  0  0  0  0  0  0
  160.8520  212.4050  149.7950 O   0  0  0  0  0  1  0  0  0  0  0  0
  159.6390  211.3270  153.9360 N   0  0  0  0  0  0  0  0  0  0  0  0
  158.9880  212.1820  152.9290 C   0  0  1  0  0  3  0  0  0  0  0  0
  159.2990  210.3990  157.1510 C   0  0  0  0  0  2  0  0  0  0  0  0
  158.7700  209.1450  154.8820 C   0  0  2  0  0  3  0  0  0  0  0  0
  158.2510  212.2400  150.5120 C   0  0  0  0  0  1  0  0  0  0  0  0
  161.0860  212.4520  155.3800 O   0  0  0  0  0  0  0  0  0  0  0  0
  161.8130  210.1560  152.5930 C   0  0  1  0  0  0  0  0  0  0  0  0
  160.7390  211.8860  151.0870 C   0  0  2  0  0  3  0  0  0  0  0  0
  159.9820  211.8670  155.2200 C   0  0  0  0  0  0  0  0  0  0  0  0
  162.7660  210.9810  153.3680 C   0  0  0  0  0  2  0  0  0  0  0  0
  163.1660  209.7920  152.7310 O   0  0  0  0  0  0  0  0  0  0  0  0
  159.4010  209.1280  156.2920 C   0  0  1  0  0  3  0  0  0  0  0  0
  159.5480  209.8680  153.7580 C   0  0  2  0  0  3  0  0  0  0  0  0
  161.5060  210.5720  151.1570 C   0  0  0  0  0  2  0  0  0  0  0  0
  161.1930  207.0170  150.2920 C   0  0  0  0  0  0  0  0  0  0  0  0
  161.1940  205.6580  150.8660 C   0  0  0  0  0  3  0  0  0  0  0  0
  160.6530  207.8960  152.5450 C   0  0  1  0  0  3  0  0  0  0  0  0
  161.2550  205.4890  152.1900 C   0  0  0  0  0  3  0  0  0  0  0  0
  160.9870  208.0760  151.0810 C   0  0  0  0  0  3  0  0  0  0  0  0
  161.4120  206.6790  153.0970 C   0  0  0  0  0  2  0  0  0  0  0  0
  161.4400  207.2100  148.8400 C   0  0  0  0  0  1  0  0  0  0  0  0
  159.7370  213.9360  156.9060 C   0  0  0  0  0  1  0  0  0  0  0  0
  158.8470  212.8370  157.2610 N   0  0  0  0  0  0  0  0  0  0  0  0
  157.4760  213.3170  157.1730 C   0  0  0  0  0  1  0  0  0  0  0  0
  160.7550  208.4930  156.3570 C   0  0  0  0  0  0  0  0  0  0  0  0
  160.8680  207.1100  156.3050 O   0  0  0  0  0  0  0  0  0  0  0  0
  161.7940  209.2010  156.4270 O   0  0  0  0  0  1  0  0  0  0  0  0
  159.3540  213.6620  153.0910 C   0  0  0  0  0  2  0  0  0  0  0  0
  158.1610  214.4520  153.5920 C   0  0  0  0  0  1  0  0  0  0  0  0
  1 10  1  6  0  0  0
  1  7  1  0  0  0  0
  2  8  1  0  0  0  0
  2 28  1  1  0  0  0
  3 22  1  6  0  0  0
  3 18  1  0  0  0  0
  6 14  1  0  0  0  0
  7 33  1  6  0  0  0
  7  6  1  0  0  0  0
  9  4  1  1  0  0  0
  9 17  1  0  0  0  0
 12 19  1  6  0  0  0
 12 16  1  0  0  0  0
 12  3  1  0  0  0  0
 12 15  1  0  0  0  0
 13  5  1  6  0  0  0
 13 19  1  0  0  0  0
 13  1  1  0  0  0  0
 14 11  2  0  0  0  0
 14  2  1  0  0  0  0
 16 15  1  0  0  0  0
 17 30  1  6  0  0  0
 17  8  1  0  0  0  0
 18  6  1  1  0  0  0
 18  9  1  0  0  0  0
 20 21  1  0  0  0  0
 20 24  2  0  0  0  0
 21 23  2  0  0  0  0
 22 24  1  6  0  0  0
 22 25  1  0  0  0  0
 23 25  1  0  0  0  0
 26 20  1  0  0  0  0
 27 28  1  0  0  0  0
 29 28  1  0  0  0  0
 30 32  1  0  0  0  0
 31 30  2  0  0  0  0
 33 34  1  0  0  0  0
M  END
>  <MODEL>
2

>  <REMARK>
 VINA RESULT:       2.8      1.881      6.662
  Name = 
  4 active torsions:
  status: ('A' for Active; 'I' for Inactive)
    1  A    between atoms: C_2  and  C_15
    2  A    between atoms: C_3  and  N_14
    3  A    between atoms: C_4  and  C_12
    4  A    between atoms: C_13  and  C_29
                            x       y       z     vdW  Elec       q    Type
                         _______ _______ _______ _____ _____    ______ ____

>  <TORSDO>
F 4

$$$$
=
 OpenBabel11062407513D

 34 37  0  0  1  0  0  0  0  0999 V2000
  160.3590  203.3990  150.7900 C   0  0  1  0  0  3  0  0  0  0  0  0
  161.5500  205.4210  146.5180 C   0  0  2  0  0  3  0  0  0  0  0  0
  161.5630  206.6860  150.6520 C   0  0  1  0  0  3  0  0  0  0  0  0
  159.0360  206.3950  147.8260 O   0  0  0  0  0  1  0  0  0  0  0  0
  161.5210  202.3150  152.6370 O   0  0  0  0  0  1  0  0  0  0  0  0
  161.2870  204.8110  148.9630 N   0  0  0  0  0  0  0  0  0  0  0  0
  160.6800  203.5090  149.2880 C   0  0  1  0  0  3  0  0  0  0  0  0
  161.6190  206.9380  146.3770 C   0  0  0  0  0  2  0  0  0  0  0  0
  160.0810  206.9960  148.5300 C   0  0  2  0  0  3  0  0  0  0  0  0
  159.3320  202.3030  151.0520 C   0  0  0  0  0  1  0  0  0  0  0  0
  163.3720  204.6820  147.9220 O   0  0  0  0  0  0  0  0  0  0  0  0
  162.4830  205.6700  151.3570 C   0  0  1  0  0  0  0  0  0  0  0  0
  161.6290  203.3040  151.6550 C   0  0  2  0  0  3  0  0  0  0  0  0
  162.1430  204.9370  147.8180 C   0  0  0  0  0  0  0  0  0  0  0  0
  163.8310  205.4360  150.7950 C   0  0  0  0  0  2  0  0  0  0  0  0
  163.6270  206.2930  151.8910 O   0  0  0  0  0  0  0  0  0  0  0  0
  161.0550  207.7210  147.5740 C   0  0  1  0  0  3  0  0  0  0  0  0
  160.6870  206.0160  149.5620 C   0  0  2  0  0  3  0  0  0  0  0  0
  161.9220  204.6370  152.3310 C   0  0  0  0  0  2  0  0  0  0  0  0
  160.4650  207.5750  154.1520 C   0  0  0  0  0  0  0  0  0  0  0  0
  160.0190  208.9730  153.9990 C   0  0  0  0  0  3  0  0  0  0  0  0
  160.7010  207.4500  151.6890 C   0  0  1  0  0  3  0  0  0  0  0  0
  160.2260  209.6210  152.8480 C   0  0  0  0  0  3  0  0  0  0  0  0
  160.8310  206.8680  153.0780 C   0  0  0  0  0  3  0  0  0  0  0  0
  160.9920  208.9590  151.7350 C   0  0  0  0  0  2  0  0  0  0  0  0
  160.5250  206.9590  155.5020 C   0  0  0  0  0  1  0  0  0  0  0  0
  161.5350  203.3660  145.2230 C   0  0  0  0  0  1  0  0  0  0  0  0
  162.0210  204.7380  145.3000 N   0  0  0  0  0  0  0  0  0  0  0  0
  161.5460  205.4530  144.1250 C   0  0  0  0  0  1  0  0  0  0  0  0
  162.0910  208.5530  148.2610 C   0  0  0  0  0  0  0  0  0  0  0  0
  161.7890  209.8550  148.6350 O   0  0  0  0  0  1  0  0  0  0  0  0
  163.2250  208.0740  148.5300 O   0  0  0  0  0  0  0  0  0  0  0  0
  161.5310  202.3290  148.8040 C   0  0  0  0  0  2  0  0  0  0  0  0
  160.6840  201.3550  148.0100 C   0  0  0  0  0  1  0  0  0  0  0  0
  1 10  1  6  0  0  0
  1 13  1  0  0  0  0
  2 28  1  6  0  0  0
  2 14  1  0  0  0  0
  3 12  1  0  0  0  0
  3 22  1  1  0  0  0
  6  7  1  0  0  0  0
  7 33  1  1  0  0  0
  7  1  1  0  0  0  0
  8  2  1  0  0  0  0
  8 17  1  0  0  0  0
  9  4  1  6  0  0  0
  9 18  1  0  0  0  0
 12 15  1  6  0  0  0
 12 16  1  0  0  0  0
 12 19  1  0  0  0  0
 13 19  1  0  0  0  0
 13  5  1  1  0  0  0
 14 11  2  0  0  0  0
 14  6  1  0  0  0  0
 15 16  1  0  0  0  0
 17 30  1  1  0  0  0
 17  9  1  0  0  0  0
 18  6  1  6  0  0  0
 18  3  1  0  0  0  0
 20 26  1  0  0  0  0
 21 20  1  0  0  0  0
 22 25  1  1  0  0  0
 22 24  1  0  0  0  0
 23 21  2  0  0  0  0
 24 20  2  0  0  0  0
 25 23  1  0  0  0  0
 27 28  1  0  0  0  0
 29 28  1  0  0  0  0
 30 32  2  0  0  0  0
 30 31  1  0  0  0  0
 34 33  1  0  0  0  0
M  END
>  <MODEL>
3

>  <REMARK>
 VINA RESULT:       4.4      4.695      7.269
  Name = 
  4 active torsions:
  status: ('A' for Active; 'I' for Inactive)
    1  A    between atoms: C_2  and  C_15
    2  A    between atoms: C_3  and  N_14
    3  A    between atoms: C_4  and  C_12
    4  A    between atoms: C_13  and  C_29
                            x       y       z     vdW  Elec       q    Type
                         _______ _______ _______ _____ _____    ______ ____

>  <TORSDO>
F 4

$$$$
=
 OpenBabel11062407513D

 34 37  0  0  1  0  0  0  0  0999 V2000
  160.9270  210.3370  152.0400 C   0  0  1  0  0  3  0  0  0  0  0  0
  157.0590  213.1010  153.1130 C   0  0  2  0  0  3  0  0  0  0  0  0
  159.6200  210.3820  155.2900 C   0  0  1  0  0  3  0  0  0  0  0  0
  156.6140  210.1400  152.9740 O   0  0  0  0  0  1  0  0  0  0  0  0
  163.3480  210.4910  152.2680 O   0  0  0  0  0  1  0  0  0  0  0  0
  159.1560  211.6810  153.1590 N   0  0  0  0  0  0  0  0  0  0  0  0
  159.8330  211.4090  151.8800 C   0  0  1  0  0  3  0  0  0  0  0  0
  156.2090  212.7920  154.3410 C   0  0  0  0  0  2  0  0  0  0  0  0
  157.2550  210.3660  154.1930 C   0  0  2  0  0  3  0  0  0  0  0  0
  161.2910  209.7180  150.6950 C   0  0  0  0  0  1  0  0  0  0  0  0
  159.2150  213.9140  153.8370 O   0  0  0  0  0  0  0  0  0  0  0  0
  161.0310  210.9820  155.1330 C   0  0  1  0  0  0  0  0  0  0  0  0
  162.1310  210.8460  152.8550 C   0  0  2  0  0  3  0  0  0  0  0  0
  158.5350  212.9550  153.3840 C   0  0  0  0  0  0  0  0  0  0  0  0
  161.2310  212.4060  155.4800 C   0  0  0  0  0  2  0  0  0  0  0  0
  161.5670  211.3740  156.3740 O   0  0  0  0  0  0  0  0  0  0  0  0
  156.5220  211.4480  155.0180 C   0  0  1  0  0  3  0  0  0  0  0  0
  158.7800  210.5270  153.9940 C   0  0  2  0  0  3  0  0  0  0  0  0
  162.0910  210.2970  154.2750 C   0  0  0  0  0  2  0  0  0  0  0  0
  160.5550  206.7490  154.8830 C   0  0  0  0  0  0  0  0  0  0  0  0
  160.7920  206.3250  156.2760 C   0  0  0  0  0  3  0  0  0  0  0  0
  159.7050  208.9060  155.7540 C   0  0  1  0  0  3  0  0  0  0  0  0
  160.7990  207.2280  157.2610 C   0  0  0  0  0  3  0  0  0  0  0  0
  160.0900  207.9750  154.6270 C   0  0  0  0  0  3  0  0  0  0  0  0
  160.6550  208.6920  156.9440 C   0  0  0  0  0  2  0  0  0  0  0  0
  160.8530  205.8190  153.7640 C   0  0  0  0  0  1  0  0  0  0  0  0
  157.0940  214.4290  151.0790 C   0  0  0  0  0  1  0  0  0  0  0  0
  156.6420  214.3570  152.4640 N   0  0  0  0  0  0  0  0  0  0  0  0
  155.1910  214.4530  152.4720 C   0  0  0  0  0  1  0  0  0  0  0  0
  157.0300  211.6090  156.4160 C   0  0  0  0  0  0  0  0  0  0  0  0
  157.6210  212.8070  156.7980 O   0  0  0  0  0  0  0  0  0  0  0  0
  156.9000  210.6820  157.2590 O   0  0  0  0  0  1  0  0  0  0  0  0
  160.3820  212.6820  151.2240 C   0  0  0  0  0  2  0  0  0  0  0  0
  159.7340  212.9040  149.8720 C   0  0  0  0  0  1  0  0  0  0  0  0
  1 10  1  6  0  0  0
  1 13  1  0  0  0  0
  2 28  1  1  0  0  0
  2 14  1  0  0  0  0
  2  8  1  0  0  0  0
  3 22  1  6  0  0  0
  6 14  1  0  0  0  0
  7 33  1  1  0  0  0
  7  1  1  0  0  0  0
  7  6  1  0  0  0  0
  8 17  1  0  0  0  0
  9  4  1  6  0  0  0
  9 17  1  0  0  0  0
 12 19  1  6  0  0  0
 12  3  1  0  0  0  0
 12 15  1  0  0  0  0
 12 16  1  0  0  0  0
 13  5  1  6  0  0  0
 13 19  1  0  0  0  0
 14 11  2  0  0  0  0
 15 16  1  0  0  0  0
 17 30  1  1  0  0  0
 18  6  1  1  0  0  0
 18  9  1  0  0  0  0
 18  3  1  0  0  0  0
 20 21  1  0  0  0  0
 21 23  2  0  0  0  0
 22 24  1  6  0  0  0
 22 25  1  0  0  0  0
 24 20  2  0  0  0  0
 25 23  1  0  0  0  0
 26 20  1  0  0  0  0
 27 28  1  0  0  0  0
 28 29  1  0  0  0  0
 30 31  2  0  0  0  0
 30 32  1  0  0  0  0
 34 33  1  0  0  0  0
M  END
>  <MODEL>
4

>  <REMARK>
 VINA RESULT:       4.4      2.093      5.094
  Name = 
  4 active torsions:
  status: ('A' for Active; 'I' for Inactive)
    1  A    between atoms: C_2  and  C_15
    2  A    between atoms: C_3  and  N_14
    3  A    between atoms: C_4  and  C_12
    4  A    between atoms: C_13  and  C_29
                            x       y       z     vdW  Elec       q    Type
                         _______ _______ _______ _____ _____    ______ ____

>  <TORSDO>
F 4

$$$$
