=
 OpenBabel11052421593D

 30 35  0  0  1  0  0  0  0  0999 V2000
  157.8620  212.5310  152.0890 C   0  0  1  0  0  3  0  0  0  0  0  0
  157.7640  213.5590  149.7260 C   0  0  0  0  0  0  0  0  0  0  0  0
  161.5750  211.5960  150.1870 C   0  0  0  0  0  3  0  0  0  0  0  0
  158.8000  211.7370  153.0220 C   0  0  1  0  0  3  0  0  0  0  0  0
  157.3090  213.6800  152.8050 N   0  0  0  0  0  2  0  0  0  0  0  0
  156.2050  212.0850  156.3830 S   0  0  0  0  0  0  0  0  0  0  0  0
  159.5630  210.2450  156.1690 C   0  0  0  0  0  2  0  0  0  0  0  0
  156.8140  212.0450  154.6580 C   0  0  1  0  0  3  0  0  0  0  0  0
  156.2180  214.3540  154.8540 C   0  0  0  0  0  3  0  0  0  0  0  0
  161.2320  209.9040  153.4740 O   0  0  0  0  0  0  0  0  0  0  0  0
  161.3650  210.5020  151.1520 C   0  0  0  0  0  0  0  0  0  0  0  0
  156.7660  213.4250  154.0990 C   0  0  0  0  0  0  0  0  0  0  0  0
  158.1940  211.3870  154.3970 C   0  0  2  0  0  3  0  0  0  0  0  0
  158.4710  214.0230  148.5370 C   0  0  0  0  0  3  0  0  0  0  0  0
  161.9780  210.7550  154.2930 C   0  0  0  0  0  2  0  0  0  0  0  0
  161.0140  210.0540  156.5250 C   0  0  0  0  0  3  0  0  0  0  0  0
  154.9530  214.4530  156.9240 C   0  0  0  0  0  2  0  0  0  0  0  0
  156.5050  213.5630  149.7690 O   0  0  0  0  0  0  0  0  0  0  0  0
  160.9490  212.7620  150.3040 C   0  0  0  0  0  0  0  0  0  0  0  0
  159.7850  214.2580  148.5920 C   0  0  0  0  0  3  0  0  0  0  0  0
  155.8040  213.8130  156.1380 C   0  0  0  0  0  0  0  0  0  0  0  0
  158.5890  212.9520  150.8130 C   0  0  1  0  0  3  0  0  0  0  0  0
  159.3200  210.5950  152.3970 O   0  0  0  0  0  0  0  0  0  0  0  0
  161.7460  209.3410  150.8470 O   0  0  0  0  0  0  0  0  0  0  0  0
  160.7100  210.7490  152.4840 C   0  0  1  0  0  3  0  0  0  0  0  0
  162.0600  210.2400  155.7020 C   0  0  0  0  0  3  0  0  0  0  0  0
  159.2460  212.7720  156.3510 C   0  0  0  0  0  1  0  0  0  0  0  0
  160.6080  214.1910  149.8660 C   0  0  1  0  0  3  0  0  0  0  0  0
  159.9370  213.6540  151.0270 C   0  0  2  0  0  3  0  0  0  0  0  0
  159.3010  211.5520  155.4450 C   0  0  1  0  0  3  0  0  0  0  0  0
  1  5  1  1  0  0  0
  1  4  1  0  0  0  0
  2 18  2  0  0  0  0
  2 22  1  0  0  0  0
  3 19  2  0  0  0  0
  3 11  1  0  0  0  0
  4 23  1  6  0  0  0
  4 13  1  0  0  0  0
  5 12  1  0  0  0  0
  7 16  1  0  0  0  0
  8 12  1  1  0  0  0
  8  6  1  0  0  0  0
  9 21  1  0  0  0  0
 10 15  1  0  0  0  0
 11 25  1  0  0  0  0
 12  9  2  0  0  0  0
 13  8  1  0  0  0  0
 13 30  1  0  0  0  0
 14 20  2  0  0  0  0
 14  2  1  0  0  0  0
 15 26  1  0  0  0  0
 19 29  1  0  0  0  0
 20 28  1  0  0  0  0
 21  6  1  0  0  0  0
 21 17  2  0  0  0  0
 22 29  1  0  0  0  0
 22  1  1  0  0  0  0
 23 25  1  0  0  0  0
 24 11  2  0  0  0  0
 25 10  1  0  0  0  0
 26 16  2  0  0  0  0
 28 19  1  0  0  0  0
 28 29  1  0  0  0  0
 30  7  1  0  0  0  0
 30 27  1  0  0  0  0
M  END
>  <MODEL>
1

>  <REMARK>
 VINA RESULT:      -4.6      0.000      0.000
  Name = 
  0 active torsions:
  status: ('A' for Active; 'I' for Inactive)
                            x       y       z     vdW  Elec       q    Type
                         _______ _______ _______ _____ _____    ______ ____

>  <TORSDO>
F 0

$$$$
=
 OpenBabel11052421593D

 30 35  0  0  1  0  0  0  0  0999 V2000
  161.4190  208.8790  152.7550 C   0  0  1  0  0  3  0  0  0  0  0  0
  161.9590  206.3750  152.4560 C   0  0  0  0  0  0  0  0  0  0  0  0
  161.9380  208.2270  148.5620 C   0  0  0  0  0  3  0  0  0  0  0  0
  161.2030  210.1720  151.9430 C   0  0  1  0  0  3  0  0  0  0  0  0
  160.3300  208.7110  153.7170 N   0  0  0  0  0  2  0  0  0  0  0  0
  159.9600  212.4260  155.3390 S   0  0  0  0  0  0  0  0  0  0  0  0
  160.3660  213.6310  151.7210 C   0  0  0  0  0  2  0  0  0  0  0  0
  160.7330  211.1280  154.3050 C   0  0  1  0  0  3  0  0  0  0  0  0
  159.0540  209.8450  155.4290 C   0  0  0  0  0  3  0  0  0  0  0  0
  161.5480  211.8290  149.3710 O   0  0  0  0  0  0  0  0  0  0  0  0
  162.3180  209.6350  148.7700 C   0  0  0  0  0  0  0  0  0  0  0  0
  159.9970  209.8490  154.5100 C   0  0  0  0  0  0  0  0  0  0  0  0
  160.9200  211.4270  152.7950 C   0  0  2  0  0  3  0  0  0  0  0  0
  162.0190  205.2070  151.5820 C   0  0  0  0  0  3  0  0  0  0  0  0
  160.1970  212.0260  149.0740 C   0  0  0  0  0  2  0  0  0  0  0  0
  159.8330  214.1440  150.4090 C   0  0  0  0  0  3  0  0  0  0  0  0
  158.2660  211.3290  157.1810 C   0  0  0  0  0  2  0  0  0  0  0  0
  162.3520  206.3070  153.6500 O   0  0  0  0  0  0  0  0  0  0  0  0
  161.1890  207.5680  149.4390 C   0  0  0  0  0  0  0  0  0  0  0  0
  161.3690  205.2140  150.4150 C   0  0  0  0  0  3  0  0  0  0  0  0
  158.9030  211.1580  156.0340 C   0  0  0  0  0  0  0  0  0  0  0  0
  161.5520  207.6690  151.8310 C   0  0  1  0  0  3  0  0  0  0  0  0
  162.2470  210.4060  151.0380 O   0  0  0  0  0  0  0  0  0  0  0  0
  163.2480  210.1230  148.0750 O   0  0  0  0  0  0  0  0  0  0  0  0
  161.6170  210.4920  149.7890 C   0  0  1  0  0  3  0  0  0  0  0  0
  159.7920  213.4620  149.2520 C   0  0  0  0  0  3  0  0  0  0  0  0
  158.4350  212.2280  152.6270 C   0  0  0  0  0  1  0  0  0  0  0  0
  160.4470  206.3310  149.9610 C   0  0  1  0  0  3  0  0  0  0  0  0
  160.4460  207.5240  150.7770 C   0  0  2  0  0  3  0  0  0  0  0  0
  159.8490  212.2480  152.0670 C   0  0  1  0  0  3  0  0  0  0  0  0
  1  5  1  1  0  0  0
  2 18  2  0  0  0  0
  3 11  1  0  0  0  0
  3 19  2  0  0  0  0
  4 23  1  1  0  0  0
  4  1  1  0  0  0  0
  4 13  1  0  0  0  0
  5 12  1  0  0  0  0
  6 21  1  0  0  0  0
  7 30  1  0  0  0  0
  8 12  1  6  0  0  0
  8  6  1  0  0  0  0
  9 21  1  0  0  0  0
 10 25  1  0  0  0  0
 11 25  1  0  0  0  0
 12  9  2  0  0  0  0
 13  8  1  0  0  0  0
 14  2  1  0  0  0  0
 15 26  1  0  0  0  0
 15 10  1  0  0  0  0
 16  7  1  0  0  0  0
 19 28  1  0  0  0  0
 19 29  1  0  0  0  0
 20 14  2  0  0  0  0
 21 17  2  0  0  0  0
 22  2  1  0  0  0  0
 22  1  1  0  0  0  0
 24 11  2  0  0  0  0
 25 23  1  0  0  0  0
 26 16  2  0  0  0  0
 28 20  1  0  0  0  0
 28 29  1  0  0  0  0
 29 22  1  0  0  0  0
 30 27  1  0  0  0  0
 30 13  1  0  0  0  0
M  END
>  <MODEL>
2

>  <REMARK>
 VINA RESULT:      -3.7      2.909      5.795
  Name = 
  0 active torsions:
  status: ('A' for Active; 'I' for Inactive)
                            x       y       z     vdW  Elec       q    Type
                         _______ _______ _______ _____ _____    ______ ____

>  <TORSDO>
F 0

$$$$
=
 OpenBabel11052421593D

 30 35  0  0  1  0  0  0  0  0999 V2000
  161.9120  210.2840  150.0260 C   0  0  1  0  0  3  0  0  0  0  0  0
  161.4100  212.7710  149.5720 C   0  0  0  0  0  0  0  0  0  0  0  0
  160.4560  211.9300  153.6920 C   0  0  0  0  0  3  0  0  0  0  0  0
  161.8390  209.2210  151.1420 C   0  0  1  0  0  3  0  0  0  0  0  0
  161.3140  209.7560  148.8000 N   0  0  0  0  0  2  0  0  0  0  0  0
  162.8980  206.0150  148.5420 S   0  0  0  0  0  0  0  0  0  0  0  0
  162.2000  205.8720  152.3110 C   0  0  0  0  0  2  0  0  0  0  0  0
  162.7060  207.7010  149.2310 C   0  0  1  0  0  3  0  0  0  0  0  0
  161.2930  207.8550  147.3060 C   0  0  0  0  0  3  0  0  0  0  0  0
  161.6600  208.4440  154.1150 O   0  0  0  0  0  0  0  0  0  0  0  0
  161.3370  210.8240  154.1050 C   0  0  0  0  0  0  0  0  0  0  0  0
  161.7310  208.4540  148.3950 C   0  0  0  0  0  0  0  0  0  0  0  0
  162.3610  207.8260  150.7380 C   0  0  2  0  0  3  0  0  0  0  0  0
  160.7190  213.9960  149.9620 C   0  0  0  0  0  3  0  0  0  0  0  0
  160.4560  207.7370  154.0680 C   0  0  0  0  0  2  0  0  0  0  0  0
  161.3930  205.4530  153.5110 C   0  0  0  0  0  3  0  0  0  0  0  0
  161.8230  205.8560  146.0350 C   0  0  0  0  0  2  0  0  0  0  0  0
  162.2010  212.7630  148.5920 O   0  0  0  0  0  0  0  0  0  0  0  0
  159.9470  212.0000  152.4670 C   0  0  0  0  0  0  0  0  0  0  0  0
  159.7000  213.9400  150.8250 C   0  0  0  0  0  3  0  0  0  0  0  0
  161.8490  206.5180  147.1810 C   0  0  0  0  0  0  0  0  0  0  0  0
  161.2490  211.5870  150.4670 C   0  0  1  0  0  3  0  0  0  0  0  0
  162.4440  209.6600  152.3270 O   0  0  0  0  0  0  0  0  0  0  0  0
  162.0160  210.9470  155.1590 O   0  0  0  0  0  0  0  0  0  0  0  0
  161.4370  209.5600  153.2950 C   0  0  1  0  0  3  0  0  0  0  0  0
  160.6660  206.2670  154.2960 C   0  0  0  0  0  3  0  0  0  0  0  0
  160.4450  206.0660  150.4660 C   0  0  0  0  0  1  0  0  0  0  0  0
  159.1080  212.6490  151.3600 C   0  0  1  0  0  3  0  0  0  0  0  0
  159.8360  211.4400  151.0460 C   0  0  2  0  0  3  0  0  0  0  0  0
  161.4330  206.7840  151.3730 C   0  0  1  0  0  3  0  0  0  0  0  0
  1  5  1  6  0  0  0
  1 22  1  0  0  0  0
  1  4  1  0  0  0  0
  2 14  1  0  0  0  0
  2 22  1  0  0  0  0
  3 11  1  0  0  0  0
  4 23  1  1  0  0  0
  6  8  1  0  0  0  0
  7 16  1  0  0  0  0
  8 12  1  6  0  0  0
  8 13  1  0  0  0  0
  9 12  2  0  0  0  0
 11 24  2  0  0  0  0
 12  5  1  0  0  0  0
 13  4  1  0  0  0  0
 13 30  1  0  0  0  0
 14 20  2  0  0  0  0
 15 10  1  0  0  0  0
 15 26  1  0  0  0  0
 16 26  2  0  0  0  0
 17 21  2  0  0  0  0
 18  2  2  0  0  0  0
 19  3  2  0  0  0  0
 20 28  1  0  0  0  0
 21  9  1  0  0  0  0
 21  6  1  0  0  0  0
 22 29  1  0  0  0  0
 23 25  1  0  0  0  0
 25 11  1  0  0  0  0
 25 10  1  0  0  0  0
 27 30  1  0  0  0  0
 28 19  1  0  0  0  0
 29 28  1  0  0  0  0
 29 19  1  0  0  0  0
 30  7  1  0  0  0  0
M  END
>  <MODEL>
3

>  <REMARK>
 VINA RESULT:      -3.3      4.027      6.716
  Name = 
  0 active torsions:
  status: ('A' for Active; 'I' for Inactive)
                            x       y       z     vdW  Elec       q    Type
                         _______ _______ _______ _____ _____    ______ ____

>  <TORSDO>
F 0

$$$$
=
 OpenBabel11052421593D

 30 35  0  0  1  0  0  0  0  0999 V2000
  161.8730  204.9420  151.6890 C   0  0  1  0  0  3  0  0  0  0  0  0
  161.5000  202.4300  151.2460 C   0  0  0  0  0  0  0  0  0  0  0  0
  161.7450  204.4500  147.4450 C   0  0  0  0  0  3  0  0  0  0  0  0
  162.0350  206.2880  150.9510 C   0  0  1  0  0  3  0  0  0  0  0  0
  160.8880  205.0810  152.7610 N   0  0  0  0  0  2  0  0  0  0  0  0
  161.9560  208.5830  154.5400 S   0  0  0  0  0  0  0  0  0  0  0  0
  162.4070  209.8340  150.9430 C   0  0  0  0  0  2  0  0  0  0  0  0
  162.1410  207.1770  153.3830 C   0  0  1  0  0  3  0  0  0  0  0  0
  160.2390  206.4550  154.6430 C   0  0  0  0  0  3  0  0  0  0  0  0
  162.6800  207.9090  148.4150 O   0  0  0  0  0  0  0  0  0  0  0  0
  162.5990  205.6320  147.6570 C   0  0  0  0  0  0  0  0  0  0  0  0
  161.0370  206.2070  153.6240 C   0  0  0  0  0  0  0  0  0  0  0  0
  162.2770  207.5020  151.8730 C   0  0  2  0  0  3  0  0  0  0  0  0
  161.0770  201.3740  150.3320 C   0  0  0  0  0  3  0  0  0  0  0  0
  161.4550  208.5670  148.2780 C   0  0  0  0  0  2  0  0  0  0  0  0
  161.9590  210.5860  149.7180 C   0  0  0  0  0  3  0  0  0  0  0  0
  160.1700  207.9900  156.5220 C   0  0  0  0  0  2  0  0  0  0  0  0
  161.9560  202.1500  152.3860 O   0  0  0  0  0  0  0  0  0  0  0  0
  160.9020  204.0200  148.3770 C   0  0  0  0  0  0  0  0  0  0  0  0
  160.3620  201.6790  149.2450 C   0  0  0  0  0  3  0  0  0  0  0  0
  160.6010  207.6960  155.3050 C   0  0  0  0  0  0  0  0  0  0  0  0
  161.5010  203.8260  150.7150 C   0  0  1  0  0  3  0  0  0  0  0  0
  163.0070  206.2210  149.9440 O   0  0  0  0  0  0  0  0  0  0  0  0
  163.5700  205.8290  146.8790 O   0  0  0  0  0  0  0  0  0  0  0  0
  162.3300  206.6000  148.7770 C   0  0  1  0  0  3  0  0  0  0  0  0
  161.5810  210.0390  148.5490 C   0  0  0  0  0  3  0  0  0  0  0  0
  160.2070  209.0970  152.0110 C   0  0  0  0  0  1  0  0  0  0  0  0
  159.8360  203.0690  148.9360 C   0  0  1  0  0  3  0  0  0  0  0  0
  160.3180  204.1330  149.7880 C   0  0  2  0  0  3  0  0  0  0  0  0
  161.4850  208.6820  151.2970 C   0  0  1  0  0  3  0  0  0  0  0  0
  1  5  1  1  0  0  0
  2 18  2  0  0  0  0
  3 11  1  0  0  0  0
  3 19  2  0  0  0  0
  4 23  1  6  0  0  0
  4  1  1  0  0  0  0
  4 13  1  0  0  0  0
  5 12  1  0  0  0  0
  6 21  1  0  0  0  0
  7 30  1  0  0  0  0
  8 12  1  6  0  0  0
  8  6  1  0  0  0  0
  9 21  1  0  0  0  0
 10 25  1  0  0  0  0
 11 25  1  0  0  0  0
 12  9  2  0  0  0  0
 13  8  1  0  0  0  0
 14  2  1  0  0  0  0
 15 10  1  0  0  0  0
 15 26  1  0  0  0  0
 16  7  1  0  0  0  0
 19 28  1  0  0  0  0
 19 29  1  0  0  0  0
 20 14  2  0  0  0  0
 21 17  2  0  0  0  0
 22  2  1  0  0  0  0
 22  1  1  0  0  0  0
 24 11  2  0  0  0  0
 25 23  1  0  0  0  0
 26 16  2  0  0  0  0
 28 20  1  0  0  0  0
 28 29  1  0  0  0  0
 29 22  1  0  0  0  0
 30 13  1  0  0  0  0
 30 27  1  0  0  0  0
M  END
>  <MODEL>
4

>  <REMARK>
 VINA RESULT:      -3.3      5.584      8.408
  Name = 
  0 active torsions:
  status: ('A' for Active; 'I' for Inactive)
                            x       y       z     vdW  Elec       q    Type
                         _______ _______ _______ _____ _____    ______ ____

>  <TORSDO>
F 0

$$$$
=
 OpenBabel11052421593D

 30 35  0  0  1  0  0  0  0  0999 V2000
  160.3840  207.3420  153.5070 C   0  0  1  0  0  3  0  0  0  0  0  0
  160.0940  207.6240  156.0530 C   0  0  0  0  0  0  0  0  0  0  0  0
  161.1580  211.4540  154.3830 C   0  0  0  0  0  3  0  0  0  0  0  0
  160.7570  208.1370  152.2390 C   0  0  1  0  0  3  0  0  0  0  0  0
  161.1480  206.0960  153.5530 N   0  0  0  0  0  2  0  0  0  0  0  0
  160.8210  204.6790  149.7510 S   0  0  0  0  0  0  0  0  0  0  0  0
  161.4320  208.3280  148.7430 C   0  0  0  0  0  2  0  0  0  0  0  0
  160.4580  205.8070  151.1470 C   0  0  1  0  0  3  0  0  0  0  0  0
  161.8000  204.1640  152.2540 C   0  0  0  0  0  3  0  0  0  0  0  0
  161.0940  210.7990  150.7290 O   0  0  0  0  0  0  0  0  0  0  0  0
  160.6570  211.4560  152.9980 C   0  0  0  0  0  0  0  0  0  0  0  0
  161.1700  205.3160  152.3590 C   0  0  0  0  0  0  0  0  0  0  0  0
  160.7080  207.3220  150.9300 C   0  0  2  0  0  3  0  0  0  0  0  0
  160.3570  208.4000  157.2610 C   0  0  0  0  0  3  0  0  0  0  0  0
  162.4600  210.7030  150.4500 C   0  0  0  0  0  2  0  0  0  0  0  0
  162.2980  209.4580  148.2530 C   0  0  0  0  0  3  0  0  0  0  0  0
  161.9550  202.3570  150.6400 C   0  0  0  0  0  2  0  0  0  0  0  0
  159.3710  206.5940  156.0960 O   0  0  0  0  0  0  0  0  0  0  0  0
  161.6500  210.3560  154.9470 C   0  0  0  0  0  0  0  0  0  0  0  0
  161.3200  209.3260  157.2610 C   0  0  0  0  0  3  0  0  0  0  0  0
  161.6940  203.6270  150.9080 C   0  0  0  0  0  0  0  0  0  0  0  0
  160.5940  208.1850  154.7630 C   0  0  1  0  0  3  0  0  0  0  0  0
  160.0150  209.3200  152.1220 O   0  0  0  0  0  0  0  0  0  0  0  0
  159.9470  212.4220  152.6090 O   0  0  0  0  0  0  0  0  0  0  0  0
  160.9780  210.3340  152.0470 C   0  0  1  0  0  3  0  0  0  0  0  0
  162.7150  210.5070  148.9830 C   0  0  0  0  0  3  0  0  0  0  0  0
  163.0850  206.8110  149.9630 C   0  0  0  0  0  1  0  0  0  0  0  0
  162.2730  209.5630  156.1020 C   0  0  1  0  0  3  0  0  0  0  0  0
  161.9670  208.8600  154.8770 C   0  0  2  0  0  3  0  0  0  0  0  0
  161.8990  207.7590  150.0690 C   0  0  1  0  0  3  0  0  0  0  0  0
  1  5  1  1  0  0  0
  1 22  1  0  0  0  0
  2 18  2  0  0  0  0
  2 14  1  0  0  0  0
  3 19  2  0  0  0  0
  4 23  1  6  0  0  0
  4  1  1  0  0  0  0
  6 21  1  0  0  0  0
  7 30  1  0  0  0  0
  8  6  1  6  0  0  0
  8 12  1  0  0  0  0
  9 12  2  0  0  0  0
 10 25  1  0  0  0  0
 11  3  1  0  0  0  0
 12  5  1  0  0  0  0
 13  8  1  0  0  0  0
 13  4  1  0  0  0  0
 15 10  1  0  0  0  0
 16  7  1  0  0  0  0
 16 26  2  0  0  0  0
 17 21  2  0  0  0  0
 19 28  1  0  0  0  0
 20 14  2  0  0  0  0
 21  9  1  0  0  0  0
 22 29  1  0  0  0  0
 22  2  1  0  0  0  0
 24 11  2  0  0  0  0
 25 23  1  0  0  0  0
 25 11  1  0  0  0  0
 26 15  1  0  0  0  0
 27 30  1  0  0  0  0
 28 20  1  0  0  0  0
 29 19  1  0  0  0  0
 29 28  1  0  0  0  0
 30 13  1  0  0  0  0
M  END
>  <MODEL>
5

>  <REMARK>
 VINA RESULT:      -3.3      4.279      8.011
  Name = 
  0 active torsions:
  status: ('A' for Active; 'I' for Inactive)
                            x       y       z     vdW  Elec       q    Type
                         _______ _______ _______ _____ _____    ______ ____

>  <TORSDO>
F 0

$$$$
=
 OpenBabel11052421593D

 30 35  0  0  1  0  0  0  0  0999 V2000
  161.1100  210.5420  151.9930 C   0  0  1  0  0  3  0  0  0  0  0  0
  160.3710  212.7030  150.7980 C   0  0  0  0  0  0  0  0  0  0  0  0
  159.3040  213.0310  154.9620 C   0  0  0  0  0  3  0  0  0  0  0  0
  161.0930  209.8620  153.3780 C   0  0  1  0  0  3  0  0  0  0  0  0
  160.6330  209.6050  150.9760 N   0  0  0  0  0  2  0  0  0  0  0  0
  162.6150  206.1700  151.8920 S   0  0  0  0  0  0  0  0  0  0  0  0
  161.7470  207.0830  155.5140 C   0  0  0  0  0  2  0  0  0  0  0  0
  162.2110  207.9500  152.0330 C   0  0  1  0  0  3  0  0  0  0  0  0
  160.8890  207.3550  150.1290 C   0  0  0  0  0  3  0  0  0  0  0  0
  160.8480  209.9970  156.4440 O   0  0  0  0  0  0  0  0  0  0  0  0
  160.2750  212.2100  155.7060 C   0  0  0  0  0  0  0  0  0  0  0  0
  161.2050  208.2990  150.9920 C   0  0  0  0  0  0  0  0  0  0  0  0
  161.7800  208.4800  153.4250 C   0  0  2  0  0  3  0  0  0  0  0  0
  159.5340  213.8990  150.7860 C   0  0  0  0  0  3  0  0  0  0  0  0
  159.7290  209.1730  156.5940 C   0  0  0  0  0  2  0  0  0  0  0  0
  160.9300  206.9530  156.7720 C   0  0  0  0  0  3  0  0  0  0  0  0
  161.6910  205.1420  149.5340 C   0  0  0  0  0  2  0  0  0  0  0  0
  161.2060  212.4930  149.8790 O   0  0  0  0  0  0  0  0  0  0  0  0
  158.8530  212.6700  153.7660 C   0  0  0  0  0  0  0  0  0  0  0  0
  158.4850  213.9870  151.6090 C   0  0  0  0  0  3  0  0  0  0  0  0
  161.5890  206.1160  150.4250 C   0  0  0  0  0  0  0  0  0  0  0  0
  160.2910  211.8310  152.0070 C   0  0  1  0  0  3  0  0  0  0  0  0
  161.5880  210.7030  154.3830 O   0  0  0  0  0  0  0  0  0  0  0  0
  160.8830  212.7210  156.6830 O   0  0  0  0  0  0  0  0  0  0  0  0
  160.5490  210.7810  155.3200 C   0  0  1  0  0  3  0  0  0  0  0  0
  160.0810  207.8740  157.2610 C   0  0  0  0  0  3  0  0  0  0  0  0
  160.0770  206.5090  153.6700 C   0  0  0  0  0  1  0  0  0  0  0  0
  158.0070  212.8550  152.5010 C   0  0  1  0  0  3  0  0  0  0  0  0
  158.8730  211.7020  152.5800 C   0  0  2  0  0  3  0  0  0  0  0  0
  160.9360  207.5760  154.3310 C   0  0  1  0  0  3  0  0  0  0  0  0
  1  5  1  6  0  0  0
  1 22  1  0  0  0  0
  1  4  1  0  0  0  0
  2 22  1  0  0  0  0
  3 11  1  0  0  0  0
  4 13  1  0  0  0  0
  4 23  1  1  0  0  0
  5 12  1  0  0  0  0
  6  8  1  0  0  0  0
  7 16  1  0  0  0  0
  8 12  1  6  0  0  0
  8 13  1  0  0  0  0
  9 21  1  0  0  0  0
  9 12  2  0  0  0  0
 10 15  1  0  0  0  0
 11 24  2  0  0  0  0
 13 30  1  0  0  0  0
 14  2  1  0  0  0  0
 14 20  2  0  0  0  0
 15 26  1  0  0  0  0
 16 26  2  0  0  0  0
 17 21  2  0  0  0  0
 18  2  2  0  0  0  0
 19  3  2  0  0  0  0
 20 28  1  0  0  0  0
 21  6  1  0  0  0  0
 22 29  1  0  0  0  0
 23 25  1  0  0  0  0
 25 11  1  0  0  0  0
 25 10  1  0  0  0  0
 27 30  1  0  0  0  0
 28 29  1  0  0  0  0
 28 19  1  0  0  0  0
 29 19  1  0  0  0  0
 30  7  1  0  0  0  0
M  END
>  <MODEL>
6

>  <REMARK>
 VINA RESULT:      -3.2      3.264      5.843
  Name = 
  0 active torsions:
  status: ('A' for Active; 'I' for Inactive)
                            x       y       z     vdW  Elec       q    Type
                         _______ _______ _______ _____ _____    ______ ____

>  <TORSDO>
F 0

$$$$
=
 OpenBabel11052421593D

 30 35  0  0  1  0  0  0  0  0999 V2000
  160.7340  206.0950  147.8230 C   0  0  1  0  0  3  0  0  0  0  0  0
  160.8330  206.2540  145.2520 C   0  0  0  0  0  0  0  0  0  0  0  0
  161.2060  202.1050  146.3630 C   0  0  0  0  0  3  0  0  0  0  0  0
  160.8120  205.0690  148.9730 C   0  0  1  0  0  3  0  0  0  0  0  0
  161.6210  207.2220  148.1040 N   0  0  0  0  0  2  0  0  0  0  0  0
  160.8310  208.0590  152.0090 S   0  0  0  0  0  0  0  0  0  0  0  0
  160.8870  204.2490  152.4420 C   0  0  0  0  0  2  0  0  0  0  0  0
  160.5840  207.2200  150.4010 C   0  0  1  0  0  3  0  0  0  0  0  0
  162.2520  208.8270  149.8000 C   0  0  0  0  0  3  0  0  0  0  0  0
  160.6190  202.1830  150.0280 O   0  0  0  0  0  0  0  0  0  0  0  0
  160.4900  201.9510  147.6410 C   0  0  0  0  0  0  0  0  0  0  0  0
  161.5310  207.7970  149.4060 C   0  0  0  0  0  0  0  0  0  0  0  0
  160.6360  205.6700  150.3840 C   0  0  2  0  0  3  0  0  0  0  0  0
  161.2060  205.6480  143.9770 C   0  0  0  0  0  3  0  0  0  0  0  0
  161.9240  202.0570  150.5110 C   0  0  0  0  0  2  0  0  0  0  0  0
  161.5400  202.9540  152.8460 C   0  0  0  0  0  3  0  0  0  0  0  0
  162.3310  210.3240  151.7090 C   0  0  0  0  0  2  0  0  0  0  0  0
  160.2380  207.3630  145.2870 O   0  0  0  0  0  0  0  0  0  0  0  0
  161.8960  203.2030  146.0750 C   0  0  0  0  0  0  0  0  0  0  0  0
  162.0540  204.6160  143.9530 C   0  0  0  0  0  3  0  0  0  0  0  0
  161.9860  209.1560  151.1900 C   0  0  0  0  0  0  0  0  0  0  0  0
  161.0560  205.4380  146.4820 C   0  0  1  0  0  3  0  0  0  0  0  0
  159.9410  203.9890  148.7750 O   0  0  0  0  0  0  0  0  0  0  0  0
  159.6290  201.0370  147.7500 O   0  0  0  0  0  0  0  0  0  0  0  0
  160.7680  202.8590  148.8080 C   0  0  1  0  0  3  0  0  0  0  0  0
  161.9570  201.9860  152.0110 C   0  0  0  0  0  3  0  0  0  0  0  0
  162.8650  205.7100  151.7530 C   0  0  0  0  0  1  0  0  0  0  0  0
  162.7760  204.0800  145.1760 C   0  0  1  0  0  3  0  0  0  0  0  0
  162.3520  204.6160  146.4490 C   0  0  2  0  0  3  0  0  0  0  0  0
  161.6200  204.9530  151.3160 C   0  0  1  0  0  3  0  0  0  0  0  0
  1  5  1  1  0  0  0
  1  4  1  0  0  0  0
  2 18  2  0  0  0  0
  2 22  1  0  0  0  0
  3 11  1  0  0  0  0
  4 23  1  6  0  0  0
  4 13  1  0  0  0  0
  5 12  1  0  0  0  0
  7 16  1  0  0  0  0
  8 12  1  6  0  0  0
  8  6  1  0  0  0  0
  9 21  1  0  0  0  0
 10 15  1  0  0  0  0
 11 24  2  0  0  0  0
 11 25  1  0  0  0  0
 12  9  2  0  0  0  0
 13  8  1  0  0  0  0
 13 30  1  0  0  0  0
 14  2  1  0  0  0  0
 15 26  1  0  0  0  0
 19  3  2  0  0  0  0
 19 29  1  0  0  0  0
 20 14  2  0  0  0  0
 20 28  1  0  0  0  0
 21 17  2  0  0  0  0
 21  6  1  0  0  0  0
 22  1  1  0  0  0  0
 23 25  1  0  0  0  0
 25 10  1  0  0  0  0
 26 16  2  0  0  0  0
 28 19  1  0  0  0  0
 28 29  1  0  0  0  0
 29 22  1  0  0  0  0
 30 27  1  0  0  0  0
 30  7  1  0  0  0  0
M  END
>  <MODEL>
7

>  <REMARK>
 VINA RESULT:      -2.6      7.058      9.042
  Name = 
  0 active torsions:
  status: ('A' for Active; 'I' for Inactive)
                            x       y       z     vdW  Elec       q    Type
                         _______ _______ _______ _____ _____    ______ ____

>  <TORSDO>
F 0

$$$$
=
 OpenBabel11052421593D

 30 35  0  0  1  0  0  0  0  0999 V2000
  160.3800  211.9040  152.8770 C   0  0  1  0  0  3  0  0  0  0  0  0
  158.8750  213.4330  154.3080 C   0  0  0  0  0  0  0  0  0  0  0  0
  159.0860  209.5740  156.2190 C   0  0  0  0  0  3  0  0  0  0  0  0
  160.9300  210.4640  152.8190 C   0  0  1  0  0  3  0  0  0  0  0  0
  159.8240  212.2750  151.5770 N   0  0  0  0  0  2  0  0  0  0  0  0
  162.6660  210.9880  148.9630 S   0  0  0  0  0  0  0  0  0  0  0  0
  162.7740  207.8750  151.2020 C   0  0  0  0  0  2  0  0  0  0  0  0
  161.9600  211.3510  150.6130 C   0  0  1  0  0  3  0  0  0  0  0  0
  160.2760  212.2990  149.2020 C   0  0  0  0  0  3  0  0  0  0  0  0
  161.6090  207.7820  154.1690 O   0  0  0  0  0  0  0  0  0  0  0  0
  160.3880  208.9950  155.8430 C   0  0  0  0  0  0  0  0  0  0  0  0
  160.6350  212.0060  150.4350 C   0  0  0  0  0  0  0  0  0  0  0  0
  161.8720  210.1830  151.6290 C   0  0  2  0  0  3  0  0  0  0  0  0
  157.8430  213.5630  155.3320 C   0  0  0  0  0  3  0  0  0  0  0  0
  160.7890  206.9540  153.3980 C   0  0  0  0  0  2  0  0  0  0  0  0
  162.4250  206.4490  151.5340 C   0  0  0  0  0  3  0  0  0  0  0  0
  161.3040  212.3180  147.0020 C   0  0  0  0  0  2  0  0  0  0  0  0
  159.4150  214.4530  153.8040 O   0  0  0  0  0  0  0  0  0  0  0  0
  158.3780  210.3130  155.3720 C   0  0  0  0  0  0  0  0  0  0  0  0
  157.1010  212.5050  155.6690 C   0  0  0  0  0  3  0  0  0  0  0  0
  161.2770  211.8590  148.2440 C   0  0  0  0  0  0  0  0  0  0  0  0
  159.3530  212.0520  153.9990 C   0  0  1  0  0  3  0  0  0  0  0  0
  161.5200  210.0760  154.0290 O   0  0  0  0  0  0  0  0  0  0  0  0
  161.1430  208.5550  156.7500 O   0  0  0  0  0  0  0  0  0  0  0  0
  160.8240  208.9200  154.4050 C   0  0  1  0  0  3  0  0  0  0  0  0
  161.5930  206.0470  152.5100 C   0  0  0  0  0  3  0  0  0  0  0  0
  160.7800  208.6540  149.8090 C   0  0  0  0  0  1  0  0  0  0  0  0
  157.1670  211.1610  154.9660 C   0  0  1  0  0  3  0  0  0  0  0  0
  158.2390  210.9980  154.0100 C   0  0  2  0  0  3  0  0  0  0  0  0
  161.5560  208.7750  151.1120 C   0  0  1  0  0  3  0  0  0  0  0  0
  1  5  1  6  0  0  0
  1 22  1  0  0  0  0
  2 14  1  0  0  0  0
  4  1  1  0  0  0  0
  4 23  1  1  0  0  0
  7 16  1  0  0  0  0
  8  6  1  6  0  0  0
  8 13  1  0  0  0  0
  9 12  2  0  0  0  0
 10 25  1  0  0  0  0
 11  3  1  0  0  0  0
 11 24  2  0  0  0  0
 12  8  1  0  0  0  0
 12  5  1  0  0  0  0
 13  4  1  0  0  0  0
 14 20  2  0  0  0  0
 15 10  1  0  0  0  0
 16 26  2  0  0  0  0
 17 21  2  0  0  0  0
 18  2  2  0  0  0  0
 19  3  2  0  0  0  0
 21  6  1  0  0  0  0
 21  9  1  0  0  0  0
 22 29  1  0  0  0  0
 22  2  1  0  0  0  0
 23 25  1  0  0  0  0
 25 11  1  0  0  0  0
 26 15  1  0  0  0  0
 27 30  1  0  0  0  0
 28 19  1  0  0  0  0
 28 20  1  0  0  0  0
 29 28  1  0  0  0  0
 29 19  1  0  0  0  0
 30  7  1  0  0  0  0
 30 13  1  0  0  0  0
M  END
>  <MODEL>
8

>  <REMARK>
 VINA RESULT:      -1.9      2.907      6.129
  Name = 
  0 active torsions:
  status: ('A' for Active; 'I' for Inactive)
                            x       y       z     vdW  Elec       q    Type
                         _______ _______ _______ _____ _____    ______ ____

>  <TORSDO>
F 0

$$$$
