=
 OpenBabel11052422143D

 25 28  0  0  1  0  0  0  0  0999 V2000
  161.3070  205.2490  149.1380 C   0  0  0  0  0  0  0  0  0  0  0  0
  161.0040  206.2220  150.2490 C   0  0  1  0  0  3  0  0  0  0  0  0
  162.3020  207.0620  147.6570 C   0  0  0  0  0  2  0  0  0  0  0  0
  161.0050  203.8780  149.1400 C   0  0  0  0  0  0  0  0  0  0  0  0
  161.5530  206.4280  153.9780 N   0  0  0  0  0  2  0  0  0  0  0  0
  160.5540  201.1460  148.7980 C   0  0  0  0  0  3  0  0  0  0  0  0
  161.4550  208.0240  148.4890 C   0  0  0  0  0  2  0  0  0  0  0  0
  161.3730  203.2380  147.9620 C   0  0  0  0  0  0  0  0  0  0  0  0
  161.1610  201.8760  147.7640 C   0  0  0  0  0  3  0  0  0  0  0  0
  161.5460  208.5500  150.9450 C   0  0  0  0  0  0  0  0  0  0  0  0
  161.6610  209.7790  150.6890 O   0  0  0  0  0  0  0  0  0  0  0  0
  161.6980  205.7900  151.5420 C   0  0  0  0  0  2  0  0  0  0  0  0
  160.1730  201.7830  149.9940 C   0  0  0  0  0  3  0  0  0  0  0  0
  161.8760  205.6590  147.9340 C   0  0  0  0  0  0  0  0  0  0  0  0
  162.0580  204.3420  146.8940 S   0  0  0  0  0  0  0  0  0  0  0  0
  161.5360  208.1050  152.3040 N   0  0  0  0  0  0  0  0  0  0  0  0
  160.3970  203.1580  150.1710 C   0  0  0  0  0  3  0  0  0  0  0  0
  161.5580  206.8400  152.6100 C   0  0  0  0  0  0  0  0  0  0  0  0
  161.4190  207.5900  149.8890 N   0  0  0  0  0  0  0  0  0  0  0  0
  161.4550  207.3770  155.0770 C   0  0  0  0  0  2  0  0  0  0  0  0
  160.0090  207.5000  155.5310 C   0  0  0  0  0  2  0  0  0  0  0  0
  159.7300  208.8780  156.1200 C   0  0  0  0  0  2  0  0  0  0  0  0
  160.2360  209.9670  155.2280 C   0  0  0  0  0  0  0  0  0  0  0  0
  159.7790  210.0520  153.9530 F   0  0  0  0  0  0  0  0  0  0  0  0
  161.0100  210.9330  155.7150 C   0  0  0  0  0  2  0  0  0  0  0  0
  1  4  1  0  0  0  0
  1  2  1  0  0  0  0
  2 12  1  1  0  0  0
  3 14  1  0  0  0  0
  3  7  1  0  0  0  0
  4 17  1  0  0  0  0
  5 20  1  0  0  0  0
  6 13  1  0  0  0  0
  7 19  1  0  0  0  0
  8  4  2  0  0  0  0
  9  8  1  0  0  0  0
  9  6  2  0  0  0  0
 10 16  1  0  0  0  0
 11 10  2  0  0  0  0
 12 18  1  0  0  0  0
 13 17  2  0  0  0  0
 14  1  2  0  0  0  0
 15 14  1  0  0  0  0
 15  8  1  0  0  0  0
 16 18  2  0  0  0  0
 18  5  1  0  0  0  0
 19  2  1  0  0  0  0
 19 10  1  0  0  0  0
 20 21  1  0  0  0  0
 21 22  1  0  0  0  0
 23 25  2  0  0  0  0
 23 22  1  0  0  0  0
 24 23  1  0  0  0  0
M  END
>  <MODEL>
1

>  <REMARK>
 VINA RESULT:      -8.9      0.000      0.000
  Name = 
  4 active torsions:
  status: ('A' for Active; 'I' for Inactive)
    1  A    between atoms: C_2  and  C_25
    2  A    between atoms: N_6  and  C_15
    3  A    between atoms: C_15  and  C_21
    4  A    between atoms: C_21  and  C_25
                            x       y       z     vdW  Elec       q    Type
                         _______ _______ _______ _____ _____    ______ ____

>  <TORSDO>
F 4

$$$$
=
 OpenBabel11052422143D

 25 28  0  0  1  0  0  0  0  0999 V2000
  161.4190  204.3690  149.1240 C   0  0  0  0  0  0  0  0  0  0  0  0
  161.7930  205.3640  150.1930 C   0  0  1  0  0  3  0  0  0  0  0  0
  160.5310  202.6970  150.8240 C   0  0  0  0  0  2  0  0  0  0  0  0
  161.6330  204.5210  147.7460 C   0  0  0  0  0  0  0  0  0  0  0  0
  161.2880  209.0490  150.8440 N   0  0  0  0  0  2  0  0  0  0  0  0
  161.9060  204.4830  144.9690 C   0  0  0  0  0  3  0  0  0  0  0  0
  161.4440  203.4170  151.8140 C   0  0  0  0  0  2  0  0  0  0  0  0
  161.2160  203.4220  147.0040 C   0  0  0  0  0  0  0  0  0  0  0  0
  161.3390  203.3750  145.6180 C   0  0  0  0  0  3  0  0  0  0  0  0
  161.4070  205.8000  152.6130 C   0  0  0  0  0  0  0  0  0  0  0  0
  161.3680  205.4100  153.8110 O   0  0  0  0  0  0  0  0  0  0  0  0
  161.0830  206.6990  149.9510 C   0  0  0  0  0  2  0  0  0  0  0  0
  162.3360  205.6010  145.7080 C   0  0  0  0  0  3  0  0  0  0  0  0
  160.8680  203.1270  149.4350 C   0  0  0  0  0  0  0  0  0  0  0  0
  160.5950  202.2390  148.0260 S   0  0  0  0  0  0  0  0  0  0  0  0
  161.3980  207.1990  152.3210 N   0  0  0  0  0  0  0  0  0  0  0  0
  162.2030  205.6260  147.1050 C   0  0  0  0  0  3  0  0  0  0  0  0
  161.2990  207.6440  151.1010 C   0  0  0  0  0  0  0  0  0  0  0  0
  161.4630  204.8560  151.5360 N   0  0  0  0  0  0  0  0  0  0  0  0
  161.4550  210.0360  151.8990 C   0  0  0  0  0  2  0  0  0  0  0  0
  160.1110  210.3560  152.5320 C   0  0  0  0  0  2  0  0  0  0  0  0
  160.2840  211.0080  153.8990 C   0  0  0  0  0  2  0  0  0  0  0  0
  161.2800  210.2690  154.7350 C   0  0  0  0  0  0  0  0  0  0  0  0
  162.5050  210.8130  154.9530 F   0  0  0  0  0  0  0  0  0  0  0  0
  160.9280  209.1620  155.3840 C   0  0  0  0  0  2  0  0  0  0  0  0
  1 14  2  0  0  0  0
  1  2  1  0  0  0  0
  2 12  1  6  0  0  0
  2 19  1  0  0  0  0
  3  7  1  0  0  0  0
  4  1  1  0  0  0  0
  5 18  1  0  0  0  0
  5 20  1  0  0  0  0
  6  9  2  0  0  0  0
  6 13  1  0  0  0  0
  8  4  2  0  0  0  0
  8 15  1  0  0  0  0
  9  8  1  0  0  0  0
 10 11  2  0  0  0  0
 12 18  1  0  0  0  0
 13 17  2  0  0  0  0
 14  3  1  0  0  0  0
 15 14  1  0  0  0  0
 16 10  1  0  0  0  0
 17  4  1  0  0  0  0
 18 16  2  0  0  0  0
 19  7  1  0  0  0  0
 19 10  1  0  0  0  0
 20 21  1  0  0  0  0
 21 22  1  0  0  0  0
 22 23  1  0  0  0  0
 23 24  1  0  0  0  0
 23 25  2  0  0  0  0
M  END
>  <MODEL>
2

>  <REMARK>
 VINA RESULT:      -8.4      2.073      3.523
  Name = 
  4 active torsions:
  status: ('A' for Active; 'I' for Inactive)
    1  A    between atoms: C_2  and  C_25
    2  A    between atoms: N_6  and  C_15
    3  A    between atoms: C_15  and  C_21
    4  A    between atoms: C_21  and  C_25
                            x       y       z     vdW  Elec       q    Type
                         _______ _______ _______ _____ _____    ______ ____

>  <TORSDO>
F 4

$$$$
=
 OpenBabel11052422143D

 25 28  0  0  1  0  0  0  0  0999 V2000
  161.2730  204.2910  149.4810 C   0  0  0  0  0  0  0  0  0  0  0  0
  161.8310  205.6020  149.9730 C   0  0  1  0  0  3  0  0  0  0  0  0
  160.5080  203.6050  151.8080 C   0  0  0  0  0  2  0  0  0  0  0  0
  161.3250  203.8180  148.1610 C   0  0  0  0  0  0  0  0  0  0  0  0
  161.6170  209.2430  148.9960 N   0  0  0  0  0  2  0  0  0  0  0  0
  161.2520  202.5720  145.6650 C   0  0  0  0  0  3  0  0  0  0  0  0
  161.5750  204.5800  152.3040 C   0  0  0  0  0  2  0  0  0  0  0  0
  160.7580  202.5570  148.0110 C   0  0  0  0  0  0  0  0  0  0  0  0
  160.7070  201.9110  146.7780 C   0  0  0  0  0  3  0  0  0  0  0  0
  161.7700  207.0660  151.9860 C   0  0  0  0  0  0  0  0  0  0  0  0
  161.8570  207.2300  153.2320 O   0  0  0  0  0  0  0  0  0  0  0  0
  161.1730  206.7720  149.2370 C   0  0  0  0  0  2  0  0  0  0  0  0
  161.8320  203.8460  145.8040 C   0  0  0  0  0  3  0  0  0  0  0  0
  160.6960  203.3650  150.3480 C   0  0  0  0  0  0  0  0  0  0  0  0
  160.2020  201.9950  149.4940 S   0  0  0  0  0  0  0  0  0  0  0  0
  161.8050  208.2000  151.1160 N   0  0  0  0  0  0  0  0  0  0  0  0
  161.8720  204.4780  147.0570 C   0  0  0  0  0  3  0  0  0  0  0  0
  161.5810  208.0890  149.8370 C   0  0  0  0  0  0  0  0  0  0  0  0
  161.6410  205.7520  151.4270 N   0  0  0  0  0  0  0  0  0  0  0  0
  161.9690  210.5630  149.4980 C   0  0  0  0  0  2  0  0  0  0  0  0
  162.3950  211.4610  148.3480 C   0  0  0  0  0  2  0  0  0  0  0  0
  161.3840  212.5780  148.1140 C   0  0  0  0  0  2  0  0  0  0  0  0
  161.0480  212.7160  146.6630 C   0  0  0  0  0  0  0  0  0  0  0  0
  162.0340  212.9850  145.7710 F   0  0  0  0  0  0  0  0  0  0  0  0
  159.8240  212.4320  146.2250 C   0  0  0  0  0  2  0  0  0  0  0  0
  1  2  1  0  0  0  0
  1 14  2  0  0  0  0
  2 12  1  6  0  0  0
  2 19  1  0  0  0  0
  3  7  1  0  0  0  0
  4  1  1  0  0  0  0
  5 20  1  0  0  0  0
  5 18  1  0  0  0  0
  6 13  2  0  0  0  0
  6  9  1  0  0  0  0
  8  4  1  0  0  0  0
  8 15  1  0  0  0  0
  9  8  2  0  0  0  0
 10 11  2  0  0  0  0
 12 18  1  0  0  0  0
 13 17  1  0  0  0  0
 14  3  1  0  0  0  0
 15 14  1  0  0  0  0
 16 10  1  0  0  0  0
 17  4  2  0  0  0  0
 18 16  2  0  0  0  0
 19 10  1  0  0  0  0
 19  7  1  0  0  0  0
 21 20  1  0  0  0  0
 22 21  1  0  0  0  0
 23 22  1  0  0  0  0
 24 23  1  0  0  0  0
 25 23  2  0  0  0  0
M  END
>  <MODEL>
3

>  <REMARK>
 VINA RESULT:      -8.2      3.109      5.161
  Name = 
  4 active torsions:
  status: ('A' for Active; 'I' for Inactive)
    1  A    between atoms: C_2  and  C_25
    2  A    between atoms: N_6  and  C_15
    3  A    between atoms: C_15  and  C_21
    4  A    between atoms: C_21  and  C_25
                            x       y       z     vdW  Elec       q    Type
                         _______ _______ _______ _____ _____    ______ ____

>  <TORSDO>
F 4

$$$$
=
 OpenBabel11052422143D

 25 28  0  0  1  0  0  0  0  0999 V2000
  161.3870  204.2780  149.1470 C   0  0  0  0  0  0  0  0  0  0  0  0
  161.7580  205.2670  150.2230 C   0  0  1  0  0  3  0  0  0  0  0  0
  160.4740  202.6050  150.8330 C   0  0  0  0  0  2  0  0  0  0  0  0
  161.6130  204.4350  147.7710 C   0  0  0  0  0  0  0  0  0  0  0  0
  161.2710  208.9520  150.8850 N   0  0  0  0  0  2  0  0  0  0  0  0
  161.9070  204.4060  144.9960 C   0  0  0  0  0  3  0  0  0  0  0  0
  161.3840  203.3150  151.8340 C   0  0  0  0  0  2  0  0  0  0  0  0
  161.1940  203.3410  147.0220 C   0  0  0  0  0  0  0  0  0  0  0  0
  161.3280  203.2990  145.6360 C   0  0  0  0  0  3  0  0  0  0  0  0
  161.3550  205.6950  152.6420 C   0  0  0  0  0  0  0  0  0  0  0  0
  161.3040  205.3010  153.8380 O   0  0  0  0  0  0  0  0  0  0  0  0
  161.0590  206.6070  149.9810 C   0  0  0  0  0  2  0  0  0  0  0  0
  162.3390  205.5180  145.7440 C   0  0  0  0  0  3  0  0  0  0  0  0
  160.8250  203.0390  149.4490 C   0  0  0  0  0  0  0  0  0  0  0  0
  160.5580  202.1580  148.0340 S   0  0  0  0  0  0  0  0  0  0  0  0
  161.3580  207.0960  152.3550 N   0  0  0  0  0  0  0  0  0  0  0  0
  162.1940  205.5380  147.1400 C   0  0  0  0  0  3  0  0  0  0  0  0
  161.2710  207.5460  151.1360 C   0  0  0  0  0  0  0  0  0  0  0  0
  161.4140  204.7550  151.5610 N   0  0  0  0  0  0  0  0  0  0  0  0
  161.4360  209.9340  151.9460 C   0  0  0  0  0  2  0  0  0  0  0  0
  160.0770  210.3910  152.4500 C   0  0  0  0  0  2  0  0  0  0  0  0
  160.0820  211.8780  152.7850 C   0  0  0  0  0  2  0  0  0  0  0  0
  159.5650  212.6970  151.6460 C   0  0  0  0  0  0  0  0  0  0  0  0
  160.3720  212.9550  150.5860 F   0  0  0  0  0  0  0  0  0  0  0  0
  158.2810  213.0460  151.5950 C   0  0  0  0  0  2  0  0  0  0  0  0
  1 14  2  0  0  0  0
  1  2  1  0  0  0  0
  2 12  1  6  0  0  0
  2 19  1  0  0  0  0
  3  7  1  0  0  0  0
  4  1  1  0  0  0  0
  5 18  1  0  0  0  0
  5 20  1  0  0  0  0
  6  9  2  0  0  0  0
  6 13  1  0  0  0  0
  8  4  2  0  0  0  0
  8 15  1  0  0  0  0
  9  8  1  0  0  0  0
 10 11  2  0  0  0  0
 12 18  1  0  0  0  0
 13 17  2  0  0  0  0
 14  3  1  0  0  0  0
 15 14  1  0  0  0  0
 16 10  1  0  0  0  0
 17  4  1  0  0  0  0
 18 16  2  0  0  0  0
 19  7  1  0  0  0  0
 19 10  1  0  0  0  0
 20 21  1  0  0  0  0
 21 22  1  0  0  0  0
 23 22  1  0  0  0  0
 24 23  1  0  0  0  0
 25 23  2  0  0  0  0
M  END
>  <MODEL>
4

>  <REMARK>
 VINA RESULT:      -8.1      2.624      3.893
  Name = 
  4 active torsions:
  status: ('A' for Active; 'I' for Inactive)
    1  A    between atoms: C_2  and  C_25
    2  A    between atoms: N_6  and  C_15
    3  A    between atoms: C_15  and  C_21
    4  A    between atoms: C_21  and  C_25
                            x       y       z     vdW  Elec       q    Type
                         _______ _______ _______ _____ _____    ______ ____

>  <TORSDO>
F 4

$$$$
=
 OpenBabel11052422143D

 25 28  0  0  1  0  0  0  0  0999 V2000
  161.5770  207.4230  151.0600 C   0  0  0  0  0  0  0  0  0  0  0  0
  161.7590  206.1580  150.2600 C   0  0  1  0  0  3  0  0  0  0  0  0
  161.9500  208.9060  149.0260 C   0  0  0  0  0  2  0  0  0  0  0  0
  161.3410  207.4970  152.4410 C   0  0  0  0  0  0  0  0  0  0  0  0
  159.9350  202.8840  149.8030 N   0  0  0  0  0  2  0  0  0  0  0  0
  160.8740  208.0170  155.1430 C   0  0  0  0  0  3  0  0  0  0  0  0
  162.6970  207.7030  148.4500 C   0  0  0  0  0  2  0  0  0  0  0  0
  161.2500  208.8030  152.9100 C   0  0  0  0  0  0  0  0  0  0  0  0
  161.0170  209.0920  154.2520 C   0  0  0  0  0  3  0  0  0  0  0  0
  161.8660  205.3980  147.8920 C   0  0  0  0  0  0  0  0  0  0  0  0
  162.3080  205.5110  146.7170 O   0  0  0  0  0  0  0  0  0  0  0  0
  160.5170  205.2710  150.3740 C   0  0  0  0  0  2  0  0  0  0  0  0
  160.9690  206.6900  154.6820 C   0  0  0  0  0  3  0  0  0  0  0  0
  161.7020  208.6840  150.4810 C   0  0  0  0  0  0  0  0  0  0  0  0
  161.4730  209.8870  151.6440 S   0  0  0  0  0  0  0  0  0  0  0  0
  161.1940  204.1990  148.2860 N   0  0  0  0  0  0  0  0  0  0  0  0
  161.2040  206.4220  153.3240 C   0  0  0  0  0  3  0  0  0  0  0  0
  160.6030  204.0940  149.4420 C   0  0  0  0  0  0  0  0  0  0  0  0
  162.0340  206.4570  148.8430 N   0  0  0  0  0  0  0  0  0  0  0  0
  159.9380  201.7070  148.9480 C   0  0  0  0  0  2  0  0  0  0  0  0
  161.3270  201.4840  148.3720 C   0  0  0  0  0  2  0  0  0  0  0  0
  161.2620  200.7450  147.0400 C   0  0  0  0  0  2  0  0  0  0  0  0
  160.8290  201.6520  145.9320 C   0  0  0  0  0  0  0  0  0  0  0  0
  161.5780  202.7420  145.6290 F   0  0  0  0  0  0  0  0  0  0  0  0
  159.8040  201.3200  145.1510 C   0  0  0  0  0  2  0  0  0  0  0  0
  1  4  1  0  0  0  0
  2 12  1  6  0  0  0
  2  1  1  0  0  0  0
  3 14  1  0  0  0  0
  4  8  2  0  0  0  0
  4 17  1  0  0  0  0
  7 19  1  0  0  0  0
  7  3  1  0  0  0  0
  8  9  1  0  0  0  0
  9  6  2  0  0  0  0
 10 16  1  0  0  0  0
 10 19  1  0  0  0  0
 11 10  2  0  0  0  0
 13  6  1  0  0  0  0
 14  1  2  0  0  0  0
 14 15  1  0  0  0  0
 15  8  1  0  0  0  0
 16 18  2  0  0  0  0
 17 13  2  0  0  0  0
 18  5  1  0  0  0  0
 18 12  1  0  0  0  0
 19  2  1  0  0  0  0
 20  5  1  0  0  0  0
 21 20  1  0  0  0  0
 22 21  1  0  0  0  0
 23 22  1  0  0  0  0
 24 23  1  0  0  0  0
 25 23  2  0  0  0  0
M  END
>  <MODEL>
5

>  <REMARK>
 VINA RESULT:      -8.1      3.384      7.366
  Name = 
  4 active torsions:
  status: ('A' for Active; 'I' for Inactive)
    1  A    between atoms: C_2  and  C_25
    2  A    between atoms: N_6  and  C_15
    3  A    between atoms: C_15  and  C_21
    4  A    between atoms: C_21  and  C_25
                            x       y       z     vdW  Elec       q    Type
                         _______ _______ _______ _____ _____    ______ ____

>  <TORSDO>
F 4

$$$$
=
 OpenBabel11052422143D

 25 28  0  0  1  0  0  0  0  0999 V2000
  161.1220  208.7930  152.8430 C   0  0  0  0  0  0  0  0  0  0  0  0
  161.6820  207.8880  151.7750 C   0  0  1  0  0  3  0  0  0  0  0  0
  161.1600  210.8230  151.3100 C   0  0  0  0  0  2  0  0  0  0  0  0
  160.8150  208.4200  154.1600 C   0  0  0  0  0  0  0  0  0  0  0  0
  160.8560  204.5150  150.2930 N   0  0  0  0  0  2  0  0  0  0  0  0
  160.1050  208.0380  156.8320 C   0  0  0  0  0  3  0  0  0  0  0  0
  162.2340  210.0580  150.5390 C   0  0  0  0  0  2  0  0  0  0  0  0
  160.3460  209.4780  154.9310 C   0  0  0  0  0  0  0  0  0  0  0  0
  159.9830  209.3170  156.2660 C   0  0  0  0  0  3  0  0  0  0  0  0
  162.0990  207.8640  149.3210 C   0  0  0  0  0  0  0  0  0  0  0  0
  162.5430  208.4040  148.2730 O   0  0  0  0  0  0  0  0  0  0  0  0
  160.7290  206.7180  151.5150 C   0  0  0  0  0  2  0  0  0  0  0  0
  160.5830  206.9600  156.0640 C   0  0  0  0  0  3  0  0  0  0  0  0
  160.9190  210.1540  152.6220 C   0  0  0  0  0  0  0  0  0  0  0  0
  160.3160  210.8890  154.0170 S   0  0  0  0  0  0  0  0  0  0  0  0
  161.7670  206.4730  149.3170 N   0  0  0  0  0  0  0  0  0  0  0  0
  160.9420  207.1460  154.7200 C   0  0  0  0  0  3  0  0  0  0  0  0
  161.1790  205.9060  150.3310 C   0  0  0  0  0  0  0  0  0  0  0  0
  161.9260  208.6250  150.5230 N   0  0  0  0  0  0  0  0  0  0  0  0
  161.2220  203.6600  149.1730 C   0  0  0  0  0  2  0  0  0  0  0  0
  160.3760  202.3970  149.1840 C   0  0  0  0  0  2  0  0  0  0  0  0
  161.2310  201.1570  148.9530 C   0  0  0  0  0  2  0  0  0  0  0  0
  161.2230  200.7470  147.5140 C   0  0  0  0  0  0  0  0  0  0  0  0
  161.5990  199.4880  147.1750 F   0  0  0  0  0  0  0  0  0  0  0  0
  160.7110  201.5530  146.5870 C   0  0  0  0  0  2  0  0  0  0  0  0
  1  4  1  0  0  0  0
  2 12  1  6  0  0  0
  2  1  1  0  0  0  0
  3 14  1  0  0  0  0
  4 17  2  0  0  0  0
  4  8  1  0  0  0  0
  5 18  1  0  0  0  0
  7  3  1  0  0  0  0
  8  9  2  0  0  0  0
  9  6  1  0  0  0  0
 10 19  1  0  0  0  0
 11 10  2  0  0  0  0
 13  6  2  0  0  0  0
 14  1  2  0  0  0  0
 14 15  1  0  0  0  0
 15  8  1  0  0  0  0
 16 10  1  0  0  0  0
 16 18  2  0  0  0  0
 17 13  1  0  0  0  0
 18 12  1  0  0  0  0
 19  7  1  0  0  0  0
 19  2  1  0  0  0  0
 20 21  1  0  0  0  0
 20  5  1  0  0  0  0
 22 21  1  0  0  0  0
 23 22  1  0  0  0  0
 24 23  1  0  0  0  0
 25 23  2  0  0  0  0
M  END
>  <MODEL>
6

>  <REMARK>
 VINA RESULT:      -7.9      3.560      7.597
  Name = 
  4 active torsions:
  status: ('A' for Active; 'I' for Inactive)
    1  A    between atoms: C_2  and  C_25
    2  A    between atoms: N_6  and  C_15
    3  A    between atoms: C_15  and  C_21
    4  A    between atoms: C_21  and  C_25
                            x       y       z     vdW  Elec       q    Type
                         _______ _______ _______ _____ _____    ______ ____

>  <TORSDO>
F 4

$$$$
=
 OpenBabel11052422143D

 25 28  0  0  1  0  0  0  0  0999 V2000
  161.2170  204.8220  148.5500 C   0  0  0  0  0  0  0  0  0  0  0  0
  161.0170  206.1620  149.2130 C   0  0  1  0  0  3  0  0  0  0  0  0
  162.0200  205.8810  146.3800 C   0  0  0  0  0  2  0  0  0  0  0  0
  160.9390  203.5720  149.1220 C   0  0  0  0  0  0  0  0  0  0  0  0
  161.9550  207.8020  152.4810 N   0  0  0  0  0  2  0  0  0  0  0  0
  160.5000  200.9380  149.9320 C   0  0  0  0  0  3  0  0  0  0  0  0
  161.2500  207.1140  146.8500 C   0  0  0  0  0  2  0  0  0  0  0  0
  161.1910  202.5100  148.2600 C   0  0  0  0  0  0  0  0  0  0  0  0
  160.9810  201.1860  148.6370 C   0  0  0  0  0  3  0  0  0  0  0  0
  161.5920  208.5610  148.8770 C   0  0  0  0  0  0  0  0  0  0  0  0
  161.6590  209.5860  148.1480 O   0  0  0  0  0  0  0  0  0  0  0  0
  161.8520  206.2540  150.4930 C   0  0  0  0  0  2  0  0  0  0  0  0
  160.2370  202.0040  150.8130 C   0  0  0  0  0  3  0  0  0  0  0  0
  161.6490  204.7120  147.2300 C   0  0  0  0  0  0  0  0  0  0  0  0
  161.7400  203.0870  146.7790 S   0  0  0  0  0  0  0  0  0  0  0  0
  161.7340  208.6860  150.2940 N   0  0  0  0  0  0  0  0  0  0  0  0
  160.4560  203.3310  150.4110 C   0  0  0  0  0  3  0  0  0  0  0  0
  161.8080  207.6430  151.0700 C   0  0  0  0  0  0  0  0  0  0  0  0
  161.3700  207.2660  148.3030 N   0  0  0  0  0  0  0  0  0  0  0  0
  161.9580  209.1090  153.1220 C   0  0  0  0  0  2  0  0  0  0  0  0
  161.0550  209.0920  154.3450 C   0  0  0  0  0  2  0  0  0  0  0  0
  160.6240  207.6720  154.6940 C   0  0  0  0  0  2  0  0  0  0  0  0
  160.0460  207.6000  156.0720 C   0  0  0  0  0  0  0  0  0  0  0  0
  159.2220  206.5720  156.3980 F   0  0  0  0  0  0  0  0  0  0  0  0
  160.4480  208.4460  157.0170 C   0  0  0  0  0  2  0  0  0  0  0  0
  1  4  1  0  0  0  0
  1  2  1  0  0  0  0
  2 12  1  1  0  0  0
  3  7  1  0  0  0  0
  3 14  1  0  0  0  0
  4 17  1  0  0  0  0
  5 20  1  0  0  0  0
  6 13  1  0  0  0  0
  7 19  1  0  0  0  0
  8  9  1  0  0  0  0
  8  4  2  0  0  0  0
  9  6  2  0  0  0  0
 10 16  1  0  0  0  0
 11 10  2  0  0  0  0
 12 18  1  0  0  0  0
 14  1  2  0  0  0  0
 15 14  1  0  0  0  0
 15  8  1  0  0  0  0
 16 18  2  0  0  0  0
 17 13  2  0  0  0  0
 18  5  1  0  0  0  0
 19 10  1  0  0  0  0
 19  2  1  0  0  0  0
 20 21  1  0  0  0  0
 21 22  1  0  0  0  0
 22 23  1  0  0  0  0
 23 24  1  0  0  0  0
 23 25  2  0  0  0  0
M  END
>  <MODEL>
7

>  <REMARK>
 VINA RESULT:      -7.7      1.491      1.913
  Name = 
  4 active torsions:
  status: ('A' for Active; 'I' for Inactive)
    1  A    between atoms: C_2  and  C_25
    2  A    between atoms: N_6  and  C_15
    3  A    between atoms: C_15  and  C_21
    4  A    between atoms: C_21  and  C_25
                            x       y       z     vdW  Elec       q    Type
                         _______ _______ _______ _____ _____    ______ ____

>  <TORSDO>
F 4

$$$$
=
 OpenBabel11052422143D

 25 28  0  0  1  0  0  0  0  0999 V2000
  160.3970  209.6610  153.7860 C   0  0  0  0  0  0  0  0  0  0  0  0
  160.5730  208.6320  152.6970 C   0  0  1  0  0  3  0  0  0  0  0  0
  161.2540  208.0780  155.5850 C   0  0  0  0  0  2  0  0  0  0  0  0
  159.8770  210.9530  153.6210 C   0  0  0  0  0  0  0  0  0  0  0  0
  162.1280  208.4770  149.2600 N   0  0  0  0  0  2  0  0  0  0  0  0
  158.8900  213.5630  153.6640 C   0  0  0  0  0  3  0  0  0  0  0  0
  160.8380  206.9680  154.6210 C   0  0  0  0  0  2  0  0  0  0  0  0
  159.8000  211.6660  154.8120 C   0  0  0  0  0  0  0  0  0  0  0  0
  159.3130  212.9700  154.8630 C   0  0  0  0  0  3  0  0  0  0  0  0
  161.6720  206.4320  152.3110 C   0  0  0  0  0  0  0  0  0  0  0  0
  161.9230  205.2490  152.6640 O   0  0  0  0  0  0  0  0  0  0  0  0
  161.5040  209.1660  151.6050 C   0  0  0  0  0  2  0  0  0  0  0  0
  158.9580  212.8500  152.4520 C   0  0  0  0  0  3  0  0  0  0  0  0
  160.6850  209.3770  155.1190 C   0  0  0  0  0  0  0  0  0  0  0  0
  160.3530  210.7200  156.0870 S   0  0  0  0  0  0  0  0  0  0  0  0
  161.9510  206.8490  150.9720 N   0  0  0  0  0  0  0  0  0  0  0  0
  159.4520  211.5370  152.4240 C   0  0  0  0  0  3  0  0  0  0  0  0
  161.8360  208.0930  150.6040 C   0  0  0  0  0  0  0  0  0  0  0  0
  161.1050  207.3680  153.2370 N   0  0  0  0  0  0  0  0  0  0  0  0
  162.4910  207.5110  148.2340 C   0  0  0  0  0  2  0  0  0  0  0  0
  161.2650  206.7220  147.8040 C   0  0  0  0  0  2  0  0  0  0  0  0
  161.6400  205.3090  147.3710 C   0  0  0  0  0  2  0  0  0  0  0  0
  161.1650  204.2910  148.3590 C   0  0  0  0  0  0  0  0  0  0  0  0
  160.4870  204.6950  149.4630 F   0  0  0  0  0  0  0  0  0  0  0  0
  161.2710  202.9910  148.0910 C   0  0  0  0  0  2  0  0  0  0  0  0
  1 14  2  0  0  0  0
  2 12  1  6  0  0  0
  2 19  1  0  0  0  0
  2  1  1  0  0  0  0
  4  1  1  0  0  0  0
  4  8  1  0  0  0  0
  5 18  1  0  0  0  0
  6  9  1  0  0  0  0
  7  3  1  0  0  0  0
  8  9  2  0  0  0  0
  8 15  1  0  0  0  0
 10 11  2  0  0  0  0
 10 19  1  0  0  0  0
 13  6  2  0  0  0  0
 14  3  1  0  0  0  0
 14 15  1  0  0  0  0
 16 10  1  0  0  0  0
 17 13  1  0  0  0  0
 17  4  2  0  0  0  0
 18 16  2  0  0  0  0
 18 12  1  0  0  0  0
 19  7  1  0  0  0  0
 20  5  1  0  0  0  0
 21 20  1  0  0  0  0
 22 21  1  0  0  0  0
 22 23  1  0  0  0  0
 23 24  1  0  0  0  0
 25 23  2  0  0  0  0
M  END
>  <MODEL>
8

>  <REMARK>
 VINA RESULT:      -7.5      3.339      8.128
  Name = 
  4 active torsions:
  status: ('A' for Active; 'I' for Inactive)
    1  A    between atoms: C_2  and  C_25
    2  A    between atoms: N_6  and  C_15
    3  A    between atoms: C_15  and  C_21
    4  A    between atoms: C_21  and  C_25
                            x       y       z     vdW  Elec       q    Type
                         _______ _______ _______ _____ _____    ______ ____

>  <TORSDO>
F 4

$$$$
=
 OpenBabel11052422143D

 25 28  0  0  1  0  0  0  0  0999 V2000
  161.0290  206.7170  152.0400 C   0  0  0  0  0  0  0  0  0  0  0  0
  160.8440  206.1200  150.6670 C   0  0  1  0  0  3  0  0  0  0  0  0
  161.2100  204.4300  153.1420 C   0  0  0  0  0  2  0  0  0  0  0  0
  161.0180  208.0850  152.3500 C   0  0  0  0  0  0  0  0  0  0  0  0
  162.3140  206.5890  147.2220 N   0  0  0  0  0  2  0  0  0  0  0  0
  161.0480  210.7000  153.3250 C   0  0  0  0  0  3  0  0  0  0  0  0
  160.4410  203.9270  151.9210 C   0  0  0  0  0  2  0  0  0  0  0  0
  161.1790  208.3370  153.7080 C   0  0  0  0  0  0  0  0  0  0  0  0
  161.1980  209.6310  154.2220 C   0  0  0  0  0  3  0  0  0  0  0  0
  161.0750  203.9390  149.4890 C   0  0  0  0  0  0  0  0  0  0  0  0
  160.8700  202.6980  149.4180 O   0  0  0  0  0  0  0  0  0  0  0  0
  161.9290  206.6260  149.7150 C   0  0  0  0  0  2  0  0  0  0  0  0
  160.8800  210.4570  151.9480 C   0  0  0  0  0  3  0  0  0  0  0  0
  161.1620  205.9210  153.1760 C   0  0  0  0  0  0  0  0  0  0  0  0
  161.3200  206.8890  154.5510 S   0  0  0  0  0  0  0  0  0  0  0  0
  161.5170  204.6540  148.3330 N   0  0  0  0  0  0  0  0  0  0  0  0
  160.8630  209.1450  151.4520 C   0  0  0  0  0  3  0  0  0  0  0  0
  161.8720  205.9050  148.3950 C   0  0  0  0  0  0  0  0  0  0  0  0
  160.8670  204.6470  150.7180 N   0  0  0  0  0  0  0  0  0  0  0  0
  162.3250  205.9600  145.9100 C   0  0  0  0  0  2  0  0  0  0  0  0
  160.9040  205.8320  145.3820 C   0  0  0  0  0  2  0  0  0  0  0  0
  160.8300  204.8340  144.2320 C   0  0  0  0  0  2  0  0  0  0  0  0
  160.1800  203.5560  144.6580 C   0  0  0  0  0  0  0  0  0  0  0  0
  158.9780  203.2090  144.1330 F   0  0  0  0  0  0  0  0  0  0  0  0
  160.8350  202.6910  145.4300 C   0  0  0  0  0  2  0  0  0  0  0  0
  1  4  1  0  0  0  0
  1 14  2  0  0  0  0
  2 12  1  6  0  0  0
  2 19  1  0  0  0  0
  2  1  1  0  0  0  0
  3 14  1  0  0  0  0
  4  8  1  0  0  0  0
  5 18  1  0  0  0  0
  6  9  1  0  0  0  0
  7  3  1  0  0  0  0
  8  9  2  0  0  0  0
  8 15  1  0  0  0  0
 10 19  1  0  0  0  0
 11 10  2  0  0  0  0
 13  6  2  0  0  0  0
 14 15  1  0  0  0  0
 16 18  2  0  0  0  0
 16 10  1  0  0  0  0
 17 13  1  0  0  0  0
 17  4  2  0  0  0  0
 18 12  1  0  0  0  0
 19  7  1  0  0  0  0
 20  5  1  0  0  0  0
 21 20  1  0  0  0  0
 22 23  1  0  0  0  0
 22 21  1  0  0  0  0
 23 25  2  0  0  0  0
 24 23  1  0  0  0  0
M  END
>  <MODEL>
9

>  <REMARK>
 VINA RESULT:      -7.4      3.834      7.989
  Name = 
  4 active torsions:
  status: ('A' for Active; 'I' for Inactive)
    1  A    between atoms: C_2  and  C_25
    2  A    between atoms: N_6  and  C_15
    3  A    between atoms: C_15  and  C_21
    4  A    between atoms: C_21  and  C_25
                            x       y       z     vdW  Elec       q    Type
                         _______ _______ _______ _____ _____    ______ ____

>  <TORSDO>
F 4

$$$$
