=
 OpenBabel11062407533D

 34 41  0  0  1  0  0  0  0  0999 V2000
  160.9630  205.0600  152.6740 C   0  0  0  0  0  0  0  0  0  0  0  0
  161.2500  207.4110  152.0770 C   0  0  0  0  0  0  0  0  0  0  0  0
  161.2860  205.6630  150.3500 C   0  0  0  0  0  0  0  0  0  0  0  0
  161.5650  206.2900  148.0630 C   0  0  0  0  0  0  0  0  0  0  0  0
  160.9350  206.7900  154.3540 C   0  0  0  0  0  3  0  0  0  0  0  0
  161.1320  207.7350  153.3930 N   0  0  0  0  0  0  0  0  0  0  0  0
  161.5580  207.9880  149.6500 C   0  0  0  0  0  0  0  0  0  0  0  0
  161.1700  206.0470  151.6930 C   0  0  0  0  0  0  0  0  0  0  0  0
  161.7710  207.6800  147.1340 S   0  0  0  0  0  0  0  0  0  0  0  0
  160.8460  205.4370  154.0120 C   0  0  0  0  0  3  0  0  0  0  0  0
  161.2060  204.3060  149.9530 C   0  0  0  0  0  0  0  0  0  0  0  0
  160.8710  203.7150  152.3000 C   0  0  0  0  0  3  0  0  0  0  0  0
  161.4660  208.5200  151.0570 C   0  0  0  0  0  3  0  0  0  0  0  0
  161.4930  205.0020  147.6490 N   0  0  0  0  0  0  0  0  0  0  0  0
  161.3240  203.9840  148.5570 C   0  0  0  0  0  0  0  0  0  0  0  0
  161.7320  208.7220  148.4790 C   0  0  0  0  0  0  0  0  0  0  0  0
  161.4700  206.6290  149.3860 C   0  0  1  0  0  3  0  0  0  0  0  0
  160.9890  203.3430  150.9530 C   0  0  0  0  0  3  0  0  0  0  0  0
  160.7790  200.9910  146.2610 C   0  0  0  0  0  0  0  0  0  0  0  0
  161.1150  199.9380  147.1140 C   0  0  0  0  0  3  0  0  0  0  0  0
  161.2660  202.5940  148.0300 C   0  0  0  0  0  0  0  0  0  0  0  0
  161.5190  200.2030  148.4240 C   0  0  0  0  0  3  0  0  0  0  0  0
  160.8500  202.3090  146.7190 C   0  0  0  0  0  3  0  0  0  0  0  0
  161.5900  201.5220  148.8790 C   0  0  0  0  0  3  0  0  0  0  0  0
  160.3830  200.7350  144.9920 F   0  0  0  0  0  0  0  0  0  0  0  0
  161.4620  211.4750  147.8730 C   0  0  1  0  0  3  0  0  0  0  0  0
  162.4020  211.4430  148.8880 C   0  0  2  0  0  3  0  0  0  0  0  0
  162.6980  212.3260  147.6970 C   0  0  2  0  0  3  0  0  0  0  0  0
  161.8550  210.1380  148.4100 N   0  0  0  0  0  0  0  0  0  0  0  0
  162.3760  213.7770  148.0290 C   0  0  1  0  0  3  0  0  0  0  0  0
  163.5680  214.4530  148.3050 O   0  0  0  0  0  1  0  0  0  0  0  0
  160.1540  214.2170  146.9560 C   0  0  0  0  0  1  0  0  0  0  0  0
  161.6510  214.4530  146.8640 C   0  0  0  0  0  3  0  0  0  0  0  0
  162.1380  213.9100  145.5320 C   0  0  0  0  0  1  0  0  0  0  0  0
  1 10  2  0  0  0  0
  2  6  1  0  0  0  0
  3  8  2  0  0  0  0
  6  5  2  0  0  0  0
  7 13  1  0  0  0  0
  8  2  1  0  0  0  0
  8  1  1  0  0  0  0
  9  4  1  0  0  0  0
  9 16  1  0  0  0  0
 10  5  1  0  0  0  0
 11  3  1  0  0  0  0
 11 18  1  0  0  0  0
 12  1  1  0  0  0  0
 13  2  2  0  0  0  0
 14  4  2  0  0  0  0
 14 15  1  0  0  0  0
 15 11  2  0  0  0  0
 16  7  2  0  0  0  0
 17  4  1  6  0  0  0
 17  7  1  0  0  0  0
 17  3  1  0  0  0  0
 18 12  2  0  0  0  0
 19 23  2  0  0  0  0
 19 20  1  0  0  0  0
 20 22  2  0  0  0  0
 21 15  1  0  0  0  0
 21 24  2  0  0  0  0
 22 24  1  0  0  0  0
 23 21  1  0  0  0  0
 25 19  1  0  0  0  0
 26 29  1  6  0  0  0
 26 27  1  0  0  0  0
 27 29  1  6  0  0  0
 28 26  1  0  0  0  0
 28 30  1  1  0  0  0
 28 27  1  0  0  0  0
 29 16  1  0  0  0  0
 30 31  1  6  0  0  0
 33 32  1  0  0  0  0
 33 30  1  0  0  0  0
 34 33  1  0  0  0  0
M  END
>  <MODEL>
1

>  <REMARK>
 VINA RESULT:      -9.9      0.000      0.000
  Name = 
  4 active torsions:
  status: ('A' for Active; 'I' for Inactive)
    1  A    between atoms: C_12  and  C_28
    2  A    between atoms: C_13  and  C_14
    3  A    between atoms: C_14  and  C_22
    4  A    between atoms: N_17  and  C_29
                            x       y       z     vdW  Elec       q    Type
                         _______ _______ _______ _____ _____    ______ ____

>  <TORSDO>
F 4

$$$$
=
 OpenBabel11062407533D

 34 41  0  0  1  0  0  0  0  0999 V2000
  161.2080  208.3750  153.1910 C   0  0  0  0  0  0  0  0  0  0  0  0
  161.2360  206.1720  152.1380 C   0  0  0  0  0  0  0  0  0  0  0  0
  161.4200  208.2140  150.7820 C   0  0  0  0  0  0  0  0  0  0  0  0
  161.6700  208.0220  148.4160 C   0  0  0  0  0  0  0  0  0  0  0  0
  161.0240  206.3600  154.5020 C   0  0  0  0  0  3  0  0  0  0  0  0
  161.1050  205.6080  153.3690 N   0  0  0  0  0  0  0  0  0  0  0  0
  161.4820  206.0550  149.6390 C   0  0  0  0  0  0  0  0  0  0  0  0
  161.2870  207.5850  152.0290 C   0  0  0  0  0  0  0  0  0  0  0  0
  161.7700  206.8280  147.2330 S   0  0  0  0  0  0  0  0  0  0  0  0
  161.0750  207.7560  154.4330 C   0  0  0  0  0  3  0  0  0  0  0  0
  161.4740  209.6230  150.6600 C   0  0  0  0  0  0  0  0  0  0  0  0
  161.2690  209.7690  153.0910 C   0  0  0  0  0  3  0  0  0  0  0  0
  161.3230  205.2690  150.9150 C   0  0  0  0  0  3  0  0  0  0  0  0
  161.7250  209.3680  148.2620 N   0  0  0  0  0  0  0  0  0  0  0  0
  161.6220  210.2000  149.3520 C   0  0  0  0  0  0  0  0  0  0  0  0
  161.6120  205.5510  148.3470 C   0  0  0  0  0  0  0  0  0  0  0  0
  161.5160  207.4420  149.6460 C   0  0  1  0  0  3  0  0  0  0  0  0
  161.4030  210.3860  151.8380 C   0  0  0  0  0  3  0  0  0  0  0  0
  162.6710  213.6260  148.0530 C   0  0  0  0  0  0  0  0  0  0  0  0
  161.7750  214.4530  148.7320 C   0  0  0  0  0  3  0  0  0  0  0  0
  161.6780  211.6660  149.1050 C   0  0  0  0  0  0  0  0  0  0  0  0
  160.8350  213.8980  149.6020 C   0  0  0  0  0  3  0  0  0  0  0  0
  162.6250  212.2420  148.2430 C   0  0  0  0  0  3  0  0  0  0  0  0
  160.7900  212.5130  149.7900 C   0  0  0  0  0  3  0  0  0  0  0  0
  163.5870  214.1640  147.2130 F   0  0  0  0  0  0  0  0  0  0  0  0
  161.7130  203.0540  147.0150 C   0  0  1  0  0  3  0  0  0  0  0  0
  161.6330  202.7190  148.3550 C   0  0  2  0  0  3  0  0  0  0  0  0
  160.7400  201.9630  147.3970 C   0  0  2  0  0  3  0  0  0  0  0  0
  161.6170  204.1710  148.0030 N   0  0  0  0  0  0  0  0  0  0  0  0
  161.3450  200.6010  147.0840 C   0  0  1  0  0  3  0  0  0  0  0  0
  161.3710  199.8370  148.2540 O   0  0  0  0  0  1  0  0  0  0  0  0
  161.3250  198.7280  145.4170 C   0  0  0  0  0  1  0  0  0  0  0  0
  160.5300  199.8790  146.0080 C   0  0  0  0  0  3  0  0  0  0  0  0
  160.1560  200.8290  144.8830 C   0  0  0  0  0  1  0  0  0  0  0  0
  1 10  2  0  0  0  0
  2  6  1  0  0  0  0
  3  8  2  0  0  0  0
  6  5  2  0  0  0  0
  7 17  1  0  0  0  0
  7 13  1  0  0  0  0
  8  2  1  0  0  0  0
  8  1  1  0  0  0  0
  9 16  1  0  0  0  0
  9  4  1  0  0  0  0
 10  5  1  0  0  0  0
 11  3  1  0  0  0  0
 11 18  1  0  0  0  0
 12  1  1  0  0  0  0
 13  2  2  0  0  0  0
 14  4  2  0  0  0  0
 14 15  1  0  0  0  0
 15 11  2  0  0  0  0
 16  7  2  0  0  0  0
 17  4  1  1  0  0  0
 17  3  1  0  0  0  0
 18 12  2  0  0  0  0
 19 23  2  0  0  0  0
 19 20  1  0  0  0  0
 20 22  2  0  0  0  0
 21 15  1  0  0  0  0
 21 24  2  0  0  0  0
 22 24  1  0  0  0  0
 23 21  1  0  0  0  0
 25 19  1  0  0  0  0
 26 28  1  0  0  0  0
 26 29  1  1  0  0  0
 26 27  1  0  0  0  0
 27 29  1  1  0  0  0
 28 30  1  6  0  0  0
 28 27  1  0  0  0  0
 29 16  1  0  0  0  0
 30 31  1  1  0  0  0
 32 33  1  0  0  0  0
 33 30  1  0  0  0  0
 34 33  1  0  0  0  0
M  END
>  <MODEL>
2

>  <REMARK>
 VINA RESULT:      -8.3      3.690      8.804
  Name = 
  4 active torsions:
  status: ('A' for Active; 'I' for Inactive)
    1  A    between atoms: C_12  and  C_28
    2  A    between atoms: C_13  and  C_14
    3  A    between atoms: C_14  and  C_22
    4  A    between atoms: N_17  and  C_29
                            x       y       z     vdW  Elec       q    Type
                         _______ _______ _______ _____ _____    ______ ____

>  <TORSDO>
F 4

$$$$
=
 OpenBabel11062407533D

 34 41  0  0  1  0  0  0  0  0999 V2000
  161.4420  205.7070  149.9940 C   0  0  0  0  0  0  0  0  0  0  0  0
  161.6570  207.4560  148.3040 C   0  0  0  0  0  0  0  0  0  0  0  0
  161.4430  208.0300  150.6840 C   0  0  0  0  0  0  0  0  0  0  0  0
  161.4880  210.3260  151.3380 C   0  0  0  0  0  0  0  0  0  0  0  0
  161.6490  205.1660  147.6540 C   0  0  0  0  0  3  0  0  0  0  0  0
  161.7190  206.4910  147.3470 N   0  0  0  0  0  0  0  0  0  0  0  0
  161.6760  209.8500  149.0710 C   0  0  0  0  0  0  0  0  0  0  0  0
  161.5120  207.0730  149.6620 C   0  0  0  0  0  0  0  0  0  0  0  0
  161.6300  211.8520  150.6400 S   0  0  0  0  0  0  0  0  0  0  0  0
  161.5100  204.7510  148.9820 C   0  0  0  0  0  3  0  0  0  0  0  0
  161.3000  207.6610  152.0430 C   0  0  0  0  0  0  0  0  0  0  0  0
  161.3110  205.3220  151.3330 C   0  0  0  0  0  3  0  0  0  0  0  0
  161.7450  208.9180  147.8880 C   0  0  0  0  0  3  0  0  0  0  0  0
  161.3510  210.0070  152.6480 N   0  0  0  0  0  0  0  0  0  0  0  0
  161.2450  208.6940  153.0400 C   0  0  0  0  0  0  0  0  0  0  0  0
  161.7470  211.2410  149.0550 C   0  0  0  0  0  0  0  0  0  0  0  0
  161.5300  209.3660  150.3630 C   0  0  1  0  0  3  0  0  0  0  0  0
  161.2430  206.2900  152.3470 C   0  0  0  0  0  3  0  0  0  0  0  0
  159.9460  207.3500  156.3620 C   0  0  0  0  0  0  0  0  0  0  0  0
  160.7940  207.9980  157.2610 C   0  0  0  0  0  3  0  0  0  0  0  0
  161.0860  208.4210  154.4950 C   0  0  0  0  0  0  0  0  0  0  0  0
  161.7830  208.8620  156.7870 C   0  0  0  0  0  3  0  0  0  0  0  0
  160.0890  207.5650  154.9880 C   0  0  0  0  0  3  0  0  0  0  0  0
  161.9250  209.0750  155.4130 C   0  0  0  0  0  3  0  0  0  0  0  0
  158.9830  206.5150  156.8200 F   0  0  0  0  0  0  0  0  0  0  0  0
  161.3520  212.8240  146.7420 C   0  0  1  0  0  3  0  0  0  0  0  0
  162.7230  212.8290  146.9230 C   0  0  2  0  0  3  0  0  0  0  0  0
  162.2110  212.5920  145.5200 C   0  0  2  0  0  3  0  0  0  0  0  0
  161.9000  212.0410  147.8890 N   0  0  0  0  0  0  0  0  0  0  0  0
  162.3070  213.8750  144.7060 C   0  0  1  0  0  3  0  0  0  0  0  0
  163.5610  213.9290  144.0910 O   0  0  0  0  0  1  0  0  0  0  0  0
  160.6020  212.5520  143.4290 C   0  0  0  0  0  1  0  0  0  0  0  0
  161.2040  213.9290  143.6460 C   0  0  0  0  0  3  0  0  0  0  0  0
  161.7510  214.4260  142.3180 C   0  0  0  0  0  1  0  0  0  0  0  0
  1 12  1  0  0  0  0
  2  8  1  0  0  0  0
  3 11  1  0  0  0  0
  4 14  2  0  0  0  0
  5 10  1  0  0  0  0
  6  5  2  0  0  0  0
  6  2  1  0  0  0  0
  8  1  1  0  0  0  0
  8  3  2  0  0  0  0
  9  4  1  0  0  0  0
 10  1  2  0  0  0  0
 11 18  1  0  0  0  0
 11 15  2  0  0  0  0
 12 18  2  0  0  0  0
 13  2  2  0  0  0  0
 13  7  1  0  0  0  0
 14 15  1  0  0  0  0
 15 21  1  0  0  0  0
 16  7  2  0  0  0  0
 16  9  1  0  0  0  0
 17  7  1  1  0  0  0
 17  3  1  0  0  0  0
 17  4  1  0  0  0  0
 19 25  1  0  0  0  0
 19 20  1  0  0  0  0
 21 23  1  0  0  0  0
 21 24  2  0  0  0  0
 22 20  2  0  0  0  0
 23 19  2  0  0  0  0
 24 22  1  0  0  0  0
 26 27  1  0  0  0  0
 26 29  1  1  0  0  0
 27 29  1  1  0  0  0
 28 30  1  6  0  0  0
 28 26  1  0  0  0  0
 28 27  1  0  0  0  0
 29 16  1  0  0  0  0
 30 31  1  6  0  0  0
 32 33  1  0  0  0  0
 33 30  1  0  0  0  0
 34 33  1  0  0  0  0
M  END
>  <MODEL>
3

>  <REMARK>
 VINA RESULT:      -7.0      3.262      6.282
  Name = 
  4 active torsions:
  status: ('A' for Active; 'I' for Inactive)
    1  A    between atoms: C_12  and  C_28
    2  A    between atoms: C_13  and  C_14
    3  A    between atoms: C_14  and  C_22
    4  A    between atoms: N_17  and  C_29
                            x       y       z     vdW  Elec       q    Type
                         _______ _______ _______ _____ _____    ______ ____

>  <TORSDO>
F 4

$$$$
