=
 OpenBabel11062408493D

 55 60  0  0  1  0  0  0  0  0999 V2000
  160.4610  210.6450  154.1100 C   0  0  2  0  0  3  0  0  0  0  0  0
  160.9260  212.5240  156.5010 C   0  0  0  0  0  1  0  0  0  0  0  0
  158.8850  214.3740  156.8540 O   0  0  0  0  0  0  0  0  0  0  0  0
  158.7780  213.6050  155.8580 C   0  0  0  0  0  0  0  0  0  0  0  0
  159.9190  212.0430  154.2540 C   0  0  2  0  0  3  0  0  0  0  0  0
  159.8580  212.7170  155.5250 N   0  0  0  0  0  0  0  0  0  0  0  0
  159.4900  212.6200  153.2190 O   0  0  0  0  0  0  0  0  0  0  0  0
  157.4890  213.5700  155.0780 C   0  0  2  0  0  3  0  0  0  0  0  0
  155.9410  212.1060  156.4630 C   0  0  0  0  0  3  0  0  0  0  0  0
  155.1820  210.9410  156.6160 C   0  0  0  0  0  3  0  0  0  0  0  0
  156.5670  211.4100  154.2350 C   0  0  0  0  0  3  0  0  0  0  0  0
  155.8080  210.2440  154.3860 C   0  0  0  0  0  3  0  0  0  0  0  0
  155.1160  210.0090  155.5760 C   0  0  0  0  0  3  0  0  0  0  0  0
  156.6340  212.3490  155.2680 C   0  0  0  0  0  0  0  0  0  0  0  0
  158.9320  214.1330  153.2330 O   0  0  0  0  0  0  0  0  0  0  0  0
  156.5610  214.1640  152.7750 C   0  0  0  0  0  0  0  0  0  0  0  0
  155.3980  214.3250  153.2310 O   0  0  0  0  0  0  0  0  0  0  0  0
  157.6650  213.9440  153.6750 N   0  0  0  0  0  0  0  0  0  0  0  0
  154.0260  214.4500  150.9180 Cl  0  0  0  0  0  0  0  0  0  0  0  0
  158.0740  214.0540  150.8140 C   0  0  0  0  0  3  0  0  0  0  0  0
  158.3110  214.0090  149.4390 C   0  0  0  0  0  3  0  0  0  0  0  0
  155.6920  214.2490  150.3990 C   0  0  0  0  0  0  0  0  0  0  0  0
  155.9400  214.2110  149.0240 C   0  0  0  0  0  3  0  0  0  0  0  0
  157.2440  214.0970  148.5360 C   0  0  0  0  0  0  0  0  0  0  0  0
  156.7690  214.1740  151.3110 C   0  0  0  0  0  0  0  0  0  0  0  0
  157.4540  214.0050  147.0530 C   0  0  0  0  0  3  0  0  0  0  0  0
  157.5640  212.5700  146.5630 C   0  0  0  0  0  2  0  0  0  0  0  0
  158.8190  213.3870  146.7790 C   0  0  0  0  0  2  0  0  0  0  0  0
  160.4040  207.6410  157.2610 C   0  0  0  0  0  3  0  0  0  0  0  0
  160.2340  209.7610  155.3460 C   0  0  2  0  0  3  0  0  0  0  0  0
  161.5420  209.5570  156.1190 C   0  0  0  0  0  2  0  0  0  0  0  0
  159.2490  207.6750  156.2920 C   0  0  0  0  0  2  0  0  0  0  0  0
  161.4150  208.5230  157.2100 C   0  0  0  0  0  3  0  0  0  0  0  0
  159.6030  208.4100  155.0020 C   0  0  0  0  0  2  0  0  0  0  0  0
  161.8310  210.6550  153.7240 O   0  0  0  0  0  0  0  0  0  0  0  0
  162.3290  209.8280  152.7170 C   0  0  0  0  0  0  0  0  0  0  0  0
  162.0920  208.4170  152.7490 N   0  0  0  0  0  2  0  0  0  0  0  0
  163.0010  210.3430  151.7780 O   0  0  0  0  0  0  0  0  0  0  0  0
  160.7310  206.4190  148.7370 C   0  0  1  0  0  3  0  0  0  0  0  0
  162.3910  207.5610  151.6150 C   0  0  1  0  0  3  0  0  0  0  0  0
  162.2580  208.2010  148.1460 O   0  0  0  0  0  1  0  0  0  0  0  0
  160.6900  205.6760  151.9480 C   0  0  0  0  0  3  0  0  0  0  0  0
  162.1360  206.1000  151.9990 C   0  0  1  0  0  3  0  0  0  0  0  0
  161.9420  207.2710  149.1440 C   0  0  1  0  0  3  0  0  0  0  0  0
  160.7180  206.1220  147.2360 C   0  0  0  0  0  1  0  0  0  0  0  0
  161.5950  208.0410  150.4050 C   0  0  0  0  0  2  0  0  0  0  0  0
  160.0380  205.2700  150.8510 C   0  0  0  0  0  3  0  0  0  0  0  0
  160.6420  205.1970  149.5520 N   0  0  0  0  0  0  0  0  0  0  0  0
  162.9640  205.2370  151.2780 O   0  0  0  0  0  0  0  0  0  0  0  0
  162.9060  204.0200  151.9640 C   0  0  0  0  0  1  0  0  0  0  0  0
  160.7050  203.8750  148.9320 C   0  0  0  0  0  2  0  0  0  0  0  0
  160.3340  202.8040  149.9390 C   0  0  0  0  0  2  0  0  0  0  0  0
  159.9800  201.5220  149.2180 C   0  0  0  0  0  2  0  0  0  0  0  0
  161.2440  201.1510  147.4500 C   0  0  0  0  0  1  0  0  0  0  0  0
  161.1470  200.8760  148.8120 O   0  0  0  0  0  0  0  0  0  0  0  0
  1 35  1  1  0  0  0
  4  3  2  0  0  0  0
  5  1  1  1  0  0  0
  5  6  1  0  0  0  0
  6  4  1  0  0  0  0
  6  2  1  0  0  0  0
  7 15  1  0  0  0  0
  7  5  1  0  0  0  0
  8 14  1  6  0  0  0
  8  4  1  0  0  0  0
  9 10  1  0  0  0  0
 11 12  2  0  0  0  0
 11 14  1  0  0  0  0
 12 13  1  0  0  0  0
 13 10  2  0  0  0  0
 14  9  2  0  0  0  0
 15 18  1  0  0  0  0
 16 17  2  0  0  0  0
 16 18  1  0  0  0  0
 18  8  1  0  0  0  0
 20 25  1  0  0  0  0
 21 20  2  0  0  0  0
 22 19  1  0  0  0  0
 22 25  2  0  0  0  0
 23 22  1  0  0  0  0
 24 23  2  0  0  0  0
 24 21  1  0  0  0  0
 25 16  1  0  0  0  0
 26 24  1  0  0  0  0
 27 28  1  0  0  0  0
 27 26  1  0  0  0  0
 28 26  1  0  0  0  0
 30  1  1  6  0  0  0
 30 31  1  0  0  0  0
 31 33  1  0  0  0  0
 32 29  1  0  0  0  0
 33 29  2  0  0  0  0
 34 30  1  0  0  0  0
 34 32  1  0  0  0  0
 36 37  1  0  0  0  0
 36 35  1  0  0  0  0
 38 36  2  0  0  0  0
 39 45  1  6  0  0  0
 39 44  1  0  0  0  0
 39 48  1  0  0  0  0
 40 43  1  0  0  0  0
 40 37  1  1  0  0  0
 42 43  1  0  0  0  0
 43 49  1  6  0  0  0
 44 41  1  6  0  0  0
 44 46  1  0  0  0  0
 46 40  1  0  0  0  0
 47 42  2  0  0  0  0
 48 47  1  0  0  0  0
 49 50  1  0  0  0  0
 51 48  1  0  0  0  0
 51 52  1  0  0  0  0
 53 52  1  0  0  0  0
 54 55  1  0  0  0  0
 55 53  1  0  0  0  0
M  END
>  <MODEL>
1

>  <REMARK>
 VINA RESULT:      -4.7      0.000      0.000
  Name = 
  15 active torsions:
  status: ('A' for Active; 'I' for Inactive)
    1  A    between atoms: C_3  and  O_25
    2  A    between atoms: C_3  and  C_38
    3  A    between atoms: C_6  and  N_22
    4  A    between atoms: C_8  and  O_54
    5  A    between atoms: C_10  and  C_48
    6  A    between atoms: C_14  and  O_20
    7  A    between atoms: C_19  and  C_45
    8  A    between atoms: C_26  and  C_45
    9  A    between atoms: C_27  and  C_51
   10  A    between atoms: C_29  and  C_38
   11  A    between atoms: C_29  and  N_53
   12  A    between atoms: C_33  and  C_52
   13  A    between atoms: C_35  and  C_51
   14  A    between atoms: C_45  and  N_49
   15  A    between atoms: C_51  and  O_54
                            x       y       z     vdW  Elec       q    Type
                         _______ _______ _______ _____ _____    ______ ____

>  <TORSDO>
F 15

$$$$
=
 OpenBabel11062408493D

 55 59  0  0  1  0  0  0  0  0999 V2000
  161.7260  208.8080  153.1050 C   0  0  2  0  0  3  0  0  0  0  0  0
  159.5300  207.7510  154.9800 C   0  0  0  0  0  1  0  0  0  0  0  0
  157.9580  209.7640  156.0730 O   0  0  0  0  0  0  0  0  0  0  0  0
  158.9110  210.1350  155.3320 C   0  0  0  0  0  0  0  0  0  0  0  0
  161.1070  209.5610  154.2520 C   0  0  0  0  0  0  0  0  0  0  0  0
  159.8530  209.1670  154.8440 N   0  0  0  0  0  0  0  0  0  0  0  0
  161.7080  210.5810  154.6840 O   0  0  0  0  0  0  0  0  0  0  0  0
  159.0030  211.5770  154.9040 C   0  0  2  0  0  3  0  0  0  0  0  0
  156.7610  212.6170  155.4950 C   0  0  0  0  0  3  0  0  0  0  0  0
  156.0050  213.5600  156.2000 C   0  0  0  0  0  3  0  0  0  0  0  0
  158.7760  213.4420  156.5460 C   0  0  0  0  0  3  0  0  0  0  0  0
  158.0210  214.3850  157.2520 C   0  0  0  0  0  3  0  0  0  0  0  0
  156.6360  214.4460  157.0790 C   0  0  0  0  0  3  0  0  0  0  0  0
  158.1510  212.5510  155.6690 C   0  0  0  0  0  0  0  0  0  0  0  0
  158.5560  210.6630  152.7200 O   0  0  0  0  0  1  0  0  0  0  0  0
  159.2400  212.9780  152.7820 C   0  0  0  0  0  0  0  0  0  0  0  0
  159.8860  213.8740  153.3870 O   0  0  0  0  0  0  0  0  0  0  0  0
  158.9160  211.7450  153.4530 N   0  0  0  0  0  0  0  0  0  0  0  0
  156.2030  213.6840  152.2990 Cl  0  0  0  0  0  0  0  0  0  0  0  0
  159.7360  213.1300  150.3570 C   0  0  0  0  0  3  0  0  0  0  0  0
  159.3500  213.3050  149.0270 C   0  0  0  0  0  3  0  0  0  0  0  0
  157.4470  213.4980  151.0720 C   0  0  0  0  0  0  0  0  0  0  0  0
  157.0720  213.6790  149.7390 C   0  0  0  0  0  3  0  0  0  0  0  0
  158.0140  213.5910  148.7120 C   0  0  0  0  0  0  0  0  0  0  0  0
  158.7960  213.2240  151.3930 C   0  0  0  0  0  0  0  0  0  0  0  0
  157.5530  213.7380  147.2930 C   0  0  0  0  0  3  0  0  0  0  0  0
  157.0330  212.4360  146.7050 C   0  0  0  0  0  2  0  0  0  0  0  0
  158.4390  212.8930  146.3880 C   0  0  0  0  0  2  0  0  0  0  0  0
  161.9260  210.3070  149.0220 C   0  0  0  0  0  3  0  0  0  0  0  0
  161.5630  209.5040  151.7450 C   0  0  2  0  0  3  0  0  0  0  0  0
  161.3420  208.4760  150.6290 C   0  0  0  0  0  2  0  0  0  0  0  0
  162.4170  211.2020  150.1310 C   0  0  0  0  0  2  0  0  0  0  0  0
  161.3970  209.0950  149.2530 C   0  0  0  0  0  3  0  0  0  0  0  0
  162.7410  210.4190  151.4010 C   0  0  0  0  0  2  0  0  0  0  0  0
  161.2650  207.4620  153.0570 O   0  0  0  0  0  0  0  0  0  0  0  0
  161.8820  206.4890  152.2690 C   0  0  0  0  0  0  0  0  0  0  0  0
  161.1070  205.4620  151.6410 N   0  0  0  0  0  2  0  0  0  0  0  0
  163.1370  206.5230  152.1250 O   0  0  0  0  0  0  0  0  0  0  0  0
  161.0030  203.6930  147.3050 C   0  0  1  0  0  3  0  0  0  0  0  0
  161.6720  204.5780  150.6380 C   0  0  1  0  0  3  0  0  0  0  0  0
  162.8580  205.2460  147.3800 O   0  0  0  0  0  1  0  0  0  0  0  0
  159.7340  202.9490  150.2540 C   0  0  0  0  0  3  0  0  0  0  0  0
  161.1120  203.1650  150.8290 C   0  0  1  0  0  3  0  0  0  0  0  0
  162.0920  204.3650  148.1540 C   0  0  1  0  0  3  0  0  0  0  0  0
  161.4820  203.4080  145.8800 C   0  0  0  0  0  1  0  0  0  0  0  0
  161.4250  205.1700  149.2540 C   0  0  0  0  0  2  0  0  0  0  0  0
  159.4650  202.6440  148.9790 C   0  0  0  0  0  3  0  0  0  0  0  0
  160.4740  202.4930  147.9710 N   0  0  0  0  0  0  0  0  0  0  0  0
  162.0210  202.1980  150.3970 O   0  0  0  0  0  0  0  0  0  0  0  0
  161.4030  200.9720  150.6680 C   0  0  0  0  0  1  0  0  0  0  0  0
  160.5790  201.1780  147.3410 C   0  0  0  0  0  2  0  0  0  0  0  0
  159.8780  201.1810  145.9970 C   0  0  0  0  0  2  0  0  0  0  0  0
  160.4920  200.1320  145.0950 C   0  0  0  0  0  2  0  0  0  0  0  0
  161.3860  198.1310  145.3240 C   0  0  0  0  0  1  0  0  0  0  0  0
  161.4820  199.4400  145.7900 O   0  0  0  0  0  0  0  0  0  0  0  0
  1 35  1  6  0  0  0
  1  5  1  0  0  0  0
  4  3  2  0  0  0  0
  5  7  2  0  0  0  0
  5  6  1  0  0  0  0
  6  2  1  0  0  0  0
  6  4  1  0  0  0  0
  8  4  1  6  0  0  0
  8 14  1  0  0  0  0
  9 14  2  0  0  0  0
  9 10  1  0  0  0  0
 10 13  2  0  0  0  0
 11 12  2  0  0  0  0
 13 12  1  0  0  0  0
 14 11  1  0  0  0  0
 15 18  1  0  0  0  0
 16 17  2  0  0  0  0
 16 18  1  0  0  0  0
 18  8  1  0  0  0  0
 20 25  1  0  0  0  0
 21 20  2  0  0  0  0
 22 25  2  0  0  0  0
 22 19  1  0  0  0  0
 23 22  1  0  0  0  0
 24 21  1  0  0  0  0
 24 23  2  0  0  0  0
 25 16  1  0  0  0  0
 26 24  1  0  0  0  0
 27 26  1  0  0  0  0
 28 27  1  0  0  0  0
 28 26  1  0  0  0  0
 29 33  2  0  0  0  0
 29 32  1  0  0  0  0
 30  1  1  1  0  0  0
 31 30  1  0  0  0  0
 32 34  1  0  0  0  0
 33 31  1  0  0  0  0
 34 30  1  0  0  0  0
 36 35  1  0  0  0  0
 37 36  1  0  0  0  0
 38 36  2  0  0  0  0
 39 45  1  6  0  0  0
 39 48  1  0  0  0  0
 39 44  1  0  0  0  0
 40 43  1  0  0  0  0
 40 37  1  1  0  0  0
 42 43  1  0  0  0  0
 43 49  1  6  0  0  0
 44 41  1  6  0  0  0
 44 46  1  0  0  0  0
 46 40  1  0  0  0  0
 47 42  2  0  0  0  0
 48 47  1  0  0  0  0
 49 50  1  0  0  0  0
 51 48  1  0  0  0  0
 52 51  1  0  0  0  0
 53 55  1  0  0  0  0
 53 52  1  0  0  0  0
 54 55  1  0  0  0  0
M  END
>  <MODEL>
2

>  <REMARK>
 VINA RESULT:      -4.3      1.963      3.769
  Name = 
  15 active torsions:
  status: ('A' for Active; 'I' for Inactive)
    1  A    between atoms: C_3  and  O_25
    2  A    between atoms: C_3  and  C_38
    3  A    between atoms: C_6  and  N_22
    4  A    between atoms: C_8  and  O_54
    5  A    between atoms: C_10  and  C_48
    6  A    between atoms: C_14  and  O_20
    7  A    between atoms: C_19  and  C_45
    8  A    between atoms: C_26  and  C_45
    9  A    between atoms: C_27  and  C_51
   10  A    between atoms: C_29  and  C_38
   11  A    between atoms: C_29  and  N_53
   12  A    between atoms: C_33  and  C_52
   13  A    between atoms: C_35  and  C_51
   14  A    between atoms: C_45  and  N_49
   15  A    between atoms: C_51  and  O_54
                            x       y       z     vdW  Elec       q    Type
                         _______ _______ _______ _____ _____    ______ ____

>  <TORSDO>
F 15

$$$$
=
 OpenBabel11062408493D

 55 59  0  0  1  0  0  0  0  0999 V2000
  162.1380  210.7630  149.3600 C   0  0  2  0  0  3  0  0  0  0  0  0
  164.2490  210.7770  151.5970 C   0  0  0  0  0  1  0  0  0  0  0  0
  163.1830  210.2780  154.1130 O   0  0  0  0  0  0  0  0  0  0  0  0
  162.3600  210.3360  153.1570 C   0  0  0  0  0  0  0  0  0  0  0  0
  161.8890  211.0950  150.8070 C   0  0  0  0  0  0  0  0  0  0  0  0
  162.8130  210.7290  151.8510 N   0  0  0  0  0  0  0  0  0  0  0  0
  160.8210  211.6960  151.1010 O   0  0  0  0  0  0  0  0  0  0  0  0
  160.9300  209.9150  153.3770 C   0  0  2  0  0  3  0  0  0  0  0  0
  161.0250  211.0650  155.6420 C   0  0  0  0  0  3  0  0  0  0  0  0
  160.4360  211.3850  156.8690 C   0  0  0  0  0  3  0  0  0  0  0  0
  159.0240  209.8760  154.9880 C   0  0  0  0  0  3  0  0  0  0  0  0
  158.4330  210.1960  156.2150 C   0  0  0  0  0  3  0  0  0  0  0  0
  159.1380  210.9500  157.1560 C   0  0  0  0  0  3  0  0  0  0  0  0
  160.3190  210.3120  154.6920 C   0  0  0  0  0  0  0  0  0  0  0  0
  159.9730  208.2730  151.8970 O   0  0  0  0  0  1  0  0  0  0  0  0
  161.1320  207.4110  153.8330 C   0  0  0  0  0  0  0  0  0  0  0  0
  161.4920  207.6070  155.0230 O   0  0  0  0  0  0  0  0  0  0  0  0
  160.6880  208.5170  153.0220 N   0  0  0  0  0  0  0  0  0  0  0  0
  162.9430  206.9330  151.2940 Cl  0  0  0  0  0  0  0  0  0  0  0  0
  160.4590  205.0250  153.8900 C   0  0  0  0  0  3  0  0  0  0  0  0
  160.4550  203.7310  153.3680 C   0  0  0  0  0  3  0  0  0  0  0  0
  161.9450  205.7420  152.1110 C   0  0  0  0  0  0  0  0  0  0  0  0
  161.9410  204.4420  151.6000 C   0  0  0  0  0  3  0  0  0  0  0  0
  161.2060  203.4300  152.2230 C   0  0  0  0  0  0  0  0  0  0  0  0
  161.2000  206.0440  153.2740 C   0  0  0  0  0  0  0  0  0  0  0  0
  161.1890  202.0640  151.6040 C   0  0  0  0  0  3  0  0  0  0  0  0
  161.6090  202.0740  150.1440 C   0  0  0  0  0  2  0  0  0  0  0  0
  160.1410  202.0270  150.5010 C   0  0  0  0  0  2  0  0  0  0  0  0
  161.7880  213.5850  146.0640 C   0  0  0  0  0  3  0  0  0  0  0  0
  161.9890  211.9630  148.4130 C   0  0  2  0  0  3  0  0  0  0  0  0
  160.7910  211.7720  147.4740 C   0  0  0  0  0  2  0  0  0  0  0  0
  163.0850  213.5490  146.8310 C   0  0  0  0  0  2  0  0  0  0  0  0
  160.7360  212.8160  146.3860 C   0  0  0  0  0  3  0  0  0  0  0  0
  163.2580  212.2440  147.6050 C   0  0  0  0  0  2  0  0  0  0  0  0
  161.3410  209.6640  148.9340 O   0  0  0  0  0  0  0  0  0  0  0  0
  161.8810  208.5670  148.2610 C   0  0  0  0  0  0  0  0  0  0  0  0
  161.0390  207.4940  147.8230 N   0  0  0  0  0  2  0  0  0  0  0  0
  163.1260  208.5300  148.0500 O   0  0  0  0  0  0  0  0  0  0  0  0
  160.1340  203.8600  145.0100 C   0  0  1  0  0  3  0  0  0  0  0  0
  161.5180  206.4580  146.9270 C   0  0  1  0  0  3  0  0  0  0  0  0
  160.6750  205.7340  143.5760 O   0  0  0  0  0  1  0  0  0  0  0  0
  160.8320  204.3410  148.1950 C   0  0  0  0  0  3  0  0  0  0  0  0
  161.9570  205.2400  147.7460 C   0  0  1  0  0  3  0  0  0  0  0  0
  160.9140  205.1710  144.8360 C   0  0  1  0  0  3  0  0  0  0  0  0
  160.0500  203.0660  143.7040 C   0  0  0  0  0  1  0  0  0  0  0  0
  160.4430  206.1620  145.8860 C   0  0  0  0  0  2  0  0  0  0  0  0
  160.2740  203.3700  147.4610 C   0  0  0  0  0  3  0  0  0  0  0  0
  160.6770  203.0610  146.1190 N   0  0  0  0  0  0  0  0  0  0  0  0
  162.9690  204.5310  147.0950 O   0  0  0  0  0  0  0  0  0  0  0  0
  163.4390  205.3990  146.1030 C   0  0  0  0  0  1  0  0  0  0  0  0
  161.2090  201.7190  145.8880 C   0  0  0  0  0  2  0  0  0  0  0  0
  160.9840  200.8470  147.1070 C   0  0  0  0  0  2  0  0  0  0  0  0
  161.4440  199.4340  146.8190 C   0  0  0  0  0  2  0  0  0  0  0  0
  161.3920  197.7430  145.4060 C   0  0  0  0  0  1  0  0  0  0  0  0
  161.1770  199.1170  145.4890 O   0  0  0  0  0  0  0  0  0  0  0  0
  1 35  1  6  0  0  0
  1  5  1  0  0  0  0
  2  6  1  0  0  0  0
  4  3  2  0  0  0  0
  5  7  2  0  0  0  0
  5  6  1  0  0  0  0
  6  4  1  0  0  0  0
  8  4  1  1  0  0  0
  8 14  1  0  0  0  0
  9 10  1  0  0  0  0
 10 13  2  0  0  0  0
 11 12  2  0  0  0  0
 12 13  1  0  0  0  0
 14 11  1  0  0  0  0
 14  9  2  0  0  0  0
 15 18  1  0  0  0  0
 16 17  2  0  0  0  0
 18  8  1  0  0  0  0
 18 16  1  0  0  0  0
 19 22  1  0  0  0  0
 21 20  1  0  0  0  0
 22 25  1  0  0  0  0
 23 22  2  0  0  0  0
 23 24  1  0  0  0  0
 24 21  2  0  0  0  0
 25 16  1  0  0  0  0
 25 20  2  0  0  0  0
 26 24  1  0  0  0  0
 27 28  1  0  0  0  0
 27 26  1  0  0  0  0
 28 26  1  0  0  0  0
 29 33  2  0  0  0  0
 29 32  1  0  0  0  0
 30  1  1  6  0  0  0
 31 30  1  0  0  0  0
 32 34  1  0  0  0  0
 33 31  1  0  0  0  0
 34 30  1  0  0  0  0
 36 35  1  0  0  0  0
 37 36  1  0  0  0  0
 38 36  2  0  0  0  0
 39 45  1  6  0  0  0
 39 48  1  0  0  0  0
 40 43  1  0  0  0  0
 40 37  1  1  0  0  0
 43 49  1  6  0  0  0
 43 42  1  0  0  0  0
 44 41  1  6  0  0  0
 44 39  1  0  0  0  0
 44 46  1  0  0  0  0
 46 40  1  0  0  0  0
 47 42  2  0  0  0  0
 48 47  1  0  0  0  0
 50 49  1  0  0  0  0
 51 48  1  0  0  0  0
 51 52  1  0  0  0  0
 53 52  1  0  0  0  0
 54 55  1  0  0  0  0
 55 53  1  0  0  0  0
M  END
>  <MODEL>
3

>  <REMARK>
 VINA RESULT:      -2.3      3.635      7.314
  Name = 
  15 active torsions:
  status: ('A' for Active; 'I' for Inactive)
    1  A    between atoms: C_3  and  O_25
    2  A    between atoms: C_3  and  C_38
    3  A    between atoms: C_6  and  N_22
    4  A    between atoms: C_8  and  O_54
    5  A    between atoms: C_10  and  C_48
    6  A    between atoms: C_14  and  O_20
    7  A    between atoms: C_19  and  C_45
    8  A    between atoms: C_26  and  C_45
    9  A    between atoms: C_27  and  C_51
   10  A    between atoms: C_29  and  C_38
   11  A    between atoms: C_29  and  N_53
   12  A    between atoms: C_33  and  C_52
   13  A    between atoms: C_35  and  C_51
   14  A    between atoms: C_45  and  N_49
   15  A    between atoms: C_51  and  O_54
                            x       y       z     vdW  Elec       q    Type
                         _______ _______ _______ _____ _____    ______ ____

>  <TORSDO>
F 15

$$$$
