=
 OpenBabel11052423153D

 27 30  0  0  1  0  0  0  0  0999 V2000
  161.4080  205.6040  149.7060 C   0  0  1  0  0  3  0  0  0  0  0  0
  161.1180  206.1830  151.0240 N   0  0  0  0  0  0  0  0  0  0  0  0
  161.1140  208.3600  150.1640 O   0  0  0  0  0  0  0  0  0  0  0  0
  161.2540  207.8120  155.0440 C   0  0  0  0  0  2  0  0  0  0  0  0
  161.2610  209.3470  155.1240 C   0  0  0  0  0  2  0  0  0  0  0  0
  160.7900  205.3250  152.1670 C   0  0  0  0  0  2  0  0  0  0  0  0
  160.6600  209.6050  152.6760 C   0  0  1  0  0  3  0  0  0  0  0  0
  161.5080  210.5690  152.1620 F   0  0  0  0  0  0  0  0  0  0  0  0
  161.3230  208.2210  152.5500 C   0  0  1  0  0  3  0  0  0  0  0  0
  160.2880  209.9700  154.1220 C   0  0  0  0  0  2  0  0  0  0  0  0
  160.8470  207.2820  153.6650 C   0  0  1  0  0  3  0  0  0  0  0  0
  161.1370  207.6150  151.1810 C   0  0  0  0  0  0  0  0  0  0  0  0
  161.3820  205.8760  153.4550 C   0  0  0  0  0  2  0  0  0  0  0  0
  162.2960  206.4970  148.8290 C   0  0  0  0  0  2  0  0  0  0  0  0
  160.4920  205.0290  144.8470 C   0  0  0  0  0  3  0  0  0  0  0  0
  161.6990  204.4560  144.7420 C   0  0  0  0  0  3  0  0  0  0  0  0
  162.0610  206.2990  147.3380 C   0  0  1  0  0  3  0  0  0  0  0  0
  160.2500  206.3060  145.5960 C   0  0  0  0  0  2  0  0  0  0  0  0
  162.9400  205.0290  145.3610 C   0  0  0  0  0  2  0  0  0  0  0  0
  162.8290  205.0670  146.8790 C   0  0  0  0  0  2  0  0  0  0  0  0
  160.5650  206.1430  147.0770 C   0  0  0  0  0  2  0  0  0  0  0  0
  161.7860  204.1140  149.7280 C   0  0  0  0  0  2  0  0  0  0  0  0
  160.7630  200.8880  149.6280 O   0  0  0  0  0  0  0  0  0  0  0  0
  161.0680  202.4420  148.0690 C   0  0  0  0  0  3  0  0  0  0  0  0
  161.1090  201.1480  148.3170 C   0  0  0  0  0  3  0  0  0  0  0  0
  160.4670  202.0820  150.3300 C   0  0  0  0  0  2  0  0  0  0  0  0
  160.6570  203.1870  149.2940 C   0  0  1  0  0  3  0  0  0  0  0  0
  1 14  1  1  0  0  0
  1 22  1  0  0  0  0
  1  2  1  0  0  0  0
  2 12  1  0  0  0  0
  2  6  1  0  0  0  0
  3 12  2  0  0  0  0
  4  5  1  0  0  0  0
  6 13  1  0  0  0  0
  7  8  1  1  0  0  0
  7 10  1  0  0  0  0
  9 12  1  6  0  0  0
  9  7  1  0  0  0  0
  9 11  1  0  0  0  0
 10  5  1  0  0  0  0
 11 13  1  6  0  0  0
 11  4  1  0  0  0  0
 15 18  1  0  0  0  0
 16 15  2  0  0  0  0
 16 19  1  0  0  0  0
 17 14  1  1  0  0  0
 18 21  1  0  0  0  0
 19 20  1  0  0  0  0
 20 17  1  0  0  0  0
 21 17  1  0  0  0  0
 23 26  1  0  0  0  0
 24 25  2  0  0  0  0
 24 27  1  0  0  0  0
 25 23  1  0  0  0  0
 27 22  1  1  0  0  0
 27 26  1  0  0  0  0
M  END
>  <MODEL>
1

>  <REMARK>
 VINA RESULT:      -8.6      0.000      0.000
  Name = 
  5 active torsions:
  status: ('A' for Active; 'I' for Inactive)
    1  A    between atoms: C_1  and  C_15
    2  A    between atoms: C_1  and  C_18
    3  A    between atoms: N_2  and  C_15
    4  A    between atoms: C_9  and  C_15
    5  A    between atoms: C_9  and  C_27
                            x       y       z     vdW  Elec       q    Type
                         _______ _______ _______ _____ _____    ______ ____

>  <TORSDO>
F 5

$$$$
=
 OpenBabel11052423153D

 27 30  0  0  1  0  0  0  0  0999 V2000
  160.8360  206.2630  150.0380 C   0  0  1  0  0  3  0  0  0  0  0  0
  161.2500  207.2100  151.0810 N   0  0  0  0  0  0  0  0  0  0  0  0
  160.4670  205.8110  152.7870 O   0  0  0  0  0  0  0  0  0  0  0  0
  161.5960  210.4480  153.9500 C   0  0  0  0  0  2  0  0  0  0  0  0
  161.1910  210.0890  155.3880 C   0  0  0  0  0  2  0  0  0  0  0  0
  162.0510  208.3930  150.7490 C   0  0  0  0  0  2  0  0  0  0  0  0
  161.1250  207.6070  154.8870 C   0  0  1  0  0  3  0  0  0  0  0  0
  159.9540  207.1240  155.4400 F   0  0  0  0  0  0  0  0  0  0  0  0
  160.8530  208.0840  153.4480 C   0  0  1  0  0  3  0  0  0  0  0  0
  161.7030  208.7060  155.7920 C   0  0  0  0  0  2  0  0  0  0  0  0
  161.8070  209.2200  153.0580 C   0  0  1  0  0  3  0  0  0  0  0  0
  160.8800  206.9540  152.4500 C   0  0  0  0  0  0  0  0  0  0  0  0
  161.6400  209.5890  151.5950 C   0  0  0  0  0  2  0  0  0  0  0  0
  160.7320  206.8970  148.6450 C   0  0  0  0  0  2  0  0  0  0  0  0
  162.7890  205.0380  144.9610 C   0  0  0  0  0  3  0  0  0  0  0  0
  161.5740  205.2360  144.4310 C   0  0  0  0  0  3  0  0  0  0  0  0
  161.0760  205.9340  147.5190 C   0  0  1  0  0  3  0  0  0  0  0  0
  163.0180  204.7770  146.4200 C   0  0  0  0  0  2  0  0  0  0  0  0
  160.3100  205.2180  145.2390 C   0  0  0  0  0  2  0  0  0  0  0  0
  160.3020  206.3380  146.2710 C   0  0  0  0  0  2  0  0  0  0  0  0
  162.5810  205.9650  147.2670 C   0  0  0  0  0  2  0  0  0  0  0  0
  161.5410  204.8990  150.0920 C   0  0  0  0  0  2  0  0  0  0  0  0
  161.3620  201.5690  150.6770 O   0  0  0  0  0  0  0  0  0  0  0  0
  160.6460  202.8690  149.0240 C   0  0  0  0  0  3  0  0  0  0  0  0
  161.0880  201.6650  149.3270 C   0  0  0  0  0  3  0  0  0  0  0  0
  161.0930  202.7870  151.3470 C   0  0  0  0  0  2  0  0  0  0  0  0
  160.5890  203.7200  150.2480 C   0  0  1  0  0  3  0  0  0  0  0  0
  1 14  1  6  0  0  0
  1 22  1  0  0  0  0
  1  2  1  0  0  0  0
  2 12  1  0  0  0  0
  4  5  1  0  0  0  0
  5 10  1  0  0  0  0
  6  2  1  0  0  0  0
  6 13  1  0  0  0  0
  7  8  1  1  0  0  0
  7 10  1  0  0  0  0
  9 12  1  6  0  0  0
  9  7  1  0  0  0  0
 11 13  1  6  0  0  0
 11  9  1  0  0  0  0
 11  4  1  0  0  0  0
 12  3  2  0  0  0  0
 15 18  1  0  0  0  0
 16 15  2  0  0  0  0
 16 19  1  0  0  0  0
 17 14  1  1  0  0  0
 18 21  1  0  0  0  0
 19 20  1  0  0  0  0
 20 17  1  0  0  0  0
 21 17  1  0  0  0  0
 23 26  1  0  0  0  0
 24 25  2  0  0  0  0
 24 27  1  0  0  0  0
 25 23  1  0  0  0  0
 27 22  1  6  0  0  0
 27 26  1  0  0  0  0
M  END
>  <MODEL>
2

>  <REMARK>
 VINA RESULT:      -8.6      1.562      2.373
  Name = 
  5 active torsions:
  status: ('A' for Active; 'I' for Inactive)
    1  A    between atoms: C_1  and  C_15
    2  A    between atoms: C_1  and  C_18
    3  A    between atoms: N_2  and  C_15
    4  A    between atoms: C_9  and  C_15
    5  A    between atoms: C_9  and  C_27
                            x       y       z     vdW  Elec       q    Type
                         _______ _______ _______ _____ _____    ______ ____

>  <TORSDO>
F 5

$$$$
=
 OpenBabel11052423153D

 27 30  0  0  1  0  0  0  0  0999 V2000
  161.5020  206.1080  149.9700 C   0  0  1  0  0  3  0  0  0  0  0  0
  161.6300  207.1760  150.9690 N   0  0  0  0  0  0  0  0  0  0  0  0
  160.9370  205.7610  152.7000 O   0  0  0  0  0  0  0  0  0  0  0  0
  161.0930  210.5880  153.5970 C   0  0  0  0  0  2  0  0  0  0  0  0
  160.6110  210.2470  155.0150 C   0  0  0  0  0  2  0  0  0  0  0  0
  162.2360  208.4650  150.6200 C   0  0  0  0  0  2  0  0  0  0  0  0
  161.0430  207.7700  154.7050 C   0  0  1  0  0  3  0  0  0  0  0  0
  159.9250  207.1120  155.1860 F   0  0  0  0  0  0  0  0  0  0  0  0
  160.8400  208.1020  153.2150 C   0  0  1  0  0  3  0  0  0  0  0  0
  161.3180  209.0100  155.5700 C   0  0  0  0  0  2  0  0  0  0  0  0
  161.6110  209.3700  152.8260 C   0  0  1  0  0  3  0  0  0  0  0  0
  161.1710  206.9380  152.3150 C   0  0  0  0  0  0  0  0  0  0  0  0
  161.5340  209.6130  151.3290 C   0  0  0  0  0  2  0  0  0  0  0  0
  161.5720  204.6980  150.5710 C   0  0  0  0  0  2  0  0  0  0  0  0
  160.6680  200.6090  148.6400 C   0  0  0  0  0  3  0  0  0  0  0  0
  161.2010  201.2200  147.5730 C   0  0  0  0  0  3  0  0  0  0  0  0
  160.9670  203.6300  149.6710 C   0  0  1  0  0  3  0  0  0  0  0  0
  159.9330  201.3410  149.7250 C   0  0  0  0  0  2  0  0  0  0  0  0
  161.1220  202.7010  147.3460 C   0  0  0  0  0  2  0  0  0  0  0  0
  161.8520  203.4640  148.4430 C   0  0  0  0  0  2  0  0  0  0  0  0
  160.8500  202.3210  150.4450 C   0  0  0  0  0  2  0  0  0  0  0  0
  160.3910  206.3290  148.9310 C   0  0  0  0  0  2  0  0  0  0  0  0
  161.2830  205.7400  145.7180 O   0  0  0  0  0  0  0  0  0  0  0  0
  162.3230  206.6770  147.4440 C   0  0  0  0  0  3  0  0  0  0  0  0
  162.4920  205.9750  146.3410 C   0  0  0  0  0  3  0  0  0  0  0  0
  160.2090  206.3150  146.4410 C   0  0  0  0  0  2  0  0  0  0  0  0
  160.8760  206.9820  147.6420 C   0  0  1  0  0  3  0  0  0  0  0  0
  1 22  1  1  0  0  0
  1 14  1  0  0  0  0
  1  2  1  0  0  0  0
  2 12  1  0  0  0  0
  4  5  1  0  0  0  0
  5 10  1  0  0  0  0
  6  2  1  0  0  0  0
  6 13  1  0  0  0  0
  7  8  1  1  0  0  0
  7 10  1  0  0  0  0
  9 12  1  6  0  0  0
  9  7  1  0  0  0  0
 11 13  1  6  0  0  0
 11  9  1  0  0  0  0
 11  4  1  0  0  0  0
 12  3  2  0  0  0  0
 15 18  1  0  0  0  0
 16 15  2  0  0  0  0
 17 21  1  0  0  0  0
 17 14  1  1  0  0  0
 18 21  1  0  0  0  0
 19 16  1  0  0  0  0
 19 20  1  0  0  0  0
 20 17  1  0  0  0  0
 23 25  1  0  0  0  0
 23 26  1  0  0  0  0
 24 27  1  0  0  0  0
 25 24  2  0  0  0  0
 26 27  1  0  0  0  0
 27 22  1  1  0  0  0
M  END
>  <MODEL>
3

>  <REMARK>
 VINA RESULT:      -8.5      1.942      3.886
  Name = 
  5 active torsions:
  status: ('A' for Active; 'I' for Inactive)
    1  A    between atoms: C_1  and  C_15
    2  A    between atoms: C_1  and  C_18
    3  A    between atoms: N_2  and  C_15
    4  A    between atoms: C_9  and  C_15
    5  A    between atoms: C_9  and  C_27
                            x       y       z     vdW  Elec       q    Type
                         _______ _______ _______ _____ _____    ______ ____

>  <TORSDO>
F 5

$$$$
=
 OpenBabel11052423153D

 27 30  0  0  1  0  0  0  0  0999 V2000
  161.6930  209.5410  150.1970 C   0  0  1  0  0  3  0  0  0  0  0  0
  161.7620  208.0740  150.2090 N   0  0  0  0  0  0  0  0  0  0  0  0
  161.3990  207.9500  147.9000 O   0  0  0  0  0  0  0  0  0  0  0  0
  161.0010  203.8120  150.5180 C   0  0  0  0  0  2  0  0  0  0  0  0
  160.6830  203.1110  149.1880 C   0  0  0  0  0  2  0  0  0  0  0  0
  162.1670  207.3500  151.4180 C   0  0  0  0  0  2  0  0  0  0  0  0
  161.4050  205.1110  147.8120 C   0  0  1  0  0  3  0  0  0  0  0  0
  160.4230  205.3070  146.8560 F   0  0  0  0  0  0  0  0  0  0  0  0
  161.0420  205.8960  149.0860 C   0  0  1  0  0  3  0  0  0  0  0  0
  161.5860  203.6050  148.0570 C   0  0  0  0  0  2  0  0  0  0  0  0
  161.6090  205.2070  150.3340 C   0  0  1  0  0  3  0  0  0  0  0  0
  161.4470  207.3460  149.0060 C   0  0  0  0  0  0  0  0  0  0  0  0
  161.3810  206.0560  151.5720 C   0  0  0  0  0  2  0  0  0  0  0  0
  162.0280  210.1780  151.5530 C   0  0  0  0  0  2  0  0  0  0  0  0
  158.8110  211.8950  154.3760 C   0  0  0  0  0  3  0  0  0  0  0  0
  159.4410  211.1000  155.2510 C   0  0  0  0  0  3  0  0  0  0  0  0
  160.8290  210.2720  152.4850 C   0  0  1  0  0  3  0  0  0  0  0  0
  158.7410  211.6050  152.9050 C   0  0  0  0  0  2  0  0  0  0  0  0
  160.1440  209.8340  154.8590 C   0  0  0  0  0  2  0  0  0  0  0  0
  161.3100  210.1220  153.9220 C   0  0  0  0  0  2  0  0  0  0  0  0
  160.1280  211.6110  152.2770 C   0  0  0  0  0  2  0  0  0  0  0  0
  162.3470  210.2050  148.9760 C   0  0  0  0  0  2  0  0  0  0  0  0
  161.4430  212.5770  146.7350 O   0  0  0  0  0  0  0  0  0  0  0  0
  163.1270  212.3990  148.1740 C   0  0  0  0  0  3  0  0  0  0  0  0
  162.7610  212.8880  147.0060 C   0  0  0  0  0  3  0  0  0  0  0  0
  160.8640  211.8220  147.7840 C   0  0  0  0  0  2  0  0  0  0  0  0
  161.9860  211.6760  148.8090 C   0  0  1  0  0  3  0  0  0  0  0  0
  1 22  1  6  0  0  0
  1  2  1  0  0  0  0
  1 14  1  0  0  0  0
  2  6  1  0  0  0  0
  3 12  2  0  0  0  0
  5  4  1  0  0  0  0
  6 13  1  0  0  0  0
  7  8  1  6  0  0  0
  7 10  1  0  0  0  0
  7  9  1  0  0  0  0
  9 12  1  6  0  0  0
  9 11  1  0  0  0  0
 10  5  1  0  0  0  0
 11  4  1  1  0  0  0
 11 13  1  0  0  0  0
 12  2  1  0  0  0  0
 15 16  2  0  0  0  0
 17 14  1  6  0  0  0
 17 20  1  0  0  0  0
 18 15  1  0  0  0  0
 19 16  1  0  0  0  0
 20 19  1  0  0  0  0
 21 17  1  0  0  0  0
 21 18  1  0  0  0  0
 23 25  1  0  0  0  0
 23 26  1  0  0  0  0
 24 27  1  0  0  0  0
 25 24  2  0  0  0  0
 26 27  1  0  0  0  0
 27 22  1  6  0  0  0
M  END
>  <MODEL>
4

>  <REMARK>
 VINA RESULT:      -8.1      3.214      7.877
  Name = 
  5 active torsions:
  status: ('A' for Active; 'I' for Inactive)
    1  A    between atoms: C_1  and  C_15
    2  A    between atoms: C_1  and  C_18
    3  A    between atoms: N_2  and  C_15
    4  A    between atoms: C_9  and  C_15
    5  A    between atoms: C_9  and  C_27
                            x       y       z     vdW  Elec       q    Type
                         _______ _______ _______ _____ _____    ______ ____

>  <TORSDO>
F 5

$$$$
=
 OpenBabel11052423153D

 27 30  0  0  1  0  0  0  0  0999 V2000
  161.7290  206.5120  149.6620 C   0  0  1  0  0  3  0  0  0  0  0  0
  161.7400  207.6440  150.5980 N   0  0  0  0  0  0  0  0  0  0  0  0
  161.2630  206.2560  152.4210 O   0  0  0  0  0  0  0  0  0  0  0  0
  160.8270  211.1090  153.0470 C   0  0  0  0  0  2  0  0  0  0  0  0
  160.4180  210.7930  154.4930 C   0  0  0  0  0  2  0  0  0  0  0  0
  162.1730  208.9760  150.1620 C   0  0  0  0  0  2  0  0  0  0  0  0
  161.1520  208.3750  154.3090 C   0  0  1  0  0  3  0  0  0  0  0  0
  160.1350  207.6120  154.8530 F   0  0  0  0  0  0  0  0  0  0  0  0
  160.8810  208.5930  152.8090 C   0  0  1  0  0  3  0  0  0  0  0  0
  161.2850  209.6870  155.0980 C   0  0  0  0  0  2  0  0  0  0  0  0
  161.4800  209.9220  152.3310 C   0  0  1  0  0  3  0  0  0  0  0  0
  161.3400  207.4290  151.9650 C   0  0  0  0  0  0  0  0  0  0  0  0
  161.3450  210.0670  150.8250 C   0  0  0  0  0  2  0  0  0  0  0  0
  160.6550  205.4640  149.9850 C   0  0  0  0  0  2  0  0  0  0  0  0
  160.8350  200.9380  149.1240 C   0  0  0  0  0  3  0  0  0  0  0  0
  160.9250  200.8900  150.4600 C   0  0  0  0  0  3  0  0  0  0  0  0
  161.1650  204.0340  149.8890 C   0  0  1  0  0  3  0  0  0  0  0  0
  161.3400  202.0900  148.3060 C   0  0  0  0  0  2  0  0  0  0  0  0
  161.5390  201.9820  151.2850 C   0  0  0  0  0  2  0  0  0  0  0  0
  160.7550  203.2810  151.1470 C   0  0  0  0  0  2  0  0  0  0  0  0
  160.5890  203.3720  148.6410 C   0  0  0  0  0  2  0  0  0  0  0  0
  161.8480  206.9020  148.1800 C   0  0  0  0  0  2  0  0  0  0  0  0
  162.1780  205.8220  144.9880 O   0  0  0  0  0  0  0  0  0  0  0  0
  160.4230  206.1980  146.2990 C   0  0  0  0  0  3  0  0  0  0  0  0
  160.8540  206.2080  145.0530 C   0  0  0  0  0  3  0  0  0  0  0  0
  162.6940  205.5300  146.2740 C   0  0  0  0  0  2  0  0  0  0  0  0
  161.5180  205.7680  147.2180 C   0  0  1  0  0  3  0  0  0  0  0  0
  1 22  1  6  0  0  0
  1 14  1  0  0  0  0
  1  2  1  0  0  0  0
  2 12  1  0  0  0  0
  4  5  1  0  0  0  0
  5 10  1  0  0  0  0
  6  2  1  0  0  0  0
  6 13  1  0  0  0  0
  7  8  1  1  0  0  0
  7 10  1  0  0  0  0
  9 12  1  6  0  0  0
  9  7  1  0  0  0  0
 11 13  1  6  0  0  0
 11  9  1  0  0  0  0
 11  4  1  0  0  0  0
 12  3  2  0  0  0  0
 15 16  2  0  0  0  0
 16 19  1  0  0  0  0
 17 14  1  1  0  0  0
 17 20  1  0  0  0  0
 18 21  1  0  0  0  0
 18 15  1  0  0  0  0
 20 19  1  0  0  0  0
 21 17  1  0  0  0  0
 23 25  1  0  0  0  0
 23 26  1  0  0  0  0
 24 27  1  0  0  0  0
 25 24  2  0  0  0  0
 26 27  1  0  0  0  0
 27 22  1  1  0  0  0
M  END
>  <MODEL>
5

>  <REMARK>
 VINA RESULT:      -8.0      1.884      4.190
  Name = 
  5 active torsions:
  status: ('A' for Active; 'I' for Inactive)
    1  A    between atoms: C_1  and  C_15
    2  A    between atoms: C_1  and  C_18
    3  A    between atoms: N_2  and  C_15
    4  A    between atoms: C_9  and  C_15
    5  A    between atoms: C_9  and  C_27
                            x       y       z     vdW  Elec       q    Type
                         _______ _______ _______ _____ _____    ______ ____

>  <TORSDO>
F 5

$$$$
=
 OpenBabel11052423153D

 27 30  0  0  1  0  0  0  0  0999 V2000
  161.3220  207.1810  151.2760 C   0  0  1  0  0  3  0  0  0  0  0  0
  161.0460  205.9890  150.4630 N   0  0  0  0  0  0  0  0  0  0  0  0
  161.2530  204.5700  152.3140 O   0  0  0  0  0  0  0  0  0  0  0  0
  161.2070  202.5330  147.8430 C   0  0  0  0  0  2  0  0  0  0  0  0
  161.3450  201.1810  148.5590 C   0  0  0  0  0  2  0  0  0  0  0  0
  160.6120  206.1150  149.0680 C   0  0  0  0  0  2  0  0  0  0  0  0
  160.8370  202.1850  150.8290 C   0  0  1  0  0  3  0  0  0  0  0  0
  161.7790  201.6760  151.7050 F   0  0  0  0  0  0  0  0  0  0  0  0
  161.3820  203.4730  150.1840 C   0  0  1  0  0  3  0  0  0  0  0  0
  160.4570  201.1060  149.8030 C   0  0  0  0  0  2  0  0  0  0  0  0
  160.7950  203.6730  148.7810 C   0  0  1  0  0  3  0  0  0  0  0  0
  161.1830  204.6850  151.0600 C   0  0  0  0  0  0  0  0  0  0  0  0
  161.2130  205.0150  148.2060 C   0  0  0  0  0  2  0  0  0  0  0  0
  161.6340  206.8590  152.7440 C   0  0  0  0  0  2  0  0  0  0  0  0
  160.2690  209.8700  155.9580 C   0  0  0  0  0  3  0  0  0  0  0  0
  160.0770  208.7400  156.6500 C   0  0  0  0  0  3  0  0  0  0  0  0
  160.7560  207.6220  153.7260 C   0  0  1  0  0  3  0  0  0  0  0  0
  160.1610  209.9490  154.4640 C   0  0  0  0  0  2  0  0  0  0  0  0
  159.7330  207.4280  156.0090 C   0  0  0  0  0  2  0  0  0  0  0  0
  160.8530  206.9550  155.0910 C   0  0  0  0  0  2  0  0  0  0  0  0
  161.2120  209.0760  153.7900 C   0  0  0  0  0  2  0  0  0  0  0  0
  162.2500  208.2100  150.6130 C   0  0  0  0  0  2  0  0  0  0  0  0
  162.5570  210.6410  148.2760 O   0  0  0  0  0  0  0  0  0  0  0  0
  161.9530  210.6470  150.4140 C   0  0  0  0  0  3  0  0  0  0  0  0
  162.5350  211.3470  149.4620 C   0  0  0  0  0  3  0  0  0  0  0  0
  161.9520  209.3690  148.4220 C   0  0  0  0  0  2  0  0  0  0  0  0
  161.5110  209.3240  149.8830 C   0  0  1  0  0  3  0  0  0  0  0  0
  1 22  1  6  0  0  0
  1 14  1  0  0  0  0
  2 12  1  0  0  0  0
  2  1  1  0  0  0  0
  4  5  1  0  0  0  0
  5 10  1  0  0  0  0
  6  2  1  0  0  0  0
  7  8  1  1  0  0  0
  9  7  1  0  0  0  0
  9 12  1  1  0  0  0
 10  7  1  0  0  0  0
 11  4  1  6  0  0  0
 11  9  1  0  0  0  0
 12  3  2  0  0  0  0
 13 11  1  0  0  0  0
 13  6  1  0  0  0  0
 15 16  2  0  0  0  0
 17 14  1  6  0  0  0
 17 21  1  0  0  0  0
 17 20  1  0  0  0  0
 18 15  1  0  0  0  0
 19 16  1  0  0  0  0
 20 19  1  0  0  0  0
 21 18  1  0  0  0  0
 23 26  1  0  0  0  0
 23 25  1  0  0  0  0
 25 24  2  0  0  0  0
 26 27  1  0  0  0  0
 27 24  1  0  0  0  0
 27 22  1  1  0  0  0
M  END
>  <MODEL>
6

>  <REMARK>
 VINA RESULT:      -7.9      2.607      7.883
  Name = 
  5 active torsions:
  status: ('A' for Active; 'I' for Inactive)
    1  A    between atoms: C_1  and  C_15
    2  A    between atoms: C_1  and  C_18
    3  A    between atoms: N_2  and  C_15
    4  A    between atoms: C_9  and  C_15
    5  A    between atoms: C_9  and  C_27
                            x       y       z     vdW  Elec       q    Type
                         _______ _______ _______ _____ _____    ______ ____

>  <TORSDO>
F 5

$$$$
=
 OpenBabel11052423153D

 27 30  0  0  1  0  0  0  0  0999 V2000
  161.3990  205.9640  150.2300 C   0  0  1  0  0  3  0  0  0  0  0  0
  161.0770  206.5440  151.5410 N   0  0  0  0  0  0  0  0  0  0  0  0
  161.2060  208.7270  150.7060 O   0  0  0  0  0  0  0  0  0  0  0  0
  161.1060  208.1280  155.5810 C   0  0  0  0  0  2  0  0  0  0  0  0
  161.1780  209.6600  155.6780 C   0  0  0  0  0  2  0  0  0  0  0  0
  160.6610  205.6910  152.6580 C   0  0  0  0  0  2  0  0  0  0  0  0
  160.6970  209.9680  153.2090 C   0  0  1  0  0  3  0  0  0  0  0  0
  161.6090  210.8980  152.7440 F   0  0  0  0  0  0  0  0  0  0  0  0
  161.3030  208.5560  153.0970 C   0  0  1  0  0  3  0  0  0  0  0  0
  160.2780  210.3350  154.6410 C   0  0  0  0  0  2  0  0  0  0  0  0
  160.7370  207.6290  154.1800 C   0  0  1  0  0  3  0  0  0  0  0  0
  161.1510  207.9720  151.7150 C   0  0  0  0  0  0  0  0  0  0  0  0
  161.2190  206.2030  153.9770 C   0  0  0  0  0  2  0  0  0  0  0  0
  161.9560  204.5360  150.3150 C   0  0  0  0  0  2  0  0  0  0  0  0
  160.5540  200.5780  148.4090 C   0  0  0  0  0  3  0  0  0  0  0  0
  161.0490  201.1640  147.3100 C   0  0  0  0  0  3  0  0  0  0  0  0
  161.1920  203.5420  149.4530 C   0  0  1  0  0  3  0  0  0  0  0  0
  159.9750  201.3460  149.5610 C   0  0  0  0  0  2  0  0  0  0  0  0
  161.0770  202.6510  147.1100 C   0  0  0  0  0  2  0  0  0  0  0  0
  161.9560  203.3280  148.1540 C   0  0  0  0  0  2  0  0  0  0  0  0
  161.0270  202.2310  150.2160 C   0  0  0  0  0  2  0  0  0  0  0  0
  160.3350  206.1960  149.1460 C   0  0  0  0  0  2  0  0  0  0  0  0
  161.6100  205.9320  146.0200 O   0  0  0  0  0  0  0  0  0  0  0  0
  162.3310  206.8990  147.8860 C   0  0  0  0  0  3  0  0  0  0  0  0
  162.7060  206.2960  146.7760 C   0  0  0  0  0  3  0  0  0  0  0  0
  160.3990  206.3070  146.6520 C   0  0  0  0  0  2  0  0  0  0  0  0
  160.8420  206.9860  147.9460 C   0  0  1  0  0  3  0  0  0  0  0  0
  1 22  1  6  0  0  0
  1 14  1  0  0  0  0
  1  2  1  0  0  0  0
  2 12  1  0  0  0  0
  2  6  1  0  0  0  0
  3 12  2  0  0  0  0
  4  5  1  0  0  0  0
  6 13  1  0  0  0  0
  7  8  1  1  0  0  0
  7 10  1  0  0  0  0
  9 12  1  6  0  0  0
  9  7  1  0  0  0  0
  9 11  1  0  0  0  0
 10  5  1  0  0  0  0
 11 13  1  6  0  0  0
 11  4  1  0  0  0  0
 15 18  1  0  0  0  0
 16 15  2  0  0  0  0
 17 21  1  0  0  0  0
 17 14  1  1  0  0  0
 18 21  1  0  0  0  0
 19 16  1  0  0  0  0
 19 20  1  0  0  0  0
 20 17  1  0  0  0  0
 23 26  1  0  0  0  0
 23 25  1  0  0  0  0
 24 27  1  0  0  0  0
 25 24  2  0  0  0  0
 26 27  1  0  0  0  0
 27 22  1  1  0  0  0
M  END
>  <MODEL>
7

>  <REMARK>
 VINA RESULT:      -7.8      1.602      3.359
  Name = 
  5 active torsions:
  status: ('A' for Active; 'I' for Inactive)
    1  A    between atoms: C_1  and  C_15
    2  A    between atoms: C_1  and  C_18
    3  A    between atoms: N_2  and  C_15
    4  A    between atoms: C_9  and  C_15
    5  A    between atoms: C_9  and  C_27
                            x       y       z     vdW  Elec       q    Type
                         _______ _______ _______ _____ _____    ______ ____

>  <TORSDO>
F 5

$$$$
=
 OpenBabel11052423153D

 27 30  0  0  1  0  0  0  0  0999 V2000
  161.3150  207.8030  152.7350 C   0  0  1  0  0  3  0  0  0  0  0  0
  161.1160  206.9630  151.5470 N   0  0  0  0  0  0  0  0  0  0  0  0
  161.1120  205.0010  152.8240 O   0  0  0  0  0  0  0  0  0  0  0  0
  161.5240  204.5740  147.9470 C   0  0  0  0  0  2  0  0  0  0  0  0
  161.5720  203.0550  148.1770 C   0  0  0  0  0  2  0  0  0  0  0  0
  160.8340  207.5650  150.2400 C   0  0  0  0  0  2  0  0  0  0  0  0
  160.8350  203.2670  150.5910 C   0  0  1  0  0  3  0  0  0  0  0  0
  161.6740  202.4540  151.3320 F   0  0  0  0  0  0  0  0  0  0  0  0
  161.4570  204.6710  150.4720 C   0  0  1  0  0  3  0  0  0  0  0  0
  160.5570  202.6100  149.2300 C   0  0  0  0  0  2  0  0  0  0  0  0
  161.0250  205.3530  149.1680 C   0  0  1  0  0  3  0  0  0  0  0  0
  161.1770  205.5300  151.6800 C   0  0  0  0  0  0  0  0  0  0  0  0
  161.5140  206.7900  149.1210 C   0  0  0  0  0  2  0  0  0  0  0  0
  161.5650  209.2800  152.4040 C   0  0  0  0  0  2  0  0  0  0  0  0
  159.0390  213.0410  153.2640 C   0  0  0  0  0  3  0  0  0  0  0  0
  159.6830  212.9620  154.4350 C   0  0  0  0  0  3  0  0  0  0  0  0
  160.5360  210.2160  153.0210 C   0  0  1  0  0  3  0  0  0  0  0  0
  158.7180  211.8430  152.4190 C   0  0  0  0  0  2  0  0  0  0  0  0
  160.1550  211.6690  155.0320 C   0  0  0  0  0  2  0  0  0  0  0  0
  161.1990  211.0030  154.1440 C   0  0  0  0  0  2  0  0  0  0  0  0
  159.9880  211.1490  151.9450 C   0  0  0  0  0  2  0  0  0  0  0  0
  160.3240  207.5400  153.8800 C   0  0  0  0  0  2  0  0  0  0  0  0
  160.3340  207.9010  157.2470 O   0  0  0  0  0  0  0  0  0  0  0  0
  161.8910  208.1500  155.6800 C   0  0  0  0  0  3  0  0  0  0  0  0
  161.4740  208.5760  156.8560 C   0  0  0  0  0  3  0  0  0  0  0  0
  159.9390  206.9500  156.2760 C   0  0  0  0  0  2  0  0  0  0  0  0
  160.9870  207.0770  155.1720 C   0  0  1  0  0  3  0  0  0  0  0  0
  1 14  1  6  0  0  0
  1 22  1  0  0  0  0
  2 12  1  0  0  0  0
  2  1  1  0  0  0  0
  4  5  1  0  0  0  0
  5 10  1  0  0  0  0
  6  2  1  0  0  0  0
  7  8  1  1  0  0  0
  9  7  1  0  0  0  0
  9 12  1  1  0  0  0
 10  7  1  0  0  0  0
 11  4  1  6  0  0  0
 11  9  1  0  0  0  0
 12  3  2  0  0  0  0
 13 11  1  0  0  0  0
 13  6  1  0  0  0  0
 15 16  2  0  0  0  0
 16 19  1  0  0  0  0
 17 14  1  6  0  0  0
 17 20  1  0  0  0  0
 18 15  1  0  0  0  0
 20 19  1  0  0  0  0
 21 18  1  0  0  0  0
 21 17  1  0  0  0  0
 24 25  2  0  0  0  0
 25 23  1  0  0  0  0
 26 23  1  0  0  0  0
 27 22  1  6  0  0  0
 27 24  1  0  0  0  0
 27 26  1  0  0  0  0
M  END
>  <MODEL>
8

>  <REMARK>
 VINA RESULT:      -7.6      2.697      7.831
  Name = 
  5 active torsions:
  status: ('A' for Active; 'I' for Inactive)
    1  A    between atoms: C_1  and  C_15
    2  A    between atoms: C_1  and  C_18
    3  A    between atoms: N_2  and  C_15
    4  A    between atoms: C_9  and  C_15
    5  A    between atoms: C_9  and  C_27
                            x       y       z     vdW  Elec       q    Type
                         _______ _______ _______ _____ _____    ______ ____

>  <TORSDO>
F 5

$$$$
=
 OpenBabel11052423153D

 27 30  0  0  1  0  0  0  0  0999 V2000
  161.6380  208.0770  151.9020 C   0  0  1  0  0  3  0  0  0  0  0  0
  161.2810  207.0090  150.9580 N   0  0  0  0  0  0  0  0  0  0  0  0
  161.4090  205.3710  152.6250 O   0  0  0  0  0  0  0  0  0  0  0  0
  161.2050  203.8850  147.9470 C   0  0  0  0  0  2  0  0  0  0  0  0
  161.2610  202.4510  148.4960 C   0  0  0  0  0  2  0  0  0  0  0  0
  160.8470  207.3260  149.5940 C   0  0  0  0  0  2  0  0  0  0  0  0
  160.8330  203.2090  150.8750 C   0  0  1  0  0  3  0  0  0  0  0  0
  161.7470  202.5420  151.6720 F   0  0  0  0  0  0  0  0  0  0  0  0
  161.4540  204.5280  150.3790 C   0  0  1  0  0  3  0  0  0  0  0  0
  160.3790  202.2850  149.7340 C   0  0  0  0  0  2  0  0  0  0  0  0
  160.8720  204.9290  149.0180 C   0  0  1  0  0  3  0  0  0  0  0  0
  161.3390  205.6370  151.3940 C   0  0  0  0  0  0  0  0  0  0  0  0
  161.3710  206.3010  148.5990 C   0  0  0  0  0  2  0  0  0  0  0  0
  162.4470  209.2130  151.2610 C   0  0  0  0  0  2  0  0  0  0  0  0
  161.1530  212.9760  148.9320 C   0  0  0  0  0  3  0  0  0  0  0  0
  160.5740  213.2600  150.1060 C   0  0  0  0  0  3  0  0  0  0  0  0
  161.5770  210.2530  150.5690 C   0  0  1  0  0  3  0  0  0  0  0  0
  161.3780  211.5760  148.4420 C   0  0  0  0  0  2  0  0  0  0  0  0
  160.0860  212.2100  151.0600 C   0  0  0  0  0  2  0  0  0  0  0  0
  161.2370  211.3510  151.5670 C   0  0  0  0  0  2  0  0  0  0  0  0
  162.3240  210.8170  149.3640 C   0  0  0  0  0  2  0  0  0  0  0  0
  160.4970  208.5200  152.8310 C   0  0  0  0  0  2  0  0  0  0  0  0
  159.7190  208.2460  156.1150 O   0  0  0  0  0  0  0  0  0  0  0  0
  160.1170  209.9770  154.7800 C   0  0  0  0  0  3  0  0  0  0  0  0
  159.4430  209.5700  155.8370 C   0  0  0  0  0  3  0  0  0  0  0  0
  160.6410  207.7050  155.1870 C   0  0  0  0  0  2  0  0  0  0  0  0
  160.9540  208.8640  154.2440 C   0  0  1  0  0  3  0  0  0  0  0  0
  1 14  1  6  0  0  0
  1 22  1  0  0  0  0
  2 12  1  0  0  0  0
  2  1  1  0  0  0  0
  4  5  1  0  0  0  0
  5 10  1  0  0  0  0
  6  2  1  0  0  0  0
  7  8  1  6  0  0  0
  9  7  1  0  0  0  0
  9 12  1  1  0  0  0
 10  7  1  0  0  0  0
 11  4  1  6  0  0  0
 11  9  1  0  0  0  0
 12  3  2  0  0  0  0
 13 11  1  0  0  0  0
 13  6  1  0  0  0  0
 15 16  2  0  0  0  0
 16 19  1  0  0  0  0
 17 14  1  1  0  0  0
 17 20  1  0  0  0  0
 18 15  1  0  0  0  0
 18 21  1  0  0  0  0
 19 20  1  0  0  0  0
 21 17  1  0  0  0  0
 24 25  2  0  0  0  0
 25 23  1  0  0  0  0
 26 23  1  0  0  0  0
 27 22  1  6  0  0  0
 27 24  1  0  0  0  0
 27 26  1  0  0  0  0
M  END
>  <MODEL>
9

>  <REMARK>
 VINA RESULT:      -7.6      2.999      7.147
  Name = 
  5 active torsions:
  status: ('A' for Active; 'I' for Inactive)
    1  A    between atoms: C_1  and  C_15
    2  A    between atoms: C_1  and  C_18
    3  A    between atoms: N_2  and  C_15
    4  A    between atoms: C_9  and  C_15
    5  A    between atoms: C_9  and  C_27
                            x       y       z     vdW  Elec       q    Type
                         _______ _______ _______ _____ _____    ______ ____

>  <TORSDO>
F 5

$$$$
