=
 OpenBabel11062409163D

 37 40  0  0  1  0  0  0  0  0999 V2000
  161.1200  211.4880  152.1010 C   0  0  0  0  0  2  0  0  0  0  0  0
  161.7940  206.9490  152.6140 C   0  0  0  0  0  3  0  0  0  0  0  0
  160.3190  211.1410  153.3620 C   0  0  2  0  0  3  0  0  0  0  0  0
  161.8840  208.3040  152.9520 C   0  0  0  0  0  0  0  0  0  0  0  0
  162.9210  209.3800  151.9560 S   0  0  0  0  0  0  0  0  0  0  0  0
  161.1640  208.8020  154.0520 C   0  0  0  0  0  0  0  0  0  0  0  0
  160.2740  206.5810  154.4590 C   0  0  0  0  0  3  0  0  0  0  0  0
  161.4890  210.2670  151.2500 C   0  0  2  0  0  3  0  0  0  0  0  0
  160.3510  207.9350  154.7920 C   0  0  0  0  0  3  0  0  0  0  0  0
  161.1580  210.2810  154.3260 C   0  0  2  0  0  3  0  0  0  0  0  0
  160.9960  206.0810  153.3640 C   0  0  0  0  0  0  0  0  0  0  0  0
  157.9130  210.8080  154.0480 C   0  0  0  0  0  2  0  0  0  0  0  0
  158.9620  210.5130  152.9940 C   0  0  1  0  0  3  0  0  0  0  0  0
  157.8380  211.5210  152.7150 C   0  0  2  0  0  3  0  0  0  0  0  0
  158.2140  212.9840  152.9110 C   0  0  0  0  0  2  0  0  0  0  0  0
  157.6120  213.7730  151.8980 O   0  0  0  0  0  0  0  0  0  0  0  0
  157.1570  213.3710  149.5190 C   0  0  0  0  0  3  0  0  0  0  0  0
  158.0120  213.6850  150.5660 C   0  0  0  0  0  0  0  0  0  0  0  0
  159.5760  213.9410  149.9800 S   0  0  0  0  0  0  0  0  0  0  0  0
  160.1370  213.7090  147.2340 C   0  0  0  0  0  1  0  0  0  0  0  0
  157.1860  213.0670  147.0920 O   0  0  0  0  0  1  0  0  0  0  0  0
  159.1810  213.6520  148.3730 C   0  0  0  0  0  0  0  0  0  0  0  0
  157.8270  213.3550  148.2900 C   0  0  0  0  0  0  0  0  0  0  0  0
  160.9380  204.7330  153.0020 O   0  0  0  0  0  0  0  0  0  0  0  0
  161.1060  204.2900  151.6610 C   0  0  0  0  0  1  0  0  0  0  0  0
  161.7510  210.6560  149.8670 N   0  0  0  0  0  2  0  0  0  0  0  0
  162.1570  209.5620  149.1760 O   0  0  0  0  0  1  0  0  0  0  0  0
  161.2410  210.7200  155.7940 C   0  0  1  0  0  3  0  0  0  0  0  0
  162.5750  210.3460  156.3710 C   0  0  0  0  0  0  0  0  0  0  0  0
  162.6680  209.3550  157.1430 O   0  0  0  0  0  0  0  0  0  0  0  0
  163.7200  211.0940  156.0870 O   0  0  0  0  0  0  0  0  0  0  0  0
  164.5430  211.6390  157.1070 C   0  0  0  0  0  1  0  0  0  0  0  0
  160.9600  212.2010  156.0140 C   0  0  0  0  0  2  0  0  0  0  0  0
  160.0750  212.3990  157.2260 C   0  0  0  0  0  2  0  0  0  0  0  0
  158.8710  211.4880  157.1240 C   0  0  0  0  0  2  0  0  0  0  0  0
  157.7910  213.6360  156.5510 C   0  0  0  0  0  1  0  0  0  0  0  0
  157.6060  212.3090  157.2560 C   0  0  0  0  0  2  0  0  0  0  0  0
  2  4  2  0  0  0  0
  2 11  1  0  0  0  0
  3  1  1  6  0  0  0
  3 10  1  0  0  0  0
  4  6  1  0  0  0  0
  5  4  1  0  0  0  0
  6 10  1  0  0  0  0
  6  9  2  0  0  0  0
  7  9  1  0  0  0  0
  8 26  1  6  0  0  0
  8  5  1  0  0  0  0
  8  1  1  0  0  0  0
 10 28  1  1  0  0  0
 11  7  2  0  0  0  0
 13  3  1  0  0  0  0
 13 12  1  1  0  0  0
 14 15  1  1  0  0  0
 14 13  1  0  0  0  0
 14 12  1  0  0  0  0
 16 15  1  0  0  0  0
 17 18  2  0  0  0  0
 18 16  1  0  0  0  0
 19 18  1  0  0  0  0
 20 22  1  0  0  0  0
 21 23  1  0  0  0  0
 22 19  1  0  0  0  0
 23 22  2  0  0  0  0
 23 17  1  0  0  0  0
 24 11  1  0  0  0  0
 25 24  1  0  0  0  0
 27 26  1  0  0  0  0
 28 33  1  6  0  0  0
 28 29  1  0  0  0  0
 29 30  2  0  0  0  0
 31 29  1  0  0  0  0
 31 32  1  0  0  0  0
 33 34  1  0  0  0  0
 35 34  1  0  0  0  0
 35 37  1  0  0  0  0
 36 37  1  0  0  0  0
M  END
>  <MODEL>
1

>  <REMARK>
 VINA RESULT:      -3.0      0.000      0.000
  Name = 
  13 active torsions:
  status: ('A' for Active; 'I' for Inactive)
    1  A    between atoms: C_1  and  O_12
    2  A    between atoms: C_1  and  C_36
    3  A    between atoms: O_3  and  C_32
    4  A    between atoms: C_6  and  O_31
    5  A    between atoms: C_10  and  C_14
    6  A    between atoms: C_17  and  C_26
    7  A    between atoms: C_17  and  C_33
    8  A    between atoms: N_22  and  C_24
    9  A    between atoms: C_26  and  C_34
   10  A    between atoms: C_27  and  C_37
   11  A    between atoms: C_29  and  C_36
   12  A    between atoms: O_31  and  C_37
   13  A    between atoms: C_33  and  C_36
                            x       y       z     vdW  Elec       q    Type
                         _______ _______ _______ _____ _____    ______ ____

>  <TORSDO>
F 13

$$$$
=
 OpenBabel11062409163D

 37 40  0  0  1  0  0  0  0  0999 V2000
  158.0710  211.0930  153.4530 C   0  0  0  0  0  2  0  0  0  0  0  0
  161.5470  210.5170  156.4370 C   0  0  0  0  0  3  0  0  0  0  0  0
  159.3150  211.0430  152.5580 C   0  0  2  0  0  3  0  0  0  0  0  0
  160.6860  210.1690  155.3910 C   0  0  0  0  0  0  0  0  0  0  0  0
  158.9620  209.8310  155.7600 S   0  0  0  0  0  0  0  0  0  0  0  0
  161.1760  210.0950  154.0740 C   0  0  0  0  0  0  0  0  0  0  0  0
  163.3810  210.7200  154.8740 C   0  0  0  0  0  3  0  0  0  0  0  0
  158.3860  211.3530  154.9310 C   0  0  2  0  0  3  0  0  0  0  0  0
  162.5230  210.3850  153.8240 C   0  0  0  0  0  3  0  0  0  0  0  0
  160.2180  209.8550  152.9400 C   0  0  2  0  0  3  0  0  0  0  0  0
  162.8950  210.7890  156.1890 C   0  0  0  0  0  0  0  0  0  0  0  0
  160.6570  212.6950  151.2010 C   0  0  0  0  0  2  0  0  0  0  0  0
  160.0440  212.3990  152.5560 C   0  0  1  0  0  3  0  0  0  0  0  0
  159.4280  213.4630  151.6360 C   0  0  2  0  0  3  0  0  0  0  0  0
  158.2330  212.9970  150.8150 C   0  0  0  0  0  2  0  0  0  0  0  0
  158.0090  213.8970  149.7420 O   0  0  0  0  0  0  0  0  0  0  0  0
  159.7870  214.0120  148.0520 C   0  0  0  0  0  3  0  0  0  0  0  0
  158.5110  213.6550  148.4640 C   0  0  0  0  0  0  0  0  0  0  0  0
  157.6850  212.8950  147.2020 S   0  0  0  0  0  0  0  0  0  0  0  0
  158.9180  212.5150  144.7030 C   0  0  0  0  0  1  0  0  0  0  0  0
  161.2290  213.8960  146.0790 O   0  0  0  0  0  1  0  0  0  0  0  0
  158.9520  213.0130  146.1050 C   0  0  0  0  0  0  0  0  0  0  0  0
  160.0230  213.6460  146.7220 C   0  0  0  0  0  0  0  0  0  0  0  0
  163.7260  211.1250  157.2610 O   0  0  0  0  0  0  0  0  0  0  0  0
  164.9440  211.8390  157.0940 C   0  0  0  0  0  1  0  0  0  0  0  0
  157.2250  211.9110  155.6200 N   0  0  0  0  0  2  0  0  0  0  0  0
  157.6540  212.6030  156.7060 O   0  0  0  0  0  1  0  0  0  0  0  0
  160.6860  208.9170  151.8180 C   0  0  1  0  0  3  0  0  0  0  0  0
  161.8200  209.5420  151.0600 C   0  0  0  0  0  0  0  0  0  0  0  0
  162.8970  209.8110  151.6550 O   0  0  0  0  0  0  0  0  0  0  0  0
  161.6970  209.8560  149.7050 O   0  0  0  0  0  0  0  0  0  0  0  0
  161.9380  208.9040  148.6800 C   0  0  0  0  0  1  0  0  0  0  0  0
  161.0650  207.5220  152.2970 C   0  0  0  0  0  2  0  0  0  0  0  0
  161.0300  206.5380  151.1460 C   0  0  0  0  0  2  0  0  0  0  0  0
  161.7080  205.2510  151.5630 C   0  0  0  0  0  2  0  0  0  0  0  0
  161.2990  202.8270  151.8210 C   0  0  0  0  0  1  0  0  0  0  0  0
  160.9040  204.0730  151.0570 C   0  0  0  0  0  2  0  0  0  0  0  0
  1  8  1  0  0  0  0
  3 10  1  0  0  0  0
  3  1  1  1  0  0  0
  4  5  1  0  0  0  0
  4  2  2  0  0  0  0
  6  4  1  0  0  0  0
  7 11  2  0  0  0  0
  8 26  1  1  0  0  0
  8  5  1  0  0  0  0
  9  6  2  0  0  0  0
  9  7  1  0  0  0  0
 10 28  1  6  0  0  0
 10  6  1  0  0  0  0
 11  2  1  0  0  0  0
 11 24  1  0  0  0  0
 12 14  1  0  0  0  0
 13 12  1  6  0  0  0
 13  3  1  0  0  0  0
 14 15  1  6  0  0  0
 14 13  1  0  0  0  0
 16 15  1  0  0  0  0
 17 18  2  0  0  0  0
 18 16  1  0  0  0  0
 19 18  1  0  0  0  0
 20 22  1  0  0  0  0
 21 23  1  0  0  0  0
 22 23  2  0  0  0  0
 22 19  1  0  0  0  0
 23 17  1  0  0  0  0
 25 24  1  0  0  0  0
 26 27  1  0  0  0  0
 28 33  1  1  0  0  0
 29 30  2  0  0  0  0
 29 28  1  0  0  0  0
 31 29  1  0  0  0  0
 32 31  1  0  0  0  0
 34 35  1  0  0  0  0
 34 33  1  0  0  0  0
 37 35  1  0  0  0  0
 37 36  1  0  0  0  0
M  END
>  <MODEL>
2

>  <REMARK>
 VINA RESULT:      -2.9      2.405      5.848
  Name = 
  13 active torsions:
  status: ('A' for Active; 'I' for Inactive)
    1  A    between atoms: C_1  and  O_12
    2  A    between atoms: C_1  and  C_36
    3  A    between atoms: O_3  and  C_32
    4  A    between atoms: C_6  and  O_31
    5  A    between atoms: C_10  and  C_14
    6  A    between atoms: C_17  and  C_26
    7  A    between atoms: C_17  and  C_33
    8  A    between atoms: N_22  and  C_24
    9  A    between atoms: C_26  and  C_34
   10  A    between atoms: C_27  and  C_37
   11  A    between atoms: C_29  and  C_36
   12  A    between atoms: O_31  and  C_37
   13  A    between atoms: C_33  and  C_36
                            x       y       z     vdW  Elec       q    Type
                         _______ _______ _______ _____ _____    ______ ____

>  <TORSDO>
F 13

$$$$
=
 OpenBabel11062409163D

 37 40  0  0  1  0  0  0  0  0999 V2000
  161.9460  211.0940  154.7260 C   0  0  0  0  0  2  0  0  0  0  0  0
  157.8050  211.8480  156.6260 C   0  0  0  0  0  3  0  0  0  0  0  0
  160.9600  210.6860  153.6240 C   0  0  2  0  0  3  0  0  0  0  0  0
  158.8540  212.0430  155.7200 C   0  0  0  0  0  0  0  0  0  0  0  0
  160.3900  212.7600  156.3120 S   0  0  0  0  0  0  0  0  0  0  0  0
  158.6950  211.6730  154.3720 C   0  0  0  0  0  0  0  0  0  0  0  0
  156.4400  210.9180  154.8590 C   0  0  0  0  0  3  0  0  0  0  0  0
  161.3080  211.1930  156.1170 C   0  0  2  0  0  3  0  0  0  0  0  0
  157.4890  211.0990  153.9540 C   0  0  0  0  0  3  0  0  0  0  0  0
  159.8700  211.7590  153.4370 C   0  0  2  0  0  3  0  0  0  0  0  0
  156.5950  211.2920  156.2020 C   0  0  0  0  0  0  0  0  0  0  0  0
  159.6760  208.7340  152.6670 C   0  0  0  0  0  2  0  0  0  0  0  0
  160.4000  209.2750  153.8850 C   0  0  1  0  0  3  0  0  0  0  0  0
  161.0290  208.1630  153.0330 C   0  0  2  0  0  3  0  0  0  0  0  0
  162.0590  208.6310  152.0130 C   0  0  0  0  0  2  0  0  0  0  0  0
  161.4600  208.7090  150.7300 O   0  0  0  0  0  0  0  0  0  0  0  0
  161.0100  206.3940  150.0430 C   0  0  0  0  0  3  0  0  0  0  0  0
  161.5410  207.6570  149.8180 C   0  0  0  0  0  0  0  0  0  0  0  0
  162.2800  207.7150  148.3000 S   0  0  0  0  0  0  0  0  0  0  0  0
  162.3090  205.4510  146.6320 C   0  0  0  0  0  1  0  0  0  0  0  0
  160.8000  204.2200  148.9430 O   0  0  0  0  0  1  0  0  0  0  0  0
  161.9300  206.1200  147.9070 C   0  0  0  0  0  0  0  0  0  0  0  0
  161.2370  205.5380  148.9590 C   0  0  0  0  0  0  0  0  0  0  0  0
  155.5680  211.1200  157.1340 O   0  0  0  0  0  0  0  0  0  0  0  0
  154.3640  210.4260  156.8310 C   0  0  0  0  0  1  0  0  0  0  0  0
  162.3180  211.0500  157.1630 N   0  0  0  0  0  2  0  0  0  0  0  0
  163.4640  210.5870  156.6030 O   0  0  0  0  0  1  0  0  0  0  0  0
  159.5950  212.2640  152.0140 C   0  0  1  0  0  3  0  0  0  0  0  0
  159.0070  213.6430  152.0590 C   0  0  0  0  0  0  0  0  0  0  0  0
  159.3770  214.4530  152.9510 O   0  0  0  0  0  0  0  0  0  0  0  0
  158.0330  214.0430  151.1420 O   0  0  0  0  0  0  0  0  0  0  0  0
  157.3050  213.1130  150.3540 C   0  0  0  0  0  1  0  0  0  0  0  0
  160.8130  212.2310  151.1000 C   0  0  0  0  0  2  0  0  0  0  0  0
  160.7810  213.3940  150.1310 C   0  0  0  0  0  2  0  0  0  0  0  0
  161.3170  212.9470  148.7890 C   0  0  0  0  0  2  0  0  0  0  0  0
  160.7410  212.7510  146.3930 C   0  0  0  0  0  1  0  0  0  0  0  0
  160.1790  212.8700  147.7940 C   0  0  0  0  0  2  0  0  0  0  0  0
  1  8  1  0  0  0  0
  3 13  1  0  0  0  0
  3  1  1  1  0  0  0
  4  5  1  0  0  0  0
  4  2  2  0  0  0  0
  6  4  1  0  0  0  0
  7 11  2  0  0  0  0
  8  5  1  0  0  0  0
  8 26  1  1  0  0  0
  9  6  2  0  0  0  0
  9  7  1  0  0  0  0
 10 28  1  6  0  0  0
 10  3  1  0  0  0  0
 10  6  1  0  0  0  0
 11  2  1  0  0  0  0
 11 24  1  0  0  0  0
 12 14  1  0  0  0  0
 13 12  1  6  0  0  0
 14 15  1  6  0  0  0
 14 13  1  0  0  0  0
 16 15  1  0  0  0  0
 18 17  2  0  0  0  0
 18 16  1  0  0  0  0
 19 18  1  0  0  0  0
 20 22  1  0  0  0  0
 21 23  1  0  0  0  0
 22 19  1  0  0  0  0
 22 23  2  0  0  0  0
 23 17  1  0  0  0  0
 25 24  1  0  0  0  0
 27 26  1  0  0  0  0
 28 33  1  6  0  0  0
 28 29  1  0  0  0  0
 29 30  2  0  0  0  0
 31 29  1  0  0  0  0
 32 31  1  0  0  0  0
 34 33  1  0  0  0  0
 35 34  1  0  0  0  0
 36 37  1  0  0  0  0
 37 35  1  0  0  0  0
M  END
>  <MODEL>
3

>  <REMARK>
 VINA RESULT:      -2.9      2.835      7.003
  Name = 
  13 active torsions:
  status: ('A' for Active; 'I' for Inactive)
    1  A    between atoms: C_1  and  O_12
    2  A    between atoms: C_1  and  C_36
    3  A    between atoms: O_3  and  C_32
    4  A    between atoms: C_6  and  O_31
    5  A    between atoms: C_10  and  C_14
    6  A    between atoms: C_17  and  C_26
    7  A    between atoms: C_17  and  C_33
    8  A    between atoms: N_22  and  C_24
    9  A    between atoms: C_26  and  C_34
   10  A    between atoms: C_27  and  C_37
   11  A    between atoms: C_29  and  C_36
   12  A    between atoms: O_31  and  C_37
   13  A    between atoms: C_33  and  C_36
                            x       y       z     vdW  Elec       q    Type
                         _______ _______ _______ _____ _____    ______ ____

>  <TORSDO>
F 13

$$$$
=
 OpenBabel11062409163D

 37 40  0  0  1  0  0  0  0  0999 V2000
  161.5740  211.4460  154.7670 C   0  0  0  0  0  2  0  0  0  0  0  0
  157.4270  211.7910  156.7670 C   0  0  0  0  0  3  0  0  0  0  0  0
  160.5990  211.0480  153.6530 C   0  0  2  0  0  3  0  0  0  0  0  0
  158.4440  212.1170  155.8630 C   0  0  0  0  0  0  0  0  0  0  0  0
  159.9400  212.8940  156.4830 S   0  0  0  0  0  0  0  0  0  0  0  0
  158.2870  211.8290  154.4950 C   0  0  0  0  0  0  0  0  0  0  0  0
  156.0960  210.8920  154.9580 C   0  0  0  0  0  3  0  0  0  0  0  0
  160.9560  211.4090  156.1700 C   0  0  2  0  0  3  0  0  0  0  0  0
  157.1140  211.2040  154.0540 C   0  0  0  0  0  3  0  0  0  0  0  0
  159.4380  212.0550  153.5530 C   0  0  2  0  0  3  0  0  0  0  0  0
  156.2490  211.1850  156.3220 C   0  0  0  0  0  0  0  0  0  0  0  0
  159.5720  209.0320  152.5320 C   0  0  0  0  0  2  0  0  0  0  0  0
  160.1380  209.5880  153.8240 C   0  0  1  0  0  3  0  0  0  0  0  0
  160.9310  208.5600  153.0030 C   0  0  2  0  0  3  0  0  0  0  0  0
  162.0040  209.1440  152.0940 C   0  0  0  0  0  2  0  0  0  0  0  0
  162.7340  208.0950  151.4800 O   0  0  0  0  0  0  0  0  0  0  0  0
  161.5660  207.1220  149.5510 C   0  0  0  0  0  3  0  0  0  0  0  0
  162.0950  207.0390  150.8320 C   0  0  0  0  0  0  0  0  0  0  0  0
  161.8490  205.4910  151.4630 S   0  0  0  0  0  0  0  0  0  0  0  0
  160.5300  203.5190  149.9530 C   0  0  0  0  0  1  0  0  0  0  0  0
  160.3890  205.7430  147.9090 O   0  0  0  0  0  1  0  0  0  0  0  0
  161.0590  204.9020  150.1020 C   0  0  0  0  0  0  0  0  0  0  0  0
  160.9850  205.9120  149.1520 C   0  0  0  0  0  0  0  0  0  0  0  0
  155.2520  210.8820  157.2530 O   0  0  0  0  0  0  0  0  0  0  0  0
  154.1230  210.0770  156.9360 C   0  0  0  0  0  1  0  0  0  0  0  0
  161.9910  211.2640  157.1900 N   0  0  0  0  0  2  0  0  0  0  0  0
  162.8150  210.2470  156.8350 O   0  0  0  0  0  1  0  0  0  0  0  0
  159.1050  212.6350  152.1710 C   0  0  1  0  0  3  0  0  0  0  0  0
  158.0370  213.6810  152.2930 C   0  0  0  0  0  0  0  0  0  0  0  0
  158.0250  214.4520  153.2890 O   0  0  0  0  0  0  0  0  0  0  0  0
  157.0320  213.8020  151.3300 O   0  0  0  0  0  0  0  0  0  0  0  0
  155.6620  213.9370  151.6760 C   0  0  0  0  0  1  0  0  0  0  0  0
  160.3130  213.1880  151.4260 C   0  0  0  0  0  2  0  0  0  0  0  0
  160.2180  212.8650  149.9490 C   0  0  0  0  0  2  0  0  0  0  0  0
  160.9250  213.9390  149.1530 C   0  0  0  0  0  2  0  0  0  0  0  0
  162.4920  212.3040  148.1620 C   0  0  0  0  0  1  0  0  0  0  0  0
  161.4390  213.3480  147.8570 C   0  0  0  0  0  2  0  0  0  0  0  0
  1  8  1  0  0  0  0
  3 13  1  0  0  0  0
  3  1  1  1  0  0  0
  4  5  1  0  0  0  0
  4  2  2  0  0  0  0
  6  4  1  0  0  0  0
  7 11  2  0  0  0  0
  8  5  1  0  0  0  0
  8 26  1  1  0  0  0
  9  6  2  0  0  0  0
  9  7  1  0  0  0  0
 10 28  1  6  0  0  0
 10  3  1  0  0  0  0
 10  6  1  0  0  0  0
 11  2  1  0  0  0  0
 11 24  1  0  0  0  0
 12 14  1  0  0  0  0
 13 12  1  6  0  0  0
 14 15  1  6  0  0  0
 14 13  1  0  0  0  0
 16 15  1  0  0  0  0
 17 18  2  0  0  0  0
 18 19  1  0  0  0  0
 18 16  1  0  0  0  0
 20 22  1  0  0  0  0
 21 23  1  0  0  0  0
 22 19  1  0  0  0  0
 23 17  1  0  0  0  0
 23 22  2  0  0  0  0
 25 24  1  0  0  0  0
 27 26  1  0  0  0  0
 28 33  1  1  0  0  0
 28 29  1  0  0  0  0
 29 30  2  0  0  0  0
 31 32  1  0  0  0  0
 31 29  1  0  0  0  0
 34 33  1  0  0  0  0
 35 34  1  0  0  0  0
 37 36  1  0  0  0  0
 37 35  1  0  0  0  0
M  END
>  <MODEL>
4

>  <REMARK>
 VINA RESULT:      -2.7      2.787      7.223
  Name = 
  13 active torsions:
  status: ('A' for Active; 'I' for Inactive)
    1  A    between atoms: C_1  and  O_12
    2  A    between atoms: C_1  and  C_36
    3  A    between atoms: O_3  and  C_32
    4  A    between atoms: C_6  and  O_31
    5  A    between atoms: C_10  and  C_14
    6  A    between atoms: C_17  and  C_26
    7  A    between atoms: C_17  and  C_33
    8  A    between atoms: N_22  and  C_24
    9  A    between atoms: C_26  and  C_34
   10  A    between atoms: C_27  and  C_37
   11  A    between atoms: C_29  and  C_36
   12  A    between atoms: O_31  and  C_37
   13  A    between atoms: C_33  and  C_36
                            x       y       z     vdW  Elec       q    Type
                         _______ _______ _______ _____ _____    ______ ____

>  <TORSDO>
F 13

$$$$
=
 OpenBabel11062409163D

 37 40  0  0  1  0  0  0  0  0999 V2000
  162.2130  209.6360  154.8240 C   0  0  0  0  0  2  0  0  0  0  0  0
  158.3020  211.8890  155.7960 C   0  0  0  0  0  3  0  0  0  0  0  0
  161.4620  209.6550  153.4870 C   0  0  2  0  0  3  0  0  0  0  0  0
  159.5420  211.6830  155.1830 C   0  0  0  0  0  0  0  0  0  0  0  0
  161.0290  211.7450  156.1880 S   0  0  0  0  0  0  0  0  0  0  0  0
  159.6080  211.4240  153.8020 C   0  0  0  0  0  0  0  0  0  0  0  0
  157.1900  211.5830  153.6700 C   0  0  0  0  0  3  0  0  0  0  0  0
  161.3250  209.9490  156.0340 C   0  0  2  0  0  3  0  0  0  0  0  0
  158.4250  211.3630  153.0560 C   0  0  0  0  0  3  0  0  0  0  0  0
  160.9290  211.0670  153.1770 C   0  0  2  0  0  3  0  0  0  0  0  0
  157.1230  211.8470  155.0470 C   0  0  0  0  0  0  0  0  0  0  0  0
  160.0680  208.1360  152.0300 C   0  0  0  0  0  2  0  0  0  0  0  0
  160.3770  208.5630  153.4520 C   0  0  1  0  0  3  0  0  0  0  0  0
  160.8490  207.2000  152.9270 C   0  0  2  0  0  3  0  0  0  0  0  0
  162.2960  207.1520  152.4560 C   0  0  0  0  0  2  0  0  0  0  0  0
  162.6820  205.8060  152.2290 O   0  0  0  0  0  0  0  0  0  0  0  0
  161.8390  205.3790  149.9620 C   0  0  0  0  0  3  0  0  0  0  0  0
  162.0360  205.0080  151.2850 C   0  0  0  0  0  0  0  0  0  0  0  0
  161.3880  203.4730  151.5610 S   0  0  0  0  0  0  0  0  0  0  0  0
  160.1310  202.0520  149.4850 C   0  0  0  0  0  1  0  0  0  0  0  0
  160.8510  204.5210  147.8960 O   0  0  0  0  0  1  0  0  0  0  0  0
  160.8430  203.2590  149.9860 C   0  0  0  0  0  0  0  0  0  0  0  0
  161.1650  204.3850  149.2420 C   0  0  0  0  0  0  0  0  0  0  0  0
  155.9030  212.0670  155.6930 O   0  0  0  0  0  0  0  0  0  0  0  0
  155.6460  213.2280  156.4730 C   0  0  0  0  0  1  0  0  0  0  0  0
  161.9090  209.4120  157.2610 N   0  0  0  0  0  2  0  0  0  0  0  0
  163.2410  209.6690  157.2580 O   0  0  0  0  0  1  0  0  0  0  0  0
  161.2310  211.6620  151.7950 C   0  0  1  0  0  3  0  0  0  0  0  0
  162.1440  210.7520  151.0280 C   0  0  0  0  0  0  0  0  0  0  0  0
  163.1250  210.2150  151.6070 O   0  0  0  0  0  0  0  0  0  0  0  0
  161.9410  210.5050  149.6680 O   0  0  0  0  0  0  0  0  0  0  0  0
  161.9460  209.1930  149.1260 C   0  0  0  0  0  1  0  0  0  0  0  0
  159.9870  211.9870  150.9770 C   0  0  0  0  0  2  0  0  0  0  0  0
  160.0750  213.3890  150.4120 C   0  0  0  0  0  2  0  0  0  0  0  0
  158.9090  213.6300  149.4780 C   0  0  0  0  0  2  0  0  0  0  0  0
  156.4440  213.6980  149.3080 C   0  0  0  0  0  1  0  0  0  0  0  0
  157.6120  213.4000  150.2240 C   0  0  0  0  0  2  0  0  0  0  0  0
  1  8  1  0  0  0  0
  3  1  1  1  0  0  0
  4  2  1  0  0  0  0
  4  5  1  0  0  0  0
  6  4  2  0  0  0  0
  7 11  1  0  0  0  0
  8  5  1  0  0  0  0
  8 26  1  1  0  0  0
  9  7  2  0  0  0  0
  9  6  1  0  0  0  0
 10 28  1  6  0  0  0
 10  3  1  0  0  0  0
 10  6  1  0  0  0  0
 11 24  1  0  0  0  0
 11  2  2  0  0  0  0
 12 14  1  0  0  0  0
 13 12  1  6  0  0  0
 13  3  1  0  0  0  0
 14 15  1  6  0  0  0
 14 13  1  0  0  0  0
 16 15  1  0  0  0  0
 17 18  2  0  0  0  0
 18 19  1  0  0  0  0
 18 16  1  0  0  0  0
 20 22  1  0  0  0  0
 21 23  1  0  0  0  0
 22 19  1  0  0  0  0
 23 17  1  0  0  0  0
 23 22  2  0  0  0  0
 24 25  1  0  0  0  0
 27 26  1  0  0  0  0
 28 33  1  6  0  0  0
 29 30  2  0  0  0  0
 29 28  1  0  0  0  0
 31 29  1  0  0  0  0
 32 31  1  0  0  0  0
 34 33  1  0  0  0  0
 35 37  1  0  0  0  0
 35 34  1  0  0  0  0
 36 37  1  0  0  0  0
M  END
>  <MODEL>
5

>  <REMARK>
 VINA RESULT:      -2.1      2.648      7.259
  Name = 
  13 active torsions:
  status: ('A' for Active; 'I' for Inactive)
    1  A    between atoms: C_1  and  O_12
    2  A    between atoms: C_1  and  C_36
    3  A    between atoms: O_3  and  C_32
    4  A    between atoms: C_6  and  O_31
    5  A    between atoms: C_10  and  C_14
    6  A    between atoms: C_17  and  C_26
    7  A    between atoms: C_17  and  C_33
    8  A    between atoms: N_22  and  C_24
    9  A    between atoms: C_26  and  C_34
   10  A    between atoms: C_27  and  C_37
   11  A    between atoms: C_29  and  C_36
   12  A    between atoms: O_31  and  C_37
   13  A    between atoms: C_33  and  C_36
                            x       y       z     vdW  Elec       q    Type
                         _______ _______ _______ _____ _____    ______ ____

>  <TORSDO>
F 13

$$$$
=
 OpenBabel11062409163D

 37 40  0  0  1  0  0  0  0  0999 V2000
  161.0290  211.7930  151.7060 C   0  0  0  0  0  2  0  0  0  0  0  0
  161.6780  207.2510  152.2220 C   0  0  0  0  0  3  0  0  0  0  0  0
  160.4610  211.5000  153.1000 C   0  0  2  0  0  3  0  0  0  0  0  0
  161.8600  208.6100  152.4980 C   0  0  0  0  0  0  0  0  0  0  0  0
  162.7250  209.6320  151.3020 S   0  0  0  0  0  0  0  0  0  0  0  0
  161.3620  209.1560  153.6950 C   0  0  0  0  0  0  0  0  0  0  0  0
  160.5070  206.9710  154.3190 C   0  0  0  0  0  3  0  0  0  0  0  0
  161.2100  210.5420  150.8390 C   0  0  2  0  0  3  0  0  0  0  0  0
  160.6740  208.3300  154.5940 C   0  0  0  0  0  3  0  0  0  0  0  0
  161.4390  210.6410  153.9220 C   0  0  2  0  0  3  0  0  0  0  0  0
  161.0090  206.4250  153.1280 C   0  0  0  0  0  0  0  0  0  0  0  0
  158.1820  211.3270  154.1710 C   0  0  0  0  0  2  0  0  0  0  0  0
  159.0460  210.9020  153.0000 C   0  0  1  0  0  3  0  0  0  0  0  0
  157.9210  211.9300  152.8070 C   0  0  2  0  0  3  0  0  0  0  0  0
  158.3660  213.3870  152.8140 C   0  0  0  0  0  2  0  0  0  0  0  0
  157.7410  214.0830  151.7490 O   0  0  0  0  0  0  0  0  0  0  0  0
  159.4220  214.2140  149.9630 C   0  0  0  0  0  3  0  0  0  0  0  0
  158.1470  213.9160  150.4260 C   0  0  0  0  0  0  0  0  0  0  0  0
  157.1930  213.3310  149.1610 S   0  0  0  0  0  0  0  0  0  0  0  0
  158.2460  213.0810  146.5650 C   0  0  0  0  0  1  0  0  0  0  0  0
  160.7330  214.1640  147.8990 O   0  0  0  0  0  1  0  0  0  0  0  0
  158.4000  213.4520  147.9990 C   0  0  0  0  0  0  0  0  0  0  0  0
  159.5500  213.9490  148.5950 C   0  0  0  0  0  0  0  0  0  0  0  0
  160.8540  205.0700  152.8210 O   0  0  0  0  0  0  0  0  0  0  0  0
  160.9610  204.5660  151.4960 C   0  0  0  0  0  1  0  0  0  0  0  0
  161.2280  210.8900  149.4200 N   0  0  0  0  0  2  0  0  0  0  0  0
  162.0330  210.0150  148.7670 O   0  0  0  0  0  1  0  0  0  0  0  0
  161.7960  211.1130  155.3390 C   0  0  1  0  0  3  0  0  0  0  0  0
  160.6460  210.8700  156.2700 C   0  0  0  0  0  0  0  0  0  0  0  0
  160.2760  209.6910  156.5150 O   0  0  0  0  0  0  0  0  0  0  0  0
  159.9550  211.9330  156.8560 O   0  0  0  0  0  0  0  0  0  0  0  0
  160.0250  213.2560  156.3470 C   0  0  0  0  0  1  0  0  0  0  0  0
  163.0740  210.4950  155.8930 C   0  0  0  0  0  2  0  0  0  0  0  0
  163.4170  211.1030  157.2360 C   0  0  0  0  0  2  0  0  0  0  0  0
  164.8820  211.4800  157.2580 C   0  0  0  0  0  2  0  0  0  0  0  0
  166.4470  212.9350  156.0160 C   0  0  0  0  0  1  0  0  0  0  0  0
  165.2990  211.9560  155.8830 C   0  0  0  0  0  2  0  0  0  0  0  0
  2  4  2  0  0  0  0
  2 11  1  0  0  0  0
  3  1  1  6  0  0  0
  3 10  1  0  0  0  0
  4  6  1  0  0  0  0
  5  4  1  0  0  0  0
  6 10  1  0  0  0  0
  6  9  2  0  0  0  0
  7  9  1  0  0  0  0
  8 26  1  6  0  0  0
  8  5  1  0  0  0  0
  8  1  1  0  0  0  0
 10 28  1  1  0  0  0
 11  7  2  0  0  0  0
 13  3  1  0  0  0  0
 13 12  1  1  0  0  0
 14 15  1  1  0  0  0
 14 13  1  0  0  0  0
 14 12  1  0  0  0  0
 16 15  1  0  0  0  0
 17 18  2  0  0  0  0
 18 16  1  0  0  0  0
 19 18  1  0  0  0  0
 20 22  1  0  0  0  0
 21 23  1  0  0  0  0
 22 23  2  0  0  0  0
 22 19  1  0  0  0  0
 23 17  1  0  0  0  0
 24 11  1  0  0  0  0
 25 24  1  0  0  0  0
 27 26  1  0  0  0  0
 28 33  1  1  0  0  0
 28 29  1  0  0  0  0
 29 30  2  0  0  0  0
 29 31  1  0  0  0  0
 32 31  1  0  0  0  0
 33 34  1  0  0  0  0
 34 35  1  0  0  0  0
 37 36  1  0  0  0  0
 37 35  1  0  0  0  0
M  END
>  <MODEL>
6

>  <REMARK>
 VINA RESULT:      -1.9      1.412      2.774
  Name = 
  13 active torsions:
  status: ('A' for Active; 'I' for Inactive)
    1  A    between atoms: C_1  and  O_12
    2  A    between atoms: C_1  and  C_36
    3  A    between atoms: O_3  and  C_32
    4  A    between atoms: C_6  and  O_31
    5  A    between atoms: C_10  and  C_14
    6  A    between atoms: C_17  and  C_26
    7  A    between atoms: C_17  and  C_33
    8  A    between atoms: N_22  and  C_24
    9  A    between atoms: C_26  and  C_34
   10  A    between atoms: C_27  and  C_37
   11  A    between atoms: C_29  and  C_36
   12  A    between atoms: O_31  and  C_37
   13  A    between atoms: C_33  and  C_36
                            x       y       z     vdW  Elec       q    Type
                         _______ _______ _______ _____ _____    ______ ____

>  <TORSDO>
F 13

$$$$
=
 OpenBabel11062409163D

 37 40  0  0  1  0  0  0  0  0999 V2000
  160.6260  212.3940  152.0790 C   0  0  0  0  0  2  0  0  0  0  0  0
  161.7350  207.9570  151.4450 C   0  0  0  0  0  3  0  0  0  0  0  0
  160.2340  211.7270  153.4040 C   0  0  2  0  0  3  0  0  0  0  0  0
  161.8200  209.2280  152.0230 C   0  0  0  0  0  0  0  0  0  0  0  0
  162.4610  210.5870  151.0390 S   0  0  0  0  0  0  0  0  0  0  0  0
  161.4010  209.4260  153.3510 C   0  0  0  0  0  0  0  0  0  0  0  0
  160.8180  207.0740  153.5020 C   0  0  0  0  0  3  0  0  0  0  0  0
  160.8300  211.4020  150.9280 C   0  0  2  0  0  3  0  0  0  0  0  0
  160.8880  208.3450  154.0780 C   0  0  0  0  0  3  0  0  0  0  0  0
  161.3660  210.8180  153.9180 C   0  0  2  0  0  3  0  0  0  0  0  0
  161.2410  206.8750  152.1790 C   0  0  0  0  0  0  0  0  0  0  0  0
  158.2300  210.8080  154.6340 C   0  0  0  0  0  2  0  0  0  0  0  0
  158.8760  211.0120  153.2770 C   0  0  1  0  0  3  0  0  0  0  0  0
  157.6610  211.8520  153.6970 C   0  0  2  0  0  3  0  0  0  0  0  0
  157.9870  213.2370  154.2400 C   0  0  0  0  0  2  0  0  0  0  0  0
  157.0500  214.1790  153.7440 O   0  0  0  0  0  0  0  0  0  0  0  0
  155.3980  214.3210  151.9320 C   0  0  0  0  0  3  0  0  0  0  0  0
  156.7030  214.2260  152.3940 C   0  0  0  0  0  0  0  0  0  0  0  0
  157.7780  214.1790  151.0910 S   0  0  0  0  0  0  0  0  0  0  0  0
  156.8310  214.2930  148.4460 C   0  0  0  0  0  1  0  0  0  0  0  0
  154.1490  214.4450  149.8330 O   0  0  0  0  0  1  0  0  0  0  0  0
  156.5840  214.2810  149.9130 C   0  0  0  0  0  0  0  0  0  0  0  0
  155.3440  214.3510  150.5340 C   0  0  0  0  0  0  0  0  0  0  0  0
  161.1790  205.6180  151.5710 O   0  0  0  0  0  0  0  0  0  0  0  0
  161.1020  204.4080  152.3150 C   0  0  0  0  0  1  0  0  0  0  0  0
  160.6690  212.0650  149.6360 N   0  0  0  0  0  2  0  0  0  0  0  0
  161.7960  211.8750  148.9050 O   0  0  0  0  0  1  0  0  0  0  0  0
  161.8240  210.9910  155.3730 C   0  0  1  0  0  3  0  0  0  0  0  0
  161.0030  210.1220  156.2800 C   0  0  0  0  0  0  0  0  0  0  0  0
  159.9650  210.5860  156.8220 O   0  0  0  0  0  0  0  0  0  0  0  0
  161.3830  208.8070  156.5560 O   0  0  0  0  0  0  0  0  0  0  0  0
  160.4900  207.8640  157.1300 C   0  0  0  0  0  1  0  0  0  0  0  0
  163.3100  210.7370  155.5880 C   0  0  0  0  0  2  0  0  0  0  0  0
  163.6600  210.8500  157.0580 C   0  0  0  0  0  2  0  0  0  0  0  0
  164.6080  212.0110  157.2610 C   0  0  0  0  0  2  0  0  0  0  0  0
  166.3520  213.2140  155.9870 C   0  0  0  0  0  1  0  0  0  0  0  0
  165.8040  211.8490  156.3470 C   0  0  0  0  0  2  0  0  0  0  0  0
  2  4  2  0  0  0  0
  2 11  1  0  0  0  0
  3  1  1  6  0  0  0
  3 10  1  0  0  0  0
  4  6  1  0  0  0  0
  5  4  1  0  0  0  0
  6 10  1  0  0  0  0
  6  9  2  0  0  0  0
  7  9  1  0  0  0  0
  8 26  1  6  0  0  0
  8  5  1  0  0  0  0
  8  1  1  0  0  0  0
 10 28  1  1  0  0  0
 11  7  2  0  0  0  0
 13  3  1  0  0  0  0
 13 14  1  0  0  0  0
 13 12  1  1  0  0  0
 14 15  1  1  0  0  0
 14 12  1  0  0  0  0
 16 15  1  0  0  0  0
 17 18  2  0  0  0  0
 18 16  1  0  0  0  0
 19 18  1  0  0  0  0
 20 22  1  0  0  0  0
 21 23  1  0  0  0  0
 22 23  2  0  0  0  0
 22 19  1  0  0  0  0
 23 17  1  0  0  0  0
 24 11  1  0  0  0  0
 24 25  1  0  0  0  0
 27 26  1  0  0  0  0
 28 33  1  6  0  0  0
 28 29  1  0  0  0  0
 29 31  1  0  0  0  0
 29 30  2  0  0  0  0
 31 32  1  0  0  0  0
 33 34  1  0  0  0  0
 34 35  1  0  0  0  0
 36 37  1  0  0  0  0
 37 35  1  0  0  0  0
M  END
>  <MODEL>
7

>  <REMARK>
 VINA RESULT:      -1.6      1.850      3.121
  Name = 
  13 active torsions:
  status: ('A' for Active; 'I' for Inactive)
    1  A    between atoms: C_1  and  O_12
    2  A    between atoms: C_1  and  C_36
    3  A    between atoms: O_3  and  C_32
    4  A    between atoms: C_6  and  O_31
    5  A    between atoms: C_10  and  C_14
    6  A    between atoms: C_17  and  C_26
    7  A    between atoms: C_17  and  C_33
    8  A    between atoms: N_22  and  C_24
    9  A    between atoms: C_26  and  C_34
   10  A    between atoms: C_27  and  C_37
   11  A    between atoms: C_29  and  C_36
   12  A    between atoms: O_31  and  C_37
   13  A    between atoms: C_33  and  C_36
                            x       y       z     vdW  Elec       q    Type
                         _______ _______ _______ _____ _____    ______ ____

>  <TORSDO>
F 13

$$$$
=
 OpenBabel11062409163D

 37 40  0  0  1  0  0  0  0  0999 V2000
  161.3990  211.6780  154.6540 C   0  0  0  0  0  2  0  0  0  0  0  0
  157.3480  212.0120  156.8450 C   0  0  0  0  0  3  0  0  0  0  0  0
  160.3650  211.5600  153.5280 C   0  0  2  0  0  3  0  0  0  0  0  0
  158.3680  212.4050  155.9710 C   0  0  0  0  0  0  0  0  0  0  0  0
  159.9400  212.9360  156.6550 S   0  0  0  0  0  0  0  0  0  0  0  0
  158.1530  212.3720  154.5810 C   0  0  0  0  0  0  0  0  0  0  0  0
  155.8990  211.5530  154.9630 C   0  0  0  0  0  3  0  0  0  0  0  0
  160.8140  211.4490  156.0530 C   0  0  2  0  0  3  0  0  0  0  0  0
  156.9190  211.9310  154.0870 C   0  0  0  0  0  3  0  0  0  0  0  0
  159.2950  212.6620  153.6470 C   0  0  2  0  0  3  0  0  0  0  0  0
  156.1110  211.5910  156.3500 C   0  0  0  0  0  0  0  0  0  0  0  0
  159.6040  209.6750  152.0320 C   0  0  0  0  0  2  0  0  0  0  0  0
  159.7820  210.1370  153.4650 C   0  0  1  0  0  3  0  0  0  0  0  0
  160.7200  209.0800  152.8640 C   0  0  2  0  0  3  0  0  0  0  0  0
  162.0550  209.6110  152.3570 C   0  0  0  0  0  2  0  0  0  0  0  0
  162.3840  208.9830  151.1290 O   0  0  0  0  0  0  0  0  0  0  0  0
  162.0390  206.6630  151.8590 C   0  0  0  0  0  3  0  0  0  0  0  0
  162.0690  207.6480  150.8800 C   0  0  0  0  0  0  0  0  0  0  0  0
  161.6680  206.9870  149.3790 S   0  0  0  0  0  0  0  0  0  0  0  0
  161.0630  204.2510  149.1310 C   0  0  0  0  0  1  0  0  0  0  0  0
  161.5920  204.2710  152.1070 O   0  0  0  0  0  1  0  0  0  0  0  0
  161.4510  205.4250  149.9600 C   0  0  0  0  0  0  0  0  0  0  0  0
  161.6910  205.4160  151.3270 C   0  0  0  0  0  0  0  0  0  0  0  0
  155.1140  211.2150  157.2540 O   0  0  0  0  0  0  0  0  0  0  0  0
  154.0840  210.2930  156.9220 C   0  0  0  0  0  1  0  0  0  0  0  0
  161.8570  211.0450  156.9930 N   0  0  0  0  0  2  0  0  0  0  0  0
  162.2060  209.7600  156.7310 O   0  0  0  0  0  1  0  0  0  0  0  0
  158.9810  213.4980  152.3980 C   0  0  1  0  0  3  0  0  0  0  0  0
  160.0520  213.3080  151.3660 C   0  0  0  0  0  0  0  0  0  0  0  0
  160.4380  212.1460  151.0700 O   0  0  0  0  0  0  0  0  0  0  0  0
  160.6520  214.4020  150.7390 O   0  0  0  0  0  0  0  0  0  0  0  0
  160.8880  214.4400  149.3400 C   0  0  0  0  0  1  0  0  0  0  0  0
  157.6070  213.2240  151.8010 C   0  0  0  0  0  2  0  0  0  0  0  0
  157.3410  214.1520  150.6350 C   0  0  0  0  0  2  0  0  0  0  0  0
  156.7090  213.3710  149.5030 C   0  0  0  0  0  2  0  0  0  0  0  0
  157.2650  213.9280  147.1600 C   0  0  0  0  0  1  0  0  0  0  0  0
  157.7220  213.1810  148.3960 C   0  0  0  0  0  2  0  0  0  0  0  0
  1  8  1  0  0  0  0
  3 10  1  0  0  0  0
  3  1  1  1  0  0  0
  4  5  1  0  0  0  0
  4  2  2  0  0  0  0
  6  4  1  0  0  0  0
  7 11  2  0  0  0  0
  8  5  1  0  0  0  0
  8 26  1  1  0  0  0
  9  6  2  0  0  0  0
  9  7  1  0  0  0  0
 10 28  1  6  0  0  0
 10  6  1  0  0  0  0
 11  2  1  0  0  0  0
 11 24  1  0  0  0  0
 12 14  1  0  0  0  0
 13 12  1  6  0  0  0
 13  3  1  0  0  0  0
 14 15  1  6  0  0  0
 14 13  1  0  0  0  0
 16 15  1  0  0  0  0
 18 16  1  0  0  0  0
 18 17  2  0  0  0  0
 19 22  1  0  0  0  0
 19 18  1  0  0  0  0
 20 22  1  0  0  0  0
 22 23  2  0  0  0  0
 23 17  1  0  0  0  0
 23 21  1  0  0  0  0
 25 24  1  0  0  0  0
 27 26  1  0  0  0  0
 28 33  1  6  0  0  0
 29 28  1  0  0  0  0
 30 29  2  0  0  0  0
 31 29  1  0  0  0  0
 32 31  1  0  0  0  0
 34 33  1  0  0  0  0
 35 34  1  0  0  0  0
 36 37  1  0  0  0  0
 37 35  1  0  0  0  0
M  END
>  <MODEL>
8

>  <REMARK>
 VINA RESULT:      -1.6      2.624      7.123
  Name = 
  13 active torsions:
  status: ('A' for Active; 'I' for Inactive)
    1  A    between atoms: C_1  and  O_12
    2  A    between atoms: C_1  and  C_36
    3  A    between atoms: O_3  and  C_32
    4  A    between atoms: C_6  and  O_31
    5  A    between atoms: C_10  and  C_14
    6  A    between atoms: C_17  and  C_26
    7  A    between atoms: C_17  and  C_33
    8  A    between atoms: N_22  and  C_24
    9  A    between atoms: C_26  and  C_34
   10  A    between atoms: C_27  and  C_37
   11  A    between atoms: C_29  and  C_36
   12  A    between atoms: O_31  and  C_37
   13  A    between atoms: C_33  and  C_36
                            x       y       z     vdW  Elec       q    Type
                         _______ _______ _______ _____ _____    ______ ____

>  <TORSDO>
F 13

$$$$
=
 OpenBabel11062409163D

 37 40  0  0  1  0  0  0  0  0999 V2000
  162.4910  209.4760  155.1180 C   0  0  0  0  0  2  0  0  0  0  0  0
  159.0810  212.2970  156.4360 C   0  0  0  0  0  3  0  0  0  0  0  0
  161.2630  208.9370  154.3730 C   0  0  2  0  0  3  0  0  0  0  0  0
  159.9790  211.7040  155.5420 C   0  0  0  0  0  0  0  0  0  0  0  0
  161.7280  212.0850  155.6860 S   0  0  0  0  0  0  0  0  0  0  0  0
  159.5060  210.8190  154.5560 C   0  0  0  0  0  0  0  0  0  0  0  0
  157.2440  211.1360  155.3750 C   0  0  0  0  0  3  0  0  0  0  0  0
  162.1430  210.4090  156.2840 C   0  0  2  0  0  3  0  0  0  0  0  0
  158.1370  210.5310  154.4890 C   0  0  0  0  0  3  0  0  0  0  0  0
  160.4890  210.0800  153.6900 C   0  0  2  0  0  3  0  0  0  0  0  0
  157.7130  212.0240  156.3560 C   0  0  0  0  0  0  0  0  0  0  0  0
  159.2890  207.3720  154.5350 C   0  0  0  0  0  2  0  0  0  0  0  0
  160.3940  208.0710  155.3030 C   0  0  1  0  0  3  0  0  0  0  0  0
  160.4660  206.5610  155.0350 C   0  0  2  0  0  3  0  0  0  0  0  0
  161.3290  206.1540  153.8480 C   0  0  0  0  0  2  0  0  0  0  0  0
  161.2110  204.7580  153.6270 O   0  0  0  0  0  0  0  0  0  0  0  0
  161.0760  202.8620  152.0720 C   0  0  0  0  0  3  0  0  0  0  0  0
  161.1780  204.2200  152.3420 C   0  0  0  0  0  0  0  0  0  0  0  0
  161.2500  205.0940  150.8980 S   0  0  0  0  0  0  0  0  0  0  0  0
  161.1610  203.7750  148.4160 C   0  0  0  0  0  1  0  0  0  0  0  0
  160.9680  201.3230  150.1740 O   0  0  0  0  0  1  0  0  0  0  0  0
  161.1530  203.7430  149.9040 C   0  0  0  0  0  0  0  0  0  0  0  0
  161.0640  202.6070  150.6960 C   0  0  0  0  0  0  0  0  0  0  0  0
  156.8460  212.6420  157.2610 O   0  0  0  0  0  0  0  0  0  0  0  0
  155.4310  212.5470  157.1560 C   0  0  0  0  0  1  0  0  0  0  0  0
  163.2340  210.4600  157.2530 N   0  0  0  0  0  2  0  0  0  0  0  0
  163.9980  211.5510  156.9930 O   0  0  0  0  0  1  0  0  0  0  0  0
  160.1300  209.9200  152.2060 C   0  0  1  0  0  3  0  0  0  0  0  0
  160.3380  211.2160  151.4810 C   0  0  0  0  0  0  0  0  0  0  0  0
  161.4290  211.4360  150.8910 O   0  0  0  0  0  0  0  0  0  0  0  0
  159.3480  212.2020  151.4660 O   0  0  0  0  0  0  0  0  0  0  0  0
  159.5440  213.4820  152.0470 C   0  0  0  0  0  1  0  0  0  0  0  0
  160.8760  208.7900  151.5080 C   0  0  0  0  0  2  0  0  0  0  0  0
  162.1710  209.2990  150.9120 C   0  0  0  0  0  2  0  0  0  0  0  0
  162.6070  208.3780  149.7930 C   0  0  0  0  0  2  0  0  0  0  0  0
  161.1950  207.3340  148.0520 C   0  0  0  0  0  1  0  0  0  0  0  0
  161.7600  208.6420  148.5660 C   0  0  0  0  0  2  0  0  0  0  0  0
  1  8  1  0  0  0  0
  3  1  1  1  0  0  0
  3 13  1  0  0  0  0
  4  5  1  0  0  0  0
  4  2  2  0  0  0  0
  5  8  1  0  0  0  0
  6  4  1  0  0  0  0
  7 11  2  0  0  0  0
  8 26  1  1  0  0  0
  9  6  2  0  0  0  0
  9  7  1  0  0  0  0
 10 28  1  6  0  0  0
 10  3  1  0  0  0  0
 10  6  1  0  0  0  0
 11  2  1  0  0  0  0
 11 24  1  0  0  0  0
 12 14  1  0  0  0  0
 13 12  1  6  0  0  0
 14 15  1  6  0  0  0
 14 13  1  0  0  0  0
 16 15  1  0  0  0  0
 17 18  2  0  0  0  0
 18 16  1  0  0  0  0
 19 18  1  0  0  0  0
 20 22  1  0  0  0  0
 21 23  1  0  0  0  0
 22 23  2  0  0  0  0
 22 19  1  0  0  0  0
 23 17  1  0  0  0  0
 25 24  1  0  0  0  0
 27 26  1  0  0  0  0
 28 33  1  6  0  0  0
 29 28  1  0  0  0  0
 30 29  2  0  0  0  0
 31 29  1  0  0  0  0
 31 32  1  0  0  0  0
 34 33  1  0  0  0  0
 35 34  1  0  0  0  0
 36 37  1  0  0  0  0
 37 35  1  0  0  0  0
M  END
>  <MODEL>
9

>  <REMARK>
 VINA RESULT:      -1.5      2.723      7.736
  Name = 
  13 active torsions:
  status: ('A' for Active; 'I' for Inactive)
    1  A    between atoms: C_1  and  O_12
    2  A    between atoms: C_1  and  C_36
    3  A    between atoms: O_3  and  C_32
    4  A    between atoms: C_6  and  O_31
    5  A    between atoms: C_10  and  C_14
    6  A    between atoms: C_17  and  C_26
    7  A    between atoms: C_17  and  C_33
    8  A    between atoms: N_22  and  C_24
    9  A    between atoms: C_26  and  C_34
   10  A    between atoms: C_27  and  C_37
   11  A    between atoms: C_29  and  C_36
   12  A    between atoms: O_31  and  C_37
   13  A    between atoms: C_33  and  C_36
                            x       y       z     vdW  Elec       q    Type
                         _______ _______ _______ _____ _____    ______ ____

>  <TORSDO>
F 13

$$$$
