=
 OpenBabel11062408243D

 32 37  0  0  0  0  0  0  0  0999 V2000
  161.3250  204.5150  150.0590 C   0  0  0  0  0  0  0  0  0  0  0  0
  161.7650  206.6150  150.9320 N   0  0  0  0  0  0  0  0  0  0  0  0
  160.7940  203.1250  150.3430 C   0  0  0  0  0  2  0  0  0  0  0  0
  161.5160  205.3300  151.0910 C   0  0  0  0  0  0  0  0  0  0  0  0
  161.6680  207.2350  152.1120 C   0  0  0  0  0  0  0  0  0  0  0  0
  162.0700  210.7790  148.5150 C   0  0  0  0  0  3  0  0  0  0  0  0
  161.7960  207.2310  149.6840 N   0  0  0  0  0  0  0  0  0  0  0  0
  161.9400  210.7380  150.9400 C   0  0  0  0  0  3  0  0  0  0  0  0
  161.8590  209.3440  150.9150 C   0  0  0  0  0  0  0  0  0  0  0  0
  161.3160  205.0410  152.4150 C   0  0  0  0  0  0  0  0  0  0  0  0
  161.7060  208.5720  152.1850 C   0  0  0  0  0  3  0  0  0  0  0  0
  160.8090  203.7040  152.8610 C   0  0  0  0  0  2  0  0  0  0  0  0
  161.6210  206.4150  148.5440 N   0  0  0  0  0  0  0  0  0  0  0  0
  161.4190  205.1210  148.6820 C   0  0  0  0  0  0  0  0  0  0  0  0
  161.8800  208.6620  149.6690 C   0  0  0  0  0  0  0  0  0  0  0  0
  161.4050  206.2660  153.0910 C   0  0  0  0  0  0  0  0  0  0  0  0
  161.1410  202.6500  151.7790 C   0  0  0  0  0  2  0  0  0  0  0  0
  162.0480  211.4530  149.7420 C   0  0  0  0  0  3  0  0  0  0  0  0
  161.9850  209.3830  148.4750 C   0  0  0  0  0  3  0  0  0  0  0  0
  160.8430  204.0300  145.0880 C   0  0  0  0  0  0  0  0  0  0  0  0
  160.6430  204.5580  143.8550 F   0  0  0  0  0  0  0  0  0  0  0  0
  161.2210  204.2970  147.4770 C   0  0  0  0  0  0  0  0  0  0  0  0
  160.8630  202.6420  145.2400 C   0  0  0  0  0  3  0  0  0  0  0  0
  161.2250  202.9020  147.6150 C   0  0  0  0  0  3  0  0  0  0  0  0
  161.0130  204.8670  146.2020 C   0  0  0  0  0  0  0  0  0  0  0  0
  160.8860  206.6100  145.9790 Cl  0  0  0  0  0  0  0  0  0  0  0  0
  161.0460  202.0770  146.5040 C   0  0  0  0  0  0  0  0  0  0  0  0
  161.5410  200.2270  148.0570 C   0  0  0  0  0  1  0  0  0  0  0  0
  161.0770  200.5960  146.6610 C   0  0  0  0  0  2  0  0  0  0  0  0
  161.1100  206.4700  154.4760 N   0  0  0  0  0  2  0  0  0  0  0  0
  160.0380  207.3330  154.9400 C   0  0  0  0  0  2  0  0  0  0  0  0
  159.9840  207.3020  156.4520 C   0  0  0  0  0  1  0  0  0  0  0  0
  1  3  1  0  0  0  0
  1  4  2  0  0  0  0
  2  4  1  0  0  0  0
  2  5  1  0  0  0  0
  3 17  1  0  0  0  0
  4 10  1  0  0  0  0
  5 11  2  0  0  0  0
  5 16  1  0  0  0  0
  6 18  1  0  0  0  0
  7  2  1  0  0  0  0
  9  8  1  0  0  0  0
  9 11  1  0  0  0  0
 10 12  1  0  0  0  0
 10 16  2  0  0  0  0
 13 14  2  0  0  0  0
 13  7  1  0  0  0  0
 14  1  1  0  0  0  0
 15  7  1  0  0  0  0
 15  9  2  0  0  0  0
 16 30  1  0  0  0  0
 17 12  1  0  0  0  0
 18  8  2  0  0  0  0
 19  6  2  0  0  0  0
 19 15  1  0  0  0  0
 20 23  2  0  0  0  0
 20 25  1  0  0  0  0
 21 20  1  0  0  0  0
 22 24  1  0  0  0  0
 22 14  1  0  0  0  0
 23 27  1  0  0  0  0
 25 22  2  0  0  0  0
 26 25  1  0  0  0  0
 27 29  1  0  0  0  0
 27 24  2  0  0  0  0
 29 28  1  0  0  0  0
 30 31  1  0  0  0  0
 31 32  1  0  0  0  0
M  END
>  <MODEL>
1

>  <REMARK>
 VINA RESULT:     -10.5      0.000      0.000
  Name = 
  4 active torsions:
  status: ('A' for Active; 'I' for Inactive)
    1  A    between atoms: C_13  and  N_18
    2  A    between atoms: C_15  and  C_26
    3  A    between atoms: C_16  and  C_27
    4  A    between atoms: N_18  and  C_29
                            x       y       z     vdW  Elec       q    Type
                         _______ _______ _______ _____ _____    ______ ____

>  <TORSDO>
F 4

$$$$
=
 OpenBabel11062408243D

 32 37  0  0  0  0  0  0  0  0999 V2000
  161.3180  205.5500  150.7150 C   0  0  0  0  0  0  0  0  0  0  0  0
  161.6320  207.8010  151.1590 N   0  0  0  0  0  0  0  0  0  0  0  0
  160.8250  204.2220  151.2540 C   0  0  0  0  0  2  0  0  0  0  0  0
  161.4220  206.5640  151.5660 C   0  0  0  0  0  0  0  0  0  0  0  0
  161.4490  208.6420  152.1810 C   0  0  0  0  0  0  0  0  0  0  0  0
  161.9100  211.3980  147.9570 C   0  0  0  0  0  3  0  0  0  0  0  0
  161.7070  208.1520  149.8140 N   0  0  0  0  0  0  0  0  0  0  0  0
  161.6520  211.8430  150.3300 C   0  0  0  0  0  3  0  0  0  0  0  0
  161.6240  210.4710  150.5880 C   0  0  0  0  0  0  0  0  0  0  0  0
  161.1630  206.5400  152.9110 C   0  0  0  0  0  0  0  0  0  0  0  0
  161.4330  209.9660  151.9810 C   0  0  0  0  0  3  0  0  0  0  0  0
  160.6840  205.3000  153.5980 C   0  0  0  0  0  2  0  0  0  0  0  0
  161.6240  207.1140  148.8590 N   0  0  0  0  0  0  0  0  0  0  0  0
  161.4620  205.8670  149.2490 C   0  0  0  0  0  0  0  0  0  0  0  0
  161.7380  209.5530  149.5100 C   0  0  0  0  0  0  0  0  0  0  0  0
  161.1700  207.8800  153.3250 C   0  0  0  0  0  0  0  0  0  0  0  0
  161.1120  204.0650  152.7710 C   0  0  0  0  0  2  0  0  0  0  0  0
  161.7980  212.3050  149.0170 C   0  0  0  0  0  3  0  0  0  0  0  0
  161.8790  210.0210  148.2000 C   0  0  0  0  0  3  0  0  0  0  0  0
  161.1840  204.0440  145.9270 C   0  0  0  0  0  0  0  0  0  0  0  0
  161.0960  204.3000  144.5980 F   0  0  0  0  0  0  0  0  0  0  0  0
  161.3600  204.8070  148.2310 C   0  0  0  0  0  0  0  0  0  0  0  0
  161.1780  202.7180  146.3670 C   0  0  0  0  0  3  0  0  0  0  0  0
  161.3390  203.4730  148.6580 C   0  0  0  0  0  3  0  0  0  0  0  0
  161.2670  205.0960  146.8520 C   0  0  0  0  0  0  0  0  0  0  0  0
  161.1760  206.7540  146.2600 Cl  0  0  0  0  0  0  0  0  0  0  0  0
  161.2470  202.4320  147.7320 C   0  0  0  0  0  0  0  0  0  0  0  0
  160.9450  200.9520  149.6810 C   0  0  0  0  0  1  0  0  0  0  0  0
  161.2510  201.0160  148.1980 C   0  0  0  0  0  2  0  0  0  0  0  0
  160.7950  208.3460  154.6250 N   0  0  0  0  0  2  0  0  0  0  0  0
  161.4140  207.8680  155.8480 C   0  0  0  0  0  2  0  0  0  0  0  0
  160.3550  207.2700  156.7490 C   0  0  0  0  0  1  0  0  0  0  0  0
  1  3  1  0  0  0  0
  1  4  2  0  0  0  0
  2  4  1  0  0  0  0
  2  5  1  0  0  0  0
  3 17  1  0  0  0  0
  4 10  1  0  0  0  0
  5 16  1  0  0  0  0
  6 19  2  0  0  0  0
  6 18  1  0  0  0  0
  7  2  1  0  0  0  0
  8  9  1  0  0  0  0
  9 11  1  0  0  0  0
 10 16  2  0  0  0  0
 10 12  1  0  0  0  0
 11  5  2  0  0  0  0
 13 14  2  0  0  0  0
 13  7  1  0  0  0  0
 14  1  1  0  0  0  0
 15  7  1  0  0  0  0
 15  9  2  0  0  0  0
 16 30  1  0  0  0  0
 17 12  1  0  0  0  0
 18  8  2  0  0  0  0
 19 15  1  0  0  0  0
 20 23  2  0  0  0  0
 20 25  1  0  0  0  0
 21 20  1  0  0  0  0
 22 24  1  0  0  0  0
 22 14  1  0  0  0  0
 23 27  1  0  0  0  0
 25 22  2  0  0  0  0
 26 25  1  0  0  0  0
 27 29  1  0  0  0  0
 27 24  2  0  0  0  0
 29 28  1  0  0  0  0
 30 31  1  0  0  0  0
 31 32  1  0  0  0  0
M  END
>  <MODEL>
2

>  <REMARK>
 VINA RESULT:      -9.5      1.007      1.270
  Name = 
  4 active torsions:
  status: ('A' for Active; 'I' for Inactive)
    1  A    between atoms: C_13  and  N_18
    2  A    between atoms: C_15  and  C_26
    3  A    between atoms: C_16  and  C_27
    4  A    between atoms: N_18  and  C_29
                            x       y       z     vdW  Elec       q    Type
                         _______ _______ _______ _____ _____    ______ ____

>  <TORSDO>
F 4

$$$$
=
 OpenBabel11062408243D

 32 37  0  0  0  0  0  0  0  0999 V2000
  161.3770  206.2620  149.2670 C   0  0  0  0  0  0  0  0  0  0  0  0
  161.1630  207.7780  151.0050 N   0  0  0  0  0  0  0  0  0  0  0  0
  161.9180  206.0220  147.8730 C   0  0  0  0  0  2  0  0  0  0  0  0
  161.4060  207.5040  149.7390 C   0  0  0  0  0  0  0  0  0  0  0  0
  161.4960  209.0470  151.2570 C   0  0  0  0  0  0  0  0  0  0  0  0
  160.5050  206.7870  155.6810 C   0  0  0  0  0  3  0  0  0  0  0  0
  160.9100  206.7940  151.9570 N   0  0  0  0  0  0  0  0  0  0  0  0
  161.0930  209.0240  154.9390 C   0  0  0  0  0  3  0  0  0  0  0  0
  161.1340  208.5780  153.6160 C   0  0  0  0  0  0  0  0  0  0  0  0
  161.8460  208.6230  149.0830 C   0  0  0  0  0  0  0  0  0  0  0  0
  161.5060  209.5140  152.5130 C   0  0  0  0  0  3  0  0  0  0  0  0
  162.3960  208.5550  147.6920 C   0  0  0  0  0  2  0  0  0  0  0  0
  160.8450  205.4540  151.5150 N   0  0  0  0  0  0  0  0  0  0  0  0
  161.0390  205.1660  150.2450 C   0  0  0  0  0  0  0  0  0  0  0  0
  160.8590  207.2140  153.3270 C   0  0  0  0  0  0  0  0  0  0  0  0
  161.9170  209.6320  150.0540 C   0  0  0  0  0  0  0  0  0  0  0  0
  161.8390  207.2950  146.9890 C   0  0  0  0  0  2  0  0  0  0  0  0
  160.7760  208.1310  155.9680 C   0  0  0  0  0  3  0  0  0  0  0  0
  160.5470  206.3260  154.3610 C   0  0  0  0  0  3  0  0  0  0  0  0
  160.8680  201.3700  150.2690 C   0  0  0  0  0  0  0  0  0  0  0  0
  160.8150  200.3320  151.1400 F   0  0  0  0  0  0  0  0  0  0  0  0
  160.9840  203.7580  149.8150 C   0  0  0  0  0  0  0  0  0  0  0  0
  160.8720  201.1100  148.8970 C   0  0  0  0  0  3  0  0  0  0  0  0
  161.0020  203.4800  148.4420 C   0  0  0  0  0  3  0  0  0  0  0  0
  160.9310  202.6920  150.7390 C   0  0  0  0  0  0  0  0  0  0  0  0
  161.0180  202.9700  152.4770 Cl  0  0  0  0  0  0  0  0  0  0  0  0
  160.9480  202.1620  147.9830 C   0  0  0  0  0  0  0  0  0  0  0  0
  161.3040  203.1330  145.7450 C   0  0  0  0  0  1  0  0  0  0  0  0
  160.9420  201.8810  146.5200 C   0  0  0  0  0  2  0  0  0  0  0  0
  162.4740  210.9340  149.8540 N   0  0  0  0  0  2  0  0  0  0  0  0
  161.8890  211.9180  148.9610 C   0  0  0  0  0  2  0  0  0  0  0  0
  162.9340  212.3840  147.9700 C   0  0  0  0  0  1  0  0  0  0  0  0
  1  4  2  0  0  0  0
  1 14  1  0  0  0  0
  2  5  1  0  0  0  0
  2  7  1  0  0  0  0
  3  1  1  0  0  0  0
  4  2  1  0  0  0  0
  5 11  2  0  0  0  0
  6 18  1  0  0  0  0
  7 15  1  0  0  0  0
  8 18  2  0  0  0  0
  9  8  1  0  0  0  0
 10  4  1  0  0  0  0
 10 16  2  0  0  0  0
 11  9  1  0  0  0  0
 12 10  1  0  0  0  0
 13  7  1  0  0  0  0
 14 13  2  0  0  0  0
 15  9  2  0  0  0  0
 15 19  1  0  0  0  0
 16  5  1  0  0  0  0
 17 12  1  0  0  0  0
 17  3  1  0  0  0  0
 19  6  2  0  0  0  0
 20 25  1  0  0  0  0
 20 21  1  0  0  0  0
 22 14  1  0  0  0  0
 22 25  2  0  0  0  0
 23 20  2  0  0  0  0
 24 22  1  0  0  0  0
 25 26  1  0  0  0  0
 27 24  2  0  0  0  0
 27 23  1  0  0  0  0
 28 29  1  0  0  0  0
 29 27  1  0  0  0  0
 30 16  1  0  0  0  0
 31 30  1  0  0  0  0
 32 31  1  0  0  0  0
M  END
>  <MODEL>
3

>  <REMARK>
 VINA RESULT:      -9.3      2.422      5.131
  Name = 
  4 active torsions:
  status: ('A' for Active; 'I' for Inactive)
    1  A    between atoms: C_13  and  N_18
    2  A    between atoms: C_15  and  C_26
    3  A    between atoms: C_16  and  C_27
    4  A    between atoms: N_18  and  C_29
                            x       y       z     vdW  Elec       q    Type
                         _______ _______ _______ _____ _____    ______ ____

>  <TORSDO>
F 4

$$$$
=
 OpenBabel11062408243D

 32 37  0  0  0  0  0  0  0  0999 V2000
  161.5920  207.8540  150.6330 C   0  0  0  0  0  0  0  0  0  0  0  0
  161.6890  205.8470  149.4810 N   0  0  0  0  0  0  0  0  0  0  0  0
  161.4390  209.3570  150.5220 C   0  0  0  0  0  2  0  0  0  0  0  0
  161.7630  207.1630  149.5110 C   0  0  0  0  0  0  0  0  0  0  0  0
  161.6520  205.4330  148.2110 C   0  0  0  0  0  0  0  0  0  0  0  0
  160.6530  201.4520  151.1790 C   0  0  0  0  0  3  0  0  0  0  0  0
  161.3760  205.0810  150.6010 N   0  0  0  0  0  0  0  0  0  0  0  0
  160.9370  201.8470  148.8000 C   0  0  0  0  0  3  0  0  0  0  0  0
  161.1670  203.2020  149.0490 C   0  0  0  0  0  0  0  0  0  0  0  0
  161.8550  207.6670  148.2400 C   0  0  0  0  0  0  0  0  0  0  0  0
  161.4020  204.1500  147.9190 C   0  0  0  0  0  3  0  0  0  0  0  0
  161.7400  209.1340  147.9660 C   0  0  0  0  0  2  0  0  0  0  0  0
  161.2020  205.7550  151.8300 N   0  0  0  0  0  0  0  0  0  0  0  0
  161.3190  207.0660  151.8880 C   0  0  0  0  0  0  0  0  0  0  0  0
  161.1340  203.6840  150.3850 C   0  0  0  0  0  0  0  0  0  0  0  0
  161.7780  206.5590  147.3840 C   0  0  0  0  0  0  0  0  0  0  0  0
  162.1160  209.9190  149.2440 C   0  0  0  0  0  2  0  0  0  0  0  0
  160.6840  200.9740  149.8640 C   0  0  0  0  0  3  0  0  0  0  0  0
  160.8770  202.8070  151.4430 C   0  0  0  0  0  3  0  0  0  0  0  0
  160.7870  207.7340  155.5910 C   0  0  0  0  0  0  0  0  0  0  0  0
  160.6460  207.0670  156.7630 F   0  0  0  0  0  0  0  0  0  0  0  0
  161.1140  207.7450  153.1800 C   0  0  0  0  0  0  0  0  0  0  0  0
  160.7380  209.1300  155.5900 C   0  0  0  0  0  3  0  0  0  0  0  0
  161.0480  209.1450  153.1930 C   0  0  0  0  0  3  0  0  0  0  0  0
  160.9680  207.0310  154.3890 C   0  0  0  0  0  0  0  0  0  0  0  0
  160.9300  205.2700  154.4240 Cl  0  0  0  0  0  0  0  0  0  0  0  0
  160.8590  209.8360  154.3920 C   0  0  0  0  0  0  0  0  0  0  0  0
  160.1750  211.8340  153.1200 C   0  0  0  0  0  1  0  0  0  0  0  0
  160.8160  211.3250  154.3960 C   0  0  0  0  0  2  0  0  0  0  0  0
  161.6780  206.6210  145.9590 N   0  0  0  0  0  2  0  0  0  0  0  0
  160.5210  206.1420  145.2240 C   0  0  0  0  0  2  0  0  0  0  0  0
  160.9210  204.9640  144.3630 C   0  0  0  0  0  1  0  0  0  0  0  0
  1 14  1  0  0  0  0
  2  4  1  0  0  0  0
  2  7  1  0  0  0  0
  3  1  1  0  0  0  0
  4  1  2  0  0  0  0
  5  2  1  0  0  0  0
  6 19  1  0  0  0  0
  7 13  1  0  0  0  0
  8  9  2  0  0  0  0
  8 18  1  0  0  0  0
  9 15  1  0  0  0  0
 10  4  1  0  0  0  0
 11  5  2  0  0  0  0
 11  9  1  0  0  0  0
 12 10  1  0  0  0  0
 12 17  1  0  0  0  0
 13 14  2  0  0  0  0
 14 22  1  0  0  0  0
 15  7  1  0  0  0  0
 15 19  2  0  0  0  0
 16  5  1  0  0  0  0
 16 10  2  0  0  0  0
 17  3  1  0  0  0  0
 18  6  2  0  0  0  0
 20 21  1  0  0  0  0
 22 24  2  0  0  0  0
 22 25  1  0  0  0  0
 23 20  1  0  0  0  0
 24 27  1  0  0  0  0
 25 26  1  0  0  0  0
 25 20  2  0  0  0  0
 27 29  1  0  0  0  0
 27 23  2  0  0  0  0
 28 29  1  0  0  0  0
 30 16  1  0  0  0  0
 31 30  1  0  0  0  0
 32 31  1  0  0  0  0
M  END
>  <MODEL>
4

>  <REMARK>
 VINA RESULT:      -8.6      3.197      8.327
  Name = 
  4 active torsions:
  status: ('A' for Active; 'I' for Inactive)
    1  A    between atoms: C_13  and  N_18
    2  A    between atoms: C_15  and  C_26
    3  A    between atoms: C_16  and  C_27
    4  A    between atoms: N_18  and  C_29
                            x       y       z     vdW  Elec       q    Type
                         _______ _______ _______ _____ _____    ______ ____

>  <TORSDO>
F 4

$$$$
=
 OpenBabel11062408243D

 32 37  0  0  0  0  0  0  0  0999 V2000
  161.7760  208.6970  150.1760 C   0  0  0  0  0  0  0  0  0  0  0  0
  161.6450  207.5730  152.1960 N   0  0  0  0  0  0  0  0  0  0  0  0
  161.7630  208.5690  148.6660 C   0  0  0  0  0  2  0  0  0  0  0  0
  161.8440  207.5810  150.8930 C   0  0  0  0  0  0  0  0  0  0  0  0
  161.5280  206.3110  152.6200 C   0  0  0  0  0  0  0  0  0  0  0  0
  160.2530  209.3680  156.4520 C   0  0  0  0  0  3  0  0  0  0  0  0
  161.2970  208.7130  152.9150 N   0  0  0  0  0  0  0  0  0  0  0  0
  160.4960  206.9750  156.1140 C   0  0  0  0  0  3  0  0  0  0  0  0
  160.8610  207.1970  154.7840 C   0  0  0  0  0  0  0  0  0  0  0  0
  161.9420  206.3010  150.4150 C   0  0  0  0  0  0  0  0  0  0  0  0
  161.1470  206.0460  153.8760 C   0  0  0  0  0  3  0  0  0  0  0  0
  161.9580  206.0080  148.9470 C   0  0  0  0  0  2  0  0  0  0  0  0
  161.2280  209.9370  152.2130 N   0  0  0  0  0  0  0  0  0  0  0  0
  161.4710  209.9720  150.9190 C   0  0  0  0  0  0  0  0  0  0  0  0
  160.9180  208.5260  154.2850 C   0  0  0  0  0  0  0  0  0  0  0  0
  161.7320  205.4640  151.5210 C   0  0  0  0  0  0  0  0  0  0  0  0
  162.4480  207.2620  148.1860 C   0  0  0  0  0  2  0  0  0  0  0  0
  160.1960  208.0590  156.9470 C   0  0  0  0  0  3  0  0  0  0  0  0
  160.6130  209.6040  155.1210 C   0  0  0  0  0  3  0  0  0  0  0  0
  160.4200  213.4750  149.8860 C   0  0  0  0  0  0  0  0  0  0  0  0
  159.5500  214.4520  150.2420 F   0  0  0  0  0  0  0  0  0  0  0  0
  161.3730  211.2590  150.2090 C   0  0  0  0  0  0  0  0  0  0  0  0
  161.2700  213.6820  148.7980 C   0  0  0  0  0  3  0  0  0  0  0  0
  162.2110  211.4760  149.1060 C   0  0  0  0  0  3  0  0  0  0  0  0
  160.4590  212.2630  150.5940 C   0  0  0  0  0  0  0  0  0  0  0  0
  159.3040  212.0080  151.9010 Cl  0  0  0  0  0  0  0  0  0  0  0  0
  162.1600  212.6800  148.4010 C   0  0  0  0  0  0  0  0  0  0  0  0
  162.2790  213.3490  146.0310 C   0  0  0  0  0  1  0  0  0  0  0  0
  163.0720  212.9090  147.2460 C   0  0  0  0  0  2  0  0  0  0  0  0
  161.5920  204.0420  151.4660 N   0  0  0  0  0  2  0  0  0  0  0  0
  160.4290  203.3810  150.9010 C   0  0  0  0  0  2  0  0  0  0  0  0
  160.8280  202.6490  149.6380 C   0  0  0  0  0  1  0  0  0  0  0  0
  1  4  2  0  0  0  0
  1 14  1  0  0  0  0
  2  5  1  0  0  0  0
  2  7  1  0  0  0  0
  3  1  1  0  0  0  0
  4  2  1  0  0  0  0
  5 11  2  0  0  0  0
  6 18  1  0  0  0  0
  7 15  1  0  0  0  0
  8 18  2  0  0  0  0
  9  8  1  0  0  0  0
 10  4  1  0  0  0  0
 10 16  2  0  0  0  0
 11  9  1  0  0  0  0
 12 10  1  0  0  0  0
 13  7  1  0  0  0  0
 14 13  2  0  0  0  0
 15  9  2  0  0  0  0
 15 19  1  0  0  0  0
 16  5  1  0  0  0  0
 17  3  1  0  0  0  0
 17 12  1  0  0  0  0
 19  6  2  0  0  0  0
 20 21  1  0  0  0  0
 20 25  1  0  0  0  0
 22 25  2  0  0  0  0
 22 14  1  0  0  0  0
 23 20  2  0  0  0  0
 24 22  1  0  0  0  0
 25 26  1  0  0  0  0
 27 23  1  0  0  0  0
 27 24  2  0  0  0  0
 28 29  1  0  0  0  0
 29 27  1  0  0  0  0
 30 16  1  0  0  0  0
 31 30  1  0  0  0  0
 32 31  1  0  0  0  0
M  END
>  <MODEL>
5

>  <REMARK>
 VINA RESULT:      -8.5      3.300      7.284
  Name = 
  4 active torsions:
  status: ('A' for Active; 'I' for Inactive)
    1  A    between atoms: C_13  and  N_18
    2  A    between atoms: C_15  and  C_26
    3  A    between atoms: C_16  and  C_27
    4  A    between atoms: N_18  and  C_29
                            x       y       z     vdW  Elec       q    Type
                         _______ _______ _______ _____ _____    ______ ____

>  <TORSDO>
F 4

$$$$
=
 OpenBabel11062408243D

 32 37  0  0  0  0  0  0  0  0999 V2000
  161.0270  205.0280  150.7550 C   0  0  0  0  0  0  0  0  0  0  0  0
  160.7820  204.1580  148.6230 N   0  0  0  0  0  0  0  0  0  0  0  0
  161.3530  204.7250  152.2030 C   0  0  0  0  0  2  0  0  0  0  0  0
  160.8540  204.0010  149.9300 C   0  0  0  0  0  0  0  0  0  0  0  0
  160.8560  202.9650  148.0270 C   0  0  0  0  0  0  0  0  0  0  0  0
  161.2030  206.5230  144.4390 C   0  0  0  0  0  3  0  0  0  0  0  0
  160.9320  205.3940  148.0000 N   0  0  0  0  0  0  0  0  0  0  0  0
  161.1240  204.0960  144.5110 C   0  0  0  0  0  3  0  0  0  0  0  0
  161.0320  204.1370  145.9040 C   0  0  0  0  0  0  0  0  0  0  0  0
  160.9040  202.6700  150.2500 C   0  0  0  0  0  0  0  0  0  0  0  0
  160.9800  202.8730  146.6960 C   0  0  0  0  0  3  0  0  0  0  0  0
  161.2010  202.2070  151.6420 C   0  0  0  0  0  2  0  0  0  0  0  0
  161.0980  206.5290  148.8240 N   0  0  0  0  0  0  0  0  0  0  0  0
  161.1250  206.3970  150.1340 C   0  0  0  0  0  0  0  0  0  0  0  0
  161.0290  205.3930  146.5690 C   0  0  0  0  0  0  0  0  0  0  0  0
  160.9140  201.9830  149.0270 C   0  0  0  0  0  0  0  0  0  0  0  0
  160.8310  203.3300  152.6390 C   0  0  0  0  0  2  0  0  0  0  0  0
  161.2060  205.2870  143.7800 C   0  0  0  0  0  3  0  0  0  0  0  0
  161.1160  206.5780  145.8340 C   0  0  0  0  0  3  0  0  0  0  0  0
  161.9610  209.9220  151.2830 C   0  0  0  0  0  0  0  0  0  0  0  0
  162.4310  211.0960  150.7940 F   0  0  0  0  0  0  0  0  0  0  0  0
  161.3180  207.5960  150.9690 C   0  0  0  0  0  0  0  0  0  0  0  0
  161.6420  209.8260  152.6400 C   0  0  0  0  0  3  0  0  0  0  0  0
  161.0150  207.5120  152.3350 C   0  0  0  0  0  3  0  0  0  0  0  0
  161.8100  208.8090  150.4410 C   0  0  0  0  0  0  0  0  0  0  0  0
  162.3130  208.9460  148.7570 Cl  0  0  0  0  0  0  0  0  0  0  0  0
  161.1770  208.6200  153.1680 C   0  0  0  0  0  0  0  0  0  0  0  0
  160.4560  207.0990  154.9690 C   0  0  0  0  0  1  0  0  0  0  0  0
  160.8280  208.5250  154.6140 C   0  0  0  0  0  2  0  0  0  0  0  0
  161.1150  200.5760  148.8710 N   0  0  0  0  0  2  0  0  0  0  0  0
  162.0080  200.0080  147.8770 C   0  0  0  0  0  2  0  0  0  0  0  0
  161.2060  199.5700  146.6700 C   0  0  0  0  0  1  0  0  0  0  0  0
  1  3  1  0  0  0  0
  2  4  1  0  0  0  0
  3 17  1  0  0  0  0
  4 10  1  0  0  0  0
  4  1  2  0  0  0  0
  5  2  1  0  0  0  0
  5 16  1  0  0  0  0
  6 19  1  0  0  0  0
  7  2  1  0  0  0  0
  7 13  1  0  0  0  0
  8  9  2  0  0  0  0
  9 15  1  0  0  0  0
  9 11  1  0  0  0  0
 10 12  1  0  0  0  0
 11  5  2  0  0  0  0
 12 17  1  0  0  0  0
 13 14  2  0  0  0  0
 14  1  1  0  0  0  0
 14 22  1  0  0  0  0
 15  7  1  0  0  0  0
 16 10  2  0  0  0  0
 18  6  2  0  0  0  0
 18  8  1  0  0  0  0
 19 15  2  0  0  0  0
 20 23  1  0  0  0  0
 21 20  1  0  0  0  0
 22 24  2  0  0  0  0
 23 27  2  0  0  0  0
 24 27  1  0  0  0  0
 25 22  1  0  0  0  0
 25 20  2  0  0  0  0
 26 25  1  0  0  0  0
 27 29  1  0  0  0  0
 29 28  1  0  0  0  0
 30 16  1  0  0  0  0
 31 30  1  0  0  0  0
 32 31  1  0  0  0  0
M  END
>  <MODEL>
6

>  <REMARK>
 VINA RESULT:      -8.4      2.409      6.848
  Name = 
  4 active torsions:
  status: ('A' for Active; 'I' for Inactive)
    1  A    between atoms: C_13  and  N_18
    2  A    between atoms: C_15  and  C_26
    3  A    between atoms: C_16  and  C_27
    4  A    between atoms: N_18  and  C_29
                            x       y       z     vdW  Elec       q    Type
                         _______ _______ _______ _____ _____    ______ ____

>  <TORSDO>
F 4

$$$$
=
 OpenBabel11062408243D

 32 37  0  0  0  0  0  0  0  0999 V2000
  161.6320  209.2520  151.3060 C   0  0  0  0  0  0  0  0  0  0  0  0
  161.7180  207.1140  150.4200 N   0  0  0  0  0  0  0  0  0  0  0  0
  161.4990  210.7300  151.0040 C   0  0  0  0  0  2  0  0  0  0  0  0
  161.8070  208.4220  150.2830 C   0  0  0  0  0  0  0  0  0  0  0  0
  161.6880  206.5420  149.2130 C   0  0  0  0  0  0  0  0  0  0  0  0
  160.6140  202.9810  152.6510 C   0  0  0  0  0  3  0  0  0  0  0  0
  161.3850  206.5000  151.6240 N   0  0  0  0  0  0  0  0  0  0  0  0
  160.9260  203.0680  150.2430 C   0  0  0  0  0  3  0  0  0  0  0  0
  161.1690  204.4410  150.3210 C   0  0  0  0  0  0  0  0  0  0  0  0
  161.9160  208.7590  148.9600 C   0  0  0  0  0  0  0  0  0  0  0  0
  161.4260  205.2350  149.0830 C   0  0  0  0  0  3  0  0  0  0  0  0
  161.8220  210.1810  148.5000 C   0  0  0  0  0  2  0  0  0  0  0  0
  161.2070  207.3260  152.7560 N   0  0  0  0  0  0  0  0  0  0  0  0
  161.3390  208.6320  152.6490 C   0  0  0  0  0  0  0  0  0  0  0  0
  161.1290  205.0890  151.5850 C   0  0  0  0  0  0  0  0  0  0  0  0
  161.8350  207.5520  148.2510 C   0  0  0  0  0  0  0  0  0  0  0  0
  162.1940  211.1180  149.6720 C   0  0  0  0  0  2  0  0  0  0  0  0
  160.6520  202.3400  151.4070 C   0  0  0  0  0  3  0  0  0  0  0  0
  160.8510  204.3570  152.7420 C   0  0  0  0  0  3  0  0  0  0  0  0
  159.9080  211.1600  155.0990 C   0  0  0  0  0  0  0  0  0  0  0  0
  158.8920  212.0520  155.2060 F   0  0  0  0  0  0  0  0  0  0  0  0
  161.1290  209.4720  153.8410 C   0  0  0  0  0  0  0  0  0  0  0  0
  160.8070  211.0200  156.1580 C   0  0  0  0  0  3  0  0  0  0  0  0
  162.0310  209.3520  154.9070 C   0  0  0  0  0  3  0  0  0  0  0  0
  160.0650  210.3960  153.9320 C   0  0  0  0  0  0  0  0  0  0  0  0
  158.9650  210.6730  152.5830 Cl  0  0  0  0  0  0  0  0  0  0  0  0
  161.8730  210.1230  156.0610 C   0  0  0  0  0  0  0  0  0  0  0  0
  163.7920  211.1340  157.2320 C   0  0  0  0  0  1  0  0  0  0  0  0
  162.8240  209.9680  157.1970 C   0  0  0  0  0  2  0  0  0  0  0  0
  161.7490  207.4340  146.8280 N   0  0  0  0  0  2  0  0  0  0  0  0
  160.9440  206.4250  146.1630 C   0  0  0  0  0  2  0  0  0  0  0  0
  161.8360  205.5420  145.3180 C   0  0  0  0  0  1  0  0  0  0  0  0
  1 14  1  0  0  0  0
  2  7  1  0  0  0  0
  3  1  1  0  0  0  0
  4  2  1  0  0  0  0
  4  1  2  0  0  0  0
  5  2  1  0  0  0  0
  6 19  1  0  0  0  0
  7 13  1  0  0  0  0
  8  9  2  0  0  0  0
  8 18  1  0  0  0  0
  9 15  1  0  0  0  0
 10  4  1  0  0  0  0
 11  5  2  0  0  0  0
 11  9  1  0  0  0  0
 12 10  1  0  0  0  0
 12 17  1  0  0  0  0
 14 13  2  0  0  0  0
 14 22  1  0  0  0  0
 15  7  1  0  0  0  0
 15 19  2  0  0  0  0
 16 10  2  0  0  0  0
 16  5  1  0  0  0  0
 17  3  1  0  0  0  0
 18  6  2  0  0  0  0
 20 21  1  0  0  0  0
 20 23  1  0  0  0  0
 22 25  1  0  0  0  0
 22 24  2  0  0  0  0
 24 27  1  0  0  0  0
 25 20  2  0  0  0  0
 26 25  1  0  0  0  0
 27 23  2  0  0  0  0
 27 29  1  0  0  0  0
 29 28  1  0  0  0  0
 30 16  1  0  0  0  0
 31 30  1  0  0  0  0
 32 31  1  0  0  0  0
M  END
>  <MODEL>
7

>  <REMARK>
 VINA RESULT:      -7.7      3.458      8.593
  Name = 
  4 active torsions:
  status: ('A' for Active; 'I' for Inactive)
    1  A    between atoms: C_13  and  N_18
    2  A    between atoms: C_15  and  C_26
    3  A    between atoms: C_16  and  C_27
    4  A    between atoms: N_18  and  C_29
                            x       y       z     vdW  Elec       q    Type
                         _______ _______ _______ _____ _____    ______ ____

>  <TORSDO>
F 4

$$$$
=
 OpenBabel11062408243D

 32 37  0  0  0  0  0  0  0  0999 V2000
  161.2360  207.3750  152.1370 C   0  0  0  0  0  0  0  0  0  0  0  0
  161.0150  209.6330  152.6030 N   0  0  0  0  0  0  0  0  0  0  0  0
  161.0530  205.9640  152.6560 C   0  0  0  0  0  2  0  0  0  0  0  0
  161.0900  208.3770  152.9970 C   0  0  0  0  0  0  0  0  0  0  0  0
  160.6260  210.3980  153.6270 C   0  0  0  0  0  0  0  0  0  0  0  0
  160.5140  213.2340  149.4320 C   0  0  0  0  0  3  0  0  0  0  0  0
  161.0310  210.0080  151.2620 N   0  0  0  0  0  0  0  0  0  0  0  0
  160.1190  213.5810  151.8040 C   0  0  0  0  0  3  0  0  0  0  0  0
  160.4040  212.2360  152.0510 C   0  0  0  0  0  0  0  0  0  0  0  0
  160.8190  208.2790  154.3360 C   0  0  0  0  0  0  0  0  0  0  0  0
  160.3090  211.6850  153.4360 C   0  0  0  0  0  3  0  0  0  0  0  0
  160.6270  206.9530  155.0050 C   0  0  0  0  0  2  0  0  0  0  0  0
  161.2060  208.9900  150.2980 N   0  0  0  0  0  0  0  0  0  0  0  0
  161.3300  207.7350  150.6760 C   0  0  0  0  0  0  0  0  0  0  0  0
  160.7450  211.3810  150.9680 C   0  0  0  0  0  0  0  0  0  0  0  0
  160.5100  209.5790  154.7600 C   0  0  0  0  0  0  0  0  0  0  0  0
  161.3420  205.8600  154.1770 C   0  0  0  0  0  2  0  0  0  0  0  0
  160.1780  214.0790  150.4970 C   0  0  0  0  0  3  0  0  0  0  0  0
  160.7970  211.8840  149.6650 C   0  0  0  0  0  3  0  0  0  0  0  0
  162.1810  205.9300  147.4420 C   0  0  0  0  0  0  0  0  0  0  0  0
  162.7060  206.1750  146.2160 F   0  0  0  0  0  0  0  0  0  0  0  0
  161.4920  206.6920  149.6480 C   0  0  0  0  0  0  0  0  0  0  0  0
  161.7690  204.6340  147.7610 C   0  0  0  0  0  3  0  0  0  0  0  0
  161.0710  205.3890  149.9490 C   0  0  0  0  0  3  0  0  0  0  0  0
  162.0390  206.9680  148.3770 C   0  0  0  0  0  0  0  0  0  0  0  0
  162.4850  208.6050  147.8990 Cl  0  0  0  0  0  0  0  0  0  0  0  0
  161.2060  204.3640  149.0110 C   0  0  0  0  0  0  0  0  0  0  0  0
  160.8320  202.7680  150.8520 C   0  0  0  0  0  1  0  0  0  0  0  0
  160.7780  202.9780  149.3510 C   0  0  0  0  0  2  0  0  0  0  0  0
  160.0150  209.9310  156.0550 N   0  0  0  0  0  2  0  0  0  0  0  0
  160.8360  209.9050  157.2520 C   0  0  0  0  0  2  0  0  0  0  0  0
  162.1910  210.5070  156.9470 C   0  0  0  0  0  1  0  0  0  0  0  0
  1  3  1  0  0  0  0
  1  4  2  0  0  0  0
  2  4  1  0  0  0  0
  2  5  1  0  0  0  0
  3 17  1  0  0  0  0
  4 10  1  0  0  0  0
  5 16  1  0  0  0  0
  6 19  2  0  0  0  0
  6 18  1  0  0  0  0
  7  2  1  0  0  0  0
  8  9  1  0  0  0  0
  9 11  1  0  0  0  0
 10 16  2  0  0  0  0
 10 12  1  0  0  0  0
 11  5  2  0  0  0  0
 13 14  2  0  0  0  0
 13  7  1  0  0  0  0
 14  1  1  0  0  0  0
 15  7  1  0  0  0  0
 15  9  2  0  0  0  0
 16 30  1  0  0  0  0
 17 12  1  0  0  0  0
 18  8  2  0  0  0  0
 19 15  1  0  0  0  0
 20 23  2  0  0  0  0
 20 25  1  0  0  0  0
 21 20  1  0  0  0  0
 22 24  1  0  0  0  0
 22 14  1  0  0  0  0
 23 27  1  0  0  0  0
 25 22  2  0  0  0  0
 26 25  1  0  0  0  0
 27 29  1  0  0  0  0
 27 24  2  0  0  0  0
 29 28  1  0  0  0  0
 30 31  1  0  0  0  0
 32 31  1  0  0  0  0
M  END
>  <MODEL>
8

>  <REMARK>
 VINA RESULT:      -7.5      2.304      3.507
  Name = 
  4 active torsions:
  status: ('A' for Active; 'I' for Inactive)
    1  A    between atoms: C_13  and  N_18
    2  A    between atoms: C_15  and  C_26
    3  A    between atoms: C_16  and  C_27
    4  A    between atoms: N_18  and  C_29
                            x       y       z     vdW  Elec       q    Type
                         _______ _______ _______ _____ _____    ______ ____

>  <TORSDO>
F 4

$$$$
