=
 OpenBabel11062409293D

 34 39  0  0  1  0  0  0  0  0999 V2000
  161.0960  209.1310  152.9030 C   0  0  0  0  0  0  0  0  0  0  0  0
  161.8050  205.6240  151.5310 C   0  0  0  0  0  2  0  0  0  0  0  0
  161.0910  206.4360  153.7740 C   0  0  0  0  0  3  0  0  0  0  0  0
  160.3990  209.6390  155.3850 C   0  0  1  0  0  3  0  0  0  0  0  0
  160.0080  208.7250  156.4710 N   0  0  0  0  0  0  0  0  0  0  0  0
  161.5490  210.4180  155.8150 N   0  0  0  0  0  1  0  0  0  0  0  0
  160.7540  207.4760  154.6320 C   0  0  0  0  0  0  0  0  0  0  0  0
  160.7730  208.7790  154.2340 C   0  0  0  0  0  0  0  0  0  0  0  0
  160.3260  207.3600  156.0360 C   0  0  0  0  0  3  0  0  0  0  0  0
  160.8500  205.5520  150.5080 O   0  0  0  0  0  0  0  0  0  0  0  0
  161.3880  206.2760  149.4360 C   0  0  2  0  0  3  0  0  0  0  0  0
  161.0090  207.7510  149.5560 C   0  0  0  0  0  2  0  0  0  0  0  0
  161.4590  206.7440  152.4590 C   0  0  0  0  0  0  0  0  0  0  0  0
  161.8740  208.4380  150.6070 C   0  0  0  0  0  2  0  0  0  0  0  0
  161.4510  208.0920  152.0110 C   0  0  0  0  0  0  0  0  0  0  0  0
  160.8460  205.7220  148.1310 C   0  0  0  0  0  3  0  0  0  0  0  0
  161.9030  204.8630  147.4670 C   0  0  0  0  0  2  0  0  0  0  0  0
  161.6580  206.2730  146.9770 C   0  0  0  0  0  2  0  0  0  0  0  0
  160.0010  211.2370  152.3860 C   0  0  0  0  0  3  0  0  0  0  0  0
  161.0500  210.4800  152.4070 N   0  0  0  0  0  0  0  0  0  0  0  0
  160.0860  212.6130  151.8170 C   0  0  0  0  0  2  0  0  0  0  0  0
  158.6870  213.4880  148.4960 C   0  0  0  0  0  2  0  0  0  0  0  0
  161.2580  212.9410  149.7990 C   0  0  0  0  0  2  0  0  0  0  0  0
  161.0460  213.3410  145.5160 C   0  0  0  0  0  0  0  0  0  0  0  0
  159.8920  213.5060  146.2990 C   0  0  0  0  0  3  0  0  0  0  0  0
  159.9510  213.3680  147.6890 C   0  0  0  0  0  0  0  0  0  0  0  0
  162.3260  212.8830  147.5320 C   0  0  0  0  0  3  0  0  0  0  0  0
  161.1740  213.0360  148.3050 C   0  0  0  0  0  0  0  0  0  0  0  0
  162.2620  213.0300  146.1430 C   0  0  0  0  0  3  0  0  0  0  0  0
  159.9610  212.5640  150.3690 N   0  0  0  0  0  0  0  0  0  0  0  0
  158.9880  213.5870  149.9920 C   0  0  0  0  0  2  0  0  0  0  0  0
  160.9820  213.4840  144.0480 C   0  0  0  0  0  0  0  0  0  0  0  0
  161.8160  212.6860  143.2120 N   0  0  0  0  0  2  0  0  0  0  0  0
  160.1780  214.3400  143.5060 N   0  0  0  0  0  1  0  0  0  0  0  0
  1  8  1  0  0  0  0
  2 13  1  0  0  0  0
  3  7  1  0  0  0  0
  4  6  1  1  0  0  0
  4  5  1  0  0  0  0
  7  9  1  0  0  0  0
  8  7  2  0  0  0  0
  8  4  1  0  0  0  0
  9  5  2  0  0  0  0
 10  2  1  0  0  0  0
 11 16  1  6  0  0  0
 11 12  1  0  0  0  0
 11 10  1  0  0  0  0
 12 14  1  0  0  0  0
 13  3  2  0  0  0  0
 14 15  1  0  0  0  0
 15 13  1  0  0  0  0
 15  1  2  0  0  0  0
 17 16  1  0  0  0  0
 18 17  1  0  0  0  0
 18 16  1  0  0  0  0
 19 20  2  0  0  0  0
 20  1  1  0  0  0  0
 21 19  1  0  0  0  0
 22 31  1  0  0  0  0
 23 30  1  0  0  0  0
 24 29  2  0  0  0  0
 24 25  1  0  0  0  0
 25 26  2  0  0  0  0
 26 28  1  0  0  0  0
 26 22  1  0  0  0  0
 27 28  2  0  0  0  0
 28 23  1  0  0  0  0
 29 27  1  0  0  0  0
 30 21  1  0  0  0  0
 31 30  1  0  0  0  0
 32 24  1  0  0  0  0
 33 32  2  0  0  0  0
 34 32  1  0  0  0  0
M  END
>  <MODEL>
1

>  <REMARK>
 VINA RESULT:      -8.5      0.000      0.000
  Name = 
  5 active torsions:
  status: ('A' for Active; 'I' for Inactive)
    1  A    between atoms: C_1  and  N_9
    2  A    between atoms: C_3  and  C_25
    3  A    between atoms: C_7  and  C_11
    4  A    between atoms: C_8  and  C_18
    5  A    between atoms: C_18  and  N_30
                            x       y       z     vdW  Elec       q    Type
                         _______ _______ _______ _____ _____    ______ ____

>  <TORSDO>
F 5

$$$$
=
 OpenBabel11062409293D

 34 39  0  0  1  0  0  0  0  0999 V2000
  160.3660  211.7730  152.4120 C   0  0  0  0  0  0  0  0  0  0  0  0
  159.4050  211.7570  156.1220 C   0  0  0  0  0  2  0  0  0  0  0  0
  158.4990  212.9920  154.1580 C   0  0  0  0  0  3  0  0  0  0  0  0
  159.2080  213.2680  150.5870 C   0  0  1  0  0  3  0  0  0  0  0  0
  157.9930  214.0950  150.6630 N   0  0  0  0  0  0  0  0  0  0  0  0
  160.3300  214.1120  150.2060 N   0  0  0  0  0  1  0  0  0  0  0  0
  158.5210  213.2870  152.8010 C   0  0  0  0  0  0  0  0  0  0  0  0
  159.4270  212.7260  151.9520 C   0  0  0  0  0  0  0  0  0  0  0  0
  157.6120  214.1910  152.0780 C   0  0  0  0  0  3  0  0  0  0  0  0
  159.0530  210.4110  156.2890 O   0  0  0  0  0  0  0  0  0  0  0  0
  160.2640  209.7160  156.4140 C   0  0  2  0  0  3  0  0  0  0  0  0
  160.7810  209.3120  155.0350 C   0  0  0  0  0  2  0  0  0  0  0  0
  159.4400  212.0870  154.6630 C   0  0  0  0  0  0  0  0  0  0  0  0
  161.4070  210.5090  154.3280 C   0  0  0  0  0  2  0  0  0  0  0  0
  160.3710  211.4620  153.7920 C   0  0  0  0  0  0  0  0  0  0  0  0
  160.0450  208.4720  157.2550 C   0  0  0  0  0  3  0  0  0  0  0  0
  161.2920  207.6100  157.2190 C   0  0  0  0  0  2  0  0  0  0  0  0
  160.0980  207.2490  156.3620 C   0  0  0  0  0  2  0  0  0  0  0  0
  161.2550  209.8260  151.2630 C   0  0  0  0  0  3  0  0  0  0  0  0
  161.2880  211.0880  151.5470 N   0  0  0  0  0  0  0  0  0  0  0  0
  162.2930  209.2360  150.3690 C   0  0  0  0  0  2  0  0  0  0  0  0
  161.1750  205.9180  151.5910 C   0  0  0  0  0  2  0  0  0  0  0  0
  161.7120  207.3480  149.0860 C   0  0  0  0  0  2  0  0  0  0  0  0
  160.9130  203.1150  149.0320 C   0  0  0  0  0  0  0  0  0  0  0  0
  160.8840  203.8250  150.2440 C   0  0  0  0  0  3  0  0  0  0  0  0
  161.1510  205.1970  150.2700 C   0  0  0  0  0  0  0  0  0  0  0  0
  161.4960  205.1680  147.8660 C   0  0  0  0  0  3  0  0  0  0  0  0
  161.4780  205.8670  149.0750 C   0  0  0  0  0  0  0  0  0  0  0  0
  161.2200  203.7970  147.8460 C   0  0  0  0  0  3  0  0  0  0  0  0
  162.2080  207.7840  150.3940 N   0  0  0  0  0  0  0  0  0  0  0  0
  161.2040  207.4350  151.3970 C   0  0  0  0  0  2  0  0  0  0  0  0
  160.6330  201.6670  149.0060 C   0  0  0  0  0  0  0  0  0  0  0  0
  161.1550  200.8530  147.9590 N   0  0  0  0  0  2  0  0  0  0  0  0
  159.9040  201.1220  149.9240 N   0  0  0  0  0  1  0  0  0  0  0  0
  1 15  1  0  0  0  0
  2 10  1  0  0  0  0
  3 13  1  0  0  0  0
  4  6  1  1  0  0  0
  4  5  1  0  0  0  0
  4  8  1  0  0  0  0
  5  9  2  0  0  0  0
  7  3  2  0  0  0  0
  8  1  2  0  0  0  0
  8  7  1  0  0  0  0
  9  7  1  0  0  0  0
 10 11  1  0  0  0  0
 11 16  1  1  0  0  0
 12 11  1  0  0  0  0
 13  2  1  0  0  0  0
 14 12  1  0  0  0  0
 15 14  1  0  0  0  0
 15 13  2  0  0  0  0
 17 16  1  0  0  0  0
 18 17  1  0  0  0  0
 18 16  1  0  0  0  0
 19 20  2  0  0  0  0
 20  1  1  0  0  0  0
 21 30  1  0  0  0  0
 21 19  1  0  0  0  0
 23 30  1  0  0  0  0
 24 25  1  0  0  0  0
 25 26  2  0  0  0  0
 26 22  1  0  0  0  0
 27 28  2  0  0  0  0
 28 23  1  0  0  0  0
 28 26  1  0  0  0  0
 29 27  1  0  0  0  0
 29 24  2  0  0  0  0
 30 31  1  0  0  0  0
 31 22  1  0  0  0  0
 32 24  1  0  0  0  0
 32 34  1  0  0  0  0
 33 32  2  0  0  0  0
M  END
>  <MODEL>
2

>  <REMARK>
 VINA RESULT:      -8.4      3.451      7.986
  Name = 
  5 active torsions:
  status: ('A' for Active; 'I' for Inactive)
    1  A    between atoms: C_1  and  N_9
    2  A    between atoms: C_3  and  C_25
    3  A    between atoms: C_7  and  C_11
    4  A    between atoms: C_8  and  C_18
    5  A    between atoms: C_18  and  N_30
                            x       y       z     vdW  Elec       q    Type
                         _______ _______ _______ _____ _____    ______ ____

>  <TORSDO>
F 5

$$$$
=
 OpenBabel11062409293D

 34 39  0  0  1  0  0  0  0  0999 V2000
  161.9560  208.8260  150.7700 C   0  0  0  0  0  0  0  0  0  0  0  0
  161.6910  205.1040  149.8950 C   0  0  0  0  0  2  0  0  0  0  0  0
  161.1220  206.3900  151.9500 C   0  0  0  0  0  3  0  0  0  0  0  0
  161.3020  209.8520  153.1000 C   0  0  1  0  0  3  0  0  0  0  0  0
  160.6040  209.2450  154.2460 N   0  0  0  0  0  0  0  0  0  0  0  0
  162.6040  210.3290  153.5390 N   0  0  0  0  0  1  0  0  0  0  0  0
  161.0550  207.5920  152.6450 C   0  0  0  0  0  0  0  0  0  0  0  0
  161.4730  208.7680  152.0990 C   0  0  0  0  0  0  0  0  0  0  0  0
  160.5360  207.7980  154.0060 C   0  0  0  0  0  3  0  0  0  0  0  0
  160.8140  205.1600  148.8050 O   0  0  0  0  0  0  0  0  0  0  0  0
  161.5970  205.5470  147.7080 C   0  0  2  0  0  3  0  0  0  0  0  0
  161.6560  207.0710  147.6180 C   0  0  0  0  0  2  0  0  0  0  0  0
  161.6350  206.3950  150.6480 C   0  0  0  0  0  0  0  0  0  0  0  0
  162.6240  207.6290  148.6550 C   0  0  0  0  0  2  0  0  0  0  0  0
  162.0430  207.6140  150.0440 C   0  0  0  0  0  0  0  0  0  0  0  0
  160.9890  204.9900  146.4340 C   0  0  0  0  0  3  0  0  0  0  0  0
  161.9220  203.9550  145.8370 C   0  0  0  0  0  2  0  0  0  0  0  0
  161.8730  205.3520  145.2580 C   0  0  0  0  0  2  0  0  0  0  0  0
  161.5110  210.9640  149.7060 C   0  0  0  0  0  3  0  0  0  0  0  0
  162.3300  210.0500  150.1170 N   0  0  0  0  0  0  0  0  0  0  0  0
  162.0330  212.1780  149.0160 C   0  0  0  0  0  2  0  0  0  0  0  0
  159.9080  212.5880  146.0040 C   0  0  0  0  0  2  0  0  0  0  0  0
  162.6800  212.9620  146.8900 C   0  0  0  0  0  2  0  0  0  0  0  0
  161.6640  213.3820  142.7250 C   0  0  0  0  0  0  0  0  0  0  0  0
  160.6660  213.0990  143.6710 C   0  0  0  0  0  3  0  0  0  0  0  0
  160.9890  212.9530  145.0230 C   0  0  0  0  0  0  0  0  0  0  0  0
  163.3260  213.3560  144.5000 C   0  0  0  0  0  3  0  0  0  0  0  0
  162.3310  213.0630  145.4350 C   0  0  0  0  0  0  0  0  0  0  0  0
  162.9950  213.5100  143.1500 C   0  0  0  0  0  3  0  0  0  0  0  0
  161.7050  212.1280  147.5990 N   0  0  0  0  0  0  0  0  0  0  0  0
  160.3890  212.7460  147.4480 C   0  0  0  0  0  2  0  0  0  0  0  0
  161.3220  213.5350  141.2980 C   0  0  0  0  0  0  0  0  0  0  0  0
  160.0580  213.0920  140.8100 N   0  0  0  0  0  1  0  0  0  0  0  0
  162.1670  214.0620  140.4730 N   0  0  0  0  0  2  0  0  0  0  0  0
  1  8  1  0  0  0  0
  2 13  1  0  0  0  0
  3  7  1  0  0  0  0
  4  6  1  1  0  0  0
  4  5  1  0  0  0  0
  7  9  1  0  0  0  0
  8  7  2  0  0  0  0
  8  4  1  0  0  0  0
  9  5  2  0  0  0  0
 10  2  1  0  0  0  0
 11 16  1  6  0  0  0
 11 10  1  0  0  0  0
 12 11  1  0  0  0  0
 12 14  1  0  0  0  0
 13  3  2  0  0  0  0
 14 15  1  0  0  0  0
 15 13  1  0  0  0  0
 15  1  2  0  0  0  0
 17 16  1  0  0  0  0
 18 17  1  0  0  0  0
 18 16  1  0  0  0  0
 19 20  2  0  0  0  0
 20  1  1  0  0  0  0
 21 19  1  0  0  0  0
 22 31  1  0  0  0  0
 23 30  1  0  0  0  0
 24 29  2  0  0  0  0
 24 25  1  0  0  0  0
 25 26  2  0  0  0  0
 26 28  1  0  0  0  0
 26 22  1  0  0  0  0
 27 28  2  0  0  0  0
 28 23  1  0  0  0  0
 29 27  1  0  0  0  0
 30 21  1  0  0  0  0
 31 30  1  0  0  0  0
 32 24  1  0  0  0  0
 33 32  1  0  0  0  0
 34 32  2  0  0  0  0
M  END
>  <MODEL>
3

>  <REMARK>
 VINA RESULT:      -8.3      1.726      2.597
  Name = 
  5 active torsions:
  status: ('A' for Active; 'I' for Inactive)
    1  A    between atoms: C_1  and  N_9
    2  A    between atoms: C_3  and  C_25
    3  A    between atoms: C_7  and  C_11
    4  A    between atoms: C_8  and  C_18
    5  A    between atoms: C_18  and  N_30
                            x       y       z     vdW  Elec       q    Type
                         _______ _______ _______ _____ _____    ______ ____

>  <TORSDO>
F 5

$$$$
=
 OpenBabel11062409293D

 34 39  0  0  1  0  0  0  0  0999 V2000
  159.5840  212.7340  151.5230 C   0  0  0  0  0  0  0  0  0  0  0  0
  156.4230  214.1390  153.1720 C   0  0  0  0  0  2  0  0  0  0  0  0
  157.2140  214.1110  150.8110 C   0  0  0  0  0  3  0  0  0  0  0  0
  160.1330  212.9320  148.9610 C   0  0  1  0  0  3  0  0  0  0  0  0
  159.2940  213.3850  147.8390 N   0  0  0  0  0  0  0  0  0  0  0  0
  161.3260  213.7610  149.0230 N   0  0  0  0  0  1  0  0  0  0  0  0
  158.1650  213.7670  149.8590 C   0  0  0  0  0  0  0  0  0  0  0  0
  159.3200  213.1240  150.1890 C   0  0  0  0  0  0  0  0  0  0  0  0
  158.0910  214.0060  148.4090 C   0  0  0  0  0  3  0  0  0  0  0  0
  155.8730  212.9680  153.7090 O   0  0  0  0  0  0  0  0  0  0  0  0
  156.5920  212.7160  154.8860 C   0  0  2  0  0  3  0  0  0  0  0  0
  157.8310  211.8790  154.5740 C   0  0  0  0  0  2  0  0  0  0  0  0
  157.4550  213.7830  152.1500 C   0  0  0  0  0  0  0  0  0  0  0  0
  158.9190  212.7480  153.9550 C   0  0  0  0  0  2  0  0  0  0  0  0
  158.6350  213.0810  152.5140 C   0  0  0  0  0  0  0  0  0  0  0  0
  155.7090  211.9650  155.8650 C   0  0  0  0  0  3  0  0  0  0  0  0
  155.3120  212.8870  157.0000 C   0  0  0  0  0  2  0  0  0  0  0  0
  156.4140  211.8700  157.2030 C   0  0  0  0  0  2  0  0  0  0  0  0
  160.8370  210.6900  151.9150 C   0  0  0  0  0  3  0  0  0  0  0  0
  160.7450  211.9810  151.9140 N   0  0  0  0  0  0  0  0  0  0  0  0
  162.0960  210.0340  152.3720 C   0  0  0  0  0  2  0  0  0  0  0  0
  161.2170  206.4400  152.6340 C   0  0  0  0  0  2  0  0  0  0  0  0
  161.5760  208.5450  150.6220 C   0  0  0  0  0  2  0  0  0  0  0  0
  161.0200  204.4530  149.3970 C   0  0  0  0  0  0  0  0  0  0  0  0
  160.9960  204.7930  150.7590 C   0  0  0  0  0  3  0  0  0  0  0  0
  161.1850  206.1170  151.1650 C   0  0  0  0  0  0  0  0  0  0  0  0
  161.4390  206.7830  148.8430 C   0  0  0  0  0  3  0  0  0  0  0  0
  161.4270  207.1140  150.2000 C   0  0  0  0  0  0  0  0  0  0  0  0
  161.2410  205.4580  148.4440 C   0  0  0  0  0  3  0  0  0  0  0  0
  162.0960  208.6310  151.9890 N   0  0  0  0  0  0  0  0  0  0  0  0
  161.1530  207.9500  152.8740 C   0  0  0  0  0  2  0  0  0  0  0  0
  160.8220  203.0540  148.9700 C   0  0  0  0  0  0  0  0  0  0  0  0
  161.1810  202.6480  147.6520 N   0  0  0  0  0  2  0  0  0  0  0  0
  160.3140  202.1850  149.7820 N   0  0  0  0  0  1  0  0  0  0  0  0
  1 20  1  0  0  0  0
  1 15  1  0  0  0  0
  2 10  1  0  0  0  0
  3 13  1  0  0  0  0
  4  6  1  1  0  0  0
  4  8  1  0  0  0  0
  5  9  2  0  0  0  0
  5  4  1  0  0  0  0
  7  8  1  0  0  0  0
  7  3  2  0  0  0  0
  8  1  2  0  0  0  0
  9  7  1  0  0  0  0
 10 11  1  0  0  0  0
 11 16  1  1  0  0  0
 12 11  1  0  0  0  0
 13 15  2  0  0  0  0
 13  2  1  0  0  0  0
 14 12  1  0  0  0  0
 15 14  1  0  0  0  0
 16 17  1  0  0  0  0
 16 18  1  0  0  0  0
 17 18  1  0  0  0  0
 19 21  1  0  0  0  0
 20 19  2  0  0  0  0
 22 31  1  0  0  0  0
 23 30  1  0  0  0  0
 24 25  1  0  0  0  0
 25 26  2  0  0  0  0
 26 22  1  0  0  0  0
 27 28  2  0  0  0  0
 28 23  1  0  0  0  0
 28 26  1  0  0  0  0
 29 27  1  0  0  0  0
 29 24  2  0  0  0  0
 30 21  1  0  0  0  0
 30 31  1  0  0  0  0
 32 24  1  0  0  0  0
 32 34  1  0  0  0  0
 33 32  2  0  0  0  0
M  END
>  <MODEL>
4

>  <REMARK>
 VINA RESULT:      -8.2      3.640      8.577
  Name = 
  5 active torsions:
  status: ('A' for Active; 'I' for Inactive)
    1  A    between atoms: C_1  and  N_9
    2  A    between atoms: C_3  and  C_25
    3  A    between atoms: C_7  and  C_11
    4  A    between atoms: C_8  and  C_18
    5  A    between atoms: C_18  and  N_30
                            x       y       z     vdW  Elec       q    Type
                         _______ _______ _______ _____ _____    ______ ____

>  <TORSDO>
F 5

$$$$
=
 OpenBabel11062409293D

 34 39  0  0  1  0  0  0  0  0999 V2000
  161.6340  205.0680  150.9580 C   0  0  0  0  0  0  0  0  0  0  0  0
  162.2120  207.0470  147.7280 C   0  0  0  0  0  2  0  0  0  0  0  0
  161.3860  204.7370  148.1560 C   0  0  0  0  0  3  0  0  0  0  0  0
  160.7870  202.5810  151.0420 C   0  0  1  0  0  3  0  0  0  0  0  0
  160.2560  201.7190  149.9740 N   0  0  0  0  0  0  0  0  0  0  0  0
  161.9500  201.9400  151.6330 N   0  0  0  0  0  1  0  0  0  0  0  0
  161.0550  203.7160  149.0380 C   0  0  0  0  0  0  0  0  0  0  0  0
  161.1890  203.8520  150.3880 C   0  0  0  0  0  0  0  0  0  0  0  0
  160.5160  202.3900  148.6940 C   0  0  0  0  0  3  0  0  0  0  0  0
  161.3340  208.1200  147.9250 O   0  0  0  0  0  0  0  0  0  0  0  0
  161.9970  208.9980  148.7940 C   0  0  2  0  0  3  0  0  0  0  0  0
  161.7080  208.6170  150.2450 C   0  0  0  0  0  2  0  0  0  0  0  0
  161.8710  205.9420  148.6770 C   0  0  0  0  0  0  0  0  0  0  0  0
  162.5340  207.4020  150.6520 C   0  0  0  0  0  2  0  0  0  0  0  0
  161.9860  206.1210  150.0810 C   0  0  0  0  0  0  0  0  0  0  0  0
  161.5200  210.4150  148.5410 C   0  0  0  0  0  3  0  0  0  0  0  0
  162.7150  211.3360  148.3970 C   0  0  0  0  0  2  0  0  0  0  0  0
  161.9410  211.3000  149.6960 C   0  0  0  0  0  2  0  0  0  0  0  0
  160.9820  206.1260  153.0460 C   0  0  0  0  0  3  0  0  0  0  0  0
  161.7130  205.2950  152.3760 N   0  0  0  0  0  0  0  0  0  0  0  0
  161.1890  206.2830  154.5140 C   0  0  0  0  0  2  0  0  0  0  0  0
  160.7550  209.2130  156.7460 C   0  0  0  0  0  2  0  0  0  0  0  0
  160.7820  208.5190  153.8960 C   0  0  0  0  0  2  0  0  0  0  0  0
  159.5810  212.4600  155.1530 C   0  0  0  0  0  0  0  0  0  0  0  0
  159.9950  211.5110  156.1010 C   0  0  0  0  0  3  0  0  0  0  0  0
  160.3770  210.2270  155.7020 C   0  0  0  0  0  0  0  0  0  0  0  0
  159.9220  210.8200  153.3910 C   0  0  0  0  0  3  0  0  0  0  0  0
  160.3210  209.8760  154.3390 C   0  0  0  0  0  0  0  0  0  0  0  0
  159.5490  212.1050  153.7960 C   0  0  0  0  0  3  0  0  0  0  0  0
  160.6100  207.5370  154.9700 N   0  0  0  0  0  0  0  0  0  0  0  0
  161.4030  207.9790  156.1160 C   0  0  0  0  0  2  0  0  0  0  0  0
  159.1750  213.8150  155.5760 C   0  0  0  0  0  0  0  0  0  0  0  0
  158.0550  214.4520  154.9680 N   0  0  0  0  0  2  0  0  0  0  0  0
  159.8350  214.4410  156.4940 N   0  0  0  0  0  1  0  0  0  0  0  0
  1 20  1  0  0  0  0
  2 10  1  0  0  0  0
  2 13  1  0  0  0  0
  3 13  2  0  0  0  0
  3  7  1  0  0  0  0
  4  6  1  6  0  0  0
  5  4  1  0  0  0  0
  7  8  2  0  0  0  0
  8  1  1  0  0  0  0
  8  4  1  0  0  0  0
  9  7  1  0  0  0  0
  9  5  2  0  0  0  0
 10 11  1  0  0  0  0
 11 16  1  6  0  0  0
 11 12  1  0  0  0  0
 12 14  1  0  0  0  0
 13 15  1  0  0  0  0
 15 14  1  0  0  0  0
 15  1  2  0  0  0  0
 16 18  1  0  0  0  0
 17 16  1  0  0  0  0
 17 18  1  0  0  0  0
 19 21  1  0  0  0  0
 20 19  2  0  0  0  0
 21 30  1  0  0  0  0
 23 28  1  0  0  0  0
 23 30  1  0  0  0  0
 24 32  1  0  0  0  0
 24 25  1  0  0  0  0
 26 25  2  0  0  0  0
 26 22  1  0  0  0  0
 27 29  1  0  0  0  0
 27 28  2  0  0  0  0
 28 26  1  0  0  0  0
 29 24  2  0  0  0  0
 30 31  1  0  0  0  0
 31 22  1  0  0  0  0
 32 34  1  0  0  0  0
 33 32  2  0  0  0  0
M  END
>  <MODEL>
5

>  <REMARK>
 VINA RESULT:      -8.1      3.796      7.422
  Name = 
  5 active torsions:
  status: ('A' for Active; 'I' for Inactive)
    1  A    between atoms: C_1  and  N_9
    2  A    between atoms: C_3  and  C_25
    3  A    between atoms: C_7  and  C_11
    4  A    between atoms: C_8  and  C_18
    5  A    between atoms: C_18  and  N_30
                            x       y       z     vdW  Elec       q    Type
                         _______ _______ _______ _____ _____    ______ ____

>  <TORSDO>
F 5

$$$$
=
 OpenBabel11062409293D

 34 39  0  0  1  0  0  0  0  0999 V2000
  160.9450  209.3350  153.7890 C   0  0  0  0  0  0  0  0  0  0  0  0
  160.0650  212.1540  151.3470 C   0  0  0  0  0  2  0  0  0  0  0  0
  159.9980  212.0030  153.8320 C   0  0  0  0  0  3  0  0  0  0  0  0
  160.7000  209.5040  156.4010 C   0  0  1  0  0  3  0  0  0  0  0  0
  160.4120  210.6670  157.2570 N   0  0  0  0  0  0  0  0  0  0  0  0
  159.6810  208.4910  156.6230 N   0  0  0  0  0  1  0  0  0  0  0  0
  160.1920  211.2850  155.0050 C   0  0  0  0  0  0  0  0  0  0  0  0
  160.6270  209.9930  155.0000 C   0  0  0  0  0  0  0  0  0  0  0  0
  159.9930  211.7680  156.3810 C   0  0  0  0  0  3  0  0  0  0  0  0
  161.3030  212.3440  150.7200 O   0  0  0  0  0  0  0  0  0  0  0  0
  161.4110  211.3150  149.7740 C   0  0  2  0  0  3  0  0  0  0  0  0
  162.0330  210.0760  150.4160 C   0  0  0  0  0  2  0  0  0  0  0  0
  160.2590  211.3750  152.6090 C   0  0  0  0  0  0  0  0  0  0  0  0
  161.0030  209.3440  151.2690 C   0  0  0  0  0  2  0  0  0  0  0  0
  160.7470  210.0410  152.5790 C   0  0  0  0  0  0  0  0  0  0  0  0
  162.2840  211.7780  148.6230 C   0  0  0  0  0  3  0  0  0  0  0  0
  161.8830  213.1820  148.2150 C   0  0  0  0  0  2  0  0  0  0  0  0
  161.4220  211.9960  147.3960 C   0  0  0  0  0  2  0  0  0  0  0  0
  160.8160  206.9310  153.4570 C   0  0  0  0  0  3  0  0  0  0  0  0
  161.4860  208.0040  153.7310 N   0  0  0  0  0  0  0  0  0  0  0  0
  161.4990  205.6060  153.4570 C   0  0  0  0  0  2  0  0  0  0  0  0
  161.2800  203.3010  150.5590 C   0  0  0  0  0  2  0  0  0  0  0  0
  161.1390  206.1620  151.1960 C   0  0  0  0  0  2  0  0  0  0  0  0
  161.2310  204.8610  147.0910 C   0  0  0  0  0  0  0  0  0  0  0  0
  161.2340  203.9180  148.1310 C   0  0  0  0  0  3  0  0  0  0  0  0
  161.2130  204.3330  149.4660 C   0  0  0  0  0  0  0  0  0  0  0  0
  161.2020  206.6500  148.7380 C   0  0  0  0  0  3  0  0  0  0  0  0
  161.2160  205.7090  149.7690 C   0  0  0  0  0  0  0  0  0  0  0  0
  161.2140  206.2280  147.4040 C   0  0  0  0  0  3  0  0  0  0  0  0
  161.7210  205.1580  152.0910 N   0  0  0  0  0  0  0  0  0  0  0  0
  160.9680  203.9160  151.9250 C   0  0  0  0  0  2  0  0  0  0  0  0
  161.2550  204.4220  145.6820 C   0  0  0  0  0  0  0  0  0  0  0  0
  161.2930  205.3840  144.6300 N   0  0  0  0  0  2  0  0  0  0  0  0
  161.2330  203.1640  145.3850 N   0  0  0  0  0  1  0  0  0  0  0  0
  1  8  1  0  0  0  0
  2 13  1  0  0  0  0
  3  7  1  0  0  0  0
  4  6  1  6  0  0  0
  4  5  1  0  0  0  0
  7  9  1  0  0  0  0
  8  7  2  0  0  0  0
  8  4  1  0  0  0  0
  9  5  2  0  0  0  0
 10  2  1  0  0  0  0
 11 16  1  6  0  0  0
 11 12  1  0  0  0  0
 11 10  1  0  0  0  0
 12 14  1  0  0  0  0
 13  3  2  0  0  0  0
 14 15  1  0  0  0  0
 15 13  1  0  0  0  0
 15  1  2  0  0  0  0
 17 16  1  0  0  0  0
 18 17  1  0  0  0  0
 18 16  1  0  0  0  0
 19 21  1  0  0  0  0
 19 20  2  0  0  0  0
 20  1  1  0  0  0  0
 22 31  1  0  0  0  0
 23 30  1  0  0  0  0
 24 29  2  0  0  0  0
 24 25  1  0  0  0  0
 25 26  2  0  0  0  0
 26 28  1  0  0  0  0
 26 22  1  0  0  0  0
 27 28  2  0  0  0  0
 28 23  1  0  0  0  0
 29 27  1  0  0  0  0
 30 21  1  0  0  0  0
 31 30  1  0  0  0  0
 32 24  1  0  0  0  0
 33 32  2  0  0  0  0
 34 32  1  0  0  0  0
M  END
>  <MODEL>
6

>  <REMARK>
 VINA RESULT:      -8.1      2.984      6.554
  Name = 
  5 active torsions:
  status: ('A' for Active; 'I' for Inactive)
    1  A    between atoms: C_1  and  N_9
    2  A    between atoms: C_3  and  C_25
    3  A    between atoms: C_7  and  C_11
    4  A    between atoms: C_8  and  C_18
    5  A    between atoms: C_18  and  N_30
                            x       y       z     vdW  Elec       q    Type
                         _______ _______ _______ _____ _____    ______ ____

>  <TORSDO>
F 5

$$$$
=
 OpenBabel11062409293D

 34 39  0  0  1  0  0  0  0  0999 V2000
  160.8170  212.0440  150.5350 C   0  0  0  0  0  0  0  0  0  0  0  0
  158.0340  214.3960  151.7220 C   0  0  0  0  0  2  0  0  0  0  0  0
  159.0650  214.0080  149.4890 C   0  0  0  0  0  3  0  0  0  0  0  0
  161.7090  211.9300  148.0650 C   0  0  1  0  0  3  0  0  0  0  0  0
  161.1850  212.5440  146.8340 N   0  0  0  0  0  0  0  0  0  0  0  0
  163.0770  212.3790  148.2720 N   0  0  0  0  0  1  0  0  0  0  0  0
  159.9820  213.3500  148.6780 C   0  0  0  0  0  0  0  0  0  0  0  0
  160.8460  212.4180  149.1710 C   0  0  0  0  0  0  0  0  0  0  0  0
  160.1590  213.5180  147.2270 C   0  0  0  0  0  3  0  0  0  0  0  0
  157.1010  213.4680  152.2010 O   0  0  0  0  0  0  0  0  0  0  0  0
  157.5640  213.0850  153.4680 C   0  0  2  0  0  3  0  0  0  0  0  0
  158.5290  211.9070  153.3390 C   0  0  0  0  0  2  0  0  0  0  0  0
  159.0320  213.6990  150.8540 C   0  0  0  0  0  0  0  0  0  0  0  0
  159.8930  212.3870  152.8550 C   0  0  0  0  0  2  0  0  0  0  0  0
  159.8980  212.7070  151.3840 C   0  0  0  0  0  0  0  0  0  0  0  0
  156.3870  212.6780  154.3330 C   0  0  0  0  0  3  0  0  0  0  0  0
  156.6460  213.0890  155.7690 C   0  0  0  0  0  2  0  0  0  0  0  0
  156.8420  211.6490  155.3480 C   0  0  0  0  0  2  0  0  0  0  0  0
  161.4180  209.7380  151.0060 C   0  0  0  0  0  3  0  0  0  0  0  0
  161.6460  211.0090  151.0900 N   0  0  0  0  0  0  0  0  0  0  0  0
  162.3500  208.7700  151.6540 C   0  0  0  0  0  2  0  0  0  0  0  0
  161.1730  205.3120  151.0140 C   0  0  0  0  0  2  0  0  0  0  0  0
  161.9470  207.7460  149.5710 C   0  0  0  0  0  2  0  0  0  0  0  0
  161.2410  204.0840  147.4150 C   0  0  0  0  0  0  0  0  0  0  0  0
  161.0690  204.1290  148.8080 C   0  0  0  0  0  3  0  0  0  0  0  0
  161.3050  205.3110  149.5160 C   0  0  0  0  0  0  0  0  0  0  0  0
  161.9050  206.4240  147.4410 C   0  0  0  0  0  3  0  0  0  0  0  0
  161.7440  206.4600  148.8280 C   0  0  0  0  0  0  0  0  0  0  0  0
  161.6590  205.2400  146.7380 C   0  0  0  0  0  3  0  0  0  0  0  0
  162.2920  207.4870  150.9710 N   0  0  0  0  0  0  0  0  0  0  0  0
  161.1940  206.7350  151.5750 C   0  0  0  0  0  2  0  0  0  0  0  0
  160.9940  202.8350  146.6690 C   0  0  0  0  0  0  0  0  0  0  0  0
  160.8550  201.5990  147.3640 N   0  0  0  0  0  1  0  0  0  0  0  0
  160.9100  202.8470  145.3780 N   0  0  0  0  0  2  0  0  0  0  0  0
  1 20  1  0  0  0  0
  1 15  1  0  0  0  0
  2 10  1  0  0  0  0
  3 13  1  0  0  0  0
  4  6  1  1  0  0  0
  4  8  1  0  0  0  0
  5  9  2  0  0  0  0
  5  4  1  0  0  0  0
  7  8  1  0  0  0  0
  7  3  2  0  0  0  0
  8  1  2  0  0  0  0
  9  7  1  0  0  0  0
 10 11  1  0  0  0  0
 11 16  1  1  0  0  0
 12 11  1  0  0  0  0
 13 15  2  0  0  0  0
 13  2  1  0  0  0  0
 14 12  1  0  0  0  0
 15 14  1  0  0  0  0
 16 18  1  0  0  0  0
 16 17  1  0  0  0  0
 18 17  1  0  0  0  0
 19 20  2  0  0  0  0
 19 21  1  0  0  0  0
 22 31  1  0  0  0  0
 23 30  1  0  0  0  0
 24 25  1  0  0  0  0
 25 26  2  0  0  0  0
 26 22  1  0  0  0  0
 27 28  2  0  0  0  0
 28 26  1  0  0  0  0
 28 23  1  0  0  0  0
 29 24  2  0  0  0  0
 29 27  1  0  0  0  0
 30 31  1  0  0  0  0
 30 21  1  0  0  0  0
 32 33  1  0  0  0  0
 32 24  1  0  0  0  0
 34 32  2  0  0  0  0
M  END
>  <MODEL>
7

>  <REMARK>
 VINA RESULT:      -8.1      3.572      8.326
  Name = 
  5 active torsions:
  status: ('A' for Active; 'I' for Inactive)
    1  A    between atoms: C_1  and  N_9
    2  A    between atoms: C_3  and  C_25
    3  A    between atoms: C_7  and  C_11
    4  A    between atoms: C_8  and  C_18
    5  A    between atoms: C_18  and  N_30
                            x       y       z     vdW  Elec       q    Type
                         _______ _______ _______ _____ _____    ______ ____

>  <TORSDO>
F 5

$$$$
=
 OpenBabel11062409293D

 34 39  0  0  1  0  0  0  0  0999 V2000
  159.2060  212.2380  153.4380 C   0  0  0  0  0  0  0  0  0  0  0  0
  158.1550  213.7360  150.0710 C   0  0  0  0  0  2  0  0  0  0  0  0
  157.3420  214.0980  152.3970 C   0  0  0  0  0  3  0  0  0  0  0  0
  158.0740  212.8190  155.7380 C   0  0  1  0  0  3  0  0  0  0  0  0
  157.0960  213.8640  156.0810 N   0  0  0  0  0  0  0  0  0  0  0  0
  157.5160  211.5200  156.0780 N   0  0  0  0  0  1  0  0  0  0  0  0
  157.4040  213.8190  153.7570 C   0  0  0  0  0  0  0  0  0  0  0  0
  158.2810  212.9100  154.2700 C   0  0  0  0  0  0  0  0  0  0  0  0
  156.5950  214.4310  154.8230 C   0  0  0  0  0  3  0  0  0  0  0  0
  159.3530  214.3450  149.6770 O   0  0  0  0  0  0  0  0  0  0  0  0
  160.1550  213.3120  149.1710 C   0  0  2  0  0  3  0  0  0  0  0  0
  160.9610  212.6730  150.3010 C   0  0  0  0  0  2  0  0  0  0  0  0
  158.2110  213.4230  151.5330 C   0  0  0  0  0  0  0  0  0  0  0  0
  160.0770  211.7430  151.1260 C   0  0  0  0  0  2  0  0  0  0  0  0
  159.1580  212.4980  152.0480 C   0  0  0  0  0  0  0  0  0  0  0  0
  161.1050  213.8740  148.1310 C   0  0  0  0  0  3  0  0  0  0  0  0
  160.9730  213.0830  146.8440 C   0  0  0  0  0  2  0  0  0  0  0  0
  162.1370  212.8240  147.7750 C   0  0  0  0  0  2  0  0  0  0  0  0
  160.1070  210.0450  153.9690 C   0  0  0  0  0  3  0  0  0  0  0  0
  160.2070  211.3340  153.9370 N   0  0  0  0  0  0  0  0  0  0  0  0
  161.2140  209.2250  154.5400 C   0  0  0  0  0  2  0  0  0  0  0  0
  161.2080  205.6640  153.5040 C   0  0  0  0  0  2  0  0  0  0  0  0
  160.8590  208.3510  152.3810 C   0  0  0  0  0  2  0  0  0  0  0  0
  161.1170  204.9330  149.7730 C   0  0  0  0  0  0  0  0  0  0  0  0
  161.1650  204.7640  151.1660 C   0  0  0  0  0  3  0  0  0  0  0  0
  161.0910  205.8700  152.0190 C   0  0  0  0  0  0  0  0  0  0  0  0
  160.9350  207.3370  150.0890 C   0  0  0  0  0  3  0  0  0  0  0  0
  160.9940  207.1650  151.4740 C   0  0  0  0  0  0  0  0  0  0  0  0
  161.0010  206.2260  149.2420 C   0  0  0  0  0  3  0  0  0  0  0  0
  161.4910  208.0880  153.6760 N   0  0  0  0  0  0  0  0  0  0  0  0
  160.8280  206.9300  154.2740 C   0  0  0  0  0  2  0  0  0  0  0  0
  161.1970  203.7650  148.8740 C   0  0  0  0  0  0  0  0  0  0  0  0
  161.7290  203.9060  147.5590 N   0  0  0  0  0  2  0  0  0  0  0  0
  160.7790  202.6060  149.2640 N   0  0  0  0  0  1  0  0  0  0  0  0
  1 20  1  0  0  0  0
  1  8  1  0  0  0  0
  2 13  1  0  0  0  0
  3  7  1  0  0  0  0
  4  6  1  6  0  0  0
  4  5  1  0  0  0  0
  7  8  2  0  0  0  0
  7  9  1  0  0  0  0
  8  4  1  0  0  0  0
  9  5  2  0  0  0  0
 10  2  1  0  0  0  0
 11 16  1  6  0  0  0
 11 10  1  0  0  0  0
 11 12  1  0  0  0  0
 12 14  1  0  0  0  0
 13 15  1  0  0  0  0
 13  3  2  0  0  0  0
 14 15  1  0  0  0  0
 15  1  2  0  0  0  0
 17 18  1  0  0  0  0
 17 16  1  0  0  0  0
 18 16  1  0  0  0  0
 19 21  1  0  0  0  0
 20 19  2  0  0  0  0
 22 31  1  0  0  0  0
 23 30  1  0  0  0  0
 24 25  1  0  0  0  0
 25 26  2  0  0  0  0
 26 22  1  0  0  0  0
 27 28  2  0  0  0  0
 28 26  1  0  0  0  0
 28 23  1  0  0  0  0
 29 24  2  0  0  0  0
 29 27  1  0  0  0  0
 30 31  1  0  0  0  0
 30 21  1  0  0  0  0
 32 34  1  0  0  0  0
 32 24  1  0  0  0  0
 33 32  2  0  0  0  0
M  END
>  <MODEL>
8

>  <REMARK>
 VINA RESULT:      -7.9      3.322      7.376
  Name = 
  5 active torsions:
  status: ('A' for Active; 'I' for Inactive)
    1  A    between atoms: C_1  and  N_9
    2  A    between atoms: C_3  and  C_25
    3  A    between atoms: C_7  and  C_11
    4  A    between atoms: C_8  and  C_18
    5  A    between atoms: C_18  and  N_30
                            x       y       z     vdW  Elec       q    Type
                         _______ _______ _______ _____ _____    ______ ____

>  <TORSDO>
F 5

$$$$
=
 OpenBabel11062409293D

 34 39  0  0  1  0  0  0  0  0999 V2000
  160.2530  211.3450  153.2640 C   0  0  0  0  0  0  0  0  0  0  0  0
  159.3030  213.9850  150.6540 C   0  0  0  0  0  2  0  0  0  0  0  0
  159.0000  213.8810  153.1240 C   0  0  0  0  0  3  0  0  0  0  0  0
  159.7240  211.5390  155.8310 C   0  0  1  0  0  3  0  0  0  0  0  0
  159.2160  212.6760  156.6160 N   0  0  0  0  0  0  0  0  0  0  0  0
  158.8140  210.4150  155.9850 N   0  0  0  0  0  1  0  0  0  0  0  0
  159.1560  213.2160  154.3340 C   0  0  0  0  0  0  0  0  0  0  0  0
  159.7380  211.9860  154.4150 C   0  0  0  0  0  0  0  0  0  0  0  0
  158.7620  213.7010  155.6660 C   0  0  0  0  0  3  0  0  0  0  0  0
  160.5680  214.3100  150.1470 O   0  0  0  0  0  0  0  0  0  0  0  0
  160.8920  213.2820  149.2510 C   0  0  2  0  0  3  0  0  0  0  0  0
  161.5870  212.1400  149.9930 C   0  0  0  0  0  2  0  0  0  0  0  0
  159.4570  213.2620  151.9540 C   0  0  0  0  0  0  0  0  0  0  0  0
  160.5680  211.3080  150.7630 C   0  0  0  0  0  2  0  0  0  0  0  0
  160.0980  211.9970  152.0170 C   0  0  0  0  0  0  0  0  0  0  0  0
  161.8180  213.8220  148.1780 C   0  0  0  0  0  3  0  0  0  0  0  0
  161.1260  213.7560  146.8310 C   0  0  0  0  0  2  0  0  0  0  0  0
  162.1560  212.7120  147.2030 C   0  0  0  0  0  2  0  0  0  0  0  0
  160.4130  208.9240  153.1230 C   0  0  0  0  0  3  0  0  0  0  0  0
  160.9500  210.0880  153.3030 N   0  0  0  0  0  0  0  0  0  0  0  0
  161.2500  207.6940  153.2180 C   0  0  0  0  0  2  0  0  0  0  0  0
  161.3810  206.4440  149.7290 C   0  0  0  0  0  2  0  0  0  0  0  0
  161.4050  205.4580  152.4920 C   0  0  0  0  0  2  0  0  0  0  0  0
  161.0780  202.6880  149.2100 C   0  0  0  0  0  0  0  0  0  0  0  0
  161.2080  204.0640  148.9640 C   0  0  0  0  0  3  0  0  0  0  0  0
  161.3060  204.9710  150.0240 C   0  0  0  0  0  0  0  0  0  0  0  0
  161.1280  203.1320  151.6010 C   0  0  0  0  0  3  0  0  0  0  0  0
  161.2460  204.5000  151.3500 C   0  0  0  0  0  0  0  0  0  0  0  0
  161.0400  202.2300  150.5360 C   0  0  0  0  0  3  0  0  0  0  0  0
  160.9520  206.7990  152.1110 N   0  0  0  0  0  0  0  0  0  0  0  0
  161.7600  207.2430  150.9770 C   0  0  0  0  0  2  0  0  0  0  0  0
  160.9730  201.7330  148.0900 C   0  0  0  0  0  0  0  0  0  0  0  0
  161.3420  200.3690  148.2730 N   0  0  0  0  0  1  0  0  0  0  0  0
  160.5540  202.1240  146.9310 N   0  0  0  0  0  2  0  0  0  0  0  0
  1 20  1  0  0  0  0
  1  8  1  0  0  0  0
  2 13  1  0  0  0  0
  3  7  1  0  0  0  0
  4  6  1  6  0  0  0
  4  5  1  0  0  0  0
  7  8  2  0  0  0  0
  7  9  1  0  0  0  0
  8  4  1  0  0  0  0
  9  5  2  0  0  0  0
 10  2  1  0  0  0  0
 11 16  1  6  0  0  0
 11 12  1  0  0  0  0
 11 10  1  0  0  0  0
 12 14  1  0  0  0  0
 13 15  1  0  0  0  0
 13  3  2  0  0  0  0
 14 15  1  0  0  0  0
 15  1  2  0  0  0  0
 17 18  1  0  0  0  0
 17 16  1  0  0  0  0
 18 16  1  0  0  0  0
 19 21  1  0  0  0  0
 19 20  2  0  0  0  0
 22 26  1  0  0  0  0
 22 31  1  0  0  0  0
 24 29  1  0  0  0  0
 25 24  2  0  0  0  0
 25 26  1  0  0  0  0
 26 28  2  0  0  0  0
 28 27  1  0  0  0  0
 28 23  1  0  0  0  0
 29 27  2  0  0  0  0
 30 23  1  0  0  0  0
 30 21  1  0  0  0  0
 31 30  1  0  0  0  0
 32 33  1  0  0  0  0
 32 24  1  0  0  0  0
 34 32  2  0  0  0  0
M  END
>  <MODEL>
9

>  <REMARK>
 VINA RESULT:      -7.9      3.543      7.746
  Name = 
  5 active torsions:
  status: ('A' for Active; 'I' for Inactive)
    1  A    between atoms: C_1  and  N_9
    2  A    between atoms: C_3  and  C_25
    3  A    between atoms: C_7  and  C_11
    4  A    between atoms: C_8  and  C_18
    5  A    between atoms: C_18  and  N_30
                            x       y       z     vdW  Elec       q    Type
                         _______ _______ _______ _____ _____    ______ ____

>  <TORSDO>
F 5

$$$$
