=
 OpenBabel11052422463D

 31 34  0  0  1  0  0  0  0  0999 V2000
  161.7050  208.6890  149.8510 O   0  0  0  0  0  0  0  0  0  0  0  0
  162.1870  210.0060  149.9660 C   0  0  2  0  0  3  0  0  0  0  0  0
  160.8380  209.0980  152.0890 C   0  0  1  0  0  3  0  0  0  0  0  0
  161.4390  210.3680  151.9890 O   0  0  0  0  0  0  0  0  0  0  0  0
  161.6080  208.1470  151.1530 C   0  0  1  0  0  3  0  0  0  0  0  0
  161.2750  210.7620  150.7320 O   0  0  0  0  0  0  0  0  0  0  0  0
  160.9710  206.7530  151.1080 C   0  0  1  0  0  3  0  0  0  0  0  0
  161.0110  205.7730  148.7900 C   0  0  0  0  0  2  0  0  0  0  0  0
  160.1780  206.5330  149.8100 C   0  0  0  0  0  2  0  0  0  0  0  0
  161.4080  204.3890  149.3330 C   0  0  0  0  0  2  0  0  0  0  0  0
  160.4140  203.8530  151.4200 C   0  0  0  0  0  1  0  0  0  0  0  0
  162.0330  205.6540  151.3390 C   0  0  2  0  0  3  0  0  0  0  0  0
  161.6350  204.3420  150.7880 N   0  0  0  0  0  0  0  0  0  0  0  0
  162.4360  205.5350  152.8060 C   0  0  0  0  0  2  0  0  0  0  0  0
  161.3020  205.4970  153.6180 O   0  0  0  0  0  1  0  0  0  0  0  0
  160.9020  208.6090  153.5320 C   0  0  0  0  0  2  0  0  0  0  0  0
  160.9750  209.7630  154.5310 C   0  0  1  0  0  3  0  0  0  0  0  0
  159.5990  210.1060  155.0870 C   0  0  1  0  0  3  0  0  0  0  0  0
  159.6790  211.3790  155.9060 C   0  0  0  0  0  2  0  0  0  0  0  0
  159.1330  211.4200  154.4930 C   0  0  2  0  0  3  0  0  0  0  0  0
  157.6180  211.4680  154.5400 C   0  0  0  0  0  2  0  0  0  0  0  0
  157.1510  212.8900  154.7850 C   0  0  2  0  0  3  0  0  0  0  0  0
  155.7870  213.0740  154.2470 C   0  0  0  0  0  2  0  0  0  0  0  0
  156.9240  213.5160  153.5460 O   0  0  0  0  0  0  0  0  0  0  0  0
  161.8520  209.4500  155.5740 O   0  0  0  0  0  0  0  0  0  0  0  0
  161.5000  208.1580  155.9650 C   0  0  0  0  0  1  0  0  0  0  0  0
  162.3170  210.6110  148.5810 C   0  0  0  0  0  2  0  0  0  0  0  0
  162.1200  212.1160  148.6340 C   0  0  1  0  0  3  0  0  0  0  0  0
  163.3000  212.7540  148.2990 F   0  0  0  0  0  0  0  0  0  0  0  0
  160.8180  212.6010  147.4640 S   0  0  0  0  0  0  0  0  0  0  0  0
  162.0240  213.1920  146.2450 C   0  0  0  0  0  1  0  0  0  0  0  0
  1  2  1  0  0  0  0
  2 27  1  6  0  0  0
  2  6  1  0  0  0  0
  3 16  1  1  0  0  0
  4  3  1  0  0  0  0
  5  1  1  6  0  0  0
  5  3  1  0  0  0  0
  6  4  1  0  0  0  0
  7  9  1  6  0  0  0
  7  5  1  0  0  0  0
  7 12  1  0  0  0  0
  8 10  1  0  0  0  0
  8  9  1  0  0  0  0
 10 13  1  0  0  0  0
 12 14  1  1  0  0  0
 13 12  1  0  0  0  0
 13 11  1  0  0  0  0
 14 15  1  0  0  0  0
 17 16  1  6  0  0  0
 17 25  1  0  0  0  0
 18 17  1  6  0  0  0
 18 19  1  0  0  0  0
 20 21  1  1  0  0  0
 20 18  1  0  0  0  0
 20 19  1  0  0  0  0
 22 21  1  6  0  0  0
 23 22  1  0  0  0  0
 24 23  1  0  0  0  0
 24 22  1  0  0  0  0
 25 26  1  0  0  0  0
 27 28  1  0  0  0  0
 28 29  1  6  0  0  0
 30 28  1  0  0  0  0
 31 30  1  0  0  0  0
M  END
>  <MODEL>
1

>  <REMARK>
 VINA RESULT:      -5.6      0.000      0.000
  Name = 
  11 active torsions:
  status: ('A' for Active; 'I' for Inactive)
    1  A    between atoms: C_1  and  C_24
    2  A    between atoms: C_2  and  S_13
    3  A    between atoms: C_2  and  C_25
    4  A    between atoms: O_3  and  C_9
    5  A    between atoms: C_5  and  C_21
    6  A    between atoms: C_6  and  C_9
    7  A    between atoms: C_9  and  C_23
    8  A    between atoms: C_12  and  C_25
    9  A    between atoms: C_15  and  C_23
   10  A    between atoms: C_17  and  C_30
   11  A    between atoms: C_19  and  C_24
                            x       y       z     vdW  Elec       q    Type
                         _______ _______ _______ _____ _____    ______ ____

>  <TORSDO>
F 11

$$$$
=
 OpenBabel11052422463D

 31 34  0  0  1  0  0  0  0  0999 V2000
  161.6640  208.2890  147.7720 O   0  0  0  0  0  0  0  0  0  0  0  0
  162.1110  209.3230  148.6160 C   0  0  2  0  0  3  0  0  0  0  0  0
  161.7650  206.9530  149.8040 C   0  0  1  0  0  3  0  0  0  0  0  0
  162.2350  208.1200  150.4380 O   0  0  0  0  0  0  0  0  0  0  0  0
  162.1190  207.0640  148.3090 C   0  0  1  0  0  3  0  0  0  0  0  0
  161.5640  209.1320  149.9020 O   0  0  0  0  0  0  0  0  0  0  0  0
  161.5610  205.8850  147.5030 C   0  0  1  0  0  3  0  0  0  0  0  0
  160.0700  206.6490  145.6240 C   0  0  0  0  0  2  0  0  0  0  0  0
  160.1120  206.1380  147.0550 C   0  0  0  0  0  2  0  0  0  0  0  0
  160.6810  205.6190  144.6590 C   0  0  0  0  0  2  0  0  0  0  0  0
  161.2490  203.5560  145.6860 C   0  0  0  0  0  1  0  0  0  0  0  0
  162.4890  205.5410  146.3150 C   0  0  2  0  0  3  0  0  0  0  0  0
  161.7900  204.8300  145.2250 N   0  0  0  0  0  0  0  0  0  0  0  0
  163.7370  204.7820  146.7540 C   0  0  0  0  0  2  0  0  0  0  0  0
  164.2870  204.0890  145.6760 O   0  0  0  0  0  1  0  0  0  0  0  0
  162.4220  205.7260  150.4280 C   0  0  0  0  0  2  0  0  0  0  0  0
  161.6480  205.2090  151.6400 C   0  0  1  0  0  3  0  0  0  0  0  0
  161.6920  203.6890  151.7220 C   0  0  1  0  0  3  0  0  0  0  0  0
  160.4740  203.1800  152.4650 C   0  0  0  0  0  2  0  0  0  0  0  0
  160.5210  203.1130  150.9520 C   0  0  2  0  0  3  0  0  0  0  0  0
  160.8660  201.7010  150.5210 C   0  0  0  0  0  2  0  0  0  0  0  0
  160.3880  201.4590  149.1020 C   0  0  2  0  0  3  0  0  0  0  0  0
  161.3950  200.6770  148.3550 C   0  0  0  0  0  2  0  0  0  0  0  0
  161.2860  202.0710  148.2080 O   0  0  0  0  0  0  0  0  0  0  0  0
  162.1550  205.7700  152.8170 O   0  0  0  0  0  0  0  0  0  0  0  0
  161.1090  206.5370  153.3300 C   0  0  0  0  0  1  0  0  0  0  0  0
  161.6510  210.6560  148.0570 C   0  0  0  0  0  2  0  0  0  0  0  0
  162.2900  211.8050  148.8170 C   0  0  1  0  0  3  0  0  0  0  0  0
  163.4580  212.1910  148.1850 F   0  0  0  0  0  0  0  0  0  0  0  0
  161.1420  213.2110  148.8750 S   0  0  0  0  0  0  0  0  0  0  0  0
  161.2400  213.4670  147.0820 C   0  0  0  0  0  1  0  0  0  0  0  0
  1  2  1  0  0  0  0
  2 27  1  6  0  0  0
  2  6  1  0  0  0  0
  3 16  1  1  0  0  0
  3  4  1  0  0  0  0
  5  1  1  6  0  0  0
  5  3  1  0  0  0  0
  6  4  1  0  0  0  0
  7  9  1  6  0  0  0
  7  5  1  0  0  0  0
  8  9  1  0  0  0  0
 10 13  1  0  0  0  0
 10  8  1  0  0  0  0
 12 14  1  1  0  0  0
 12  7  1  0  0  0  0
 13 11  1  0  0  0  0
 13 12  1  0  0  0  0
 15 14  1  0  0  0  0
 17 16  1  6  0  0  0
 17 25  1  0  0  0  0
 18 17  1  6  0  0  0
 18 19  1  0  0  0  0
 20 21  1  1  0  0  0
 20 18  1  0  0  0  0
 20 19  1  0  0  0  0
 22 21  1  1  0  0  0
 23 22  1  0  0  0  0
 24 23  1  0  0  0  0
 24 22  1  0  0  0  0
 25 26  1  0  0  0  0
 27 28  1  0  0  0  0
 28 29  1  6  0  0  0
 28 30  1  0  0  0  0
 31 30  1  0  0  0  0
M  END
>  <MODEL>
2

>  <REMARK>
 VINA RESULT:      -5.5      3.698      6.473
  Name = 
  11 active torsions:
  status: ('A' for Active; 'I' for Inactive)
    1  A    between atoms: C_1  and  C_24
    2  A    between atoms: C_2  and  S_13
    3  A    between atoms: C_2  and  C_25
    4  A    between atoms: O_3  and  C_9
    5  A    between atoms: C_5  and  C_21
    6  A    between atoms: C_6  and  C_9
    7  A    between atoms: C_9  and  C_23
    8  A    between atoms: C_12  and  C_25
    9  A    between atoms: C_15  and  C_23
   10  A    between atoms: C_17  and  C_30
   11  A    between atoms: C_19  and  C_24
                            x       y       z     vdW  Elec       q    Type
                         _______ _______ _______ _____ _____    ______ ____

>  <TORSDO>
F 11

$$$$
=
 OpenBabel11052422463D

 31 34  0  0  1  0  0  0  0  0999 V2000
  161.5550  207.5680  152.8190 O   0  0  0  0  0  0  0  0  0  0  0  0
  162.1440  207.4470  151.5460 C   0  0  2  0  0  3  0  0  0  0  0  0
  160.9160  209.7750  152.0160 C   0  0  1  0  0  3  0  0  0  0  0  0
  161.6000  209.4410  150.8310 O   0  0  0  0  0  0  0  0  0  0  0  0
  161.5290  208.9400  153.1560 C   0  0  1  0  0  3  0  0  0  0  0  0
  161.3590  208.1540  150.6110 O   0  0  0  0  0  0  0  0  0  0  0  0
  160.7870  209.1540  154.4810 C   0  0  1  0  0  3  0  0  0  0  0  0
  160.4490  206.9950  155.7300 C   0  0  0  0  0  2  0  0  0  0  0  0
  159.8170  208.0000  154.7800 C   0  0  0  0  0  2  0  0  0  0  0  0
  160.8070  207.6610  157.0700 C   0  0  0  0  0  2  0  0  0  0  0  0
  160.0560  209.9040  157.2600 C   0  0  0  0  0  1  0  0  0  0  0  0
  161.7830  209.3970  155.6370 C   0  0  2  0  0  3  0  0  0  0  0  0
  161.2180  209.0730  156.9630 N   0  0  0  0  0  0  0  0  0  0  0  0
  162.3630  210.8080  155.6180 C   0  0  0  0  0  2  0  0  0  0  0  0
  163.4890  210.8790  156.4380 O   0  0  0  0  0  1  0  0  0  0  0  0
  161.0650  211.2670  152.2950 C   0  0  0  0  0  2  0  0  0  0  0  0
  159.7290  212.0060  152.2260 C   0  0  1  0  0  3  0  0  0  0  0  0
  159.1440  212.2310  153.6140 C   0  0  1  0  0  3  0  0  0  0  0  0
  157.8900  213.0750  153.5120 C   0  0  0  0  0  2  0  0  0  0  0  0
  157.7810  211.5740  153.6950 C   0  0  2  0  0  3  0  0  0  0  0  0
  157.4720  211.2650  155.1470 C   0  0  0  0  0  2  0  0  0  0  0  0
  156.1200  211.8390  155.5240 C   0  0  2  0  0  3  0  0  0  0  0  0
  155.9720  211.8590  156.9950 C   0  0  0  0  0  2  0  0  0  0  0  0
  155.3810  210.8550  156.2050 O   0  0  0  0  0  0  0  0  0  0  0  0
  159.8820  213.2270  151.5620 O   0  0  0  0  0  0  0  0  0  0  0  0
  158.9570  213.1900  150.5190 C   0  0  0  0  0  1  0  0  0  0  0  0
  162.2000  205.9810  151.1610 C   0  0  0  0  0  2  0  0  0  0  0  0
  160.8080  205.3750  151.1560 C   0  0  1  0  0  3  0  0  0  0  0  0
  160.3370  205.2980  149.8580 F   0  0  0  0  0  0  0  0  0  0  0  0
  160.8650  203.7090  151.8770 S   0  0  0  0  0  0  0  0  0  0  0  0
  160.5700  202.9170  150.2710 C   0  0  0  0  0  1  0  0  0  0  0  0
  2 27  1  6  0  0  0
  2  1  1  0  0  0  0
  3 16  1  1  0  0  0
  3  5  1  0  0  0  0
  4  3  1  0  0  0  0
  5  1  1  6  0  0  0
  5  7  1  0  0  0  0
  6  4  1  0  0  0  0
  6  2  1  0  0  0  0
  7  9  1  1  0  0  0
  7 12  1  0  0  0  0
  8 10  1  0  0  0  0
  9  8  1  0  0  0  0
 12 14  1  1  0  0  0
 12 13  1  0  0  0  0
 13 10  1  0  0  0  0
 13 11  1  0  0  0  0
 14 15  1  0  0  0  0
 17 16  1  1  0  0  0
 18 17  1  6  0  0  0
 18 20  1  0  0  0  0
 19 18  1  0  0  0  0
 19 20  1  0  0  0  0
 20 21  1  1  0  0  0
 22 21  1  1  0  0  0
 22 24  1  0  0  0  0
 22 23  1  0  0  0  0
 24 23  1  0  0  0  0
 25 17  1  0  0  0  0
 26 25  1  0  0  0  0
 28 29  1  6  0  0  0
 28 27  1  0  0  0  0
 28 30  1  0  0  0  0
 31 30  1  0  0  0  0
M  END
>  <MODEL>
3

>  <REMARK>
 VINA RESULT:      -5.5      3.388      5.614
  Name = 
  11 active torsions:
  status: ('A' for Active; 'I' for Inactive)
    1  A    between atoms: C_1  and  C_24
    2  A    between atoms: C_2  and  S_13
    3  A    between atoms: C_2  and  C_25
    4  A    between atoms: O_3  and  C_9
    5  A    between atoms: C_5  and  C_21
    6  A    between atoms: C_6  and  C_9
    7  A    between atoms: C_9  and  C_23
    8  A    between atoms: C_12  and  C_25
    9  A    between atoms: C_15  and  C_23
   10  A    between atoms: C_17  and  C_30
   11  A    between atoms: C_19  and  C_24
                            x       y       z     vdW  Elec       q    Type
                         _______ _______ _______ _____ _____    ______ ____

>  <TORSDO>
F 11

$$$$
=
 OpenBabel11052422463D

 31 34  0  0  1  0  0  0  0  0999 V2000
  160.7760  211.0370  152.8480 O   0  0  0  0  0  0  0  0  0  0  0  0
  160.4090  211.2220  151.5020 C   0  0  2  0  0  3  0  0  0  0  0  0
  162.0180  209.1380  151.9670 C   0  0  1  0  0  3  0  0  0  0  0  0
  161.4970  209.4990  150.7090 O   0  0  0  0  0  0  0  0  0  0  0  0
  161.0450  209.6630  153.0390 C   0  0  1  0  0  3  0  0  0  0  0  0
  161.4820  210.8260  150.6770 O   0  0  0  0  0  0  0  0  0  0  0  0
  161.5700  209.4100  154.4570 C   0  0  1  0  0  3  0  0  0  0  0  0
  161.2340  211.4040  155.9560 C   0  0  0  0  0  2  0  0  0  0  0  0
  162.2160  210.6700  155.0560 C   0  0  0  0  0  2  0  0  0  0  0  0
  160.7910  210.5090  157.1250 C   0  0  0  0  0  2  0  0  0  0  0  0
  161.9400  208.4350  157.2380 C   0  0  0  0  0  1  0  0  0  0  0  0
  160.4570  208.8350  155.3630 C   0  0  2  0  0  3  0  0  0  0  0  0
  160.7030  209.0740  156.8000 N   0  0  0  0  0  0  0  0  0  0  0  0
  160.1910  207.3580  155.0890 C   0  0  0  0  0  2  0  0  0  0  0  0
  159.0510  206.9370  155.7750 O   0  0  0  0  0  1  0  0  0  0  0  0
  162.1550  207.6210  152.0530 C   0  0  0  0  0  2  0  0  0  0  0  0
  161.1070  206.8970  151.2070 C   0  0  1  0  0  3  0  0  0  0  0  0
  161.6930  206.4170  149.8860 C   0  0  1  0  0  3  0  0  0  0  0  0
  160.8750  205.2580  149.3530 C   0  0  0  0  0  2  0  0  0  0  0  0
  160.6840  206.6470  148.7790 C   0  0  2  0  0  3  0  0  0  0  0  0
  161.4220  206.7530  147.4580 C   0  0  0  0  0  2  0  0  0  0  0  0
  160.9160  205.6970  146.4950 C   0  0  2  0  0  3  0  0  0  0  0  0
  161.7400  205.6950  145.2680 C   0  0  0  0  0  2  0  0  0  0  0  0
  160.4840  206.3270  145.3130 O   0  0  0  0  0  0  0  0  0  0  0  0
  160.5700  205.8190  151.9170 O   0  0  0  0  0  0  0  0  0  0  0  0
  161.6080  205.3700  152.7330 C   0  0  0  0  0  1  0  0  0  0  0  0
  160.1000  212.6890  151.2680 C   0  0  0  0  0  2  0  0  0  0  0  0
  158.7970  213.0760  151.9460 C   0  0  1  0  0  3  0  0  0  0  0  0
  159.0420  214.0240  152.9230 F   0  0  0  0  0  0  0  0  0  0  0  0
  157.6500  213.7590  150.7150 S   0  0  0  0  0  0  0  0  0  0  0  0
  156.5660  214.4530  151.9940 C   0  0  0  0  0  1  0  0  0  0  0  0
  2 27  1  1  0  0  0
  2  1  1  0  0  0  0
  3 16  1  6  0  0  0
  3  5  1  0  0  0  0
  4  3  1  0  0  0  0
  5  1  1  6  0  0  0
  5  7  1  0  0  0  0
  6  4  1  0  0  0  0
  6  2  1  0  0  0  0
  7  9  1  1  0  0  0
  7 12  1  0  0  0  0
  8 10  1  0  0  0  0
  9  8  1  0  0  0  0
 12 14  1  1  0  0  0
 12 13  1  0  0  0  0
 13 10  1  0  0  0  0
 13 11  1  0  0  0  0
 14 15  1  0  0  0  0
 17 25  1  0  0  0  0
 17 16  1  1  0  0  0
 18 17  1  1  0  0  0
 19 18  1  0  0  0  0
 20 21  1  6  0  0  0
 20 19  1  0  0  0  0
 20 18  1  0  0  0  0
 22 21  1  1  0  0  0
 23 24  1  0  0  0  0
 23 22  1  0  0  0  0
 24 22  1  0  0  0  0
 25 26  1  0  0  0  0
 27 28  1  0  0  0  0
 28 29  1  1  0  0  0
 30 28  1  0  0  0  0
 30 31  1  0  0  0  0
M  END
>  <MODEL>
4

>  <REMARK>
 VINA RESULT:      -5.4      2.993      6.717
  Name = 
  11 active torsions:
  status: ('A' for Active; 'I' for Inactive)
    1  A    between atoms: C_1  and  C_24
    2  A    between atoms: C_2  and  S_13
    3  A    between atoms: C_2  and  C_25
    4  A    between atoms: O_3  and  C_9
    5  A    between atoms: C_5  and  C_21
    6  A    between atoms: C_6  and  C_9
    7  A    between atoms: C_9  and  C_23
    8  A    between atoms: C_12  and  C_25
    9  A    between atoms: C_15  and  C_23
   10  A    between atoms: C_17  and  C_30
   11  A    between atoms: C_19  and  C_24
                            x       y       z     vdW  Elec       q    Type
                         _______ _______ _______ _____ _____    ______ ____

>  <TORSDO>
F 11

$$$$
=
 OpenBabel11052422463D

 31 34  0  0  1  0  0  0  0  0999 V2000
  161.0760  210.8080  151.4500 O   0  0  0  0  0  0  0  0  0  0  0  0
  161.5400  210.6640  150.1300 C   0  0  2  0  0  3  0  0  0  0  0  0
  161.7850  208.4900  151.6670 C   0  0  1  0  0  3  0  0  0  0  0  0
  162.1500  208.5710  150.3090 O   0  0  0  0  0  0  0  0  0  0  0  0
  160.6790  209.5330  151.9130 C   0  0  1  0  0  3  0  0  0  0  0  0
  162.6460  209.7880  150.1270 O   0  0  0  0  0  0  0  0  0  0  0  0
  160.2770  209.5990  153.3910 C   0  0  1  0  0  3  0  0  0  0  0  0
  162.1720  210.3860  154.8480 C   0  0  0  0  0  2  0  0  0  0  0  0
  161.4300  209.1720  154.3120 C   0  0  0  0  0  2  0  0  0  0  0  0
  161.2290  211.2820  155.6690 C   0  0  0  0  0  2  0  0  0  0  0  0
  159.0660  210.3620  155.9930 C   0  0  0  0  0  1  0  0  0  0  0  0
  159.7280  210.9990  153.7510 C   0  0  2  0  0  3  0  0  0  0  0  0
  159.8350  211.3080  155.1910 N   0  0  0  0  0  0  0  0  0  0  0  0
  158.3030  211.2100  153.2480 C   0  0  0  0  0  2  0  0  0  0  0  0
  158.2570  212.2860  152.3610 O   0  0  0  0  0  1  0  0  0  0  0  0
  161.2850  207.0840  151.9840 C   0  0  0  0  0  2  0  0  0  0  0  0
  161.3560  206.1580  150.7700 C   0  0  1  0  0  3  0  0  0  0  0  0
  161.7530  204.7430  151.1710 C   0  0  1  0  0  3  0  0  0  0  0  0
  161.0490  204.3570  152.4560 C   0  0  0  0  0  2  0  0  0  0  0  0
  160.5310  203.8490  151.1260 C   0  0  2  0  0  3  0  0  0  0  0  0
  160.9810  202.4150  150.9250 C   0  0  0  0  0  2  0  0  0  0  0  0
  160.2780  201.8130  149.7230 C   0  0  2  0  0  3  0  0  0  0  0  0
  161.2020  200.9220  148.9910 C   0  0  0  0  0  2  0  0  0  0  0  0
  160.9370  202.2320  148.5530 O   0  0  0  0  0  0  0  0  0  0  0  0
  160.1300  206.1420  150.0980 O   0  0  0  0  0  0  0  0  0  0  0  0
  160.4600  206.2120  148.7440 C   0  0  0  0  0  1  0  0  0  0  0  0
  161.9610  212.0210  149.5990 C   0  0  0  0  0  2  0  0  0  0  0  0
  162.1450  211.9730  148.0920 C   0  0  1  0  0  3  0  0  0  0  0  0
  160.9680  211.5660  147.4910 F   0  0  0  0  0  0  0  0  0  0  0  0
  162.5960  213.6230  147.4810 S   0  0  0  0  0  0  0  0  0  0  0  0
  162.1090  213.2130  145.7820 C   0  0  0  0  0  1  0  0  0  0  0  0
  2 27  1  1  0  0  0
  2  1  1  0  0  0  0
  3  5  1  0  0  0  0
  3 16  1  6  0  0  0
  4  3  1  0  0  0  0
  5  1  1  1  0  0  0
  5  7  1  0  0  0  0
  6  2  1  0  0  0  0
  6  4  1  0  0  0  0
  7 12  1  0  0  0  0
  7  9  1  1  0  0  0
  8 10  1  0  0  0  0
  9  8  1  0  0  0  0
 12 14  1  1  0  0  0
 12 13  1  0  0  0  0
 13 10  1  0  0  0  0
 13 11  1  0  0  0  0
 15 14  1  0  0  0  0
 17 16  1  1  0  0  0
 18 17  1  6  0  0  0
 18 19  1  0  0  0  0
 20 21  1  1  0  0  0
 20 18  1  0  0  0  0
 20 19  1  0  0  0  0
 22 21  1  1  0  0  0
 23 22  1  0  0  0  0
 24 23  1  0  0  0  0
 24 22  1  0  0  0  0
 25 17  1  0  0  0  0
 26 25  1  0  0  0  0
 28 29  1  6  0  0  0
 28 27  1  0  0  0  0
 30 28  1  0  0  0  0
 31 30  1  0  0  0  0
M  END
>  <MODEL>
5

>  <REMARK>
 VINA RESULT:      -5.4      2.388      6.870
  Name = 
  11 active torsions:
  status: ('A' for Active; 'I' for Inactive)
    1  A    between atoms: C_1  and  C_24
    2  A    between atoms: C_2  and  S_13
    3  A    between atoms: C_2  and  C_25
    4  A    between atoms: O_3  and  C_9
    5  A    between atoms: C_5  and  C_21
    6  A    between atoms: C_6  and  C_9
    7  A    between atoms: C_9  and  C_23
    8  A    between atoms: C_12  and  C_25
    9  A    between atoms: C_15  and  C_23
   10  A    between atoms: C_17  and  C_30
   11  A    between atoms: C_19  and  C_24
                            x       y       z     vdW  Elec       q    Type
                         _______ _______ _______ _____ _____    ______ ____

>  <TORSDO>
F 11

$$$$
=
 OpenBabel11052422463D

 31 34  0  0  1  0  0  0  0  0999 V2000
  161.7910  209.3000  148.7610 O   0  0  0  0  0  0  0  0  0  0  0  0
  161.7440  207.9170  149.0170 C   0  0  2  0  0  3  0  0  0  0  0  0
  162.4800  209.4350  151.0920 C   0  0  1  0  0  3  0  0  0  0  0  0
  162.3310  208.0340  151.1210 O   0  0  0  0  0  0  0  0  0  0  0  0
  161.5600  209.9750  149.9810 C   0  0  1  0  0  3  0  0  0  0  0  0
  162.7550  207.5880  149.9450 O   0  0  0  0  0  0  0  0  0  0  0  0
  161.7210  211.4890  149.7950 C   0  0  1  0  0  3  0  0  0  0  0  0
  161.2400  212.2040  147.4300 C   0  0  0  0  0  2  0  0  0  0  0  0
  162.3270  211.8310  148.4250 C   0  0  0  0  0  2  0  0  0  0  0  0
  160.4580  213.4370  147.9140 C   0  0  0  0  0  2  0  0  0  0  0  0
  161.3490  214.4340  149.8740 C   0  0  0  0  0  1  0  0  0  0  0  0
  160.3810  212.2190  150.0410 C   0  0  2  0  0  3  0  0  0  0  0  0
  160.3110  213.5370  149.3770 N   0  0  0  0  0  0  0  0  0  0  0  0
  160.0460  212.3340  151.5250 C   0  0  0  0  0  2  0  0  0  0  0  0
  158.6690  212.2200  151.7210 O   0  0  0  0  0  1  0  0  0  0  0  0
  162.0980  210.0220  152.4460 C   0  0  0  0  0  2  0  0  0  0  0  0
  161.0330  209.1890  153.1590 C   0  0  1  0  0  3  0  0  0  0  0  0
  161.5780  207.8320  153.5830 C   0  0  1  0  0  3  0  0  0  0  0  0
  160.6410  207.1930  154.5870 C   0  0  0  0  0  2  0  0  0  0  0  0
  160.6180  206.7460  153.1400 C   0  0  2  0  0  3  0  0  0  0  0  0
  161.3820  205.4430  153.0020 C   0  0  0  0  0  2  0  0  0  0  0  0
  160.8940  204.6810  151.7860 C   0  0  2  0  0  3  0  0  0  0  0  0
  160.9890  203.2260  152.0300 C   0  0  0  0  0  2  0  0  0  0  0  0
  161.9550  203.9130  151.2730 O   0  0  0  0  0  0  0  0  0  0  0  0
  160.5380  209.8790  154.2700 O   0  0  0  0  0  0  0  0  0  0  0  0
  161.5870  210.7020  154.6800 C   0  0  0  0  0  1  0  0  0  0  0  0
  161.9740  207.1620  147.7220 C   0  0  0  0  0  2  0  0  0  0  0  0
  161.5800  205.7030  147.8740 C   0  0  1  0  0  3  0  0  0  0  0  0
  160.4150  205.6090  148.6120 F   0  0  0  0  0  0  0  0  0  0  0  0
  161.3180  204.9690  146.2340 S   0  0  0  0  0  0  0  0  0  0  0  0
  163.0940  204.7030  145.9820 C   0  0  0  0  0  1  0  0  0  0  0  0
  1  2  1  0  0  0  0
  2 27  1  6  0  0  0
  2  6  1  0  0  0  0
  3  4  1  0  0  0  0
  3 16  1  1  0  0  0
  5  1  1  6  0  0  0
  5  3  1  0  0  0  0
  6  4  1  0  0  0  0
  7  9  1  6  0  0  0
  7  5  1  0  0  0  0
  7 12  1  0  0  0  0
  8 10  1  0  0  0  0
  8  9  1  0  0  0  0
 10 13  1  0  0  0  0
 12 14  1  1  0  0  0
 13 11  1  0  0  0  0
 13 12  1  0  0  0  0
 14 15  1  0  0  0  0
 17 16  1  1  0  0  0
 17 25  1  0  0  0  0
 18 17  1  6  0  0  0
 18 19  1  0  0  0  0
 20 21  1  1  0  0  0
 20 18  1  0  0  0  0
 20 19  1  0  0  0  0
 22 23  1  0  0  0  0
 22 21  1  1  0  0  0
 24 22  1  0  0  0  0
 24 23  1  0  0  0  0
 25 26  1  0  0  0  0
 27 28  1  0  0  0  0
 28 29  1  1  0  0  0
 30 28  1  0  0  0  0
 31 30  1  0  0  0  0
M  END
>  <MODEL>
6

>  <REMARK>
 VINA RESULT:      -5.2      3.373      6.480
  Name = 
  11 active torsions:
  status: ('A' for Active; 'I' for Inactive)
    1  A    between atoms: C_1  and  C_24
    2  A    between atoms: C_2  and  S_13
    3  A    between atoms: C_2  and  C_25
    4  A    between atoms: O_3  and  C_9
    5  A    between atoms: C_5  and  C_21
    6  A    between atoms: C_6  and  C_9
    7  A    between atoms: C_9  and  C_23
    8  A    between atoms: C_12  and  C_25
    9  A    between atoms: C_15  and  C_23
   10  A    between atoms: C_17  and  C_30
   11  A    between atoms: C_19  and  C_24
                            x       y       z     vdW  Elec       q    Type
                         _______ _______ _______ _____ _____    ______ ____

>  <TORSDO>
F 11

$$$$
=
 OpenBabel11052422463D

 31 34  0  0  1  0  0  0  0  0999 V2000
  160.7570  211.0770  151.6110 O   0  0  0  0  0  0  0  0  0  0  0  0
  161.2000  211.0260  150.2760 C   0  0  2  0  0  3  0  0  0  0  0  0
  162.0480  209.0260  151.8340 C   0  0  1  0  0  3  0  0  0  0  0  0
  162.3360  209.1660  150.4620 O   0  0  0  0  0  0  0  0  0  0  0  0
  160.7180  209.7540  152.1060 C   0  0  1  0  0  3  0  0  0  0  0  0
  162.4940  210.4660  150.2450 O   0  0  0  0  0  0  0  0  0  0  0  0
  160.3610  209.7490  153.5970 C   0  0  1  0  0  3  0  0  0  0  0  0
  162.2100  210.7030  155.0120 C   0  0  0  0  0  2  0  0  0  0  0  0
  161.5820  209.4280  154.4720 C   0  0  0  0  0  2  0  0  0  0  0  0
  161.2070  211.4790  155.8820 C   0  0  0  0  0  2  0  0  0  0  0  0
  159.1630  210.3300  156.2520 C   0  0  0  0  0  1  0  0  0  0  0  0
  159.6800  211.0760  154.0050 C   0  0  2  0  0  3  0  0  0  0  0  0
  159.8030  211.3660  155.4480 N   0  0  0  0  0  0  0  0  0  0  0  0
  158.2250  211.1460  153.5520 C   0  0  0  0  0  2  0  0  0  0  0  0
  157.7280  212.4380  153.7180 O   0  0  0  0  0  1  0  0  0  0  0  0
  161.9400  207.5470  152.1900 C   0  0  0  0  0  2  0  0  0  0  0  0
  160.9540  206.8050  151.2870 C   0  0  1  0  0  3  0  0  0  0  0  0
  161.5940  206.4230  149.9590 C   0  0  1  0  0  3  0  0  0  0  0  0
  160.9350  205.1730  149.4120 C   0  0  0  0  0  2  0  0  0  0  0  0
  160.5610  206.5320  148.8560 C   0  0  2  0  0  3  0  0  0  0  0  0
  161.2740  206.7500  147.5360 C   0  0  0  0  0  2  0  0  0  0  0  0
  160.9260  205.6370  146.5670 C   0  0  2  0  0  3  0  0  0  0  0  0
  161.7740  205.7330  145.3600 C   0  0  0  0  0  2  0  0  0  0  0  0
  160.4480  206.2040  145.3720 O   0  0  0  0  0  0  0  0  0  0  0  0
  160.4660  205.6650  151.9330 O   0  0  0  0  0  0  0  0  0  0  0  0
  161.2060  205.5730  153.1110 C   0  0  0  0  0  1  0  0  0  0  0  0
  161.2380  212.4330  149.7100 C   0  0  0  0  0  2  0  0  0  0  0  0
  161.6940  212.4160  148.2620 C   0  0  1  0  0  3  0  0  0  0  0  0
  161.2030  211.2870  147.6310 F   0  0  0  0  0  0  0  0  0  0  0  0
  161.0800  213.8990  147.4120 S   0  0  0  0  0  0  0  0  0  0  0  0
  161.7970  213.3840  145.8270 C   0  0  0  0  0  1  0  0  0  0  0  0
  2 27  1  1  0  0  0
  2  1  1  0  0  0  0
  3  5  1  0  0  0  0
  3 16  1  6  0  0  0
  4  3  1  0  0  0  0
  5  1  1  1  0  0  0
  5  7  1  0  0  0  0
  6  2  1  0  0  0  0
  6  4  1  0  0  0  0
  7 12  1  0  0  0  0
  7  9  1  1  0  0  0
  8 10  1  0  0  0  0
  9  8  1  0  0  0  0
 12 14  1  1  0  0  0
 12 13  1  0  0  0  0
 13 10  1  0  0  0  0
 13 11  1  0  0  0  0
 14 15  1  0  0  0  0
 17 25  1  0  0  0  0
 17 16  1  1  0  0  0
 18 17  1  1  0  0  0
 19 18  1  0  0  0  0
 20 21  1  6  0  0  0
 20 19  1  0  0  0  0
 20 18  1  0  0  0  0
 22 21  1  1  0  0  0
 23 24  1  0  0  0  0
 23 22  1  0  0  0  0
 24 22  1  0  0  0  0
 25 26  1  0  0  0  0
 28 29  1  6  0  0  0
 28 27  1  0  0  0  0
 30 28  1  0  0  0  0
 31 30  1  0  0  0  0
M  END
>  <MODEL>
7

>  <REMARK>
 VINA RESULT:      -5.2      2.298      6.502
  Name = 
  11 active torsions:
  status: ('A' for Active; 'I' for Inactive)
    1  A    between atoms: C_1  and  C_24
    2  A    between atoms: C_2  and  S_13
    3  A    between atoms: C_2  and  C_25
    4  A    between atoms: O_3  and  C_9
    5  A    between atoms: C_5  and  C_21
    6  A    between atoms: C_6  and  C_9
    7  A    between atoms: C_9  and  C_23
    8  A    between atoms: C_12  and  C_25
    9  A    between atoms: C_15  and  C_23
   10  A    between atoms: C_17  and  C_30
   11  A    between atoms: C_19  and  C_24
                            x       y       z     vdW  Elec       q    Type
                         _______ _______ _______ _____ _____    ______ ____

>  <TORSDO>
F 11

$$$$
=
 OpenBabel11052422463D

 31 34  0  0  1  0  0  0  0  0999 V2000
  161.8310  207.5040  147.6000 O   0  0  0  0  0  0  0  0  0  0  0  0
  162.3170  208.3250  148.6350 C   0  0  2  0  0  3  0  0  0  0  0  0
  160.7660  206.2950  149.4250 C   0  0  1  0  0  3  0  0  0  0  0  0
  161.3890  207.2240  150.2810 O   0  0  0  0  0  0  0  0  0  0  0  0
  161.6080  206.2160  148.1370 C   0  0  1  0  0  3  0  0  0  0  0  0
  161.3470  208.3950  149.6570 O   0  0  0  0  0  0  0  0  0  0  0  0
  160.9600  205.3020  147.0890 C   0  0  1  0  0  3  0  0  0  0  0  0
  160.8310  206.4040  144.8300 C   0  0  0  0  0  2  0  0  0  0  0  0
  160.0760  206.0950  146.1130 C   0  0  0  0  0  2  0  0  0  0  0  0
  161.2570  205.1060  144.1220 C   0  0  0  0  0  2  0  0  0  0  0  0
  160.4100  203.1350  145.1350 C   0  0  0  0  0  1  0  0  0  0  0  0
  162.0300  204.4590  146.3580 C   0  0  2  0  0  3  0  0  0  0  0  0
  161.5860  203.9920  145.0280 N   0  0  0  0  0  0  0  0  0  0  0  0
  162.5340  203.2970  147.2080 C   0  0  0  0  0  2  0  0  0  0  0  0
  161.4650  202.6530  147.8310 O   0  0  0  0  0  1  0  0  0  0  0  0
  160.6910  204.9340  150.1080 C   0  0  0  0  0  2  0  0  0  0  0  0
  161.4480  204.9100  151.4360 C   0  0  1  0  0  3  0  0  0  0  0  0
  160.6740  205.6290  152.5320 C   0  0  1  0  0  3  0  0  0  0  0  0
  161.2070  205.2200  153.8900 C   0  0  0  0  0  2  0  0  0  0  0  0
  161.6140  206.5490  153.2860 C   0  0  2  0  0  3  0  0  0  0  0  0
  160.8030  207.6610  153.9240 C   0  0  0  0  0  2  0  0  0  0  0  0
  161.3180  209.0100  153.4600 C   0  0  2  0  0  3  0  0  0  0  0  0
  160.3560  210.0710  153.8260 C   0  0  0  0  0  2  0  0  0  0  0  0
  160.4160  209.5450  152.5230 O   0  0  0  0  0  0  0  0  0  0  0  0
  161.7160  203.5920  151.8190 O   0  0  0  0  0  0  0  0  0  0  0  0
  160.7960  202.8170  151.1130 C   0  0  0  0  0  1  0  0  0  0  0  0
  162.5810  209.7140  148.0850 C   0  0  0  0  0  2  0  0  0  0  0  0
  161.9570  210.7710  148.9790 C   0  0  1  0  0  3  0  0  0  0  0  0
  162.5180  210.7060  150.2410 F   0  0  0  0  0  0  0  0  0  0  0  0
  162.2500  212.4180  148.2710 S   0  0  0  0  0  0  0  0  0  0  0  0
  160.7290  213.0880  148.9980 C   0  0  0  0  0  1  0  0  0  0  0  0
  1  2  1  0  0  0  0
  2 27  1  6  0  0  0
  2  6  1  0  0  0  0
  3 16  1  1  0  0  0
  3  4  1  0  0  0  0
  5  1  1  6  0  0  0
  5  3  1  0  0  0  0
  6  4  1  0  0  0  0
  7  9  1  6  0  0  0
  7  5  1  0  0  0  0
  8  9  1  0  0  0  0
 10  8  1  0  0  0  0
 10 13  1  0  0  0  0
 12  7  1  0  0  0  0
 12 14  1  1  0  0  0
 13 11  1  0  0  0  0
 13 12  1  0  0  0  0
 14 15  1  0  0  0  0
 17 16  1  6  0  0  0
 17 25  1  0  0  0  0
 18 17  1  6  0  0  0
 18 20  1  0  0  0  0
 18 19  1  0  0  0  0
 20 19  1  0  0  0  0
 20 21  1  1  0  0  0
 22 23  1  0  0  0  0
 22 21  1  1  0  0  0
 24 22  1  0  0  0  0
 24 23  1  0  0  0  0
 26 25  1  0  0  0  0
 27 28  1  0  0  0  0
 28 29  1  1  0  0  0
 30 28  1  0  0  0  0
 30 31  1  0  0  0  0
M  END
>  <MODEL>
8

>  <REMARK>
 VINA RESULT:      -5.0      2.624      4.809
  Name = 
  11 active torsions:
  status: ('A' for Active; 'I' for Inactive)
    1  A    between atoms: C_1  and  C_24
    2  A    between atoms: C_2  and  S_13
    3  A    between atoms: C_2  and  C_25
    4  A    between atoms: O_3  and  C_9
    5  A    between atoms: C_5  and  C_21
    6  A    between atoms: C_6  and  C_9
    7  A    between atoms: C_9  and  C_23
    8  A    between atoms: C_12  and  C_25
    9  A    between atoms: C_15  and  C_23
   10  A    between atoms: C_17  and  C_30
   11  A    between atoms: C_19  and  C_24
                            x       y       z     vdW  Elec       q    Type
                         _______ _______ _______ _____ _____    ______ ____

>  <TORSDO>
F 11

$$$$
=
 OpenBabel11052422463D

 31 34  0  0  1  0  0  0  0  0999 V2000
  161.5870  205.6790  148.1500 O   0  0  0  0  0  0  0  0  0  0  0  0
  162.2060  206.5950  147.2800 C   0  0  2  0  0  3  0  0  0  0  0  0
  161.5040  207.5840  149.6620 C   0  0  1  0  0  3  0  0  0  0  0  0
  162.1640  208.3030  148.6460 O   0  0  0  0  0  0  0  0  0  0  0  0
  161.8480  206.0950  149.4750 C   0  0  1  0  0  3  0  0  0  0  0  0
  161.6560  207.8760  147.4960 O   0  0  0  0  0  0  0  0  0  0  0  0
  161.0960  205.2070  150.4740 C   0  0  1  0  0  3  0  0  0  0  0  0
  160.8350  202.8500  149.6290 C   0  0  0  0  0  2  0  0  0  0  0  0
  160.1680  204.2100  149.7620 C   0  0  0  0  0  2  0  0  0  0  0  0
  161.1660  202.2680  151.0140 C   0  0  0  0  0  2  0  0  0  0  0  0
  160.3340  203.5580  152.8240 C   0  0  0  0  0  1  0  0  0  0  0  0
  162.0810  204.5040  151.4360 C   0  0  2  0  0  3  0  0  0  0  0  0
  161.5260  203.2720  152.0320 N   0  0  0  0  0  0  0  0  0  0  0  0
  162.6100  205.4450  152.5150 C   0  0  0  0  0  2  0  0  0  0  0  0
  161.6080  205.7300  153.4420 O   0  0  0  0  0  1  0  0  0  0  0  0
  161.9660  208.0810  151.0280 C   0  0  0  0  0  2  0  0  0  0  0  0
  161.5950  209.5440  151.2680 C   0  0  1  0  0  3  0  0  0  0  0  0
  161.6880  209.9080  152.7430 C   0  0  1  0  0  3  0  0  0  0  0  0
  160.3690  210.4870  153.2140 C   0  0  0  0  0  2  0  0  0  0  0  0
  160.7220  209.0480  153.5330 C   0  0  2  0  0  3  0  0  0  0  0  0
  161.2090  208.9540  154.9660 C   0  0  0  0  0  2  0  0  0  0  0  0
  160.0380  208.7040  155.8970 C   0  0  2  0  0  3  0  0  0  0  0  0
  160.4370  207.7730  156.9730 C   0  0  0  0  0  2  0  0  0  0  0  0
  159.7040  207.3380  155.8530 O   0  0  0  0  0  0  0  0  0  0  0  0
  162.4170  210.3850  150.5100 O   0  0  0  0  0  0  0  0  0  0  0  0
  161.5600  211.3530  149.9890 C   0  0  0  0  0  1  0  0  0  0  0  0
  161.9570  206.1670  145.8460 C   0  0  0  0  0  2  0  0  0  0  0  0
  162.7120  204.8880  145.5300 C   0  0  1  0  0  3  0  0  0  0  0  0
  163.7460  204.7210  146.4320 F   0  0  0  0  0  0  0  0  0  0  0  0
  161.5800  203.4710  145.6370 S   0  0  0  0  0  0  0  0  0  0  0  0
  160.3820  204.2410  144.5140 C   0  0  0  0  0  1  0  0  0  0  0  0
  2 27  1  6  0  0  0
  2  6  1  0  0  0  0
  2  1  1  0  0  0  0
  3 16  1  1  0  0  0
  4  3  1  0  0  0  0
  5  1  1  6  0  0  0
  5  3  1  0  0  0  0
  5  7  1  0  0  0  0
  6  4  1  0  0  0  0
  7  9  1  6  0  0  0
  7 12  1  0  0  0  0
  8  9  1  0  0  0  0
  8 10  1  0  0  0  0
 10 13  1  0  0  0  0
 12 13  1  0  0  0  0
 12 14  1  1  0  0  0
 13 11  1  0  0  0  0
 14 15  1  0  0  0  0
 17 16  1  1  0  0  0
 18 17  1  6  0  0  0
 18 19  1  0  0  0  0
 18 20  1  0  0  0  0
 19 20  1  0  0  0  0
 20 21  1  1  0  0  0
 22 21  1  6  0  0  0
 22 23  1  0  0  0  0
 24 22  1  0  0  0  0
 24 23  1  0  0  0  0
 25 17  1  0  0  0  0
 26 25  1  0  0  0  0
 28 30  1  0  0  0  0
 28 27  1  0  0  0  0
 28 29  1  1  0  0  0
 31 30  1  0  0  0  0
M  END
>  <MODEL>
9

>  <REMARK>
 VINA RESULT:      -4.9      3.298      4.811
  Name = 
  11 active torsions:
  status: ('A' for Active; 'I' for Inactive)
    1  A    between atoms: C_1  and  C_24
    2  A    between atoms: C_2  and  S_13
    3  A    between atoms: C_2  and  C_25
    4  A    between atoms: O_3  and  C_9
    5  A    between atoms: C_5  and  C_21
    6  A    between atoms: C_6  and  C_9
    7  A    between atoms: C_9  and  C_23
    8  A    between atoms: C_12  and  C_25
    9  A    between atoms: C_15  and  C_23
   10  A    between atoms: C_17  and  C_30
   11  A    between atoms: C_19  and  C_24
                            x       y       z     vdW  Elec       q    Type
                         _______ _______ _______ _____ _____    ______ ____

>  <TORSDO>
F 11

$$$$
