=
 OpenBabel11052423033D

 28 31  0  0  1  0  0  0  0  0999 V2000
  161.0930  210.9410  155.3200 C   0  0  2  0  0  0  0  0  0  0  0  0
  159.5540  212.1220  153.8290 N   0  0  0  0  0  0  0  0  0  0  0  0
  160.7600  212.2710  154.6580 C   0  0  0  0  0  2  0  0  0  0  0  0
  159.8450  212.7450  152.5500 C   0  0  0  0  0  1  0  0  0  0  0  0
  159.3430  210.6980  153.5760 C   0  0  2  0  0  3  0  0  0  0  0  0
  161.0950  208.8020  153.8550 C   0  0  2  0  0  3  0  0  0  0  0  0
  160.0670  208.5300  154.9470 C   0  0  0  0  0  2  0  0  0  0  0  0
  157.8960  210.3420  153.8800 C   0  0  0  0  0  1  0  0  0  0  0  0
  162.4690  210.7200  155.2220 O   0  0  0  0  0  1  0  0  0  0  0  0
  160.3050  209.9560  154.4820 C   0  0  1  0  0  0  0  0  0  0  0  0
  160.5420  208.3950  152.5680 N   0  0  0  0  0  2  0  0  0  0  0  0
  161.7910  206.2440  152.9120 C   0  0  0  0  0  2  0  0  0  0  0  0
  160.7140  206.0180  151.8510 C   0  0  1  0  0  3  0  0  0  0  0  0
  161.4030  207.3720  151.9810 C   0  0  1  0  0  0  0  0  0  0  0  0
  161.3010  204.7830  148.2530 C   0  0  0  0  0  2  0  0  0  0  0  0
  161.2720  205.1470  150.7300 C   0  0  2  0  0  3  0  0  0  0  0  0
  161.3810  202.8210  149.8080 C   0  0  1  0  0  3  0  0  0  0  0  0
  160.7590  205.6540  149.3820 C   0  0  0  0  0  2  0  0  0  0  0  0
  160.8410  203.6960  150.9370 C   0  0  0  0  0  2  0  0  0  0  0  0
  160.8430  201.1450  150.0480 Cl  0  0  0  0  0  0  0  0  0  0  0  0
  160.8780  203.3300  148.4600 C   0  0  0  0  0  2  0  0  0  0  0  0
  162.3510  208.9010  150.4390 O   0  0  0  0  0  0  0  0  0  0  0  0
  162.4060  207.7920  150.9430 C   0  0  0  0  0  3  0  0  0  0  0  0
  160.6930  210.9400  156.8030 C   0  0  0  0  0  2  0  0  0  0  0  0
  159.7830  212.0980  157.2130 C   0  0  0  0  0  2  0  0  0  0  0  0
  158.3240  211.6630  157.2600 C   0  0  0  0  0  2  0  0  0  0  0  0
  157.4050  212.7460  156.7150 C   0  0  0  0  0  2  0  0  0  0  0  0
  155.9890  212.2200  156.5810 C   0  0  0  0  0  1  0  0  0  0  0  0
  1  9  1  6  0  0  0
  1 24  1  0  0  0  0
  2  3  1  0  0  0  0
  3  1  1  0  0  0  0
  4  2  1  0  0  0  0
  5  2  1  0  0  0  0
  5  8  1  1  0  0  0
  5 10  1  0  0  0  0
  6 11  1  6  0  0  0
  6 10  1  0  0  0  0
  6  7  1  0  0  0  0
 10  7  1  1  0  0  0
 10  1  1  0  0  0  0
 13 14  1  0  0  0  0
 13 12  1  1  0  0  0
 14 23  1  6  0  0  0
 14 11  1  0  0  0  0
 14 12  1  0  0  0  0
 15 21  1  0  0  0  0
 15 18  1  0  0  0  0
 16 18  1  6  0  0  0
 16 19  1  0  0  0  0
 16 13  1  0  0  0  0
 17 20  1  1  0  0  0
 17 19  1  0  0  0  0
 21 17  1  0  0  0  0
 22 23  2  0  0  0  0
 24 25  1  0  0  0  0
 25 26  1  0  0  0  0
 27 26  1  0  0  0  0
 28 27  1  0  0  0  0
M  END
>  <MODEL>
1

>  <REMARK>
 VINA RESULT:      -5.3      0.000      0.000
  Name = 
  8 active torsions:
  status: ('A' for Active; 'I' for Inactive)
    1  A    between atoms: C_1  and  C_11
    2  A    between atoms: C_6  and  C_8
    3  A    between atoms: C_6  and  C_22
    4  A    between atoms: C_8  and  C_11
    5  A    between atoms: C_9  and  C_18
    6  A    between atoms: N_10  and  C_17
    7  A    between atoms: N_10  and  C_25
    8  A    between atoms: C_20  and  C_25
                            x       y       z     vdW  Elec       q    Type
                         _______ _______ _______ _____ _____    ______ ____

>  <TORSDO>
F 8

$$$$
=
 OpenBabel11052423033D

 28 31  0  0  1  0  0  0  0  0999 V2000
  159.4570  211.1970  153.6100 C   0  0  2  0  0  0  0  0  0  0  0  0
  160.2290  210.4610  155.8120 N   0  0  0  0  0  0  0  0  0  0  0  0
  159.0810  211.0060  155.0740 C   0  0  0  0  0  2  0  0  0  0  0  0
  159.7260  209.3630  156.6190 C   0  0  0  0  0  1  0  0  0  0  0  0
  161.1680  209.8910  154.8470 C   0  0  2  0  0  3  0  0  0  0  0  0
  160.6550  209.2530  152.3830 C   0  0  2  0  0  3  0  0  0  0  0  0
  161.6110  210.4340  152.2760 C   0  0  0  0  0  2  0  0  0  0  0  0
  162.5680  210.4050  155.1430 C   0  0  0  0  0  1  0  0  0  0  0  0
  158.4070  210.7370  152.8110 O   0  0  0  0  0  1  0  0  0  0  0  0
  160.6890  210.3250  153.4770 C   0  0  1  0  0  0  0  0  0  0  0  0
  161.4090  208.0620  152.7600 N   0  0  0  0  0  2  0  0  0  0  0  0
  162.7090  206.2380  151.6270 C   0  0  0  0  0  2  0  0  0  0  0  0
  161.3050  205.7180  151.9320 C   0  0  1  0  0  3  0  0  0  0  0  0
  161.5320  207.1870  151.5980 C   0  0  1  0  0  0  0  0  0  0  0  0
  160.2630  202.5710  149.9760 C   0  0  0  0  0  2  0  0  0  0  0  0
  160.7960  204.8890  150.7570 C   0  0  2  0  0  3  0  0  0  0  0  0
  161.2180  204.2430  148.3750 C   0  0  1  0  0  3  0  0  0  0  0  0
  160.7590  203.4120  151.1480 C   0  0  0  0  0  2  0  0  0  0  0  0
  161.7110  205.0840  149.5490 C   0  0  0  0  0  2  0  0  0  0  0  0
  162.3130  204.4570  146.9920 Cl  0  0  0  0  0  0  0  0  0  0  0  0
  161.1720  202.7680  148.7650 C   0  0  0  0  0  2  0  0  0  0  0  0
  161.8950  208.2750  149.5230 O   0  0  0  0  0  0  0  0  0  0  0  0
  161.0980  207.7150  150.2580 C   0  0  0  0  0  3  0  0  0  0  0  0
  159.7160  212.6770  153.2890 C   0  0  0  0  0  2  0  0  0  0  0  0
  158.8840  213.2280  152.1310 C   0  0  0  0  0  2  0  0  0  0  0  0
  159.7240  213.3760  150.8700 C   0  0  0  0  0  2  0  0  0  0  0  0
  158.8900  213.8870  149.7050 C   0  0  0  0  0  2  0  0  0  0  0  0
  157.4690  213.3630  149.8010 C   0  0  0  0  0  1  0  0  0  0  0  0
  1  9  1  6  0  0  0
  1  3  1  0  0  0  0
  2  4  1  0  0  0  0
  3  2  1  0  0  0  0
  5  8  1  1  0  0  0
  5  2  1  0  0  0  0
  6 11  1  1  0  0  0
  6 10  1  0  0  0  0
  7  6  1  0  0  0  0
 10  7  1  6  0  0  0
 10  1  1  0  0  0  0
 10  5  1  0  0  0  0
 13 12  1  6  0  0  0
 14 23  1  6  0  0  0
 14 12  1  0  0  0  0
 14 13  1  0  0  0  0
 14 11  1  0  0  0  0
 15 18  1  0  0  0  0
 16 19  1  6  0  0  0
 16 18  1  0  0  0  0
 16 13  1  0  0  0  0
 17 20  1  6  0  0  0
 17 21  1  0  0  0  0
 17 19  1  0  0  0  0
 21 15  1  0  0  0  0
 22 23  2  0  0  0  0
 24  1  1  0  0  0  0
 25 24  1  0  0  0  0
 26 25  1  0  0  0  0
 27 28  1  0  0  0  0
 27 26  1  0  0  0  0
M  END
>  <MODEL>
2

>  <REMARK>
 VINA RESULT:      -5.1      2.014      3.598
  Name = 
  8 active torsions:
  status: ('A' for Active; 'I' for Inactive)
    1  A    between atoms: C_1  and  C_11
    2  A    between atoms: C_6  and  C_8
    3  A    between atoms: C_6  and  C_22
    4  A    between atoms: C_8  and  C_11
    5  A    between atoms: C_9  and  C_18
    6  A    between atoms: N_10  and  C_17
    7  A    between atoms: N_10  and  C_25
    8  A    between atoms: C_20  and  C_25
                            x       y       z     vdW  Elec       q    Type
                         _______ _______ _______ _____ _____    ______ ____

>  <TORSDO>
F 8

$$$$
=
 OpenBabel11052423033D

 28 31  0  0  1  0  0  0  0  0999 V2000
  157.5470  212.7830  153.7380 C   0  0  2  0  0  0  0  0  0  0  0  0
  156.0380  211.7680  155.3760 N   0  0  0  0  0  0  0  0  0  0  0  0
  156.2600  211.9920  153.9400 C   0  0  0  0  0  2  0  0  0  0  0  0
  155.6960  210.3660  155.5340 C   0  0  0  0  0  1  0  0  0  0  0  0
  157.3030  211.9850  156.0770 C   0  0  2  0  0  3  0  0  0  0  0  0
  159.6720  212.0210  155.0140 C   0  0  2  0  0  3  0  0  0  0  0  0
  159.4360  213.4580  155.4630 C   0  0  0  0  0  2  0  0  0  0  0  0
  157.0700  212.9090  157.2610 C   0  0  0  0  0  1  0  0  0  0  0  0
  158.2660  212.2120  152.6850 O   0  0  0  0  0  1  0  0  0  0  0  0
  158.2510  212.5960  155.0660 C   0  0  1  0  0  0  0  0  0  0  0  0
  159.9730  211.2000  156.1820 N   0  0  0  0  0  2  0  0  0  0  0  0
  160.4380  208.7370  156.3110 C   0  0  0  0  0  2  0  0  0  0  0  0
  160.1390  209.1010  154.8570 C   0  0  1  0  0  3  0  0  0  0  0  0
  160.8370  210.0950  155.7780 C   0  0  1  0  0  0  0  0  0  0  0  0
  162.0180  208.2420  151.6090 C   0  0  0  0  0  2  0  0  0  0  0  0
  161.0870  208.3460  153.9310 C   0  0  2  0  0  3  0  0  0  0  0  0
  161.5870  206.1280  152.8820 C   0  0  1  0  0  3  0  0  0  0  0  0
  161.0810  208.9960  152.5480 C   0  0  0  0  0  2  0  0  0  0  0  0
  160.6520  206.8860  153.8210 C   0  0  0  0  0  2  0  0  0  0  0  0
  161.0460  204.4420  152.7410 Cl  0  0  0  0  0  0  0  0  0  0  0  0
  161.5900  206.7800  151.5020 C   0  0  0  0  0  2  0  0  0  0  0  0
  163.0310  210.5310  156.5600 O   0  0  0  0  0  0  0  0  0  0  0  0
  162.3050  210.3660  155.5940 C   0  0  0  0  0  3  0  0  0  0  0  0
  157.2520  214.2520  153.4020 C   0  0  0  0  0  2  0  0  0  0  0  0
  156.3300  214.4530  152.2000 C   0  0  0  0  0  2  0  0  0  0  0  0
  157.0930  214.3100  150.8900 C   0  0  0  0  0  2  0  0  0  0  0  0
  156.1460  214.2620  149.7000 C   0  0  0  0  0  2  0  0  0  0  0  0
  154.7070  214.3810  150.1630 C   0  0  0  0  0  1  0  0  0  0  0  0
  1  9  1  6  0  0  0
  1  3  1  0  0  0  0
  1 10  1  0  0  0  0
  2  4  1  0  0  0  0
  2  5  1  0  0  0  0
  3  2  1  0  0  0  0
  5  8  1  1  0  0  0
  6 10  1  0  0  0  0
  6  7  1  0  0  0  0
  6 11  1  1  0  0  0
 10  7  1  1  0  0  0
 10  5  1  0  0  0  0
 13 14  1  0  0  0  0
 13 12  1  1  0  0  0
 14 23  1  6  0  0  0
 14 11  1  0  0  0  0
 14 12  1  0  0  0  0
 15 18  1  0  0  0  0
 16 18  1  6  0  0  0
 16 13  1  0  0  0  0
 17 20  1  6  0  0  0
 17 19  1  0  0  0  0
 19 16  1  0  0  0  0
 21 15  1  0  0  0  0
 21 17  1  0  0  0  0
 23 22  2  0  0  0  0
 24  1  1  0  0  0  0
 25 24  1  0  0  0  0
 26 25  1  0  0  0  0
 27 28  1  0  0  0  0
 27 26  1  0  0  0  0
M  END
>  <MODEL>
3

>  <REMARK>
 VINA RESULT:      -5.0      2.688      5.053
  Name = 
  8 active torsions:
  status: ('A' for Active; 'I' for Inactive)
    1  A    between atoms: C_1  and  C_11
    2  A    between atoms: C_6  and  C_8
    3  A    between atoms: C_6  and  C_22
    4  A    between atoms: C_8  and  C_11
    5  A    between atoms: C_9  and  C_18
    6  A    between atoms: N_10  and  C_17
    7  A    between atoms: N_10  and  C_25
    8  A    between atoms: C_20  and  C_25
                            x       y       z     vdW  Elec       q    Type
                         _______ _______ _______ _____ _____    ______ ____

>  <TORSDO>
F 8

$$$$
=
 OpenBabel11052423033D

 28 31  0  0  1  0  0  0  0  0999 V2000
  159.4320  211.1990  153.7780 C   0  0  2  0  0  0  0  0  0  0  0  0
  160.3140  210.4410  155.9310 N   0  0  0  0  0  0  0  0  0  0  0  0
  159.1200  210.9630  155.2500 C   0  0  0  0  0  2  0  0  0  0  0  0
  159.8800  209.3080  156.7300 C   0  0  0  0  0  1  0  0  0  0  0  0
  161.2330  209.9250  154.9170 C   0  0  2  0  0  3  0  0  0  0  0  0
  160.6450  209.3250  152.4600 C   0  0  2  0  0  3  0  0  0  0  0  0
  161.5570  210.5410  152.3450 C   0  0  0  0  0  2  0  0  0  0  0  0
  162.6250  210.4810  155.1710 C   0  0  0  0  0  1  0  0  0  0  0  0
  158.3680  210.7220  153.0090 O   0  0  0  0  0  1  0  0  0  0  0  0
  160.6860  210.3740  153.5780 C   0  0  1  0  0  0  0  0  0  0  0  0
  161.4530  208.1530  152.7800 N   0  0  0  0  0  2  0  0  0  0  0  0
  162.7360  206.3610  151.5760 C   0  0  0  0  0  2  0  0  0  0  0  0
  161.3400  205.8280  151.9010 C   0  0  1  0  0  3  0  0  0  0  0  0
  161.5540  207.3060  151.5950 C   0  0  1  0  0  0  0  0  0  0  0  0
  160.2110  202.7290  149.9170 C   0  0  0  0  0  2  0  0  0  0  0  0
  160.8090  205.0240  150.7190 C   0  0  2  0  0  3  0  0  0  0  0  0
  161.2140  204.3860  148.3310 C   0  0  1  0  0  3  0  0  0  0  0  0
  160.7300  203.5450  151.0970 C   0  0  0  0  0  2  0  0  0  0  0  0
  161.7300  205.2030  149.5130 C   0  0  0  0  0  2  0  0  0  0  0  0
  162.3150  204.5810  146.9500 Cl  0  0  0  0  0  0  0  0  0  0  0  0
  161.1260  202.9100  148.7080 C   0  0  0  0  0  2  0  0  0  0  0  0
  161.8700  208.4210  149.5280 O   0  0  0  0  0  0  0  0  0  0  0  0
  161.0880  207.8620  150.2780 C   0  0  0  0  0  3  0  0  0  0  0  0
  159.6290  212.6940  153.4830 C   0  0  0  0  0  2  0  0  0  0  0  0
  158.5330  213.3170  152.6180 C   0  0  0  0  0  2  0  0  0  0  0  0
  157.6190  214.2100  153.4450 C   0  0  0  0  0  2  0  0  0  0  0  0
  156.3470  213.4800  153.8480 C   0  0  0  0  0  2  0  0  0  0  0  0
  156.1490  213.5500  155.3500 C   0  0  0  0  0  1  0  0  0  0  0  0
  1  9  1  6  0  0  0
  1  3  1  0  0  0  0
  2  4  1  0  0  0  0
  3  2  1  0  0  0  0
  5  8  1  1  0  0  0
  5  2  1  0  0  0  0
  6 11  1  1  0  0  0
  6 10  1  0  0  0  0
  7  6  1  0  0  0  0
 10  7  1  6  0  0  0
 10  1  1  0  0  0  0
 10  5  1  0  0  0  0
 12 14  1  0  0  0  0
 13 12  1  6  0  0  0
 14 23  1  6  0  0  0
 14 13  1  0  0  0  0
 14 11  1  0  0  0  0
 15 18  1  0  0  0  0
 16 19  1  6  0  0  0
 16 18  1  0  0  0  0
 16 13  1  0  0  0  0
 17 20  1  6  0  0  0
 17 21  1  0  0  0  0
 17 19  1  0  0  0  0
 21 15  1  0  0  0  0
 22 23  2  0  0  0  0
 24  1  1  0  0  0  0
 25 26  1  0  0  0  0
 25 24  1  0  0  0  0
 26 27  1  0  0  0  0
 27 28  1  0  0  0  0
M  END
>  <MODEL>
4

>  <REMARK>
 VINA RESULT:      -4.9      1.952      2.968
  Name = 
  8 active torsions:
  status: ('A' for Active; 'I' for Inactive)
    1  A    between atoms: C_1  and  C_11
    2  A    between atoms: C_6  and  C_8
    3  A    between atoms: C_6  and  C_22
    4  A    between atoms: C_8  and  C_11
    5  A    between atoms: C_9  and  C_18
    6  A    between atoms: N_10  and  C_17
    7  A    between atoms: N_10  and  C_25
    8  A    between atoms: C_20  and  C_25
                            x       y       z     vdW  Elec       q    Type
                         _______ _______ _______ _____ _____    ______ ____

>  <TORSDO>
F 8

$$$$
=
 OpenBabel11052423033D

 28 31  0  0  1  0  0  0  0  0999 V2000
  160.9190  204.7030  150.9870 C   0  0  2  0  0  0  0  0  0  0  0  0
  161.1490  205.9290  148.8820 N   0  0  0  0  0  0  0  0  0  0  0  0
  160.4920  204.7830  149.5270 C   0  0  0  0  0  2  0  0  0  0  0  0
  160.1230  206.6390  148.1400 C   0  0  0  0  0  1  0  0  0  0  0  0
  161.6280  206.8340  149.9270 C   0  0  2  0  0  3  0  0  0  0  0  0
  160.8620  206.8710  152.4080 C   0  0  2  0  0  3  0  0  0  0  0  0
  162.3100  206.4000  152.4660 C   0  0  0  0  0  2  0  0  0  0  0  0
  163.0790  207.1950  149.6540 C   0  0  0  0  0  1  0  0  0  0  0  0
  159.7930  204.4430  151.7730 O   0  0  0  0  0  1  0  0  0  0  0  0
  161.4720  206.0910  151.2380 C   0  0  1  0  0  0  0  0  0  0  0  0
  160.8380  208.3080  152.1540 N   0  0  0  0  0  2  0  0  0  0  0  0
  161.6540  210.2240  153.5550 C   0  0  0  0  0  2  0  0  0  0  0  0
  160.1600  210.4130  153.2950 C   0  0  1  0  0  3  0  0  0  0  0  0
  160.7540  209.0150  153.4280 C   0  0  1  0  0  0  0  0  0  0  0  0
  157.2850  211.5950  155.5650 C   0  0  0  0  0  2  0  0  0  0  0  0
  159.4760  210.9170  154.5610 C   0  0  2  0  0  3  0  0  0  0  0  0
  159.3880  212.7760  156.2370 C   0  0  1  0  0  3  0  0  0  0  0  0
  157.9780  211.0800  154.3070 C   0  0  0  0  0  2  0  0  0  0  0  0
  160.0810  212.2560  154.9800 C   0  0  0  0  0  2  0  0  0  0  0  0
  160.0820  214.3480  156.6890 Cl  0  0  0  0  0  0  0  0  0  0  0  0
  157.8910  212.9310  155.9890 C   0  0  0  0  0  2  0  0  0  0  0  0
  161.3240  208.1390  155.5550 O   0  0  0  0  0  0  0  0  0  0  0  0
  160.4850  208.2160  154.6730 C   0  0  0  0  0  3  0  0  0  0  0  0
  161.9480  203.5850  151.2060 C   0  0  0  0  0  2  0  0  0  0  0  0
  161.3390  202.2120  151.4930 C   0  0  0  0  0  2  0  0  0  0  0  0
  161.5300  201.2670  150.3150 C   0  0  0  0  0  2  0  0  0  0  0  0
  160.3500  201.3290  149.3570 C   0  0  0  0  0  2  0  0  0  0  0  0
  160.8310  201.5830  147.9410 C   0  0  0  0  0  1  0  0  0  0  0  0
  1 24  1  0  0  0  0
  1 10  1  0  0  0  0
  1  9  1  1  0  0  0
  2  3  1  0  0  0  0
  2  5  1  0  0  0  0
  3  1  1  0  0  0  0
  4  2  1  0  0  0  0
  5  8  1  6  0  0  0
  5 10  1  0  0  0  0
  6 11  1  6  0  0  0
  6  7  1  0  0  0  0
 10  6  1  0  0  0  0
 10  7  1  1  0  0  0
 11 14  1  0  0  0  0
 13 14  1  0  0  0  0
 13 12  1  1  0  0  0
 13 16  1  0  0  0  0
 14 12  1  0  0  0  0
 14 23  1  1  0  0  0
 15 21  1  0  0  0  0
 16 18  1  6  0  0  0
 16 19  1  0  0  0  0
 17 20  1  6  0  0  0
 18 15  1  0  0  0  0
 19 17  1  0  0  0  0
 21 17  1  0  0  0  0
 23 22  2  0  0  0  0
 24 25  1  0  0  0  0
 26 25  1  0  0  0  0
 27 26  1  0  0  0  0
 28 27  1  0  0  0  0
M  END
>  <MODEL>
5

>  <REMARK>
 VINA RESULT:      -4.7      3.365      8.818
  Name = 
  8 active torsions:
  status: ('A' for Active; 'I' for Inactive)
    1  A    between atoms: C_1  and  C_11
    2  A    between atoms: C_6  and  C_8
    3  A    between atoms: C_6  and  C_22
    4  A    between atoms: C_8  and  C_11
    5  A    between atoms: C_9  and  C_18
    6  A    between atoms: N_10  and  C_17
    7  A    between atoms: N_10  and  C_25
    8  A    between atoms: C_20  and  C_25
                            x       y       z     vdW  Elec       q    Type
                         _______ _______ _______ _____ _____    ______ ____

>  <TORSDO>
F 8

$$$$
=
 OpenBabel11052423033D

 28 31  0  0  1  0  0  0  0  0999 V2000
  159.6040  211.2200  153.0090 C   0  0  2  0  0  0  0  0  0  0  0  0
  160.1240  210.9800  155.3880 N   0  0  0  0  0  0  0  0  0  0  0  0
  159.1190  211.4680  154.4320 C   0  0  0  0  0  2  0  0  0  0  0  0
  159.4100  210.2080  156.3900 C   0  0  0  0  0  1  0  0  0  0  0  0
  161.0160  210.0570  154.6880 C   0  0  2  0  0  3  0  0  0  0  0  0
  160.5510  208.8790  152.4210 C   0  0  2  0  0  3  0  0  0  0  0  0
  161.6850  209.8500  152.1170 C   0  0  0  0  0  2  0  0  0  0  0  0
  162.4600  210.4340  154.9790 C   0  0  0  0  0  1  0  0  0  0  0  0
  158.5430  210.7170  152.2530 O   0  0  0  0  0  1  0  0  0  0  0  0
  160.6890  210.1840  153.2140 C   0  0  1  0  0  0  0  0  0  0  0  0
  161.0870  207.7350  153.1520 N   0  0  0  0  0  2  0  0  0  0  0  0
  160.6870  205.4960  152.0880 C   0  0  0  0  0  2  0  0  0  0  0  0
  160.6140  206.5720  151.0040 C   0  0  1  0  0  3  0  0  0  0  0  0
  161.5500  206.7340  152.1960 C   0  0  1  0  0  0  0  0  0  0  0  0
  161.5880  206.4630  147.2820 C   0  0  0  0  0  2  0  0  0  0  0  0
  161.3060  206.0750  149.7390 C   0  0  2  0  0  3  0  0  0  0  0  0
  161.5800  204.1290  148.1870 C   0  0  1  0  0  3  0  0  0  0  0  0
  160.9110  206.9580  148.5560 C   0  0  0  0  0  2  0  0  0  0  0  0
  160.9050  204.6270  149.4630 C   0  0  0  0  0  2  0  0  0  0  0  0
  161.0760  202.4550  147.8650 Cl  0  0  0  0  0  0  0  0  0  0  0  0
  161.1940  205.0140  147.0060 C   0  0  0  0  0  2  0  0  0  0  0  0
  163.5400  205.4580  152.0190 O   0  0  0  0  0  0  0  0  0  0  0  0
  163.0320  206.5670  151.9980 C   0  0  0  0  0  3  0  0  0  0  0  0
  160.1100  212.5160  152.3580 C   0  0  0  0  0  2  0  0  0  0  0  0
  159.1120  213.1760  151.4060 C   0  0  0  0  0  2  0  0  0  0  0  0
  159.8170  213.7720  150.1950 C   0  0  0  0  0  2  0  0  0  0  0  0
  160.8450  212.8080  149.6220 C   0  0  0  0  0  2  0  0  0  0  0  0
  161.0880  213.1050  148.1540 C   0  0  0  0  0  1  0  0  0  0  0  0
  1  9  1  6  0  0  0
  1 10  1  0  0  0  0
  1  3  1  0  0  0  0
  2  4  1  0  0  0  0
  3  2  1  0  0  0  0
  5  8  1  6  0  0  0
  5  2  1  0  0  0  0
  6 11  1  1  0  0  0
  6 10  1  0  0  0  0
  7  6  1  0  0  0  0
 10  7  1  6  0  0  0
 10  5  1  0  0  0  0
 12 14  1  0  0  0  0
 13 12  1  1  0  0  0
 13 14  1  0  0  0  0
 14 23  1  6  0  0  0
 14 11  1  0  0  0  0
 15 18  1  0  0  0  0
 16 18  1  6  0  0  0
 16 13  1  0  0  0  0
 17 20  1  6  0  0  0
 17 19  1  0  0  0  0
 19 16  1  0  0  0  0
 21 15  1  0  0  0  0
 21 17  1  0  0  0  0
 23 22  2  0  0  0  0
 24  1  1  0  0  0  0
 25 24  1  0  0  0  0
 26 25  1  0  0  0  0
 27 26  1  0  0  0  0
 28 27  1  0  0  0  0
M  END
>  <MODEL>
6

>  <REMARK>
 VINA RESULT:      -4.6      2.054      3.915
  Name = 
  8 active torsions:
  status: ('A' for Active; 'I' for Inactive)
    1  A    between atoms: C_1  and  C_11
    2  A    between atoms: C_6  and  C_8
    3  A    between atoms: C_6  and  C_22
    4  A    between atoms: C_8  and  C_11
    5  A    between atoms: C_9  and  C_18
    6  A    between atoms: N_10  and  C_17
    7  A    between atoms: N_10  and  C_25
    8  A    between atoms: C_20  and  C_25
                            x       y       z     vdW  Elec       q    Type
                         _______ _______ _______ _____ _____    ______ ____

>  <TORSDO>
F 8

$$$$
=
 OpenBabel11052423033D

 28 31  0  0  1  0  0  0  0  0999 V2000
  159.5620  211.6420  139.6110 C   0  0  2  0  0  0  0  0  0  0  0  0
  161.1940  213.0160  138.4130 N   0  0  0  0  0  0  0  0  0  0  0  0
  159.7570  212.7780  138.6160 C   0  0  0  0  0  2  0  0  0  0  0  0
  161.3990  214.4510  138.5040 C   0  0  0  0  0  1  0  0  0  0  0  0
  161.9230  212.4050  139.5230 C   0  0  2  0  0  3  0  0  0  0  0  0
  160.9320  211.6830  141.8120 C   0  0  2  0  0  3  0  0  0  0  0  0
  161.3150  210.3730  141.1350 C   0  0  0  0  0  2  0  0  0  0  0  0
  163.0600  211.5600  138.9730 C   0  0  0  0  0  1  0  0  0  0  0  0
  158.5560  211.9990  140.5130 O   0  0  0  0  0  1  0  0  0  0  0  0
  160.9180  211.5660  140.2840 C   0  0  1  0  0  0  0  0  0  0  0  0
  162.1430  212.3390  142.2990 N   0  0  0  0  0  2  0  0  0  0  0  0
  160.3120  213.6110  143.4530 C   0  0  0  0  0  2  0  0  0  0  0  0
  160.9320  212.6350  144.4520 C   0  0  1  0  0  3  0  0  0  0  0  0
  161.7840  213.2730  143.3610 C   0  0  1  0  0  0  0  0  0  0  0  0
  162.3270  213.3020  147.9770 C   0  0  0  0  0  2  0  0  0  0  0  0
  161.0670  213.3080  145.8140 C   0  0  2  0  0  3  0  0  0  0  0  0
  159.8840  213.8500  147.9540 C   0  0  1  0  0  3  0  0  0  0  0  0
  162.1910  212.6440  146.6070 C   0  0  0  0  0  2  0  0  0  0  0  0
  159.7510  213.1930  146.5820 C   0  0  0  0  0  2  0  0  0  0  0  0
  158.3560  213.6770  148.8440 Cl  0  0  0  0  0  0  0  0  0  0  0  0
  161.0120  213.1950  148.7450 C   0  0  0  0  0  2  0  0  0  0  0  0
  163.9640  214.1130  143.7580 O   0  0  0  0  0  0  0  0  0  0  0  0
  162.7680  214.3500  143.7290 C   0  0  0  0  0  3  0  0  0  0  0  0
  159.1570  210.3420  138.9010 C   0  0  0  0  0  2  0  0  0  0  0  0
  160.0610  209.9520  137.7320 C   0  0  0  0  0  2  0  0  0  0  0  0
  160.3550  208.4580  137.7350 C   0  0  0  0  0  2  0  0  0  0  0  0
  161.7680  208.1720  138.2200 C   0  0  0  0  0  2  0  0  0  0  0  0
  161.7390  207.2340  139.4120 C   0  0  0  0  0  1  0  0  0  0  0  0
  1 10  1  0  0  0  0
  1  9  1  1  0  0  0
  2  4  1  0  0  0  0
  2  3  1  0  0  0  0
  2  5  1  0  0  0  0
  3  1  1  0  0  0  0
  5  8  1  6  0  0  0
  5 10  1  0  0  0  0
  6 11  1  6  0  0  0
  7  6  1  0  0  0  0
 10  7  1  6  0  0  0
 10  6  1  0  0  0  0
 11 14  1  0  0  0  0
 13 12  1  6  0  0  0
 13 16  1  0  0  0  0
 14 12  1  0  0  0  0
 14 23  1  1  0  0  0
 14 13  1  0  0  0  0
 15 21  1  0  0  0  0
 16 19  1  1  0  0  0
 16 18  1  0  0  0  0
 17 21  1  0  0  0  0
 17 20  1  1  0  0  0
 18 15  1  0  0  0  0
 19 17  1  0  0  0  0
 23 22  2  0  0  0  0
 24  1  1  0  0  0  0
 25 26  1  0  0  0  0
 25 24  1  0  0  0  0
 26 27  1  0  0  0  0
 27 28  1  0  0  0  0
M  END
>  <MODEL>
7

>  <REMARK>
 VINA RESULT:      -4.2     10.055     13.892
  Name = 
  8 active torsions:
  status: ('A' for Active; 'I' for Inactive)
    1  A    between atoms: C_1  and  C_11
    2  A    between atoms: C_6  and  C_8
    3  A    between atoms: C_6  and  C_22
    4  A    between atoms: C_8  and  C_11
    5  A    between atoms: C_9  and  C_18
    6  A    between atoms: N_10  and  C_17
    7  A    between atoms: N_10  and  C_25
    8  A    between atoms: C_20  and  C_25
                            x       y       z     vdW  Elec       q    Type
                         _______ _______ _______ _____ _____    ______ ____

>  <TORSDO>
F 8

$$$$
=
 OpenBabel11052423033D

 28 31  0  0  1  0  0  0  0  0999 V2000
  160.3170  209.0040  155.7360 C   0  0  2  0  0  0  0  0  0  0  0  0
  161.9760  210.7970  155.6010 N   0  0  0  0  0  0  0  0  0  0  0  0
  161.3680  209.8020  156.4970 C   0  0  0  0  0  2  0  0  0  0  0  0
  163.4130  210.7070  155.7870 C   0  0  0  0  0  1  0  0  0  0  0  0
  161.6950  210.4070  154.2200 C   0  0  2  0  0  3  0  0  0  0  0  0
  160.9370  208.0620  153.4020 C   0  0  2  0  0  3  0  0  0  0  0  0
  159.7280  208.9570  153.1570 C   0  0  0  0  0  2  0  0  0  0  0  0
  161.1520  211.6050  153.4590 C   0  0  0  0  0  1  0  0  0  0  0  0
  160.4600  207.6510  156.0550 O   0  0  0  0  0  1  0  0  0  0  0  0
  160.6820  209.2830  154.2930 C   0  0  1  0  0  0  0  0  0  0  0  0
  161.9440  208.3310  152.3800 N   0  0  0  0  0  2  0  0  0  0  0  0
  162.9470  206.1980  151.5180 C   0  0  0  0  0  2  0  0  0  0  0  0
  161.5090  205.9190  151.9540 C   0  0  1  0  0  3  0  0  0  0  0  0
  161.8950  207.2750  151.3740 C   0  0  1  0  0  0  0  0  0  0  0  0
  160.1830  202.6130  150.4940 C   0  0  0  0  0  2  0  0  0  0  0  0
  160.8390  204.9860  150.9500 C   0  0  2  0  0  3  0  0  0  0  0  0
  160.9310  204.0880  148.6140 C   0  0  1  0  0  3  0  0  0  0  0  0
  160.8400  203.5580  151.4950 C   0  0  0  0  0  2  0  0  0  0  0  0
  161.5860  205.0340  149.6180 C   0  0  0  0  0  2  0  0  0  0  0  0
  161.8330  204.1330  147.0830 Cl  0  0  0  0  0  0  0  0  0  0  0  0
  160.9230  202.6630  149.1590 C   0  0  0  0  0  2  0  0  0  0  0  0
  161.9620  208.5730  149.3920 O   0  0  0  0  0  0  0  0  0  0  0  0
  161.4540  207.6340  149.9810 C   0  0  0  0  0  3  0  0  0  0  0  0
  158.8970  209.4560  156.1080 C   0  0  0  0  0  2  0  0  0  0  0  0
  158.8330  210.7780  156.8710 C   0  0  0  0  0  2  0  0  0  0  0  0
  157.8330  211.7350  156.2350 C   0  0  0  0  0  2  0  0  0  0  0  0
  157.6040  211.4020  154.7680 C   0  0  0  0  0  2  0  0  0  0  0  0
  157.4930  212.6740  153.9480 C   0  0  0  0  0  1  0  0  0  0  0  0
  1  9  1  1  0  0  0
  1 24  1  0  0  0  0
  1  3  1  0  0  0  0
  2  4  1  0  0  0  0
  2  3  1  0  0  0  0
  5  8  1  6  0  0  0
  5 10  1  0  0  0  0
  5  2  1  0  0  0  0
  6 11  1  6  0  0  0
  6 10  1  0  0  0  0
  7  6  1  0  0  0  0
 10  7  1  6  0  0  0
 10  1  1  0  0  0  0
 13 12  1  6  0  0  0
 14 23  1  6  0  0  0
 14 12  1  0  0  0  0
 14 13  1  0  0  0  0
 14 11  1  0  0  0  0
 15 18  1  0  0  0  0
 16 19  1  6  0  0  0
 16 18  1  0  0  0  0
 16 13  1  0  0  0  0
 17 20  1  6  0  0  0
 17 21  1  0  0  0  0
 17 19  1  0  0  0  0
 21 15  1  0  0  0  0
 22 23  2  0  0  0  0
 24 25  1  0  0  0  0
 26 25  1  0  0  0  0
 27 26  1  0  0  0  0
 28 27  1  0  0  0  0
M  END
>  <MODEL>
8

>  <REMARK>
 VINA RESULT:      -4.0      1.770      2.477
  Name = 
  8 active torsions:
  status: ('A' for Active; 'I' for Inactive)
    1  A    between atoms: C_1  and  C_11
    2  A    between atoms: C_6  and  C_8
    3  A    between atoms: C_6  and  C_22
    4  A    between atoms: C_8  and  C_11
    5  A    between atoms: C_9  and  C_18
    6  A    between atoms: N_10  and  C_17
    7  A    between atoms: N_10  and  C_25
    8  A    between atoms: C_20  and  C_25
                            x       y       z     vdW  Elec       q    Type
                         _______ _______ _______ _____ _____    ______ ____

>  <TORSDO>
F 8

$$$$
=
 OpenBabel11052423033D

 28 31  0  0  1  0  0  0  0  0999 V2000
  161.0160  204.8570  150.2480 C   0  0  2  0  0  0  0  0  0  0  0  0
  161.6240  205.6770  148.0240 N   0  0  0  0  0  0  0  0  0  0  0  0
  160.8370  204.6670  148.7470 C   0  0  0  0  0  2  0  0  0  0  0  0
  160.7550  206.2360  147.0050 C   0  0  0  0  0  1  0  0  0  0  0  0
  161.9500  206.7580  148.9530 C   0  0  2  0  0  3  0  0  0  0  0  0
  160.7870  207.2480  151.2230 C   0  0  2  0  0  3  0  0  0  0  0  0
  162.1920  206.7990  151.6060 C   0  0  0  0  0  2  0  0  0  0  0  0
  163.4360  207.0670  148.8650 C   0  0  0  0  0  1  0  0  0  0  0  0
  159.7690  204.7430  150.8680 O   0  0  0  0  0  1  0  0  0  0  0  0
  161.5590  206.2680  150.3320 C   0  0  1  0  0  0  0  0  0  0  0  0
  160.8470  208.6150  150.7120 N   0  0  0  0  0  2  0  0  0  0  0  0
  159.9690  210.3210  152.3310 C   0  0  0  0  0  2  0  0  0  0  0  0
  160.4720  209.1140  153.1210 C   0  0  1  0  0  3  0  0  0  0  0  0
  161.1460  209.5220  151.8160 C   0  0  1  0  0  0  0  0  0  0  0  0
  161.9420  208.9380  156.6740 C   0  0  0  0  0  2  0  0  0  0  0  0
  161.2080  209.5870  154.3700 C   0  0  2  0  0  3  0  0  0  0  0  0
  161.2420  211.2950  156.2010 C   0  0  1  0  0  3  0  0  0  0  0  0
  161.2180  208.4720  155.4150 C   0  0  0  0  0  2  0  0  0  0  0  0
  160.5200  210.8270  154.9400 C   0  0  0  0  0  2  0  0  0  0  0  0
  160.4080  212.7160  156.8670 Cl  0  0  0  0  0  0  0  0  0  0  0  0
  161.2600  210.1800  157.2430 C   0  0  0  0  0  2  0  0  0  0  0  0
  163.0460  210.5370  150.8290 O   0  0  0  0  0  0  0  0  0  0  0  0
  162.5000  210.1750  151.8570 C   0  0  0  0  0  3  0  0  0  0  0  0
  161.9620  203.8000  150.8350 C   0  0  0  0  0  2  0  0  0  0  0  0
  161.2580  202.6510  151.5560 C   0  0  0  0  0  2  0  0  0  0  0  0
  161.3740  201.3520  150.7710 C   0  0  0  0  0  2  0  0  0  0  0  0
  160.4180  201.3320  149.5880 C   0  0  0  0  0  2  0  0  0  0  0  0
  161.1710  201.0340  148.3040 C   0  0  0  0  0  1  0  0  0  0  0  0
  1 10  1  0  0  0  0
  1 24  1  0  0  0  0
  1  9  1  1  0  0  0
  2  3  1  0  0  0  0
  2  5  1  0  0  0  0
  3  1  1  0  0  0  0
  4  2  1  0  0  0  0
  5  8  1  1  0  0  0
  5 10  1  0  0  0  0
  6 11  1  6  0  0  0
  6  7  1  0  0  0  0
 10  6  1  0  0  0  0
 10  7  1  1  0  0  0
 11 14  1  0  0  0  0
 13 12  1  6  0  0  0
 13 16  1  0  0  0  0
 14 23  1  1  0  0  0
 14 12  1  0  0  0  0
 14 13  1  0  0  0  0
 15 21  1  0  0  0  0
 16 19  1  1  0  0  0
 16 18  1  0  0  0  0
 17 20  1  1  0  0  0
 17 21  1  0  0  0  0
 18 15  1  0  0  0  0
 19 17  1  0  0  0  0
 22 23  2  0  0  0  0
 24 25  1  0  0  0  0
 26 25  1  0  0  0  0
 27 26  1  0  0  0  0
 28 27  1  0  0  0  0
M  END
>  <MODEL>
9

>  <REMARK>
 VINA RESULT:      -4.0      3.391      8.498
  Name = 
  8 active torsions:
  status: ('A' for Active; 'I' for Inactive)
    1  A    between atoms: C_1  and  C_11
    2  A    between atoms: C_6  and  C_8
    3  A    between atoms: C_6  and  C_22
    4  A    between atoms: C_8  and  C_11
    5  A    between atoms: C_9  and  C_18
    6  A    between atoms: N_10  and  C_17
    7  A    between atoms: N_10  and  C_25
    8  A    between atoms: C_20  and  C_25
                            x       y       z     vdW  Elec       q    Type
                         _______ _______ _______ _____ _____    ______ ____

>  <TORSDO>
F 8

$$$$
