=
 OpenBabel11052422353D

 31 35  0  0  1  0  0  0  0  0999 V2000
  160.8010  207.6260  154.7520 C   0  0  0  0  0  0  0  0  0  0  0  0
  161.4310  209.4310  151.7010 N   0  0  0  0  0  0  0  0  0  0  0  0
  160.9210  208.3510  152.5200 C   0  0  2  0  0  3  0  0  0  0  0  0
  161.1000  206.1870  154.2770 C   0  0  0  0  0  2  0  0  0  0  0  0
  161.4340  207.8030  149.8610 C   0  0  1  0  0  3  0  0  0  0  0  0
  160.6340  207.8820  156.2090 C   0  0  0  0  0  1  0  0  0  0  0  0
  162.4510  207.3780  150.9150 C   0  0  1  0  0  3  0  0  0  0  0  0
  162.2360  208.8670  150.6030 C   0  0  2  0  0  3  0  0  0  0  0  0
  160.8080  208.6280  153.9270 N   0  0  0  0  0  0  0  0  0  0  0  0
  161.9420  207.2880  152.3480 C   0  0  2  0  0  3  0  0  0  0  0  0
  161.3630  206.0420  152.8210 N   0  0  0  0  0  2  0  0  0  0  0  0
  160.7630  210.7010  151.5820 C   0  0  0  0  0  0  0  0  0  0  0  0
  158.8030  212.0650  152.1770 N   0  0  0  0  0  2  0  0  0  0  0  0
  159.7890  211.1080  152.6670 C   0  0  0  0  0  2  0  0  0  0  0  0
  159.5320  213.2330  151.7050 C   0  0  0  0  0  2  0  0  0  0  0  0
  160.3040  212.8650  150.4430 C   0  0  0  0  0  2  0  0  0  0  0  0
  161.0830  211.5770  150.5980 C   0  0  0  0  0  0  0  0  0  0  0  0
  161.1510  212.2130  147.5430 C   0  0  0  0  0  1  0  0  0  0  0  0
  162.2020  211.4930  148.3190 C   0  0  0  0  0  3  0  0  0  0  0  0
  162.1550  211.2330  149.6300 C   0  0  0  0  0  3  0  0  0  0  0  0
  162.0260  207.5950  148.4810 C   0  0  0  0  0  2  0  0  0  0  0  0
  160.5520  207.0130  146.7220 O   0  0  0  0  0  0  0  0  0  0  0  0
  161.2050  206.6060  147.7190 C   0  0  0  0  0  0  0  0  0  0  0  0
  160.9790  202.5110  149.0000 C   0  0  0  0  0  0  0  0  0  0  0  0
  160.6630  204.8690  149.4260 C   0  0  0  0  0  3  0  0  0  0  0  0
  161.9940  204.3800  146.0340 F   0  0  0  0  0  0  0  0  0  0  0  0
  160.8980  201.0990  149.4540 C   0  0  0  0  0  1  0  0  0  0  0  0
  160.5840  203.5430  149.8530 C   0  0  0  0  0  3  0  0  0  0  0  0
  161.5330  204.1350  147.2860 C   0  0  0  0  0  0  0  0  0  0  0  0
  161.1360  205.1860  148.1410 C   0  0  0  0  0  0  0  0  0  0  0  0
  161.4510  202.8070  147.7200 C   0  0  0  0  0  3  0  0  0  0  0  0
  1  6  1  0  0  0  0
  2  3  1  0  0  0  0
  3  9  1  1  0  0  0
  4  1  1  0  0  0  0
  5 21  1  6  0  0  0
  5  8  1  0  0  0  0
  5  7  1  0  0  0  0
  7 10  1  0  0  0  0
  8  7  1  0  0  0  0
  8  2  1  0  0  0  0
  9  1  2  0  0  0  0
 10  3  1  0  0  0  0
 10 11  1  0  0  0  0
 11  4  1  0  0  0  0
 12  2  1  0  0  0  0
 12 14  1  0  0  0  0
 13 14  1  0  0  0  0
 15 13  1  0  0  0  0
 16 17  1  0  0  0  0
 16 15  1  0  0  0  0
 17 12  2  0  0  0  0
 18 19  1  0  0  0  0
 19 20  2  0  0  0  0
 20 17  1  0  0  0  0
 22 23  2  0  0  0  0
 23 30  1  0  0  0  0
 23 21  1  0  0  0  0
 24 27  1  0  0  0  0
 24 28  1  0  0  0  0
 25 28  2  0  0  0  0
 26 29  1  0  0  0  0
 29 31  1  0  0  0  0
 29 30  2  0  0  0  0
 30 25  1  0  0  0  0
 31 24  2  0  0  0  0
M  END
>  <MODEL>
1

>  <REMARK>
 VINA RESULT:      -9.0      0.000      0.000
  Name = 
  5 active torsions:
  status: ('A' for Active; 'I' for Inactive)
    1  A    between atoms: N_4  and  C_5
    2  A    between atoms: C_9  and  C_22
    3  A    between atoms: C_9  and  C_23
    4  A    between atoms: C_15  and  C_23
    5  A    between atoms: C_30  and  C_31
                            x       y       z     vdW  Elec       q    Type
                         _______ _______ _______ _____ _____    ______ ____

>  <TORSDO>
F 5

$$$$
=
 OpenBabel11052422353D

 31 35  0  0  1  0  0  0  0  0999 V2000
  161.4440  212.0890  149.3350 C   0  0  0  0  0  0  0  0  0  0  0  0
  161.0750  209.7260  152.0270 N   0  0  0  0  0  0  0  0  0  0  0  0
  161.7490  210.3920  150.9330 C   0  0  2  0  0  3  0  0  0  0  0  0
  162.1230  211.1870  148.2810 C   0  0  0  0  0  2  0  0  0  0  0  0
  162.5580  207.8240  151.5570 C   0  0  1  0  0  3  0  0  0  0  0  0
  160.9350  213.4240  148.9200 C   0  0  0  0  0  1  0  0  0  0  0  0
  161.6180  208.0390  150.3750 C   0  0  1  0  0  3  0  0  0  0  0  0
  161.1220  208.2690  151.8100 C   0  0  2  0  0  3  0  0  0  0  0  0
  161.2050  211.6630  150.5380 N   0  0  0  0  0  0  0  0  0  0  0  0
  161.5640  209.4500  149.8010 C   0  0  2  0  0  3  0  0  0  0  0  0
  162.4990  209.8290  148.7560 N   0  0  0  0  0  2  0  0  0  0  0  0
  160.9790  210.2970  153.3460 C   0  0  0  0  0  0  0  0  0  0  0  0
  161.8270  210.3100  155.6560 N   0  0  0  0  0  2  0  0  0  0  0  0
  162.1950  210.2430  154.2450 C   0  0  0  0  0  2  0  0  0  0  0  0
  161.1190  211.5650  155.8590 C   0  0  0  0  0  2  0  0  0  0  0  0
  159.7670  211.4940  155.1590 C   0  0  0  0  0  2  0  0  0  0  0  0
  159.8770  210.9830  153.7390 C   0  0  0  0  0  0  0  0  0  0  0  0
  158.9080  213.6500  152.4400 C   0  0  0  0  0  1  0  0  0  0  0  0
  158.3170  212.2980  152.2260 C   0  0  0  0  0  3  0  0  0  0  0  0
  158.7500  211.1660  152.7900 C   0  0  0  0  0  3  0  0  0  0  0  0
  162.6830  206.3400  151.8330 C   0  0  0  0  0  2  0  0  0  0  0  0
  160.3970  206.0450  152.3750 O   0  0  0  0  0  0  0  0  0  0  0  0
  161.3570  205.6750  151.6490 C   0  0  0  0  0  0  0  0  0  0  0  0
  160.8600  202.5650  148.7260 C   0  0  0  0  0  0  0  0  0  0  0  0
  161.3010  204.8740  149.2870 C   0  0  0  0  0  3  0  0  0  0  0  0
  160.7710  202.9230  152.3570 F   0  0  0  0  0  0  0  0  0  0  0  0
  160.6880  201.4970  147.7070 C   0  0  0  0  0  1  0  0  0  0  0  0
  161.1430  203.8720  148.3280 C   0  0  0  0  0  3  0  0  0  0  0  0
  160.8950  203.2610  151.0490 C   0  0  0  0  0  0  0  0  0  0  0  0
  161.1810  204.5860  150.6570 C   0  0  0  0  0  0  0  0  0  0  0  0
  160.7370  202.2610  150.0830 C   0  0  0  0  0  3  0  0  0  0  0  0
  1  9  2  0  0  0  0
  2 12  1  0  0  0  0
  3  9  1  6  0  0  0
  3  2  1  0  0  0  0
  4 11  1  0  0  0  0
  4  1  1  0  0  0  0
  5  8  1  0  0  0  0
  5 21  1  1  0  0  0
  6  1  1  0  0  0  0
  7  5  1  0  0  0  0
  7  8  1  0  0  0  0
  8  2  1  0  0  0  0
 10  7  1  0  0  0  0
 10  3  1  0  0  0  0
 11 10  1  0  0  0  0
 12 17  2  0  0  0  0
 12 14  1  0  0  0  0
 13 15  1  0  0  0  0
 14 13  1  0  0  0  0
 16 15  1  0  0  0  0
 17 16  1  0  0  0  0
 19 18  1  0  0  0  0
 19 20  2  0  0  0  0
 20 17  1  0  0  0  0
 23 21  1  0  0  0  0
 23 22  2  0  0  0  0
 24 31  1  0  0  0  0
 25 30  2  0  0  0  0
 27 24  1  0  0  0  0
 28 24  2  0  0  0  0
 28 25  1  0  0  0  0
 29 26  1  0  0  0  0
 30 29  1  0  0  0  0
 30 23  1  0  0  0  0
 31 29  2  0  0  0  0
M  END
>  <MODEL>
2

>  <REMARK>
 VINA RESULT:      -8.3      2.320      4.386
  Name = 
  5 active torsions:
  status: ('A' for Active; 'I' for Inactive)
    1  A    between atoms: N_4  and  C_5
    2  A    between atoms: C_9  and  C_22
    3  A    between atoms: C_9  and  C_23
    4  A    between atoms: C_15  and  C_23
    5  A    between atoms: C_30  and  C_31
                            x       y       z     vdW  Elec       q    Type
                         _______ _______ _______ _____ _____    ______ ____

>  <TORSDO>
F 5

$$$$
=
 OpenBabel11052422353D

 31 35  0  0  1  0  0  0  0  0999 V2000
  159.6960  212.7600  155.8890 C   0  0  0  0  0  0  0  0  0  0  0  0
  160.2890  212.0040  152.4190 N   0  0  0  0  0  0  0  0  0  0  0  0
  159.8600  211.7430  153.7770 C   0  0  2  0  0  3  0  0  0  0  0  0
  160.1850  211.4450  156.5350 C   0  0  0  0  0  2  0  0  0  0  0  0
  160.5840  209.5720  152.2270 C   0  0  1  0  0  3  0  0  0  0  0  0
  159.4170  213.9310  156.7640 C   0  0  0  0  0  1  0  0  0  0  0  0
  161.5820  210.1260  153.2400 C   0  0  1  0  0  3  0  0  0  0  0  0
  161.2150  210.9400  151.9910 C   0  0  2  0  0  3  0  0  0  0  0  0
  159.6360  212.9000  154.6000 N   0  0  0  0  0  0  0  0  0  0  0  0
  161.0040  210.9930  154.3530 C   0  0  2  0  0  3  0  0  0  0  0  0
  160.5460  210.3650  155.5800 N   0  0  0  0  0  2  0  0  0  0  0  0
  159.4870  212.7420  151.4770 C   0  0  0  0  0  0  0  0  0  0  0  0
  157.2360  213.4900  150.8250 N   0  0  0  0  0  2  0  0  0  0  0  0
  158.1570  213.2930  151.9400 C   0  0  0  0  0  2  0  0  0  0  0  0
  157.8650  214.4270  149.9050 C   0  0  0  0  0  2  0  0  0  0  0  0
  159.0600  213.7510  149.2440 C   0  0  0  0  0  2  0  0  0  0  0  0
  159.9570  213.0540  150.2440 C   0  0  0  0  0  0  0  0  0  0  0  0
  160.9560  212.2300  147.4040 C   0  0  0  0  0  1  0  0  0  0  0  0
  161.7770  212.2840  148.6480 C   0  0  0  0  0  3  0  0  0  0  0  0
  161.3300  212.6430  149.8560 C   0  0  0  0  0  3  0  0  0  0  0  0
  161.2750  208.5410  151.3580 C   0  0  0  0  0  2  0  0  0  0  0  0
  160.7380  207.0240  153.0950 O   0  0  0  0  0  0  0  0  0  0  0  0
  160.9820  207.1670  151.8680 C   0  0  0  0  0  0  0  0  0  0  0  0
  161.0460  203.8130  149.1830 C   0  0  0  0  0  0  0  0  0  0  0  0
  160.8980  206.1940  149.5720 C   0  0  0  0  0  3  0  0  0  0  0  0
  161.2430  204.4240  152.7760 F   0  0  0  0  0  0  0  0  0  0  0  0
  161.0640  202.6600  148.2460 C   0  0  0  0  0  1  0  0  0  0  0  0
  160.9190  205.1130  148.6900 C   0  0  0  0  0  3  0  0  0  0  0  0
  161.1330  204.6770  151.4480 C   0  0  0  0  0  0  0  0  0  0  0  0
  161.0050  205.9950  150.9590 C   0  0  0  0  0  0  0  0  0  0  0  0
  161.1530  203.5970  150.5580 C   0  0  0  0  0  3  0  0  0  0  0  0
  1  4  1  0  0  0  0
  1  6  1  0  0  0  0
  2  3  1  0  0  0  0
  3 10  1  0  0  0  0
  3  9  1  1  0  0  0
  5 21  1  6  0  0  0
  5  7  1  0  0  0  0
  7 10  1  0  0  0  0
  8  5  1  0  0  0  0
  8  2  1  0  0  0  0
  8  7  1  0  0  0  0
  9  1  2  0  0  0  0
 10 11  1  0  0  0  0
 11  4  1  0  0  0  0
 12 14  1  0  0  0  0
 12  2  1  0  0  0  0
 13 14  1  0  0  0  0
 15 13  1  0  0  0  0
 16 15  1  0  0  0  0
 16 17  1  0  0  0  0
 17 12  2  0  0  0  0
 18 19  1  0  0  0  0
 19 20  2  0  0  0  0
 20 17  1  0  0  0  0
 21 23  1  0  0  0  0
 23 22  2  0  0  0  0
 24 31  1  0  0  0  0
 25 30  2  0  0  0  0
 27 24  1  0  0  0  0
 28 24  2  0  0  0  0
 28 25  1  0  0  0  0
 29 26  1  0  0  0  0
 30 29  1  0  0  0  0
 30 23  1  0  0  0  0
 31 29  2  0  0  0  0
M  END
>  <MODEL>
3

>  <REMARK>
 VINA RESULT:      -8.3      2.553      3.675
  Name = 
  5 active torsions:
  status: ('A' for Active; 'I' for Inactive)
    1  A    between atoms: N_4  and  C_5
    2  A    between atoms: C_9  and  C_22
    3  A    between atoms: C_9  and  C_23
    4  A    between atoms: C_15  and  C_23
    5  A    between atoms: C_30  and  C_31
                            x       y       z     vdW  Elec       q    Type
                         _______ _______ _______ _____ _____    ______ ____

>  <TORSDO>
F 5

$$$$
=
 OpenBabel11052422353D

 31 35  0  0  1  0  0  0  0  0999 V2000
  160.0660  209.4260  154.9270 C   0  0  0  0  0  0  0  0  0  0  0  0
  161.9060  208.1170  152.1220 N   0  0  0  0  0  0  0  0  0  0  0  0
  160.8350  208.1700  153.0950 C   0  0  2  0  0  3  0  0  0  0  0  0
  159.7160  208.1100  155.6540 C   0  0  0  0  0  2  0  0  0  0  0  0
  161.4050  205.7160  151.9600 C   0  0  1  0  0  3  0  0  0  0  0  0
  159.8310  210.7190  155.6260 C   0  0  0  0  0  1  0  0  0  0  0  0
  161.9380  206.0300  153.3550 C   0  0  1  0  0  3  0  0  0  0  0  0
  162.4980  206.7670  152.1290 C   0  0  2  0  0  3  0  0  0  0  0  0
  160.6640  209.4260  153.7750 N   0  0  0  0  0  0  0  0  0  0  0  0
  161.2460  207.1630  154.1040 C   0  0  2  0  0  3  0  0  0  0  0  0
  160.0860  206.8660  154.9270 N   0  0  0  0  0  2  0  0  0  0  0  0
  161.9410  208.9590  150.9540 C   0  0  0  0  0  0  0  0  0  0  0  0
  161.9610  211.2530  150.0660 N   0  0  0  0  0  2  0  0  0  0  0  0
  162.4870  210.3630  151.0960 C   0  0  0  0  0  2  0  0  0  0  0  0
  162.3490  210.7000  148.7770 C   0  0  0  0  0  2  0  0  0  0  0  0
  161.5780  209.4080  148.5350 C   0  0  0  0  0  2  0  0  0  0  0  0
  161.6190  208.4790  149.7280 C   0  0  0  0  0  0  0  0  0  0  0  0
  162.0340  206.6610  147.2250 C   0  0  0  0  0  1  0  0  0  0  0  0
  161.4010  206.2580  148.5140 C   0  0  0  0  0  3  0  0  0  0  0  0
  161.2350  207.0520  149.5770 C   0  0  0  0  0  3  0  0  0  0  0  0
  162.0220  204.4220  151.4690 C   0  0  0  0  0  2  0  0  0  0  0  0
  160.0790  203.1920  152.0330 O   0  0  0  0  0  0  0  0  0  0  0  0
  160.9460  203.4340  151.1530 C   0  0  0  0  0  0  0  0  0  0  0  0
  160.8610  201.4620  147.3360 C   0  0  0  0  0  0  0  0  0  0  0  0
  160.9610  203.4830  148.6580 C   0  0  0  0  0  3  0  0  0  0  0  0
  160.7950  200.5510  150.8690 F   0  0  0  0  0  0  0  0  0  0  0  0
  160.8300  200.7910  146.0110 C   0  0  0  0  0  1  0  0  0  0  0  0
  160.9350  202.8530  147.4130 C   0  0  0  0  0  3  0  0  0  0  0  0
  160.8390  201.3260  149.7570 C   0  0  0  0  0  0  0  0  0  0  0  0
  160.9150  202.7330  149.8460 C   0  0  0  0  0  0  0  0  0  0  0  0
  160.8140  200.7010  148.5060 C   0  0  0  0  0  3  0  0  0  0  0  0
  1  6  1  0  0  0  0
  1  4  1  0  0  0  0
  2  8  1  0  0  0  0
  2  3  1  0  0  0  0
  3  9  1  1  0  0  0
  3 10  1  0  0  0  0
  5 21  1  6  0  0  0
  5  8  1  0  0  0  0
  5  7  1  0  0  0  0
  7 10  1  0  0  0  0
  8  7  1  0  0  0  0
  9  1  2  0  0  0  0
 10 11  1  0  0  0  0
 11  4  1  0  0  0  0
 12 14  1  0  0  0  0
 12  2  1  0  0  0  0
 13 14  1  0  0  0  0
 15 13  1  0  0  0  0
 16 15  1  0  0  0  0
 16 17  1  0  0  0  0
 17 12  2  0  0  0  0
 18 19  1  0  0  0  0
 19 20  2  0  0  0  0
 20 17  1  0  0  0  0
 23 21  1  0  0  0  0
 23 22  2  0  0  0  0
 24 28  2  0  0  0  0
 24 31  1  0  0  0  0
 25 30  2  0  0  0  0
 27 24  1  0  0  0  0
 28 25  1  0  0  0  0
 29 30  1  0  0  0  0
 29 26  1  0  0  0  0
 30 23  1  0  0  0  0
 31 29  2  0  0  0  0
M  END
>  <MODEL>
4

>  <REMARK>
 VINA RESULT:      -8.1      2.355      3.565
  Name = 
  5 active torsions:
  status: ('A' for Active; 'I' for Inactive)
    1  A    between atoms: N_4  and  C_5
    2  A    between atoms: C_9  and  C_22
    3  A    between atoms: C_9  and  C_23
    4  A    between atoms: C_15  and  C_23
    5  A    between atoms: C_30  and  C_31
                            x       y       z     vdW  Elec       q    Type
                         _______ _______ _______ _____ _____    ______ ____

>  <TORSDO>
F 5

$$$$
=
 OpenBabel11052422353D

 31 35  0  0  1  0  0  0  0  0999 V2000
  160.2330  212.0010  156.2740 C   0  0  0  0  0  0  0  0  0  0  0  0
  160.5450  211.4970  152.7220 N   0  0  0  0  0  0  0  0  0  0  0  0
  160.1940  211.1500  154.0830 C   0  0  2  0  0  3  0  0  0  0  0  0
  160.6850  210.6140  156.7800 C   0  0  0  0  0  2  0  0  0  0  0  0
  160.6820  209.0760  152.3240 C   0  0  1  0  0  3  0  0  0  0  0  0
  160.0830  213.1110  157.2540 C   0  0  0  0  0  1  0  0  0  0  0  0
  161.7760  209.4920  153.3020 C   0  0  1  0  0  3  0  0  0  0  0  0
  161.3760  210.4230  152.1480 C   0  0  2  0  0  3  0  0  0  0  0  0
  160.0940  212.2480  155.0070 N   0  0  0  0  0  0  0  0  0  0  0  0
  161.3280  210.2960  154.5160 C   0  0  2  0  0  3  0  0  0  0  0  0
  160.9170  209.5970  155.7210 N   0  0  0  0  0  2  0  0  0  0  0  0
  159.7270  212.3510  151.8990 C   0  0  0  0  0  0  0  0  0  0  0  0
  159.6310  214.3190  150.4250 N   0  0  0  0  0  2  0  0  0  0  0  0
  160.3910  213.1250  150.7820 C   0  0  0  0  0  2  0  0  0  0  0  0
  158.3090  213.8790  150.0030 C   0  0  0  0  0  2  0  0  0  0  0  0
  157.5520  213.3410  151.2120 C   0  0  0  0  0  2  0  0  0  0  0  0
  158.3780  212.3700  152.0270 C   0  0  0  0  0  0  0  0  0  0  0  0
  156.6000  213.2300  154.4440 C   0  0  0  0  0  1  0  0  0  0  0  0
  156.9610  211.8330  154.0660 C   0  0  0  0  0  3  0  0  0  0  0  0
  157.7220  211.4860  153.0230 C   0  0  0  0  0  3  0  0  0  0  0  0
  161.2500  208.0830  151.3300 C   0  0  0  0  0  2  0  0  0  0  0  0
  161.1920  206.5560  153.1390 O   0  0  0  0  0  0  0  0  0  0  0  0
  161.1630  206.6990  151.8880 C   0  0  0  0  0  0  0  0  0  0  0  0
  160.9160  203.3230  149.2420 C   0  0  0  0  0  0  0  0  0  0  0  0
  161.1530  205.7010  149.6020 C   0  0  0  0  0  3  0  0  0  0  0  0
  160.8360  203.9760  152.8320 F   0  0  0  0  0  0  0  0  0  0  0  0
  160.8300  202.1630  148.3180 C   0  0  0  0  0  1  0  0  0  0  0  0
  161.0750  204.6120  148.7330 C   0  0  0  0  0  3  0  0  0  0  0  0
  160.9140  204.2120  151.4990 C   0  0  0  0  0  0  0  0  0  0  0  0
  161.0750  205.5200  150.9930 C   0  0  0  0  0  0  0  0  0  0  0  0
  160.8360  203.1240  150.6220 C   0  0  0  0  0  3  0  0  0  0  0  0
  1  4  1  0  0  0  0
  1  6  1  0  0  0  0
  2  3  1  0  0  0  0
  3 10  1  0  0  0  0
  3  9  1  1  0  0  0
  5 21  1  6  0  0  0
  5  7  1  0  0  0  0
  7 10  1  0  0  0  0
  8  5  1  0  0  0  0
  8  2  1  0  0  0  0
  8  7  1  0  0  0  0
  9  1  2  0  0  0  0
 10 11  1  0  0  0  0
 11  4  1  0  0  0  0
 12 17  2  0  0  0  0
 12  2  1  0  0  0  0
 13 14  1  0  0  0  0
 14 12  1  0  0  0  0
 15 13  1  0  0  0  0
 15 16  1  0  0  0  0
 16 17  1  0  0  0  0
 17 20  1  0  0  0  0
 19 18  1  0  0  0  0
 20 19  2  0  0  0  0
 21 23  1  0  0  0  0
 23 22  2  0  0  0  0
 24 31  1  0  0  0  0
 25 30  2  0  0  0  0
 27 24  1  0  0  0  0
 28 24  2  0  0  0  0
 28 25  1  0  0  0  0
 29 26  1  0  0  0  0
 30 29  1  0  0  0  0
 30 23  1  0  0  0  0
 31 29  2  0  0  0  0
M  END
>  <MODEL>
5

>  <REMARK>
 VINA RESULT:      -8.1      2.733      4.139
  Name = 
  5 active torsions:
  status: ('A' for Active; 'I' for Inactive)
    1  A    between atoms: N_4  and  C_5
    2  A    between atoms: C_9  and  C_22
    3  A    between atoms: C_9  and  C_23
    4  A    between atoms: C_15  and  C_23
    5  A    between atoms: C_30  and  C_31
                            x       y       z     vdW  Elec       q    Type
                         _______ _______ _______ _____ _____    ______ ____

>  <TORSDO>
F 5

$$$$
=
 OpenBabel11052422353D

 31 35  0  0  1  0  0  0  0  0999 V2000
  160.9500  205.2070  148.4890 C   0  0  0  0  0  0  0  0  0  0  0  0
  161.8590  208.0310  150.5300 N   0  0  0  0  0  0  0  0  0  0  0  0
  161.1820  207.3380  149.4540 C   0  0  2  0  0  3  0  0  0  0  0  0
  161.0100  205.8600  147.0900 C   0  0  0  0  0  2  0  0  0  0  0  0
  161.5920  210.0550  149.1610 C   0  0  1  0  0  3  0  0  0  0  0  0
  160.8310  203.7270  148.5880 C   0  0  0  0  0  1  0  0  0  0  0  0
  162.5290  209.0830  148.4520 C   0  0  1  0  0  3  0  0  0  0  0  0
  162.5580  209.2080  149.9820 C   0  0  2  0  0  3  0  0  0  0  0  0
  161.1190  205.9050  149.5700 N   0  0  0  0  0  0  0  0  0  0  0  0
  162.0160  207.6590  148.2690 C   0  0  2  0  0  3  0  0  0  0  0  0
  161.2430  207.3280  147.0850 N   0  0  0  0  0  2  0  0  0  0  0  0
  161.4060  207.9810  151.8960 C   0  0  0  0  0  0  0  0  0  0  0  0
  160.5310  209.2320  153.8260 N   0  0  0  0  0  2  0  0  0  0  0  0
  160.4560  209.0550  152.3790 C   0  0  0  0  0  2  0  0  0  0  0  0
  160.1850  207.9560  154.4360 C   0  0  0  0  0  2  0  0  0  0  0  0
  161.2970  206.9510  154.1580 C   0  0  0  0  0  2  0  0  0  0  0  0
  161.7100  206.9350  152.7020 C   0  0  0  0  0  0  0  0  0  0  0  0
  160.8210  203.9590  152.3860 C   0  0  0  0  0  1  0  0  0  0  0  0
  162.1530  204.5260  152.0270 C   0  0  0  0  0  3  0  0  0  0  0  0
  162.5130  205.8060  152.1680 C   0  0  0  0  0  3  0  0  0  0  0  0
  162.1390  211.4620  149.0310 C   0  0  0  0  0  2  0  0  0  0  0  0
  160.3730  213.0070  149.3470 O   0  0  0  0  0  0  0  0  0  0  0  0
  161.0760  212.3750  148.5140 C   0  0  0  0  0  0  0  0  0  0  0  0
  160.3050  212.7590  144.3050 C   0  0  0  0  0  0  0  0  0  0  0  0
  159.5640  212.2030  146.5370 C   0  0  0  0  0  3  0  0  0  0  0  0
  163.0810  213.2710  146.6180 F   0  0  0  0  0  0  0  0  0  0  0  0
  160.0280  212.8870  142.8500 C   0  0  0  0  0  1  0  0  0  0  0  0
  159.3020  212.3250  145.1720 C   0  0  0  0  0  3  0  0  0  0  0  0
  161.8400  212.9530  146.1720 C   0  0  0  0  0  0  0  0  0  0  0  0
  160.8320  212.5150  147.0570 C   0  0  0  0  0  0  0  0  0  0  0  0
  161.5700  213.0730  144.8040 C   0  0  0  0  0  3  0  0  0  0  0  0
  1  6  1  0  0  0  0
  1  9  2  0  0  0  0
  2 12  1  0  0  0  0
  3  9  1  1  0  0  0
  3  2  1  0  0  0  0
  4  1  1  0  0  0  0
  5 21  1  6  0  0  0
  5  8  1  0  0  0  0
  7  5  1  0  0  0  0
  7  8  1  0  0  0  0
  8  2  1  0  0  0  0
 10  7  1  0  0  0  0
 10  3  1  0  0  0  0
 11  4  1  0  0  0  0
 11 10  1  0  0  0  0
 12 14  1  0  0  0  0
 12 17  2  0  0  0  0
 13 15  1  0  0  0  0
 14 13  1  0  0  0  0
 16 15  1  0  0  0  0
 17 16  1  0  0  0  0
 19 20  2  0  0  0  0
 19 18  1  0  0  0  0
 20 17  1  0  0  0  0
 23 21  1  0  0  0  0
 23 22  2  0  0  0  0
 24 31  2  0  0  0  0
 24 28  1  0  0  0  0
 25 30  1  0  0  0  0
 27 24  1  0  0  0  0
 28 25  2  0  0  0  0
 29 26  1  0  0  0  0
 29 30  2  0  0  0  0
 30 23  1  0  0  0  0
 31 29  1  0  0  0  0
M  END
>  <MODEL>
6

>  <REMARK>
 VINA RESULT:      -8.0      2.857      6.963
  Name = 
  5 active torsions:
  status: ('A' for Active; 'I' for Inactive)
    1  A    between atoms: N_4  and  C_5
    2  A    between atoms: C_9  and  C_22
    3  A    between atoms: C_9  and  C_23
    4  A    between atoms: C_15  and  C_23
    5  A    between atoms: C_30  and  C_31
                            x       y       z     vdW  Elec       q    Type
                         _______ _______ _______ _____ _____    ______ ____

>  <TORSDO>
F 5

$$$$
=
 OpenBabel11052422353D

 31 35  0  0  1  0  0  0  0  0999 V2000
  160.3770  207.0500  155.5400 C   0  0  0  0  0  0  0  0  0  0  0  0
  161.0660  209.5480  153.0390 N   0  0  0  0  0  0  0  0  0  0  0  0
  160.5900  208.2780  153.5470 C   0  0  2  0  0  3  0  0  0  0  0  0
  160.8230  205.7820  154.7790 C   0  0  0  0  0  2  0  0  0  0  0  0
  161.3250  208.3920  150.8860 C   0  0  1  0  0  3  0  0  0  0  0  0
  160.0910  206.9520  156.9970 C   0  0  0  0  0  1  0  0  0  0  0  0
  162.3000  207.8000  151.8990 C   0  0  1  0  0  3  0  0  0  0  0  0
  161.9870  209.3040  151.9140 C   0  0  2  0  0  3  0  0  0  0  0  0
  160.3600  208.2140  154.9660 N   0  0  0  0  0  0  0  0  0  0  0  0
  161.7030  207.3490  153.2270 C   0  0  2  0  0  3  0  0  0  0  0  0
  161.1950  205.9940  153.3560 N   0  0  0  0  0  2  0  0  0  0  0  0
  160.3070  210.7670  153.1530 C   0  0  0  0  0  0  0  0  0  0  0  0
  158.9640  212.4750  152.0000 N   0  0  0  0  0  2  0  0  0  0  0  0
  159.2360  211.0470  152.1220 C   0  0  0  0  0  2  0  0  0  0  0  0
  158.5260  212.9450  153.3070 C   0  0  0  0  0  2  0  0  0  0  0  0
  159.7050  212.9050  154.2730 C   0  0  0  0  0  2  0  0  0  0  0  0
  160.4480  211.5880  154.2230 C   0  0  0  0  0  0  0  0  0  0  0  0
  159.7500  210.9170  157.1900 C   0  0  0  0  0  1  0  0  0  0  0  0
  161.1130  210.9340  156.5860 C   0  0  0  0  0  3  0  0  0  0  0  0
  161.3910  211.2210  155.3100 C   0  0  0  0  0  3  0  0  0  0  0  0
  162.0250  208.5470  149.5510 C   0  0  0  0  0  2  0  0  0  0  0  0
  160.8550  208.2740  147.5100 O   0  0  0  0  0  0  0  0  0  0  0  0
  161.3460  207.7040  148.5200 C   0  0  0  0  0  0  0  0  0  0  0  0
  160.9650  203.4610  149.0820 C   0  0  0  0  0  0  0  0  0  0  0  0
  160.6030  205.7250  149.8460 C   0  0  0  0  0  3  0  0  0  0  0  0
  162.3280  205.7630  146.6000 F   0  0  0  0  0  0  0  0  0  0  0  0
  160.8290  201.9960  149.2880 C   0  0  0  0  0  1  0  0  0  0  0  0
  160.4720  204.3490  150.0390 C   0  0  0  0  0  3  0  0  0  0  0  0
  161.7210  205.3290  147.7320 C   0  0  0  0  0  0  0  0  0  0  0  0
  161.2260  206.2350  148.6940 C   0  0  0  0  0  0  0  0  0  0  0  0
  161.5870  203.9500  147.9320 C   0  0  0  0  0  3  0  0  0  0  0  0
  1  6  1  0  0  0  0
  2 12  1  0  0  0  0
  2  3  1  0  0  0  0
  3  9  1  1  0  0  0
  4  1  1  0  0  0  0
  5 21  1  6  0  0  0
  5  7  1  0  0  0  0
  5  8  1  0  0  0  0
  7  8  1  0  0  0  0
  7 10  1  0  0  0  0
  8  2  1  0  0  0  0
  9  1  2  0  0  0  0
 10 11  1  0  0  0  0
 10  3  1  0  0  0  0
 11  4  1  0  0  0  0
 12 17  2  0  0  0  0
 13 14  1  0  0  0  0
 13 15  1  0  0  0  0
 14 12  1  0  0  0  0
 15 16  1  0  0  0  0
 17 16  1  0  0  0  0
 17 20  1  0  0  0  0
 19 18  1  0  0  0  0
 20 19  2  0  0  0  0
 22 23  2  0  0  0  0
 23 30  1  0  0  0  0
 23 21  1  0  0  0  0
 24 27  1  0  0  0  0
 24 28  1  0  0  0  0
 25 28  2  0  0  0  0
 26 29  1  0  0  0  0
 29 31  1  0  0  0  0
 29 30  2  0  0  0  0
 30 25  1  0  0  0  0
 31 24  2  0  0  0  0
M  END
>  <MODEL>
7

>  <REMARK>
 VINA RESULT:      -7.8      1.595      2.925
  Name = 
  5 active torsions:
  status: ('A' for Active; 'I' for Inactive)
    1  A    between atoms: N_4  and  C_5
    2  A    between atoms: C_9  and  C_22
    3  A    between atoms: C_9  and  C_23
    4  A    between atoms: C_15  and  C_23
    5  A    between atoms: C_30  and  C_31
                            x       y       z     vdW  Elec       q    Type
                         _______ _______ _______ _____ _____    ______ ____

>  <TORSDO>
F 5

$$$$
=
 OpenBabel11052422353D

 31 35  0  0  1  0  0  0  0  0999 V2000
  161.0410  206.0300  151.9150 C   0  0  0  0  0  0  0  0  0  0  0  0
  161.2730  209.6130  152.1740 N   0  0  0  0  0  0  0  0  0  0  0  0
  160.9970  208.3470  151.5280 C   0  0  2  0  0  3  0  0  0  0  0  0
  161.6220  205.8270  150.4980 C   0  0  0  0  0  2  0  0  0  0  0  0
  161.5930  210.5040  149.9060 C   0  0  1  0  0  3  0  0  0  0  0  0
  160.8350  204.8400  152.7850 C   0  0  0  0  0  1  0  0  0  0  0  0
  162.6830  209.4790  150.2070 C   0  0  1  0  0  3  0  0  0  0  0  0
  162.1680  210.4100  151.3150 C   0  0  2  0  0  3  0  0  0  0  0  0
  160.8400  207.2160  152.4020 N   0  0  0  0  0  0  0  0  0  0  0  0
  162.2120  208.1180  150.7050 C   0  0  2  0  0  3  0  0  0  0  0  0
  161.9000  207.0760  149.7420 N   0  0  0  0  0  2  0  0  0  0  0  0
  160.3600  210.2300  153.1020 C   0  0  0  0  0  0  0  0  0  0  0  0
  158.6800  211.9850  153.4850 N   0  0  0  0  0  2  0  0  0  0  0  0
  159.1660  210.9760  152.5500 C   0  0  0  0  0  2  0  0  0  0  0  0
  158.3060  211.2940  154.7110 C   0  0  0  0  0  2  0  0  0  0  0  0
  159.5650  210.7750  155.3950 C   0  0  0  0  0  2  0  0  0  0  0  0
  160.4830  210.0440  154.4400 C   0  0  0  0  0  0  0  0  0  0  0  0
  160.1790  207.3340  155.9570 C   0  0  0  0  0  1  0  0  0  0  0  0
  161.4600  208.0170  155.6180 C   0  0  0  0  0  3  0  0  0  0  0  0
  161.5690  209.1780  154.9640 C   0  0  0  0  0  3  0  0  0  0  0  0
  162.2070  211.6900  149.1890 C   0  0  0  0  0  2  0  0  0  0  0  0
  160.5910  213.3560  149.6560 O   0  0  0  0  0  0  0  0  0  0  0  0
  161.1340  212.6420  148.7720 C   0  0  0  0  0  0  0  0  0  0  0  0
  159.8020  212.8770  144.6930 C   0  0  0  0  0  0  0  0  0  0  0  0
  159.3350  212.5720  147.0450 C   0  0  0  0  0  3  0  0  0  0  0  0
  162.9360  213.1170  146.5480 F   0  0  0  0  0  0  0  0  0  0  0  0
  159.3310  212.9540  143.2860 C   0  0  0  0  0  1  0  0  0  0  0  0
  158.8900  212.6480  145.7240 C   0  0  0  0  0  3  0  0  0  0  0  0
  161.6110  212.9580  146.3070 C   0  0  0  0  0  0  0  0  0  0  0  0
  160.6960  212.7260  147.3570 C   0  0  0  0  0  0  0  0  0  0  0  0
  161.1590  213.0320  144.9850 C   0  0  0  0  0  3  0  0  0  0  0  0
  1  9  2  0  0  0  0
  1  6  1  0  0  0  0
  2 12  1  0  0  0  0
  3  2  1  0  0  0  0
  3  9  1  1  0  0  0
  4  1  1  0  0  0  0
  5 21  1  6  0  0  0
  5  7  1  0  0  0  0
  5  8  1  0  0  0  0
  7 10  1  0  0  0  0
  7  8  1  0  0  0  0
  8  2  1  0  0  0  0
 10  3  1  0  0  0  0
 11  4  1  0  0  0  0
 11 10  1  0  0  0  0
 12 17  2  0  0  0  0
 13 15  1  0  0  0  0
 14 12  1  0  0  0  0
 14 13  1  0  0  0  0
 15 16  1  0  0  0  0
 17 20  1  0  0  0  0
 17 16  1  0  0  0  0
 19 18  1  0  0  0  0
 20 19  2  0  0  0  0
 23 21  1  0  0  0  0
 23 22  2  0  0  0  0
 24 31  2  0  0  0  0
 24 28  1  0  0  0  0
 25 30  1  0  0  0  0
 27 24  1  0  0  0  0
 28 25  2  0  0  0  0
 29 26  1  0  0  0  0
 29 30  2  0  0  0  0
 30 23  1  0  0  0  0
 31 29  1  0  0  0  0
M  END
>  <MODEL>
8

>  <REMARK>
 VINA RESULT:      -7.7      2.894      6.349
  Name = 
  5 active torsions:
  status: ('A' for Active; 'I' for Inactive)
    1  A    between atoms: N_4  and  C_5
    2  A    between atoms: C_9  and  C_22
    3  A    between atoms: C_9  and  C_23
    4  A    between atoms: C_15  and  C_23
    5  A    between atoms: C_30  and  C_31
                            x       y       z     vdW  Elec       q    Type
                         _______ _______ _______ _____ _____    ______ ____

>  <TORSDO>
F 5

$$$$
=
 OpenBabel11052422353D

 31 35  0  0  1  0  0  0  0  0999 V2000
  160.9520  205.4160  148.6030 C   0  0  0  0  0  0  0  0  0  0  0  0
  161.8480  208.2810  150.5910 N   0  0  0  0  0  0  0  0  0  0  0  0
  161.1760  207.5650  149.5270 C   0  0  2  0  0  3  0  0  0  0  0  0
  161.0160  206.0410  147.1920 C   0  0  0  0  0  2  0  0  0  0  0  0
  161.5830  210.2770  149.1820 C   0  0  1  0  0  3  0  0  0  0  0  0
  160.8350  203.9380  148.7300 C   0  0  0  0  0  1  0  0  0  0  0  0
  162.5250  209.2930  148.4950 C   0  0  1  0  0  3  0  0  0  0  0  0
  162.5480  209.4480  150.0230 C   0  0  2  0  0  3  0  0  0  0  0  0
  161.1150  206.1360  149.6710 N   0  0  0  0  0  0  0  0  0  0  0  0
  162.0140  207.8650  148.3390 C   0  0  2  0  0  3  0  0  0  0  0  0
  161.2460  207.5090  147.1580 N   0  0  0  0  0  2  0  0  0  0  0  0
  161.3900  208.2570  151.9570 C   0  0  0  0  0  0  0  0  0  0  0  0
  160.4980  209.5430  153.8560 N   0  0  0  0  0  2  0  0  0  0  0  0
  160.4310  209.3340  152.4130 C   0  0  0  0  0  2  0  0  0  0  0  0
  160.1600  208.2780  154.4910 C   0  0  0  0  0  2  0  0  0  0  0  0
  161.2800  207.2760  154.2400 C   0  0  0  0  0  2  0  0  0  0  0  0
  161.6990  207.2310  152.7860 C   0  0  0  0  0  0  0  0  0  0  0  0
  160.8290  204.2460  152.5150 C   0  0  0  0  0  1  0  0  0  0  0  0
  162.1620  204.8130  152.1580 C   0  0  0  0  0  3  0  0  0  0  0  0
  162.5140  206.0980  152.2790 C   0  0  0  0  0  3  0  0  0  0  0  0
  162.1290  211.6820  149.0260 C   0  0  0  0  0  2  0  0  0  0  0  0
  162.0010  212.5340  146.8210 O   0  0  0  0  0  0  0  0  0  0  0  0
  161.4090  212.3880  147.9230 C   0  0  0  0  0  0  0  0  0  0  0  0
  157.4340  213.9250  148.4620 C   0  0  0  0  0  0  0  0  0  0  0  0
  159.0200  212.5780  147.2330 C   0  0  0  0  0  3  0  0  0  0  0  0
  160.6880  214.1690  150.0960 F   0  0  0  0  0  0  0  0  0  0  0  0
  156.0560  214.4530  148.6370 C   0  0  0  0  0  1  0  0  0  0  0  0
  157.7240  213.0700  147.3980 C   0  0  0  0  0  3  0  0  0  0  0  0
  159.7400  213.7970  149.2000 C   0  0  0  0  0  0  0  0  0  0  0  0
  160.0440  212.9310  148.1280 C   0  0  0  0  0  0  0  0  0  0  0  0
  158.4390  214.2870  149.3600 C   0  0  0  0  0  3  0  0  0  0  0  0
  1  6  1  0  0  0  0
  1  9  2  0  0  0  0
  2 12  1  0  0  0  0
  3  9  1  1  0  0  0
  3  2  1  0  0  0  0
  4  1  1  0  0  0  0
  5 21  1  6  0  0  0
  5  8  1  0  0  0  0
  7  5  1  0  0  0  0
  7  8  1  0  0  0  0
  8  2  1  0  0  0  0
 10  7  1  0  0  0  0
 10  3  1  0  0  0  0
 11  4  1  0  0  0  0
 11 10  1  0  0  0  0
 12 14  1  0  0  0  0
 12 17  2  0  0  0  0
 13 15  1  0  0  0  0
 14 13  1  0  0  0  0
 16 15  1  0  0  0  0
 17 16  1  0  0  0  0
 19 20  2  0  0  0  0
 19 18  1  0  0  0  0
 20 17  1  0  0  0  0
 22 23  2  0  0  0  0
 23 30  1  0  0  0  0
 23 21  1  0  0  0  0
 24 27  1  0  0  0  0
 24 31  1  0  0  0  0
 25 28  1  0  0  0  0
 25 30  2  0  0  0  0
 28 24  2  0  0  0  0
 29 31  2  0  0  0  0
 29 26  1  0  0  0  0
 30 29  1  0  0  0  0
M  END
>  <MODEL>
9

>  <REMARK>
 VINA RESULT:      -7.6      2.989      7.173
  Name = 
  5 active torsions:
  status: ('A' for Active; 'I' for Inactive)
    1  A    between atoms: N_4  and  C_5
    2  A    between atoms: C_9  and  C_22
    3  A    between atoms: C_9  and  C_23
    4  A    between atoms: C_15  and  C_23
    5  A    between atoms: C_30  and  C_31
                            x       y       z     vdW  Elec       q    Type
                         _______ _______ _______ _____ _____    ______ ____

>  <TORSDO>
F 5

$$$$
