=
 OpenBabel11052422383D

 31 35  0  0  1  0  0  0  0  0999 V2000
  161.1430  201.0130  149.3310 C   0  0  0  0  0  0  0  0  0  0  0  0
  161.2460  204.8090  148.8850 C   0  0  0  0  0  0  0  0  0  0  0  0
  161.4810  205.0570  147.5010 C   0  0  0  0  0  0  0  0  0  0  0  0
  161.0700  203.6760  145.4910 C   0  0  0  0  0  3  0  0  0  0  0  0
  161.2880  203.4410  149.4970 C   0  0  0  0  0  0  0  0  0  0  0  0
  161.2560  200.9010  150.7170 C   0  0  0  0  0  3  0  0  0  0  0  0
  162.0130  203.9800  146.6050 C   0  0  0  0  0  2  0  0  0  0  0  0
  160.6920  205.6790  151.2120 C   0  0  2  0  0  3  0  0  0  0  0  0
  161.0230  199.8440  148.5300 N   0  0  0  0  0  1  0  0  0  0  0  0
  161.0520  207.4210  147.8540 C   0  0  0  0  0  3  0  0  0  0  0  0
  160.7790  204.5590  144.5390 C   0  0  0  0  0  3  0  0  0  0  0  0
  161.5320  204.5280  151.7580 C   0  0  0  0  0  2  0  0  0  0  0  0
  160.9750  205.9070  149.7420 C   0  0  0  0  0  0  0  0  0  0  0  0
  161.1500  202.2730  148.7280 C   0  0  0  0  0  3  0  0  0  0  0  0
  161.2680  205.9490  144.5050 C   0  0  0  0  0  3  0  0  0  0  0  0
  161.3760  203.3130  150.9020 C   0  0  0  0  0  0  0  0  0  0  0  0
  161.3730  202.0510  151.5020 C   0  0  0  0  0  3  0  0  0  0  0  0
  160.8630  207.1940  149.2110 C   0  0  0  0  0  3  0  0  0  0  0  0
  161.3540  206.3710  146.9910 C   0  0  0  0  0  0  0  0  0  0  0  0
  161.5210  206.7260  145.5650 C   0  0  0  0  0  3  0  0  0  0  0  0
  160.4580  205.8640  154.0360 O   0  0  0  0  0  0  0  0  0  0  0  0
  160.8340  206.9020  153.4240 C   0  0  0  0  0  0  0  0  0  0  0  0
  160.9570  206.8800  151.9980 N   0  0  0  0  0  2  0  0  0  0  0  0
  161.7790  210.4410  155.6600 C   0  0  0  0  0  0  0  0  0  0  0  0
  161.4860  208.0460  155.5270 C   0  0  0  0  0  3  0  0  0  0  0  0
  160.8430  209.5660  152.2060 O   0  0  0  0  0  1  0  0  0  0  0  0
  162.0870  211.6050  156.4170 N   0  0  0  0  0  1  0  0  0  0  0  0
  161.7950  209.1870  156.2710 C   0  0  0  0  0  3  0  0  0  0  0  0
  161.1450  209.4140  153.5540 C   0  0  0  0  0  0  0  0  0  0  0  0
  161.1520  208.1420  154.1680 C   0  0  0  0  0  0  0  0  0  0  0  0
  161.4570  210.5540  154.3050 C   0  0  0  0  0  3  0  0  0  0  0  0
  1  6  1  0  0  0  0
  2  5  1  0  0  0  0
  2 13  1  0  0  0  0
  3  2  2  0  0  0  0
  4  7  1  0  0  0  0
  5 16  2  0  0  0  0
  6 17  2  0  0  0  0
  7  3  1  0  0  0  0
  8 12  1  0  0  0  0
  8 23  1  1  0  0  0
  9  1  1  0  0  0  0
 10 18  1  0  0  0  0
 11  4  2  0  0  0  0
 13  8  1  0  0  0  0
 14  1  2  0  0  0  0
 14  5  1  0  0  0  0
 15 11  1  0  0  0  0
 15 20  2  0  0  0  0
 16 17  1  0  0  0  0
 16 12  1  0  0  0  0
 18 13  2  0  0  0  0
 19  3  1  0  0  0  0
 19 10  2  0  0  0  0
 20 19  1  0  0  0  0
 22 21  2  0  0  0  0
 22 30  1  0  0  0  0
 23 22  1  0  0  0  0
 24 28  1  0  0  0  0
 24 27  1  0  0  0  0
 25 28  2  0  0  0  0
 26 29  1  0  0  0  0
 29 30  2  0  0  0  0
 29 31  1  0  0  0  0
 30 25  1  0  0  0  0
 31 24  2  0  0  0  0
M  END
>  <MODEL>
1

>  <REMARK>
 VINA RESULT:      -8.0      0.000      0.000
  Name = 
  2 active torsions:
  status: ('A' for Active; 'I' for Inactive)
    1  A    between atoms: C_9  and  C_22
    2  A    between atoms: C_15  and  N_23
                            x       y       z     vdW  Elec       q    Type
                         _______ _______ _______ _____ _____    ______ ____

>  <TORSDO>
F 2

$$$$
=
 OpenBabel11052422383D

 31 35  0  0  1  0  0  0  0  0999 V2000
  161.2440  208.1440  154.4250 C   0  0  0  0  0  0  0  0  0  0  0  0
  161.4760  207.5370  150.6580 C   0  0  0  0  0  0  0  0  0  0  0  0
  161.5170  206.1250  150.4670 C   0  0  0  0  0  0  0  0  0  0  0  0
  160.7460  204.2520  151.8860 C   0  0  0  0  0  3  0  0  0  0  0  0
  161.5360  208.1910  152.0060 C   0  0  0  0  0  0  0  0  0  0  0  0
  161.5530  209.5030  154.4990 C   0  0  0  0  0  3  0  0  0  0  0  0
  161.8570  205.2050  151.6010 C   0  0  0  0  0  2  0  0  0  0  0  0
  161.3140  209.8830  149.6840 C   0  0  2  0  0  3  0  0  0  0  0  0
  160.9480  207.4160  155.6110 N   0  0  0  0  0  1  0  0  0  0  0  0
  161.2660  206.4420  148.0730 C   0  0  0  0  0  3  0  0  0  0  0  0
  160.3640  203.3180  151.0190 C   0  0  0  0  0  3  0  0  0  0  0  0
  162.1640  210.3480  150.8620 C   0  0  0  0  0  2  0  0  0  0  0  0
  161.3900  208.3800  149.5190 C   0  0  0  0  0  0  0  0  0  0  0  0
  161.2270  207.4970  153.1870 C   0  0  0  0  0  3  0  0  0  0  0  0
  160.9140  203.1580  149.6610 C   0  0  0  0  0  3  0  0  0  0  0  0
  161.8220  209.5720  152.0930 C   0  0  0  0  0  0  0  0  0  0  0  0
  161.8420  210.2160  153.3340 C   0  0  0  0  0  3  0  0  0  0  0  0
  161.2670  207.8200  148.2460 C   0  0  0  0  0  3  0  0  0  0  0  0
  161.3850  205.5870  149.1650 C   0  0  0  0  0  0  0  0  0  0  0  0
  161.3590  204.1390  148.8660 C   0  0  0  0  0  3  0  0  0  0  0  0
  160.2790  212.3590  148.7540 O   0  0  0  0  0  0  0  0  0  0  0  0
  161.1980  211.8310  148.0700 C   0  0  0  0  0  0  0  0  0  0  0  0
  161.7520  210.5750  148.4760 N   0  0  0  0  0  2  0  0  0  0  0  0
  162.7740  213.7850  144.5900 C   0  0  0  0  0  0  0  0  0  0  0  0
  162.9900  213.0770  146.8900 C   0  0  0  0  0  3  0  0  0  0  0  0
  159.7040  211.9930  145.5550 O   0  0  0  0  0  1  0  0  0  0  0  0
  163.3080  214.4450  143.4470 N   0  0  0  0  0  1  0  0  0  0  0  0
  163.5180  213.7180  145.7680 C   0  0  0  0  0  3  0  0  0  0  0  0
  160.9670  212.5660  145.6550 C   0  0  0  0  0  0  0  0  0  0  0  0
  161.7120  212.5000  146.8530 C   0  0  0  0  0  0  0  0  0  0  0  0
  161.5030  213.2090  144.5330 C   0  0  0  0  0  3  0  0  0  0  0  0
  1  6  1  0  0  0  0
  1  9  1  0  0  0  0
  2  5  1  0  0  0  0
  3  2  1  0  0  0  0
  3  7  1  0  0  0  0
  5 16  2  0  0  0  0
  5 14  1  0  0  0  0
  7  4  1  0  0  0  0
  8 23  1  6  0  0  0
  8 12  1  0  0  0  0
 10 18  2  0  0  0  0
 10 19  1  0  0  0  0
 11  4  2  0  0  0  0
 12 16  1  0  0  0  0
 13  8  1  0  0  0  0
 13  2  2  0  0  0  0
 14  1  2  0  0  0  0
 15 11  1  0  0  0  0
 16 17  1  0  0  0  0
 17  6  2  0  0  0  0
 18 13  1  0  0  0  0
 19  3  2  0  0  0  0
 20 19  1  0  0  0  0
 20 15  2  0  0  0  0
 22 23  1  0  0  0  0
 22 21  2  0  0  0  0
 24 28  1  0  0  0  0
 26 29  1  0  0  0  0
 27 24  1  0  0  0  0
 28 25  2  0  0  0  0
 29 30  2  0  0  0  0
 30 25  1  0  0  0  0
 30 22  1  0  0  0  0
 31 24  2  0  0  0  0
 31 29  1  0  0  0  0
M  END
>  <MODEL>
2

>  <REMARK>
 VINA RESULT:      -8.0      4.190      7.430
  Name = 
  2 active torsions:
  status: ('A' for Active; 'I' for Inactive)
    1  A    between atoms: C_9  and  C_22
    2  A    between atoms: C_15  and  N_23
                            x       y       z     vdW  Elec       q    Type
                         _______ _______ _______ _____ _____    ______ ____

>  <TORSDO>
F 2

$$$$
=
 OpenBabel11052422383D

 31 35  0  0  1  0  0  0  0  0999 V2000
  161.5460  205.4630  145.7970 C   0  0  0  0  0  0  0  0  0  0  0  0
  161.0780  204.5810  149.4860 C   0  0  0  0  0  0  0  0  0  0  0  0
  160.8240  203.1800  149.5490 C   0  0  0  0  0  0  0  0  0  0  0  0
  161.3730  201.3400  147.9890 C   0  0  0  0  0  3  0  0  0  0  0  0
  161.1660  205.3480  148.2010 C   0  0  0  0  0  0  0  0  0  0  0  0
  161.4400  206.8550  145.8360 C   0  0  0  0  0  3  0  0  0  0  0  0
  160.4020  202.4190  148.3280 C   0  0  0  0  0  2  0  0  0  0  0  0
  161.5380  206.7860  150.6710 C   0  0  2  0  0  3  0  0  0  0  0  0
  161.7810  204.8030  144.5590 N   0  0  0  0  0  1  0  0  0  0  0  0
  161.0220  203.2520  151.9680 C   0  0  0  0  0  3  0  0  0  0  0  0
  161.5810  200.2890  148.7790 C   0  0  0  0  0  3  0  0  0  0  0  0
  160.8110  207.4700  149.5160 C   0  0  0  0  0  2  0  0  0  0  0  0
  161.2380  205.3020  150.6980 C   0  0  0  0  0  0  0  0  0  0  0  0
  161.4190  204.7190  146.9710 C   0  0  0  0  0  3  0  0  0  0  0  0
  160.9600  200.0980  150.1020 C   0  0  0  0  0  3  0  0  0  0  0  0
  161.0870  206.7590  148.2300 C   0  0  0  0  0  0  0  0  0  0  0  0
  161.2100  207.5010  147.0530 C   0  0  0  0  0  3  0  0  0  0  0  0
  161.2270  204.6240  151.9190 C   0  0  0  0  0  3  0  0  0  0  0  0
  160.8250  202.5190  150.8000 C   0  0  0  0  0  0  0  0  0  0  0  0
  160.6290  201.0630  150.9690 C   0  0  0  0  0  3  0  0  0  0  0  0
  162.4060  209.3540  151.5170 O   0  0  0  0  0  0  0  0  0  0  0  0
  161.6190  208.7360  152.2850 C   0  0  0  0  0  0  0  0  0  0  0  0
  161.1560  207.4300  151.9240 N   0  0  0  0  0  2  0  0  0  0  0  0
  160.3300  210.4320  156.0090 C   0  0  0  0  0  0  0  0  0  0  0  0
  161.1920  208.5770  154.7240 C   0  0  0  0  0  3  0  0  0  0  0  0
  160.6910  211.5060  152.5040 O   0  0  0  0  0  1  0  0  0  0  0  0
  159.8980  210.9770  157.2510 N   0  0  0  0  0  1  0  0  0  0  0  0
  160.7750  209.1120  155.9450 C   0  0  0  0  0  3  0  0  0  0  0  0
  160.7190  210.6880  153.6280 C   0  0  0  0  0  0  0  0  0  0  0  0
  161.1650  209.3500  153.5530 C   0  0  0  0  0  0  0  0  0  0  0  0
  160.3030  211.2180  154.8550 C   0  0  0  0  0  3  0  0  0  0  0  0
  1  6  2  0  0  0  0
  1 14  1  0  0  0  0
  2  3  2  0  0  0  0
  2 13  1  0  0  0  0
  3 19  1  0  0  0  0
  4  7  1  0  0  0  0
  4 11  2  0  0  0  0
  5 16  1  0  0  0  0
  5  2  1  0  0  0  0
  6 17  1  0  0  0  0
  7  3  1  0  0  0  0
  8 13  1  0  0  0  0
  8 23  1  1  0  0  0
  9  1  1  0  0  0  0
 11 15  1  0  0  0  0
 12  8  1  0  0  0  0
 13 18  2  0  0  0  0
 14  5  2  0  0  0  0
 15 20  2  0  0  0  0
 16 12  1  0  0  0  0
 17 16  2  0  0  0  0
 18 10  1  0  0  0  0
 19 20  1  0  0  0  0
 19 10  2  0  0  0  0
 21 22  2  0  0  0  0
 22 30  1  0  0  0  0
 23 22  1  0  0  0  0
 24 27  1  0  0  0  0
 25 28  2  0  0  0  0
 26 29  1  0  0  0  0
 28 24  1  0  0  0  0
 29 31  1  0  0  0  0
 30 29  2  0  0  0  0
 30 25  1  0  0  0  0
 31 24  2  0  0  0  0
M  END
>  <MODEL>
3

>  <REMARK>
 VINA RESULT:      -7.9      1.814      4.221
  Name = 
  2 active torsions:
  status: ('A' for Active; 'I' for Inactive)
    1  A    between atoms: C_9  and  C_22
    2  A    between atoms: C_15  and  N_23
                            x       y       z     vdW  Elec       q    Type
                         _______ _______ _______ _____ _____    ______ ____

>  <TORSDO>
F 2

$$$$
=
 OpenBabel11052422383D

 31 35  0  0  1  0  0  0  0  0999 V2000
  161.7490  212.0220  149.5770 C   0  0  0  0  0  0  0  0  0  0  0  0
  161.3970  208.6410  151.3260 C   0  0  0  0  0  0  0  0  0  0  0  0
  161.5360  208.8810  152.7240 C   0  0  0  0  0  0  0  0  0  0  0  0
  161.1910  210.9170  154.0840 C   0  0  0  0  0  3  0  0  0  0  0  0
  161.6240  209.6910  150.2800 C   0  0  0  0  0  0  0  0  0  0  0  0
  161.9400  211.6220  148.2530 C   0  0  0  0  0  3  0  0  0  0  0  0
  162.1450  210.1530  153.2300 C   0  0  0  0  0  2  0  0  0  0  0  0
  160.8570  207.0530  149.4110 C   0  0  2  0  0  3  0  0  0  0  0  0
  161.7260  213.4060  149.9060 N   0  0  0  0  0  1  0  0  0  0  0  0
  160.8560  206.5950  153.1830 C   0  0  0  0  0  3  0  0  0  0  0  0
  160.7560  210.4620  155.2560 C   0  0  0  0  0  3  0  0  0  0  0  0
  161.8480  207.8530  148.5700 C   0  0  0  0  0  2  0  0  0  0  0  0
  161.0430  207.3390  150.8860 C   0  0  0  0  0  0  0  0  0  0  0  0
  161.5830  211.0630  150.5790 C   0  0  0  0  0  3  0  0  0  0  0  0
  161.0810  209.1370  155.8130 C   0  0  0  0  0  3  0  0  0  0  0  0
  161.7910  209.3020  148.9330 C   0  0  0  0  0  0  0  0  0  0  0  0
  161.9610  210.2630  147.9320 C   0  0  0  0  0  3  0  0  0  0  0  0
  160.7590  206.3400  151.8210 C   0  0  0  0  0  3  0  0  0  0  0  0
  161.2360  207.8520  153.6480 C   0  0  0  0  0  0  0  0  0  0  0  0
  161.2930  208.0140  155.1170 C   0  0  0  0  0  3  0  0  0  0  0  0
  160.4340  205.8510  146.8730 O   0  0  0  0  0  0  0  0  0  0  0  0
  160.8040  205.0920  147.8100 C   0  0  0  0  0  0  0  0  0  0  0  0
  161.0200  205.6330  149.1180 N   0  0  0  0  0  2  0  0  0  0  0  0
  161.4210  200.8880  147.2080 C   0  0  0  0  0  0  0  0  0  0  0  0
  161.0400  202.7760  148.6680 C   0  0  0  0  0  3  0  0  0  0  0  0
  161.1670  203.9300  145.1460 O   0  0  0  0  0  1  0  0  0  0  0  0
  161.6330  199.4930  147.0260 N   0  0  0  0  0  1  0  0  0  0  0  0
  161.2420  201.4050  148.4910 C   0  0  0  0  0  3  0  0  0  0  0  0
  161.1980  203.1160  146.2720 C   0  0  0  0  0  0  0  0  0  0  0  0
  161.0220  203.6470  147.5690 C   0  0  0  0  0  0  0  0  0  0  0  0
  161.3970  201.7410  146.1020 C   0  0  0  0  0  3  0  0  0  0  0  0
  1  9  1  0  0  0  0
  1 14  1  0  0  0  0
  2  3  1  0  0  0  0
  3  7  1  0  0  0  0
  3 19  2  0  0  0  0
  4 11  2  0  0  0  0
  5 14  2  0  0  0  0
  5  2  1  0  0  0  0
  6  1  2  0  0  0  0
  7  4  1  0  0  0  0
  8 23  1  1  0  0  0
  8 13  1  0  0  0  0
 10 19  1  0  0  0  0
 11 15  1  0  0  0  0
 12 16  1  0  0  0  0
 12  8  1  0  0  0  0
 13  2  2  0  0  0  0
 13 18  1  0  0  0  0
 16  5  1  0  0  0  0
 17  6  1  0  0  0  0
 17 16  2  0  0  0  0
 18 10  2  0  0  0  0
 19 20  1  0  0  0  0
 20 15  2  0  0  0  0
 21 22  2  0  0  0  0
 22 23  1  0  0  0  0
 24 28  1  0  0  0  0
 26 29  1  0  0  0  0
 27 24  1  0  0  0  0
 28 25  2  0  0  0  0
 29 30  2  0  0  0  0
 30 22  1  0  0  0  0
 30 25  1  0  0  0  0
 31 29  1  0  0  0  0
 31 24  2  0  0  0  0
M  END
>  <MODEL>
4

>  <REMARK>
 VINA RESULT:      -6.2      3.045      8.996
  Name = 
  2 active torsions:
  status: ('A' for Active; 'I' for Inactive)
    1  A    between atoms: C_9  and  C_22
    2  A    between atoms: C_15  and  N_23
                            x       y       z     vdW  Elec       q    Type
                         _______ _______ _______ _____ _____    ______ ____

>  <TORSDO>
F 2

$$$$
=
 OpenBabel11052422383D

 31 35  0  0  1  0  0  0  0  0999 V2000
  161.7340  212.0180  149.5820 C   0  0  0  0  0  0  0  0  0  0  0  0
  161.3810  208.6790  151.4100 C   0  0  0  0  0  0  0  0  0  0  0  0
  161.5100  208.9530  152.8030 C   0  0  0  0  0  0  0  0  0  0  0  0
  161.1520  211.0210  154.1110 C   0  0  0  0  0  3  0  0  0  0  0  0
  161.6110  209.7050  150.3410 C   0  0  0  0  0  0  0  0  0  0  0  0
  161.9340  211.5870  148.2700 C   0  0  0  0  0  3  0  0  0  0  0  0
  162.1130  210.2400  153.2810 C   0  0  0  0  0  2  0  0  0  0  0  0
  160.8570  207.0440  149.5310 C   0  0  2  0  0  3  0  0  0  0  0  0
  161.7050  213.4100  149.8780 N   0  0  0  0  0  1  0  0  0  0  0  0
  160.8340  206.6780  153.3130 C   0  0  0  0  0  3  0  0  0  0  0  0
  160.7110  210.5930  155.2910 C   0  0  0  0  0  3  0  0  0  0  0  0
  161.8510  207.8270  148.6770 C   0  0  0  0  0  2  0  0  0  0  0  0
  161.0330  207.3660  151.0000 C   0  0  0  0  0  0  0  0  0  0  0  0
  161.5650  211.0840  150.6060 C   0  0  0  0  0  3  0  0  0  0  0  0
  161.0360  209.2820  155.8820 C   0  0  0  0  0  3  0  0  0  0  0  0
  161.7880  209.2840  149.0040 C   0  0  0  0  0  0  0  0  0  0  0  0
  161.9610  210.2210  147.9810 C   0  0  0  0  0  3  0  0  0  0  0  0
  160.7460  206.3900  151.9570 C   0  0  0  0  0  3  0  0  0  0  0  0
  161.2070  207.9460  153.7490 C   0  0  0  0  0  0  0  0  0  0  0  0
  161.2560  208.1440  155.2140 C   0  0  0  0  0  3  0  0  0  0  0  0
  160.3530  205.7640  147.0460 O   0  0  0  0  0  0  0  0  0  0  0  0
  160.7670  205.0370  147.9910 C   0  0  0  0  0  0  0  0  0  0  0  0
  161.0250  205.6180  149.2730 N   0  0  0  0  0  2  0  0  0  0  0  0
  161.4300  200.8550  147.2930 C   0  0  0  0  0  0  0  0  0  0  0  0
  161.1340  203.1080  146.4730 C   0  0  0  0  0  3  0  0  0  0  0  0
  160.9710  203.0990  150.1780 O   0  0  0  0  0  1  0  0  0  0  0  0
  161.6420  199.4700  147.0440 N   0  0  0  0  0  1  0  0  0  0  0  0
  161.3490  201.7500  146.2270 C   0  0  0  0  0  3  0  0  0  0  0  0
  161.0830  202.6760  148.8590 C   0  0  0  0  0  0  0  0  0  0  0  0
  160.9920  203.5880  147.7840 C   0  0  0  0  0  0  0  0  0  0  0  0
  161.3000  201.3160  148.6050 C   0  0  0  0  0  3  0  0  0  0  0  0
  1  9  1  0  0  0  0
  1 14  1  0  0  0  0
  2  3  1  0  0  0  0
  3  7  1  0  0  0  0
  3 19  2  0  0  0  0
  4 11  2  0  0  0  0
  5 14  2  0  0  0  0
  5  2  1  0  0  0  0
  6  1  2  0  0  0  0
  7  4  1  0  0  0  0
  8 23  1  1  0  0  0
  8 13  1  0  0  0  0
 10 19  1  0  0  0  0
 11 15  1  0  0  0  0
 12 16  1  0  0  0  0
 12  8  1  0  0  0  0
 13  2  2  0  0  0  0
 13 18  1  0  0  0  0
 16  5  1  0  0  0  0
 17  6  1  0  0  0  0
 17 16  2  0  0  0  0
 18 10  2  0  0  0  0
 19 20  1  0  0  0  0
 20 15  2  0  0  0  0
 21 22  2  0  0  0  0
 22 23  1  0  0  0  0
 24 31  1  0  0  0  0
 25 30  2  0  0  0  0
 27 24  1  0  0  0  0
 28 25  1  0  0  0  0
 28 24  2  0  0  0  0
 29 26  1  0  0  0  0
 30 22  1  0  0  0  0
 30 29  1  0  0  0  0
 31 29  2  0  0  0  0
M  END
>  <MODEL>
5

>  <REMARK>
 VINA RESULT:      -6.2      2.706      8.968
  Name = 
  2 active torsions:
  status: ('A' for Active; 'I' for Inactive)
    1  A    between atoms: C_9  and  C_22
    2  A    between atoms: C_15  and  N_23
                            x       y       z     vdW  Elec       q    Type
                         _______ _______ _______ _____ _____    ______ ____

>  <TORSDO>
F 2

$$$$
=
 OpenBabel11052422383D

 31 35  0  0  1  0  0  0  0  0999 V2000
  160.4990  211.2380  154.6130 C   0  0  0  0  0  0  0  0  0  0  0  0
  161.2860  209.8290  151.1480 C   0  0  0  0  0  0  0  0  0  0  0  0
  161.1060  210.8930  150.2170 C   0  0  0  0  0  0  0  0  0  0  0  0
  161.1670  213.3500  150.4980 C   0  0  0  0  0  3  0  0  0  0  0  0
  160.9290  209.9330  152.6000 C   0  0  0  0  0  0  0  0  0  0  0  0
  160.3730  210.0650  155.3590 C   0  0  0  0  0  3  0  0  0  0  0  0
  160.3300  212.1200  150.5900 C   0  0  0  0  0  2  0  0  0  0  0  0
  162.0460  207.4520  151.6500 C   0  0  2  0  0  3  0  0  0  0  0  0
  160.3360  212.5040  155.2430 N   0  0  0  0  0  1  0  0  0  0  0  0
  162.0810  209.5240  148.4650 C   0  0  0  0  0  3  0  0  0  0  0  0
  161.6510  213.8020  149.3440 C   0  0  0  0  0  3  0  0  0  0  0  0
  160.9630  207.4150  152.7250 C   0  0  0  0  0  2  0  0  0  0  0  0
  161.8130  208.5960  150.6850 C   0  0  0  0  0  0  0  0  0  0  0  0
  160.7840  211.1710  153.2480 C   0  0  0  0  0  3  0  0  0  0  0  0
  161.5010  213.1180  148.0460 C   0  0  0  0  0  3  0  0  0  0  0  0
  160.8240  208.7550  153.3730 C   0  0  0  0  0  0  0  0  0  0  0  0
  160.5350  208.8250  154.7390 C   0  0  0  0  0  3  0  0  0  0  0  0
  162.2210  208.4680  149.3550 C   0  0  0  0  0  3  0  0  0  0  0  0
  161.5350  210.7360  148.8780 C   0  0  0  0  0  0  0  0  0  0  0  0
  161.4450  211.7960  147.8490 C   0  0  0  0  0  3  0  0  0  0  0  0
  159.8690  206.3150  150.2240 O   0  0  0  0  0  0  0  0  0  0  0  0
  160.9450  205.6570  150.2430 C   0  0  0  0  0  0  0  0  0  0  0  0
  162.0760  206.1680  150.9570 N   0  0  0  0  0  2  0  0  0  0  0  0
  161.2160  201.8630  148.2570 C   0  0  0  0  0  0  0  0  0  0  0  0
  160.7270  203.1860  150.2190 C   0  0  0  0  0  3  0  0  0  0  0  0
  161.7680  205.4130  147.4420 O   0  0  0  0  0  1  0  0  0  0  0  0
  161.3090  200.5960  147.6150 N   0  0  0  0  0  1  0  0  0  0  0  0
  160.8110  201.9420  149.5890 C   0  0  0  0  0  3  0  0  0  0  0  0
  161.4550  204.2770  148.1790 C   0  0  0  0  0  0  0  0  0  0  0  0
  161.0520  204.3640  149.5300 C   0  0  0  0  0  0  0  0  0  0  0  0
  161.5360  203.0270  147.5540 C   0  0  0  0  0  3  0  0  0  0  0  0
  1  9  1  0  0  0  0
  1  6  1  0  0  0  0
  2  5  1  0  0  0  0
  3  7  1  0  0  0  0
  3  2  2  0  0  0  0
  4  7  1  0  0  0  0
  5 14  1  0  0  0  0
  5 16  2  0  0  0  0
  8 23  1  6  0  0  0
  8 12  1  0  0  0  0
 10 19  2  0  0  0  0
 10 18  1  0  0  0  0
 11  4  2  0  0  0  0
 12 16  1  0  0  0  0
 13  2  1  0  0  0  0
 13  8  1  0  0  0  0
 14  1  2  0  0  0  0
 15 11  1  0  0  0  0
 16 17  1  0  0  0  0
 17  6  2  0  0  0  0
 18 13  2  0  0  0  0
 19  3  1  0  0  0  0
 20 15  2  0  0  0  0
 20 19  1  0  0  0  0
 21 22  2  0  0  0  0
 22 23  1  0  0  0  0
 24 28  1  0  0  0  0
 26 29  1  0  0  0  0
 27 24  1  0  0  0  0
 28 25  2  0  0  0  0
 29 30  2  0  0  0  0
 30 25  1  0  0  0  0
 30 22  1  0  0  0  0
 31 29  1  0  0  0  0
 31 24  2  0  0  0  0
M  END
>  <MODEL>
6

>  <REMARK>
 VINA RESULT:      -6.1      2.886      7.966
  Name = 
  2 active torsions:
  status: ('A' for Active; 'I' for Inactive)
    1  A    between atoms: C_9  and  C_22
    2  A    between atoms: C_15  and  N_23
                            x       y       z     vdW  Elec       q    Type
                         _______ _______ _______ _____ _____    ______ ____

>  <TORSDO>
F 2

$$$$
=
 OpenBabel11052422383D

 31 35  0  0  1  0  0  0  0  0999 V2000
  160.0490  209.4970  156.1080 C   0  0  0  0  0  0  0  0  0  0  0  0
  160.6560  210.0910  152.3810 C   0  0  0  0  0  0  0  0  0  0  0  0
  160.0720  211.3510  152.0620 C   0  0  0  0  0  0  0  0  0  0  0  0
  159.5330  213.3160  153.4640 C   0  0  0  0  0  3  0  0  0  0  0  0
  160.5020  209.4230  153.7150 C   0  0  0  0  0  0  0  0  0  0  0  0
  160.3420  208.1360  156.2160 C   0  0  0  0  0  3  0  0  0  0  0  0
  159.0670  211.9870  152.9740 C   0  0  0  0  0  2  0  0  0  0  0  0
  162.0720  208.0880  151.7000 C   0  0  2  0  0  3  0  0  0  0  0  0
  159.6570  210.2340  157.2610 N   0  0  0  0  0  1  0  0  0  0  0  0
  161.1000  211.2690  149.8640 C   0  0  0  0  0  3  0  0  0  0  0  0
  159.7080  214.3570  152.6540 C   0  0  0  0  0  3  0  0  0  0  0  0
  161.2060  207.2540  152.6400 C   0  0  0  0  0  2  0  0  0  0  0  0
  161.4110  209.4150  151.3890 C   0  0  0  0  0  0  0  0  0  0  0  0
  160.1370  210.1350  154.8690 C   0  0  0  0  0  3  0  0  0  0  0  0
  159.5520  214.3150  151.1890 C   0  0  0  0  0  3  0  0  0  0  0  0
  160.8210  208.0530  153.8440 C   0  0  0  0  0  0  0  0  0  0  0  0
  160.7280  207.4150  155.0840 C   0  0  0  0  0  3  0  0  0  0  0  0
  161.6380  210.0220  150.1510 C   0  0  0  0  0  3  0  0  0  0  0  0
  160.3240  211.9440  150.8020 C   0  0  0  0  0  0  0  0  0  0  0  0
  159.8120  213.2710  150.3940 C   0  0  0  0  0  3  0  0  0  0  0  0
  160.1150  206.6570  150.2220 O   0  0  0  0  0  0  0  0  0  0  0  0
  161.2960  206.6340  149.7790 C   0  0  0  0  0  0  0  0  0  0  0  0
  162.3320  207.3230  150.4850 N   0  0  0  0  0  2  0  0  0  0  0  0
  162.2570  204.6080  146.1200 C   0  0  0  0  0  0  0  0  0  0  0  0
  162.0080  206.6420  147.4020 C   0  0  0  0  0  3  0  0  0  0  0  0
  161.2030  203.7160  149.5350 O   0  0  0  0  0  1  0  0  0  0  0  0
  162.5710  203.9520  144.8970 N   0  0  0  0  0  1  0  0  0  0  0  0
  162.3230  205.9990  146.2020 C   0  0  0  0  0  3  0  0  0  0  0  0
  161.5610  204.4970  148.4420 C   0  0  0  0  0  0  0  0  0  0  0  0
  161.6180  205.9060  148.5310 C   0  0  0  0  0  0  0  0  0  0  0  0
  161.8790  203.8590  147.2370 C   0  0  0  0  0  3  0  0  0  0  0  0
  1  6  1  0  0  0  0
  1  9  1  0  0  0  0
  2  5  1  0  0  0  0
  3  2  1  0  0  0  0
  3  7  1  0  0  0  0
  5 16  2  0  0  0  0
  5 14  1  0  0  0  0
  7  4  1  0  0  0  0
  8 23  1  6  0  0  0
  8 12  1  0  0  0  0
 10 18  2  0  0  0  0
 10 19  1  0  0  0  0
 11  4  2  0  0  0  0
 12 16  1  0  0  0  0
 13  8  1  0  0  0  0
 13  2  2  0  0  0  0
 14  1  2  0  0  0  0
 15 11  1  0  0  0  0
 16 17  1  0  0  0  0
 17  6  2  0  0  0  0
 18 13  1  0  0  0  0
 19  3  2  0  0  0  0
 20 19  1  0  0  0  0
 20 15  2  0  0  0  0
 22 21  2  0  0  0  0
 22 23  1  0  0  0  0
 24 28  2  0  0  0  0
 24 31  1  0  0  0  0
 25 30  2  0  0  0  0
 27 24  1  0  0  0  0
 28 25  1  0  0  0  0
 29 30  1  0  0  0  0
 29 26  1  0  0  0  0
 30 22  1  0  0  0  0
 31 29  2  0  0  0  0
M  END
>  <MODEL>
7

>  <REMARK>
 VINA RESULT:      -5.9      2.870      8.428
  Name = 
  2 active torsions:
  status: ('A' for Active; 'I' for Inactive)
    1  A    between atoms: C_9  and  C_22
    2  A    between atoms: C_15  and  N_23
                            x       y       z     vdW  Elec       q    Type
                         _______ _______ _______ _____ _____    ______ ____

>  <TORSDO>
F 2

$$$$
=
 OpenBabel11052422383D

 31 35  0  0  1  0  0  0  0  0999 V2000
  160.8370  209.7000  154.9850 C   0  0  0  0  0  0  0  0  0  0  0  0
  161.4860  208.5600  151.3950 C   0  0  0  0  0  0  0  0  0  0  0  0
  161.2970  209.6970  150.5580 C   0  0  0  0  0  0  0  0  0  0  0  0
  161.4120  212.1230  151.0300 C   0  0  0  0  0  3  0  0  0  0  0  0
  161.1780  208.5530  152.8620 C   0  0  0  0  0  0  0  0  0  0  0  0
  160.7130  208.4740  155.6400 C   0  0  0  0  0  3  0  0  0  0  0  0
  160.5560  210.9030  151.0530 C   0  0  0  0  0  2  0  0  0  0  0  0
  162.2170  206.1380  151.6810 C   0  0  2  0  0  3  0  0  0  0  0  0
  160.7180  210.9140  155.7190 N   0  0  0  0  0  1  0  0  0  0  0  0
  162.1890  208.4570  148.6710 C   0  0  0  0  0  3  0  0  0  0  0  0
  161.8670  212.6570  149.9000 C   0  0  0  0  0  3  0  0  0  0  0  0
  161.1690  206.0330  152.7860 C   0  0  0  0  0  2  0  0  0  0  0  0
  161.9750  207.3590  150.8180 C   0  0  0  0  0  0  0  0  0  0  0  0
  161.0770  209.7370  153.6100 C   0  0  0  0  0  3  0  0  0  0  0  0
  161.6630  212.0820  148.5580 C   0  0  0  0  0  3  0  0  0  0  0  0
  161.0760  207.3190  153.5430 C   0  0  0  0  0  0  0  0  0  0  0  0
  160.8320  207.2840  154.9190 C   0  0  0  0  0  3  0  0  0  0  0  0
  162.3370  207.3310  149.4690 C   0  0  0  0  0  3  0  0  0  0  0  0
  161.6790  209.6410  149.1960 C   0  0  0  0  0  0  0  0  0  0  0  0
  161.5760  210.7800  148.2590 C   0  0  0  0  0  3  0  0  0  0  0  0
  160.0240  205.2310  150.1220 O   0  0  0  0  0  0  0  0  0  0  0  0
  161.0650  204.5190  150.1120 C   0  0  0  0  0  0  0  0  0  0  0  0
  162.2010  204.9130  150.8890 N   0  0  0  0  0  2  0  0  0  0  0  0
  161.2500  200.9910  147.6770 C   0  0  0  0  0  0  0  0  0  0  0  0
  161.2030  203.3960  147.9040 C   0  0  0  0  0  3  0  0  0  0  0  0
  161.0660  201.8240  151.2610 O   0  0  0  0  0  1  0  0  0  0  0  0
  161.3040  199.8300  146.8550 N   0  0  0  0  0  1  0  0  0  0  0  0
  161.2630  202.2580  147.0960 C   0  0  0  0  0  3  0  0  0  0  0  0
  161.1200  201.9950  149.8820 C   0  0  0  0  0  0  0  0  0  0  0  0
  161.1250  203.2830  149.3000 C   0  0  0  0  0  0  0  0  0  0  0  0
  161.1810  200.8600  149.0660 C   0  0  0  0  0  3  0  0  0  0  0  0
  1  6  1  0  0  0  0
  1  9  1  0  0  0  0
  2  5  1  0  0  0  0
  3  7  1  0  0  0  0
  3  2  2  0  0  0  0
  4  7  1  0  0  0  0
  5 16  2  0  0  0  0
  5 14  1  0  0  0  0
  8 23  1  6  0  0  0
  8 12  1  0  0  0  0
 10 19  2  0  0  0  0
 10 18  1  0  0  0  0
 11  4  2  0  0  0  0
 12 16  1  0  0  0  0
 13  2  1  0  0  0  0
 13  8  1  0  0  0  0
 14  1  2  0  0  0  0
 15 11  1  0  0  0  0
 16 17  1  0  0  0  0
 17  6  2  0  0  0  0
 18 13  2  0  0  0  0
 19  3  1  0  0  0  0
 20 15  2  0  0  0  0
 20 19  1  0  0  0  0
 22 21  2  0  0  0  0
 22 23  1  0  0  0  0
 24 31  1  0  0  0  0
 25 30  2  0  0  0  0
 27 24  1  0  0  0  0
 28 24  2  0  0  0  0
 28 25  1  0  0  0  0
 29 26  1  0  0  0  0
 30 29  1  0  0  0  0
 30 22  1  0  0  0  0
 31 29  2  0  0  0  0
M  END
>  <MODEL>
8

>  <REMARK>
 VINA RESULT:      -5.5      2.425      7.839
  Name = 
  2 active torsions:
  status: ('A' for Active; 'I' for Inactive)
    1  A    between atoms: C_9  and  C_22
    2  A    between atoms: C_15  and  N_23
                            x       y       z     vdW  Elec       q    Type
                         _______ _______ _______ _____ _____    ______ ____

>  <TORSDO>
F 2

$$$$
=
 OpenBabel11052422383D

 31 35  0  0  1  0  0  0  0  0999 V2000
  161.8200  207.3220  153.0890 C   0  0  0  0  0  0  0  0  0  0  0  0
  160.7480  210.6560  151.5570 C   0  0  0  0  0  0  0  0  0  0  0  0
  159.9510  211.3240  152.5320 C   0  0  0  0  0  0  0  0  0  0  0  0
  159.8390  211.1030  154.9930 C   0  0  0  0  0  3  0  0  0  0  0  0
  161.2370  209.2470  151.7130 C   0  0  0  0  0  0  0  0  0  0  0  0
  162.2760  206.6400  151.9590 C   0  0  0  0  0  3  0  0  0  0  0  0
  159.3570  210.5730  153.6860 C   0  0  0  0  0  2  0  0  0  0  0  0
  161.9570  210.6780  149.3170 C   0  0  2  0  0  3  0  0  0  0  0  0
  161.8680  206.6960  154.3660 N   0  0  0  0  0  1  0  0  0  0  0  0
  159.9700  213.3340  151.1710 C   0  0  0  0  0  3  0  0  0  0  0  0
  159.5470  212.3280  155.4210 C   0  0  0  0  0  3  0  0  0  0  0  0
  161.6580  209.1840  149.2280 C   0  0  0  0  0  2  0  0  0  0  0  0
  161.0880  211.3440  150.3630 C   0  0  0  0  0  0  0  0  0  0  0  0
  161.3140  208.6180  152.9660 C   0  0  0  0  0  3  0  0  0  0  0  0
  158.7990  213.3320  154.6430 C   0  0  0  0  0  3  0  0  0  0  0  0
  161.7270  208.5550  150.5830 C   0  0  0  0  0  0  0  0  0  0  0  0
  162.2290  207.2570  150.7070 C   0  0  0  0  0  3  0  0  0  0  0  0
  160.7100  212.6780  150.1960 C   0  0  0  0  0  3  0  0  0  0  0  0
  159.5890  212.6780  152.3380 C   0  0  0  0  0  0  0  0  0  0  0  0
  158.8150  213.4760  153.3130 C   0  0  0  0  0  3  0  0  0  0  0  0
  163.4990  212.8190  148.2650 O   0  0  0  0  0  0  0  0  0  0  0  0
  162.5900  212.3520  147.5260 C   0  0  0  0  0  0  0  0  0  0  0  0
  161.7670  211.2820  148.0020 N   0  0  0  0  0  2  0  0  0  0  0  0
  162.0460  213.9110  143.5650 C   0  0  0  0  0  0  0  0  0  0  0  0
  163.4590  212.9720  145.2860 C   0  0  0  0  0  3  0  0  0  0  0  0
  159.9830  213.2590  146.5460 O   0  0  0  0  0  1  0  0  0  0  0  0
  161.8840  214.4340  142.2510 N   0  0  0  0  0  1  0  0  0  0  0  0
  163.3010  213.4790  143.9940 C   0  0  0  0  0  3  0  0  0  0  0  0
  161.1010  213.3310  145.7230 C   0  0  0  0  0  0  0  0  0  0  0  0
  162.3700  212.8970  146.1670 C   0  0  0  0  0  0  0  0  0  0  0  0
  160.9490  213.8360  144.4260 C   0  0  0  0  0  3  0  0  0  0  0  0
  1  9  1  0  0  0  0
  2  5  1  0  0  0  0
  2  3  1  0  0  0  0
  3  7  1  0  0  0  0
  4 11  2  0  0  0  0
  5 14  2  0  0  0  0
  6  1  2  0  0  0  0
  7  4  1  0  0  0  0
  8 23  1  6  0  0  0
  8 13  1  0  0  0  0
 10 19  1  0  0  0  0
 12  8  1  0  0  0  0
 12 16  1  0  0  0  0
 13  2  2  0  0  0  0
 14  1  1  0  0  0  0
 15 11  1  0  0  0  0
 16 17  2  0  0  0  0
 16  5  1  0  0  0  0
 17  6  1  0  0  0  0
 18 13  1  0  0  0  0
 18 10  2  0  0  0  0
 19  3  2  0  0  0  0
 19 20  1  0  0  0  0
 20 15  2  0  0  0  0
 22 23  1  0  0  0  0
 22 21  2  0  0  0  0
 24 28  2  0  0  0  0
 24 31  1  0  0  0  0
 25 30  2  0  0  0  0
 27 24  1  0  0  0  0
 28 25  1  0  0  0  0
 29 30  1  0  0  0  0
 29 26  1  0  0  0  0
 30 22  1  0  0  0  0
 31 29  2  0  0  0  0
M  END
>  <MODEL>
9

>  <REMARK>
 VINA RESULT:      -5.0      4.888      9.090
  Name = 
  2 active torsions:
  status: ('A' for Active; 'I' for Inactive)
    1  A    between atoms: C_9  and  C_22
    2  A    between atoms: C_15  and  N_23
                            x       y       z     vdW  Elec       q    Type
                         _______ _______ _______ _____ _____    ______ ____

>  <TORSDO>
F 2

$$$$
