=
 OpenBabel11062409583D

 43 48  0  0  1  0  0  0  0  0999 V2000
  161.0360  202.2420  147.6340 C   0  0  0  0  0  0  0  0  0  0  0  0
  161.8370  207.1090  148.7410 C   0  0  0  0  0  0  0  0  0  0  0  0
  161.1650  207.4010  151.4000 C   0  0  0  0  0  0  0  0  0  0  0  0
  161.6030  204.5940  147.5210 C   0  0  0  0  0  0  0  0  0  0  0  0
  160.6940  202.3850  148.9820 C   0  0  0  0  0  3  0  0  0  0  0  0
  160.9270  201.0330  147.0340 F   0  0  0  0  0  0  0  0  0  0  0  0
  161.2570  204.7460  148.8860 C   0  0  0  0  0  0  0  0  0  0  0  0
  161.4890  203.3440  146.9050 C   0  0  0  0  0  3  0  0  0  0  0  0
  160.8030  203.6300  149.6060 C   0  0  0  0  0  3  0  0  0  0  0  0
  161.0530  206.1850  150.8060 N   0  0  0  0  0  0  0  0  0  0  0  0
  161.3760  206.0080  149.4960 C   0  0  0  0  0  0  0  0  0  0  0  0
  162.1740  206.9430  147.3910 C   0  0  0  0  0  3  0  0  0  0  0  0
  161.9460  208.3530  149.3710 C   0  0  0  0  0  0  0  0  0  0  0  0
  161.6080  208.4690  150.6840 N   0  0  0  0  0  0  0  0  0  0  0  0
  162.0570  205.6910  146.7850 C   0  0  0  0  0  3  0  0  0  0  0  0
  160.8010  207.5500  152.8400 C   0  0  1  0  0  3  0  0  0  0  0  0
  161.1540  206.2880  153.6060 C   0  0  0  0  0  1  0  0  0  0  0  0
  161.5010  208.7610  153.4420 C   0  0  0  0  0  2  0  0  0  0  0  0
  160.5130  209.6670  154.1580 C   0  0  1  0  0  3  0  0  0  0  0  0
  160.3590  209.1960  155.5910 C   0  0  0  0  0  1  0  0  0  0  0  0
  161.0210  211.1060  154.1430 C   0  0  0  0  0  2  0  0  0  0  0  0
  160.0820  212.0490  153.3930 C   0  0  1  0  0  3  0  0  0  0  0  0
  158.2010  213.1050  151.7830 C   0  0  0  0  0  2  0  0  0  0  0  0
  160.4430  212.1400  152.0370 O   0  0  0  0  0  0  0  0  0  0  0  0
  158.6090  211.6120  153.5100 C   0  0  2  0  0  3  0  0  0  0  0  0
  157.8640  211.8440  152.3250 O   0  0  0  0  0  0  0  0  0  0  0  0
  159.7090  213.2090  151.4810 C   0  0  0  0  0  2  0  0  0  0  0  0
  158.3520  213.3590  155.3190 C   0  0  0  0  0  3  0  0  0  0  0  0
  157.9290  212.1620  154.7280 C   0  0  0  0  0  0  0  0  0  0  0  0
  155.1080  211.2790  156.9750 N   0  0  0  0  0  1  0  0  0  0  0  0
  156.6370  213.1410  156.9670 N   0  0  0  0  0  0  0  0  0  0  0  0
  156.2080  211.9780  156.4070 C   0  0  0  0  0  0  0  0  0  0  0  0
  157.6860  213.8360  156.4500 C   0  0  0  0  0  3  0  0  0  0  0  0
  156.8480  211.4680  155.2750 C   0  0  0  0  0  3  0  0  0  0  0  0
  162.3980  209.4670  148.6530 O   0  0  0  0  0  0  0  0  0  0  0  0
  160.6770  212.4500  147.2550 C   0  0  0  0  0  2  0  0  0  0  0  0
  162.0060  213.1460  146.9230 C   0  0  1  0  0  0  0  0  0  0  0  0
  162.2000  213.1520  145.4200 C   0  0  0  0  0  1  0  0  0  0  0  0
  162.8560  211.8390  148.9140 C   0  0  0  0  0  2  0  0  0  0  0  0
  160.8690  210.9630  147.5460 C   0  0  0  0  0  2  0  0  0  0  0  0
  161.7840  210.7460  148.7570 C   0  0  1  0  0  3  0  0  0  0  0  0
  161.9400  214.4530  147.3640 F   0  0  0  0  0  0  0  0  0  0  0  0
  163.2200  212.4630  147.5700 C   0  0  0  0  0  2  0  0  0  0  0  0
  1  5  1  0  0  0  0
  2 13  1  0  0  0  0
  2 11  1  0  0  0  0
  3 16  1  0  0  0  0
  4  7  1  0  0  0  0
  5  9  2  0  0  0  0
  6  1  1  0  0  0  0
  7 11  2  0  0  0  0
  7  9  1  0  0  0  0
  8  4  1  0  0  0  0
  8  1  2  0  0  0  0
 10  3  2  0  0  0  0
 11 10  1  0  0  0  0
 12  2  2  0  0  0  0
 13 14  2  0  0  0  0
 14  3  1  0  0  0  0
 15 12  1  0  0  0  0
 15  4  2  0  0  0  0
 16 18  1  0  0  0  0
 16 17  1  1  0  0  0
 18 19  1  0  0  0  0
 19 20  1  1  0  0  0
 21 19  1  0  0  0  0
 22 25  1  0  0  0  0
 22 21  1  1  0  0  0
 23 26  1  0  0  0  0
 24 22  1  0  0  0  0
 25 29  1  1  0  0  0
 26 25  1  0  0  0  0
 27 23  1  0  0  0  0
 27 24  1  0  0  0  0
 28 33  1  0  0  0  0
 29 34  1  0  0  0  0
 29 28  2  0  0  0  0
 32 31  1  0  0  0  0
 32 30  1  0  0  0  0
 33 31  2  0  0  0  0
 34 32  2  0  0  0  0
 35 13  1  0  0  0  0
 36 40  1  0  0  0  0
 37 38  1  6  0  0  0
 37 36  1  0  0  0  0
 37 42  1  0  0  0  0
 37 43  1  0  0  0  0
 40 41  1  0  0  0  0
 41 35  1  6  0  0  0
 41 39  1  0  0  0  0
 43 39  1  0  0  0  0
M  END
>  <MODEL>
1

>  <REMARK>
 VINA RESULT:      -9.4      0.000      0.000
  Name = 
  8 active torsions:
  status: ('A' for Active; 'I' for Inactive)
    1  A    between atoms: O_1  and  C_34
    2  A    between atoms: O_1  and  C_35
    3  A    between atoms: C_2  and  C_6
    4  A    between atoms: C_2  and  C_13
    5  A    between atoms: C_3  and  C_4
    6  A    between atoms: C_3  and  C_12
    7  A    between atoms: C_6  and  C_12
    8  A    between atoms: C_14  and  C_22
                            x       y       z     vdW  Elec       q    Type
                         _______ _______ _______ _____ _____    ______ ____

>  <TORSDO>
F 8

$$$$
=
 OpenBabel11062409583D

 43 48  0  0  1  0  0  0  0  0999 V2000
  160.9950  202.2560  148.1840 C   0  0  0  0  0  0  0  0  0  0  0  0
  161.7790  207.1990  148.9010 C   0  0  0  0  0  0  0  0  0  0  0  0
  161.1560  207.6880  151.5430 C   0  0  0  0  0  0  0  0  0  0  0  0
  161.5410  204.5960  147.8810 C   0  0  0  0  0  0  0  0  0  0  0  0
  160.6780  202.4990  149.5230 C   0  0  0  0  0  3  0  0  0  0  0  0
  160.8850  201.0050  147.6800 F   0  0  0  0  0  0  0  0  0  0  0  0
  161.2210  204.8500  149.2370 C   0  0  0  0  0  0  0  0  0  0  0  0
  161.4260  203.3030  147.3650 C   0  0  0  0  0  3  0  0  0  0  0  0
  160.7890  203.7890  150.0480 C   0  0  0  0  0  3  0  0  0  0  0  0
  161.0420  206.4300  151.0460 N   0  0  0  0  0  0  0  0  0  0  0  0
  161.3410  206.1550  149.7470 C   0  0  0  0  0  0  0  0  0  0  0  0
  162.0910  206.9320  147.5620 C   0  0  0  0  0  3  0  0  0  0  0  0
  161.8910  208.4880  149.4320 C   0  0  0  0  0  0  0  0  0  0  0  0
  161.5760  208.7020  150.7400 N   0  0  0  0  0  0  0  0  0  0  0  0
  161.9730  205.6370  147.0550 C   0  0  0  0  0  3  0  0  0  0  0  0
  160.8180  207.9450  152.9740 C   0  0  1  0  0  3  0  0  0  0  0  0
  161.1570  206.7300  153.8210 C   0  0  0  0  0  1  0  0  0  0  0  0
  161.5530  209.1790  153.4810 C   0  0  0  0  0  2  0  0  0  0  0  0
  160.6540  210.0300  154.3620 C   0  0  1  0  0  3  0  0  0  0  0  0
  161.3360  210.2500  155.6980 C   0  0  0  0  0  1  0  0  0  0  0  0
  160.3930  211.3760  153.6920 C   0  0  0  0  0  2  0  0  0  0  0  0
  158.9110  211.7480  153.6870 C   0  0  1  0  0  3  0  0  0  0  0  0
  156.5170  212.8920  154.1410 C   0  0  0  0  0  2  0  0  0  0  0  0
  158.3020  211.3900  154.9040 O   0  0  0  0  0  0  0  0  0  0  0  0
  158.6910  213.2490  153.4180 C   0  0  2  0  0  3  0  0  0  0  0  0
  157.6060  213.7930  154.1520 O   0  0  0  0  0  0  0  0  0  0  0  0
  156.9080  211.5210  154.7260 C   0  0  0  0  0  2  0  0  0  0  0  0
  159.7700  213.7430  151.1860 C   0  0  0  0  0  3  0  0  0  0  0  0
  158.6130  213.5780  151.9580 C   0  0  0  0  0  0  0  0  0  0  0  0
  156.0120  214.1640  149.3730 N   0  0  0  0  0  1  0  0  0  0  0  0
  158.4190  214.1770  149.2660 N   0  0  0  0  0  0  0  0  0  0  0  0
  157.2820  214.0190  149.9960 C   0  0  0  0  0  0  0  0  0  0  0  0
  159.6500  214.0450  149.8280 C   0  0  0  0  0  3  0  0  0  0  0  0
  157.3610  213.7160  151.3570 C   0  0  0  0  0  3  0  0  0  0  0  0
  162.3200  209.5470  148.6230 O   0  0  0  0  0  0  0  0  0  0  0  0
  160.6800  212.4040  146.9030 C   0  0  0  0  0  2  0  0  0  0  0  0
  162.0170  213.1290  146.6860 C   0  0  1  0  0  0  0  0  0  0  0  0
  162.3760  213.0750  145.2150 C   0  0  0  0  0  1  0  0  0  0  0  0
  162.6760  211.9420  148.8190 C   0  0  0  0  0  2  0  0  0  0  0  0
  160.8810  210.9390  147.2840 C   0  0  0  0  0  2  0  0  0  0  0  0
  161.6610  210.8070  148.5980 C   0  0  1  0  0  3  0  0  0  0  0  0
  161.8640  214.4520  147.0540 F   0  0  0  0  0  0  0  0  0  0  0  0
  163.1700  212.5180  147.4940 C   0  0  0  0  0  2  0  0  0  0  0  0
  1  5  1  0  0  0  0
  2 13  1  0  0  0  0
  2 11  1  0  0  0  0
  3 16  1  0  0  0  0
  4  7  1  0  0  0  0
  5  9  2  0  0  0  0
  6  1  1  0  0  0  0
  7 11  2  0  0  0  0
  7  9  1  0  0  0  0
  8  4  1  0  0  0  0
  8  1  2  0  0  0  0
 10  3  2  0  0  0  0
 11 10  1  0  0  0  0
 12  2  2  0  0  0  0
 13 14  2  0  0  0  0
 14  3  1  0  0  0  0
 15 12  1  0  0  0  0
 15  4  2  0  0  0  0
 16 18  1  0  0  0  0
 16 17  1  1  0  0  0
 18 19  1  0  0  0  0
 19 20  1  1  0  0  0
 21 19  1  0  0  0  0
 22 21  1  1  0  0  0
 22 24  1  0  0  0  0
 23 26  1  0  0  0  0
 23 27  1  0  0  0  0
 25 29  1  6  0  0  0
 25 22  1  0  0  0  0
 25 26  1  0  0  0  0
 27 24  1  0  0  0  0
 28 29  1  0  0  0  0
 30 32  1  0  0  0  0
 31 33  1  0  0  0  0
 31 32  2  0  0  0  0
 32 34  1  0  0  0  0
 33 28  2  0  0  0  0
 34 29  2  0  0  0  0
 35 13  1  0  0  0  0
 36 40  1  0  0  0  0
 37 38  1  6  0  0  0
 37 36  1  0  0  0  0
 37 42  1  0  0  0  0
 37 43  1  0  0  0  0
 40 41  1  0  0  0  0
 41 35  1  6  0  0  0
 41 39  1  0  0  0  0
 43 39  1  0  0  0  0
M  END
>  <MODEL>
2

>  <REMARK>
 VINA RESULT:      -9.2      1.994      2.794
  Name = 
  8 active torsions:
  status: ('A' for Active; 'I' for Inactive)
    1  A    between atoms: O_1  and  C_34
    2  A    between atoms: O_1  and  C_35
    3  A    between atoms: C_2  and  C_6
    4  A    between atoms: C_2  and  C_13
    5  A    between atoms: C_3  and  C_4
    6  A    between atoms: C_3  and  C_12
    7  A    between atoms: C_6  and  C_12
    8  A    between atoms: C_14  and  C_22
                            x       y       z     vdW  Elec       q    Type
                         _______ _______ _______ _____ _____    ______ ____

>  <TORSDO>
F 8

$$$$
=
 OpenBabel11062409583D

 43 48  0  0  1  0  0  0  0  0999 V2000
  162.0210  211.5080  148.4590 C   0  0  0  0  0  0  0  0  0  0  0  0
  161.8760  207.1340  150.9880 C   0  0  0  0  0  0  0  0  0  0  0  0
  161.1590  207.7780  153.5730 C   0  0  0  0  0  0  0  0  0  0  0  0
  162.1280  209.1680  149.0730 C   0  0  0  0  0  0  0  0  0  0  0  0
  161.6580  211.8390  149.7670 C   0  0  0  0  0  3  0  0  0  0  0  0
  162.1450  212.4800  147.5250 F   0  0  0  0  0  0  0  0  0  0  0  0
  161.7610  209.4960  150.4010 C   0  0  0  0  0  0  0  0  0  0  0  0
  162.2550  210.1740  148.1130 C   0  0  0  0  0  3  0  0  0  0  0  0
  161.5280  210.8400  150.7340 C   0  0  0  0  0  3  0  0  0  0  0  0
  161.2830  208.7590  152.6430 N   0  0  0  0  0  0  0  0  0  0  0  0
  161.6350  208.4750  151.3600 C   0  0  0  0  0  0  0  0  0  0  0  0
  162.2390  206.8240  149.6710 C   0  0  0  0  0  3  0  0  0  0  0  0
  161.7430  206.1360  151.9610 C   0  0  0  0  0  0  0  0  0  0  0  0
  161.3890  206.4820  153.2290 N   0  0  0  0  0  0  0  0  0  0  0  0
  162.3640  207.8370  148.7190 C   0  0  0  0  0  3  0  0  0  0  0  0
  160.7700  208.1340  154.9690 C   0  0  1  0  0  3  0  0  0  0  0  0
  161.3160  207.1070  155.9460 C   0  0  0  0  0  1  0  0  0  0  0  0
  161.2670  209.5300  155.3200 C   0  0  0  0  0  2  0  0  0  0  0  0
  160.1150  210.4410  155.7130 C   0  0  1  0  0  3  0  0  0  0  0  0
  159.8310  210.2670  157.1920 C   0  0  0  0  0  1  0  0  0  0  0  0
  160.4790  211.8940  155.4270 C   0  0  0  0  0  2  0  0  0  0  0  0
  159.5130  212.5560  154.4460 C   0  0  1  0  0  3  0  0  0  0  0  0
  157.7870  213.0700  152.4460 C   0  0  0  0  0  2  0  0  0  0  0  0
  160.0970  212.6770  153.1730 O   0  0  0  0  0  0  0  0  0  0  0  0
  158.1830  211.7860  154.3360 C   0  0  2  0  0  3  0  0  0  0  0  0
  157.6470  211.7870  153.0220 O   0  0  0  0  0  0  0  0  0  0  0  0
  159.2610  213.5180  152.4090 C   0  0  0  0  0  2  0  0  0  0  0  0
  157.1450  213.5150  155.8610 C   0  0  0  0  0  3  0  0  0  0  0  0
  157.1750  212.2060  155.3630 C   0  0  0  0  0  0  0  0  0  0  0  0
  154.3520  210.7170  157.2610 N   0  0  0  0  0  1  0  0  0  0  0  0
  155.2920  212.9360  157.2520 N   0  0  0  0  0  0  0  0  0  0  0  0
  155.3010  211.6590  156.7810 C   0  0  0  0  0  0  0  0  0  0  0  0
  156.1860  213.8620  156.8150 C   0  0  0  0  0  3  0  0  0  0  0  0
  156.2460  211.2730  155.8260 C   0  0  0  0  0  3  0  0  0  0  0  0
  161.9770  204.7960  151.6290 O   0  0  0  0  0  0  0  0  0  0  0  0
  160.6310  201.4200  150.8530 C   0  0  0  0  0  2  0  0  0  0  0  0
  160.4940  201.7440  149.3570 C   0  0  1  0  0  0  0  0  0  0  0  0
  161.5450  200.9730  148.5850 C   0  0  0  0  0  1  0  0  0  0  0  0
  160.1410  204.1030  150.1960 C   0  0  0  0  0  2  0  0  0  0  0  0
  161.5160  202.4320  151.5770 C   0  0  0  0  0  2  0  0  0  0  0  0
  160.9270  203.8470  151.4940 C   0  0  1  0  0  3  0  0  0  0  0  0
  159.2450  201.3330  148.9320 F   0  0  0  0  0  0  0  0  0  0  0  0
  160.6570  203.2390  149.0490 C   0  0  0  0  0  2  0  0  0  0  0  0
  1  5  1  0  0  0  0
  2 11  1  0  0  0  0
  2 13  1  0  0  0  0
  3 16  1  0  0  0  0
  4  7  1  0  0  0  0
  5  9  2  0  0  0  0
  6  1  1  0  0  0  0
  7  9  1  0  0  0  0
  7 11  2  0  0  0  0
  8  1  2  0  0  0  0
  8  4  1  0  0  0  0
 10  3  2  0  0  0  0
 11 10  1  0  0  0  0
 12  2  2  0  0  0  0
 13 14  2  0  0  0  0
 14  3  1  0  0  0  0
 15  4  2  0  0  0  0
 15 12  1  0  0  0  0
 16 18  1  0  0  0  0
 16 17  1  1  0  0  0
 18 19  1  0  0  0  0
 19 20  1  1  0  0  0
 21 19  1  0  0  0  0
 22 21  1  1  0  0  0
 23 26  1  0  0  0  0
 24 22  1  0  0  0  0
 25 22  1  0  0  0  0
 25 29  1  1  0  0  0
 26 25  1  0  0  0  0
 27 23  1  0  0  0  0
 27 24  1  0  0  0  0
 28 33  1  0  0  0  0
 29 34  1  0  0  0  0
 29 28  2  0  0  0  0
 32 31  1  0  0  0  0
 32 30  1  0  0  0  0
 33 31  2  0  0  0  0
 34 32  2  0  0  0  0
 35 13  1  0  0  0  0
 36 40  1  0  0  0  0
 37 38  1  6  0  0  0
 37 36  1  0  0  0  0
 39 41  1  0  0  0  0
 41 40  1  0  0  0  0
 41 35  1  6  0  0  0
 42 37  1  0  0  0  0
 43 37  1  0  0  0  0
 43 39  1  0  0  0  0
M  END
>  <MODEL>
3

>  <REMARK>
 VINA RESULT:      -7.8      1.772      5.948
  Name = 
  8 active torsions:
  status: ('A' for Active; 'I' for Inactive)
    1  A    between atoms: O_1  and  C_34
    2  A    between atoms: O_1  and  C_35
    3  A    between atoms: C_2  and  C_6
    4  A    between atoms: C_2  and  C_13
    5  A    between atoms: C_3  and  C_4
    6  A    between atoms: C_3  and  C_12
    7  A    between atoms: C_6  and  C_12
    8  A    between atoms: C_14  and  C_22
                            x       y       z     vdW  Elec       q    Type
                         _______ _______ _______ _____ _____    ______ ____

>  <TORSDO>
F 8

$$$$
=
 OpenBabel11062409583D

 43 48  0  0  1  0  0  0  0  0999 V2000
  162.0080  211.4040  148.4720 C   0  0  0  0  0  0  0  0  0  0  0  0
  161.8350  207.1150  151.1430 C   0  0  0  0  0  0  0  0  0  0  0  0
  160.9730  207.8290  153.6640 C   0  0  0  0  0  0  0  0  0  0  0  0
  162.1370  209.0890  149.1720 C   0  0  0  0  0  0  0  0  0  0  0  0
  161.5710  211.7700  149.7480 C   0  0  0  0  0  3  0  0  0  0  0  0
  162.1570  212.3470  147.5120 F   0  0  0  0  0  0  0  0  0  0  0  0
  161.6950  209.4530  150.4680 C   0  0  0  0  0  0  0  0  0  0  0  0
  162.2900  210.0650  148.1850 C   0  0  0  0  0  3  0  0  0  0  0  0
  161.4160  210.8010  150.7420 C   0  0  0  0  0  3  0  0  0  0  0  0
  161.1210  208.7810  152.7080 N   0  0  0  0  0  0  0  0  0  0  0  0
  161.5440  208.4620  151.4540 C   0  0  0  0  0  0  0  0  0  0  0  0
  162.2710  206.7710  149.8570 C   0  0  0  0  0  3  0  0  0  0  0  0
  161.6760  206.1480  152.1410 C   0  0  0  0  0  0  0  0  0  0  0  0
  161.2490  206.5280  153.3770 N   0  0  0  0  0  0  0  0  0  0  0  0
  162.4210  207.7530  148.8770 C   0  0  0  0  0  3  0  0  0  0  0  0
  160.5060  208.2220  155.0260 C   0  0  1  0  0  3  0  0  0  0  0  0
  160.7360  207.0880  156.0100 C   0  0  0  0  0  1  0  0  0  0  0  0
  161.2150  209.4890  155.4870 C   0  0  0  0  0  2  0  0  0  0  0  0
  160.2190  210.5940  155.7960 C   0  0  1  0  0  3  0  0  0  0  0  0
  160.8450  211.5600  156.7830 C   0  0  0  0  0  1  0  0  0  0  0  0
  159.8510  211.3360  154.5140 C   0  0  0  0  0  2  0  0  0  0  0  0
  158.3530  211.6210  154.4140 C   0  0  1  0  0  3  0  0  0  0  0  0
  155.8610  212.5750  154.7630 C   0  0  0  0  0  2  0  0  0  0  0  0
  157.6710  211.1080  155.5320 O   0  0  0  0  0  0  0  0  0  0  0  0
  158.0590  213.1270  154.2730 C   0  0  2  0  0  3  0  0  0  0  0  0
  156.8840  213.5310  154.9580 O   0  0  0  0  0  0  0  0  0  0  0  0
  156.2920  211.1760  155.2460 C   0  0  0  0  0  2  0  0  0  0  0  0
  159.2770  213.9700  152.2240 C   0  0  0  0  0  3  0  0  0  0  0  0
  158.0800  213.5980  152.8500 C   0  0  0  0  0  0  0  0  0  0  0  0
  155.6830  214.1640  150.0710 N   0  0  0  0  0  1  0  0  0  0  0  0
  158.0700  214.4530  150.2210 N   0  0  0  0  0  0  0  0  0  0  0  0
  156.8960  214.0950  150.8080 C   0  0  0  0  0  0  0  0  0  0  0  0
  159.2500  214.3990  150.8960 C   0  0  0  0  0  3  0  0  0  0  0  0
  156.8820  213.6600  152.1360 C   0  0  0  0  0  3  0  0  0  0  0  0
  161.9560  204.8040  151.8690 O   0  0  0  0  0  0  0  0  0  0  0  0
  160.7040  201.4670  150.8150 C   0  0  0  0  0  2  0  0  0  0  0  0
  160.5120  201.9230  149.3600 C   0  0  1  0  0  0  0  0  0  0  0  0
  161.5660  201.2670  148.4920 C   0  0  0  0  0  1  0  0  0  0  0  0
  160.1040  204.1800  150.4250 C   0  0  0  0  0  2  0  0  0  0  0  0
  161.5750  202.4400  151.6070 C   0  0  0  0  0  2  0  0  0  0  0  0
  160.9360  203.8330  151.6720 C   0  0  1  0  0  3  0  0  0  0  0  0
  159.2660  201.5080  148.9310 F   0  0  0  0  0  0  0  0  0  0  0  0
  160.6150  203.4460  149.1890 C   0  0  0  0  0  2  0  0  0  0  0  0
  1  5  1  0  0  0  0
  2 11  1  0  0  0  0
  2 13  1  0  0  0  0
  3 16  1  0  0  0  0
  4  7  1  0  0  0  0
  5  9  2  0  0  0  0
  6  1  1  0  0  0  0
  7  9  1  0  0  0  0
  7 11  2  0  0  0  0
  8  1  2  0  0  0  0
  8  4  1  0  0  0  0
 10  3  2  0  0  0  0
 11 10  1  0  0  0  0
 12  2  2  0  0  0  0
 13 14  2  0  0  0  0
 14  3  1  0  0  0  0
 15  4  2  0  0  0  0
 15 12  1  0  0  0  0
 16 18  1  0  0  0  0
 16 17  1  1  0  0  0
 18 19  1  0  0  0  0
 19 20  1  1  0  0  0
 21 19  1  0  0  0  0
 22 21  1  1  0  0  0
 22 24  1  0  0  0  0
 23 26  1  0  0  0  0
 23 27  1  0  0  0  0
 25 29  1  6  0  0  0
 25 22  1  0  0  0  0
 25 26  1  0  0  0  0
 27 24  1  0  0  0  0
 28 29  1  0  0  0  0
 30 32  1  0  0  0  0
 31 32  2  0  0  0  0
 31 33  1  0  0  0  0
 32 34  1  0  0  0  0
 33 28  2  0  0  0  0
 34 29  2  0  0  0  0
 35 13  1  0  0  0  0
 36 40  1  0  0  0  0
 37 38  1  6  0  0  0
 37 36  1  0  0  0  0
 39 41  1  0  0  0  0
 40 41  1  0  0  0  0
 41 35  1  6  0  0  0
 42 37  1  0  0  0  0
 43 37  1  0  0  0  0
 43 39  1  0  0  0  0
M  END
>  <MODEL>
4

>  <REMARK>
 VINA RESULT:      -7.8      2.536      6.428
  Name = 
  8 active torsions:
  status: ('A' for Active; 'I' for Inactive)
    1  A    between atoms: O_1  and  C_34
    2  A    between atoms: O_1  and  C_35
    3  A    between atoms: C_2  and  C_6
    4  A    between atoms: C_2  and  C_13
    5  A    between atoms: C_3  and  C_4
    6  A    between atoms: C_3  and  C_12
    7  A    between atoms: C_6  and  C_12
    8  A    between atoms: C_14  and  C_22
                            x       y       z     vdW  Elec       q    Type
                         _______ _______ _______ _____ _____    ______ ____

>  <TORSDO>
F 8

$$$$
=
 OpenBabel11062409583D

 43 48  0  0  1  0  0  0  0  0999 V2000
  161.2940  204.4990  147.1030 C   0  0  0  0  0  0  0  0  0  0  0  0
  161.7740  208.1370  150.5790 C   0  0  0  0  0  0  0  0  0  0  0  0
  161.8890  210.5110  149.1790 C   0  0  0  0  0  0  0  0  0  0  0  0
  161.5040  205.7180  149.1850 C   0  0  0  0  0  0  0  0  0  0  0  0
  161.3520  205.6980  146.3890 C   0  0  0  0  0  3  0  0  0  0  0  0
  161.1630  203.3240  146.4420 F   0  0  0  0  0  0  0  0  0  0  0  0
  161.5640  206.9380  148.4680 C   0  0  0  0  0  0  0  0  0  0  0  0
  161.3700  204.5080  148.4990 C   0  0  0  0  0  3  0  0  0  0  0  0
  161.4870  206.9130  147.0670 C   0  0  0  0  0  3  0  0  0  0  0  0
  161.7590  209.3380  148.5080 N   0  0  0  0  0  0  0  0  0  0  0  0
  161.7000  208.1500  149.1690 C   0  0  0  0  0  0  0  0  0  0  0  0
  161.7140  206.9230  151.2750 C   0  0  0  0  0  3  0  0  0  0  0  0
  161.9080  209.3560  151.2530 C   0  0  0  0  0  0  0  0  0  0  0  0
  161.9620  210.5130  150.5370 N   0  0  0  0  0  0  0  0  0  0  0  0
  161.5800  205.7190  150.5800 C   0  0  0  0  0  3  0  0  0  0  0  0
  161.9500  211.7910  148.4140 C   0  0  1  0  0  3  0  0  0  0  0  0
  163.3920  212.2370  148.2470 C   0  0  0  0  0  1  0  0  0  0  0  0
  161.2730  211.6340  147.0580 C   0  0  0  0  0  2  0  0  0  0  0  0
  159.9700  212.4150  147.0010 C   0  0  1  0  0  3  0  0  0  0  0  0
  160.1970  213.7960  147.5820 C   0  0  0  0  0  1  0  0  0  0  0  0
  159.4990  212.5360  145.5550 C   0  0  0  0  0  2  0  0  0  0  0  0
  160.5320  213.2200  144.6600 C   0  0  1  0  0  3  0  0  0  0  0  0
  162.7060  213.8240  143.1920 C   0  0  0  0  0  2  0  0  0  0  0  0
  161.6650  213.5980  145.4030 O   0  0  0  0  0  0  0  0  0  0  0  0
  160.9590  212.3260  143.4810 C   0  0  2  0  0  3  0  0  0  0  0  0
  162.3320  212.4610  143.1490 O   0  0  0  0  0  0  0  0  0  0  0  0
  162.4410  214.4410  144.5800 C   0  0  0  0  0  2  0  0  0  0  0  0
  159.0590  213.4370  142.2380 C   0  0  0  0  0  3  0  0  0  0  0  0
  160.0670  212.4660  142.2850 C   0  0  0  0  0  0  0  0  0  0  0  0
  159.6020  210.8790  138.9600 N   0  0  0  0  0  1  0  0  0  0  0  0
  158.4510  212.6910  140.0530 N   0  0  0  0  0  0  0  0  0  0  0  0
  159.4250  211.7420  140.0750 C   0  0  0  0  0  0  0  0  0  0  0  0
  158.2540  213.5340  141.1020 C   0  0  0  0  0  3  0  0  0  0  0  0
  160.2520  211.6140  141.1940 C   0  0  0  0  0  3  0  0  0  0  0  0
  161.9870  209.3820  152.6500 O   0  0  0  0  0  0  0  0  0  0  0  0
  159.9760  211.0840  155.2720 C   0  0  0  0  0  2  0  0  0  0  0  0
  160.6620  210.3020  156.4020 C   0  0  1  0  0  0  0  0  0  0  0  0
  161.5700  211.2390  157.1730 C   0  0  0  0  0  1  0  0  0  0  0  0
  160.8880  208.5090  154.6340 C   0  0  0  0  0  2  0  0  0  0  0  0
  160.7460  210.9810  153.9580 C   0  0  0  0  0  2  0  0  0  0  0  0
  160.8410  209.5260  153.4800 C   0  0  1  0  0  3  0  0  0  0  0  0
  159.6890  209.8260  157.2610 F   0  0  0  0  0  0  0  0  0  0  0  0
  161.4980  209.1190  155.8930 C   0  0  0  0  0  2  0  0  0  0  0  0
  1  8  1  0  0  0  0
  2 13  1  0  0  0  0
  2 12  1  0  0  0  0
  3 14  1  0  0  0  0
  4 15  1  0  0  0  0
  5  9  1  0  0  0  0
  5  1  2  0  0  0  0
  6  1  1  0  0  0  0
  7 11  1  0  0  0  0
  7  4  1  0  0  0  0
  8  4  2  0  0  0  0
  9  7  2  0  0  0  0
 10 11  1  0  0  0  0
 10  3  2  0  0  0  0
 11  2  2  0  0  0  0
 13 35  1  0  0  0  0
 14 13  2  0  0  0  0
 15 12  2  0  0  0  0
 16 17  1  6  0  0  0
 16  3  1  0  0  0  0
 18 16  1  0  0  0  0
 19 18  1  0  0  0  0
 19 20  1  6  0  0  0
 21 19  1  0  0  0  0
 22 24  1  0  0  0  0
 22 21  1  1  0  0  0
 23 27  1  0  0  0  0
 25 29  1  6  0  0  0
 25 22  1  0  0  0  0
 26 23  1  0  0  0  0
 26 25  1  0  0  0  0
 27 24  1  0  0  0  0
 28 29  1  0  0  0  0
 30 32  1  0  0  0  0
 31 32  2  0  0  0  0
 31 33  1  0  0  0  0
 32 34  1  0  0  0  0
 33 28  2  0  0  0  0
 34 29  2  0  0  0  0
 36 37  1  0  0  0  0
 37 38  1  1  0  0  0
 37 42  1  0  0  0  0
 39 43  1  0  0  0  0
 40 36  1  0  0  0  0
 41 35  1  1  0  0  0
 41 40  1  0  0  0  0
 41 39  1  0  0  0  0
 43 37  1  0  0  0  0
M  END
>  <MODEL>
5

>  <REMARK>
 VINA RESULT:      -7.4      4.008      8.815
  Name = 
  8 active torsions:
  status: ('A' for Active; 'I' for Inactive)
    1  A    between atoms: O_1  and  C_34
    2  A    between atoms: O_1  and  C_35
    3  A    between atoms: C_2  and  C_6
    4  A    between atoms: C_2  and  C_13
    5  A    between atoms: C_3  and  C_4
    6  A    between atoms: C_3  and  C_12
    7  A    between atoms: C_6  and  C_12
    8  A    between atoms: C_14  and  C_22
                            x       y       z     vdW  Elec       q    Type
                         _______ _______ _______ _____ _____    ______ ____

>  <TORSDO>
F 8

$$$$
=
 OpenBabel11062409583D

 43 48  0  0  1  0  0  0  0  0999 V2000
  161.5610  212.9870  147.9420 C   0  0  0  0  0  0  0  0  0  0  0  0
  160.2010  211.6140  152.6130 C   0  0  0  0  0  0  0  0  0  0  0  0
  160.9470  208.9710  152.8730 C   0  0  0  0  0  0  0  0  0  0  0  0
  160.6970  212.9640  150.2040 C   0  0  0  0  0  0  0  0  0  0  0  0
  161.9400  211.6480  148.0680 C   0  0  0  0  0  3  0  0  0  0  0  0
  161.7950  213.6490  146.7850 F   0  0  0  0  0  0  0  0  0  0  0  0
  161.0780  211.6060  150.3390 C   0  0  0  0  0  0  0  0  0  0  0  0
  160.9400  213.6430  149.0080 C   0  0  0  0  0  3  0  0  0  0  0  0
  161.7000  210.9590  149.2600 C   0  0  0  0  0  3  0  0  0  0  0  0
  161.1850  209.6280  151.7080 N   0  0  0  0  0  0  0  0  0  0  0  0
  160.8290  210.9320  151.5480 C   0  0  0  0  0  0  0  0  0  0  0  0
  159.8290  212.9560  152.4650 C   0  0  0  0  0  3  0  0  0  0  0  0
  159.9650  210.9210  153.8050 C   0  0  0  0  0  0  0  0  0  0  0  0
  160.3430  209.6170  153.9060 N   0  0  0  0  0  0  0  0  0  0  0  0
  160.0760  213.6270  151.2650 C   0  0  0  0  0  3  0  0  0  0  0  0
  161.3550  207.5410  153.0060 C   0  0  1  0  0  3  0  0  0  0  0  0
  160.8370  206.9660  154.3130 C   0  0  0  0  0  1  0  0  0  0  0  0
  160.8470  206.7310  151.8200 C   0  0  0  0  0  2  0  0  0  0  0  0
  161.8050  205.6020  151.4760 C   0  0  1  0  0  3  0  0  0  0  0  0
  163.0780  205.7740  152.2800 C   0  0  0  0  0  1  0  0  0  0  0  0
  161.1650  204.2570  151.8090 C   0  0  0  0  0  2  0  0  0  0  0  0
  161.3350  203.2360  150.6850 C   0  0  1  0  0  3  0  0  0  0  0  0
  160.9330  201.3870  148.7720 C   0  0  0  0  0  2  0  0  0  0  0  0
  161.1140  201.9300  151.1580 O   0  0  0  0  0  0  0  0  0  0  0  0
  160.3980  203.5230  149.4960 C   0  0  2  0  0  3  0  0  0  0  0  0
  159.9000  202.3450  148.8830 O   0  0  0  0  0  0  0  0  0  0  0  0
  161.5400  201.0440  150.1460 C   0  0  0  0  0  2  0  0  0  0  0  0
  160.6060  205.8250  148.4710 C   0  0  0  0  0  3  0  0  0  0  0  0
  160.9880  204.4780  148.5010 C   0  0  0  0  0  0  0  0  0  0  0  0
  163.4640  204.4340  145.7350 N   0  0  0  0  0  1  0  0  0  0  0  0
  162.1080  206.2020  146.6540 N   0  0  0  0  0  0  0  0  0  0  0  0
  162.4950  204.8970  146.6660 C   0  0  0  0  0  0  0  0  0  0  0  0
  161.1840  206.6790  147.5300 C   0  0  0  0  0  3  0  0  0  0  0  0
  161.9400  204.0120  147.5930 C   0  0  0  0  0  3  0  0  0  0  0  0
  159.3430  211.5650  154.8820 O   0  0  0  0  0  0  0  0  0  0  0  0
  155.6340  211.6010  155.1170 C   0  0  0  0  0  2  0  0  0  0  0  0
  155.6420  212.7510  156.1350 C   0  0  1  0  0  0  0  0  0  0  0  0
  155.1290  214.0100  155.4640 C   0  0  0  0  0  1  0  0  0  0  0  0
  157.8700  211.7610  156.8040 C   0  0  0  0  0  2  0  0  0  0  0  0
  156.9820  211.4510  154.4160 C   0  0  0  0  0  2  0  0  0  0  0  0
  158.0990  211.1320  155.4180 C   0  0  1  0  0  3  0  0  0  0  0  0
  154.7880  212.4260  157.1720 F   0  0  0  0  0  0  0  0  0  0  0  0
  157.0370  213.0360  156.7100 C   0  0  0  0  0  2  0  0  0  0  0  0
  1  5  2  0  0  0  0
  1  8  1  0  0  0  0
  2 13  1  0  0  0  0
  3 16  1  0  0  0  0
  3 14  1  0  0  0  0
  4  7  1  0  0  0  0
  4 15  1  0  0  0  0
  5  9  1  0  0  0  0
  6  1  1  0  0  0  0
  7 11  1  0  0  0  0
  8  4  2  0  0  0  0
  9  7  2  0  0  0  0
 10  3  2  0  0  0  0
 11 10  1  0  0  0  0
 11  2  2  0  0  0  0
 12  2  1  0  0  0  0
 13 14  2  0  0  0  0
 13 35  1  0  0  0  0
 15 12  2  0  0  0  0
 16 17  1  1  0  0  0
 18 16  1  0  0  0  0
 19 21  1  0  0  0  0
 19 18  1  0  0  0  0
 19 20  1  1  0  0  0
 22 24  1  0  0  0  0
 22 21  1  1  0  0  0
 23 26  1  0  0  0  0
 23 27  1  0  0  0  0
 25 29  1  6  0  0  0
 25 22  1  0  0  0  0
 26 25  1  0  0  0  0
 27 24  1  0  0  0  0
 28 29  1  0  0  0  0
 30 32  1  0  0  0  0
 31 32  2  0  0  0  0
 31 33  1  0  0  0  0
 32 34  1  0  0  0  0
 33 28  2  0  0  0  0
 34 29  2  0  0  0  0
 36 37  1  0  0  0  0
 37 38  1  6  0  0  0
 37 43  1  0  0  0  0
 37 42  1  0  0  0  0
 40 36  1  0  0  0  0
 40 41  1  0  0  0  0
 41 35  1  6  0  0  0
 41 39  1  0  0  0  0
 43 39  1  0  0  0  0
M  END
>  <MODEL>
6

>  <REMARK>
 VINA RESULT:      -7.3      3.118      9.345
  Name = 
  8 active torsions:
  status: ('A' for Active; 'I' for Inactive)
    1  A    between atoms: O_1  and  C_34
    2  A    between atoms: O_1  and  C_35
    3  A    between atoms: C_2  and  C_6
    4  A    between atoms: C_2  and  C_13
    5  A    between atoms: C_3  and  C_4
    6  A    between atoms: C_3  and  C_12
    7  A    between atoms: C_6  and  C_12
    8  A    between atoms: C_14  and  C_22
                            x       y       z     vdW  Elec       q    Type
                         _______ _______ _______ _____ _____    ______ ____

>  <TORSDO>
F 8

$$$$
=
 OpenBabel11062409583D

 43 48  0  0  1  0  0  0  0  0999 V2000
  160.8150  201.2390  148.2330 C   0  0  0  0  0  0  0  0  0  0  0  0
  161.2940  204.9050  151.6790 C   0  0  0  0  0  0  0  0  0  0  0  0
  161.9770  207.1790  150.2750 C   0  0  0  0  0  0  0  0  0  0  0  0
  160.8830  202.4970  150.3010 C   0  0  0  0  0  0  0  0  0  0  0  0
  161.1610  202.3880  147.5170 C   0  0  0  0  0  3  0  0  0  0  0  0
  160.6140  200.0700  147.5790 F   0  0  0  0  0  0  0  0  0  0  0  0
  161.2350  203.6650  149.5820 C   0  0  0  0  0  0  0  0  0  0  0  0
  160.6760  201.2930  149.6220 C   0  0  0  0  0  3  0  0  0  0  0  0
  161.3710  203.5950  148.1870 C   0  0  0  0  0  3  0  0  0  0  0  0
  161.7780  206.0110  149.6120 N   0  0  0  0  0  0  0  0  0  0  0  0
  161.4400  204.8720  150.2750 C   0  0  0  0  0  0  0  0  0  0  0  0
  160.9470  203.7410  152.3770 C   0  0  0  0  0  3  0  0  0  0  0  0
  161.5040  206.1180  152.3450 C   0  0  0  0  0  0  0  0  0  0  0  0
  161.8400  207.2250  151.6280 N   0  0  0  0  0  0  0  0  0  0  0  0
  160.7430  202.5430  151.6900 C   0  0  0  0  0  3  0  0  0  0  0  0
  162.3450  208.4050  149.5080 C   0  0  1  0  0  3  0  0  0  0  0  0
  162.7830  208.0350  148.1020 C   0  0  0  0  0  1  0  0  0  0  0  0
  161.1750  209.3800  149.4700 C   0  0  0  0  0  2  0  0  0  0  0  0
  161.6020  210.7680  149.9180 C   0  0  1  0  0  3  0  0  0  0  0  0
  162.1770  210.6800  151.3170 C   0  0  0  0  0  1  0  0  0  0  0  0
  162.6560  211.3220  148.9630 C   0  0  0  0  0  2  0  0  0  0  0  0
  162.1950  212.5990  148.2620 C   0  0  1  0  0  3  0  0  0  0  0  0
  161.1130  214.3860  146.5660 C   0  0  0  0  0  2  0  0  0  0  0  0
  162.9220  212.8080  147.0760 O   0  0  0  0  0  0  0  0  0  0  0  0
  160.6870  212.5750  147.9500 C   0  0  2  0  0  3  0  0  0  0  0  0
  160.3650  213.1970  146.7160 O   0  0  0  0  0  0  0  0  0  0  0  0
  162.6290  214.1150  146.6340 C   0  0  0  0  0  2  0  0  0  0  0  0
  160.4260  213.5600  150.2630 C   0  0  0  0  0  3  0  0  0  0  0  0
  159.8450  213.0840  149.0810 C   0  0  0  0  0  0  0  0  0  0  0  0
  156.2500  213.5710  149.8740 N   0  0  0  0  0  1  0  0  0  0  0  0
  158.2520  214.0200  151.1380 N   0  0  0  0  0  0  0  0  0  0  0  0
  157.6660  213.5640  149.9970 C   0  0  0  0  0  0  0  0  0  0  0  0
  159.6030  214.0280  151.2900 C   0  0  0  0  0  3  0  0  0  0  0  0
  158.4560  213.0880  148.9470 C   0  0  0  0  0  3  0  0  0  0  0  0
  161.3700  206.1880  153.7370 O   0  0  0  0  0  0  0  0  0  0  0  0
  160.3430  209.5660  154.8970 C   0  0  0  0  0  2  0  0  0  0  0  0
  161.1020  209.4150  156.2250 C   0  0  1  0  0  0  0  0  0  0  0  0
  162.3170  210.3200  156.2060 C   0  0  0  0  0  1  0  0  0  0  0  0
  160.5910  206.9590  155.9050 C   0  0  0  0  0  2  0  0  0  0  0  0
  160.7710  208.5170  153.8740 C   0  0  0  0  0  2  0  0  0  0  0  0
  160.4830  207.0970  154.3770 C   0  0  1  0  0  3  0  0  0  0  0  0
  160.2710  209.8150  157.2540 F   0  0  0  0  0  0  0  0  0  0  0  0
  161.5670  207.9760  156.4910 C   0  0  0  0  0  2  0  0  0  0  0  0
  1  8  1  0  0  0  0
  2 13  1  0  0  0  0
  2 12  1  0  0  0  0
  3 14  1  0  0  0  0
  4 15  1  0  0  0  0
  5  9  1  0  0  0  0
  5  1  2  0  0  0  0
  6  1  1  0  0  0  0
  7 11  1  0  0  0  0
  7  4  1  0  0  0  0
  8  4  2  0  0  0  0
  9  7  2  0  0  0  0
 10 11  1  0  0  0  0
 10  3  2  0  0  0  0
 11  2  2  0  0  0  0
 13 35  1  0  0  0  0
 14 13  2  0  0  0  0
 15 12  2  0  0  0  0
 16 17  1  6  0  0  0
 16  3  1  0  0  0  0
 18 16  1  0  0  0  0
 18 19  1  0  0  0  0
 19 20  1  1  0  0  0
 21 19  1  0  0  0  0
 22 21  1  6  0  0  0
 23 27  1  0  0  0  0
 23 26  1  0  0  0  0
 24 22  1  0  0  0  0
 25 22  1  0  0  0  0
 25 29  1  1  0  0  0
 26 25  1  0  0  0  0
 27 24  1  0  0  0  0
 28 33  1  0  0  0  0
 29 28  2  0  0  0  0
 30 32  1  0  0  0  0
 31 33  2  0  0  0  0
 32 31  1  0  0  0  0
 34 29  1  0  0  0  0
 34 32  2  0  0  0  0
 36 37  1  0  0  0  0
 37 38  1  6  0  0  0
 37 43  1  0  0  0  0
 37 42  1  0  0  0  0
 39 43  1  0  0  0  0
 40 41  1  0  0  0  0
 40 36  1  0  0  0  0
 41 35  1  6  0  0  0
 41 39  1  0  0  0  0
M  END
>  <MODEL>
7

>  <REMARK>
 VINA RESULT:      -6.8      3.277      5.902
  Name = 
  8 active torsions:
  status: ('A' for Active; 'I' for Inactive)
    1  A    between atoms: O_1  and  C_34
    2  A    between atoms: O_1  and  C_35
    3  A    between atoms: C_2  and  C_6
    4  A    between atoms: C_2  and  C_13
    5  A    between atoms: C_3  and  C_4
    6  A    between atoms: C_3  and  C_12
    7  A    between atoms: C_6  and  C_12
    8  A    between atoms: C_14  and  C_22
                            x       y       z     vdW  Elec       q    Type
                         _______ _______ _______ _____ _____    ______ ____

>  <TORSDO>
F 8

$$$$
=
 OpenBabel11062409583D

 43 48  0  0  1  0  0  0  0  0999 V2000
  161.0630  202.1260  150.3930 C   0  0  0  0  0  0  0  0  0  0  0  0
  161.1770  207.1800  150.3440 C   0  0  0  0  0  0  0  0  0  0  0  0
  160.8540  207.9690  152.9670 C   0  0  0  0  0  0  0  0  0  0  0  0
  161.2010  204.4460  149.7130 C   0  0  0  0  0  0  0  0  0  0  0  0
  160.8980  202.5210  151.7230 C   0  0  0  0  0  3  0  0  0  0  0  0
  161.0760  200.8100  150.0750 F   0  0  0  0  0  0  0  0  0  0  0  0
  161.0340  204.8540  151.0590 C   0  0  0  0  0  0  0  0  0  0  0  0
  161.2140  203.0870  149.3900 C   0  0  0  0  0  3  0  0  0  0  0  0
  160.8830  203.8780  152.0560 C   0  0  0  0  0  3  0  0  0  0  0  0
  160.8650  206.6470  152.6570 N   0  0  0  0  0  0  0  0  0  0  0  0
  161.0230  206.2250  151.3730 C   0  0  0  0  0  0  0  0  0  0  0  0
  161.3410  206.7610  149.0170 C   0  0  0  0  0  3  0  0  0  0  0  0
  161.1630  208.5370  150.6830 C   0  0  0  0  0  0  0  0  0  0  0  0
  161.0020  208.8990  151.9850 N   0  0  0  0  0  0  0  0  0  0  0  0
  161.3520  205.4010  148.7040 C   0  0  0  0  0  3  0  0  0  0  0  0
  160.6800  208.3890  154.3890 C   0  0  1  0  0  3  0  0  0  0  0  0
  161.5960  207.5820  155.2920 C   0  0  0  0  0  1  0  0  0  0  0  0
  160.9490  209.8800  154.5400 C   0  0  0  0  0  2  0  0  0  0  0  0
  159.8710  210.5510  155.3750 C   0  0  1  0  0  3  0  0  0  0  0  0
  160.5280  211.3190  156.5050 C   0  0  0  0  0  1  0  0  0  0  0  0
  159.0610  211.5090  154.5060 C   0  0  0  0  0  2  0  0  0  0  0  0
  157.7550  211.9390  155.1730 C   0  0  1  0  0  3  0  0  0  0  0  0
  155.8770  213.1710  156.6560 C   0  0  0  0  0  2  0  0  0  0  0  0
  157.7510  211.5920  156.5360 O   0  0  0  0  0  0  0  0  0  0  0  0
  157.4980  213.4500  155.0210 C   0  0  2  0  0  3  0  0  0  0  0  0
  156.8870  214.0280  156.1640 O   0  0  0  0  0  0  0  0  0  0  0  0
  156.4360  211.7790  157.0100 C   0  0  0  0  0  2  0  0  0  0  0  0
  155.4040  214.0680  153.7470 C   0  0  0  0  0  3  0  0  0  0  0  0
  156.7780  213.7990  153.7530 C   0  0  0  0  0  0  0  0  0  0  0  0
  157.5520  214.2520  150.1500 N   0  0  0  0  0  1  0  0  0  0  0  0
  155.4950  214.4450  151.3910 N   0  0  0  0  0  0  0  0  0  0  0  0
  156.8320  214.1880  151.3730 C   0  0  0  0  0  0  0  0  0  0  0  0
  154.7750  214.3930  152.5430 C   0  0  0  0  0  3  0  0  0  0  0  0
  157.4970  213.8610  152.5580 C   0  0  0  0  0  3  0  0  0  0  0  0
  161.3120  209.5110  149.6890 O   0  0  0  0  0  0  0  0  0  0  0  0
  161.1420  213.2110  150.0030 C   0  0  0  0  0  2  0  0  0  0  0  0
  161.4290  213.4190  148.5080 C   0  0  1  0  0  0  0  0  0  0  0  0
  160.1660  213.9020  147.8240 C   0  0  0  0  0  1  0  0  0  0  0  0
  162.7170  211.2570  148.7490 C   0  0  0  0  0  2  0  0  0  0  0  0
  160.7470  211.7680  150.3120 C   0  0  0  0  0  2  0  0  0  0  0  0
  161.8720  210.7920  149.9480 C   0  0  1  0  0  3  0  0  0  0  0  0
  162.4000  214.3930  148.3790 F   0  0  0  0  0  0  0  0  0  0  0  0
  161.9080  212.1420  147.8040 C   0  0  0  0  0  2  0  0  0  0  0  0
  1  5  1  0  0  0  0
  2 13  1  0  0  0  0
  2 11  1  0  0  0  0
  3 16  1  0  0  0  0
  4  7  1  0  0  0  0
  5  9  2  0  0  0  0
  6  1  1  0  0  0  0
  7 11  2  0  0  0  0
  7  9  1  0  0  0  0
  8  4  1  0  0  0  0
  8  1  2  0  0  0  0
 10  3  2  0  0  0  0
 11 10  1  0  0  0  0
 12  2  2  0  0  0  0
 13 14  2  0  0  0  0
 14  3  1  0  0  0  0
 15 12  1  0  0  0  0
 15  4  2  0  0  0  0
 16 18  1  0  0  0  0
 16 17  1  1  0  0  0
 18 19  1  0  0  0  0
 19 20  1  1  0  0  0
 21 19  1  0  0  0  0
 22 21  1  1  0  0  0
 22 24  1  0  0  0  0
 23 27  1  0  0  0  0
 24 27  1  0  0  0  0
 25 29  1  6  0  0  0
 25 22  1  0  0  0  0
 25 26  1  0  0  0  0
 26 23  1  0  0  0  0
 28 29  1  0  0  0  0
 30 32  1  0  0  0  0
 31 33  1  0  0  0  0
 32 31  2  0  0  0  0
 32 34  1  0  0  0  0
 33 28  2  0  0  0  0
 34 29  2  0  0  0  0
 35 13  1  0  0  0  0
 36 40  1  0  0  0  0
 37 38  1  6  0  0  0
 37 36  1  0  0  0  0
 39 41  1  0  0  0  0
 41 35  1  6  0  0  0
 41 40  1  0  0  0  0
 42 37  1  0  0  0  0
 43 37  1  0  0  0  0
 43 39  1  0  0  0  0
M  END
>  <MODEL>
8

>  <REMARK>
 VINA RESULT:      -6.8      2.338      3.230
  Name = 
  8 active torsions:
  status: ('A' for Active; 'I' for Inactive)
    1  A    between atoms: O_1  and  C_34
    2  A    between atoms: O_1  and  C_35
    3  A    between atoms: C_2  and  C_6
    4  A    between atoms: C_2  and  C_13
    5  A    between atoms: C_3  and  C_4
    6  A    between atoms: C_3  and  C_12
    7  A    between atoms: C_6  and  C_12
    8  A    between atoms: C_14  and  C_22
                            x       y       z     vdW  Elec       q    Type
                         _______ _______ _______ _____ _____    ______ ____

>  <TORSDO>
F 8

$$$$
=
 OpenBabel11062409583D

 43 48  0  0  1  0  0  0  0  0999 V2000
  160.9460  213.6580  147.3430 C   0  0  0  0  0  0  0  0  0  0  0  0
  160.3550  212.2860  152.1720 C   0  0  0  0  0  0  0  0  0  0  0  0
  161.1060  209.6350  152.3030 C   0  0  0  0  0  0  0  0  0  0  0  0
  160.4640  213.6370  149.7160 C   0  0  0  0  0  0  0  0  0  0  0  0
  161.3270  212.3140  147.4040 C   0  0  0  0  0  3  0  0  0  0  0  0
  160.9950  214.3210  146.1630 F   0  0  0  0  0  0  0  0  0  0  0  0
  160.8480  212.2760  149.7850 C   0  0  0  0  0  0  0  0  0  0  0  0
  160.5160  214.3180  148.4970 C   0  0  0  0  0  3  0  0  0  0  0  0
  161.2790  211.6250  148.6180 C   0  0  0  0  0  3  0  0  0  0  0  0
  161.1570  210.2920  151.1160 N   0  0  0  0  0  0  0  0  0  0  0  0
  160.7930  211.6000  151.0180 C   0  0  0  0  0  0  0  0  0  0  0  0
  159.9780  213.6330  152.0880 C   0  0  0  0  0  3  0  0  0  0  0  0
  160.3100  211.5920  153.3860 C   0  0  0  0  0  0  0  0  0  0  0  0
  160.6860  210.2840  153.4220 N   0  0  0  0  0  0  0  0  0  0  0  0
  160.0330  214.3040  150.8650 C   0  0  0  0  0  3  0  0  0  0  0  0
  161.5150  208.2010  152.3660 C   0  0  1  0  0  3  0  0  0  0  0  0
  161.3480  207.6680  153.7780 C   0  0  0  0  0  1  0  0  0  0  0  0
  160.7040  207.3730  151.3770 C   0  0  0  0  0  2  0  0  0  0  0  0
  161.5580  206.2900  150.7390 C   0  0  1  0  0  3  0  0  0  0  0  0
  162.3430  205.5770  151.8220 C   0  0  0  0  0  1  0  0  0  0  0  0
  160.6690  205.2890  150.0070 C   0  0  0  0  0  2  0  0  0  0  0  0
  160.8210  205.3740  148.4890 C   0  0  1  0  0  3  0  0  0  0  0  0
  161.7630  205.6570  145.9840 C   0  0  0  0  0  2  0  0  0  0  0  0
  161.0350  206.7020  148.0810 O   0  0  0  0  0  0  0  0  0  0  0  0
  161.9660  204.4820  147.9720 C   0  0  2  0  0  3  0  0  0  0  0  0
  162.6720  205.0570  146.8840 O   0  0  0  0  0  0  0  0  0  0  0  0
  160.9050  206.7340  146.6770 C   0  0  0  0  0  2  0  0  0  0  0  0
  161.6270  202.0740  148.6640 C   0  0  0  0  0  3  0  0  0  0  0  0
  161.5320  203.0750  147.6890 C   0  0  0  0  0  0  0  0  0  0  0  0
  160.0820  201.1230  144.8830 N   0  0  0  0  0  1  0  0  0  0  0  0
  160.7100  200.4960  147.1230 N   0  0  0  0  0  0  0  0  0  0  0  0
  160.6060  201.4540  146.1610 C   0  0  0  0  0  0  0  0  0  0  0  0
  161.2070  200.7780  148.3570 C   0  0  0  0  0  3  0  0  0  0  0  0
  161.0160  202.7620  146.4300 C   0  0  0  0  0  3  0  0  0  0  0  0
  159.8800  212.2390  154.5500 O   0  0  0  0  0  0  0  0  0  0  0  0
  156.2020  211.7130  154.6310 C   0  0  0  0  0  2  0  0  0  0  0  0
  155.9270  213.1990  154.9100 C   0  0  1  0  0  0  0  0  0  0  0  0
  155.3230  213.8320  153.6730 C   0  0  0  0  0  1  0  0  0  0  0  0
  158.1790  213.1030  156.0550 C   0  0  0  0  0  2  0  0  0  0  0  0
  157.6300  211.4790  154.1450 C   0  0  0  0  0  2  0  0  0  0  0  0
  158.6560  211.9170  155.1980 C   0  0  1  0  0  3  0  0  0  0  0  0
  155.0130  213.2890  155.9430 F   0  0  0  0  0  0  0  0  0  0  0  0
  157.1900  213.9820  155.2950 C   0  0  0  0  0  2  0  0  0  0  0  0
  1  5  2  0  0  0  0
  1  8  1  0  0  0  0
  2 13  1  0  0  0  0
  3 16  1  0  0  0  0
  3 14  1  0  0  0  0
  4  7  1  0  0  0  0
  4 15  1  0  0  0  0
  5  9  1  0  0  0  0
  6  1  1  0  0  0  0
  7 11  1  0  0  0  0
  8  4  2  0  0  0  0
  9  7  2  0  0  0  0
 10  3  2  0  0  0  0
 11 10  1  0  0  0  0
 11  2  2  0  0  0  0
 12  2  1  0  0  0  0
 13 14  2  0  0  0  0
 13 35  1  0  0  0  0
 15 12  2  0  0  0  0
 16 17  1  1  0  0  0
 18 16  1  0  0  0  0
 19 18  1  0  0  0  0
 19 20  1  1  0  0  0
 21 19  1  0  0  0  0
 22 21  1  1  0  0  0
 23 27  1  0  0  0  0
 23 26  1  0  0  0  0
 24 22  1  0  0  0  0
 25 29  1  6  0  0  0
 25 22  1  0  0  0  0
 26 25  1  0  0  0  0
 27 24  1  0  0  0  0
 29 28  2  0  0  0  0
 30 32  1  0  0  0  0
 31 33  2  0  0  0  0
 32 34  2  0  0  0  0
 32 31  1  0  0  0  0
 33 28  1  0  0  0  0
 34 29  1  0  0  0  0
 36 37  1  0  0  0  0
 37 38  1  6  0  0  0
 37 43  1  0  0  0  0
 37 42  1  0  0  0  0
 40 36  1  0  0  0  0
 40 41  1  0  0  0  0
 41 35  1  6  0  0  0
 41 39  1  0  0  0  0
 43 39  1  0  0  0  0
M  END
>  <MODEL>
9

>  <REMARK>
 VINA RESULT:      -6.5      2.950      9.539
  Name = 
  8 active torsions:
  status: ('A' for Active; 'I' for Inactive)
    1  A    between atoms: O_1  and  C_34
    2  A    between atoms: O_1  and  C_35
    3  A    between atoms: C_2  and  C_6
    4  A    between atoms: C_2  and  C_13
    5  A    between atoms: C_3  and  C_4
    6  A    between atoms: C_3  and  C_12
    7  A    between atoms: C_6  and  C_12
    8  A    between atoms: C_14  and  C_22
                            x       y       z     vdW  Elec       q    Type
                         _______ _______ _______ _____ _____    ______ ____

>  <TORSDO>
F 8

$$$$
