=
 OpenBabel11062410233D

 43 49  0  0  1  0  0  0  0  0999 V2000
  161.0690  201.4330  148.8340 C   0  0  0  0  0  0  0  0  0  0  0  0
  161.2240  205.6640  151.6010 C   0  0  0  0  0  0  0  0  0  0  0  0
  161.4480  207.7340  149.7880 C   0  0  0  0  0  0  0  0  0  0  0  0
  161.1030  203.0200  150.6640 C   0  0  0  0  0  0  0  0  0  0  0  0
  161.1930  202.4790  147.9180 C   0  0  0  0  0  3  0  0  0  0  0  0
  160.9840  200.1540  148.3930 F   0  0  0  0  0  0  0  0  0  0  0  0
  161.2330  204.0860  149.7400 C   0  0  0  0  0  0  0  0  0  0  0  0
  161.0240  201.7010  150.2050 C   0  0  0  0  0  3  0  0  0  0  0  0
  161.2760  203.8000  148.3680 C   0  0  0  0  0  3  0  0  0  0  0  0
  161.4110  206.4500  149.3460 N   0  0  0  0  0  0  0  0  0  0  0  0
  161.3020  205.4080  150.2130 C   0  0  0  0  0  0  0  0  0  0  0  0
  161.1020  204.5960  152.5010 C   0  0  0  0  0  3  0  0  0  0  0  0
  161.2620  206.9990  152.0350 C   0  0  0  0  0  0  0  0  0  0  0  0
  161.3620  207.9980  151.1180 N   0  0  0  0  0  0  0  0  0  0  0  0
  161.0440  203.2820  152.0350 C   0  0  0  0  0  3  0  0  0  0  0  0
  161.1160  207.3610  153.4800 C   0  0  0  0  0  2  0  0  0  0  0  0
  160.5400  210.7960  154.9760 C   0  0  0  0  0  3  0  0  0  0  0  0
  159.9620  211.4740  153.8950 C   0  0  0  0  0  0  0  0  0  0  0  0
  160.1660  209.4810  152.5340 C   0  0  0  0  0  3  0  0  0  0  0  0
  160.9220  209.4580  154.8360 C   0  0  0  0  0  3  0  0  0  0  0  0
  160.7380  208.7990  153.6170 C   0  0  0  0  0  0  0  0  0  0  0  0
  159.7780  210.8160  152.6720 C   0  0  0  0  0  3  0  0  0  0  0  0
  158.5860  213.0280  155.0200 O   0  0  0  0  0  1  0  0  0  0  0  0
  159.5730  212.9050  154.0390 C   0  0  0  0  0  2  0  0  0  0  0  0
  161.4870  208.8540  148.8040 C   0  0  0  0  0  2  0  0  0  0  0  0
  162.1060  210.1070  149.4170 C   0  0  0  0  0  2  0  0  0  0  0  0
  162.1830  211.1790  148.4320 N   0  0  0  0  0  2  0  0  0  0  0  0
  161.4620  212.4070  148.5620 C   0  0  0  0  0  0  0  0  0  0  0  0
  160.8530  212.7000  149.6690 N   0  0  0  0  0  2  0  0  0  0  0  0
  161.5140  213.3990  147.4380 C   0  0  1  0  0  3  0  0  0  0  0  0
  162.6960  213.2450  146.6900 O   0  0  0  0  0  0  0  0  0  0  0  0
  160.3720  214.3830  145.3260 C   0  0  0  0  0  2  0  0  0  0  0  0
  158.9290  212.9990  147.0500 C   0  0  2  0  0  3  0  0  0  0  0  0
  162.8260  214.4010  145.8920 C   0  0  0  0  0  2  0  0  0  0  0  0
  160.2870  213.4090  146.4980 C   0  0  2  0  0  0  0  0  0  0  0  0
  159.7060  212.0640  146.1210 C   0  0  0  0  0  2  0  0  0  0  0  0
  161.7940  214.3810  144.7570 C   0  0  0  0  0  2  0  0  0  0  0  0
  157.8850  213.6050  146.3440 O   0  0  0  0  0  0  0  0  0  0  0  0
  157.2730  214.4370  147.2810 C   0  0  0  0  0  2  0  0  0  0  0  0
  156.9630  213.6520  148.5400 C   0  0  0  0  0  2  0  0  0  0  0  0
  157.6090  213.5190  150.9230 C   0  0  0  0  0  2  0  0  0  0  0  0
  157.4020  214.4530  149.7490 C   0  0  0  0  0  3  0  0  0  0  0  0
  156.3460  214.3450  150.8280 C   0  0  0  0  0  2  0  0  0  0  0  0
  1  8  1  0  0  0  0
  2 13  1  0  0  0  0
  2 12  1  0  0  0  0
  3 14  1  0  0  0  0
  4 15  1  0  0  0  0
  5  9  1  0  0  0  0
  5  1  2  0  0  0  0
  6  1  1  0  0  0  0
  7 11  1  0  0  0  0
  7  4  1  0  0  0  0
  8  4  2  0  0  0  0
  9  7  2  0  0  0  0
 10  3  2  0  0  0  0
 10 11  1  0  0  0  0
 11  2  2  0  0  0  0
 13 16  1  0  0  0  0
 14 13  2  0  0  0  0
 15 12  2  0  0  0  0
 16 21  1  0  0  0  0
 18 24  1  0  0  0  0
 18 17  2  0  0  0  0
 19 22  2  0  0  0  0
 19 21  1  0  0  0  0
 20 17  1  0  0  0  0
 21 20  2  0  0  0  0
 22 18  1  0  0  0  0
 24 23  1  0  0  0  0
 25 26  1  0  0  0  0
 25  3  1  0  0  0  0
 27 28  1  0  0  0  0
 27 26  1  0  0  0  0
 28 29  2  0  0  0  0
 30 28  1  1  0  0  0
 31 30  1  0  0  0  0
 33 38  1  6  0  0  0
 34 31  1  0  0  0  0
 35 32  1  6  0  0  0
 35 33  1  0  0  0  0
 35 30  1  0  0  0  0
 36 35  1  0  0  0  0
 36 33  1  0  0  0  0
 37 32  1  0  0  0  0
 37 34  1  0  0  0  0
 38 39  1  0  0  0  0
 39 40  1  0  0  0  0
 40 42  1  0  0  0  0
 42 43  1  0  0  0  0
 42 41  1  0  0  0  0
 43 41  1  0  0  0  0
M  END
>  <MODEL>
1

>  <REMARK>
 VINA RESULT:      -9.2      0.000      0.000
  Name = 
  11 active torsions:
  status: ('A' for Active; 'I' for Inactive)
    1  A    between atoms: C_1  and  C_34
    2  A    between atoms: C_1  and  C_35
    3  A    between atoms: C_2  and  N_6
    4  A    between atoms: C_2  and  C_7
    5  A    between atoms: C_3  and  C_12
    6  A    between atoms: C_7  and  C_13
    7  A    between atoms: O_11  and  C_14
    8  A    between atoms: O_11  and  C_36
    9  A    between atoms: C_19  and  C_37
   10  A    between atoms: C_29  and  C_31
   11  A    between atoms: C_29  and  C_36
                            x       y       z     vdW  Elec       q    Type
                         _______ _______ _______ _____ _____    ______ ____

>  <TORSDO>
F 11

$$$$
=
 OpenBabel11062410233D

 43 49  0  0  1  0  0  0  0  0999 V2000
  160.2120  207.4100  156.1830 C   0  0  0  0  0  0  0  0  0  0  0  0
  160.1580  211.2590  152.9020 C   0  0  0  0  0  0  0  0  0  0  0  0
  161.4580  210.3370  150.6480 C   0  0  0  0  0  0  0  0  0  0  0  0
  159.8720  209.5600  155.1190 C   0  0  0  0  0  0  0  0  0  0  0  0
  160.8800  206.9480  155.0470 C   0  0  0  0  0  3  0  0  0  0  0  0
  160.0460  206.5900  157.2500 F   0  0  0  0  0  0  0  0  0  0  0  0
  160.5510  209.0980  153.9640 C   0  0  0  0  0  0  0  0  0  0  0  0
  159.7090  208.7130  156.2200 C   0  0  0  0  0  3  0  0  0  0  0  0
  161.0500  207.7870  153.9420 C   0  0  0  0  0  3  0  0  0  0  0  0
  161.3340  209.5300  151.7330 N   0  0  0  0  0  0  0  0  0  0  0  0
  160.7000  209.9540  152.8590 C   0  0  0  0  0  0  0  0  0  0  0  0
  159.4950  211.7010  154.0560 C   0  0  0  0  0  3  0  0  0  0  0  0
  160.2960  212.0740  151.7680 C   0  0  0  0  0  0  0  0  0  0  0  0
  160.9330  211.5890  150.6680 N   0  0  0  0  0  0  0  0  0  0  0  0
  159.3550  210.8560  155.1580 C   0  0  0  0  0  3  0  0  0  0  0  0
  159.6920  213.4430  151.7040 C   0  0  0  0  0  2  0  0  0  0  0  0
  159.0750  214.4390  148.1000 C   0  0  0  0  0  3  0  0  0  0  0  0
  157.7240  214.0990  147.9460 C   0  0  0  0  0  0  0  0  0  0  0  0
  157.6650  213.3020  150.2320 C   0  0  0  0  0  3  0  0  0  0  0  0
  159.7160  214.2170  149.3220 C   0  0  0  0  0  3  0  0  0  0  0  0
  159.0140  213.6480  150.3890 C   0  0  0  0  0  0  0  0  0  0  0  0
  157.0200  213.5270  149.0140 C   0  0  0  0  0  3  0  0  0  0  0  0
  157.4570  213.3410  145.7270 O   0  0  0  0  0  1  0  0  0  0  0  0
  157.0480  214.3180  146.6370 C   0  0  0  0  0  2  0  0  0  0  0  0
  162.0880  209.8110  149.4030 C   0  0  0  0  0  2  0  0  0  0  0  0
  162.3600  208.3120  149.5120 C   0  0  0  0  0  2  0  0  0  0  0  0
  161.9310  207.6220  148.3020 N   0  0  0  0  0  2  0  0  0  0  0  0
  160.9060  206.6240  148.3000 C   0  0  0  0  0  0  0  0  0  0  0  0
  160.1740  206.4270  149.3520 N   0  0  0  0  0  2  0  0  0  0  0  0
  160.6190  205.8850  147.0260 C   0  0  1  0  0  3  0  0  0  0  0  0
  160.9720  206.6620  145.9080 O   0  0  0  0  0  0  0  0  0  0  0  0
  160.9920  203.7540  145.5940 C   0  0  0  0  0  2  0  0  0  0  0  0
  161.4940  203.6740  148.1840 C   0  0  2  0  0  3  0  0  0  0  0  0
  160.3700  206.0560  144.7840 C   0  0  0  0  0  2  0  0  0  0  0  0
  161.2440  204.4760  146.9140 C   0  0  2  0  0  0  0  0  0  0  0  0
  162.6580  204.3160  147.4260 C   0  0  0  0  0  2  0  0  0  0  0  0
  161.0930  204.7500  144.4350 C   0  0  0  0  0  2  0  0  0  0  0  0
  161.4680  202.2990  147.9350 O   0  0  0  0  0  0  0  0  0  0  0  0
  160.8070  201.7610  149.0390 C   0  0  0  0  0  2  0  0  0  0  0  0
  160.4280  202.8690  150.0020 C   0  0  0  0  0  2  0  0  0  0  0  0
  160.6300  203.6090  152.3520 C   0  0  0  0  0  2  0  0  0  0  0  0
  161.2100  202.7010  151.2890 C   0  0  0  0  0  3  0  0  0  0  0  0
  161.8980  204.0070  151.6280 C   0  0  0  0  0  2  0  0  0  0  0  0
  1  8  1  0  0  0  0
  1  6  1  0  0  0  0
  2 12  1  0  0  0  0
  3 14  1  0  0  0  0
  3 10  2  0  0  0  0
  4 15  1  0  0  0  0
  4  8  2  0  0  0  0
  5  1  2  0  0  0  0
  7  4  1  0  0  0  0
  9  7  2  0  0  0  0
  9  5  1  0  0  0  0
 10 11  1  0  0  0  0
 11  2  2  0  0  0  0
 11  7  1  0  0  0  0
 12 15  2  0  0  0  0
 13  2  1  0  0  0  0
 14 13  2  0  0  0  0
 16 13  1  0  0  0  0
 17 20  1  0  0  0  0
 18 17  2  0  0  0  0
 18 22  1  0  0  0  0
 19 21  1  0  0  0  0
 20 21  2  0  0  0  0
 21 16  1  0  0  0  0
 22 19  2  0  0  0  0
 23 24  1  0  0  0  0
 24 18  1  0  0  0  0
 25 26  1  0  0  0  0
 25  3  1  0  0  0  0
 27 26  1  0  0  0  0
 28 27  1  0  0  0  0
 28 29  2  0  0  0  0
 30 28  1  1  0  0  0
 31 30  1  0  0  0  0
 33 38  1  6  0  0  0
 34 31  1  0  0  0  0
 35 32  1  6  0  0  0
 35 30  1  0  0  0  0
 35 36  1  0  0  0  0
 35 33  1  0  0  0  0
 36 33  1  0  0  0  0
 37 34  1  0  0  0  0
 37 32  1  0  0  0  0
 38 39  1  0  0  0  0
 39 40  1  0  0  0  0
 40 42  1  0  0  0  0
 42 43  1  0  0  0  0
 42 41  1  0  0  0  0
 43 41  1  0  0  0  0
M  END
>  <MODEL>
2

>  <REMARK>
 VINA RESULT:      -8.9      3.065      8.071
  Name = 
  11 active torsions:
  status: ('A' for Active; 'I' for Inactive)
    1  A    between atoms: C_1  and  C_34
    2  A    between atoms: C_1  and  C_35
    3  A    between atoms: C_2  and  N_6
    4  A    between atoms: C_2  and  C_7
    5  A    between atoms: C_3  and  C_12
    6  A    between atoms: C_7  and  C_13
    7  A    between atoms: O_11  and  C_14
    8  A    between atoms: O_11  and  C_36
    9  A    between atoms: C_19  and  C_37
   10  A    between atoms: C_29  and  C_31
   11  A    between atoms: C_29  and  C_36
                            x       y       z     vdW  Elec       q    Type
                         _______ _______ _______ _____ _____    ______ ____

>  <TORSDO>
F 11

$$$$
=
 OpenBabel11062410233D

 43 49  0  0  1  0  0  0  0  0999 V2000
  160.1100  207.5970  155.8720 C   0  0  0  0  0  0  0  0  0  0  0  0
  161.1910  210.4070  151.8080 C   0  0  0  0  0  0  0  0  0  0  0  0
  162.0140  208.6260  149.8660 C   0  0  0  0  0  0  0  0  0  0  0  0
  160.4550  209.4410  154.3400 C   0  0  0  0  0  0  0  0  0  0  0  0
  160.5370  206.6970  154.8940 C   0  0  0  0  0  3  0  0  0  0  0  0
  159.7280  207.1400  157.0900 F   0  0  0  0  0  0  0  0  0  0  0  0
  160.8920  208.5340  153.3430 C   0  0  0  0  0  0  0  0  0  0  0  0
  160.0680  208.9670  155.5980 C   0  0  0  0  0  3  0  0  0  0  0  0
  160.9280  207.1620  153.6340 C   0  0  0  0  0  3  0  0  0  0  0  0
  161.6770  208.1700  151.1010 N   0  0  0  0  0  0  0  0  0  0  0  0
  161.2680  209.0210  152.0790 C   0  0  0  0  0  0  0  0  0  0  0  0
  160.7620  211.2900  152.8080 C   0  0  0  0  0  3  0  0  0  0  0  0
  161.5430  210.8540  150.5250 C   0  0  0  0  0  0  0  0  0  0  0  0
  161.9340  209.9520  149.5850 N   0  0  0  0  0  0  0  0  0  0  0  0
  160.3980  210.8100  154.0670 C   0  0  0  0  0  3  0  0  0  0  0  0
  161.4230  212.2940  150.1330 C   0  0  0  0  0  2  0  0  0  0  0  0
  162.7320  212.9070  146.6290 C   0  0  0  0  0  3  0  0  0  0  0  0
  161.5640  212.7620  145.8690 C   0  0  0  0  0  0  0  0  0  0  0  0
  160.3110  212.2790  147.8840 C   0  0  0  0  0  3  0  0  0  0  0  0
  162.6850  212.7470  148.0170 C   0  0  0  0  0  3  0  0  0  0  0  0
  161.4770  212.4320  148.6470 C   0  0  0  0  0  0  0  0  0  0  0  0
  160.3530  212.4440  146.4980 C   0  0  0  0  0  3  0  0  0  0  0  0
  162.9140  213.2630  143.9980 O   0  0  0  0  0  1  0  0  0  0  0  0
  161.6190  212.9130  144.3880 C   0  0  0  0  0  2  0  0  0  0  0  0
  162.3800  207.6550  148.7950 C   0  0  0  0  0  2  0  0  0  0  0  0
  161.4570  207.7890  147.5870 C   0  0  0  0  0  2  0  0  0  0  0  0
  160.8400  206.5100  147.2630 N   0  0  0  0  0  2  0  0  0  0  0  0
  161.3250  205.6550  146.2240 C   0  0  0  0  0  0  0  0  0  0  0  0
  162.4600  205.8960  145.6470 N   0  0  0  0  0  2  0  0  0  0  0  0
  160.5510  204.4140  145.8880 C   0  0  1  0  0  3  0  0  0  0  0  0
  160.5660  204.1760  144.5010 O   0  0  0  0  0  0  0  0  0  0  0  0
  160.2140  201.8700  146.2640 C   0  0  0  0  0  2  0  0  0  0  0  0
  161.5670  203.2710  148.0450 C   0  0  2  0  0  3  0  0  0  0  0  0
  159.5620  203.2200  144.2410 C   0  0  0  0  0  2  0  0  0  0  0  0
  160.9690  203.1380  146.6510 C   0  0  2  0  0  0  0  0  0  0  0  0
  162.4530  202.9160  146.8480 C   0  0  0  0  0  2  0  0  0  0  0  0
  160.0000  201.8400  144.7480 C   0  0  0  0  0  2  0  0  0  0  0  0
  161.3330  202.1280  148.8140 O   0  0  0  0  0  0  0  0  0  0  0  0
  160.4270  202.5480  149.7880 C   0  0  0  0  0  2  0  0  0  0  0  0
  161.0720  202.4720  151.1580 C   0  0  0  0  0  2  0  0  0  0  0  0
  160.8170  204.9180  150.9010 C   0  0  0  0  0  2  0  0  0  0  0  0
  160.8340  203.7750  151.8940 C   0  0  0  0  0  3  0  0  0  0  0  0
  162.0510  204.6630  151.7400 C   0  0  0  0  0  2  0  0  0  0  0  0
  1  6  1  0  0  0  0
  2 11  2  0  0  0  0
  2 12  1  0  0  0  0
  3 10  2  0  0  0  0
  4  8  2  0  0  0  0
  5  1  2  0  0  0  0
  7  9  2  0  0  0  0
  7  4  1  0  0  0  0
  8  1  1  0  0  0  0
  9  5  1  0  0  0  0
 10 11  1  0  0  0  0
 11  7  1  0  0  0  0
 12 15  2  0  0  0  0
 13  2  1  0  0  0  0
 14  3  1  0  0  0  0
 14 13  2  0  0  0  0
 15  4  1  0  0  0  0
 16 13  1  0  0  0  0
 17 20  1  0  0  0  0
 18 22  1  0  0  0  0
 18 17  2  0  0  0  0
 19 21  1  0  0  0  0
 20 21  2  0  0  0  0
 21 16  1  0  0  0  0
 22 19  2  0  0  0  0
 23 24  1  0  0  0  0
 24 18  1  0  0  0  0
 25  3  1  0  0  0  0
 26 25  1  0  0  0  0
 27 26  1  0  0  0  0
 28 27  1  0  0  0  0
 29 28  2  0  0  0  0
 30 28  1  6  0  0  0
 30 35  1  0  0  0  0
 31 30  1  0  0  0  0
 33 38  1  1  0  0  0
 34 31  1  0  0  0  0
 34 37  1  0  0  0  0
 35 32  1  6  0  0  0
 35 36  1  0  0  0  0
 35 33  1  0  0  0  0
 36 33  1  0  0  0  0
 37 32  1  0  0  0  0
 38 39  1  0  0  0  0
 39 40  1  0  0  0  0
 40 42  1  0  0  0  0
 41 43  1  0  0  0  0
 41 42  1  0  0  0  0
 43 42  1  0  0  0  0
M  END
>  <MODEL>
3

>  <REMARK>
 VINA RESULT:      -8.1      3.318      8.546
  Name = 
  11 active torsions:
  status: ('A' for Active; 'I' for Inactive)
    1  A    between atoms: C_1  and  C_34
    2  A    between atoms: C_1  and  C_35
    3  A    between atoms: C_2  and  N_6
    4  A    between atoms: C_2  and  C_7
    5  A    between atoms: C_3  and  C_12
    6  A    between atoms: C_7  and  C_13
    7  A    between atoms: O_11  and  C_14
    8  A    between atoms: O_11  and  C_36
    9  A    between atoms: C_19  and  C_37
   10  A    between atoms: C_29  and  C_31
   11  A    between atoms: C_29  and  C_36
                            x       y       z     vdW  Elec       q    Type
                         _______ _______ _______ _____ _____    ______ ____

>  <TORSDO>
F 11

$$$$
=
 OpenBabel11062410233D

 43 49  0  0  1  0  0  0  0  0999 V2000
  161.1060  200.8870  146.4970 C   0  0  0  0  0  0  0  0  0  0  0  0
  161.1610  204.0320  150.4560 C   0  0  0  0  0  0  0  0  0  0  0  0
  161.2330  206.5770  149.3880 C   0  0  0  0  0  0  0  0  0  0  0  0
  161.1290  201.8160  148.7340 C   0  0  0  0  0  0  0  0  0  0  0  0
  161.1540  202.1730  145.9570 C   0  0  0  0  0  3  0  0  0  0  0  0
  161.0650  199.8100  145.6750 F   0  0  0  0  0  0  0  0  0  0  0  0
  161.1810  203.1240  148.1930 C   0  0  0  0  0  0  0  0  0  0  0  0
  161.0940  200.7070  147.8830 C   0  0  0  0  0  3  0  0  0  0  0  0
  161.1930  203.2880  146.7990 C   0  0  0  0  0  3  0  0  0  0  0  0
  161.2400  205.4980  148.5630 N   0  0  0  0  0  0  0  0  0  0  0  0
  161.2060  204.2320  149.0580 C   0  0  0  0  0  0  0  0  0  0  0  0
  161.1170  202.7310  150.9750 C   0  0  0  0  0  3  0  0  0  0  0  0
  161.1540  205.1630  151.2890 C   0  0  0  0  0  0  0  0  0  0  0  0
  161.1790  206.4040  150.7340 N   0  0  0  0  0  0  0  0  0  0  0  0
  161.1030  201.6300  150.1180 C   0  0  0  0  0  3  0  0  0  0  0  0
  161.0380  205.0430  152.7780 C   0  0  0  0  0  2  0  0  0  0  0  0
  161.0350  208.8100  153.1960 C   0  0  0  0  0  3  0  0  0  0  0  0
  160.8180  208.9350  154.5750 C   0  0  0  0  0  0  0  0  0  0  0  0
  160.7130  206.5240  154.7770 C   0  0  0  0  0  3  0  0  0  0  0  0
  161.0990  207.5420  152.6120 C   0  0  0  0  0  3  0  0  0  0  0  0
  160.9360  206.3970  153.3990 C   0  0  0  0  0  0  0  0  0  0  0  0
  160.6540  207.7900  155.3650 C   0  0  0  0  0  3  0  0  0  0  0  0
  161.4730  211.1990  154.4370 O   0  0  0  0  0  1  0  0  0  0  0  0
  160.7310  210.2870  155.1920 C   0  0  0  0  0  2  0  0  0  0  0  0
  161.1900  207.9500  148.8080 C   0  0  0  0  0  2  0  0  0  0  0  0
  162.4630  208.7280  149.1320 C   0  0  0  0  0  2  0  0  0  0  0  0
  162.4440  210.0380  148.4950 N   0  0  0  0  0  2  0  0  0  0  0  0
  162.0470  211.2290  149.1810 C   0  0  0  0  0  0  0  0  0  0  0  0
  161.8700  211.2220  150.4650 N   0  0  0  0  0  2  0  0  0  0  0  0
  161.9450  212.5100  148.4070 C   0  0  1  0  0  3  0  0  0  0  0  0
  162.4380  212.3450  147.1000 O   0  0  0  0  0  0  0  0  0  0  0  0
  160.4370  214.4320  147.5340 C   0  0  0  0  0  2  0  0  0  0  0  0
  159.5890  212.9310  149.5330 C   0  0  2  0  0  3  0  0  0  0  0  0
  162.6220  213.6370  146.5660 C   0  0  0  0  0  2  0  0  0  0  0  0
  160.5430  213.1590  148.3680 C   0  0  2  0  0  0  0  0  0  0  0  0
  159.3650  212.2260  148.1930 C   0  0  0  0  0  2  0  0  0  0  0  0
  161.2650  214.2800  146.2540 C   0  0  0  0  0  2  0  0  0  0  0  0
  158.6850  213.9870  149.6680 O   0  0  0  0  0  0  0  0  0  0  0  0
  158.8610  214.4260  150.9810 C   0  0  0  0  0  2  0  0  0  0  0  0
  157.8580  213.7440  151.8900 C   0  0  0  0  0  2  0  0  0  0  0  0
  158.5120  211.5170  152.7410 C   0  0  0  0  0  2  0  0  0  0  0  0
  158.5990  213.0080  152.9880 C   0  0  0  0  0  3  0  0  0  0  0  0
  157.6160  212.1660  153.7740 C   0  0  0  0  0  2  0  0  0  0  0  0
  1  8  1  0  0  0  0
  2 12  1  0  0  0  0
  2 13  1  0  0  0  0
  3 14  1  0  0  0  0
  4 15  1  0  0  0  0
  5  1  2  0  0  0  0
  5  9  1  0  0  0  0
  6  1  1  0  0  0  0
  7  4  1  0  0  0  0
  7 11  1  0  0  0  0
  8  4  2  0  0  0  0
  9  7  2  0  0  0  0
 10 11  1  0  0  0  0
 10  3  2  0  0  0  0
 11  2  2  0  0  0  0
 13 16  1  0  0  0  0
 14 13  2  0  0  0  0
 15 12  2  0  0  0  0
 16 21  1  0  0  0  0
 17 18  1  0  0  0  0
 18 24  1  0  0  0  0
 18 22  2  0  0  0  0
 19 22  1  0  0  0  0
 20 17  2  0  0  0  0
 20 21  1  0  0  0  0
 21 19  2  0  0  0  0
 23 24  1  0  0  0  0
 25 26  1  0  0  0  0
 25  3  1  0  0  0  0
 27 26  1  0  0  0  0
 27 28  1  0  0  0  0
 28 29  2  0  0  0  0
 30 28  1  6  0  0  0
 31 30  1  0  0  0  0
 33 38  1  6  0  0  0
 34 31  1  0  0  0  0
 35 32  1  6  0  0  0
 35 30  1  0  0  0  0
 35 33  1  0  0  0  0
 36 35  1  0  0  0  0
 36 33  1  0  0  0  0
 37 34  1  0  0  0  0
 37 32  1  0  0  0  0
 38 39  1  0  0  0  0
 39 40  1  0  0  0  0
 40 42  1  0  0  0  0
 41 42  1  0  0  0  0
 41 43  1  0  0  0  0
 42 43  1  0  0  0  0
M  END
>  <MODEL>
4

>  <REMARK>
 VINA RESULT:      -8.0      1.556      2.484
  Name = 
  11 active torsions:
  status: ('A' for Active; 'I' for Inactive)
    1  A    between atoms: C_1  and  C_34
    2  A    between atoms: C_1  and  C_35
    3  A    between atoms: C_2  and  N_6
    4  A    between atoms: C_2  and  C_7
    5  A    between atoms: C_3  and  C_12
    6  A    between atoms: C_7  and  C_13
    7  A    between atoms: O_11  and  C_14
    8  A    between atoms: O_11  and  C_36
    9  A    between atoms: C_19  and  C_37
   10  A    between atoms: C_29  and  C_31
   11  A    between atoms: C_29  and  C_36
                            x       y       z     vdW  Elec       q    Type
                         _______ _______ _______ _____ _____    ______ ____

>  <TORSDO>
F 11

$$$$
=
 OpenBabel11062410233D

 43 49  0  0  1  0  0  0  0  0999 V2000
  160.4710  207.3270  155.4160 C   0  0  0  0  0  0  0  0  0  0  0  0
  161.2170  210.4370  151.4990 C   0  0  0  0  0  0  0  0  0  0  0  0
  162.1710  208.8470  149.4530 C   0  0  0  0  0  0  0  0  0  0  0  0
  160.6170  209.2740  153.9820 C   0  0  0  0  0  0  0  0  0  0  0  0
  160.9640  206.5240  154.3850 C   0  0  0  0  0  3  0  0  0  0  0  0
  160.1540  206.7720  156.6110 F   0  0  0  0  0  0  0  0  0  0  0  0
  161.1200  208.4660  152.9320 C   0  0  0  0  0  0  0  0  0  0  0  0
  160.2980  208.6990  155.2160 C   0  0  0  0  0  3  0  0  0  0  0  0
  161.2890  207.0900  153.1480 C   0  0  0  0  0  3  0  0  0  0  0  0
  161.8980  208.2970  150.6650 N   0  0  0  0  0  0  0  0  0  0  0  0
  161.4280  209.0530  151.6930 C   0  0  0  0  0  0  0  0  0  0  0  0
  160.7250  211.2220  152.5500 C   0  0  0  0  0  3  0  0  0  0  0  0
  161.5040  210.9830  150.2370 C   0  0  0  0  0  0  0  0  0  0  0  0
  161.9630  210.1730  149.2450 N   0  0  0  0  0  0  0  0  0  0  0  0
  160.4290  210.6430  153.7850 C   0  0  0  0  0  3  0  0  0  0  0  0
  161.2450  212.4250  149.9260 C   0  0  0  0  0  2  0  0  0  0  0  0
  162.7200  213.2910  146.5440 C   0  0  0  0  0  3  0  0  0  0  0  0
  161.5920  213.1930  145.7170 C   0  0  0  0  0  0  0  0  0  0  0  0
  160.2460  212.5620  147.6290 C   0  0  0  0  0  3  0  0  0  0  0  0
  162.6060  213.0330  147.9120 C   0  0  0  0  0  3  0  0  0  0  0  0
  161.3710  212.6670  148.4580 C   0  0  0  0  0  0  0  0  0  0  0  0
  160.3550  212.8250  146.2610 C   0  0  0  0  0  3  0  0  0  0  0  0
  162.6700  212.5840  143.7070 O   0  0  0  0  0  1  0  0  0  0  0  0
  161.7200  213.4490  144.2560 C   0  0  0  0  0  2  0  0  0  0  0  0
  162.6080  207.9740  148.3260 C   0  0  0  0  0  2  0  0  0  0  0  0
  161.4810  207.0510  147.8710 C   0  0  0  0  0  2  0  0  0  0  0  0
  161.7170  205.6860  148.3210 N   0  0  0  0  0  2  0  0  0  0  0  0
  161.0560  205.1150  149.4530 C   0  0  0  0  0  0  0  0  0  0  0  0
  160.0650  205.7320  150.0180 N   0  0  0  0  0  2  0  0  0  0  0  0
  161.4550  203.7430  149.9090 C   0  0  1  0  0  3  0  0  0  0  0  0
  161.0940  203.5380  151.2530 O   0  0  0  0  0  0  0  0  0  0  0  0
  161.3080  201.1790  149.5380 C   0  0  0  0  0  2  0  0  0  0  0  0
  160.6980  202.8090  147.5530 C   0  0  2  0  0  3  0  0  0  0  0  0
  161.7890  202.3910  151.6920 C   0  0  0  0  0  2  0  0  0  0  0  0
  160.9430  202.5730  149.0370 C   0  0  2  0  0  0  0  0  0  0  0  0
  159.5230  202.6760  148.5250 C   0  0  0  0  0  2  0  0  0  0  0  0
  161.1830  201.1310  151.0640 C   0  0  0  0  0  2  0  0  0  0  0  0
  160.8390  201.6290  146.8170 O   0  0  0  0  0  0  0  0  0  0  0  0
  160.8330  202.0490  145.4870 C   0  0  0  0  0  2  0  0  0  0  0  0
  161.3830  203.4580  145.3910 C   0  0  0  0  0  2  0  0  0  0  0  0
  161.2570  205.4410  143.9190 C   0  0  0  0  0  2  0  0  0  0  0  0
  160.4720  204.2900  144.5110 C   0  0  0  0  0  3  0  0  0  0  0  0
  160.3420  205.6780  145.1000 C   0  0  0  0  0  2  0  0  0  0  0  0
  1  6  1  0  0  0  0
  2 11  2  0  0  0  0
  2 12  1  0  0  0  0
  3 10  2  0  0  0  0
  4  8  2  0  0  0  0
  5  1  2  0  0  0  0
  7  9  2  0  0  0  0
  7  4  1  0  0  0  0
  8  1  1  0  0  0  0
  9  5  1  0  0  0  0
 10 11  1  0  0  0  0
 11  7  1  0  0  0  0
 12 15  2  0  0  0  0
 13  2  1  0  0  0  0
 14  3  1  0  0  0  0
 14 13  2  0  0  0  0
 15  4  1  0  0  0  0
 16 13  1  0  0  0  0
 17 20  1  0  0  0  0
 18 22  1  0  0  0  0
 18 17  2  0  0  0  0
 19 21  1  0  0  0  0
 20 21  2  0  0  0  0
 21 16  1  0  0  0  0
 22 19  2  0  0  0  0
 23 24  1  0  0  0  0
 24 18  1  0  0  0  0
 25  3  1  0  0  0  0
 26 27  1  0  0  0  0
 26 25  1  0  0  0  0
 27 28  1  0  0  0  0
 28 29  2  0  0  0  0
 30 28  1  6  0  0  0
 30 31  1  0  0  0  0
 31 34  1  0  0  0  0
 32 37  1  0  0  0  0
 33 38  1  6  0  0  0
 33 36  1  0  0  0  0
 33 35  1  0  0  0  0
 35 36  1  1  0  0  0
 35 32  1  0  0  0  0
 35 30  1  0  0  0  0
 37 34  1  0  0  0  0
 39 38  1  0  0  0  0
 40 39  1  0  0  0  0
 41 42  1  0  0  0  0
 41 43  1  0  0  0  0
 42 43  1  0  0  0  0
 42 40  1  0  0  0  0
M  END
>  <MODEL>
5

>  <REMARK>
 VINA RESULT:      -7.9      3.371      8.839
  Name = 
  11 active torsions:
  status: ('A' for Active; 'I' for Inactive)
    1  A    between atoms: C_1  and  C_34
    2  A    between atoms: C_1  and  C_35
    3  A    between atoms: C_2  and  N_6
    4  A    between atoms: C_2  and  C_7
    5  A    between atoms: C_3  and  C_12
    6  A    between atoms: C_7  and  C_13
    7  A    between atoms: O_11  and  C_14
    8  A    between atoms: O_11  and  C_36
    9  A    between atoms: C_19  and  C_37
   10  A    between atoms: C_29  and  C_31
   11  A    between atoms: C_29  and  C_36
                            x       y       z     vdW  Elec       q    Type
                         _______ _______ _______ _____ _____    ______ ____

>  <TORSDO>
F 11

$$$$
=
 OpenBabel11062410233D

 43 49  0  0  1  0  0  0  0  0999 V2000
  158.4090  212.4470  154.2980 C   0  0  0  0  0  0  0  0  0  0  0  0
  160.8270  212.9860  149.8890 C   0  0  0  0  0  0  0  0  0  0  0  0
  161.9910  210.5370  149.3710 C   0  0  0  0  0  0  0  0  0  0  0  0
  159.3320  213.3310  152.2400 C   0  0  0  0  0  0  0  0  0  0  0  0
  159.0070  211.2130  154.0420 C   0  0  0  0  0  3  0  0  0  0  0  0
  157.6640  212.6190  155.4180 F   0  0  0  0  0  0  0  0  0  0  0  0
  159.9450  212.0810  151.9750 C   0  0  0  0  0  0  0  0  0  0  0  0
  158.5700  213.5060  153.4000 C   0  0  0  0  0  3  0  0  0  0  0  0
  159.7730  211.0290  152.8860 C   0  0  0  0  0  3  0  0  0  0  0  0
  161.2840  210.7200  150.5160 N   0  0  0  0  0  0  0  0  0  0  0  0
  160.7000  211.9140  150.8010 C   0  0  0  0  0  0  0  0  0  0  0  0
  160.2200  214.2180  150.1700 C   0  0  0  0  0  3  0  0  0  0  0  0
  161.5600  212.7730  148.7100 C   0  0  0  0  0  0  0  0  0  0  0  0
  162.1140  211.5520  148.4770 N   0  0  0  0  0  0  0  0  0  0  0  0
  159.4780  214.3890  151.3400 C   0  0  0  0  0  3  0  0  0  0  0  0
  161.6860  213.8320  147.6590 C   0  0  0  0  0  2  0  0  0  0  0  0
  161.8570  212.9030  143.9880 C   0  0  0  0  0  3  0  0  0  0  0  0
  160.6050  212.3050  143.7960 C   0  0  0  0  0  0  0  0  0  0  0  0
  160.0710  212.6720  146.1290 C   0  0  0  0  0  3  0  0  0  0  0  0
  162.2100  213.3930  145.2490 C   0  0  0  0  0  3  0  0  0  0  0  0
  161.3200  213.2780  146.3210 C   0  0  0  0  0  0  0  0  0  0  0  0
  159.7130  212.1860  144.8690 C   0  0  0  0  0  3  0  0  0  0  0  0
  161.3930  211.3760  141.7730 O   0  0  0  0  0  1  0  0  0  0  0  0
  160.2390  211.7660  142.4570 C   0  0  0  0  0  2  0  0  0  0  0  0
  162.5500  209.1910  149.0550 C   0  0  0  0  0  2  0  0  0  0  0  0
  161.5210  208.3180  148.3420 C   0  0  0  0  0  2  0  0  0  0  0  0
  161.1720  207.1620  149.1570 N   0  0  0  0  0  2  0  0  0  0  0  0
  161.3750  205.8150  148.7220 C   0  0  0  0  0  0  0  0  0  0  0  0
  162.0620  205.5630  147.6520 N   0  0  0  0  0  2  0  0  0  0  0  0
  160.8730  204.6930  149.5830 C   0  0  1  0  0  3  0  0  0  0  0  0
  161.1930  203.4460  149.0160 O   0  0  0  0  0  0  0  0  0  0  0  0
  160.8490  203.5610  151.9170 C   0  0  0  0  0  2  0  0  0  0  0  0
  161.6070  206.0820  151.7110 C   0  0  2  0  0  3  0  0  0  0  0  0
  160.4130  202.4810  149.6850 C   0  0  0  0  0  2  0  0  0  0  0  0
  161.3180  204.7350  151.0620 C   0  0  2  0  0  0  0  0  0  0  0  0
  162.7510  205.1390  151.3320 C   0  0  0  0  0  2  0  0  0  0  0  0
  160.9420  202.2640  151.1080 C   0  0  0  0  0  2  0  0  0  0  0  0
  161.3980  206.0390  153.0920 O   0  0  0  0  0  0  0  0  0  0  0  0
  161.1700  207.3690  153.4470 C   0  0  0  0  0  2  0  0  0  0  0  0
  160.2150  207.4320  154.6220 C   0  0  0  0  0  2  0  0  0  0  0  0
  160.3610  207.3550  157.0890 C   0  0  0  0  0  2  0  0  0  0  0  0
  160.9500  207.9660  155.8350 C   0  0  0  0  0  3  0  0  0  0  0  0
  159.9880  208.7660  156.6880 C   0  0  0  0  0  2  0  0  0  0  0  0
  1  6  1  0  0  0  0
  2 12  2  0  0  0  0
  2 11  1  0  0  0  0
  3 10  2  0  0  0  0
  4  8  1  0  0  0  0
  5  1  1  0  0  0  0
  7  4  1  0  0  0  0
  7  9  1  0  0  0  0
  8  1  2  0  0  0  0
  9  5  2  0  0  0  0
 10 11  1  0  0  0  0
 11  7  2  0  0  0  0
 12 15  1  0  0  0  0
 13  2  1  0  0  0  0
 14 13  2  0  0  0  0
 14  3  1  0  0  0  0
 15  4  2  0  0  0  0
 16 13  1  0  0  0  0
 17 20  1  0  0  0  0
 18 17  2  0  0  0  0
 18 22  1  0  0  0  0
 19 21  1  0  0  0  0
 20 21  2  0  0  0  0
 21 16  1  0  0  0  0
 22 19  2  0  0  0  0
 23 24  1  0  0  0  0
 24 18  1  0  0  0  0
 25  3  1  0  0  0  0
 26 25  1  0  0  0  0
 26 27  1  0  0  0  0
 28 27  1  0  0  0  0
 29 28  2  0  0  0  0
 30 28  1  6  0  0  0
 30 35  1  0  0  0  0
 31 30  1  0  0  0  0
 31 34  1  0  0  0  0
 33 38  1  1  0  0  0
 34 37  1  0  0  0  0
 35 36  1  6  0  0  0
 35 33  1  0  0  0  0
 35 32  1  0  0  0  0
 36 33  1  0  0  0  0
 37 32  1  0  0  0  0
 38 39  1  0  0  0  0
 39 40  1  0  0  0  0
 40 42  1  0  0  0  0
 42 43  1  0  0  0  0
 42 41  1  0  0  0  0
 43 41  1  0  0  0  0
M  END
>  <MODEL>
6

>  <REMARK>
 VINA RESULT:      -7.8      3.437      9.504
  Name = 
  11 active torsions:
  status: ('A' for Active; 'I' for Inactive)
    1  A    between atoms: C_1  and  C_34
    2  A    between atoms: C_1  and  C_35
    3  A    between atoms: C_2  and  N_6
    4  A    between atoms: C_2  and  C_7
    5  A    between atoms: C_3  and  C_12
    6  A    between atoms: C_7  and  C_13
    7  A    between atoms: O_11  and  C_14
    8  A    between atoms: O_11  and  C_36
    9  A    between atoms: C_19  and  C_37
   10  A    between atoms: C_29  and  C_31
   11  A    between atoms: C_29  and  C_36
                            x       y       z     vdW  Elec       q    Type
                         _______ _______ _______ _____ _____    ______ ____

>  <TORSDO>
F 11

$$$$
=
 OpenBabel11062410233D

 43 49  0  0  1  0  0  0  0  0999 V2000
  161.2080  204.1960  147.7390 C   0  0  0  0  0  0  0  0  0  0  0  0
  161.6890  207.9810  151.0590 C   0  0  0  0  0  0  0  0  0  0  0  0
  162.1190  210.2510  149.5480 C   0  0  0  0  0  0  0  0  0  0  0  0
  161.3540  205.5100  149.7690 C   0  0  0  0  0  0  0  0  0  0  0  0
  161.4370  205.3420  146.9750 C   0  0  0  0  0  3  0  0  0  0  0  0
  161.0200  203.0020  147.1260 F   0  0  0  0  0  0  0  0  0  0  0  0
  161.5890  206.6770  149.0000 C   0  0  0  0  0  0  0  0  0  0  0  0
  161.1670  204.2780  149.1330 C   0  0  0  0  0  3  0  0  0  0  0  0
  161.6280  206.5780  147.6010 C   0  0  0  0  0  3  0  0  0  0  0  0
  161.9770  209.0470  148.9340 N   0  0  0  0  0  0  0  0  0  0  0  0
  161.7650  207.9110  149.6500 C   0  0  0  0  0  0  0  0  0  0  0  0
  161.4630  206.8150  151.8040 C   0  0  0  0  0  3  0  0  0  0  0  0
  161.8370  209.2360  151.6720 C   0  0  0  0  0  0  0  0  0  0  0  0
  162.0370  210.3380  150.9010 N   0  0  0  0  0  0  0  0  0  0  0  0
  161.2980  205.5870  151.1620 C   0  0  0  0  0  3  0  0  0  0  0  0
  161.7010  209.4090  153.1530 C   0  0  0  0  0  2  0  0  0  0  0  0
  159.7080  212.1340  154.8750 C   0  0  0  0  0  3  0  0  0  0  0  0
  158.5530  212.1740  154.0820 C   0  0  0  0  0  0  0  0  0  0  0  0
  159.4640  210.4350  152.6650 C   0  0  0  0  0  3  0  0  0  0  0  0
  160.7350  211.2390  154.5660 C   0  0  0  0  0  3  0  0  0  0  0  0
  160.6170  210.3890  153.4610 C   0  0  0  0  0  0  0  0  0  0  0  0
  158.4330  211.3250  152.9750 C   0  0  0  0  0  3  0  0  0  0  0  0
  156.3250  212.8330  153.6590 O   0  0  0  0  0  1  0  0  0  0  0  0
  157.4670  213.1430  154.4010 C   0  0  0  0  0  2  0  0  0  0  0  0
  162.2700  211.4860  148.7270 C   0  0  0  0  0  2  0  0  0  0  0  0
  161.2630  211.5150  147.5790 C   0  0  0  0  0  2  0  0  0  0  0  0
  161.7640  212.3200  146.4730 N   0  0  0  0  0  2  0  0  0  0  0  0
  160.9030  213.0190  145.5700 C   0  0  0  0  0  0  0  0  0  0  0  0
  159.6340  213.1230  145.8150 N   0  0  0  0  0  2  0  0  0  0  0  0
  161.5090  213.7240  144.3920 C   0  0  1  0  0  3  0  0  0  0  0  0
  162.8990  213.5080  144.3420 O   0  0  0  0  0  0  0  0  0  0  0  0
  161.5290  214.0830  141.8230 C   0  0  0  0  0  2  0  0  0  0  0  0
  159.4010  213.0130  142.9620 C   0  0  2  0  0  3  0  0  0  0  0  0
  163.4260  214.4530  143.4370 C   0  0  0  0  0  2  0  0  0  0  0  0
  160.8720  213.4050  143.0210 C   0  0  2  0  0  0  0  0  0  0  0  0
  160.4960  211.9620  142.7630 C   0  0  0  0  0  2  0  0  0  0  0  0
  163.0510  214.0780  141.9990 C   0  0  0  0  0  2  0  0  0  0  0  0
  158.8330  213.3430  141.7280 O   0  0  0  0  0  0  0  0  0  0  0  0
  157.8650  214.2980  142.0380 C   0  0  0  0  0  2  0  0  0  0  0  0
  156.9050  214.4530  140.8750 C   0  0  0  0  0  2  0  0  0  0  0  0
  156.4260  213.7420  138.5560 C   0  0  0  0  0  2  0  0  0  0  0  0
  157.4310  213.6740  139.6870 C   0  0  0  0  0  3  0  0  0  0  0  0
  156.5140  212.5000  139.4160 C   0  0  0  0  0  2  0  0  0  0  0  0
  1  8  1  0  0  0  0
  2 13  1  0  0  0  0
  2 12  1  0  0  0  0
  3 14  1  0  0  0  0
  4 15  1  0  0  0  0
  5  9  1  0  0  0  0
  5  1  2  0  0  0  0
  6  1  1  0  0  0  0
  7 11  1  0  0  0  0
  7  4  1  0  0  0  0
  8  4  2  0  0  0  0
  9  7  2  0  0  0  0
 10  3  2  0  0  0  0
 10 11  1  0  0  0  0
 11  2  2  0  0  0  0
 13 16  1  0  0  0  0
 14 13  2  0  0  0  0
 15 12  2  0  0  0  0
 16 21  1  0  0  0  0
 18 24  1  0  0  0  0
 18 17  2  0  0  0  0
 19 22  2  0  0  0  0
 19 21  1  0  0  0  0
 20 17  1  0  0  0  0
 21 20  2  0  0  0  0
 22 18  1  0  0  0  0
 23 24  1  0  0  0  0
 25  3  1  0  0  0  0
 26 25  1  0  0  0  0
 27 26  1  0  0  0  0
 28 29  2  0  0  0  0
 28 27  1  0  0  0  0
 30 28  1  1  0  0  0
 31 30  1  0  0  0  0
 32 37  1  0  0  0  0
 33 38  1  6  0  0  0
 33 35  1  0  0  0  0
 34 31  1  0  0  0  0
 35 32  1  6  0  0  0
 35 30  1  0  0  0  0
 36 33  1  0  0  0  0
 36 35  1  0  0  0  0
 37 34  1  0  0  0  0
 38 39  1  0  0  0  0
 40 39  1  0  0  0  0
 41 43  1  0  0  0  0
 41 42  1  0  0  0  0
 42 40  1  0  0  0  0
 43 42  1  0  0  0  0
M  END
>  <MODEL>
7

>  <REMARK>
 VINA RESULT:      -7.6      2.923      4.229
  Name = 
  11 active torsions:
  status: ('A' for Active; 'I' for Inactive)
    1  A    between atoms: C_1  and  C_34
    2  A    between atoms: C_1  and  C_35
    3  A    between atoms: C_2  and  N_6
    4  A    between atoms: C_2  and  C_7
    5  A    between atoms: C_3  and  C_12
    6  A    between atoms: C_7  and  C_13
    7  A    between atoms: O_11  and  C_14
    8  A    between atoms: O_11  and  C_36
    9  A    between atoms: C_19  and  C_37
   10  A    between atoms: C_29  and  C_31
   11  A    between atoms: C_29  and  C_36
                            x       y       z     vdW  Elec       q    Type
                         _______ _______ _______ _____ _____    ______ ____

>  <TORSDO>
F 11

$$$$
=
 OpenBabel11062410233D

 43 49  0  0  1  0  0  0  0  0999 V2000
  160.7220  202.0220  146.2920 C   0  0  0  0  0  0  0  0  0  0  0  0
  162.0210  206.5180  148.2100 C   0  0  0  0  0  0  0  0  0  0  0  0
  161.9090  206.2210  150.9520 C   0  0  0  0  0  0  0  0  0  0  0  0
  161.3830  204.3370  146.5600 C   0  0  0  0  0  0  0  0  0  0  0  0
  160.6540  201.8750  147.6780 C   0  0  0  0  0  3  0  0  0  0  0  0
  160.4400  200.9690  145.4860 F   0  0  0  0  0  0  0  0  0  0  0  0
  161.3140  204.1960  147.9690 C   0  0  0  0  0  0  0  0  0  0  0  0
  161.0850  203.2500  145.7320 C   0  0  0  0  0  3  0  0  0  0  0  0
  160.9470  202.9570  148.5150 C   0  0  0  0  0  3  0  0  0  0  0  0
  161.5810  205.1780  150.1460 N   0  0  0  0  0  0  0  0  0  0  0  0
  161.6250  205.2920  148.7920 C   0  0  0  0  0  0  0  0  0  0  0  0
  162.0780  206.6410  146.8150 C   0  0  0  0  0  3  0  0  0  0  0  0
  162.3570  207.5810  149.0630 C   0  0  0  0  0  0  0  0  0  0  0  0
  162.3030  207.4020  150.4100 N   0  0  0  0  0  0  0  0  0  0  0  0
  161.7590  205.5570  145.9960 C   0  0  0  0  0  3  0  0  0  0  0  0
  162.8530  208.8900  148.5310 C   0  0  0  0  0  2  0  0  0  0  0  0
  161.1740  212.2570  148.9940 C   0  0  0  0  0  3  0  0  0  0  0  0
  160.7270  212.1630  150.3190 C   0  0  0  0  0  0  0  0  0  0  0  0
  161.6370  209.9230  150.4670 C   0  0  0  0  0  3  0  0  0  0  0  0
  161.8600  211.1870  148.4120 C   0  0  0  0  0  3  0  0  0  0  0  0
  162.0910  210.0190  149.1450 C   0  0  0  0  0  0  0  0  0  0  0  0
  160.9560  210.9930  151.0540 C   0  0  0  0  0  3  0  0  0  0  0  0
  158.6750  213.3240  150.4340 O   0  0  0  0  0  1  0  0  0  0  0  0
  159.9800  213.2960  150.9320 C   0  0  0  0  0  2  0  0  0  0  0  0
  161.9260  206.0340  152.4310 C   0  0  0  0  0  2  0  0  0  0  0  0
  160.7450  206.7410  153.0920 C   0  0  0  0  0  2  0  0  0  0  0  0
  161.2070  207.6800  154.1060 N   0  0  0  0  0  2  0  0  0  0  0  0
  160.4750  207.9520  155.3040 C   0  0  0  0  0  0  0  0  0  0  0  0
  159.4530  207.2240  155.6320 N   0  0  0  0  0  2  0  0  0  0  0  0
  160.9730  209.0220  156.2290 C   0  0  1  0  0  3  0  0  0  0  0  0
  162.3720  209.1430  156.1460 O   0  0  0  0  0  0  0  0  0  0  0  0
  160.8600  211.5040  156.9760 C   0  0  0  0  0  2  0  0  0  0  0  0
  158.8750  210.4880  155.5630 C   0  0  2  0  0  3  0  0  0  0  0  0
  162.7830  209.9040  157.2610 C   0  0  0  0  0  2  0  0  0  0  0  0
  160.3090  210.4080  156.0680 C   0  0  2  0  0  0  0  0  0  0  0  0
  160.0440  210.8770  154.6540 C   0  0  0  0  0  2  0  0  0  0  0  0
  162.3830  211.3730  157.0770 C   0  0  0  0  0  2  0  0  0  0  0  0
  158.2330  211.6410  156.0250 O   0  0  0  0  0  0  0  0  0  0  0  0
  156.8810  211.4020  155.7820 C   0  0  0  0  0  2  0  0  0  0  0  0
  156.2610  212.6060  155.1010 C   0  0  0  0  0  2  0  0  0  0  0  0
  157.3770  214.4340  153.8650 C   0  0  0  0  0  2  0  0  0  0  0  0
  157.0680  212.9510  153.8660 C   0  0  0  0  0  3  0  0  0  0  0  0
  156.2650  213.8920  152.9930 C   0  0  0  0  0  2  0  0  0  0  0  0
  1  5  1  0  0  0  0
  2 11  1  0  0  0  0
  2 13  1  0  0  0  0
  3 25  1  0  0  0  0
  4  7  1  0  0  0  0
  5  9  2  0  0  0  0
  6  1  1  0  0  0  0
  7  9  1  0  0  0  0
  7 11  2  0  0  0  0
  8  1  2  0  0  0  0
  8  4  1  0  0  0  0
 10  3  2  0  0  0  0
 11 10  1  0  0  0  0
 12  2  2  0  0  0  0
 13 14  2  0  0  0  0
 14  3  1  0  0  0  0
 15  4  2  0  0  0  0
 15 12  1  0  0  0  0
 16 13  1  0  0  0  0
 16 21  1  0  0  0  0
 17 18  1  0  0  0  0
 18 24  1  0  0  0  0
 18 22  2  0  0  0  0
 19 22  1  0  0  0  0
 20 17  2  0  0  0  0
 20 21  1  0  0  0  0
 21 19  2  0  0  0  0
 23 24  1  0  0  0  0
 25 26  1  0  0  0  0
 26 27  1  0  0  0  0
 27 28  1  0  0  0  0
 28 29  2  0  0  0  0
 30 28  1  6  0  0  0
 31 30  1  0  0  0  0
 31 34  1  0  0  0  0
 32 37  1  0  0  0  0
 33 38  1  1  0  0  0
 33 35  1  0  0  0  0
 35 36  1  6  0  0  0
 35 30  1  0  0  0  0
 35 32  1  0  0  0  0
 36 33  1  0  0  0  0
 37 34  1  0  0  0  0
 39 38  1  0  0  0  0
 40 39  1  0  0  0  0
 41 42  1  0  0  0  0
 42 40  1  0  0  0  0
 43 41  1  0  0  0  0
 43 42  1  0  0  0  0
M  END
>  <MODEL>
8

>  <REMARK>
 VINA RESULT:      -7.4      2.707      6.405
  Name = 
  11 active torsions:
  status: ('A' for Active; 'I' for Inactive)
    1  A    between atoms: C_1  and  C_34
    2  A    between atoms: C_1  and  C_35
    3  A    between atoms: C_2  and  N_6
    4  A    between atoms: C_2  and  C_7
    5  A    between atoms: C_3  and  C_12
    6  A    between atoms: C_7  and  C_13
    7  A    between atoms: O_11  and  C_14
    8  A    between atoms: O_11  and  C_36
    9  A    between atoms: C_19  and  C_37
   10  A    between atoms: C_29  and  C_31
   11  A    between atoms: C_29  and  C_36
                            x       y       z     vdW  Elec       q    Type
                         _______ _______ _______ _____ _____    ______ ____

>  <TORSDO>
F 11

$$$$
=
 OpenBabel11062410233D

 43 49  0  0  1  0  0  0  0  0999 V2000
  159.8580  212.1880  154.5030 C   0  0  0  0  0  0  0  0  0  0  0  0
  161.0260  207.5390  152.8920 C   0  0  0  0  0  0  0  0  0  0  0  0
  161.4260  207.7700  150.1700 C   0  0  0  0  0  0  0  0  0  0  0  0
  160.3260  209.8150  154.3790 C   0  0  0  0  0  0  0  0  0  0  0  0
  160.0490  212.3030  153.1250 C   0  0  0  0  0  3  0  0  0  0  0  0
  159.5440  213.2850  155.2360 F   0  0  0  0  0  0  0  0  0  0  0  0
  160.5190  209.9240  152.9790 C   0  0  0  0  0  0  0  0  0  0  0  0
  159.9950  210.9470  155.1310 C   0  0  0  0  0  3  0  0  0  0  0  0
  160.3770  211.1770  152.3650 C   0  0  0  0  0  3  0  0  0  0  0  0
  161.0660  208.8610  150.8950 N   0  0  0  0  0  0  0  0  0  0  0  0
  160.8600  208.7810  152.2360 C   0  0  0  0  0  0  0  0  0  0  0  0
  160.8240  207.4490  154.2760 C   0  0  0  0  0  3  0  0  0  0  0  0
  161.4000  206.4260  152.1220 C   0  0  0  0  0  0  0  0  0  0  0  0
  161.6010  206.5720  150.7850 N   0  0  0  0  0  0  0  0  0  0  0  0
  160.4750  208.5800  155.0140 C   0  0  0  0  0  3  0  0  0  0  0  0
  161.6630  205.0900  152.7470 C   0  0  0  0  0  2  0  0  0  0  0  0
  160.2650  203.2280  149.7560 C   0  0  0  0  0  3  0  0  0  0  0  0
  160.7460  201.9320  149.9880 C   0  0  0  0  0  0  0  0  0  0  0  0
  161.8520  202.7020  152.0010 C   0  0  0  0  0  3  0  0  0  0  0  0
  160.5710  204.2560  150.6520 C   0  0  0  0  0  3  0  0  0  0  0  0
  161.3650  203.9970  151.7740 C   0  0  0  0  0  0  0  0  0  0  0  0
  161.5430  201.6710  151.1100 C   0  0  0  0  0  3  0  0  0  0  0  0
  161.6230  200.2840  148.5440 O   0  0  0  0  0  1  0  0  0  0  0  0
  160.4350  200.8420  149.0230 C   0  0  0  0  0  2  0  0  0  0  0  0
  161.7210  207.9140  148.7150 C   0  0  0  0  0  2  0  0  0  0  0  0
  162.6900  206.8350  148.2370 C   0  0  0  0  0  2  0  0  0  0  0  0
  161.9810  205.7890  147.5130 N   0  0  0  0  0  2  0  0  0  0  0  0
  162.6370  204.8740  146.6310 C   0  0  0  0  0  0  0  0  0  0  0  0
  163.9320  204.8140  146.5870 N   0  0  0  0  0  2  0  0  0  0  0  0
  161.8050  203.9090  145.8400 C   0  0  1  0  0  3  0  0  0  0  0  0
  160.9350  203.1920  146.6810 O   0  0  0  0  0  0  0  0  0  0  0  0
  160.1320  203.5400  143.8910 C   0  0  0  0  0  2  0  0  0  0  0  0
  161.5710  205.7520  143.9570 C   0  0  2  0  0  3  0  0  0  0  0  0
  160.4500  202.0990  145.9320 C   0  0  0  0  0  2  0  0  0  0  0  0
  161.0180  204.5180  144.6570 C   0  0  2  0  0  0  0  0  0  0  0  0
  160.3650  205.8620  144.8930 C   0  0  0  0  0  2  0  0  0  0  0  0
  159.4510  202.5830  144.8750 C   0  0  0  0  0  2  0  0  0  0  0  0
  161.1450  205.8200  142.6280 O   0  0  0  0  0  0  0  0  0  0  0  0
  162.2830  206.2080  141.9210 C   0  0  0  0  0  2  0  0  0  0  0  0
  161.9560  206.3300  140.4460 C   0  0  0  0  0  2  0  0  0  0  0  0
  161.0220  208.2760  139.2400 C   0  0  0  0  0  2  0  0  0  0  0  0
  162.2270  207.7490  139.9900 C   0  0  0  0  0  3  0  0  0  0  0  0
  162.2360  207.7930  138.4760 C   0  0  0  0  0  2  0  0  0  0  0  0
  1  8  1  0  0  0  0
  1  6  1  0  0  0  0
  2 12  1  0  0  0  0
  3 14  1  0  0  0  0
  3 10  2  0  0  0  0
  4 15  1  0  0  0  0
  4  8  2  0  0  0  0
  5  1  2  0  0  0  0
  7  4  1  0  0  0  0
  9  7  2  0  0  0  0
  9  5  1  0  0  0  0
 10 11  1  0  0  0  0
 11  2  2  0  0  0  0
 11  7  1  0  0  0  0
 12 15  2  0  0  0  0
 13 16  1  0  0  0  0
 13  2  1  0  0  0  0
 14 13  2  0  0  0  0
 17 18  2  0  0  0  0
 17 20  1  0  0  0  0
 18 22  1  0  0  0  0
 20 21  2  0  0  0  0
 21 19  1  0  0  0  0
 21 16  1  0  0  0  0
 22 19  2  0  0  0  0
 23 24  1  0  0  0  0
 24 18  1  0  0  0  0
 25  3  1  0  0  0  0
 26 25  1  0  0  0  0
 27 26  1  0  0  0  0
 28 27  1  0  0  0  0
 29 28  2  0  0  0  0
 30 28  1  1  0  0  0
 30 31  1  0  0  0  0
 32 37  1  0  0  0  0
 33 38  1  6  0  0  0
 33 35  1  0  0  0  0
 33 36  1  0  0  0  0
 34 31  1  0  0  0  0
 35 32  1  6  0  0  0
 35 36  1  0  0  0  0
 35 30  1  0  0  0  0
 37 34  1  0  0  0  0
 39 38  1  0  0  0  0
 40 39  1  0  0  0  0
 41 42  1  0  0  0  0
 42 40  1  0  0  0  0
 43 41  1  0  0  0  0
 43 42  1  0  0  0  0
M  END
>  <MODEL>
9

>  <REMARK>
 VINA RESULT:      -6.9      4.966      9.116
  Name = 
  11 active torsions:
  status: ('A' for Active; 'I' for Inactive)
    1  A    between atoms: C_1  and  C_34
    2  A    between atoms: C_1  and  C_35
    3  A    between atoms: C_2  and  N_6
    4  A    between atoms: C_2  and  C_7
    5  A    between atoms: C_3  and  C_12
    6  A    between atoms: C_7  and  C_13
    7  A    between atoms: O_11  and  C_14
    8  A    between atoms: O_11  and  C_36
    9  A    between atoms: C_19  and  C_37
   10  A    between atoms: C_29  and  C_31
   11  A    between atoms: C_29  and  C_36
                            x       y       z     vdW  Elec       q    Type
                         _______ _______ _______ _____ _____    ______ ____

>  <TORSDO>
F 11

$$$$
