=
 OpenBabel11062407583D

 34 38  0  0  1  0  0  0  0  0999 V2000
  161.6690  205.4330  148.2110 C   0  0  0  0  0  0  0  0  0  0  0  0
  160.9830  203.9140  149.9710 C   0  0  0  0  0  3  0  0  0  0  0  0
  161.4570  206.2890  150.4910 C   0  0  0  0  0  0  0  0  0  0  0  0
  161.3060  207.2960  152.7940 N   0  0  0  0  0  0  0  0  0  0  0  0
  161.1900  203.1170  147.6990 C   0  0  0  0  0  3  0  0  0  0  0  0
  160.4710  201.5210  149.4790 C   0  0  0  0  0  1  0  0  0  0  0  0
  161.0340  205.0020  152.4810 O   0  0  0  0  0  0  0  0  0  0  0  0
  161.3750  205.2060  149.5740 C   0  0  0  0  0  0  0  0  0  0  0  0
  161.5790  204.3920  147.2820 C   0  0  0  0  0  3  0  0  0  0  0  0
  161.8010  207.5750  150.0000 C   0  0  0  0  0  0  0  0  0  0  0  0
  162.0500  206.6680  147.7910 N   0  0  0  0  0  0  0  0  0  0  0  0
  160.8930  202.8760  149.0400 C   0  0  0  0  0  0  0  0  0  0  0  0
  161.0950  208.6030  152.1980 C   0  0  0  0  0  2  0  0  0  0  0  0
  161.9680  208.7610  150.9510 C   0  0  2  0  0  3  0  0  0  0  0  0
  161.2330  206.1280  151.9630 C   0  0  0  0  0  0  0  0  0  0  0  0
  162.1270  207.7170  148.6430 C   0  0  0  0  0  3  0  0  0  0  0  0
  160.7510  212.2910  150.3560 C   0  0  0  0  0  0  0  0  0  0  0  0
  161.3800  212.5850  149.1840 N   0  0  0  0  0  0  0  0  0  0  0  0
  161.7020  210.0900  150.2780 C   0  0  0  0  0  0  0  0  0  0  0  0
  162.1270  211.6550  148.5430 C   0  0  0  0  0  3  0  0  0  0  0  0
  160.9100  211.0340  150.9320 C   0  0  0  0  0  3  0  0  0  0  0  0
  162.3100  210.4240  149.1020 N   0  0  0  0  0  0  0  0  0  0  0  0
  159.9810  213.3430  151.0680 C   0  0  0  0  0  1  0  0  0  0  0  0
  161.4460  207.1980  154.2410 C   0  0  0  0  0  2  0  0  0  0  0  0
  160.0880  207.3810  154.9090 C   0  0  0  0  0  2  0  0  0  0  0  0
  160.2190  207.5570  156.4190 C   0  0  0  0  0  2  0  0  0  0  0  0
  160.3200  209.0290  156.8250 C   0  0  0  0  0  2  0  0  0  0  0  0
  162.2650  210.5640  155.3490 C   0  0  0  0  0  1  0  0  0  0  0  0
  159.8960  209.8990  155.7290 N   0  0  0  0  0  0  0  0  0  0  0  0
  160.8300  211.0310  155.5710 C   0  0  2  0  0  3  0  0  0  0  0  0
  158.9900  212.4200  154.6340 C   0  0  0  0  0  2  0  0  0  0  0  0
  158.0310  211.2640  154.9220 C   0  0  0  0  0  2  0  0  0  0  0  0
  158.5770  210.4290  156.0810 C   0  0  0  0  0  2  0  0  0  0  0  0
  160.4000  211.8890  154.3760 C   0  0  0  0  0  2  0  0  0  0  0  0
  1  8  1  0  0  0  0
  3 15  1  0  0  0  0
  4 24  1  0  0  0  0
  5 12  1  0  0  0  0
  8  2  1  0  0  0  0
  8  3  2  0  0  0  0
  9  5  2  0  0  0  0
  9  1  1  0  0  0  0
 10  3  1  0  0  0  0
 10 14  1  0  0  0  0
 11  1  2  0  0  0  0
 11 16  1  0  0  0  0
 12  6  1  0  0  0  0
 12  2  2  0  0  0  0
 13  4  1  0  0  0  0
 14 19  1  6  0  0  0
 14 13  1  0  0  0  0
 15  7  2  0  0  0  0
 15  4  1  0  0  0  0
 16 10  2  0  0  0  0
 17 21  1  0  0  0  0
 17 23  1  0  0  0  0
 18 17  2  0  0  0  0
 19 21  2  0  0  0  0
 20 22  2  0  0  0  0
 20 18  1  0  0  0  0
 22 19  1  0  0  0  0
 24 25  1  0  0  0  0
 25 26  1  0  0  0  0
 26 27  1  0  0  0  0
 29 33  1  0  0  0  0
 29 27  1  0  0  0  0
 30 28  1  6  0  0  0
 30 29  1  0  0  0  0
 31 32  1  0  0  0  0
 32 33  1  0  0  0  0
 34 31  1  0  0  0  0
 34 30  1  0  0  0  0
M  END
>  <MODEL>
1

>  <REMARK>
 VINA RESULT:      -8.9      0.000      0.000
  Name = 
  6 active torsions:
  status: ('A' for Active; 'I' for Inactive)
    1  A    between atoms: C_3  and  N_13
    2  A    between atoms: C_3  and  C_17
    3  A    between atoms: N_5  and  C_18
    4  A    between atoms: C_12  and  C_28
    5  A    between atoms: C_17  and  C_29
    6  A    between atoms: C_18  and  C_29
                            x       y       z     vdW  Elec       q    Type
                         _______ _______ _______ _____ _____    ______ ____

>  <TORSDO>
F 6

$$$$
=
 OpenBabel11062407583D

 34 38  0  0  1  0  0  0  0  0999 V2000
  161.0190  206.8060  153.3000 C   0  0  0  0  0  0  0  0  0  0  0  0
  160.7960  209.1940  153.6560 C   0  0  0  0  0  3  0  0  0  0  0  0
  161.4880  208.3240  151.4430 C   0  0  0  0  0  0  0  0  0  0  0  0
  162.0280  209.7720  149.4540 N   0  0  0  0  0  0  0  0  0  0  0  0
  160.3270  207.6530  155.4590 C   0  0  0  0  0  3  0  0  0  0  0  0
  160.0750  210.1040  155.8650 C   0  0  0  0  0  1  0  0  0  0  0  0
  161.5900  210.7280  151.5350 O   0  0  0  0  0  0  0  0  0  0  0  0
  161.1110  208.1240  152.7980 C   0  0  0  0  0  0  0  0  0  0  0  0
  160.6320  206.5760  154.6240 C   0  0  0  0  0  3  0  0  0  0  0  0
  161.7300  207.1890  150.6260 C   0  0  0  0  0  0  0  0  0  0  0  0
  161.3150  205.7480  152.5000 N   0  0  0  0  0  0  0  0  0  0  0  0
  160.4090  208.9600  154.9780 C   0  0  0  0  0  0  0  0  0  0  0  0
  161.7080  208.6620  148.5720 C   0  0  0  0  0  2  0  0  0  0  0  0
  162.2020  207.3470  149.1800 C   0  0  2  0  0  3  0  0  0  0  0  0
  161.6790  209.6830  150.8430 C   0  0  0  0  0  0  0  0  0  0  0  0
  161.6680  205.9130  151.2040 C   0  0  0  0  0  3  0  0  0  0  0  0
  161.4310  205.2650  146.1190 C   0  0  0  0  0  0  0  0  0  0  0  0
  161.3140  204.0270  146.6760 N   0  0  0  0  0  0  0  0  0  0  0  0
  161.8100  206.1760  148.3070 C   0  0  0  0  0  0  0  0  0  0  0  0
  161.4040  203.8540  148.0160 C   0  0  0  0  0  3  0  0  0  0  0  0
  161.6940  206.3660  146.9300 C   0  0  0  0  0  3  0  0  0  0  0  0
  161.6800  204.9190  148.8230 N   0  0  0  0  0  0  0  0  0  0  0  0
  161.3820  205.4210  144.6440 C   0  0  0  0  0  1  0  0  0  0  0  0
  162.5630  210.9970  148.8750 C   0  0  0  0  0  2  0  0  0  0  0  0
  161.4880  211.6980  148.0540 C   0  0  0  0  0  2  0  0  0  0  0  0
  162.0640  212.8470  147.2310 C   0  0  0  0  0  2  0  0  0  0  0  0
  160.9740  213.6650  146.5350 C   0  0  0  0  0  2  0  0  0  0  0  0
  158.8400  212.5400  144.9540 C   0  0  0  0  0  1  0  0  0  0  0  0
  161.1020  213.5720  145.0820 N   0  0  0  0  0  0  0  0  0  0  0  0
  160.3100  212.4410  144.5600 C   0  0  2  0  0  3  0  0  0  0  0  0
  161.8760  212.2300  142.6370 C   0  0  0  0  0  2  0  0  0  0  0  0
  162.7320  213.3260  143.2720 C   0  0  0  0  0  2  0  0  0  0  0  0
  162.5150  213.3270  144.7860 C   0  0  0  0  0  2  0  0  0  0  0  0
  160.4100  212.4060  143.0310 C   0  0  0  0  0  2  0  0  0  0  0  0
  1  9  2  0  0  0  0
  2 12  1  0  0  0  0
  3  8  1  0  0  0  0
  4 15  1  0  0  0  0
  8  1  1  0  0  0  0
  8  2  2  0  0  0  0
  9  5  1  0  0  0  0
 10 16  1  0  0  0  0
 10  3  2  0  0  0  0
 11  1  1  0  0  0  0
 12  5  2  0  0  0  0
 12  6  1  0  0  0  0
 13 14  1  0  0  0  0
 13  4  1  0  0  0  0
 14 19  1  6  0  0  0
 14 10  1  0  0  0  0
 15  3  1  0  0  0  0
 15  7  2  0  0  0  0
 16 11  2  0  0  0  0
 17 18  2  0  0  0  0
 17 21  1  0  0  0  0
 18 20  1  0  0  0  0
 19 22  1  0  0  0  0
 20 22  2  0  0  0  0
 21 19  2  0  0  0  0
 23 17  1  0  0  0  0
 24  4  1  0  0  0  0
 25 24  1  0  0  0  0
 26 25  1  0  0  0  0
 27 26  1  0  0  0  0
 29 27  1  0  0  0  0
 30 28  1  6  0  0  0
 30 29  1  0  0  0  0
 31 34  1  0  0  0  0
 31 32  1  0  0  0  0
 32 33  1  0  0  0  0
 33 29  1  0  0  0  0
 34 30  1  0  0  0  0
M  END
>  <MODEL>
2

>  <REMARK>
 VINA RESULT:      -8.5      2.824      8.171
  Name = 
  6 active torsions:
  status: ('A' for Active; 'I' for Inactive)
    1  A    between atoms: C_3  and  N_13
    2  A    between atoms: C_3  and  C_17
    3  A    between atoms: N_5  and  C_18
    4  A    between atoms: C_12  and  C_28
    5  A    between atoms: C_17  and  C_29
    6  A    between atoms: C_18  and  C_29
                            x       y       z     vdW  Elec       q    Type
                         _______ _______ _______ _____ _____    ______ ____

>  <TORSDO>
F 6

$$$$
=
 OpenBabel11062407583D

 34 38  0  0  1  0  0  0  0  0999 V2000
  161.7390  206.2750  148.5620 C   0  0  0  0  0  0  0  0  0  0  0  0
  160.9840  205.1250  150.5590 C   0  0  0  0  0  3  0  0  0  0  0  0
  161.4940  207.5470  150.6350 C   0  0  0  0  0  0  0  0  0  0  0  0
  161.3130  208.9720  152.7040 N   0  0  0  0  0  0  0  0  0  0  0  0
  161.2260  203.9110  148.4820 C   0  0  0  0  0  3  0  0  0  0  0  0
  160.4360  202.6900  150.5120 C   0  0  0  0  0  1  0  0  0  0  0  0
  161.0010  206.6640  152.8200 O   0  0  0  0  0  0  0  0  0  0  0  0
  161.4110  206.3130  149.9360 C   0  0  0  0  0  0  0  0  0  0  0  0
  161.6490  205.0790  147.8430 C   0  0  0  0  0  3  0  0  0  0  0  0
  161.8740  208.7130  149.9200 C   0  0  0  0  0  0  0  0  0  0  0  0
  162.1540  207.4030  147.9280 N   0  0  0  0  0  0  0  0  0  0  0  0
  160.8950  203.9320  149.8360 C   0  0  0  0  0  0  0  0  0  0  0  0
  161.1400  210.1470  151.8670 C   0  0  0  0  0  2  0  0  0  0  0  0
  162.0440  210.0540  150.6360 C   0  0  2  0  0  3  0  0  0  0  0  0
  161.2340  207.6700  152.1050 C   0  0  0  0  0  0  0  0  0  0  0  0
  162.2330  208.5920  148.5700 C   0  0  0  0  0  3  0  0  0  0  0  0
  160.6640  213.2830  149.2320 C   0  0  0  0  0  0  0  0  0  0  0  0
  161.5280  213.5020  148.2010 N   0  0  0  0  0  0  0  0  0  0  0  0
  161.8190  211.2360  149.7190 C   0  0  0  0  0  0  0  0  0  0  0  0
  162.4960  212.6050  147.9000 C   0  0  0  0  0  3  0  0  0  0  0  0
  160.8030  212.1440  150.0200 C   0  0  0  0  0  3  0  0  0  0  0  0
  162.6590  211.4930  148.6740 N   0  0  0  0  0  0  0  0  0  0  0  0
  159.6450  214.3060  149.5750 C   0  0  0  0  0  1  0  0  0  0  0  0
  161.4180  209.1460  154.1460 C   0  0  0  0  0  2  0  0  0  0  0  0
  161.6020  210.6210  154.4810 C   0  0  0  0  0  2  0  0  0  0  0  0
  160.4980  211.1350  155.4010 C   0  0  0  0  0  2  0  0  0  0  0  0
  159.1040  210.9240  154.8080 C   0  0  0  0  0  2  0  0  0  0  0  0
  156.3690  211.2870  155.6510 C   0  0  0  0  0  1  0  0  0  0  0  0
  158.4300  212.2050  154.5970 N   0  0  0  0  0  0  0  0  0  0  0  0
  156.9740  212.0100  154.4520 C   0  0  2  0  0  3  0  0  0  0  0  0
  156.8390  214.0650  153.0530 C   0  0  0  0  0  2  0  0  0  0  0  0
  158.3620  214.1640  153.1310 C   0  0  0  0  0  2  0  0  0  0  0  0
  158.9510  212.7700  153.3510 C   0  0  0  0  0  2  0  0  0  0  0  0
  156.2870  213.3710  154.2990 C   0  0  0  0  0  2  0  0  0  0  0  0
  1  8  1  0  0  0  0
  3 15  1  0  0  0  0
  4 24  1  0  0  0  0
  5 12  1  0  0  0  0
  8  2  1  0  0  0  0
  8  3  2  0  0  0  0
  9  5  2  0  0  0  0
  9  1  1  0  0  0  0
 10  3  1  0  0  0  0
 10 14  1  0  0  0  0
 11  1  2  0  0  0  0
 11 16  1  0  0  0  0
 12  6  1  0  0  0  0
 12  2  2  0  0  0  0
 13  4  1  0  0  0  0
 14 19  1  6  0  0  0
 14 13  1  0  0  0  0
 15  4  1  0  0  0  0
 15  7  2  0  0  0  0
 16 10  2  0  0  0  0
 17 23  1  0  0  0  0
 17 21  1  0  0  0  0
 18 17  2  0  0  0  0
 19 21  2  0  0  0  0
 20 18  1  0  0  0  0
 20 22  2  0  0  0  0
 22 19  1  0  0  0  0
 24 25  1  0  0  0  0
 25 26  1  0  0  0  0
 27 26  1  0  0  0  0
 29 27  1  0  0  0  0
 30 29  1  0  0  0  0
 30 28  1  1  0  0  0
 31 32  1  0  0  0  0
 31 34  1  0  0  0  0
 32 33  1  0  0  0  0
 33 29  1  0  0  0  0
 34 30  1  0  0  0  0
M  END
>  <MODEL>
3

>  <REMARK>
 VINA RESULT:      -8.4      1.485      2.399
  Name = 
  6 active torsions:
  status: ('A' for Active; 'I' for Inactive)
    1  A    between atoms: C_3  and  N_13
    2  A    between atoms: C_3  and  C_17
    3  A    between atoms: N_5  and  C_18
    4  A    between atoms: C_12  and  C_28
    5  A    between atoms: C_17  and  C_29
    6  A    between atoms: C_18  and  C_29
                            x       y       z     vdW  Elec       q    Type
                         _______ _______ _______ _____ _____    ______ ____

>  <TORSDO>
F 6

$$$$
=
 OpenBabel11062407583D

 34 38  0  0  1  0  0  0  0  0999 V2000
  160.8240  204.2320  150.0030 C   0  0  0  0  0  0  0  0  0  0  0  0
  161.6590  204.8950  147.8260 C   0  0  0  0  0  3  0  0  0  0  0  0
  161.3650  206.5830  149.6140 C   0  0  0  0  0  0  0  0  0  0  0  0
  161.8550  209.0390  149.3430 N   0  0  0  0  0  0  0  0  0  0  0  0
  161.1260  202.5780  148.2620 C   0  0  0  0  0  3  0  0  0  0  0  0
  161.9940  203.2160  146.0090 C   0  0  0  0  0  1  0  0  0  0  0  0
  161.9800  207.5940  147.5170 O   0  0  0  0  0  0  0  0  0  0  0  0
  161.2790  205.2480  149.1340 C   0  0  0  0  0  0  0  0  0  0  0  0
  160.7460  202.9060  149.5650 C   0  0  0  0  0  3  0  0  0  0  0  0
  161.0200  206.8470  150.9650 C   0  0  0  0  0  0  0  0  0  0  0  0
  160.4480  204.5360  151.2730 N   0  0  0  0  0  0  0  0  0  0  0  0
  161.5810  203.5690  147.3930 C   0  0  0  0  0  0  0  0  0  0  0  0
  162.0490  209.1480  150.7780 C   0  0  0  0  0  2  0  0  0  0  0  0
  161.0310  208.2740  151.5150 C   0  0  2  0  0  3  0  0  0  0  0  0
  161.7680  207.7360  148.7470 C   0  0  0  0  0  0  0  0  0  0  0  0
  160.5300  205.7980  151.7560 C   0  0  0  0  0  3  0  0  0  0  0  0
  161.5850  209.6060  155.0100 C   0  0  0  0  0  0  0  0  0  0  0  0
  161.4870  208.4590  155.7390 N   0  0  0  0  0  0  0  0  0  0  0  0
  161.2690  208.3210  153.0080 C   0  0  0  0  0  0  0  0  0  0  0  0
  161.3200  207.2600  155.1320 C   0  0  0  0  0  3  0  0  0  0  0  0
  161.4660  209.5580  153.6240 C   0  0  0  0  0  3  0  0  0  0  0  0
  161.1820  207.1960  153.7760 N   0  0  0  0  0  0  0  0  0  0  0  0
  161.7140  210.9140  155.7010 C   0  0  0  0  0  1  0  0  0  0  0  0
  161.8980  210.2490  148.5340 C   0  0  0  0  0  2  0  0  0  0  0  0
  161.9560  211.4760  149.4360 C   0  0  0  0  0  2  0  0  0  0  0  0
  161.9850  212.7710  148.6290 C   0  0  0  0  0  2  0  0  0  0  0  0
  160.6700  213.0210  147.8860 C   0  0  0  0  0  2  0  0  0  0  0  0
  158.6720  212.5790  145.8540 C   0  0  0  0  0  1  0  0  0  0  0  0
  160.9230  213.4190  146.5020 N   0  0  0  0  0  0  0  0  0  0  0  0
  160.1690  212.5620  145.5670 C   0  0  2  0  0  3  0  0  0  0  0  0
  161.8940  212.9540  143.8160 C   0  0  0  0  0  2  0  0  0  0  0  0
  162.7020  213.7370  144.8510 C   0  0  0  0  0  2  0  0  0  0  0  0
  162.3550  213.2350  146.2520 C   0  0  0  0  0  2  0  0  0  0  0  0
  160.4010  213.0420  144.1300 C   0  0  0  0  0  2  0  0  0  0  0  0
  1 11  1  0  0  0  0
  2  8  1  0  0  0  0
  3 10  2  0  0  0  0
  4 13  1  0  0  0  0
  5  9  2  0  0  0  0
  6 12  1  0  0  0  0
  7 15  2  0  0  0  0
  8  3  1  0  0  0  0
  8  1  2  0  0  0  0
  9  1  1  0  0  0  0
 10 14  1  0  0  0  0
 10 16  1  0  0  0  0
 11 16  2  0  0  0  0
 12  2  2  0  0  0  0
 12  5  1  0  0  0  0
 13 14  1  0  0  0  0
 14 19  1  1  0  0  0
 15  4  1  0  0  0  0
 15  3  1  0  0  0  0
 17 23  1  0  0  0  0
 17 18  1  0  0  0  0
 19 21  1  0  0  0  0
 19 22  2  0  0  0  0
 20 18  2  0  0  0  0
 21 17  2  0  0  0  0
 22 20  1  0  0  0  0
 24  4  1  0  0  0  0
 24 25  1  0  0  0  0
 26 25  1  0  0  0  0
 27 26  1  0  0  0  0
 29 27  1  0  0  0  0
 30 28  1  1  0  0  0
 30 29  1  0  0  0  0
 31 34  1  0  0  0  0
 31 32  1  0  0  0  0
 32 33  1  0  0  0  0
 33 29  1  0  0  0  0
 34 30  1  0  0  0  0
M  END
>  <MODEL>
4

>  <REMARK>
 VINA RESULT:      -8.4      2.368      6.531
  Name = 
  6 active torsions:
  status: ('A' for Active; 'I' for Inactive)
    1  A    between atoms: C_3  and  N_13
    2  A    between atoms: C_3  and  C_17
    3  A    between atoms: N_5  and  C_18
    4  A    between atoms: C_12  and  C_28
    5  A    between atoms: C_17  and  C_29
    6  A    between atoms: C_18  and  C_29
                            x       y       z     vdW  Elec       q    Type
                         _______ _______ _______ _____ _____    ______ ____

>  <TORSDO>
F 6

$$$$
=
 OpenBabel11062407583D

 34 38  0  0  1  0  0  0  0  0999 V2000
  160.8180  204.2670  150.0480 C   0  0  0  0  0  0  0  0  0  0  0  0
  161.6700  204.9040  147.8690 C   0  0  0  0  0  3  0  0  0  0  0  0
  161.3830  206.6090  149.6420 C   0  0  0  0  0  0  0  0  0  0  0  0
  161.8980  209.0580  149.3530 N   0  0  0  0  0  0  0  0  0  0  0  0
  161.1130  202.5950  148.3220 C   0  0  0  0  0  3  0  0  0  0  0  0
  161.9970  203.2070  146.0690 C   0  0  0  0  0  1  0  0  0  0  0  0
  162.0180  207.5970  147.5400 O   0  0  0  0  0  0  0  0  0  0  0  0
  161.2870  205.2720  149.1730 C   0  0  0  0  0  0  0  0  0  0  0  0
  160.7300  202.9380  149.6210 C   0  0  0  0  0  3  0  0  0  0  0  0
  161.0350  206.8880  150.9890 C   0  0  0  0  0  0  0  0  0  0  0  0
  160.4400  204.5850  151.3140 N   0  0  0  0  0  0  0  0  0  0  0  0
  161.5810  203.5750  147.4470 C   0  0  0  0  0  0  0  0  0  0  0  0
  162.0860  209.1780  150.7890 C   0  0  0  0  0  2  0  0  0  0  0  0
  161.0570  208.3190  151.5280 C   0  0  2  0  0  3  0  0  0  0  0  0
  161.8020  207.7510  148.7680 C   0  0  0  0  0  0  0  0  0  0  0  0
  160.5310  205.8500  151.7870 C   0  0  0  0  0  3  0  0  0  0  0  0
  161.5870  209.6750  155.0180 C   0  0  0  0  0  0  0  0  0  0  0  0
  161.4930  208.5310  155.7530 N   0  0  0  0  0  0  0  0  0  0  0  0
  161.2880  208.3770  153.0220 C   0  0  0  0  0  0  0  0  0  0  0  0
  161.3370  207.3280  155.1520 C   0  0  0  0  0  3  0  0  0  0  0  0
  161.4740  209.6180  153.6310 C   0  0  0  0  0  3  0  0  0  0  0  0
  161.2060  207.2550  153.7960 N   0  0  0  0  0  0  0  0  0  0  0  0
  161.7040  210.9870  155.7010 C   0  0  0  0  0  1  0  0  0  0  0  0
  161.9560  210.2610  148.5350 C   0  0  0  0  0  2  0  0  0  0  0  0
  161.9560  211.4980  149.4260 C   0  0  0  0  0  2  0  0  0  0  0  0
  161.3210  212.6980  148.7290 C   0  0  0  0  0  2  0  0  0  0  0  0
  160.9110  212.3820  147.2890 C   0  0  0  0  0  2  0  0  0  0  0  0
  159.7120  212.2080  144.6720 C   0  0  0  0  0  1  0  0  0  0  0  0
  159.4590  212.4500  147.1360 N   0  0  0  0  0  0  0  0  0  0  0  0
  159.0980  213.0060  145.8170 C   0  0  2  0  0  3  0  0  0  0  0  0
  156.9620  213.8660  146.7630 C   0  0  0  0  0  2  0  0  0  0  0  0
  157.4260  213.3780  148.1350 C   0  0  0  0  0  2  0  0  0  0  0  0
  158.9540  213.3500  148.1750 C   0  0  0  0  0  2  0  0  0  0  0  0
  157.5740  213.0030  145.6580 C   0  0  0  0  0  2  0  0  0  0  0  0
  1 11  1  0  0  0  0
  2  8  1  0  0  0  0
  3 10  2  0  0  0  0
  4 13  1  0  0  0  0
  5  9  2  0  0  0  0
  6 12  1  0  0  0  0
  7 15  2  0  0  0  0
  8  3  1  0  0  0  0
  8  1  2  0  0  0  0
  9  1  1  0  0  0  0
 10 14  1  0  0  0  0
 10 16  1  0  0  0  0
 11 16  2  0  0  0  0
 12  2  2  0  0  0  0
 12  5  1  0  0  0  0
 13 14  1  0  0  0  0
 14 19  1  1  0  0  0
 15  4  1  0  0  0  0
 15  3  1  0  0  0  0
 17 23  1  0  0  0  0
 17 18  1  0  0  0  0
 19 21  1  0  0  0  0
 19 22  2  0  0  0  0
 20 18  2  0  0  0  0
 21 17  2  0  0  0  0
 22 20  1  0  0  0  0
 24  4  1  0  0  0  0
 24 25  1  0  0  0  0
 26 25  1  0  0  0  0
 27 26  1  0  0  0  0
 29 27  1  0  0  0  0
 29 33  1  0  0  0  0
 30 28  1  6  0  0  0
 30 29  1  0  0  0  0
 31 32  1  0  0  0  0
 32 33  1  0  0  0  0
 34 30  1  0  0  0  0
 34 31  1  0  0  0  0
M  END
>  <MODEL>
5

>  <REMARK>
 VINA RESULT:      -8.3      2.448      6.046
  Name = 
  6 active torsions:
  status: ('A' for Active; 'I' for Inactive)
    1  A    between atoms: C_3  and  N_13
    2  A    between atoms: C_3  and  C_17
    3  A    between atoms: N_5  and  C_18
    4  A    between atoms: C_12  and  C_28
    5  A    between atoms: C_17  and  C_29
    6  A    between atoms: C_18  and  C_29
                            x       y       z     vdW  Elec       q    Type
                         _______ _______ _______ _____ _____    ______ ____

>  <TORSDO>
F 6

$$$$
=
 OpenBabel11062407583D

 34 38  0  0  1  0  0  0  0  0999 V2000
  160.9000  206.9150  153.8460 C   0  0  0  0  0  0  0  0  0  0  0  0
  160.7380  209.3340  153.8070 C   0  0  0  0  0  3  0  0  0  0  0  0
  161.3910  208.0960  151.7640 C   0  0  0  0  0  0  0  0  0  0  0  0
  161.9490  209.1850  149.5620 N   0  0  0  0  0  0  0  0  0  0  0  0
  160.2470  208.1220  155.8400 C   0  0  0  0  0  3  0  0  0  0  0  0
  160.0580  210.6120  155.8400 C   0  0  0  0  0  1  0  0  0  0  0  0
  161.5520  210.4790  151.4600 O   0  0  0  0  0  0  0  0  0  0  0  0
  161.0200  208.1300  153.1350 C   0  0  0  0  0  0  0  0  0  0  0  0
  160.5190  206.9150  155.1920 C   0  0  0  0  0  3  0  0  0  0  0  0
  161.5980  206.8370  151.1420 C   0  0  0  0  0  0  0  0  0  0  0  0
  161.1640  205.7330  153.2290 N   0  0  0  0  0  0  0  0  0  0  0  0
  160.3570  209.3290  155.1510 C   0  0  0  0  0  0  0  0  0  0  0  0
  161.5950  207.9540  148.8750 C   0  0  0  0  0  2  0  0  0  0  0  0
  162.0620  206.7440  149.6880 C   0  0  2  0  0  3  0  0  0  0  0  0
  161.6100  209.3330  150.9480 C   0  0  0  0  0  0  0  0  0  0  0  0
  161.5100  205.6750  151.9220 C   0  0  0  0  0  3  0  0  0  0  0  0
  161.5050  204.0940  147.0490 C   0  0  0  0  0  0  0  0  0  0  0  0
  161.0700  203.0560  147.8170 N   0  0  0  0  0  0  0  0  0  0  0  0
  161.6340  205.4560  149.0210 C   0  0  0  0  0  0  0  0  0  0  0  0
  160.8820  203.2070  149.1490 C   0  0  0  0  0  3  0  0  0  0  0  0
  161.8060  205.3170  147.6430 C   0  0  0  0  0  3  0  0  0  0  0  0
  161.1900  204.3920  149.7520 N   0  0  0  0  0  0  0  0  0  0  0  0
  161.7540  203.8900  145.6000 C   0  0  0  0  0  1  0  0  0  0  0  0
  162.5100  210.2840  148.7880 C   0  0  0  0  0  2  0  0  0  0  0  0
  161.4030  211.2470  148.3740 C   0  0  0  0  0  2  0  0  0  0  0  0
  161.7810  212.6980  148.6540 C   0  0  0  0  0  2  0  0  0  0  0  0
  160.9240  213.6850  147.8570 C   0  0  0  0  0  2  0  0  0  0  0  0
  160.8510  213.0030  145.0560 C   0  0  0  0  0  1  0  0  0  0  0  0
  159.7540  213.0150  147.2910 N   0  0  0  0  0  0  0  0  0  0  0  0
  159.6030  213.3500  145.8610 C   0  0  2  0  0  3  0  0  0  0  0  0
  157.1460  212.9900  146.0350 C   0  0  0  0  0  2  0  0  0  0  0  0
  157.3310  212.7640  147.5360 C   0  0  0  0  0  2  0  0  0  0  0  0
  158.5790  213.5090  148.0120 C   0  0  0  0  0  2  0  0  0  0  0  0
  158.4110  212.5840  145.2770 C   0  0  0  0  0  2  0  0  0  0  0  0
  1  9  2  0  0  0  0
  2 12  1  0  0  0  0
  3  8  1  0  0  0  0
  4 15  1  0  0  0  0
  8  2  2  0  0  0  0
  8  1  1  0  0  0  0
  9  5  1  0  0  0  0
 10  3  2  0  0  0  0
 10 16  1  0  0  0  0
 11  1  1  0  0  0  0
 12  5  2  0  0  0  0
 12  6  1  0  0  0  0
 13  4  1  0  0  0  0
 13 14  1  0  0  0  0
 14 19  1  6  0  0  0
 14 10  1  0  0  0  0
 15  7  2  0  0  0  0
 15  3  1  0  0  0  0
 16 11  2  0  0  0  0
 17 21  2  0  0  0  0
 17 18  1  0  0  0  0
 18 20  2  0  0  0  0
 19 22  2  0  0  0  0
 20 22  1  0  0  0  0
 21 19  1  0  0  0  0
 23 17  1  0  0  0  0
 24  4  1  0  0  0  0
 25 26  1  0  0  0  0
 25 24  1  0  0  0  0
 27 26  1  0  0  0  0
 29 27  1  0  0  0  0
 29 33  1  0  0  0  0
 30 28  1  6  0  0  0
 30 29  1  0  0  0  0
 31 32  1  0  0  0  0
 32 33  1  0  0  0  0
 34 30  1  0  0  0  0
 34 31  1  0  0  0  0
M  END
>  <MODEL>
6

>  <REMARK>
 VINA RESULT:      -8.3      2.509      7.572
  Name = 
  6 active torsions:
  status: ('A' for Active; 'I' for Inactive)
    1  A    between atoms: C_3  and  N_13
    2  A    between atoms: C_3  and  C_17
    3  A    between atoms: N_5  and  C_18
    4  A    between atoms: C_12  and  C_28
    5  A    between atoms: C_17  and  C_29
    6  A    between atoms: C_18  and  C_29
                            x       y       z     vdW  Elec       q    Type
                         _______ _______ _______ _____ _____    ______ ____

>  <TORSDO>
F 6

$$$$
=
 OpenBabel11062407583D

 34 38  0  0  1  0  0  0  0  0999 V2000
  161.7280  206.5630  148.5890 C   0  0  0  0  0  0  0  0  0  0  0  0
  161.0160  205.2760  150.5160 C   0  0  0  0  0  3  0  0  0  0  0  0
  161.4320  207.7080  150.7280 C   0  0  0  0  0  0  0  0  0  0  0  0
  161.1940  209.0070  152.8720 N   0  0  0  0  0  0  0  0  0  0  0  0
  161.3070  204.1890  148.3760 C   0  0  0  0  0  3  0  0  0  0  0  0
  160.5620  202.8280  150.3320 C   0  0  0  0  0  1  0  0  0  0  0  0
  160.9710  206.6870  152.8590 O   0  0  0  0  0  0  0  0  0  0  0  0
  161.3980  206.5120  149.9620 C   0  0  0  0  0  0  0  0  0  0  0  0
  161.6850  205.4060  147.8040 C   0  0  0  0  0  3  0  0  0  0  0  0
  161.7680  208.9250  150.0800 C   0  0  0  0  0  0  0  0  0  0  0  0
  162.1010  207.7400  148.0190 N   0  0  0  0  0  0  0  0  0  0  0  0
  160.9740  204.1220  149.7280 C   0  0  0  0  0  0  0  0  0  0  0  0
  160.9770  210.2200  152.1020 C   0  0  0  0  0  2  0  0  0  0  0  0
  161.8850  210.2300  150.8690 C   0  0  2  0  0  3  0  0  0  0  0  0
  161.1660  207.7390  152.2010 C   0  0  0  0  0  0  0  0  0  0  0  0
  162.1330  208.8930  148.7260 C   0  0  0  0  0  3  0  0  0  0  0  0
  162.0200  212.7000  148.0090 C   0  0  0  0  0  0  0  0  0  0  0  0
  161.0010  213.5390  148.3480 N   0  0  0  0  0  0  0  0  0  0  0  0
  161.6160  211.4520  150.0190 C   0  0  0  0  0  0  0  0  0  0  0  0
  160.3190  213.3740  149.5060 C   0  0  0  0  0  3  0  0  0  0  0  0
  162.3400  211.6290  148.8390 C   0  0  0  0  0  3  0  0  0  0  0  0
  160.6060  212.3190  150.3220 N   0  0  0  0  0  0  0  0  0  0  0  0
  162.7170  212.8680  146.7100 C   0  0  0  0  0  1  0  0  0  0  0  0
  161.2910  209.1050  154.3220 C   0  0  0  0  0  2  0  0  0  0  0  0
  160.3450  210.1840  154.8360 C   0  0  0  0  0  2  0  0  0  0  0  0
  159.7180  209.7970  156.1730 C   0  0  0  0  0  2  0  0  0  0  0  0
  159.0170  210.9780  156.8480 C   0  0  0  0  0  2  0  0  0  0  0  0
  159.8490  213.7070  156.4260 C   0  0  0  0  0  1  0  0  0  0  0  0
  158.3370  211.8130  155.8580 N   0  0  0  0  0  0  0  0  0  0  0  0
  158.4110  213.2370  156.2380 C   0  0  2  0  0  3  0  0  0  0  0  0
  156.2870  213.6740  155.0160 C   0  0  0  0  0  2  0  0  0  0  0  0
  156.1880  212.1730  154.7440 C   0  0  0  0  0  2  0  0  0  0  0  0
  156.9300  211.4070  155.8390 C   0  0  0  0  0  2  0  0  0  0  0  0
  157.7500  214.0940  155.1520 C   0  0  0  0  0  2  0  0  0  0  0  0
  1  8  1  0  0  0  0
  3 15  1  0  0  0  0
  4 24  1  0  0  0  0
  5 12  1  0  0  0  0
  8  2  1  0  0  0  0
  8  3  2  0  0  0  0
  9  5  2  0  0  0  0
  9  1  1  0  0  0  0
 10  3  1  0  0  0  0
 10 14  1  0  0  0  0
 11  1  2  0  0  0  0
 11 16  1  0  0  0  0
 12  6  1  0  0  0  0
 12  2  2  0  0  0  0
 13  4  1  0  0  0  0
 14 19  1  6  0  0  0
 14 13  1  0  0  0  0
 15  7  2  0  0  0  0
 15  4  1  0  0  0  0
 16 10  2  0  0  0  0
 17 18  2  0  0  0  0
 17 21  1  0  0  0  0
 18 20  1  0  0  0  0
 19 22  1  0  0  0  0
 20 22  2  0  0  0  0
 21 19  2  0  0  0  0
 23 17  1  0  0  0  0
 24 25  1  0  0  0  0
 25 26  1  0  0  0  0
 26 27  1  0  0  0  0
 29 30  1  0  0  0  0
 29 27  1  0  0  0  0
 30 28  1  6  0  0  0
 31 34  1  0  0  0  0
 32 31  1  0  0  0  0
 32 33  1  0  0  0  0
 33 29  1  0  0  0  0
 34 30  1  0  0  0  0
M  END
>  <MODEL>
7

>  <REMARK>
 VINA RESULT:      -7.8      1.493      2.291
  Name = 
  6 active torsions:
  status: ('A' for Active; 'I' for Inactive)
    1  A    between atoms: C_3  and  N_13
    2  A    between atoms: C_3  and  C_17
    3  A    between atoms: N_5  and  C_18
    4  A    between atoms: C_12  and  C_28
    5  A    between atoms: C_17  and  C_29
    6  A    between atoms: C_18  and  C_29
                            x       y       z     vdW  Elec       q    Type
                         _______ _______ _______ _____ _____    ______ ____

>  <TORSDO>
F 6

$$$$
=
 OpenBabel11062407583D

 34 38  0  0  1  0  0  0  0  0999 V2000
  161.1950  206.6750  152.9920 C   0  0  0  0  0  0  0  0  0  0  0  0
  160.8380  208.9380  153.7850 C   0  0  0  0  0  3  0  0  0  0  0  0
  161.5050  208.5330  151.4340 C   0  0  0  0  0  0  0  0  0  0  0  0
  161.8850  210.3510  149.7330 N   0  0  0  0  0  0  0  0  0  0  0  0
  160.5280  207.0680  155.2850 C   0  0  0  0  0  3  0  0  0  0  0  0
  160.1410  209.3810  156.1400 C   0  0  0  0  0  1  0  0  0  0  0  0
  161.4620  210.8810  151.9640 O   0  0  0  0  0  0  0  0  0  0  0  0
  161.1880  208.0650  152.7380 C   0  0  0  0  0  0  0  0  0  0  0  0
  160.8700  206.1830  154.2600 C   0  0  0  0  0  3  0  0  0  0  0  0
  161.7870  207.5840  150.4170 C   0  0  0  0  0  0  0  0  0  0  0  0
  161.5270  205.8020  152.0050 N   0  0  0  0  0  0  0  0  0  0  0  0
  160.5130  208.4420  155.0510 C   0  0  0  0  0  0  0  0  0  0  0  0
  161.6030  209.4010  148.6700 C   0  0  0  0  0  2  0  0  0  0  0  0
  162.1980  208.0330  149.0140 C   0  0  2  0  0  3  0  0  0  0  0  0
  161.5910  209.9880  151.0900 C   0  0  0  0  0  0  0  0  0  0  0  0
  161.8240  206.2230  150.7530 C   0  0  0  0  0  3  0  0  0  0  0  0
  162.5250  205.2320  146.4960 C   0  0  0  0  0  0  0  0  0  0  0  0
  161.2160  205.0180  146.1810 N   0  0  0  0  0  0  0  0  0  0  0  0
  161.8480  207.0160  147.9510 C   0  0  0  0  0  0  0  0  0  0  0  0
  160.2380  205.7970  146.7010 C   0  0  0  0  0  3  0  0  0  0  0  0
  162.8640  206.2350  147.4000 C   0  0  0  0  0  3  0  0  0  0  0  0
  160.5510  206.7710  147.6040 N   0  0  0  0  0  0  0  0  0  0  0  0
  163.5740  204.3320  145.9550 C   0  0  0  0  0  1  0  0  0  0  0  0
  162.3240  211.6930  149.3770 C   0  0  0  0  0  2  0  0  0  0  0  0
  162.0840  211.9430  147.8930 C   0  0  0  0  0  2  0  0  0  0  0  0
  162.3070  213.4060  147.5220 C   0  0  0  0  0  2  0  0  0  0  0  0
  161.0440  214.0610  146.9590 C   0  0  0  0  0  2  0  0  0  0  0  0
  159.3280  212.4680  145.2730 C   0  0  0  0  0  1  0  0  0  0  0  0
  159.8440  213.4320  147.5100 N   0  0  0  0  0  0  0  0  0  0  0  0
  158.8140  213.2690  146.4650 C   0  0  2  0  0  3  0  0  0  0  0  0
  157.0340  213.3890  148.2000 C   0  0  0  0  0  2  0  0  0  0  0  0
  158.1230  213.6730  149.2340 C   0  0  0  0  0  2  0  0  0  0  0  0
  159.3210  214.3270  148.5440 C   0  0  0  0  0  2  0  0  0  0  0  0
  157.5960  212.5490  147.0530 C   0  0  0  0  0  2  0  0  0  0  0  0
  1  9  2  0  0  0  0
  2 12  1  0  0  0  0
  3  8  1  0  0  0  0
  4 15  1  0  0  0  0
  8  1  1  0  0  0  0
  8  2  2  0  0  0  0
  9  5  1  0  0  0  0
 10 16  1  0  0  0  0
 10  3  2  0  0  0  0
 11  1  1  0  0  0  0
 12  5  2  0  0  0  0
 12  6  1  0  0  0  0
 13 14  1  0  0  0  0
 13  4  1  0  0  0  0
 14 19  1  6  0  0  0
 14 10  1  0  0  0  0
 15  3  1  0  0  0  0
 15  7  2  0  0  0  0
 16 11  2  0  0  0  0
 17 21  1  0  0  0  0
 18 17  2  0  0  0  0
 18 20  1  0  0  0  0
 20 22  2  0  0  0  0
 21 19  2  0  0  0  0
 22 19  1  0  0  0  0
 23 17  1  0  0  0  0
 24  4  1  0  0  0  0
 25 24  1  0  0  0  0
 26 25  1  0  0  0  0
 27 29  1  0  0  0  0
 27 26  1  0  0  0  0
 29 33  1  0  0  0  0
 30 28  1  6  0  0  0
 30 34  1  0  0  0  0
 30 29  1  0  0  0  0
 31 32  1  0  0  0  0
 33 32  1  0  0  0  0
 34 31  1  0  0  0  0
M  END
>  <MODEL>
8

>  <REMARK>
 VINA RESULT:      -7.6      2.469      7.142
  Name = 
  6 active torsions:
  status: ('A' for Active; 'I' for Inactive)
    1  A    between atoms: C_3  and  N_13
    2  A    between atoms: C_3  and  C_17
    3  A    between atoms: N_5  and  C_18
    4  A    between atoms: C_12  and  C_28
    5  A    between atoms: C_17  and  C_29
    6  A    between atoms: C_18  and  C_29
                            x       y       z     vdW  Elec       q    Type
                         _______ _______ _______ _____ _____    ______ ____

>  <TORSDO>
F 6

$$$$
=
 OpenBabel11062407583D

 34 38  0  0  1  0  0  0  0  0999 V2000
  159.7170  213.7210  151.1040 C   0  0  0  0  0  0  0  0  0  0  0  0
  161.0890  211.9400  150.1940 C   0  0  0  0  0  3  0  0  0  0  0  0
  160.1870  211.7670  152.4940 C   0  0  0  0  0  0  0  0  0  0  0  0
  160.6140  209.8280  154.0440 N   0  0  0  0  0  0  0  0  0  0  0  0
  160.5840  213.8850  148.8500 C   0  0  0  0  0  3  0  0  0  0  0  0
  161.9920  212.0700  147.8710 C   0  0  0  0  0  1  0  0  0  0  0  0
  161.6930  209.9600  151.9820 O   0  0  0  0  0  0  0  0  0  0  0  0
  160.3470  212.4660  151.2680 C   0  0  0  0  0  0  0  0  0  0  0  0
  159.8400  214.4240  149.9010 C   0  0  0  0  0  3  0  0  0  0  0  0
  159.3710  212.3370  153.5060 C   0  0  0  0  0  0  0  0  0  0  0  0
  158.9910  214.2590  152.1190 N   0  0  0  0  0  0  0  0  0  0  0  0
  161.2090  212.6470  148.9950 C   0  0  0  0  0  0  0  0  0  0  0  0
  159.3890  210.1430  154.7600 C   0  0  0  0  0  2  0  0  0  0  0  0
  159.2190  211.6600  154.8690 C   0  0  2  0  0  3  0  0  0  0  0  0
  160.8720  210.4670  152.7860 C   0  0  0  0  0  0  0  0  0  0  0  0
  158.8180  213.6080  153.2920 C   0  0  0  0  0  3  0  0  0  0  0  0
  155.6920  211.3610  156.1980 C   0  0  0  0  0  0  0  0  0  0  0  0
  155.6030  212.4970  156.9450 N   0  0  0  0  0  0  0  0  0  0  0  0
  157.9100  212.0020  155.5460 C   0  0  0  0  0  0  0  0  0  0  0  0
  156.6190  213.3910  156.9750 C   0  0  0  0  0  3  0  0  0  0  0  0
  156.8590  211.0870  155.4900 C   0  0  0  0  0  3  0  0  0  0  0  0
  157.7770  213.1310  156.3030 N   0  0  0  0  0  0  0  0  0  0  0  0
  154.5870  210.3700  156.2230 C   0  0  0  0  0  1  0  0  0  0  0  0
  161.4740  208.7690  154.5560 C   0  0  0  0  0  2  0  0  0  0  0  0
  160.7830  207.4190  154.4050 C   0  0  0  0  0  2  0  0  0  0  0  0
  161.5720  206.4770  153.5000 C   0  0  0  0  0  2  0  0  0  0  0  0
  161.1420  206.5850  152.0350 C   0  0  0  0  0  2  0  0  0  0  0  0
  160.8280  206.4470  149.1710 C   0  0  0  0  0  1  0  0  0  0  0  0
  161.4100  205.3370  151.3220 N   0  0  0  0  0  0  0  0  0  0  0  0
  160.5980  205.2540  150.0930 C   0  0  2  0  0  3  0  0  0  0  0  0
  160.6440  202.7690  150.2290 C   0  0  0  0  0  2  0  0  0  0  0  0
  161.3830  202.9010  151.5610 C   0  0  0  0  0  2  0  0  0  0  0  0
  161.0260  204.2380  152.2100 C   0  0  0  0  0  2  0  0  0  0  0  0
  160.9470  203.9700  149.3320 C   0  0  0  0  0  2  0  0  0  0  0  0
  1  8  2  0  0  0  0
  1 11  1  0  0  0  0
  2  8  1  0  0  0  0
  3 15  1  0  0  0  0
  3 10  2  0  0  0  0
  4 24  1  0  0  0  0
  4 13  1  0  0  0  0
  5 12  1  0  0  0  0
  5  9  2  0  0  0  0
  6 12  1  0  0  0  0
  7 15  2  0  0  0  0
  8  3  1  0  0  0  0
  9  1  1  0  0  0  0
 10 14  1  0  0  0  0
 11 16  2  0  0  0  0
 12  2  2  0  0  0  0
 13 14  1  0  0  0  0
 14 19  1  6  0  0  0
 15  4  1  0  0  0  0
 16 10  1  0  0  0  0
 17 23  1  0  0  0  0
 17 18  1  0  0  0  0
 18 20  2  0  0  0  0
 19 22  2  0  0  0  0
 21 19  1  0  0  0  0
 21 17  2  0  0  0  0
 22 20  1  0  0  0  0
 25 24  1  0  0  0  0
 26 25  1  0  0  0  0
 27 26  1  0  0  0  0
 29 27  1  0  0  0  0
 29 33  1  0  0  0  0
 30 28  1  6  0  0  0
 30 29  1  0  0  0  0
 31 32  1  0  0  0  0
 32 33  1  0  0  0  0
 34 30  1  0  0  0  0
 34 31  1  0  0  0  0
M  END
>  <MODEL>
9

>  <REMARK>
 VINA RESULT:      -7.3      2.247      7.702
  Name = 
  6 active torsions:
  status: ('A' for Active; 'I' for Inactive)
    1  A    between atoms: C_3  and  N_13
    2  A    between atoms: C_3  and  C_17
    3  A    between atoms: N_5  and  C_18
    4  A    between atoms: C_12  and  C_28
    5  A    between atoms: C_17  and  C_29
    6  A    between atoms: C_18  and  C_29
                            x       y       z     vdW  Elec       q    Type
                         _______ _______ _______ _____ _____    ______ ____

>  <TORSDO>
F 6

$$$$
