=
 OpenBabel11062410213D

 43 46  0  0  1  0  0  0  0  0999 V2000
  161.3300  212.4460  149.0070 C   0  0  0  0  0  1  0  0  0  0  0  0
  160.3340  211.6360  152.5910 C   0  0  0  0  0  0  0  0  0  0  0  0
  161.7010  210.3920  150.4570 C   0  0  0  0  0  0  0  0  0  0  0  0
  159.9330  210.2890  155.0930 C   0  0  0  0  0  0  0  0  0  0  0  0
  160.7170  209.5550  154.0370 C   0  0  2  0  0  3  0  0  0  0  0  0
  160.0490  209.9810  156.2690 O   0  0  0  0  0  0  0  0  0  0  0  0
  161.5290  209.7360  151.6750 C   0  0  0  0  0  3  0  0  0  0  0  0
  160.8510  210.3310  152.7400 C   0  0  0  0  0  0  0  0  0  0  0  0
  159.7250  212.3450  153.7770 C   0  0  0  0  0  2  0  0  0  0  0  0
  160.4930  212.3180  151.3670 C   0  0  0  0  0  0  0  0  0  0  0  0
  161.1760  211.6990  150.2950 C   0  0  0  0  0  0  0  0  0  0  0  0
  158.9960  211.3820  154.7000 C   0  0  0  0  0  2  0  0  0  0  0  0
  159.9240  213.7030  151.2040 C   0  0  0  0  0  2  0  0  0  0  0  0
  158.3990  214.4530  147.8180 C   0  0  0  0  0  3  0  0  0  0  0  0
  157.1300  213.8750  147.9420 C   0  0  0  0  0  0  0  0  0  0  0  0
  157.6880  213.1740  150.1980 C   0  0  0  0  0  3  0  0  0  0  0  0
  159.3080  214.3940  148.8770 C   0  0  0  0  0  3  0  0  0  0  0  0
  158.9550  213.7540  150.0680 C   0  0  0  0  0  0  0  0  0  0  0  0
  156.7800  213.2330  149.1400 C   0  0  0  0  0  3  0  0  0  0  0  0
  156.2440  213.9540  146.8640 O   0  0  0  0  0  0  0  0  0  0  0  0
  156.6710  214.2290  145.5390 C   0  0  0  0  0  1  0  0  0  0  0  0
  162.4040  209.6730  149.4310 N   0  0  0  0  0  2  0  0  0  0  0  0
  161.8130  208.9310  148.3280 C   0  0  0  0  0  2  0  0  0  0  0  0
  161.9750  207.4410  148.5670 C   0  0  1  0  0  3  0  0  0  0  0  0
  160.7760  206.9140  149.3290 C   0  0  0  0  0  1  0  0  0  0  0  0
  162.0850  206.7140  147.2310 C   0  0  0  0  0  2  0  0  0  0  0  0
  161.1400  205.5990  147.0720 N   0  0  0  0  0  0  0  0  0  0  0  0
  161.9540  204.0630  146.9230 S   0  0  0  0  0  0  0  0  0  0  0  0
  161.3950  203.2840  145.7630 O   0  0  0  0  0  0  0  0  0  0  0  0
  163.4210  204.3030  146.6880 O   0  0  0  0  0  0  0  0  0  0  0  0
  161.7350  203.1470  148.3810 N   0  0  0  0  0  0  0  0  0  0  0  0
  160.6050  201.1030  149.2660 C   0  0  0  0  0  2  0  0  0  0  0  0
  160.7100  203.2240  150.6280 C   0  0  0  0  0  2  0  0  0  0  0  0
  161.0880  201.7410  150.5680 C   0  0  0  0  0  2  0  0  0  0  0  0
  160.8770  203.9260  149.2740 C   0  0  0  0  0  2  0  0  0  0  0  0
  161.0370  201.9050  148.0270 C   0  0  0  0  0  2  0  0  0  0  0  0
  160.1550  205.8250  146.0080 C   0  0  0  0  0  2  0  0  0  0  0  0
  161.0690  205.6890  144.0020 C   0  0  0  0  0  1  0  0  0  0  0  0
  160.6750  206.6090  144.9740 O   0  0  0  0  0  0  0  0  0  0  0  0
  160.1740  208.1370  153.8280 C   0  0  0  0  0  2  0  0  0  0  0  0
  161.0130  207.0840  154.5460 C   0  0  0  0  0  2  0  0  0  0  0  0
  161.1970  205.8600  153.6650 C   0  0  0  0  0  2  0  0  0  0  0  0
  162.1260  206.1760  152.5050 C   0  0  0  0  0  1  0  0  0  0  0  0
  1 11  1  0  0  0  0
  2  8  1  0  0  0  0
  2  9  1  0  0  0  0
  3  7  1  0  0  0  0
  4  6  2  0  0  0  0
  5 40  1  6  0  0  0
  5  4  1  0  0  0  0
  7  8  2  0  0  0  0
  8  5  1  0  0  0  0
  9 12  1  0  0  0  0
 10  2  2  0  0  0  0
 11  3  2  0  0  0  0
 11 10  1  0  0  0  0
 12  4  1  0  0  0  0
 13 10  1  0  0  0  0
 14 15  2  0  0  0  0
 14 17  1  0  0  0  0
 15 19  1  0  0  0  0
 17 18  2  0  0  0  0
 18 16  1  0  0  0  0
 18 13  1  0  0  0  0
 19 16  2  0  0  0  0
 20 15  1  0  0  0  0
 21 20  1  0  0  0  0
 22  3  1  0  0  0  0
 23 24  1  0  0  0  0
 23 22  1  0  0  0  0
 24 25  1  6  0  0  0
 26 24  1  0  0  0  0
 27 26  1  0  0  0  0
 28 27  1  0  0  0  0
 28 31  1  0  0  0  0
 29 28  2  0  0  0  0
 30 28  2  0  0  0  0
 31 35  1  0  0  0  0
 32 34  1  0  0  0  0
 34 33  1  0  0  0  0
 35 33  1  0  0  0  0
 36 31  1  0  0  0  0
 36 32  1  0  0  0  0
 37 27  1  0  0  0  0
 38 39  1  0  0  0  0
 39 37  1  0  0  0  0
 40 41  1  0  0  0  0
 42 41  1  0  0  0  0
 43 42  1  0  0  0  0
M  END
>  <MODEL>
1

>  <REMARK>
 VINA RESULT:      -6.9      0.000      0.000
  Name = 
  15 active torsions:
  status: ('A' for Active; 'I' for Inactive)
    1  A    between atoms: C_1  and  C_34
    2  A    between atoms: C_1  and  C_35
    3  A    between atoms: N_2  and  C_6
    4  A    between atoms: N_2  and  C_13
    5  A    between atoms: C_3  and  N_4
    6  A    between atoms: C_3  and  C_12
    7  A    between atoms: N_4  and  S_14
    8  A    between atoms: N_4  and  C_42
    9  A    between atoms: C_5  and  C_18
   10  A    between atoms: C_6  and  C_12
   11  A    between atoms: N_11  and  S_14
   12  A    between atoms: O_15  and  C_42
   13  A    between atoms: C_18  and  C_24
   14  A    between atoms: C_19  and  O_25
   15  A    between atoms: C_21  and  C_24
                            x       y       z     vdW  Elec       q    Type
                         _______ _______ _______ _____ _____    ______ ____

>  <TORSDO>
F 15

$$$$
=
 OpenBabel11062410213D

 43 46  0  0  1  0  0  0  0  0999 V2000
  162.9930  207.3060  149.8590 C   0  0  0  0  0  1  0  0  0  0  0  0
  161.2360  208.1290  153.1340 C   0  0  0  0  0  0  0  0  0  0  0  0
  161.7470  209.3730  150.6520 C   0  0  0  0  0  0  0  0  0  0  0  0
  159.8070  209.4880  155.2190 C   0  0  0  0  0  0  0  0  0  0  0  0
  159.9840  210.2240  153.9160 C   0  0  2  0  0  3  0  0  0  0  0  0
  158.9130  209.8060  155.9860 O   0  0  0  0  0  0  0  0  0  0  0  0
  161.0340  210.0360  151.6500 C   0  0  0  0  0  3  0  0  0  0  0  0
  160.7770  209.4410  152.8860 C   0  0  0  0  0  0  0  0  0  0  0  0
  160.8440  207.4210  154.4090 C   0  0  0  0  0  2  0  0  0  0  0  0
  161.9620  207.4410  152.1400 C   0  0  0  0  0  0  0  0  0  0  0  0
  162.2210  208.0600  150.8960 C   0  0  0  0  0  0  0  0  0  0  0  0
  160.7410  208.3830  155.5820 C   0  0  0  0  0  2  0  0  0  0  0  0
  162.4680  206.0490  152.4130 C   0  0  0  0  0  2  0  0  0  0  0  0
  161.1130  202.7540  151.1260 C   0  0  0  0  0  3  0  0  0  0  0  0
  160.4570  203.1520  149.9560 C   0  0  0  0  0  0  0  0  0  0  0  0
  161.1060  205.4500  150.3940 C   0  0  0  0  0  3  0  0  0  0  0  0
  161.7640  203.6960  151.9260 C   0  0  0  0  0  3  0  0  0  0  0  0
  161.7610  205.0450  151.5620 C   0  0  0  0  0  0  0  0  0  0  0  0
  160.4560  204.5090  149.5950 C   0  0  0  0  0  3  0  0  0  0  0  0
  159.8170  202.1840  149.1770 O   0  0  0  0  0  0  0  0  0  0  0  0
  160.5210  201.3180  148.3000 C   0  0  0  0  0  1  0  0  0  0  0  0
  161.9600  210.0930  149.4270 N   0  0  0  0  0  2  0  0  0  0  0  0
  162.1540  211.5280  149.2830 C   0  0  0  0  0  2  0  0  0  0  0  0
  161.0020  212.1240  148.4950 C   0  0  1  0  0  3  0  0  0  0  0  0
  160.6110  213.4600  149.0950 C   0  0  0  0  0  1  0  0  0  0  0  0
  161.4230  212.3260  147.0420 C   0  0  0  0  0  2  0  0  0  0  0  0
  160.9290  213.5720  146.4400 N   0  0  0  0  0  0  0  0  0  0  0  0
  159.5680  213.2970  145.3820 S   0  0  0  0  0  0  0  0  0  0  0  0
  158.8520  212.0300  145.7660 O   0  0  0  0  0  0  0  0  0  0  0  0
  158.6120  214.4530  145.4990 O   0  0  0  0  0  0  0  0  0  0  0  0
  160.1260  213.1590  143.7440 N   0  0  0  0  0  0  0  0  0  0  0  0
  159.5060  213.7580  141.4000 C   0  0  0  0  0  2  0  0  0  0  0  0
  160.5700  211.5340  141.9370 C   0  0  0  0  0  2  0  0  0  0  0  0
  160.7020  212.8390  141.1470 C   0  0  0  0  0  2  0  0  0  0  0  0
  160.0070  211.7570  143.3460 C   0  0  0  0  0  2  0  0  0  0  0  0
  159.2350  213.9630  142.9000 C   0  0  0  0  0  2  0  0  0  0  0  0
  161.9880  214.3670  145.8050 C   0  0  0  0  0  2  0  0  0  0  0  0
  163.4040  214.2050  144.1190 C   0  0  0  0  0  1  0  0  0  0  0  0
  163.0070  213.5600  145.2900 O   0  0  0  0  0  0  0  0  0  0  0  0
  160.5370  211.6340  154.1450 C   0  0  0  0  0  2  0  0  0  0  0  0
  159.4370  212.6920  154.1740 C   0  0  0  0  0  2  0  0  0  0  0  0
  158.2810  212.2800  153.2790 C   0  0  0  0  0  2  0  0  0  0  0  0
  157.0010  212.1580  154.0860 C   0  0  0  0  0  1  0  0  0  0  0  0
  1 11  1  0  0  0  0
  2  9  1  0  0  0  0
  3 11  2  0  0  0  0
  3  7  1  0  0  0  0
  4 12  1  0  0  0  0
  4  6  2  0  0  0  0
  5 40  1  1  0  0  0
  5  4  1  0  0  0  0
  7  8  2  0  0  0  0
  8  2  1  0  0  0  0
  8  5  1  0  0  0  0
  9 12  1  0  0  0  0
 10 13  1  0  0  0  0
 10  2  2  0  0  0  0
 11 10  1  0  0  0  0
 14 17  1  0  0  0  0
 15 14  2  0  0  0  0
 16 18  1  0  0  0  0
 18 17  2  0  0  0  0
 18 13  1  0  0  0  0
 19 15  1  0  0  0  0
 19 16  2  0  0  0  0
 20 15  1  0  0  0  0
 21 20  1  0  0  0  0
 22  3  1  0  0  0  0
 23 22  1  0  0  0  0
 24 25  1  1  0  0  0
 24 23  1  0  0  0  0
 26 24  1  0  0  0  0
 27 26  1  0  0  0  0
 28 30  2  0  0  0  0
 28 29  2  0  0  0  0
 28 27  1  0  0  0  0
 31 28  1  0  0  0  0
 32 36  1  0  0  0  0
 33 35  1  0  0  0  0
 34 32  1  0  0  0  0
 34 33  1  0  0  0  0
 35 31  1  0  0  0  0
 36 31  1  0  0  0  0
 37 27  1  0  0  0  0
 38 39  1  0  0  0  0
 39 37  1  0  0  0  0
 40 41  1  0  0  0  0
 42 43  1  0  0  0  0
 42 41  1  0  0  0  0
M  END
>  <MODEL>
2

>  <REMARK>
 VINA RESULT:      -6.6      3.336      8.384
  Name = 
  15 active torsions:
  status: ('A' for Active; 'I' for Inactive)
    1  A    between atoms: C_1  and  C_34
    2  A    between atoms: C_1  and  C_35
    3  A    between atoms: N_2  and  C_6
    4  A    between atoms: N_2  and  C_13
    5  A    between atoms: C_3  and  N_4
    6  A    between atoms: C_3  and  C_12
    7  A    between atoms: N_4  and  S_14
    8  A    between atoms: N_4  and  C_42
    9  A    between atoms: C_5  and  C_18
   10  A    between atoms: C_6  and  C_12
   11  A    between atoms: N_11  and  S_14
   12  A    between atoms: O_15  and  C_42
   13  A    between atoms: C_18  and  C_24
   14  A    between atoms: C_19  and  O_25
   15  A    between atoms: C_21  and  C_24
                            x       y       z     vdW  Elec       q    Type
                         _______ _______ _______ _____ _____    ______ ____

>  <TORSDO>
F 15

$$$$
=
 OpenBabel11062410213D

 43 46  0  0  1  0  0  0  0  0999 V2000
  161.8820  211.6080  150.9450 C   0  0  0  0  0  1  0  0  0  0  0  0
  161.7010  207.9840  152.0950 C   0  0  0  0  0  0  0  0  0  0  0  0
  161.7420  209.4180  149.6640 C   0  0  0  0  0  0  0  0  0  0  0  0
  161.4970  205.1220  152.1360 C   0  0  0  0  0  0  0  0  0  0  0  0
  161.5590  205.7850  150.7850 C   0  0  2  0  0  3  0  0  0  0  0  0
  161.8000  203.9450  152.2560 O   0  0  0  0  0  0  0  0  0  0  0  0
  161.6630  208.0270  149.6710 C   0  0  0  0  0  3  0  0  0  0  0  0
  161.6340  207.2990  150.8620 C   0  0  0  0  0  0  0  0  0  0  0  0
  161.8150  207.2060  153.3840 C   0  0  0  0  0  2  0  0  0  0  0  0
  161.7780  209.3920  152.1120 C   0  0  0  0  0  0  0  0  0  0  0  0
  161.7980  210.1150  150.8970 C   0  0  0  0  0  0  0  0  0  0  0  0
  161.0430  205.8980  153.3260 C   0  0  0  0  0  2  0  0  0  0  0  0
  161.8300  210.1220  153.4280 C   0  0  0  0  0  2  0  0  0  0  0  0
  158.2020  211.1900  153.6510 C   0  0  0  0  0  3  0  0  0  0  0  0
  157.8820  210.8400  154.9670 C   0  0  0  0  0  0  0  0  0  0  0  0
  160.1420  210.0100  155.2790 C   0  0  0  0  0  3  0  0  0  0  0  0
  159.4850  210.9530  153.1490 C   0  0  0  0  0  3  0  0  0  0  0  0
  160.4560  210.3630  153.9620 C   0  0  0  0  0  0  0  0  0  0  0  0
  158.8610  210.2470  155.7800 C   0  0  0  0  0  3  0  0  0  0  0  0
  156.5910  211.0930  155.4380 O   0  0  0  0  0  0  0  0  0  0  0  0
  155.4380  210.4770  154.8830 C   0  0  0  0  0  1  0  0  0  0  0  0
  161.7500  210.0560  148.3760 N   0  0  0  0  0  2  0  0  0  0  0  0
  162.0050  211.4630  148.1040 C   0  0  0  0  0  2  0  0  0  0  0  0
  160.7820  212.0890  147.4590 C   0  0  1  0  0  3  0  0  0  0  0  0
  160.1460  213.0720  148.4210 C   0  0  0  0  0  1  0  0  0  0  0  0
  161.1910  212.8210  146.1840 C   0  0  0  0  0  2  0  0  0  0  0  0
  160.5730  212.2910  144.9610 N   0  0  0  0  0  0  0  0  0  0  0  0
  161.3390  212.9030  143.5170 S   0  0  0  0  0  0  0  0  0  0  0  0
  160.9880  214.3510  143.3110 O   0  0  0  0  0  0  0  0  0  0  0  0
  162.8320  212.7780  143.6620 O   0  0  0  0  0  0  0  0  0  0  0  0
  160.8030  211.9870  142.1440 N   0  0  0  0  0  0  0  0  0  0  0  0
  161.5840  211.1120  139.9390 C   0  0  0  0  0  2  0  0  0  0  0  0
  159.2510  212.0320  140.2220 C   0  0  0  0  0  2  0  0  0  0  0  0
  160.0880  210.8050  139.8480 C   0  0  0  0  0  2  0  0  0  0  0  0
  159.8450  212.8080  141.4040 C   0  0  0  0  0  2  0  0  0  0  0  0
  161.9690  211.7410  141.2880 C   0  0  0  0  0  2  0  0  0  0  0  0
  159.1130  212.4470  144.9370 C   0  0  0  0  0  2  0  0  0  0  0  0
  157.4730  213.6160  145.8420 C   0  0  0  0  0  1  0  0  0  0  0  0
  158.7240  213.7560  145.2410 O   0  0  0  0  0  0  0  0  0  0  0  0
  160.4320  205.2930  149.8710 C   0  0  0  0  0  2  0  0  0  0  0  0
  160.8750  204.1390  148.9750 C   0  0  0  0  0  2  0  0  0  0  0  0
  160.1850  202.8510  149.3880 C   0  0  0  0  0  2  0  0  0  0  0  0
  161.1950  201.7220  149.5070 C   0  0  0  0  0  1  0  0  0  0  0  0
  2 10  1  0  0  0  0
  2  9  1  0  0  0  0
  3  7  2  0  0  0  0
  3 11  1  0  0  0  0
  4  6  2  0  0  0  0
  4 12  1  0  0  0  0
  5 40  1  6  0  0  0
  5  8  1  0  0  0  0
  5  4  1  0  0  0  0
  7  8  1  0  0  0  0
  8  2  2  0  0  0  0
 10 13  1  0  0  0  0
 11  1  1  0  0  0  0
 11 10  2  0  0  0  0
 12  9  1  0  0  0  0
 13 18  1  0  0  0  0
 14 15  1  0  0  0  0
 15 20  1  0  0  0  0
 15 19  2  0  0  0  0
 16 19  1  0  0  0  0
 17 14  2  0  0  0  0
 17 18  1  0  0  0  0
 18 16  2  0  0  0  0
 21 20  1  0  0  0  0
 22  3  1  0  0  0  0
 23 22  1  0  0  0  0
 24 23  1  0  0  0  0
 24 25  1  1  0  0  0
 26 24  1  0  0  0  0
 27 26  1  0  0  0  0
 28 30  2  0  0  0  0
 28 27  1  0  0  0  0
 29 28  2  0  0  0  0
 31 28  1  0  0  0  0
 32 36  1  0  0  0  0
 33 35  1  0  0  0  0
 34 32  1  0  0  0  0
 34 33  1  0  0  0  0
 35 31  1  0  0  0  0
 36 31  1  0  0  0  0
 37 27  1  0  0  0  0
 37 39  1  0  0  0  0
 39 38  1  0  0  0  0
 41 42  1  0  0  0  0
 41 40  1  0  0  0  0
 42 43  1  0  0  0  0
M  END
>  <MODEL>
3

>  <REMARK>
 VINA RESULT:      -6.5      3.721      7.548
  Name = 
  15 active torsions:
  status: ('A' for Active; 'I' for Inactive)
    1  A    between atoms: C_1  and  C_34
    2  A    between atoms: C_1  and  C_35
    3  A    between atoms: N_2  and  C_6
    4  A    between atoms: N_2  and  C_13
    5  A    between atoms: C_3  and  N_4
    6  A    between atoms: C_3  and  C_12
    7  A    between atoms: N_4  and  S_14
    8  A    between atoms: N_4  and  C_42
    9  A    between atoms: C_5  and  C_18
   10  A    between atoms: C_6  and  C_12
   11  A    between atoms: N_11  and  S_14
   12  A    between atoms: O_15  and  C_42
   13  A    between atoms: C_18  and  C_24
   14  A    between atoms: C_19  and  O_25
   15  A    between atoms: C_21  and  C_24
                            x       y       z     vdW  Elec       q    Type
                         _______ _______ _______ _____ _____    ______ ____

>  <TORSDO>
F 15

$$$$
=
 OpenBabel11062410213D

 43 46  0  0  1  0  0  0  0  0999 V2000
  161.9080  210.4240  153.1840 C   0  0  0  0  0  1  0  0  0  0  0  0
  161.4050  206.8810  151.8820 C   0  0  0  0  0  0  0  0  0  0  0  0
  161.8190  209.4680  150.8310 C   0  0  0  0  0  0  0  0  0  0  0  0
  161.0540  204.6100  150.1640 C   0  0  0  0  0  0  0  0  0  0  0  0
  161.3170  205.9370  149.5020 C   0  0  2  0  0  3  0  0  0  0  0  0
  161.2810  203.5700  149.5660 O   0  0  0  0  0  0  0  0  0  0  0  0
  161.6700  208.3690  149.9870 C   0  0  0  0  0  3  0  0  0  0  0  0
  161.4580  207.0830  150.4860 C   0  0  0  0  0  0  0  0  0  0  0  0
  161.3190  205.4810  152.4390 C   0  0  0  0  0  2  0  0  0  0  0  0
  161.5500  207.9790  152.7560 C   0  0  0  0  0  0  0  0  0  0  0  0
  161.7570  209.2770  152.2330 C   0  0  0  0  0  0  0  0  0  0  0  0
  160.4950  204.5660  151.5470 C   0  0  0  0  0  2  0  0  0  0  0  0
  161.4740  207.7650  154.2440 C   0  0  0  0  0  2  0  0  0  0  0  0
  158.6700  210.1130  155.2350 C   0  0  0  0  0  3  0  0  0  0  0  0
  159.3180  210.9680  156.1330 C   0  0  0  0  0  0  0  0  0  0  0  0
  161.3780  209.7250  155.8060 C   0  0  0  0  0  3  0  0  0  0  0  0
  159.3700  209.0700  154.6230 C   0  0  0  0  0  3  0  0  0  0  0  0
  160.7240  208.8740  154.9080 C   0  0  0  0  0  0  0  0  0  0  0  0
  160.6780  210.7670  156.4170 C   0  0  0  0  0  3  0  0  0  0  0  0
  158.5890  212.0030  156.7260 O   0  0  0  0  0  0  0  0  0  0  0  0
  158.4340  213.2770  156.1190 C   0  0  0  0  0  1  0  0  0  0  0  0
  162.0190  210.7430  150.1990 N   0  0  0  0  0  2  0  0  0  0  0  0
  161.8470  211.0520  148.7880 C   0  0  0  0  0  2  0  0  0  0  0  0
  162.5750  212.3410  148.4530 C   0  0  1  0  0  3  0  0  0  0  0  0
  163.5530  212.0940  147.3210 C   0  0  0  0  0  1  0  0  0  0  0  0
  161.5680  213.4060  148.0280 C   0  0  0  0  0  2  0  0  0  0  0  0
  160.1640  213.0110  148.2060 N   0  0  0  0  0  0  0  0  0  0  0  0
  159.2620  213.0990  146.7150 S   0  0  0  0  0  0  0  0  0  0  0  0
  158.1960  212.0380  146.6830 O   0  0  0  0  0  0  0  0  0  0  0  0
  158.6100  214.4510  146.6130 O   0  0  0  0  0  0  0  0  0  0  0  0
  160.3380  212.8630  145.3730 N   0  0  0  0  0  0  0  0  0  0  0  0
  161.6480  214.1230  143.6590 C   0  0  0  0  0  2  0  0  0  0  0  0
  160.4620  211.9750  143.0700 C   0  0  0  0  0  2  0  0  0  0  0  0
  161.8120  212.6930  143.1420 C   0  0  0  0  0  2  0  0  0  0  0  0
  159.5610  212.3010  144.2680 C   0  0  0  0  0  2  0  0  0  0  0  0
  160.8420  214.1800  144.9680 C   0  0  0  0  0  2  0  0  0  0  0  0
  159.5020  213.7150  149.3110 C   0  0  0  0  0  2  0  0  0  0  0  0
  159.4290  213.0620  151.4190 C   0  0  0  0  0  1  0  0  0  0  0  0
  160.2620  213.6770  150.4840 O   0  0  0  0  0  0  0  0  0  0  0  0
  160.2900  206.2220  148.4020 C   0  0  0  0  0  2  0  0  0  0  0  0
  160.9460  206.4900  147.0500 C   0  0  0  0  0  2  0  0  0  0  0  0
  162.1480  205.5830  146.8540 C   0  0  0  0  0  2  0  0  0  0  0  0
  161.9450  204.6840  145.6470 C   0  0  0  0  0  1  0  0  0  0  0  0
  2  9  1  0  0  0  0
  2 10  1  0  0  0  0
  3 11  1  0  0  0  0
  4 12  1  0  0  0  0
  5 40  1  6  0  0  0
  5  4  1  0  0  0  0
  5  8  1  0  0  0  0
  6  4  2  0  0  0  0
  7  8  1  0  0  0  0
  7  3  2  0  0  0  0
  8  2  2  0  0  0  0
 10 13  1  0  0  0  0
 11 10  2  0  0  0  0
 11  1  1  0  0  0  0
 12  9  1  0  0  0  0
 13 18  1  0  0  0  0
 14 15  1  0  0  0  0
 15 19  2  0  0  0  0
 15 20  1  0  0  0  0
 16 19  1  0  0  0  0
 17 18  1  0  0  0  0
 17 14  2  0  0  0  0
 18 16  2  0  0  0  0
 21 20  1  0  0  0  0
 22  3  1  0  0  0  0
 23 22  1  0  0  0  0
 24 25  1  6  0  0  0
 24 23  1  0  0  0  0
 26 27  1  0  0  0  0
 26 24  1  0  0  0  0
 27 37  1  0  0  0  0
 28 27  1  0  0  0  0
 29 28  2  0  0  0  0
 30 28  2  0  0  0  0
 31 28  1  0  0  0  0
 32 36  1  0  0  0  0
 33 34  1  0  0  0  0
 33 35  1  0  0  0  0
 34 32  1  0  0  0  0
 35 31  1  0  0  0  0
 36 31  1  0  0  0  0
 37 39  1  0  0  0  0
 39 38  1  0  0  0  0
 41 40  1  0  0  0  0
 42 41  1  0  0  0  0
 43 42  1  0  0  0  0
M  END
>  <MODEL>
4

>  <REMARK>
 VINA RESULT:      -6.3      2.982      8.152
  Name = 
  15 active torsions:
  status: ('A' for Active; 'I' for Inactive)
    1  A    between atoms: C_1  and  C_34
    2  A    between atoms: C_1  and  C_35
    3  A    between atoms: N_2  and  C_6
    4  A    between atoms: N_2  and  C_13
    5  A    between atoms: C_3  and  N_4
    6  A    between atoms: C_3  and  C_12
    7  A    between atoms: N_4  and  S_14
    8  A    between atoms: N_4  and  C_42
    9  A    between atoms: C_5  and  C_18
   10  A    between atoms: C_6  and  C_12
   11  A    between atoms: N_11  and  S_14
   12  A    between atoms: O_15  and  C_42
   13  A    between atoms: C_18  and  C_24
   14  A    between atoms: C_19  and  O_25
   15  A    between atoms: C_21  and  C_24
                            x       y       z     vdW  Elec       q    Type
                         _______ _______ _______ _____ _____    ______ ____

>  <TORSDO>
F 15

$$$$
=
 OpenBabel11062410213D

 43 46  0  0  1  0  0  0  0  0999 V2000
  161.3790  211.3530  150.5810 C   0  0  0  0  0  1  0  0  0  0  0  0
  159.2480  213.0160  153.2610 C   0  0  0  0  0  0  0  0  0  0  0  0
  160.4780  210.5160  152.8050 C   0  0  0  0  0  0  0  0  0  0  0  0
  157.6930  213.5050  155.6230 C   0  0  0  0  0  0  0  0  0  0  0  0
  158.3470  212.1540  155.5000 C   0  0  2  0  0  3  0  0  0  0  0  0
  157.3620  213.9290  156.7190 O   0  0  0  0  0  0  0  0  0  0  0  0
  159.7420  210.7490  153.9660 C   0  0  0  0  0  3  0  0  0  0  0  0
  159.1200  211.9750  154.2070 C   0  0  0  0  0  0  0  0  0  0  0  0
  158.7020  214.3890  153.5730 C   0  0  0  0  0  2  0  0  0  0  0  0
  159.9850  212.8020  152.0780 C   0  0  0  0  0  0  0  0  0  0  0  0
  160.6020  211.5510  151.8450 C   0  0  0  0  0  0  0  0  0  0  0  0
  157.4290  214.3180  154.4000 C   0  0  0  0  0  2  0  0  0  0  0  0
  160.1030  213.9060  151.0610 C   0  0  0  0  0  2  0  0  0  0  0  0
  158.8280  213.5740  147.5100 C   0  0  0  0  0  3  0  0  0  0  0  0
  157.4840  213.2440  147.7190 C   0  0  0  0  0  0  0  0  0  0  0  0
  157.8510  213.3370  150.1170 C   0  0  0  0  0  3  0  0  0  0  0  0
  159.6800  213.7860  148.5960 C   0  0  0  0  0  3  0  0  0  0  0  0
  159.1930  213.6670  149.9010 C   0  0  0  0  0  0  0  0  0  0  0  0
  156.9990  213.1260  149.0320 C   0  0  0  0  0  3  0  0  0  0  0  0
  156.6580  213.0410  146.6100 O   0  0  0  0  0  0  0  0  0  0  0  0
  156.6260  213.9300  145.5040 C   0  0  0  0  0  1  0  0  0  0  0  0
  161.0600  209.2100  152.6620 N   0  0  0  0  0  2  0  0  0  0  0  0
  160.7180  208.2100  151.6630 C   0  0  0  0  0  2  0  0  0  0  0  0
  161.4330  206.9080  151.9760 C   0  0  1  0  0  3  0  0  0  0  0  0
  161.3770  206.6410  153.4670 C   0  0  0  0  0  1  0  0  0  0  0  0
  160.7590  205.7590  151.2310 C   0  0  0  0  0  2  0  0  0  0  0  0
  161.5380  205.2370  150.1000 N   0  0  0  0  0  0  0  0  0  0  0  0
  161.5160  206.3180  148.7300 S   0  0  0  0  0  0  0  0  0  0  0  0
  160.3290  207.2390  148.8080 O   0  0  0  0  0  0  0  0  0  0  0  0
  162.7750  207.1410  148.7330 O   0  0  0  0  0  0  0  0  0  0  0  0
  161.4220  205.3930  147.2640 N   0  0  0  0  0  0  0  0  0  0  0  0
  162.8340  204.5110  145.4030 C   0  0  0  0  0  2  0  0  0  0  0  0
  160.5230  205.4230  144.9620 C   0  0  0  0  0  2  0  0  0  0  0  0
  161.4370  204.1980  144.8660 C   0  0  0  0  0  2  0  0  0  0  0  0
  160.7310  206.2080  146.2640 C   0  0  0  0  0  2  0  0  0  0  0  0
  162.7930  205.1480  146.8020 C   0  0  0  0  0  2  0  0  0  0  0  0
  161.1800  203.8590  149.7400 C   0  0  0  0  0  2  0  0  0  0  0  0
  160.7670  201.7810  150.3630 C   0  0  0  0  0  1  0  0  0  0  0  0
  160.9510  203.0680  150.8690 O   0  0  0  0  0  0  0  0  0  0  0  0
  157.3410  211.0250  155.7510 C   0  0  0  0  0  2  0  0  0  0  0  0
  156.1630  211.4770  156.6090 C   0  0  0  0  0  2  0  0  0  0  0  0
  154.9310  210.6430  156.3020 C   0  0  0  0  0  2  0  0  0  0  0  0
  155.1040  209.9030  154.9870 C   0  0  0  0  0  1  0  0  0  0  0  0
  1 11  1  0  0  0  0
  2  9  1  0  0  0  0
  2  8  1  0  0  0  0
  3  7  1  0  0  0  0
  4  6  2  0  0  0  0
  5  4  1  0  0  0  0
  5 40  1  6  0  0  0
  7  8  2  0  0  0  0
  8  5  1  0  0  0  0
  9 12  1  0  0  0  0
 10  2  2  0  0  0  0
 11 10  1  0  0  0  0
 11  3  2  0  0  0  0
 12  4  1  0  0  0  0
 13 10  1  0  0  0  0
 14 15  2  0  0  0  0
 14 17  1  0  0  0  0
 15 19  1  0  0  0  0
 17 18  2  0  0  0  0
 18 16  1  0  0  0  0
 18 13  1  0  0  0  0
 19 16  2  0  0  0  0
 20 15  1  0  0  0  0
 21 20  1  0  0  0  0
 22  3  1  0  0  0  0
 23 24  1  0  0  0  0
 23 22  1  0  0  0  0
 24 25  1  1  0  0  0
 26 24  1  0  0  0  0
 27 26  1  0  0  0  0
 28 30  2  0  0  0  0
 28 29  2  0  0  0  0
 28 27  1  0  0  0  0
 31 28  1  0  0  0  0
 32 36  1  0  0  0  0
 33 35  1  0  0  0  0
 34 33  1  0  0  0  0
 34 32  1  0  0  0  0
 35 31  1  0  0  0  0
 36 31  1  0  0  0  0
 37 27  1  0  0  0  0
 37 39  1  0  0  0  0
 38 39  1  0  0  0  0
 40 41  1  0  0  0  0
 42 41  1  0  0  0  0
 43 42  1  0  0  0  0
M  END
>  <MODEL>
5

>  <REMARK>
 VINA RESULT:      -6.2      2.227      4.062
  Name = 
  15 active torsions:
  status: ('A' for Active; 'I' for Inactive)
    1  A    between atoms: C_1  and  C_34
    2  A    between atoms: C_1  and  C_35
    3  A    between atoms: N_2  and  C_6
    4  A    between atoms: N_2  and  C_13
    5  A    between atoms: C_3  and  N_4
    6  A    between atoms: C_3  and  C_12
    7  A    between atoms: N_4  and  S_14
    8  A    between atoms: N_4  and  C_42
    9  A    between atoms: C_5  and  C_18
   10  A    between atoms: C_6  and  C_12
   11  A    between atoms: N_11  and  S_14
   12  A    between atoms: O_15  and  C_42
   13  A    between atoms: C_18  and  C_24
   14  A    between atoms: C_19  and  O_25
   15  A    between atoms: C_21  and  C_24
                            x       y       z     vdW  Elec       q    Type
                         _______ _______ _______ _____ _____    ______ ____

>  <TORSDO>
F 15

$$$$
=
 OpenBabel11062410213D

 43 46  0  0  1  0  0  0  0  0999 V2000
  161.6260  212.2680  149.3560 C   0  0  0  0  0  1  0  0  0  0  0  0
  159.6720  212.8970  152.5620 C   0  0  0  0  0  0  0  0  0  0  0  0
  161.3410  210.8960  151.4760 C   0  0  0  0  0  0  0  0  0  0  0  0
  158.4830  212.6020  155.1570 C   0  0  0  0  0  0  0  0  0  0  0  0
  159.3950  211.4980  154.6910 C   0  0  2  0  0  3  0  0  0  0  0  0
  158.2600  212.7530  156.3480 O   0  0  0  0  0  0  0  0  0  0  0  0
  160.7850  210.7510  152.7460 C   0  0  0  0  0  3  0  0  0  0  0  0
  159.9520  211.7250  153.2980 C   0  0  0  0  0  0  0  0  0  0  0  0
  158.8920  214.0200  153.2010 C   0  0  0  0  0  2  0  0  0  0  0  0
  160.2210  213.0640  151.2740 C   0  0  0  0  0  0  0  0  0  0  0  0
  161.0570  212.0640  150.7250 C   0  0  0  0  0  0  0  0  0  0  0  0
  157.8320  213.5000  154.1590 C   0  0  0  0  0  2  0  0  0  0  0  0
  159.9060  214.3060  150.4830 C   0  0  0  0  0  2  0  0  0  0  0  0
  158.4780  214.0900  146.9810 C   0  0  0  0  0  3  0  0  0  0  0  0
  157.2560  213.4470  147.2100 C   0  0  0  0  0  0  0  0  0  0  0  0
  157.7680  213.3560  149.5810 C   0  0  0  0  0  3  0  0  0  0  0  0
  159.3410  214.3660  148.0440 C   0  0  0  0  0  3  0  0  0  0  0  0
  158.9880  213.9990  149.3450 C   0  0  0  0  0  0  0  0  0  0  0  0
  156.9060  213.0800  148.5190 C   0  0  0  0  0  3  0  0  0  0  0  0
  156.4160  213.1870  146.1240 O   0  0  0  0  0  0  0  0  0  0  0  0
  155.9390  214.2100  145.2610 C   0  0  0  0  0  1  0  0  0  0  0  0
  162.1710  209.8200  151.0090 N   0  0  0  0  0  2  0  0  0  0  0  0
  161.7770  208.4300  150.8330 C   0  0  0  0  0  2  0  0  0  0  0  0
  161.4320  208.1770  149.3760 C   0  0  1  0  0  3  0  0  0  0  0  0
  162.7050  208.1060  148.5560 C   0  0  0  0  0  1  0  0  0  0  0  0
  160.6750  206.8580  149.2490 C   0  0  0  0  0  2  0  0  0  0  0  0
  161.5360  205.6670  149.2430 N   0  0  0  0  0  0  0  0  0  0  0  0
  161.6220  204.9250  147.6660 S   0  0  0  0  0  0  0  0  0  0  0  0
  160.4640  205.3670  146.8140 O   0  0  0  0  0  0  0  0  0  0  0  0
  162.9060  205.3370  146.9970 O   0  0  0  0  0  0  0  0  0  0  0  0
  161.5760  203.1980  147.8360 N   0  0  0  0  0  0  0  0  0  0  0  0
  160.9380  201.1190  146.6070 C   0  0  0  0  0  2  0  0  0  0  0  0
  160.4820  201.3630  149.0770 C   0  0  0  0  0  2  0  0  0  0  0  0
  161.2060  200.5490  148.0000 C   0  0  0  0  0  2  0  0  0  0  0  0
  160.5250  202.8710  148.7990 C   0  0  0  0  0  2  0  0  0  0  0  0
  161.2090  202.6310  146.5330 C   0  0  0  0  0  2  0  0  0  0  0  0
  161.2030  204.7080  150.3030 C   0  0  0  0  0  2  0  0  0  0  0  0
  161.5180  205.2640  152.4170 C   0  0  0  0  0  1  0  0  0  0  0  0
  162.1650  204.6980  151.3180 O   0  0  0  0  0  0  0  0  0  0  0  0
  158.7320  210.1250  154.8490 C   0  0  0  0  0  2  0  0  0  0  0  0
  159.3280  209.3230  156.0030 C   0  0  0  0  0  2  0  0  0  0  0  0
  160.8280  209.1680  155.8240 C   0  0  0  0  0  2  0  0  0  0  0  0
  161.2170  207.7000  155.8460 C   0  0  0  0  0  1  0  0  0  0  0  0
  1 11  1  0  0  0  0
  2  9  1  0  0  0  0
  2  8  1  0  0  0  0
  3  7  1  0  0  0  0
  4  6  2  0  0  0  0
  5 40  1  6  0  0  0
  5  4  1  0  0  0  0
  7  8  2  0  0  0  0
  8  5  1  0  0  0  0
  9 12  1  0  0  0  0
 10  2  2  0  0  0  0
 11 10  1  0  0  0  0
 11  3  2  0  0  0  0
 12  4  1  0  0  0  0
 13 10  1  0  0  0  0
 14 15  2  0  0  0  0
 14 17  1  0  0  0  0
 15 19  1  0  0  0  0
 17 18  2  0  0  0  0
 18 16  1  0  0  0  0
 18 13  1  0  0  0  0
 19 16  2  0  0  0  0
 20 15  1  0  0  0  0
 21 20  1  0  0  0  0
 22  3  1  0  0  0  0
 23 22  1  0  0  0  0
 24 25  1  6  0  0  0
 24 23  1  0  0  0  0
 26 24  1  0  0  0  0
 27 26  1  0  0  0  0
 27 37  1  0  0  0  0
 28 31  1  0  0  0  0
 28 27  1  0  0  0  0
 29 28  2  0  0  0  0
 30 28  2  0  0  0  0
 31 35  1  0  0  0  0
 32 34  1  0  0  0  0
 34 33  1  0  0  0  0
 35 33  1  0  0  0  0
 36 32  1  0  0  0  0
 36 31  1  0  0  0  0
 37 39  1  0  0  0  0
 39 38  1  0  0  0  0
 40 41  1  0  0  0  0
 42 43  1  0  0  0  0
 42 41  1  0  0  0  0
M  END
>  <MODEL>
6

>  <REMARK>
 VINA RESULT:      -5.6      1.541      2.634
  Name = 
  15 active torsions:
  status: ('A' for Active; 'I' for Inactive)
    1  A    between atoms: C_1  and  C_34
    2  A    between atoms: C_1  and  C_35
    3  A    between atoms: N_2  and  C_6
    4  A    between atoms: N_2  and  C_13
    5  A    between atoms: C_3  and  N_4
    6  A    between atoms: C_3  and  C_12
    7  A    between atoms: N_4  and  S_14
    8  A    between atoms: N_4  and  C_42
    9  A    between atoms: C_5  and  C_18
   10  A    between atoms: C_6  and  C_12
   11  A    between atoms: N_11  and  S_14
   12  A    between atoms: O_15  and  C_42
   13  A    between atoms: C_18  and  C_24
   14  A    between atoms: C_19  and  O_25
   15  A    between atoms: C_21  and  C_24
                            x       y       z     vdW  Elec       q    Type
                         _______ _______ _______ _____ _____    ______ ____

>  <TORSDO>
F 15

$$$$
=
 OpenBabel11062410213D

 43 46  0  0  1  0  0  0  0  0999 V2000
  161.1600  212.5210  149.7030 C   0  0  0  0  0  1  0  0  0  0  0  0
  159.6720  212.4230  153.2060 C   0  0  0  0  0  0  0  0  0  0  0  0
  161.3310  210.8170  151.5810 C   0  0  0  0  0  0  0  0  0  0  0  0
  158.9270  211.6000  155.8520 C   0  0  0  0  0  0  0  0  0  0  0  0
  159.8550  210.6930  155.0880 C   0  0  2  0  0  3  0  0  0  0  0  0
  158.8780  211.5410  157.0710 O   0  0  0  0  0  0  0  0  0  0  0  0
  160.9920  210.4170  152.8730 C   0  0  0  0  0  3  0  0  0  0  0  0
  160.1680  211.1930  153.6900 C   0  0  0  0  0  0  0  0  0  0  0  0
  158.8990  213.3380  154.1250 C   0  0  0  0  0  2  0  0  0  0  0  0
  159.9990  212.8470  151.9010 C   0  0  0  0  0  0  0  0  0  0  0  0
  160.8290  212.0460  151.0830 C   0  0  0  0  0  0  0  0  0  0  0  0
  158.0510  212.5590  155.1180 C   0  0  0  0  0  2  0  0  0  0  0  0
  159.4530  214.1500  151.3800 C   0  0  0  0  0  2  0  0  0  0  0  0
  156.8580  213.0590  148.8460 C   0  0  0  0  0  3  0  0  0  0  0  0
  157.3960  213.5560  147.6540 C   0  0  0  0  0  0  0  0  0  0  0  0
  159.2790  214.4530  148.8970 C   0  0  0  0  0  3  0  0  0  0  0  0
  157.5250  213.2550  150.0580 C   0  0  0  0  0  3  0  0  0  0  0  0
  158.7350  213.9520  150.0850 C   0  0  0  0  0  0  0  0  0  0  0  0
  158.6120  214.2570  147.6870 C   0  0  0  0  0  3  0  0  0  0  0  0
  156.7040  213.3410  146.4590 O   0  0  0  0  0  0  0  0  0  0  0  0
  156.0890  214.3920  145.7290 C   0  0  0  0  0  1  0  0  0  0  0  0
  162.1740  209.9280  150.8310 N   0  0  0  0  0  2  0  0  0  0  0  0
  162.0150  208.4890  150.6910 C   0  0  0  0  0  2  0  0  0  0  0  0
  161.5650  208.1580  149.2800 C   0  0  1  0  0  3  0  0  0  0  0  0
  161.7310  209.3760  148.3930 C   0  0  0  0  0  1  0  0  0  0  0  0
  162.4070  207.0120  148.7270 C   0  0  0  0  0  2  0  0  0  0  0  0
  161.6220  205.8580  148.2650 N   0  0  0  0  0  0  0  0  0  0  0  0
  161.1920  204.7870  149.5740 S   0  0  0  0  0  0  0  0  0  0  0  0
  162.0280  205.0820  150.7890 O   0  0  0  0  0  0  0  0  0  0  0  0
  159.7420  204.9880  149.9180 O   0  0  0  0  0  0  0  0  0  0  0  0
  161.4590  203.1420  149.0870 N   0  0  0  0  0  0  0  0  0  0  0  0
  160.8220  201.4850  147.3300 C   0  0  0  0  0  2  0  0  0  0  0  0
  161.0540  200.7950  149.7460 C   0  0  0  0  0  2  0  0  0  0  0  0
  161.5580  200.5780  148.3170 C   0  0  0  0  0  2  0  0  0  0  0  0
  160.7870  202.2740  150.0540 C   0  0  0  0  0  2  0  0  0  0  0  0
  160.8290  202.9580  147.7750 C   0  0  0  0  0  2  0  0  0  0  0  0
  162.2430  205.1530  147.1360 C   0  0  0  0  0  2  0  0  0  0  0  0
  161.8330  204.9090  144.9800 C   0  0  0  0  0  1  0  0  0  0  0  0
  162.1270  205.8740  145.9440 O   0  0  0  0  0  0  0  0  0  0  0  0
  159.3530  209.2450  155.1020 C   0  0  0  0  0  2  0  0  0  0  0  0
  159.9860  208.4230  156.2220 C   0  0  0  0  0  2  0  0  0  0  0  0
  160.8160  207.2900  155.6440 C   0  0  0  0  0  2  0  0  0  0  0  0
  160.4560  207.0550  154.1880 C   0  0  0  0  0  1  0  0  0  0  0  0
  1 11  1  0  0  0  0
  2  8  1  0  0  0  0
  2  9  1  0  0  0  0
  3  7  1  0  0  0  0
  4  6  2  0  0  0  0
  5 40  1  6  0  0  0
  5  4  1  0  0  0  0
  7  8  2  0  0  0  0
  8  5  1  0  0  0  0
  9 12  1  0  0  0  0
 10  2  2  0  0  0  0
 11  3  2  0  0  0  0
 11 10  1  0  0  0  0
 12  4  1  0  0  0  0
 13 10  1  0  0  0  0
 14 17  1  0  0  0  0
 15 19  1  0  0  0  0
 15 14  2  0  0  0  0
 16 18  1  0  0  0  0
 17 18  2  0  0  0  0
 18 13  1  0  0  0  0
 19 16  2  0  0  0  0
 20 15  1  0  0  0  0
 21 20  1  0  0  0  0
 22  3  1  0  0  0  0
 23 22  1  0  0  0  0
 24 25  1  6  0  0  0
 24 23  1  0  0  0  0
 26 24  1  0  0  0  0
 27 26  1  0  0  0  0
 27 28  1  0  0  0  0
 28 30  2  0  0  0  0
 28 29  2  0  0  0  0
 31 28  1  0  0  0  0
 31 35  1  0  0  0  0
 32 36  1  0  0  0  0
 32 34  1  0  0  0  0
 33 35  1  0  0  0  0
 34 33  1  0  0  0  0
 36 31  1  0  0  0  0
 37 27  1  0  0  0  0
 38 39  1  0  0  0  0
 39 37  1  0  0  0  0
 40 41  1  0  0  0  0
 42 41  1  0  0  0  0
 43 42  1  0  0  0  0
M  END
>  <MODEL>
7

>  <REMARK>
 VINA RESULT:      -5.4      1.507      2.095
  Name = 
  15 active torsions:
  status: ('A' for Active; 'I' for Inactive)
    1  A    between atoms: C_1  and  C_34
    2  A    between atoms: C_1  and  C_35
    3  A    between atoms: N_2  and  C_6
    4  A    between atoms: N_2  and  C_13
    5  A    between atoms: C_3  and  N_4
    6  A    between atoms: C_3  and  C_12
    7  A    between atoms: N_4  and  S_14
    8  A    between atoms: N_4  and  C_42
    9  A    between atoms: C_5  and  C_18
   10  A    between atoms: C_6  and  C_12
   11  A    between atoms: N_11  and  S_14
   12  A    between atoms: O_15  and  C_42
   13  A    between atoms: C_18  and  C_24
   14  A    between atoms: C_19  and  O_25
   15  A    between atoms: C_21  and  C_24
                            x       y       z     vdW  Elec       q    Type
                         _______ _______ _______ _____ _____    ______ ____

>  <TORSDO>
F 15

$$$$
=
 OpenBabel11062410213D

 43 46  0  0  1  0  0  0  0  0999 V2000
  161.6090  211.3840  150.5540 C   0  0  0  0  0  1  0  0  0  0  0  0
  160.8730  209.5610  153.8140 C   0  0  0  0  0  0  0  0  0  0  0  0
  161.8270  208.9440  151.2300 C   0  0  0  0  0  0  0  0  0  0  0  0
  160.5370  207.5230  155.8070 C   0  0  0  0  0  0  0  0  0  0  0  0
  161.0980  207.0960  154.4760 C   0  0  2  0  0  3  0  0  0  0  0  0
  160.7260  206.8400  156.8000 O   0  0  0  0  0  0  0  0  0  0  0  0
  161.6870  207.9500  152.1960 C   0  0  0  0  0  3  0  0  0  0  0  0
  161.2100  208.2320  153.4770 C   0  0  0  0  0  0  0  0  0  0  0  0
  160.4930  209.9050  155.2340 C   0  0  0  0  0  2  0  0  0  0  0  0
  161.0030  210.5830  152.8520 C   0  0  0  0  0  0  0  0  0  0  0  0
  161.4790  210.2790  151.5550 C   0  0  0  0  0  0  0  0  0  0  0  0
  159.7310  208.7750  155.9070 C   0  0  0  0  0  2  0  0  0  0  0  0
  160.6240  211.9970  153.2070 C   0  0  0  0  0  2  0  0  0  0  0  0
  158.1160  212.6510  155.9690 C   0  0  0  0  0  3  0  0  0  0  0  0
  156.9530  212.0790  155.4410 C   0  0  0  0  0  0  0  0  0  0  0  0
  158.1860  211.4590  153.4430 C   0  0  0  0  0  3  0  0  0  0  0  0
  159.3080  212.6270  155.2420 C   0  0  0  0  0  3  0  0  0  0  0  0
  159.3450  212.0320  153.9780 C   0  0  0  0  0  0  0  0  0  0  0  0
  156.9950  211.4820  154.1700 C   0  0  0  0  0  3  0  0  0  0  0  0
  155.7780  212.1180  156.1960 O   0  0  0  0  0  0  0  0  0  0  0  0
  155.1620  213.3340  156.5940 C   0  0  0  0  0  1  0  0  0  0  0  0
  162.3130  208.5290  149.9430 N   0  0  0  0  0  2  0  0  0  0  0  0
  161.5570  208.4790  148.7010 C   0  0  0  0  0  2  0  0  0  0  0  0
  161.2600  207.0350  148.3400 C   0  0  1  0  0  3  0  0  0  0  0  0
  160.1330  206.5140  149.2090 C   0  0  0  0  0  1  0  0  0  0  0  0
  160.8510  206.9450  146.8730 C   0  0  0  0  0  2  0  0  0  0  0  0
  160.8430  205.5790  146.3330 N   0  0  0  0  0  0  0  0  0  0  0  0
  162.3310  204.7300  146.6670 S   0  0  0  0  0  0  0  0  0  0  0  0
  163.2170  204.7260  145.4510 O   0  0  0  0  0  0  0  0  0  0  0  0
  163.0500  205.4220  147.7930 O   0  0  0  0  0  0  0  0  0  0  0  0
  161.9750  203.0920  147.1160 N   0  0  0  0  0  0  0  0  0  0  0  0
  160.7280  201.0700  146.3450 C   0  0  0  0  0  2  0  0  0  0  0  0
  160.7810  201.7140  148.7840 C   0  0  0  0  0  2  0  0  0  0  0  0
  161.1240  200.6330  147.7550 C   0  0  0  0  0  2  0  0  0  0  0  0
  161.0710  203.1280  148.2650 C   0  0  0  0  0  2  0  0  0  0  0  0
  161.2750  202.4630  145.9900 C   0  0  0  0  0  2  0  0  0  0  0  0
  160.4630  205.5200  144.9160 C   0  0  0  0  0  2  0  0  0  0  0  0
  161.2110  205.6090  142.8400 C   0  0  0  0  0  1  0  0  0  0  0  0
  161.3890  206.1790  144.1010 O   0  0  0  0  0  0  0  0  0  0  0  0
  160.3410  205.8860  153.9170 C   0  0  0  0  0  2  0  0  0  0  0  0
  161.2800  204.7650  153.4790 C   0  0  0  0  0  2  0  0  0  0  0  0
  160.9380  204.3040  152.0740 C   0  0  0  0  0  2  0  0  0  0  0  0
  161.5740  202.9550  151.7870 C   0  0  0  0  0  1  0  0  0  0  0  0
  1 11  1  0  0  0  0
  2  9  1  0  0  0  0
  3 11  2  0  0  0  0
  3  7  1  0  0  0  0
  4 12  1  0  0  0  0
  4  6  2  0  0  0  0
  5 40  1  6  0  0  0
  5  4  1  0  0  0  0
  7  8  2  0  0  0  0
  8  2  1  0  0  0  0
  8  5  1  0  0  0  0
  9 12  1  0  0  0  0
 10 13  1  0  0  0  0
 10  2  2  0  0  0  0
 11 10  1  0  0  0  0
 13 18  1  0  0  0  0
 15 14  1  0  0  0  0
 15 20  1  0  0  0  0
 16 18  2  0  0  0  0
 16 19  1  0  0  0  0
 17 14  2  0  0  0  0
 18 17  1  0  0  0  0
 19 15  2  0  0  0  0
 20 21  1  0  0  0  0
 22  3  1  0  0  0  0
 23 22  1  0  0  0  0
 24 23  1  0  0  0  0
 24 25  1  1  0  0  0
 26 24  1  0  0  0  0
 27 28  1  0  0  0  0
 27 26  1  0  0  0  0
 28 31  1  0  0  0  0
 28 30  2  0  0  0  0
 29 28  2  0  0  0  0
 31 35  1  0  0  0  0
 32 34  1  0  0  0  0
 34 33  1  0  0  0  0
 35 33  1  0  0  0  0
 36 32  1  0  0  0  0
 36 31  1  0  0  0  0
 37 27  1  0  0  0  0
 38 39  1  0  0  0  0
 39 37  1  0  0  0  0
 41 40  1  0  0  0  0
 42 41  1  0  0  0  0
 43 42  1  0  0  0  0
M  END
>  <MODEL>
8

>  <REMARK>
 VINA RESULT:      -5.1      2.803      3.759
  Name = 
  15 active torsions:
  status: ('A' for Active; 'I' for Inactive)
    1  A    between atoms: C_1  and  C_34
    2  A    between atoms: C_1  and  C_35
    3  A    between atoms: N_2  and  C_6
    4  A    between atoms: N_2  and  C_13
    5  A    between atoms: C_3  and  N_4
    6  A    between atoms: C_3  and  C_12
    7  A    between atoms: N_4  and  S_14
    8  A    between atoms: N_4  and  C_42
    9  A    between atoms: C_5  and  C_18
   10  A    between atoms: C_6  and  C_12
   11  A    between atoms: N_11  and  S_14
   12  A    between atoms: O_15  and  C_42
   13  A    between atoms: C_18  and  C_24
   14  A    between atoms: C_19  and  O_25
   15  A    between atoms: C_21  and  C_24
                            x       y       z     vdW  Elec       q    Type
                         _______ _______ _______ _____ _____    ______ ____

>  <TORSDO>
F 15

$$$$
=
 OpenBabel11062410213D

 43 46  0  0  1  0  0  0  0  0999 V2000
  161.1780  211.7290  150.5010 C   0  0  0  0  0  1  0  0  0  0  0  0
  160.7550  209.8690  153.7950 C   0  0  0  0  0  0  0  0  0  0  0  0
  161.5780  209.3060  151.1540 C   0  0  0  0  0  0  0  0  0  0  0  0
  160.6640  207.8170  155.7990 C   0  0  0  0  0  0  0  0  0  0  0  0
  161.1630  207.4210  154.4350 C   0  0  2  0  0  3  0  0  0  0  0  0
  160.9540  207.1460  156.7770 O   0  0  0  0  0  0  0  0  0  0  0  0
  161.5570  208.3060  152.1240 C   0  0  0  0  0  3  0  0  0  0  0  0
  161.1470  208.5620  153.4340 C   0  0  0  0  0  0  0  0  0  0  0  0
  160.4470  210.1920  155.2380 C   0  0  0  0  0  2  0  0  0  0  0  0
  160.7650  210.8970  152.8290 C   0  0  0  0  0  0  0  0  0  0  0  0
  161.1760  210.6190  151.5050 C   0  0  0  0  0  0  0  0  0  0  0  0
  159.7950  209.0200  155.9530 C   0  0  0  0  0  2  0  0  0  0  0  0
  160.3290  212.2860  153.2120 C   0  0  0  0  0  2  0  0  0  0  0  0
  156.7800  211.4760  154.2630 C   0  0  0  0  0  3  0  0  0  0  0  0
  156.6610  212.2060  155.4510 C   0  0  0  0  0  0  0  0  0  0  0  0
  158.9450  212.9840  155.1840 C   0  0  0  0  0  3  0  0  0  0  0  0
  157.9740  211.5000  153.5360 C   0  0  0  0  0  3  0  0  0  0  0  0
  159.0570  212.2530  153.9960 C   0  0  0  0  0  0  0  0  0  0  0  0
  157.7530  212.9600  155.9090 C   0  0  0  0  0  3  0  0  0  0  0  0
  155.4530  212.1620  156.1520 O   0  0  0  0  0  0  0  0  0  0  0  0
  154.9190  213.2890  156.8300 C   0  0  0  0  0  1  0  0  0  0  0  0
  162.0050  208.9190  149.8380 N   0  0  0  0  0  2  0  0  0  0  0  0
  161.1780  208.3460  148.7870 C   0  0  0  0  0  2  0  0  0  0  0  0
  161.9280  207.2210  148.1000 C   0  0  1  0  0  3  0  0  0  0  0  0
  163.2710  207.0170  148.7740 C   0  0  0  0  0  1  0  0  0  0  0  0
  161.1170  205.9320  148.1890 C   0  0  0  0  0  2  0  0  0  0  0  0
  160.7990  205.3300  146.8870 N   0  0  0  0  0  0  0  0  0  0  0  0
  161.6950  203.8580  146.6050 S   0  0  0  0  0  0  0  0  0  0  0  0
  161.2140  203.1830  145.3500 O   0  0  0  0  0  0  0  0  0  0  0  0
  163.1530  204.1920  146.4530 O   0  0  0  0  0  0  0  0  0  0  0  0
  161.4750  202.7810  147.9490 N   0  0  0  0  0  0  0  0  0  0  0  0
  161.6020  200.3660  148.5730 C   0  0  0  0  0  2  0  0  0  0  0  0
  159.7720  201.8490  149.4770 C   0  0  0  0  0  2  0  0  0  0  0  0
  160.9570  200.9460  149.8320 C   0  0  0  0  0  2  0  0  0  0  0  0
  160.0430  202.7110  148.2380 C   0  0  0  0  0  2  0  0  0  0  0  0
  161.9350  201.4510  147.5340 C   0  0  0  0  0  2  0  0  0  0  0  0
  160.9030  206.2780  145.7710 C   0  0  0  0  0  2  0  0  0  0  0  0
  161.2070  205.8470  143.6270 C   0  0  0  0  0  1  0  0  0  0  0  0
  160.2390  205.8160  144.6310 O   0  0  0  0  0  0  0  0  0  0  0  0
  160.4440  206.1700  153.9210 C   0  0  0  0  0  2  0  0  0  0  0  0
  161.4150  205.0510  153.5540 C   0  0  0  0  0  2  0  0  0  0  0  0
  160.8750  204.2410  152.3880 C   0  0  0  0  0  2  0  0  0  0  0  0
  161.5530  204.6560  151.0930 C   0  0  0  0  0  1  0  0  0  0  0  0
  1 11  1  0  0  0  0
  2  9  1  0  0  0  0
  3 11  2  0  0  0  0
  3  7  1  0  0  0  0
  4 12  1  0  0  0  0
  4  6  2  0  0  0  0
  5 40  1  6  0  0  0
  5  4  1  0  0  0  0
  7  8  2  0  0  0  0
  8  2  1  0  0  0  0
  8  5  1  0  0  0  0
  9 12  1  0  0  0  0
 10 13  1  0  0  0  0
 10  2  2  0  0  0  0
 11 10  1  0  0  0  0
 13 18  1  0  0  0  0
 14 15  1  0  0  0  0
 15 19  2  0  0  0  0
 15 20  1  0  0  0  0
 16 19  1  0  0  0  0
 17 18  1  0  0  0  0
 17 14  2  0  0  0  0
 18 16  2  0  0  0  0
 20 21  1  0  0  0  0
 22  3  1  0  0  0  0
 23 22  1  0  0  0  0
 24 26  1  0  0  0  0
 24 25  1  1  0  0  0
 24 23  1  0  0  0  0
 27 26  1  0  0  0  0
 28 27  1  0  0  0  0
 28 31  1  0  0  0  0
 29 28  2  0  0  0  0
 30 28  2  0  0  0  0
 31 35  1  0  0  0  0
 32 34  1  0  0  0  0
 33 34  1  0  0  0  0
 35 33  1  0  0  0  0
 36 31  1  0  0  0  0
 36 32  1  0  0  0  0
 37 27  1  0  0  0  0
 38 39  1  0  0  0  0
 39 37  1  0  0  0  0
 41 40  1  0  0  0  0
 42 41  1  0  0  0  0
 43 42  1  0  0  0  0
M  END
>  <MODEL>
9

>  <REMARK>
 VINA RESULT:      -5.1      2.622      3.627
  Name = 
  15 active torsions:
  status: ('A' for Active; 'I' for Inactive)
    1  A    between atoms: C_1  and  C_34
    2  A    between atoms: C_1  and  C_35
    3  A    between atoms: N_2  and  C_6
    4  A    between atoms: N_2  and  C_13
    5  A    between atoms: C_3  and  N_4
    6  A    between atoms: C_3  and  C_12
    7  A    between atoms: N_4  and  S_14
    8  A    between atoms: N_4  and  C_42
    9  A    between atoms: C_5  and  C_18
   10  A    between atoms: C_6  and  C_12
   11  A    between atoms: N_11  and  S_14
   12  A    between atoms: O_15  and  C_42
   13  A    between atoms: C_18  and  C_24
   14  A    between atoms: C_19  and  O_25
   15  A    between atoms: C_21  and  C_24
                            x       y       z     vdW  Elec       q    Type
                         _______ _______ _______ _____ _____    ______ ____

>  <TORSDO>
F 15

$$$$
