=
 OpenBabel11052422193D

 25 27  0  0  1  0  0  0  0  0999 V2000
  160.6880  207.7030  152.5460 N   0  0  0  0  0  0  0  0  0  0  0  0
  160.8710  206.7060  151.5360 C   0  0  0  0  0  0  0  0  0  0  0  0
  161.4590  206.1770  154.2760 C   0  0  0  0  0  2  0  0  0  0  0  0
  160.9540  209.1240  152.4050 C   0  0  1  0  0  3  0  0  0  0  0  0
  161.3230  205.1240  153.3120 O   0  0  0  0  0  0  0  0  0  0  0  0
  160.7670  209.6970  153.7530 N   0  0  0  0  0  0  0  0  0  0  0  0
  161.3070  204.3980  150.9740 C   0  0  0  0  0  0  0  0  0  0  0  0
  161.6040  202.9920  151.3620 C   0  0  0  0  0  1  0  0  0  0  0  0
  160.7570  207.0070  150.2140 N   0  0  0  0  0  0  0  0  0  0  0  0
  160.5160  207.3290  153.9360 C   0  0  1  0  0  3  0  0  0  0  0  0
  160.8630  208.5870  154.7100 C   0  0  0  0  0  2  0  0  0  0  0  0
  161.1790  204.7270  149.6230 C   0  0  0  0  0  3  0  0  0  0  0  0
  160.9120  206.0520  149.2570 C   0  0  0  0  0  0  0  0  0  0  0  0
  161.1690  205.3990  151.9430 C   0  0  0  0  0  0  0  0  0  0  0  0
  162.3710  210.7130  155.4050 C   0  0  0  0  0  1  0  0  0  0  0  0
  161.6020  210.8620  154.0950 C   0  0  0  0  0  2  0  0  0  0  0  0
  162.2490  210.1080  150.6060 O   0  0  0  0  0  1  0  0  0  0  0  0
  162.3430  209.3670  151.7870 C   0  0  0  0  0  2  0  0  0  0  0  0
  160.7580  206.4080  147.8210 C   0  0  0  0  0  2  0  0  0  0  0  0
  162.1160  206.4130  147.1400 C   0  0  0  0  0  2  0  0  0  0  0  0
  161.9870  205.9530  145.6960 C   0  0  2  0  0  3  0  0  0  0  0  0
  160.2290  205.9470  145.2190 S   0  0  0  0  0  1  0  0  0  0  0  0
  162.6370  204.5830  145.4970 C   0  0  2  0  0  3  0  0  0  0  0  0
  161.6650  203.4690  145.8320 C   0  0  0  0  0  1  0  0  0  0  0  0
  163.7930  204.4550  146.2710 O   0  0  0  0  0  1  0  0  0  0  0  0
  1 10  1  0  0  0  0
  2 14  1  0  0  0  0
  2  1  1  0  0  0  0
  4 18  1  1  0  0  0
  4  1  1  0  0  0  0
  4  6  1  0  0  0  0
  5  3  1  0  0  0  0
  6 16  1  0  0  0  0
  6 11  1  0  0  0  0
  7  8  1  0  0  0  0
  7 14  2  0  0  0  0
  9  2  2  0  0  0  0
 10  3  1  1  0  0  0
 10 11  1  0  0  0  0
 12  7  1  0  0  0  0
 13 12  2  0  0  0  0
 13  9  1  0  0  0  0
 14  5  1  0  0  0  0
 16 15  1  0  0  0  0
 17 18  1  0  0  0  0
 19 13  1  0  0  0  0
 20 19  1  0  0  0  0
 21 22  1  1  0  0  0
 21 20  1  0  0  0  0
 23 21  1  0  0  0  0
 23 24  1  1  0  0  0
 23 25  1  0  0  0  0
M  END
>  <MODEL>
1

>  <REMARK>
 VINA RESULT:      -7.6      0.000      0.000
  Name = 
  6 active torsions:
  status: ('A' for Active; 'I' for Inactive)
    1  A    between atoms: C_2  and  C_21
    2  A    between atoms: C_5  and  C_22
    3  A    between atoms: C_6  and  C_15
    4  A    between atoms: C_6  and  C_23
    5  A    between atoms: N_10  and  C_11
    6  A    between atoms: C_15  and  C_21
                            x       y       z     vdW  Elec       q    Type
                         _______ _______ _______ _____ _____    ______ ____

>  <TORSDO>
F 6

$$$$
=
 OpenBabel11052422193D

 25 27  0  0  1  0  0  0  0  0999 V2000
  161.7550  205.3010  148.0790 N   0  0  0  0  0  0  0  0  0  0  0  0
  161.6850  206.4880  148.8760 C   0  0  0  0  0  0  0  0  0  0  0  0
  160.6910  203.9910  149.8310 C   0  0  0  0  0  2  0  0  0  0  0  0
  161.5610  205.2230  146.6420 C   0  0  1  0  0  3  0  0  0  0  0  0
  160.9290  205.0990  150.7090 O   0  0  0  0  0  0  0  0  0  0  0  0
  161.5720  203.7820  146.3200 N   0  0  0  0  0  0  0  0  0  0  0  0
  161.2550  207.5050  151.0240 C   0  0  0  0  0  0  0  0  0  0  0  0
  160.8570  207.4170  152.4550 C   0  0  0  0  0  1  0  0  0  0  0  0
  161.9980  207.7080  148.3610 N   0  0  0  0  0  0  0  0  0  0  0  0
  161.7120  203.9900  148.6950 C   0  0  1  0  0  3  0  0  0  0  0  0
  161.3010  203.0590  147.5690 C   0  0  0  0  0  2  0  0  0  0  0  0
  161.5870  208.7460  150.4770 C   0  0  0  0  0  3  0  0  0  0  0  0
  161.9490  208.8310  149.1260 C   0  0  0  0  0  0  0  0  0  0  0  0
  161.2870  206.3640  150.2140 C   0  0  0  0  0  0  0  0  0  0  0  0
  160.2960  201.8940  145.2490 C   0  0  0  0  0  1  0  0  0  0  0  0
  160.7370  203.3540  145.1840 C   0  0  0  0  0  2  0  0  0  0  0  0
  160.4000  206.4660  144.9140 O   0  0  0  0  0  1  0  0  0  0  0  0
  160.2840  205.9700  146.2150 C   0  0  0  0  0  2  0  0  0  0  0  0
  162.3210  210.1460  148.5400 C   0  0  0  0  0  2  0  0  0  0  0  0
  161.8570  211.2700  149.4520 C   0  0  0  0  0  2  0  0  0  0  0  0
  161.6720  212.5540  148.6600 C   0  0  2  0  0  3  0  0  0  0  0  0
  160.4670  213.6210  149.5130 S   0  0  0  0  0  1  0  0  0  0  0  0
  161.2520  212.2560  147.2200 C   0  0  2  0  0  3  0  0  0  0  0  0
  161.9490  213.1870  146.2480 C   0  0  0  0  0  1  0  0  0  0  0  0
  159.8670  212.3570  147.0680 O   0  0  0  0  0  1  0  0  0  0  0  0
  1 10  1  0  0  0  0
  1  2  1  0  0  0  0
  2 14  1  0  0  0  0
  3  5  1  0  0  0  0
  4 18  1  1  0  0  0
  4  1  1  0  0  0  0
  6  4  1  0  0  0  0
  6 11  1  0  0  0  0
  7  8  1  0  0  0  0
  9  2  2  0  0  0  0
  9 13  1  0  0  0  0
 10 11  1  6  0  0  0
 10  3  1  0  0  0  0
 12  7  1  0  0  0  0
 13 12  2  0  0  0  0
 14  5  1  0  0  0  0
 14  7  2  0  0  0  0
 16 15  1  0  0  0  0
 16  6  1  0  0  0  0
 17 18  1  0  0  0  0
 19 13  1  0  0  0  0
 19 20  1  0  0  0  0
 21 20  1  0  0  0  0
 21 22  1  1  0  0  0
 23 24  1  6  0  0  0
 23 21  1  0  0  0  0
 25 23  1  0  0  0  0
M  END
>  <MODEL>
2

>  <REMARK>
 VINA RESULT:      -6.7      3.538      6.999
  Name = 
  6 active torsions:
  status: ('A' for Active; 'I' for Inactive)
    1  A    between atoms: C_2  and  C_21
    2  A    between atoms: C_5  and  C_22
    3  A    between atoms: C_6  and  C_15
    4  A    between atoms: C_6  and  C_23
    5  A    between atoms: N_10  and  C_11
    6  A    between atoms: C_15  and  C_21
                            x       y       z     vdW  Elec       q    Type
                         _______ _______ _______ _____ _____    ______ ____

>  <TORSDO>
F 6

$$$$
=
 OpenBabel11052422193D

 25 27  0  0  1  0  0  0  0  0999 V2000
  160.7890  206.2270  149.9150 N   0  0  0  0  0  0  0  0  0  0  0  0
  161.0740  207.4910  150.5210 C   0  0  0  0  0  0  0  0  0  0  0  0
  162.0580  206.8260  147.9290 C   0  0  0  0  0  2  0  0  0  0  0  0
  160.7200  204.9460  150.5970 C   0  0  1  0  0  3  0  0  0  0  0  0
  162.0510  208.1750  148.4150 O   0  0  0  0  0  0  0  0  0  0  0  0
  160.5600  203.9380  149.5290 N   0  0  0  0  0  0  0  0  0  0  0  0
  161.9400  209.7340  150.2990 C   0  0  0  0  0  0  0  0  0  0  0  0
  162.5780  210.8160  149.4990 C   0  0  0  0  0  1  0  0  0  0  0  0
  160.7540  207.7430  151.8190 N   0  0  0  0  0  0  0  0  0  0  0  0
  160.8540  206.0610  148.4760 C   0  0  1  0  0  3  0  0  0  0  0  0
  161.0000  204.5640  148.2760 C   0  0  0  0  0  2  0  0  0  0  0  0
  161.5970  209.9740  151.6310 C   0  0  0  0  0  3  0  0  0  0  0  0
  161.0090  208.9530  152.3880 C   0  0  0  0  0  0  0  0  0  0  0  0
  161.6930  208.4750  149.7390 C   0  0  0  0  0  0  0  0  0  0  0  0
  160.5100  201.4820  148.9800 C   0  0  0  0  0  1  0  0  0  0  0  0
  161.1520  202.6130  149.7810 C   0  0  0  0  0  2  0  0  0  0  0  0
  161.5850  204.7460  152.8530 O   0  0  0  0  0  1  0  0  0  0  0  0
  161.9470  204.7370  151.5040 C   0  0  0  0  0  2  0  0  0  0  0  0
  160.6250  209.2050  153.8020 C   0  0  0  0  0  2  0  0  0  0  0  0
  160.7570  207.9260  154.6100 C   0  0  0  0  0  2  0  0  0  0  0  0
  161.3600  208.2200  155.9750 C   0  0  2  0  0  3  0  0  0  0  0  0
  160.4220  207.3260  157.2550 S   0  0  0  0  0  1  0  0  0  0  0  0
  161.4010  209.7250  156.2440 C   0  0  2  0  0  3  0  0  0  0  0  0
  162.7810  210.1560  156.7020 C   0  0  0  0  0  1  0  0  0  0  0  0
  160.4460  210.0930  157.1940 O   0  0  0  0  0  1  0  0  0  0  0  0
  1  2  1  0  0  0  0
  1  4  1  0  0  0  0
  2  9  1  0  0  0  0
  3  5  1  0  0  0  0
  4 18  1  6  0  0  0
  5 14  1  0  0  0  0
  6 16  1  0  0  0  0
  6  4  1  0  0  0  0
  7 12  2  0  0  0  0
  8  7  1  0  0  0  0
  9 13  2  0  0  0  0
 10  3  1  1  0  0  0
 10  1  1  0  0  0  0
 11 10  1  0  0  0  0
 11  6  1  0  0  0  0
 12 13  1  0  0  0  0
 13 19  1  0  0  0  0
 14  7  1  0  0  0  0
 14  2  2  0  0  0  0
 15 16  1  0  0  0  0
 18 17  1  0  0  0  0
 19 20  1  0  0  0  0
 20 21  1  0  0  0  0
 21 23  1  0  0  0  0
 21 22  1  1  0  0  0
 23 24  1  1  0  0  0
 23 25  1  0  0  0  0
M  END
>  <MODEL>
3

>  <REMARK>
 VINA RESULT:      -6.6      3.167      7.780
  Name = 
  6 active torsions:
  status: ('A' for Active; 'I' for Inactive)
    1  A    between atoms: C_2  and  C_21
    2  A    between atoms: C_5  and  C_22
    3  A    between atoms: C_6  and  C_15
    4  A    between atoms: C_6  and  C_23
    5  A    between atoms: N_10  and  C_11
    6  A    between atoms: C_15  and  C_21
                            x       y       z     vdW  Elec       q    Type
                         _______ _______ _______ _____ _____    ______ ____

>  <TORSDO>
F 6

$$$$
=
 OpenBabel11052422193D

 25 27  0  0  1  0  0  0  0  0999 V2000
  161.8060  206.3950  151.0790 N   0  0  0  0  0  0  0  0  0  0  0  0
  161.7790  207.8260  151.0540 C   0  0  0  0  0  0  0  0  0  0  0  0
  160.9190  206.3570  153.3430 C   0  0  0  0  0  2  0  0  0  0  0  0
  161.4950  205.5140  149.9670 C   0  0  1  0  0  3  0  0  0  0  0  0
  161.2060  207.7600  153.4050 O   0  0  0  0  0  0  0  0  0  0  0  0
  161.5090  204.1480  150.5290 N   0  0  0  0  0  0  0  0  0  0  0  0
  161.5090  209.9020  152.2580 C   0  0  0  0  0  0  0  0  0  0  0  0
  161.2330  210.6620  153.5070 C   0  0  0  0  0  1  0  0  0  0  0  0
  162.0220  208.5200  149.9100 N   0  0  0  0  0  0  0  0  0  0  0  0
  161.8430  205.6740  152.3350 C   0  0  1  0  0  3  0  0  0  0  0  0
  161.3580  204.2800  151.9840 C   0  0  0  0  0  2  0  0  0  0  0  0
  161.7680  210.5950  151.0740 C   0  0  0  0  0  3  0  0  0  0  0  0
  162.0150  209.8810  149.8940 C   0  0  0  0  0  0  0  0  0  0  0  0
  161.4960  208.5020  152.2480 C   0  0  0  0  0  0  0  0  0  0  0  0
  160.8820  201.7220  150.2890 C   0  0  0  0  0  1  0  0  0  0  0  0
  160.5910  203.1730  149.9140 C   0  0  0  0  0  2  0  0  0  0  0  0
  160.3650  206.2260  147.9430 O   0  0  0  0  0  1  0  0  0  0  0  0
  160.1720  205.9210  149.2920 C   0  0  0  0  0  2  0  0  0  0  0  0
  162.3080  210.6110  148.6330 C   0  0  0  0  0  2  0  0  0  0  0  0
  161.9220  212.0730  148.7780 C   0  0  0  0  0  2  0  0  0  0  0  0
  161.1050  212.5280  147.5800 C   0  0  2  0  0  3  0  0  0  0  0  0
  162.2050  213.3320  146.3700 S   0  0  0  0  0  1  0  0  0  0  0  0
  159.9630  213.4490  148.0120 C   0  0  2  0  0  3  0  0  0  0  0  0
  159.9760  213.6600  149.5140 C   0  0  0  0  0  1  0  0  0  0  0  0
  158.7250  212.9400  147.6140 O   0  0  0  0  0  1  0  0  0  0  0  0
  1 10  1  0  0  0  0
  2  1  1  0  0  0  0
  2 14  1  0  0  0  0
  3  5  1  0  0  0  0
  4 18  1  1  0  0  0
  4  6  1  0  0  0  0
  4  1  1  0  0  0  0
  6 11  1  0  0  0  0
  7  8  1  0  0  0  0
  9  2  2  0  0  0  0
 10 11  1  6  0  0  0
 10  3  1  0  0  0  0
 12  7  1  0  0  0  0
 13  9  1  0  0  0  0
 13 12  2  0  0  0  0
 14  7  2  0  0  0  0
 14  5  1  0  0  0  0
 16 15  1  0  0  0  0
 16  6  1  0  0  0  0
 17 18  1  0  0  0  0
 19 20  1  0  0  0  0
 19 13  1  0  0  0  0
 21 22  1  6  0  0  0
 21 23  1  0  0  0  0
 21 20  1  0  0  0  0
 23 24  1  1  0  0  0
 25 23  1  0  0  0  0
M  END
>  <MODEL>
4

>  <REMARK>
 VINA RESULT:      -6.4      3.305      6.269
  Name = 
  6 active torsions:
  status: ('A' for Active; 'I' for Inactive)
    1  A    between atoms: C_2  and  C_21
    2  A    between atoms: C_5  and  C_22
    3  A    between atoms: C_6  and  C_15
    4  A    between atoms: C_6  and  C_23
    5  A    between atoms: N_10  and  C_11
    6  A    between atoms: C_15  and  C_21
                            x       y       z     vdW  Elec       q    Type
                         _______ _______ _______ _____ _____    ______ ____

>  <TORSDO>
F 6

$$$$
=
 OpenBabel11052422193D

 25 27  0  0  1  0  0  0  0  0999 V2000
  160.8220  206.0940  149.8920 N   0  0  0  0  0  0  0  0  0  0  0  0
  161.0930  207.4070  150.3930 C   0  0  0  0  0  0  0  0  0  0  0  0
  162.1220  206.5280  147.8820 C   0  0  0  0  0  2  0  0  0  0  0  0
  160.7470  204.8750  150.6790 C   0  0  1  0  0  3  0  0  0  0  0  0
  162.1020  207.9130  148.2520 O   0  0  0  0  0  0  0  0  0  0  0  0
  160.6070  203.7800  149.6990 N   0  0  0  0  0  0  0  0  0  0  0  0
  161.9550  209.6270  149.9940 C   0  0  0  0  0  0  0  0  0  0  0  0
  162.6030  210.6390  149.1160 C   0  0  0  0  0  1  0  0  0  0  0  0
  160.7510  207.7670  151.6600 N   0  0  0  0  0  0  0  0  0  0  0  0
  160.9120  205.8070  148.4740 C   0  0  1  0  0  3  0  0  0  0  0  0
  161.0660  204.2990  148.4040 C   0  0  0  0  0  2  0  0  0  0  0  0
  161.5900  209.9780  151.2960 C   0  0  0  0  0  3  0  0  0  0  0  0
  160.9930  209.0210  152.1270 C   0  0  0  0  0  0  0  0  0  0  0  0
  161.7220  208.3230  149.5400 C   0  0  0  0  0  0  0  0  0  0  0  0
  160.7910  201.3270  149.1610 C   0  0  0  0  0  1  0  0  0  0  0  0
  161.2000  202.4830  150.0710 C   0  0  0  0  0  2  0  0  0  0  0  0
  161.5700  204.8310  152.9600 O   0  0  0  0  0  1  0  0  0  0  0  0
  161.9590  204.7500  151.6200 C   0  0  0  0  0  2  0  0  0  0  0  0
  160.5850  209.3910  153.5080 C   0  0  0  0  0  2  0  0  0  0  0  0
  161.1930  210.7310  153.8870 C   0  0  0  0  0  2  0  0  0  0  0  0
  160.2700  211.4850  154.8300 C   0  0  2  0  0  3  0  0  0  0  0  0
  159.3210  210.2930  155.8280 S   0  0  0  0  0  1  0  0  0  0  0  0
  159.3550  212.4370  154.0570 C   0  0  2  0  0  3  0  0  0  0  0  0
  157.9310  211.9190  154.0310 C   0  0  0  0  0  1  0  0  0  0  0  0
  159.8150  212.6310  152.7520 O   0  0  0  0  0  1  0  0  0  0  0  0
  1  2  1  0  0  0  0
  1  4  1  0  0  0  0
  2  9  1  0  0  0  0
  3  5  1  0  0  0  0
  4 18  1  6  0  0  0
  5 14  1  0  0  0  0
  6 16  1  0  0  0  0
  6  4  1  0  0  0  0
  7 12  2  0  0  0  0
  8  7  1  0  0  0  0
  9 13  2  0  0  0  0
 10  3  1  1  0  0  0
 10  1  1  0  0  0  0
 11 10  1  0  0  0  0
 11  6  1  0  0  0  0
 12 13  1  0  0  0  0
 13 19  1  0  0  0  0
 14  7  1  0  0  0  0
 14  2  2  0  0  0  0
 15 16  1  0  0  0  0
 18 17  1  0  0  0  0
 19 20  1  0  0  0  0
 20 21  1  0  0  0  0
 21 22  1  6  0  0  0
 23 24  1  6  0  0  0
 23 21  1  0  0  0  0
 25 23  1  0  0  0  0
M  END
>  <MODEL>
5

>  <REMARK>
 VINA RESULT:      -6.3      3.065      7.637
  Name = 
  6 active torsions:
  status: ('A' for Active; 'I' for Inactive)
    1  A    between atoms: C_2  and  C_21
    2  A    between atoms: C_5  and  C_22
    3  A    between atoms: C_6  and  C_15
    4  A    between atoms: C_6  and  C_23
    5  A    between atoms: N_10  and  C_11
    6  A    between atoms: C_15  and  C_21
                            x       y       z     vdW  Elec       q    Type
                         _______ _______ _______ _____ _____    ______ ____

>  <TORSDO>
F 6

$$$$
=
 OpenBabel11052422193D

 25 27  0  0  1  0  0  0  0  0999 V2000
  161.6400  204.2850  147.9030 N   0  0  0  0  0  0  0  0  0  0  0  0
  161.5080  204.6870  149.2700 C   0  0  0  0  0  0  0  0  0  0  0  0
  160.4760  202.1950  148.3430 C   0  0  0  0  0  2  0  0  0  0  0  0
  161.5410  205.1520  146.7410 C   0  0  1  0  0  3  0  0  0  0  0  0
  160.6470  202.4740  149.7390 O   0  0  0  0  0  0  0  0  0  0  0  0
  161.5850  204.2520  145.5710 N   0  0  0  0  0  0  0  0  0  0  0  0
  160.9310  204.1070  151.5420 C   0  0  0  0  0  0  0  0  0  0  0  0
  160.4420  203.1360  152.5590 C   0  0  0  0  0  1  0  0  0  0  0  0
  161.8430  205.9420  149.6750 N   0  0  0  0  0  0  0  0  0  0  0  0
  161.5700  202.8860  147.5300 C   0  0  1  0  0  3  0  0  0  0  0  0
  161.2400  202.9070  146.0490 C   0  0  0  0  0  2  0  0  0  0  0  0
  161.2870  205.3980  151.9370 C   0  0  0  0  0  3  0  0  0  0  0  0
  161.7350  206.3150  150.9790 C   0  0  0  0  0  0  0  0  0  0  0  0
  161.0250  203.7490  150.1910 C   0  0  0  0  0  0  0  0  0  0  0  0
  161.5480  205.7240  143.5300 C   0  0  0  0  0  1  0  0  0  0  0  0
  160.8290  204.6800  144.3810 C   0  0  0  0  0  2  0  0  0  0  0  0
  160.6320  207.3850  147.0050 O   0  0  0  0  0  1  0  0  0  0  0  0
  160.2870  206.0430  146.8230 C   0  0  0  0  0  2  0  0  0  0  0  0
  162.1310  207.6870  151.3940 C   0  0  0  0  0  2  0  0  0  0  0  0
  160.9250  208.4340  151.9360 C   0  0  0  0  0  2  0  0  0  0  0  0
  161.2820  209.1570  153.2240 C   0  0  2  0  0  3  0  0  0  0  0  0
  160.9760  208.0530  154.6410 S   0  0  0  0  0  1  0  0  0  0  0  0
  160.5090  210.4710  153.3480 C   0  0  2  0  0  3  0  0  0  0  0  0
  160.6000  211.2760  152.0650 C   0  0  0  0  0  1  0  0  0  0  0  0
  160.9750  211.2320  154.4220 O   0  0  0  0  0  1  0  0  0  0  0  0
  1  2  1  0  0  0  0
  2  9  2  0  0  0  0
  2 14  1  0  0  0  0
  3  5  1  0  0  0  0
  4 18  1  1  0  0  0
  4  1  1  0  0  0  0
  5 14  1  0  0  0  0
  6 11  1  0  0  0  0
  6  4  1  0  0  0  0
  7 12  1  0  0  0  0
  7  8  1  0  0  0  0
  9 13  1  0  0  0  0
 10 11  1  6  0  0  0
 10  1  1  0  0  0  0
 10  3  1  0  0  0  0
 13 19  1  0  0  0  0
 13 12  2  0  0  0  0
 14  7  2  0  0  0  0
 15 16  1  0  0  0  0
 16  6  1  0  0  0  0
 18 17  1  0  0  0  0
 19 20  1  0  0  0  0
 20 21  1  0  0  0  0
 21 23  1  0  0  0  0
 21 22  1  1  0  0  0
 23 24  1  6  0  0  0
 23 25  1  0  0  0  0
M  END
>  <MODEL>
6

>  <REMARK>
 VINA RESULT:      -6.1      3.093      7.329
  Name = 
  6 active torsions:
  status: ('A' for Active; 'I' for Inactive)
    1  A    between atoms: C_2  and  C_21
    2  A    between atoms: C_5  and  C_22
    3  A    between atoms: C_6  and  C_15
    4  A    between atoms: C_6  and  C_23
    5  A    between atoms: N_10  and  C_11
    6  A    between atoms: C_15  and  C_21
                            x       y       z     vdW  Elec       q    Type
                         _______ _______ _______ _____ _____    ______ ____

>  <TORSDO>
F 6

$$$$
=
 OpenBabel11052422193D

 25 27  0  0  1  0  0  0  0  0999 V2000
  161.5820  208.6260  154.0890 N   0  0  0  0  0  0  0  0  0  0  0  0
  161.4410  207.8240  152.9110 C   0  0  0  0  0  0  0  0  0  0  0  0
  161.4490  210.6740  152.7840 C   0  0  0  0  0  2  0  0  0  0  0  0
  161.0070  208.3400  155.3920 C   0  0  1  0  0  3  0  0  0  0  0  0
  161.6350  209.8610  151.6170 O   0  0  0  0  0  0  0  0  0  0  0  0
  161.2970  209.5280  156.2200 N   0  0  0  0  0  0  0  0  0  0  0  0
  161.4050  207.6950  150.5000 C   0  0  0  0  0  0  0  0  0  0  0  0
  161.4760  208.3290  149.1560 C   0  0  0  0  0  1  0  0  0  0  0  0
  161.2640  206.4770  152.9870 N   0  0  0  0  0  0  0  0  0  0  0  0
  162.0610  209.9910  154.0050 C   0  0  1  0  0  3  0  0  0  0  0  0
  161.5960  210.6320  155.3000 C   0  0  0  0  0  2  0  0  0  0  0  0
  161.2300  206.3120  150.6000 C   0  0  0  0  0  3  0  0  0  0  0  0
  161.1510  205.7160  151.8650 C   0  0  0  0  0  0  0  0  0  0  0  0
  161.4940  208.4640  151.6660 C   0  0  0  0  0  0  0  0  0  0  0  0
  159.5680  211.1750  157.0170 C   0  0  0  0  0  1  0  0  0  0  0  0
  160.3090  209.8630  157.2610 C   0  0  0  0  0  2  0  0  0  0  0  0
  159.1680  206.9480  156.1400 O   0  0  0  0  0  1  0  0  0  0  0  0
  159.5130  207.9860  155.2710 C   0  0  0  0  0  2  0  0  0  0  0  0
  160.9820  204.2430  151.9810 C   0  0  0  0  0  2  0  0  0  0  0  0
  161.7470  203.5450  150.8700 C   0  0  0  0  0  2  0  0  0  0  0  0
  160.8090  203.1630  149.7370 C   0  0  2  0  0  3  0  0  0  0  0  0
  160.2180  201.4580  149.9920 S   0  0  0  0  0  1  0  0  0  0  0  0
  161.4910  203.3330  148.3790 C   0  0  2  0  0  3  0  0  0  0  0  0
  161.1450  204.6740  147.7620 C   0  0  0  0  0  1  0  0  0  0  0  0
  161.1390  202.3020  147.5040 O   0  0  0  0  0  1  0  0  0  0  0  0
  1  4  1  0  0  0  0
  2  9  1  0  0  0  0
  2  1  1  0  0  0  0
  4 18  1  6  0  0  0
  4  6  1  0  0  0  0
  5 14  1  0  0  0  0
  5  3  1  0  0  0  0
  6 16  1  0  0  0  0
  7 12  2  0  0  0  0
  7 14  1  0  0  0  0
  8  7  1  0  0  0  0
 10  3  1  6  0  0  0
 10  1  1  0  0  0  0
 10 11  1  0  0  0  0
 11  6  1  0  0  0  0
 12 13  1  0  0  0  0
 13 19  1  0  0  0  0
 13  9  2  0  0  0  0
 14  2  2  0  0  0  0
 15 16  1  0  0  0  0
 18 17  1  0  0  0  0
 20 19  1  0  0  0  0
 21 22  1  1  0  0  0
 21 20  1  0  0  0  0
 23 24  1  6  0  0  0
 23 21  1  0  0  0  0
 25 23  1  0  0  0  0
M  END
>  <MODEL>
7

>  <REMARK>
 VINA RESULT:      -5.6      2.307      3.983
  Name = 
  6 active torsions:
  status: ('A' for Active; 'I' for Inactive)
    1  A    between atoms: C_2  and  C_21
    2  A    between atoms: C_5  and  C_22
    3  A    between atoms: C_6  and  C_15
    4  A    between atoms: C_6  and  C_23
    5  A    between atoms: N_10  and  C_11
    6  A    between atoms: C_15  and  C_21
                            x       y       z     vdW  Elec       q    Type
                         _______ _______ _______ _____ _____    ______ ____

>  <TORSDO>
F 6

$$$$
=
 OpenBabel11052422193D

 25 27  0  0  1  0  0  0  0  0999 V2000
  161.9040  206.5990  150.9500 N   0  0  0  0  0  0  0  0  0  0  0  0
  161.8120  208.0240  151.0340 C   0  0  0  0  0  0  0  0  0  0  0  0
  161.2000  206.3570  153.2660 C   0  0  0  0  0  2  0  0  0  0  0  0
  161.5460  205.7830  149.8020 C   0  0  1  0  0  3  0  0  0  0  0  0
  161.4300  207.7650  153.4100 O   0  0  0  0  0  0  0  0  0  0  0  0
  161.6640  204.3840  150.2600 N   0  0  0  0  0  0  0  0  0  0  0  0
  161.5460  209.9940  152.4050 C   0  0  0  0  0  0  0  0  0  0  0  0
  161.3360  210.6500  153.7240 C   0  0  0  0  0  1  0  0  0  0  0  0
  161.9340  208.8090  149.9290 N   0  0  0  0  0  0  0  0  0  0  0  0
  162.0710  205.7940  152.1440 C   0  0  1  0  0  3  0  0  0  0  0  0
  161.6220  204.4050  151.7270 C   0  0  0  0  0  2  0  0  0  0  0  0
  161.6810  210.7820  151.2590 C   0  0  0  0  0  3  0  0  0  0  0  0
  161.8650  210.1650  150.0150 C   0  0  0  0  0  0  0  0  0  0  0  0
  161.5940  208.6000  152.2920 C   0  0  0  0  0  0  0  0  0  0  0  0
  160.8200  202.0120  150.2530 C   0  0  0  0  0  1  0  0  0  0  0  0
  160.7440  203.4110  149.6450 C   0  0  0  0  0  2  0  0  0  0  0  0
  160.1890  206.3630  147.8780 O   0  0  0  0  0  1  0  0  0  0  0  0
  160.1570  206.1710  149.2610 C   0  0  0  0  0  2  0  0  0  0  0  0
  162.0270  210.9960  148.7930 C   0  0  0  0  0  2  0  0  0  0  0  0
  161.6530  212.4370  149.0930 C   0  0  0  0  0  2  0  0  0  0  0  0
  161.1780  213.1370  147.8300 C   0  0  2  0  0  3  0  0  0  0  0  0
  160.3880  211.9220  146.7270 S   0  0  0  0  0  1  0  0  0  0  0  0
  162.3320  213.8670  147.1410 C   0  0  2  0  0  3  0  0  0  0  0  0
  162.5900  213.2920  145.7610 C   0  0  0  0  0  1  0  0  0  0  0  0
  163.4980  213.8060  147.9080 O   0  0  0  0  0  1  0  0  0  0  0  0
  1  2  1  0  0  0  0
  1 10  1  0  0  0  0
  2 14  1  0  0  0  0
  3  5  1  0  0  0  0
  4 18  1  1  0  0  0
  4  6  1  0  0  0  0
  4  1  1  0  0  0  0
  6 11  1  0  0  0  0
  7  8  1  0  0  0  0
  9 13  1  0  0  0  0
  9  2  2  0  0  0  0
 10 11  1  6  0  0  0
 10  3  1  0  0  0  0
 12  7  1  0  0  0  0
 13 12  2  0  0  0  0
 14  7  2  0  0  0  0
 14  5  1  0  0  0  0
 16 15  1  0  0  0  0
 16  6  1  0  0  0  0
 17 18  1  0  0  0  0
 19 20  1  0  0  0  0
 19 13  1  0  0  0  0
 21 22  1  6  0  0  0
 21 20  1  0  0  0  0
 23 24  1  6  0  0  0
 23 21  1  0  0  0  0
 23 25  1  0  0  0  0
M  END
>  <MODEL>
8

>  <REMARK>
 VINA RESULT:      -5.6      3.304      6.147
  Name = 
  6 active torsions:
  status: ('A' for Active; 'I' for Inactive)
    1  A    between atoms: C_2  and  C_21
    2  A    between atoms: C_5  and  C_22
    3  A    between atoms: C_6  and  C_15
    4  A    between atoms: C_6  and  C_23
    5  A    between atoms: N_10  and  C_11
    6  A    between atoms: C_15  and  C_21
                            x       y       z     vdW  Elec       q    Type
                         _______ _______ _______ _____ _____    ______ ____

>  <TORSDO>
F 6

$$$$
=
 OpenBabel11052422193D

 25 27  0  0  1  0  0  0  0  0999 V2000
  162.0390  208.7680  150.7860 N   0  0  0  0  0  0  0  0  0  0  0  0
  161.6870  207.7540  151.7310 C   0  0  0  0  0  0  0  0  0  0  0  0
  161.2990  207.3810  148.9300 C   0  0  0  0  0  2  0  0  0  0  0  0
  161.8810  210.2010  150.9680 C   0  0  1  0  0  3  0  0  0  0  0  0
  161.2630  206.2850  149.8540 O   0  0  0  0  0  0  0  0  0  0  0  0
  162.2330  210.8060  149.6670 N   0  0  0  0  0  0  0  0  0  0  0  0
  161.0130  205.4730  152.1500 C   0  0  0  0  0  0  0  0  0  0  0  0
  160.6350  204.1140  151.6760 C   0  0  0  0  0  1  0  0  0  0  0  0
  161.7090  207.9940  153.0700 N   0  0  0  0  0  0  0  0  0  0  0  0
  162.3010  208.4340  149.4000 C   0  0  1  0  0  3  0  0  0  0  0  0
  162.1290  209.7450  148.6570 C   0  0  0  0  0  2  0  0  0  0  0  0
  161.0490  205.7380  153.5210 C   0  0  0  0  0  3  0  0  0  0  0  0
  161.3920  207.0210  153.9670 C   0  0  0  0  0  0  0  0  0  0  0  0
  161.3180  206.4940  151.2420 C   0  0  0  0  0  0  0  0  0  0  0  0
  162.2610  212.9010  148.2720 C   0  0  0  0  0  1  0  0  0  0  0  0
  161.5300  212.0510  149.3090 C   0  0  0  0  0  2  0  0  0  0  0  0
  160.5210  211.2470  152.6810 O   0  0  0  0  0  1  0  0  0  0  0  0
  160.4680  210.5400  151.4770 C   0  0  0  0  0  2  0  0  0  0  0  0
  161.4490  207.3080  155.4250 C   0  0  0  0  0  2  0  0  0  0  0  0
  160.4130  208.3580  155.7870 C   0  0  0  0  0  2  0  0  0  0  0  0
  161.0760  209.7110  155.9890 C   0  0  2  0  0  3  0  0  0  0  0  0
  162.4440  209.5420  157.1790 S   0  0  0  0  0  1  0  0  0  0  0  0
  160.0560  210.7600  156.4360 C   0  0  2  0  0  3  0  0  0  0  0  0
  158.7450  210.5930  155.6930 C   0  0  0  0  0  1  0  0  0  0  0  0
  160.5480  212.0540  156.2490 O   0  0  0  0  0  1  0  0  0  0  0  0
  1  4  1  0  0  0  0
  1  2  1  0  0  0  0
  2  9  1  0  0  0  0
  3 10  1  0  0  0  0
  3  5  1  0  0  0  0
  4 18  1  6  0  0  0
  5 14  1  0  0  0  0
  6  4  1  0  0  0  0
  7 12  2  0  0  0  0
  8  7  1  0  0  0  0
  9 13  2  0  0  0  0
 10 11  1  6  0  0  0
 10  1  1  0  0  0  0
 11  6  1  0  0  0  0
 12 13  1  0  0  0  0
 13 19  1  0  0  0  0
 14  2  2  0  0  0  0
 14  7  1  0  0  0  0
 15 16  1  0  0  0  0
 16  6  1  0  0  0  0
 18 17  1  0  0  0  0
 19 20  1  0  0  0  0
 20 21  1  0  0  0  0
 21 23  1  0  0  0  0
 21 22  1  1  0  0  0
 23 24  1  6  0  0  0
 25 23  1  0  0  0  0
M  END
>  <MODEL>
9

>  <REMARK>
 VINA RESULT:      -5.5      3.658      6.931
  Name = 
  6 active torsions:
  status: ('A' for Active; 'I' for Inactive)
    1  A    between atoms: C_2  and  C_21
    2  A    between atoms: C_5  and  C_22
    3  A    between atoms: C_6  and  C_15
    4  A    between atoms: C_6  and  C_23
    5  A    between atoms: N_10  and  C_11
    6  A    between atoms: C_15  and  C_21
                            x       y       z     vdW  Elec       q    Type
                         _______ _______ _______ _____ _____    ______ ____

>  <TORSDO>
F 6

$$$$
