=
 OpenBabel11062410393D

 32 37  0  0  1  0  0  0  0  0999 V2000
  160.5930  206.3420  147.9240 C   0  0  0  0  0  0  0  0  0  0  0  0
  160.5590  206.3700  151.5510 O   0  0  0  0  0  0  0  0  0  0  0  0
  161.4460  211.2450  151.5250 C   0  0  0  0  0  3  0  0  0  0  0  0
  157.3780  210.8270  155.8830 C   0  0  0  0  0  2  0  0  0  0  0  0
  156.5290  211.0450  154.6310 C   0  0  0  0  0  2  0  0  0  0  0  0
  162.2780  208.8940  151.6330 C   0  0  0  0  0  0  0  0  0  0  0  0
  160.7370  209.0490  153.6090 C   0  0  0  0  0  3  0  0  0  0  0  0
  160.1020  206.0040  149.1760 C   0  0  0  0  0  3  0  0  0  0  0  0
  161.3860  206.8220  152.6210 C   0  0  0  0  0  2  0  0  0  0  0  0
  158.6890  210.1450  155.5040 C   0  0  0  0  0  2  0  0  0  0  0  0
  160.3110  210.3150  153.5300 C   0  0  0  0  0  0  0  0  0  0  0  0
  159.3210  210.8590  154.3980 N   0  0  0  0  0  0  0  0  0  0  0  0
  159.4450  212.2230  152.5060 N   0  0  0  0  0  0  0  0  0  0  0  0
  161.9520  207.3220  148.0590 S   0  0  0  0  0  0  0  0  0  0  0  0
  161.9430  207.3430  149.7390 C   0  0  0  0  0  0  0  0  0  0  0  0
  160.0230  205.9180  146.6910 N   0  0  0  0  0  1  0  0  0  0  0  0
  161.5260  208.3140  152.5950 C   0  0  0  0  0  0  0  0  0  0  0  0
  162.9510  208.0600  150.5810 C   0  0  0  0  0  2  0  0  0  0  0  0
  160.8740  206.5680  150.2000 C   0  0  0  0  0  0  0  0  0  0  0  0
  157.2380  211.8820  153.5480 C   0  0  0  0  0  2  0  0  0  0  0  0
  158.7440  212.0600  153.7820 C   0  0  1  0  0  3  0  0  0  0  0  0
  162.6310  210.3460  151.6490 C   0  0  0  0  0  2  0  0  0  0  0  0
  160.4450  211.2140  152.4010 C   0  0  0  0  0  0  0  0  0  0  0  0
  159.3850  213.4360  151.6960 C   0  0  0  0  0  2  0  0  0  0  0  0
  157.1150  213.8730  150.7480 C   0  0  0  0  0  2  0  0  0  0  0  0
  156.2740  214.0320  149.5080 C   0  0  0  0  0  0  0  0  0  0  0  0
  159.1130  213.8490  149.2340 C   0  0  2  0  0  3  0  0  0  0  0  0
  158.2230  213.5480  148.0320 C   0  0  0  0  0  2  0  0  0  0  0  0
  156.7940  213.9400  148.2810 C   0  0  0  0  0  3  0  0  0  0  0  0
  154.9310  214.3510  149.6480 O   0  0  0  0  0  1  0  0  0  0  0  0
  160.3760  213.2990  149.0090 O   0  0  0  0  0  1  0  0  0  0  0  0
  158.4820  213.2340  150.4840 C   0  0  1  0  0  3  0  0  0  0  0  0
  1 14  1  0  0  0  0
  1  8  2  0  0  0  0
  2  9  1  0  0  0  0
  3 22  1  0  0  0  0
  3 23  2  0  0  0  0
  5  4  1  0  0  0  0
  6 22  1  0  0  0  0
  6 17  2  0  0  0  0
  8 19  1  0  0  0  0
 10  4  1  0  0  0  0
 11  7  2  0  0  0  0
 11 12  1  0  0  0  0
 12 10  1  0  0  0  0
 13 21  1  0  0  0  0
 14 15  1  0  0  0  0
 15 19  2  0  0  0  0
 15 18  1  0  0  0  0
 16  1  1  0  0  0  0
 17  9  1  0  0  0  0
 17  7  1  0  0  0  0
 18  6  1  0  0  0  0
 19  2  1  0  0  0  0
 20  5  1  0  0  0  0
 21 20  1  6  0  0  0
 21 12  1  0  0  0  0
 23 13  1  0  0  0  0
 23 11  1  0  0  0  0
 24 13  1  0  0  0  0
 26 30  1  0  0  0  0
 26 25  1  0  0  0  0
 27 31  1  6  0  0  0
 27 32  1  0  0  0  0
 28 29  1  0  0  0  0
 28 27  1  0  0  0  0
 29 26  2  0  0  0  0
 32 25  1  0  0  0  0
 32 24  1  1  0  0  0
M  END
>  <MODEL>
1

>  <REMARK>
 VINA RESULT:      -5.6      0.000      0.000
  Name = 
  2 active torsions:
  status: ('A' for Active; 'I' for Inactive)
    1  A    between atoms: N_16  and  C_27
    2  A    between atoms: C_27  and  C_32
                            x       y       z     vdW  Elec       q    Type
                         _______ _______ _______ _____ _____    ______ ____

>  <TORSDO>
F 2

$$$$
=
 OpenBabel11062410393D

 32 37  0  0  1  0  0  0  0  0999 V2000
  156.9850  213.2790  146.2630 C   0  0  0  0  0  0  0  0  0  0  0  0
  160.3020  211.8290  146.4920 O   0  0  0  0  0  0  0  0  0  0  0  0
  160.2740  212.5330  151.3970 C   0  0  0  0  0  3  0  0  0  0  0  0
  162.7260  207.0960  151.0180 C   0  0  0  0  0  2  0  0  0  0  0  0
  161.2310  206.8000  151.1220 C   0  0  0  0  0  2  0  0  0  0  0  0
  160.8640  213.3150  149.1010 C   0  0  0  0  0  0  0  0  0  0  0  0
  162.0710  211.1210  149.2880 C   0  0  0  0  0  3  0  0  0  0  0  0
  157.9700  212.3470  145.9710 C   0  0  0  0  0  3  0  0  0  0  0  0
  161.5750  212.1600  147.0450 C   0  0  0  0  0  2  0  0  0  0  0  0
  162.9360  208.4680  150.3830 C   0  0  0  0  0  2  0  0  0  0  0  0
  161.7410  210.7280  150.5250 C   0  0  0  0  0  0  0  0  0  0  0  0
  162.1150  209.4650  151.0660 N   0  0  0  0  0  0  0  0  0  0  0  0
  160.3270  210.2840  152.3260 N   0  0  0  0  0  0  0  0  0  0  0  0
  157.5670  214.4520  147.3170 S   0  0  0  0  0  0  0  0  0  0  0  0
  159.1060  213.7860  147.4310 C   0  0  0  0  0  0  0  0  0  0  0  0
  155.6620  213.2480  145.7410 N   0  0  0  0  0  1  0  0  0  0  0  0
  161.4980  212.2620  148.5380 C   0  0  0  0  0  0  0  0  0  0  0  0
  160.2200  214.3660  148.2450 C   0  0  0  0  0  2  0  0  0  0  0  0
  159.1690  212.6420  146.6300 C   0  0  0  0  0  0  0  0  0  0  0  0
  160.4520  207.8540  151.9310 C   0  0  0  0  0  2  0  0  0  0  0  0
  161.2390  209.1450  152.1980 C   0  0  1  0  0  3  0  0  0  0  0  0
  160.9130  213.5970  150.5680 C   0  0  0  0  0  2  0  0  0  0  0  0
  160.6920  211.2700  151.3640 C   0  0  0  0  0  0  0  0  0  0  0  0
  159.4740  210.5160  153.4860 C   0  0  0  0  0  2  0  0  0  0  0  0
  159.6360  212.5350  154.9490 C   0  0  0  0  0  2  0  0  0  0  0  0
  160.1150  213.1120  156.2560 C   0  0  0  0  0  0  0  0  0  0  0  0
  160.2710  210.2860  155.8560 C   0  0  2  0  0  3  0  0  0  0  0  0
  161.1400  210.9410  156.9260 C   0  0  0  0  0  2  0  0  0  0  0  0
  160.7450  212.3700  157.1710 C   0  0  0  0  0  3  0  0  0  0  0  0
  159.8300  214.4390  156.5450 O   0  0  0  0  0  1  0  0  0  0  0  0
  160.8040  209.0330  155.5490 O   0  0  0  0  0  1  0  0  0  0  0  0
  160.2600  211.1770  154.6140 C   0  0  1  0  0  3  0  0  0  0  0  0
  1 14  1  0  0  0  0
  2 19  1  0  0  0  0
  2  9  1  0  0  0  0
  4  5  1  0  0  0  0
  5 20  1  0  0  0  0
  6 22  1  0  0  0  0
  7 11  2  0  0  0  0
  8  1  2  0  0  0  0
  8 19  1  0  0  0  0
  9 17  1  0  0  0  0
 10  4  1  0  0  0  0
 10 12  1  0  0  0  0
 11 12  1  0  0  0  0
 11 23  1  0  0  0  0
 12 21  1  0  0  0  0
 13 24  1  0  0  0  0
 14 15  1  0  0  0  0
 15 18  1  0  0  0  0
 16  1  1  0  0  0  0
 17  6  2  0  0  0  0
 17  7  1  0  0  0  0
 18  6  1  0  0  0  0
 19 15  2  0  0  0  0
 21 20  1  6  0  0  0
 21 13  1  0  0  0  0
 22  3  1  0  0  0  0
 23  3  2  0  0  0  0
 23 13  1  0  0  0  0
 25 26  1  0  0  0  0
 26 30  1  0  0  0  0
 26 29  2  0  0  0  0
 27 31  1  6  0  0  0
 27 28  1  0  0  0  0
 28 29  1  0  0  0  0
 32 24  1  6  0  0  0
 32 25  1  0  0  0  0
 32 27  1  0  0  0  0
M  END
>  <MODEL>
2

>  <REMARK>
 VINA RESULT:      -3.5      3.268      6.605
  Name = 
  2 active torsions:
  status: ('A' for Active; 'I' for Inactive)
    1  A    between atoms: N_16  and  C_27
    2  A    between atoms: C_27  and  C_32
                            x       y       z     vdW  Elec       q    Type
                         _______ _______ _______ _____ _____    ______ ____

>  <TORSDO>
F 2

$$$$
=
 OpenBabel11062410393D

 32 37  0  0  1  0  0  0  0  0999 V2000
  156.5840  211.0340  155.0180 C   0  0  0  0  0  0  0  0  0  0  0  0
  159.0640  211.8980  152.5160 O   0  0  0  0  0  0  0  0  0  0  0  0
  161.5000  207.6910  153.4730 C   0  0  0  0  0  3  0  0  0  0  0  0
  161.8360  207.8970  147.5090 C   0  0  0  0  0  2  0  0  0  0  0  0
  160.5430  207.1230  147.7610 C   0  0  0  0  0  2  0  0  0  0  0  0
  161.1620  210.1330  153.8620 C   0  0  0  0  0  0  0  0  0  0  0  0
  161.6360  210.0050  151.4000 C   0  0  0  0  0  3  0  0  0  0  0  0
  157.0110  211.5030  153.7850 C   0  0  0  0  0  3  0  0  0  0  0  0
  160.4830  212.0050  152.4120 C   0  0  0  0  0  2  0  0  0  0  0  0
  162.1110  208.8350  148.6810 C   0  0  0  0  0  2  0  0  0  0  0  0
  161.8170  208.6910  151.2200 C   0  0  0  0  0  0  0  0  0  0  0  0
  162.0200  208.1000  149.9400 N   0  0  0  0  0  0  0  0  0  0  0  0
  161.3310  206.4170  151.4050 N   0  0  0  0  0  0  0  0  0  0  0  0
  157.8930  210.5880  155.9730 S   0  0  0  0  0  0  0  0  0  0  0  0
  159.0500  210.9830  154.8190 C   0  0  0  0  0  0  0  0  0  0  0  0
  155.2230  210.9410  155.4200 N   0  0  0  0  0  1  0  0  0  0  0  0
  161.1350  210.6720  152.6230 C   0  0  0  0  0  0  0  0  0  0  0  0
  160.5260  210.8460  155.0200 C   0  0  0  0  0  2  0  0  0  0  0  0
  158.4070  211.4780  153.6800 C   0  0  0  0  0  0  0  0  0  0  0  0
  160.5610  206.3060  149.0670 C   0  0  0  0  0  2  0  0  0  0  0  0
  161.7140  206.6670  150.0140 C   0  0  1  0  0  3  0  0  0  0  0  0
  161.9590  208.9130  154.1950 C   0  0  0  0  0  2  0  0  0  0  0  0
  161.4770  207.6270  152.1440 C   0  0  0  0  0  0  0  0  0  0  0  0
  161.2150  205.0850  151.9890 C   0  0  0  0  0  2  0  0  0  0  0  0
  161.4690  204.2680  149.6410 C   0  0  0  0  0  2  0  0  0  0  0  0
  161.2910  203.1250  148.6760 C   0  0  0  0  0  0  0  0  0  0  0  0
  160.8790  202.6520  151.4640 C   0  0  2  0  0  3  0  0  0  0  0  0
  160.2780  201.6900  150.4440 C   0  0  0  0  0  2  0  0  0  0  0  0
  160.8040  201.9410  149.0590 C   0  0  0  0  0  3  0  0  0  0  0  0
  161.7110  203.2870  147.3640 O   0  0  0  0  0  1  0  0  0  0  0  0
  160.2180  202.4870  152.6830 O   0  0  0  0  0  1  0  0  0  0  0  0
  160.7060  204.0830  150.9570 C   0  0  1  0  0  3  0  0  0  0  0  0
  1 16  1  0  0  0  0
  1 14  1  0  0  0  0
  2 19  1  0  0  0  0
  3 22  1  0  0  0  0
  4  5  1  0  0  0  0
  4 10  1  0  0  0  0
  5 20  1  0  0  0  0
  6 22  1  0  0  0  0
  6 18  1  0  0  0  0
  7 17  1  0  0  0  0
  8  1  2  0  0  0  0
  9  2  1  0  0  0  0
  9 17  1  0  0  0  0
 10 12  1  0  0  0  0
 11  7  2  0  0  0  0
 11 23  1  0  0  0  0
 12 21  1  0  0  0  0
 12 11  1  0  0  0  0
 13 24  1  0  0  0  0
 13 23  1  0  0  0  0
 15 18  1  0  0  0  0
 15 14  1  0  0  0  0
 17  6  2  0  0  0  0
 19  8  1  0  0  0  0
 19 15  2  0  0  0  0
 21 20  1  6  0  0  0
 21 13  1  0  0  0  0
 23  3  2  0  0  0  0
 25 32  1  0  0  0  0
 26 29  2  0  0  0  0
 26 25  1  0  0  0  0
 27 31  1  1  0  0  0
 28 27  1  0  0  0  0
 29 28  1  0  0  0  0
 30 26  1  0  0  0  0
 32 27  1  0  0  0  0
 32 24  1  1  0  0  0
M  END
>  <MODEL>
3

>  <REMARK>
 VINA RESULT:      -3.4      3.372      8.312
  Name = 
  2 active torsions:
  status: ('A' for Active; 'I' for Inactive)
    1  A    between atoms: N_16  and  C_27
    2  A    between atoms: C_27  and  C_32
                            x       y       z     vdW  Elec       q    Type
                         _______ _______ _______ _____ _____    ______ ____

>  <TORSDO>
F 2

$$$$
=
 OpenBabel11062410393D

 32 37  0  0  1  0  0  0  0  0999 V2000
  157.9510  211.4490  154.0680 C   0  0  0  0  0  0  0  0  0  0  0  0
  160.9590  211.0690  152.0770 O   0  0  0  0  0  0  0  0  0  0  0  0
  160.7200  206.1530  152.6490 C   0  0  0  0  0  3  0  0  0  0  0  0
  162.2570  206.5800  146.8890 C   0  0  0  0  0  2  0  0  0  0  0  0
  160.7300  206.5790  146.8450 C   0  0  0  0  0  2  0  0  0  0  0  0
  161.5840  208.3780  153.3790 C   0  0  0  0  0  0  0  0  0  0  0  0
  162.3950  208.1980  151.0100 C   0  0  0  0  0  3  0  0  0  0  0  0
  158.7840  211.7140  152.9920 C   0  0  0  0  0  3  0  0  0  0  0  0
  162.2290  210.4270  152.1750 C   0  0  0  0  0  2  0  0  0  0  0  0
  162.7340  207.1500  148.2220 C   0  0  0  0  0  2  0  0  0  0  0  0
  161.9230  206.9990  150.6460 C   0  0  0  0  0  0  0  0  0  0  0  0
  162.0450  206.4830  149.3240 N   0  0  0  0  0  0  0  0  0  0  0  0
  160.3380  205.3060  150.3990 N   0  0  0  0  0  0  0  0  0  0  0  0
  158.6480  210.3190  155.0990 S   0  0  0  0  0  0  0  0  0  0  0  0
  160.0440  210.1340  154.1820 C   0  0  0  0  0  0  0  0  0  0  0  0
  156.6790  212.0510  154.2730 N   0  0  0  0  0  1  0  0  0  0  0  0
  162.0710  208.9390  152.2500 C   0  0  0  0  0  0  0  0  0  0  0  0
  161.1820  209.2330  154.5460 C   0  0  0  0  0  2  0  0  0  0  0  0
  159.9700  210.9720  153.0650 C   0  0  0  0  0  0  0  0  0  0  0  0
  160.0840  205.7810  147.9930 C   0  0  0  0  0  2  0  0  0  0  0  0
  161.0550  205.4190  149.1260 C   0  0  1  0  0  3  0  0  0  0  0  0
  161.5810  206.9010  153.6110 C   0  0  0  0  0  2  0  0  0  0  0  0
  160.9250  206.2060  151.3350 C   0  0  0  0  0  0  0  0  0  0  0  0
  159.4590  204.1920  150.7400 C   0  0  0  0  0  2  0  0  0  0  0  0
  160.1250  202.8280  148.7550 C   0  0  0  0  0  2  0  0  0  0  0  0
  161.0030  201.7290  148.2160 C   0  0  0  0  0  0  0  0  0  0  0  0
  161.4620  202.6840  150.8700 C   0  0  2  0  0  3  0  0  0  0  0  0
  161.9920  201.3120  150.4650 C   0  0  0  0  0  2  0  0  0  0  0  0
  161.8870  201.0850  148.9830 C   0  0  0  0  0  3  0  0  0  0  0  0
  160.9380  201.4250  146.8640 O   0  0  0  0  0  1  0  0  0  0  0  0
  161.4190  202.7570  152.2630 O   0  0  0  0  0  1  0  0  0  0  0  0
  160.0620  202.8670  150.2860 C   0  0  1  0  0  3  0  0  0  0  0  0
  1 16  1  0  0  0  0
  1 14  1  0  0  0  0
  2  9  1  0  0  0  0
  2 19  1  0  0  0  0
  3 22  1  0  0  0  0
  4 10  1  0  0  0  0
  5  4  1  0  0  0  0
  5 20  1  0  0  0  0
  6 22  1  0  0  0  0
  6 18  1  0  0  0  0
  7 17  1  0  0  0  0
  8 19  1  0  0  0  0
  8  1  2  0  0  0  0
  9 17  1  0  0  0  0
 10 12  1  0  0  0  0
 11  7  2  0  0  0  0
 11 23  1  0  0  0  0
 12 11  1  0  0  0  0
 13 24  1  0  0  0  0
 13 23  1  0  0  0  0
 15 18  1  0  0  0  0
 15 14  1  0  0  0  0
 17  6  2  0  0  0  0
 19 15  2  0  0  0  0
 21 20  1  6  0  0  0
 21 12  1  0  0  0  0
 21 13  1  0  0  0  0
 23  3  2  0  0  0  0
 25 32  1  0  0  0  0
 26 25  1  0  0  0  0
 26 29  2  0  0  0  0
 27 31  1  1  0  0  0
 28 27  1  0  0  0  0
 29 28  1  0  0  0  0
 30 26  1  0  0  0  0
 32 24  1  6  0  0  0
 32 27  1  0  0  0  0
M  END
>  <MODEL>
4

>  <REMARK>
 VINA RESULT:      -3.4      3.227      8.672
  Name = 
  2 active torsions:
  status: ('A' for Active; 'I' for Inactive)
    1  A    between atoms: N_16  and  C_27
    2  A    between atoms: C_27  and  C_32
                            x       y       z     vdW  Elec       q    Type
                         _______ _______ _______ _____ _____    ______ ____

>  <TORSDO>
F 2

$$$$
=
 OpenBabel11062410393D

 32 37  0  0  1  0  0  0  0  0999 V2000
  157.1080  213.9570  148.7230 C   0  0  0  0  0  0  0  0  0  0  0  0
  159.6890  212.1230  146.9530 O   0  0  0  0  0  0  0  0  0  0  0  0
  161.5640  210.5840  151.2730 C   0  0  0  0  0  3  0  0  0  0  0  0
  161.9480  205.6000  147.9980 C   0  0  0  0  0  2  0  0  0  0  0  0
  160.5650  205.4920  148.6400 C   0  0  0  0  0  2  0  0  0  0  0  0
  161.5390  212.2120  149.3820 C   0  0  0  0  0  0  0  0  0  0  0  0
  162.0030  210.0220  148.2470 C   0  0  0  0  0  3  0  0  0  0  0  0
  157.5970  213.1270  147.7260 C   0  0  0  0  0  3  0  0  0  0  0  0
  161.1100  212.0010  146.9650 C   0  0  0  0  0  2  0  0  0  0  0  0
  162.3360  207.0680  147.8550 C   0  0  0  0  0  2  0  0  0  0  0  0
  162.0150  209.1710  149.2800 C   0  0  0  0  0  0  0  0  0  0  0  0
  162.1460  207.7610  149.1270 N   0  0  0  0  0  0  0  0  0  0  0  0
  161.2420  208.1720  151.2410 N   0  0  0  0  0  0  0  0  0  0  0  0
  158.3460  214.4530  149.7470 S   0  0  0  0  0  0  0  0  0  0  0  0
  159.5480  213.6050  148.9350 C   0  0  0  0  0  0  0  0  0  0  0  0
  155.7450  214.3380  148.8630 N   0  0  0  0  0  1  0  0  0  0  0  0
  161.5860  211.4420  148.2720 C   0  0  0  0  0  0  0  0  0  0  0  0
  160.9940  213.6100  149.3200 C   0  0  0  0  0  2  0  0  0  0  0  0
  158.9790  212.9360  147.8460 C   0  0  0  0  0  0  0  0  0  0  0  0
  160.4740  206.1740  150.0180 C   0  0  0  0  0  2  0  0  0  0  0  0
  161.6600  207.0950  150.3400 C   0  0  1  0  0  3  0  0  0  0  0  0
  162.1720  211.8080  150.6740 C   0  0  0  0  0  2  0  0  0  0  0  0
  161.5380  209.4220  150.6250 C   0  0  0  0  0  0  0  0  0  0  0  0
  160.9540  207.9790  152.6580 C   0  0  0  0  0  2  0  0  0  0  0  0
  159.4520  209.9580  152.9260 C   0  0  0  0  0  2  0  0  0  0  0  0
  159.0170  211.1030  153.8030 C   0  0  0  0  0  0  0  0  0  0  0  0
  160.7930  209.1400  154.8790 C   0  0  2  0  0  3  0  0  0  0  0  0
  160.7010  210.5110  155.5420 C   0  0  0  0  0  2  0  0  0  0  0  0
  159.5470  211.3140  155.0110 C   0  0  0  0  0  3  0  0  0  0  0  0
  157.9840  211.9220  153.3690 O   0  0  0  0  0  1  0  0  0  0  0  0
  161.9800  208.5250  155.2800 O   0  0  0  0  0  1  0  0  0  0  0  0
  160.7750  209.3210  153.3620 C   0  0  1  0  0  3  0  0  0  0  0  0
  1 16  1  0  0  0  0
  1 14  1  0  0  0  0
  2  9  1  0  0  0  0
  2 19  1  0  0  0  0
  4  5  1  0  0  0  0
  5 20  1  0  0  0  0
  6 22  1  0  0  0  0
  7 17  1  0  0  0  0
  7 11  2  0  0  0  0
  8 19  1  0  0  0  0
  8  1  2  0  0  0  0
  9 17  1  0  0  0  0
 10  4  1  0  0  0  0
 10 12  1  0  0  0  0
 11 23  1  0  0  0  0
 12 11  1  0  0  0  0
 12 21  1  0  0  0  0
 13 24  1  0  0  0  0
 15 18  1  0  0  0  0
 15 14  1  0  0  0  0
 17  6  2  0  0  0  0
 18  6  1  0  0  0  0
 19 15  2  0  0  0  0
 21 20  1  6  0  0  0
 21 13  1  0  0  0  0
 22  3  1  0  0  0  0
 23 13  1  0  0  0  0
 23  3  2  0  0  0  0
 25 32  1  0  0  0  0
 25 26  1  0  0  0  0
 26 29  2  0  0  0  0
 27 31  1  6  0  0  0
 27 28  1  0  0  0  0
 29 28  1  0  0  0  0
 30 26  1  0  0  0  0
 32 24  1  6  0  0  0
 32 27  1  0  0  0  0
M  END
>  <MODEL>
5

>  <REMARK>
 VINA RESULT:      -3.2      2.825      6.828
  Name = 
  2 active torsions:
  status: ('A' for Active; 'I' for Inactive)
    1  A    between atoms: N_16  and  C_27
    2  A    between atoms: C_27  and  C_32
                            x       y       z     vdW  Elec       q    Type
                         _______ _______ _______ _____ _____    ______ ____

>  <TORSDO>
F 2

$$$$
=
 OpenBabel11062410393D

 32 37  0  0  1  0  0  0  0  0999 V2000
  160.9360  206.4590  149.2040 C   0  0  0  0  0  0  0  0  0  0  0  0
  160.4460  206.8940  152.7710 O   0  0  0  0  0  0  0  0  0  0  0  0
  160.6810  211.8110  152.2070 C   0  0  0  0  0  3  0  0  0  0  0  0
  156.1890  211.3030  156.1170 C   0  0  0  0  0  2  0  0  0  0  0  0
  155.4830  211.2520  154.7630 C   0  0  0  0  0  2  0  0  0  0  0  0
  161.7940  209.6340  152.7090 C   0  0  0  0  0  0  0  0  0  0  0  0
  160.0110  209.7870  154.4710 C   0  0  0  0  0  3  0  0  0  0  0  0
  160.3420  206.1980  150.4290 C   0  0  0  0  0  3  0  0  0  0  0  0
  161.0650  207.5800  153.8570 C   0  0  0  0  0  2  0  0  0  0  0  0
  157.6150  210.7800  155.9740 C   0  0  0  0  0  2  0  0  0  0  0  0
  159.4360  210.9600  154.1820 C   0  0  0  0  0  0  0  0  0  0  0  0
  158.2830  211.4490  154.8590 N   0  0  0  0  0  0  0  0  0  0  0  0
  158.4620  212.5920  152.8310 N   0  0  0  0  0  0  0  0  0  0  0  0
  162.1270  207.6350  149.3560 S   0  0  0  0  0  0  0  0  0  0  0  0
  161.9050  207.8460  151.0090 C   0  0  0  0  0  0  0  0  0  0  0  0
  160.5860  205.8190  147.9830 N   0  0  0  0  0  1  0  0  0  0  0  0
  161.0110  209.0630  153.6520 C   0  0  0  0  0  0  0  0  0  0  0  0
  162.6970  208.7930  151.8550 C   0  0  0  0  0  2  0  0  0  0  0  0
  160.8980  206.9800  151.4480 C   0  0  0  0  0  0  0  0  0  0  0  0
  156.2060  212.0540  153.6640 C   0  0  0  0  0  2  0  0  0  0  0  0
  157.6350  212.4750  154.0340 C   0  0  1  0  0  3  0  0  0  0  0  0
  161.9490  211.1140  152.5750 C   0  0  0  0  0  2  0  0  0  0  0  0
  159.5910  211.7340  152.9670 C   0  0  0  0  0  0  0  0  0  0  0  0
  158.3460  213.6830  151.8680 C   0  0  0  0  0  2  0  0  0  0  0  0
  157.4580  213.0080  149.6320 C   0  0  0  0  0  2  0  0  0  0  0  0
  157.7250  212.8780  148.1550 C   0  0  0  0  0  0  0  0  0  0  0  0
  159.6400  214.2320  149.7880 C   0  0  2  0  0  3  0  0  0  0  0  0
  160.0670  213.6840  148.4300 C   0  0  0  0  0  2  0  0  0  0  0  0
  158.8890  213.2400  147.6090 C   0  0  0  0  0  3  0  0  0  0  0  0
  156.7030  212.4330  147.3290 O   0  0  0  0  0  1  0  0  0  0  0  0
  160.7800  214.4530  150.5630 O   0  0  0  0  0  1  0  0  0  0  0  0
  158.7260  213.2140  150.4680 C   0  0  1  0  0  3  0  0  0  0  0  0
  1 14  1  0  0  0  0
  1  8  2  0  0  0  0
  2  9  1  0  0  0  0
  3 22  1  0  0  0  0
  3 23  2  0  0  0  0
  5  4  1  0  0  0  0
  6 17  2  0  0  0  0
  8 19  1  0  0  0  0
 10  4  1  0  0  0  0
 11  7  2  0  0  0  0
 11 12  1  0  0  0  0
 12 10  1  0  0  0  0
 13 23  1  0  0  0  0
 13 21  1  0  0  0  0
 14 15  1  0  0  0  0
 15 19  2  0  0  0  0
 15 18  1  0  0  0  0
 16  1  1  0  0  0  0
 17  9  1  0  0  0  0
 17  7  1  0  0  0  0
 18  6  1  0  0  0  0
 19  2  1  0  0  0  0
 20  5  1  0  0  0  0
 21 20  1  6  0  0  0
 21 12  1  0  0  0  0
 22  6  1  0  0  0  0
 23 11  1  0  0  0  0
 24 13  1  0  0  0  0
 25 32  1  0  0  0  0
 26 25  1  0  0  0  0
 27 32  1  0  0  0  0
 27 31  1  1  0  0  0
 28 27  1  0  0  0  0
 29 26  2  0  0  0  0
 29 28  1  0  0  0  0
 30 26  1  0  0  0  0
 32 24  1  1  0  0  0
M  END
>  <MODEL>
6

>  <REMARK>
 VINA RESULT:      -3.1      1.300      1.514
  Name = 
  2 active torsions:
  status: ('A' for Active; 'I' for Inactive)
    1  A    between atoms: N_16  and  C_27
    2  A    between atoms: C_27  and  C_32
                            x       y       z     vdW  Elec       q    Type
                         _______ _______ _______ _____ _____    ______ ____

>  <TORSDO>
F 2

$$$$
=
 OpenBabel11062410393D

 32 37  0  0  1  0  0  0  0  0999 V2000
  155.5840  210.3870  155.3660 C   0  0  0  0  0  0  0  0  0  0  0  0
  157.7270  212.4120  153.2540 O   0  0  0  0  0  0  0  0  0  0  0  0
  161.4880  209.2920  154.0730 C   0  0  0  0  0  3  0  0  0  0  0  0
  162.1340  210.3820  148.2320 C   0  0  0  0  0  2  0  0  0  0  0  0
  161.2100  209.1660  148.2620 C   0  0  0  0  0  2  0  0  0  0  0  0
  160.2340  211.3710  154.6530 C   0  0  0  0  0  0  0  0  0  0  0  0
  160.8910  211.7460  152.2590 C   0  0  0  0  0  3  0  0  0  0  0  0
  155.8880  211.1360  154.2390 C   0  0  0  0  0  3  0  0  0  0  0  0
  159.0060  213.0400  153.3210 C   0  0  0  0  0  2  0  0  0  0  0  0
  161.9560  211.1950  149.5120 C   0  0  0  0  0  2  0  0  0  0  0  0
  161.5620  210.6230  151.9760 C   0  0  0  0  0  0  0  0  0  0  0  0
  162.0600  210.3190  150.6770 N   0  0  0  0  0  0  0  0  0  0  0  0
  161.9510  208.3250  151.8880 N   0  0  0  0  0  0  0  0  0  0  0  0
  156.8950  210.3270  156.4160 S   0  0  0  0  0  0  0  0  0  0  0  0
  157.8960  211.2630  155.4430 C   0  0  0  0  0  0  0  0  0  0  0  0
  154.3320  209.7540  155.6020 N   0  0  0  0  0  1  0  0  0  0  0  0
  160.0930  212.0200  153.4760 C   0  0  0  0  0  0  0  0  0  0  0  0
  159.2990  211.6460  155.7950 C   0  0  0  0  0  2  0  0  0  0  0  0
  157.1960  211.6340  154.2910 C   0  0  0  0  0  0  0  0  0  0  0  0
  161.4430  208.2490  149.4770 C   0  0  0  0  0  2  0  0  0  0  0  0
  162.3080  208.8770  150.5790 C   0  0  1  0  0  3  0  0  0  0  0  0
  161.4050  210.4920  154.9560 C   0  0  0  0  0  2  0  0  0  0  0  0
  161.5820  209.3980  152.7500 C   0  0  0  0  0  0  0  0  0  0  0  0
  162.3020  206.9780  152.3250 C   0  0  0  0  0  2  0  0  0  0  0  0
  161.8620  205.5440  150.3250 C   0  0  0  0  0  2  0  0  0  0  0  0
  161.2060  204.3010  149.7830 C   0  0  0  0  0  0  0  0  0  0  0  0
  161.2540  204.7140  152.6110 C   0  0  2  0  0  3  0  0  0  0  0  0
  160.2350  203.7500  152.0110 C   0  0  0  0  0  2  0  0  0  0  0  0
  160.5190  203.4630  150.5640 C   0  0  0  0  0  3  0  0  0  0  0  0
  161.3820  203.9830  148.4440 O   0  0  0  0  0  1  0  0  0  0  0  0
  160.8310  205.0780  153.8900 O   0  0  0  0  0  1  0  0  0  0  0  0
  161.3570  205.9470  151.7150 C   0  0  1  0  0  3  0  0  0  0  0  0
  1 16  1  0  0  0  0
  1 14  1  0  0  0  0
  2  9  1  0  0  0  0
  2 19  1  0  0  0  0
  3 22  1  0  0  0  0
  4  5  1  0  0  0  0
  4 10  1  0  0  0  0
  5 20  1  0  0  0  0
  6 22  1  0  0  0  0
  6 18  1  0  0  0  0
  7 17  1  0  0  0  0
  8 19  1  0  0  0  0
  8  1  2  0  0  0  0
  9 17  1  0  0  0  0
 10 12  1  0  0  0  0
 11  7  2  0  0  0  0
 11 23  1  0  0  0  0
 12 11  1  0  0  0  0
 13 24  1  0  0  0  0
 13 23  1  0  0  0  0
 15 18  1  0  0  0  0
 15 14  1  0  0  0  0
 17  6  2  0  0  0  0
 19 15  2  0  0  0  0
 21 20  1  6  0  0  0
 21 12  1  0  0  0  0
 21 13  1  0  0  0  0
 23  3  2  0  0  0  0
 25 32  1  0  0  0  0
 26 25  1  0  0  0  0
 26 29  2  0  0  0  0
 27 31  1  1  0  0  0
 28 27  1  0  0  0  0
 29 28  1  0  0  0  0
 30 26  1  0  0  0  0
 32 24  1  1  0  0  0
 32 27  1  0  0  0  0
M  END
>  <MODEL>
7

>  <REMARK>
 VINA RESULT:      -3.1      3.421      7.846
  Name = 
  2 active torsions:
  status: ('A' for Active; 'I' for Inactive)
    1  A    between atoms: N_16  and  C_27
    2  A    between atoms: C_27  and  C_32
                            x       y       z     vdW  Elec       q    Type
                         _______ _______ _______ _____ _____    ______ ____

>  <TORSDO>
F 2

$$$$
