=
 OpenBabel11052423183D

 27 31  0  0  1  0  0  0  0  0999 V2000
  162.0130  208.8980  149.9720 C   0  0  0  0  0  3  0  0  0  0  0  0
  161.1810  207.8060  152.0930 C   0  0  0  0  0  0  0  0  0  0  0  0
  161.1990  210.1890  152.5520 N   0  0  0  0  0  0  0  0  0  0  0  0
  160.8150  207.4660  156.6630 S   0  0  0  0  0  0  0  0  0  0  0  0
  159.7860  209.9370  157.2610 C   0  0  0  0  0  1  0  0  0  0  0  0
  160.8780  206.5620  152.6980 C   0  0  0  0  0  3  0  0  0  0  0  0
  161.2960  209.7650  155.3550 N   0  0  0  0  0  0  0  0  0  0  0  0
  160.2990  212.8260  150.0250 C   0  0  0  0  0  3  0  0  0  0  0  0
  161.8880  211.0780  155.1400 C   0  0  0  0  0  1  0  0  0  0  0  0
  161.1010  212.9540  148.9720 C   0  0  0  0  0  3  0  0  0  0  0  0
  161.2090  208.7470  154.3590 C   0  0  0  0  0  0  0  0  0  0  0  0
  161.4220  207.7990  150.7500 C   0  0  0  0  0  0  0  0  0  0  0  0
  161.0420  209.2890  156.7110 C   0  0  2  0  0  3  0  0  0  0  0  0
  160.9540  207.5050  154.8890 C   0  0  0  0  0  0  0  0  0  0  0  0
  161.9080  210.2040  150.1440 C   0  0  0  0  0  0  0  0  0  0  0  0
  161.2570  208.9540  152.9570 C   0  0  0  0  0  0  0  0  0  0  0  0
  160.4560  211.9170  151.1680 C   0  0  0  0  0  3  0  0  0  0  0  0
  160.7510  206.4050  154.0750 C   0  0  0  0  0  3  0  0  0  0  0  0
  162.3280  212.2010  148.6920 C   0  0  0  0  0  3  0  0  0  0  0  0
  162.6710  211.0170  149.1900 C   0  0  0  0  0  3  0  0  0  0  0  0
  161.1410  210.7750  151.2550 C   0  0  0  0  0  0  0  0  0  0  0  0
  161.1630  204.2140  148.4180 C   0  0  0  0  0  3  0  0  0  0  0  0
  161.3070  206.5560  149.9520 C   0  0  0  0  0  0  0  0  0  0  0  0
  161.2770  205.3000  150.5780 C   0  0  0  0  0  3  0  0  0  0  0  0
  161.2000  204.1340  149.8120 C   0  0  0  0  0  3  0  0  0  0  0  0
  161.2060  205.4610  147.7870 C   0  0  0  0  0  3  0  0  0  0  0  0
  161.2830  206.6280  148.5520 C   0  0  0  0  0  3  0  0  0  0  0  0
  1 15  2  0  0  0  0
  1 12  1  0  0  0  0
  2  6  1  0  0  0  0
  2 16  1  0  0  0  0
  3 16  2  0  0  0  0
  4 13  1  0  0  0  0
  6 18  2  0  0  0  0
  7 13  1  0  0  0  0
  8 17  1  0  0  0  0
  9  7  1  0  0  0  0
 10  8  2  0  0  0  0
 11 14  2  0  0  0  0
 11  7  1  0  0  0  0
 12  2  2  0  0  0  0
 13  5  1  6  0  0  0
 14  4  1  0  0  0  0
 15 21  1  0  0  0  0
 16 11  1  0  0  0  0
 17 21  2  0  0  0  0
 18 14  1  0  0  0  0
 19 10  1  0  0  0  0
 19 20  2  0  0  0  0
 20 15  1  0  0  0  0
 21  3  1  0  0  0  0
 22 25  1  0  0  0  0
 23 24  1  0  0  0  0
 23 12  1  0  0  0  0
 25 24  2  0  0  0  0
 26 22  2  0  0  0  0
 26 27  1  0  0  0  0
 27 23  2  0  0  0  0
M  END
>  <MODEL>
1

>  <REMARK>
 VINA RESULT:      -8.4      0.000      0.000
  Name = 
  1 active torsions:
  status: ('A' for Active; 'I' for Inactive)
    1  A    between atoms: C_9  and  C_15
                            x       y       z     vdW  Elec       q    Type
                         _______ _______ _______ _____ _____    ______ ____

>  <TORSDO>
F 1

$$$$
=
 OpenBabel11052423183D

 27 31  0  0  1  0  0  0  0  0999 V2000
  162.1680  209.3940  149.3800 C   0  0  0  0  0  3  0  0  0  0  0  0
  161.3450  208.0730  151.3710 C   0  0  0  0  0  0  0  0  0  0  0  0
  161.1740  210.4050  152.0220 N   0  0  0  0  0  0  0  0  0  0  0  0
  160.8470  207.3270  155.8790 S   0  0  0  0  0  0  0  0  0  0  0  0
  159.6220  209.6620  156.6340 C   0  0  0  0  0  1  0  0  0  0  0  0
  161.1110  206.7640  151.8600 C   0  0  0  0  0  3  0  0  0  0  0  0
  161.2050  209.7560  154.7830 N   0  0  0  0  0  0  0  0  0  0  0  0
  160.1740  213.1750  149.6830 C   0  0  0  0  0  3  0  0  0  0  0  0
  161.7080  211.1200  154.6980 C   0  0  0  0  0  1  0  0  0  0  0  0
  161.0000  213.4460  148.6770 C   0  0  0  0  0  3  0  0  0  0  0  0
  161.2260  208.8200  153.7050 C   0  0  0  0  0  0  0  0  0  0  0  0
  161.6310  208.1950  150.0430 C   0  0  0  0  0  0  0  0  0  0  0  0
  160.9400  209.1510  156.0840 C   0  0  2  0  0  3  0  0  0  0  0  0
  161.0440  207.5240  154.1210 C   0  0  0  0  0  0  0  0  0  0  0  0
  161.9620  210.6700  149.6530 C   0  0  0  0  0  0  0  0  0  0  0  0
  161.3070  209.1470  152.3280 C   0  0  0  0  0  0  0  0  0  0  0  0
  160.3570  212.1860  150.7540 C   0  0  0  0  0  3  0  0  0  0  0  0
  160.9490  206.4840  153.2130 C   0  0  0  0  0  3  0  0  0  0  0  0
  162.2870  212.8060  148.3860 C   0  0  0  0  0  3  0  0  0  0  0  0
  162.6970  211.6110  148.8000 C   0  0  0  0  0  3  0  0  0  0  0  0
  161.1190  211.0920  150.7750 C   0  0  0  0  0  0  0  0  0  0  0  0
  161.5670  204.8060  147.4220 C   0  0  0  0  0  3  0  0  0  0  0  0
  161.6340  207.0180  149.1420 C   0  0  0  0  0  0  0  0  0  0  0  0
  162.3220  207.0510  147.9190 C   0  0  0  0  0  3  0  0  0  0  0  0
  162.2910  205.9460  147.0640 C   0  0  0  0  0  3  0  0  0  0  0  0
  160.8690  204.7710  148.6320 C   0  0  0  0  0  3  0  0  0  0  0  0
  160.8990  205.8760  149.4880 C   0  0  0  0  0  3  0  0  0  0  0  0
  1 15  2  0  0  0  0
  1 12  1  0  0  0  0
  2  6  1  0  0  0  0
  2 16  1  0  0  0  0
  3 16  2  0  0  0  0
  4 13  1  0  0  0  0
  6 18  2  0  0  0  0
  7 13  1  0  0  0  0
  8 17  1  0  0  0  0
  9  7  1  0  0  0  0
 10  8  2  0  0  0  0
 11 14  2  0  0  0  0
 11  7  1  0  0  0  0
 12  2  2  0  0  0  0
 13  5  1  6  0  0  0
 14  4  1  0  0  0  0
 15 21  1  0  0  0  0
 16 11  1  0  0  0  0
 17 21  2  0  0  0  0
 18 14  1  0  0  0  0
 19 10  1  0  0  0  0
 19 20  2  0  0  0  0
 20 15  1  0  0  0  0
 21  3  1  0  0  0  0
 22 26  1  0  0  0  0
 23 27  1  0  0  0  0
 23 12  1  0  0  0  0
 24 23  2  0  0  0  0
 25 22  2  0  0  0  0
 25 24  1  0  0  0  0
 26 27  2  0  0  0  0
M  END
>  <MODEL>
2

>  <REMARK>
 VINA RESULT:      -8.3      0.758      1.197
  Name = 
  1 active torsions:
  status: ('A' for Active; 'I' for Inactive)
    1  A    between atoms: C_9  and  C_15
                            x       y       z     vdW  Elec       q    Type
                         _______ _______ _______ _____ _____    ______ ____

>  <TORSDO>
F 1

$$$$
=
 OpenBabel11052423183D

 27 31  0  0  1  0  0  0  0  0999 V2000
  162.3070  210.3280  151.8050 C   0  0  0  0  0  3  0  0  0  0  0  0
  161.6860  208.7280  149.9510 C   0  0  0  0  0  0  0  0  0  0  0  0
  161.3590  207.4920  152.0140 N   0  0  0  0  0  0  0  0  0  0  0  0
  161.4590  204.5550  148.0370 S   0  0  0  0  0  0  0  0  0  0  0  0
  160.0850  203.1930  149.9820 C   0  0  0  0  0  1  0  0  0  0  0  0
  161.5810  208.5880  148.5450 C   0  0  0  0  0  3  0  0  0  0  0  0
  161.5690  204.9940  150.6860 N   0  0  0  0  0  0  0  0  0  0  0  0
  160.0320  209.0110  155.1890 C   0  0  0  0  0  3  0  0  0  0  0  0
  161.9560  204.7350  152.0660 C   0  0  0  0  0  1  0  0  0  0  0  0
  160.7860  209.9320  155.7810 C   0  0  0  0  0  3  0  0  0  0  0  0
  161.6150  206.2780  150.0640 C   0  0  0  0  0  0  0  0  0  0  0  0
  161.9000  209.9860  150.4330 C   0  0  0  0  0  0  0  0  0  0  0  0
  161.4140  203.8880  149.7480 C   0  0  2  0  0  3  0  0  0  0  0  0
  161.5570  206.2060  148.6930 C   0  0  0  0  0  0  0  0  0  0  0  0
  162.0130  209.7300  152.9450 C   0  0  0  0  0  0  0  0  0  0  0  0
  161.6060  207.5250  150.7370 C   0  0  0  0  0  0  0  0  0  0  0  0
  160.3430  208.2360  153.9800 C   0  0  0  0  0  3  0  0  0  0  0  0
  161.5050  207.3500  147.9150 C   0  0  0  0  0  3  0  0  0  0  0  0
  162.1060  210.4090  155.3550 C   0  0  0  0  0  3  0  0  0  0  0  0
  162.6290  210.3280  154.1350 C   0  0  0  0  0  3  0  0  0  0  0  0
  161.1910  208.5180  152.9900 C   0  0  0  0  0  0  0  0  0  0  0  0
  162.0780  213.4250  147.8840 C   0  0  0  0  0  3  0  0  0  0  0  0
  161.9560  211.1600  149.5310 C   0  0  0  0  0  0  0  0  0  0  0  0
  163.0240  211.3270  148.6360 C   0  0  0  0  0  3  0  0  0  0  0  0
  163.0810  212.4550  147.8120 C   0  0  0  0  0  3  0  0  0  0  0  0
  161.0190  213.2710  148.7830 C   0  0  0  0  0  3  0  0  0  0  0  0
  160.9610  212.1440  149.6080 C   0  0  0  0  0  3  0  0  0  0  0  0
  1 15  1  0  0  0  0
  2 12  1  0  0  0  0
  2 16  1  0  0  0  0
  3 21  2  0  0  0  0
  4 14  1  0  0  0  0
  4 13  1  0  0  0  0
  6  2  2  0  0  0  0
  7  9  1  0  0  0  0
  8 10  1  0  0  0  0
 11  7  1  0  0  0  0
 11 16  2  0  0  0  0
 12  1  2  0  0  0  0
 13  5  1  1  0  0  0
 13  7  1  0  0  0  0
 14 11  1  0  0  0  0
 15 21  1  0  0  0  0
 15 20  2  0  0  0  0
 16  3  1  0  0  0  0
 17  8  2  0  0  0  0
 18  6  1  0  0  0  0
 18 14  2  0  0  0  0
 19 10  2  0  0  0  0
 20 19  1  0  0  0  0
 21 17  1  0  0  0  0
 22 26  1  0  0  0  0
 23 27  1  0  0  0  0
 23 12  1  0  0  0  0
 24 23  2  0  0  0  0
 25 22  2  0  0  0  0
 25 24  1  0  0  0  0
 26 27  2  0  0  0  0
M  END
>  <MODEL>
3

>  <REMARK>
 VINA RESULT:      -7.4      2.337      6.206
  Name = 
  1 active torsions:
  status: ('A' for Active; 'I' for Inactive)
    1  A    between atoms: C_9  and  C_15
                            x       y       z     vdW  Elec       q    Type
                         _______ _______ _______ _____ _____    ______ ____

>  <TORSDO>
F 1

$$$$
=
 OpenBabel11052423183D

 27 31  0  0  1  0  0  0  0  0999 V2000
  160.9550  210.9770  151.3510 C   0  0  0  0  0  3  0  0  0  0  0  0
  161.3290  208.4850  151.5480 C   0  0  0  0  0  0  0  0  0  0  0  0
  161.6400  209.0060  149.1990 N   0  0  0  0  0  0  0  0  0  0  0  0
  161.0660  204.1620  150.0100 S   0  0  0  0  0  0  0  0  0  0  0  0
  162.4000  204.4040  147.6260 C   0  0  0  0  0  1  0  0  0  0  0  0
  161.3500  207.3980  152.4560 C   0  0  0  0  0  3  0  0  0  0  0  0
  161.1290  206.3270  148.4190 N   0  0  0  0  0  0  0  0  0  0  0  0
  163.2610  212.1580  147.9380 C   0  0  0  0  0  3  0  0  0  0  0  0
  160.7890  207.1420  147.2600 C   0  0  0  0  0  1  0  0  0  0  0  0
  162.6270  213.3020  148.1770 C   0  0  0  0  0  3  0  0  0  0  0  0
  161.1740  206.8130  149.7600 C   0  0  0  0  0  0  0  0  0  0  0  0
  161.2590  209.7380  152.0850 C   0  0  0  0  0  0  0  0  0  0  0  0
  161.1330  204.8720  148.3170 C   0  0  2  0  0  3  0  0  0  0  0  0
  161.1560  205.8040  150.6920 C   0  0  0  0  0  0  0  0  0  0  0  0
  161.2470  211.3130  150.1080 C   0  0  0  0  0  0  0  0  0  0  0  0
  161.3340  208.1680  150.1450 C   0  0  0  0  0  0  0  0  0  0  0  0
  162.8180  210.7980  148.2760 C   0  0  0  0  0  3  0  0  0  0  0  0
  161.2780  206.0720  152.0440 C   0  0  0  0  0  3  0  0  0  0  0  0
  161.3390  213.4810  148.8550 C   0  0  0  0  0  3  0  0  0  0  0  0
  160.7500  212.6290  149.6900 C   0  0  0  0  0  3  0  0  0  0  0  0
  161.9530  210.3970  149.2080 C   0  0  0  0  0  0  0  0  0  0  0  0
  161.2940  210.4330  156.3130 C   0  0  0  0  0  3  0  0  0  0  0  0
  161.2690  209.9520  153.5510 C   0  0  0  0  0  0  0  0  0  0  0  0
  160.1040  209.7710  154.3110 C   0  0  0  0  0  3  0  0  0  0  0  0
  160.1190  210.0060  155.6890 C   0  0  0  0  0  3  0  0  0  0  0  0
  162.4550  210.6290  155.5590 C   0  0  0  0  0  3  0  0  0  0  0  0
  162.4410  210.3940  154.1810 C   0  0  0  0  0  3  0  0  0  0  0  0
  1 12  1  0  0  0  0
  2 12  2  0  0  0  0
  2  6  1  0  0  0  0
  3 21  1  0  0  0  0
  3 16  2  0  0  0  0
  4 14  1  0  0  0  0
  7 11  1  0  0  0  0
  8 10  2  0  0  0  0
  8 17  1  0  0  0  0
  9  7  1  0  0  0  0
 10 19  1  0  0  0  0
 11 16  1  0  0  0  0
 11 14  2  0  0  0  0
 12 23  1  0  0  0  0
 13  5  1  1  0  0  0
 13  7  1  0  0  0  0
 13  4  1  0  0  0  0
 14 18  1  0  0  0  0
 15  1  2  0  0  0  0
 16  2  1  0  0  0  0
 17 21  2  0  0  0  0
 18  6  2  0  0  0  0
 19 20  2  0  0  0  0
 20 15  1  0  0  0  0
 21 15  1  0  0  0  0
 23 27  2  0  0  0  0
 23 24  1  0  0  0  0
 24 25  2  0  0  0  0
 25 22  1  0  0  0  0
 26 22  2  0  0  0  0
 27 26  1  0  0  0  0
M  END
>  <MODEL>
4

>  <REMARK>
 VINA RESULT:      -7.2      2.266      5.821
  Name = 
  1 active torsions:
  status: ('A' for Active; 'I' for Inactive)
    1  A    between atoms: C_9  and  C_15
                            x       y       z     vdW  Elec       q    Type
                         _______ _______ _______ _____ _____    ______ ____

>  <TORSDO>
F 1

$$$$
=
 OpenBabel11052423183D

 27 31  0  0  1  0  0  0  0  0999 V2000
  160.7390  204.3720  148.5900 C   0  0  0  0  0  3  0  0  0  0  0  0
  161.5230  206.7560  148.8900 C   0  0  0  0  0  0  0  0  0  0  0  0
  161.4010  205.8240  151.1270 N   0  0  0  0  0  0  0  0  0  0  0  0
  161.7170  210.7590  151.1400 S   0  0  0  0  0  0  0  0  0  0  0  0
  162.6320  209.9100  153.5810 C   0  0  0  0  0  1  0  0  0  0  0  0
  161.8470  207.9510  148.2010 C   0  0  0  0  0  3  0  0  0  0  0  0
  161.2070  208.3950  152.3110 N   0  0  0  0  0  0  0  0  0  0  0  0
  162.3060  202.2750  151.9820 C   0  0  0  0  0  3  0  0  0  0  0  0
  160.5770  207.4830  153.2560 C   0  0  0  0  0  1  0  0  0  0  0  0
  161.5430  201.3150  151.4670 C   0  0  0  0  0  3  0  0  0  0  0  0
  161.3710  208.1270  150.9190 C   0  0  0  0  0  0  0  0  0  0  0  0
  161.3370  205.6360  148.1320 C   0  0  0  0  0  0  0  0  0  0  0  0
  161.4230  209.7920  152.6730 C   0  0  2  0  0  3  0  0  0  0  0  0
  161.6480  209.2560  150.1890 C   0  0  0  0  0  0  0  0  0  0  0  0
  160.7900  203.7980  149.7780 C   0  0  0  0  0  0  0  0  0  0  0  0
  161.3720  206.8420  150.3180 C   0  0  0  0  0  0  0  0  0  0  0  0
  162.1360  203.7280  151.8450 C   0  0  0  0  0  3  0  0  0  0  0  0
  161.9240  209.1870  148.8340 C   0  0  0  0  0  3  0  0  0  0  0  0
  160.3560  201.4790  150.6220 C   0  0  0  0  0  3  0  0  0  0  0  0
  160.0370  202.5430  149.8910 C   0  0  0  0  0  3  0  0  0  0  0  0
  161.4900  204.4190  150.9050 C   0  0  0  0  0  0  0  0  0  0  0  0
  161.8870  205.6200  143.8830 C   0  0  0  0  0  3  0  0  0  0  0  0
  161.5290  205.6570  146.6630 C   0  0  0  0  0  0  0  0  0  0  0  0
  160.5040  206.0990  145.8120 C   0  0  0  0  0  3  0  0  0  0  0  0
  160.6860  206.0840  144.4260 C   0  0  0  0  0  3  0  0  0  0  0  0
  162.9060  205.1670  144.7250 C   0  0  0  0  0  3  0  0  0  0  0  0
  162.7260  205.1810  146.1110 C   0  0  0  0  0  3  0  0  0  0  0  0
  1 15  1  0  0  0  0
  2 16  1  0  0  0  0
  4 13  1  0  0  0  0
  6 18  1  0  0  0  0
  6  2  2  0  0  0  0
  7 13  1  0  0  0  0
  7  9  1  0  0  0  0
 10  8  1  0  0  0  0
 11  7  1  0  0  0  0
 12  1  2  0  0  0  0
 12  2  1  0  0  0  0
 13  5  1  1  0  0  0
 14 11  1  0  0  0  0
 14  4  1  0  0  0  0
 15 20  2  0  0  0  0
 15 21  1  0  0  0  0
 16 11  2  0  0  0  0
 16  3  1  0  0  0  0
 17  8  2  0  0  0  0
 18 14  2  0  0  0  0
 19 10  2  0  0  0  0
 20 19  1  0  0  0  0
 21  3  2  0  0  0  0
 21 17  1  0  0  0  0
 22 25  2  0  0  0  0
 22 26  1  0  0  0  0
 23 12  1  0  0  0  0
 24 23  2  0  0  0  0
 25 24  1  0  0  0  0
 26 27  2  0  0  0  0
 27 23  1  0  0  0  0
M  END
>  <MODEL>
5

>  <REMARK>
 VINA RESULT:      -7.2      2.484      6.139
  Name = 
  1 active torsions:
  status: ('A' for Active; 'I' for Inactive)
    1  A    between atoms: C_9  and  C_15
                            x       y       z     vdW  Elec       q    Type
                         _______ _______ _______ _____ _____    ______ ____

>  <TORSDO>
F 1

$$$$
=
 OpenBabel11052423183D

 27 31  0  0  1  0  0  0  0  0999 V2000
  161.6710  206.2830  152.8690 C   0  0  0  0  0  3  0  0  0  0  0  0
  161.1850  208.6770  152.2210 C   0  0  0  0  0  0  0  0  0  0  0  0
  161.4290  207.4720  150.1280 N   0  0  0  0  0  0  0  0  0  0  0  0
  161.6540  212.3770  149.5350 S   0  0  0  0  0  0  0  0  0  0  0  0
  160.9020  211.3290  147.1150 C   0  0  0  0  0  1  0  0  0  0  0  0
  160.9250  209.9720  152.7320 C   0  0  0  0  0  3  0  0  0  0  0  0
  162.0200  209.8490  148.6970 N   0  0  0  0  0  0  0  0  0  0  0  0
  160.2340  203.9490  149.5760 C   0  0  0  0  0  3  0  0  0  0  0  0
  162.6390  208.7730  147.9360 C   0  0  0  0  0  1  0  0  0  0  0  0
  160.8330  202.9900  150.2750 C   0  0  0  0  0  3  0  0  0  0  0  0
  161.6880  209.7700  150.0830 C   0  0  0  0  0  0  0  0  0  0  0  0
  161.1710  207.6450  153.1140 C   0  0  0  0  0  0  0  0  0  0  0  0
  161.9940  211.2060  148.1610 C   0  0  2  0  0  3  0  0  0  0  0  0
  161.4630  211.0010  150.6480 C   0  0  0  0  0  0  0  0  0  0  0  0
  161.6780  205.5760  151.7540 C   0  0  0  0  0  0  0  0  0  0  0  0
  161.4880  208.5740  150.8180 C   0  0  0  0  0  0  0  0  0  0  0  0
  160.5470  205.3850  149.5690 C   0  0  0  0  0  3  0  0  0  0  0  0
  161.0470  211.1240  151.9620 C   0  0  0  0  0  3  0  0  0  0  0  0
  161.9400  203.1410  151.2260 C   0  0  0  0  0  3  0  0  0  0  0  0
  162.2980  204.2500  151.8660 C   0  0  0  0  0  3  0  0  0  0  0  0
  161.1660  206.1200  150.4930 C   0  0  0  0  0  0  0  0  0  0  0  0
  160.2450  208.2140  157.2590 C   0  0  0  0  0  3  0  0  0  0  0  0
  160.8360  207.8630  154.5410 C   0  0  0  0  0  0  0  0  0  0  0  0
  161.3880  208.9400  155.2510 C   0  0  0  0  0  3  0  0  0  0  0  0
  161.0890  209.1170  156.6050 C   0  0  0  0  0  3  0  0  0  0  0  0
  159.7030  207.1320  156.5600 C   0  0  0  0  0  3  0  0  0  0  0  0
  160.0020  206.9540  155.2060 C   0  0  0  0  0  3  0  0  0  0  0  0
  1 12  1  0  0  0  0
  2  6  1  0  0  0  0
  2 12  2  0  0  0  0
  3 21  1  0  0  0  0
  3 16  2  0  0  0  0
  4 14  1  0  0  0  0
  7 11  1  0  0  0  0
  8 10  2  0  0  0  0
  9  7  1  0  0  0  0
 10 19  1  0  0  0  0
 11 14  2  0  0  0  0
 11 16  1  0  0  0  0
 12 23  1  0  0  0  0
 13  5  1  6  0  0  0
 13  7  1  0  0  0  0
 13  4  1  0  0  0  0
 14 18  1  0  0  0  0
 15 20  1  0  0  0  0
 15  1  2  0  0  0  0
 16  2  1  0  0  0  0
 17  8  1  0  0  0  0
 17 21  2  0  0  0  0
 18  6  2  0  0  0  0
 19 20  2  0  0  0  0
 21 15  1  0  0  0  0
 23 27  2  0  0  0  0
 23 24  1  0  0  0  0
 24 25  2  0  0  0  0
 25 22  1  0  0  0  0
 26 22  2  0  0  0  0
 27 26  1  0  0  0  0
M  END
>  <MODEL>
6

>  <REMARK>
 VINA RESULT:      -6.9      2.451      6.820
  Name = 
  1 active torsions:
  status: ('A' for Active; 'I' for Inactive)
    1  A    between atoms: C_9  and  C_15
                            x       y       z     vdW  Elec       q    Type
                         _______ _______ _______ _____ _____    ______ ____

>  <TORSDO>
F 1

$$$$
=
 OpenBabel11052423183D

 27 31  0  0  1  0  0  0  0  0999 V2000
  160.6580  209.3890  152.4500 C   0  0  0  0  0  3  0  0  0  0  0  0
  161.1170  206.9100  152.2760 C   0  0  0  0  0  0  0  0  0  0  0  0
  161.2690  207.7620  150.0080 N   0  0  0  0  0  0  0  0  0  0  0  0
  160.8880  202.8330  150.1650 S   0  0  0  0  0  0  0  0  0  0  0  0
  162.0670  203.4520  147.7670 C   0  0  0  0  0  1  0  0  0  0  0  0
  161.2260  205.7100  153.0200 C   0  0  0  0  0  3  0  0  0  0  0  0
  160.7910  205.1980  148.8910 N   0  0  0  0  0  0  0  0  0  0  0  0
  162.7160  211.1150  149.1120 C   0  0  0  0  0  3  0  0  0  0  0  0
  160.3560  206.1510  147.8790 C   0  0  0  0  0  1  0  0  0  0  0  0
  162.0650  212.1910  149.5440 C   0  0  0  0  0  3  0  0  0  0  0  0
  160.9030  205.4950  150.2830 C   0  0  0  0  0  0  0  0  0  0  0  0
  161.0430  208.0730  152.9850 C   0  0  0  0  0  0  0  0  0  0  0  0
  160.8310  203.7720  148.5870 C   0  0  2  0  0  3  0  0  0  0  0  0
  160.9720  204.3670  151.0640 C   0  0  0  0  0  0  0  0  0  0  0  0
  160.8650  209.9040  151.2520 C   0  0  0  0  0  0  0  0  0  0  0  0
  161.0460  206.7900  150.8440 C   0  0  0  0  0  0  0  0  0  0  0  0
  162.3360  209.7070  149.2800 C   0  0  0  0  0  3  0  0  0  0  0  0
  161.1680  204.4510  152.4310 C   0  0  0  0  0  3  0  0  0  0  0  0
  160.8160  212.2260  150.3110 C   0  0  0  0  0  3  0  0  0  0  0  0
  160.3040  211.2460  151.0500 C   0  0  0  0  0  3  0  0  0  0  0  0
  161.5400  209.1480  150.1940 C   0  0  0  0  0  0  0  0  0  0  0  0
  161.3470  208.0340  157.2590 C   0  0  0  0  0  3  0  0  0  0  0  0
  161.1360  208.0840  154.4640 C   0  0  0  0  0  0  0  0  0  0  0  0
  162.0350  208.9370  155.1210 C   0  0  0  0  0  3  0  0  0  0  0  0
  162.1360  208.9150  156.5150 C   0  0  0  0  0  3  0  0  0  0  0  0
  160.4590  207.1710  156.6100 C   0  0  0  0  0  3  0  0  0  0  0  0
  160.3580  207.1930  155.2150 C   0  0  0  0  0  3  0  0  0  0  0  0
  1 12  1  0  0  0  0
  2 12  2  0  0  0  0
  2  6  1  0  0  0  0
  3 21  1  0  0  0  0
  3 16  2  0  0  0  0
  4 14  1  0  0  0  0
  7 11  1  0  0  0  0
  8 17  1  0  0  0  0
  8 10  2  0  0  0  0
  9  7  1  0  0  0  0
 10 19  1  0  0  0  0
 11 16  1  0  0  0  0
 11 14  2  0  0  0  0
 12 23  1  0  0  0  0
 13  5  1  6  0  0  0
 13  7  1  0  0  0  0
 13  4  1  0  0  0  0
 14 18  1  0  0  0  0
 15  1  2  0  0  0  0
 16  2  1  0  0  0  0
 17 21  2  0  0  0  0
 18  6  2  0  0  0  0
 19 20  2  0  0  0  0
 20 15  1  0  0  0  0
 21 15  1  0  0  0  0
 23 24  2  0  0  0  0
 23 27  1  0  0  0  0
 24 25  1  0  0  0  0
 25 22  2  0  0  0  0
 26 22  1  0  0  0  0
 27 26  2  0  0  0  0
M  END
>  <MODEL>
7

>  <REMARK>
 VINA RESULT:      -6.5      2.283      5.851
  Name = 
  1 active torsions:
  status: ('A' for Active; 'I' for Inactive)
    1  A    between atoms: C_9  and  C_15
                            x       y       z     vdW  Elec       q    Type
                         _______ _______ _______ _____ _____    ______ ____

>  <TORSDO>
F 1

$$$$
=
 OpenBabel11052423183D

 27 31  0  0  1  0  0  0  0  0999 V2000
  159.7760  210.9770  154.6820 C   0  0  0  0  0  3  0  0  0  0  0  0
  159.0420  212.3690  152.7060 C   0  0  0  0  0  0  0  0  0  0  0  0
  160.5840  210.7250  151.8060 N   0  0  0  0  0  0  0  0  0  0  0  0
  159.7390  214.4530  148.6690 S   0  0  0  0  0  0  0  0  0  0  0  0
  160.5690  212.3250  147.1510 C   0  0  0  0  0  1  0  0  0  0  0  0
  158.2290  213.4600  152.3120 C   0  0  0  0  0  3  0  0  0  0  0  0
  161.1300  212.3180  149.5230 N   0  0  0  0  0  0  0  0  0  0  0  0
  160.8060  207.1680  153.0090 C   0  0  0  0  0  3  0  0  0  0  0  0
  162.3030  211.4730  149.6980 C   0  0  0  0  0  1  0  0  0  0  0  0
  161.2230  206.9760  154.2570 C   0  0  0  0  0  3  0  0  0  0  0  0
  160.2030  212.6360  150.5610 C   0  0  0  0  0  0  0  0  0  0  0  0
  158.8750  211.9000  153.9760 C   0  0  0  0  0  0  0  0  0  0  0  0
  161.0030  213.1620  148.3390 C   0  0  2  0  0  3  0  0  0  0  0  0
  159.4100  213.7150  150.2550 C   0  0  0  0  0  0  0  0  0  0  0  0
  160.5130  209.9890  154.2050 C   0  0  0  0  0  0  0  0  0  0  0  0
  160.0010  211.8870  151.7480 C   0  0  0  0  0  0  0  0  0  0  0  0
  160.6830  208.4430  152.2890 C   0  0  0  0  0  3  0  0  0  0  0  0
  158.3940  214.1230  151.1000 C   0  0  0  0  0  3  0  0  0  0  0  0
  161.6430  207.9980  155.2220 C   0  0  0  0  0  3  0  0  0  0  0  0
  161.3310  209.2900  155.2030 C   0  0  0  0  0  3  0  0  0  0  0  0
  160.5520  209.6790  152.7740 C   0  0  0  0  0  0  0  0  0  0  0  0
  155.9110  213.4800  156.6370 C   0  0  0  0  0  3  0  0  0  0  0  0
  157.8460  212.4660  154.8790 C   0  0  0  0  0  0  0  0  0  0  0  0
  158.0930  213.6440  155.6010 C   0  0  0  0  0  3  0  0  0  0  0  0
  157.1260  214.1510  156.4730 C   0  0  0  0  0  3  0  0  0  0  0  0
  155.6640  212.2980  155.9320 C   0  0  0  0  0  3  0  0  0  0  0  0
  156.6310  211.7900  155.0590 C   0  0  0  0  0  3  0  0  0  0  0  0
  2 12  1  0  0  0  0
  3 21  2  0  0  0  0
  4 14  1  0  0  0  0
  6  2  1  0  0  0  0
  7  9  1  0  0  0  0
  7 11  1  0  0  0  0
  8 10  1  0  0  0  0
 10 19  2  0  0  0  0
 11 16  1  0  0  0  0
 12  1  2  0  0  0  0
 12 23  1  0  0  0  0
 13  5  1  6  0  0  0
 13  4  1  0  0  0  0
 13  7  1  0  0  0  0
 14 11  2  0  0  0  0
 14 18  1  0  0  0  0
 15  1  1  0  0  0  0
 15 20  2  0  0  0  0
 16  3  1  0  0  0  0
 16  2  2  0  0  0  0
 17 21  1  0  0  0  0
 17  8  2  0  0  0  0
 18  6  2  0  0  0  0
 20 19  1  0  0  0  0
 21 15  1  0  0  0  0
 23 27  2  0  0  0  0
 23 24  1  0  0  0  0
 24 25  2  0  0  0  0
 25 22  1  0  0  0  0
 26 22  2  0  0  0  0
 27 26  1  0  0  0  0
M  END
>  <MODEL>
8

>  <REMARK>
 VINA RESULT:      -6.4      3.383      7.932
  Name = 
  1 active torsions:
  status: ('A' for Active; 'I' for Inactive)
    1  A    between atoms: C_9  and  C_15
                            x       y       z     vdW  Elec       q    Type
                         _______ _______ _______ _____ _____    ______ ____

>  <TORSDO>
F 1

$$$$
=
 OpenBabel11052423183D

 27 31  0  0  1  0  0  0  0  0999 V2000
  161.8960  204.3220  148.1230 C   0  0  0  0  0  3  0  0  0  0  0  0
  161.2840  205.6270  150.1990 C   0  0  0  0  0  0  0  0  0  0  0  0
  161.3670  207.2590  148.4050 N   0  0  0  0  0  0  0  0  0  0  0  0
  161.3990  209.3570  152.8830 S   0  0  0  0  0  0  0  0  0  0  0  0
  160.4550  211.2500  151.1370 C   0  0  0  0  0  1  0  0  0  0  0  0
  161.0370  205.5180  151.5900 C   0  0  0  0  0  3  0  0  0  0  0  0
  161.7560  209.4050  150.2190 N   0  0  0  0  0  0  0  0  0  0  0  0
  160.2260  206.5780  144.8860 C   0  0  0  0  0  3  0  0  0  0  0  0
  162.3310  209.8520  148.9580 C   0  0  0  0  0  1  0  0  0  0  0  0
  160.9130  205.6780  144.1900 C   0  0  0  0  0  3  0  0  0  0  0  0
  161.5560  208.0360  150.5740 C   0  0  0  0  0  0  0  0  0  0  0  0
  161.3820  204.4620  149.4950 C   0  0  0  0  0  0  0  0  0  0  0  0
  161.6420  210.3280  151.3430 C   0  0  2  0  0  3  0  0  0  0  0  0
  161.3500  207.8600  151.9200 C   0  0  0  0  0  0  0  0  0  0  0  0
  161.8190  205.1590  147.1050 C   0  0  0  0  0  0  0  0  0  0  0  0
  161.4580  206.9520  149.6650 C   0  0  0  0  0  0  0  0  0  0  0  0
  160.4950  207.0580  146.2480 C   0  0  0  0  0  3  0  0  0  0  0  0
  161.0550  206.6150  152.4450 C   0  0  0  0  0  3  0  0  0  0  0  0
  162.0980  204.9320  144.6260 C   0  0  0  0  0  3  0  0  0  0  0  0
  162.4830  204.7040  145.8780 C   0  0  0  0  0  3  0  0  0  0  0  0
  161.1770  206.4710  147.2330 C   0  0  0  0  0  0  0  0  0  0  0  0
  160.8310  200.6270  151.3240 C   0  0  0  0  0  3  0  0  0  0  0  0
  161.1750  203.1470  150.1450 C   0  0  0  0  0  0  0  0  0  0  0  0
  161.7330  202.8720  151.4030 C   0  0  0  0  0  3  0  0  0  0  0  0
  161.5570  201.6170  151.9920 C   0  0  0  0  0  3  0  0  0  0  0  0
  160.2840  200.8900  150.0650 C   0  0  0  0  0  3  0  0  0  0  0  0
  160.4600  202.1450  149.4750 C   0  0  0  0  0  3  0  0  0  0  0  0
  1 12  1  0  0  0  0
  2  6  1  0  0  0  0
  3 16  2  0  0  0  0
  6 18  2  0  0  0  0
  7 11  1  0  0  0  0
  7 13  1  0  0  0  0
  8 17  1  0  0  0  0
  9  7  1  0  0  0  0
 10 19  1  0  0  0  0
 10  8  2  0  0  0  0
 11 14  2  0  0  0  0
 12 23  1  0  0  0  0
 12  2  2  0  0  0  0
 13  5  1  6  0  0  0
 13  4  1  0  0  0  0
 14 18  1  0  0  0  0
 14  4  1  0  0  0  0
 15 21  1  0  0  0  0
 15  1  2  0  0  0  0
 16  2  1  0  0  0  0
 16 11  1  0  0  0  0
 17 21  2  0  0  0  0
 19 20  2  0  0  0  0
 20 15  1  0  0  0  0
 21  3  1  0  0  0  0
 22 25  1  0  0  0  0
 23 24  1  0  0  0  0
 24 25  2  0  0  0  0
 26 22  2  0  0  0  0
 27 26  1  0  0  0  0
 27 23  2  0  0  0  0
M  END
>  <MODEL>
9

>  <REMARK>
 VINA RESULT:      -6.1      2.523      5.265
  Name = 
  1 active torsions:
  status: ('A' for Active; 'I' for Inactive)
    1  A    between atoms: C_9  and  C_15
                            x       y       z     vdW  Elec       q    Type
                         _______ _______ _______ _____ _____    ______ ____

>  <TORSDO>
F 1

$$$$
