=
 OpenBabel11062409473D

 34 39  0  0  1  0  0  0  0  0999 V2000
  161.2300  210.6450  154.0020 C   0  0  1  0  0  3  0  0  0  0  0  0
  160.5690  206.8820  154.0330 C   0  0  0  0  0  2  0  0  0  0  0  0
  160.0330  211.2170  151.7640 C   0  0  2  0  0  3  0  0  0  0  0  0
  160.0910  208.5900  155.6950 C   0  0  0  0  0  2  0  0  0  0  0  0
  158.0440  213.4540  152.0050 C   0  0  0  0  0  2  0  0  0  0  0  0
  161.3580  213.7700  148.4690 C   0  0  0  0  0  0  0  0  0  0  0  0
  159.5600  212.4050  153.7690 C   0  0  2  0  0  3  0  0  0  0  0  0
  160.7000  211.7370  153.0410 C   0  0  1  0  0  3  0  0  0  0  0  0
  161.8490  212.3890  148.5870 C   0  0  0  0  0  0  0  0  0  0  0  0
  161.5750  211.6040  149.8340 C   0  0  0  0  0  2  0  0  0  0  0  0
  161.6020  214.4530  147.4390 O   0  0  0  0  0  0  0  0  0  0  0  0
  160.2980  212.0830  150.5250 C   0  0  2  0  0  3  0  0  0  0  0  0
  159.3740  211.6190  155.0470 C   0  0  2  0  0  3  0  0  0  0  0  0
  159.0450  212.4910  156.0850 O   0  0  0  0  0  1  0  0  0  0  0  0
  160.5070  209.9140  156.3050 C   0  0  2  0  0  3  0  0  0  0  0  0
  160.6540  210.9870  155.3190 N   0  0  1  0  0  0  0  0  0  0  0  0
  162.5360  211.8740  147.6640 O   0  0  0  0  0  0  0  0  0  0  0  0
  161.6990  206.2030  153.2710 C   0  0  0  0  0  2  0  0  0  0  0  0
  161.7390  206.5800  151.7840 C   0  0  2  0  0  3  0  0  0  0  0  0
  160.3750  213.6090  150.7780 C   0  0  2  0  0  3  0  0  0  0  0  0
  161.4300  208.0450  151.4620 C   0  0  0  0  0  2  0  0  0  0  0  0
  159.2650  214.2920  151.6000 C   0  0  0  0  0  2  0  0  0  0  0  0
  160.5640  214.3250  149.5200 N   0  0  0  0  0  2  0  0  0  0  0  0
  158.3660  212.2090  152.8460 C   0  0  2  0  0  3  0  0  0  0  0  0
  158.6520  211.1400  151.9870 O   0  0  0  0  0  0  0  0  0  0  0  0
  161.0140  208.2490  154.5540 C   0  0  2  0  0  3  0  0  0  0  0  0
  161.9650  208.9940  152.5220 C   0  0  0  0  0  2  0  0  0  0  0  0
  160.9210  209.2790  153.5090 N   0  0  2  0  0  0  0  0  0  0  0  0
  160.8720  205.6730  150.9760 C   0  0  0  0  0  0  0  0  0  0  0  0
  160.5210  204.5610  151.4500 O   0  0  0  0  0  0  0  0  0  0  0  0
  160.4330  206.0560  149.6750 N   0  0  0  0  0  1  0  0  0  0  0  0
  162.7600  210.9150  156.9780 C   0  0  0  0  0  1  0  0  0  0  0  0
  161.7090  209.8540  157.2610 C   0  0  0  0  0  3  0  0  0  0  0  0
  162.3420  208.4750  157.2610 C   0  0  0  0  0  1  0  0  0  0  0  0
  1 16  1  0  0  0  0
  2 26  1  0  0  0  0
  3 25  1  0  0  0  0
  3  8  1  0  0  0  0
  4 15  1  0  0  0  0
  5 24  1  0  0  0  0
  6  9  1  0  0  0  0
  6 23  1  0  0  0  0
  7 13  1  0  0  0  0
  8  7  1  0  0  0  0
  8  1  1  0  0  0  0
  9 10  1  0  0  0  0
 10 12  1  0  0  0  0
 11  6  2  0  0  0  0
 12 20  1  0  0  0  0
 12  3  1  0  0  0  0
 13 16  1  0  0  0  0
 13 14  1  0  0  0  0
 15 33  1  0  0  0  0
 16 15  1  0  0  0  0
 17  9  2  0  0  0  0
 18  2  1  0  0  0  0
 19 18  1  0  0  0  0
 20 22  1  0  0  0  0
 21 19  1  0  0  0  0
 21 27  1  0  0  0  0
 22  5  1  0  0  0  0
 23 20  1  0  0  0  0
 24  7  1  0  0  0  0
 25 24  1  0  0  0  0
 26  4  1  0  0  0  0
 27 28  1  0  0  0  0
 28  1  1  0  0  0  0
 28 26  1  0  0  0  0
 29 30  2  0  0  0  0
 29 19  1  0  0  0  0
 31 29  1  0  0  0  0
 32 33  1  0  0  0  0
 33 34  1  0  0  0  0
M  END
>  <MODEL>
1

>  <REMARK>
 VINA RESULT:      -6.0      0.000      0.000
  Name = 
  2 active torsions:
  status: ('A' for Active; 'I' for Inactive)
    1  A    between atoms: C_3  and  C_25
    2  A    between atoms: C_12  and  C_19
                            x       y       z     vdW  Elec       q    Type
                         _______ _______ _______ _____ _____    ______ ____

>  <TORSDO>
F 2

$$$$
=
 OpenBabel11062409473D

 34 39  0  0  1  0  0  0  0  0999 V2000
  159.0220  211.5800  152.5810 C   0  0  1  0  0  3  0  0  0  0  0  0
  160.5320  214.4510  150.5640 C   0  0  0  0  0  2  0  0  0  0  0  0
  161.1340  210.0690  152.7230 C   0  0  2  0  0  3  0  0  0  0  0  0
  159.3640  214.4530  152.6960 C   0  0  0  0  0  2  0  0  0  0  0  0
  161.8080  209.2080  155.5200 C   0  0  0  0  0  2  0  0  0  0  0  0
  161.5210  205.7540  152.1190 C   0  0  0  0  0  0  0  0  0  0  0  0
  159.8930  210.6590  154.6630 C   0  0  2  0  0  3  0  0  0  0  0  0
  159.7040  210.3370  153.2020 C   0  0  1  0  0  3  0  0  0  0  0  0
  161.4740  206.6680  150.9670 C   0  0  0  0  0  0  0  0  0  0  0  0
  161.1120  208.1080  151.1720 C   0  0  0  0  0  2  0  0  0  0  0  0
  161.7970  204.5360  151.9610 O   0  0  0  0  0  0  0  0  0  0  0  0
  161.4760  208.5790  152.5800 C   0  0  2  0  0  3  0  0  0  0  0  0
  159.4470  212.0950  154.8260 C   0  0  2  0  0  3  0  0  0  0  0  0
  158.7940  212.2420  156.0500 O   0  0  0  0  0  1  0  0  0  0  0  0
  158.3100  213.7920  153.5610 C   0  0  2  0  0  3  0  0  0  0  0  0
  158.5210  212.3530  153.7360 N   0  0  1  0  0  0  0  0  0  0  0  0
  161.6950  206.2400  149.8030 O   0  0  0  0  0  0  0  0  0  0  0  0
  160.3760  214.1170  149.0870 C   0  0  0  0  0  2  0  0  0  0  0  0
  161.1720  212.8780  148.6580 C   0  0  2  0  0  3  0  0  0  0  0  0
  160.8350  207.6410  153.6330 C   0  0  2  0  0  3  0  0  0  0  0  0
  161.1910  211.7200  149.6620 C   0  0  0  0  0  2  0  0  0  0  0  0
  160.9390  208.0050  155.1270 C   0  0  0  0  0  2  0  0  0  0  0  0
  161.2860  206.2680  153.4320 N   0  0  0  0  0  2  0  0  0  0  0  0
  161.3950  210.5410  154.8780 C   0  0  2  0  0  3  0  0  0  0  0  0
  162.0220  210.6600  153.6320 O   0  0  0  0  0  0  0  0  0  0  0  0
  159.5010  213.6940  151.4020 C   0  0  2  0  0  3  0  0  0  0  0  0
  159.8730  211.5810  150.4060 C   0  0  0  0  0  2  0  0  0  0  0  0
  159.9360  212.3160  151.6720 N   0  0  2  0  0  0  0  0  0  0  0  0
  162.5630  213.2440  148.2570 C   0  0  0  0  0  0  0  0  0  0  0  0
  162.9110  214.4530  148.2530 O   0  0  0  0  0  0  0  0  0  0  0  0
  163.5010  212.2370  147.8870 N   0  0  0  0  0  1  0  0  0  0  0  0
  155.8420  213.2100  153.8810 C   0  0  0  0  0  1  0  0  0  0  0  0
  156.8530  214.1100  153.1900 C   0  0  0  0  0  3  0  0  0  0  0  0
  156.6480  214.0710  151.6870 C   0  0  0  0  0  1  0  0  0  0  0  0
  1  8  1  0  0  0  0
  1 16  1  0  0  0  0
  2 26  1  0  0  0  0
  3  8  1  0  0  0  0
  3 25  1  0  0  0  0
  4 15  1  0  0  0  0
  6 23  1  0  0  0  0
  7 13  1  0  0  0  0
  7 24  1  0  0  0  0
  8  7  1  0  0  0  0
  9 10  1  0  0  0  0
  9  6  1  0  0  0  0
 10 12  1  0  0  0  0
 11  6  2  0  0  0  0
 12  3  1  0  0  0  0
 12 20  1  0  0  0  0
 13 14  1  0  0  0  0
 15 16  1  0  0  0  0
 16 13  1  0  0  0  0
 17  9  2  0  0  0  0
 18  2  1  0  0  0  0
 19 18  1  0  0  0  0
 19 21  1  0  0  0  0
 20 22  1  0  0  0  0
 21 27  1  0  0  0  0
 22  5  1  0  0  0  0
 23 20  1  0  0  0  0
 24  5  1  0  0  0  0
 25 24  1  0  0  0  0
 26 28  1  0  0  0  0
 26  4  1  0  0  0  0
 27 28  1  0  0  0  0
 28  1  1  0  0  0  0
 29 19  1  0  0  0  0
 30 29  2  0  0  0  0
 31 29  1  0  0  0  0
 33 15  1  0  0  0  0
 33 32  1  0  0  0  0
 34 33  1  0  0  0  0
M  END
>  <MODEL>
2

>  <REMARK>
 VINA RESULT:      -5.1      1.764      6.403
  Name = 
  2 active torsions:
  status: ('A' for Active; 'I' for Inactive)
    1  A    between atoms: C_3  and  C_25
    2  A    between atoms: C_12  and  C_19
                            x       y       z     vdW  Elec       q    Type
                         _______ _______ _______ _____ _____    ______ ____

>  <TORSDO>
F 2

$$$$
