=
 OpenBabel11062409473D

 34 39  0  0  1  0  0  0  0  0999 V2000
  159.8590  211.3450  153.9750 C   0  0  2  0  0  3  0  0  0  0  0  0
  157.5540  212.4720  156.7540 C   0  0  0  0  0  3  0  0  0  0  0  0
  159.0690  210.4950  156.5420 C   0  0  0  0  0  2  0  0  0  0  0  0
  160.9350  208.7700  153.7130 C   0  0  2  0  0  3  0  0  0  0  0  0
  159.3710  209.6670  153.3800 S   0  0  0  0  0  0  0  0  0  0  0  0
  162.2770  210.6570  154.7290 C   0  0  1  0  0  3  0  0  0  0  0  0
  162.7080  209.9940  156.0280 C   0  0  0  0  0  2  0  0  0  0  0  0
  162.1930  209.6310  153.6000 C   0  0  2  0  0  3  0  0  0  0  0  0
  162.3270  210.3100  152.2450 C   0  0  0  0  0  1  0  0  0  0  0  0
  160.5250  210.9730  156.4610 C   0  0  2  0  0  3  0  0  0  0  0  0
  160.9640  211.3730  155.0470 C   0  0  2  0  0  3  0  0  0  0  0  0
  161.4630  209.8620  156.8900 C   0  0  0  0  0  2  0  0  0  0  0  0
  156.5200  213.2620  156.4310 C   0  0  0  0  0  3  0  0  0  0  0  0
  155.7850  213.1640  155.1190 C   0  0  2  0  0  3  0  0  0  0  0  0
  156.6850  213.5280  153.9370 C   0  0  0  0  0  2  0  0  0  0  0  0
  158.0820  211.4270  155.8200 C   0  0  2  0  0  3  0  0  0  0  0  0
  157.5710  212.3590  153.5150 C   0  0  0  0  0  2  0  0  0  0  0  0
  158.6560  212.0930  154.5530 C   0  0  2  0  0  3  0  0  0  0  0  0
  161.2420  205.0830  152.8050 C   0  0  0  0  0  3  0  0  0  0  0  0
  160.9420  207.5610  151.5260 C   0  0  0  0  0  3  0  0  0  0  0  0
  161.1340  204.0290  149.2540 C   0  0  0  0  0  0  0  0  0  0  0  0
  161.2250  203.9710  150.6530 C   0  0  0  0  0  3  0  0  0  0  0  0
  161.1590  205.1420  151.4110 C   0  0  0  0  0  0  0  0  0  0  0  0
  160.9110  206.4470  149.3740 C   0  0  0  0  0  3  0  0  0  0  0  0
  161.0040  206.3900  150.7670 C   0  0  0  0  0  0  0  0  0  0  0  0
  160.9740  205.2720  148.6200 C   0  0  0  0  0  3  0  0  0  0  0  0
  161.0360  207.5030  152.9200 C   0  0  0  0  0  0  0  0  0  0  0  0
  161.1760  206.2590  153.5570 C   0  0  0  0  0  3  0  0  0  0  0  0
  161.1990  202.7890  148.4630 C   0  0  0  0  0  0  0  0  0  0  0  0
  161.2290  202.8360  147.2040 O   0  0  0  0  0  0  0  0  0  0  0  0
  161.2300  201.5530  149.0980 O   0  0  0  0  0  1  0  0  0  0  0  0
  154.5950  214.0630  155.1350 C   0  0  0  0  0  0  0  0  0  0  0  0
  154.1220  214.4530  156.2350 O   0  0  0  0  0  1  0  0  0  0  0  0
  153.9840  214.4480  153.9470 O   0  0  0  0  0  0  0  0  0  0  0  0
  1  5  1  1  0  0  0
  1 18  1  0  0  0  0
  1 11  1  0  0  0  0
  4 27  1  6  0  0  0
  5  4  1  0  0  0  0
  6 11  1  0  0  0  0
  6  7  1  1  0  0  0
  7 12  1  0  0  0  0
  8  9  1  6  0  0  0
  8  4  1  0  0  0  0
  8  6  1  0  0  0  0
 10  3  1  6  0  0  0
 10 12  1  0  0  0  0
 11 10  1  0  0  0  0
 13  2  2  0  0  0  0
 14 32  1  0  0  0  0
 14 13  1  0  0  0  0
 15 14  1  0  0  0  0
 16  3  1  0  0  0  0
 16  2  1  0  0  0  0
 17 15  1  0  0  0  0
 17 18  1  0  0  0  0
 18 16  1  0  0  0  0
 19 28  1  0  0  0  0
 20 27  1  0  0  0  0
 21 22  2  0  0  0  0
 22 23  1  0  0  0  0
 23 19  2  0  0  0  0
 24 25  1  0  0  0  0
 25 23  1  0  0  0  0
 25 20  2  0  0  0  0
 26 21  1  0  0  0  0
 26 24  2  0  0  0  0
 27 28  2  0  0  0  0
 29 31  1  0  0  0  0
 29 21  1  0  0  0  0
 30 29  2  0  0  0  0
 32 33  1  0  0  0  0
 34 32  2  0  0  0  0
M  END
>  <MODEL>
1

>  <REMARK>
 VINA RESULT:      -8.5      0.000      0.000
  Name = 
  3 active torsions:
  status: ('A' for Active; 'I' for Inactive)
    1  A    between atoms: C_3  and  C_25
    2  A    between atoms: C_7  and  C_11
    3  A    between atoms: C_8  and  C_30
                            x       y       z     vdW  Elec       q    Type
                         _______ _______ _______ _____ _____    ______ ____

>  <TORSDO>
F 3

$$$$
=
 OpenBabel11062409473D

 34 39  0  0  1  0  0  0  0  0999 V2000
  159.9770  211.3920  153.7150 C   0  0  2  0  0  3  0  0  0  0  0  0
  157.7640  212.1010  156.7000 C   0  0  0  0  0  3  0  0  0  0  0  0
  159.2160  210.1480  156.1260 C   0  0  0  0  0  2  0  0  0  0  0  0
  160.9710  208.8700  153.0030 C   0  0  2  0  0  3  0  0  0  0  0  0
  159.4270  209.8490  152.8630 S   0  0  0  0  0  0  0  0  0  0  0  0
  162.3880  210.5270  154.2830 C   0  0  1  0  0  3  0  0  0  0  0  0
  162.8270  209.6460  155.4430 C   0  0  0  0  0  2  0  0  0  0  0  0
  162.2510  209.7050  153.0020 C   0  0  2  0  0  3  0  0  0  0  0  0
  162.3770  210.5960  151.7760 C   0  0  0  0  0  1  0  0  0  0  0  0
  160.6830  210.5960  156.0880 C   0  0  2  0  0  3  0  0  0  0  0  0
  161.1050  211.2130  154.7490 C   0  0  2  0  0  3  0  0  0  0  0  0
  161.5960  209.4040  156.3030 C   0  0  0  0  0  2  0  0  0  0  0  0
  156.7470  212.9600  156.5380 C   0  0  0  0  0  3  0  0  0  0  0  0
  155.9830  213.1000  155.2480 C   0  0  2  0  0  3  0  0  0  0  0  0
  156.8690  213.6320  154.1200 C   0  0  0  0  0  2  0  0  0  0  0  0
  158.2420  211.2130  155.5930 C   0  0  2  0  0  3  0  0  0  0  0  0
  157.7110  212.5270  153.4880 C   0  0  0  0  0  2  0  0  0  0  0  0
  158.8090  212.0650  154.4390 C   0  0  2  0  0  3  0  0  0  0  0  0
  161.2890  206.9450  149.7310 C   0  0  0  0  0  3  0  0  0  0  0  0
  160.9050  206.4320  152.4620 C   0  0  0  0  0  3  0  0  0  0  0  0
  161.1150  203.2440  149.7280 C   0  0  0  0  0  0  0  0  0  0  0  0
  161.2310  204.5660  149.2760 C   0  0  0  0  0  3  0  0  0  0  0  0
  161.1650  205.6280  150.1810 C   0  0  0  0  0  0  0  0  0  0  0  0
  160.8610  204.0510  152.0080 C   0  0  0  0  0  3  0  0  0  0  0  0
  160.9750  205.3690  151.5570 C   0  0  0  0  0  0  0  0  0  0  0  0
  160.9310  202.9930  151.0980 C   0  0  0  0  0  3  0  0  0  0  0  0
  161.0180  207.7500  152.0090 C   0  0  0  0  0  0  0  0  0  0  0  0
  161.2210  208.0020  150.6430 C   0  0  0  0  0  3  0  0  0  0  0  0
  161.1910  202.1300  148.7680 C   0  0  0  0  0  0  0  0  0  0  0  0
  160.8980  202.3130  147.5550 O   0  0  0  0  0  0  0  0  0  0  0  0
  161.5860  200.8670  149.1900 O   0  0  0  0  0  1  0  0  0  0  0  0
  154.8200  214.0140  155.4420 C   0  0  0  0  0  0  0  0  0  0  0  0
  154.1880  214.4410  154.4400 O   0  0  0  0  0  0  0  0  0  0  0  0
  154.4490  214.4230  156.7170 O   0  0  0  0  0  1  0  0  0  0  0  0
  1  5  1  1  0  0  0
  1 18  1  0  0  0  0
  1 11  1  0  0  0  0
  4 27  1  6  0  0  0
  5  4  1  0  0  0  0
  6 11  1  0  0  0  0
  6  7  1  1  0  0  0
  7 12  1  0  0  0  0
  8  9  1  6  0  0  0
  8  4  1  0  0  0  0
  8  6  1  0  0  0  0
 10  3  1  6  0  0  0
 10 12  1  0  0  0  0
 11 10  1  0  0  0  0
 13  2  2  0  0  0  0
 14 32  1  0  0  0  0
 14 13  1  0  0  0  0
 15 14  1  0  0  0  0
 16  3  1  0  0  0  0
 16  2  1  0  0  0  0
 17 15  1  0  0  0  0
 17 18  1  0  0  0  0
 18 16  1  0  0  0  0
 19 23  2  0  0  0  0
 19 28  1  0  0  0  0
 21 26  1  0  0  0  0
 22 21  2  0  0  0  0
 22 23  1  0  0  0  0
 23 25  1  0  0  0  0
 25 24  1  0  0  0  0
 25 20  2  0  0  0  0
 26 24  2  0  0  0  0
 27 20  1  0  0  0  0
 28 27  2  0  0  0  0
 29 31  1  0  0  0  0
 29 21  1  0  0  0  0
 30 29  2  0  0  0  0
 32 34  1  0  0  0  0
 33 32  2  0  0  0  0
M  END
>  <MODEL>
2

>  <REMARK>
 VINA RESULT:      -7.0      0.664      1.487
  Name = 
  3 active torsions:
  status: ('A' for Active; 'I' for Inactive)
    1  A    between atoms: C_3  and  C_25
    2  A    between atoms: C_7  and  C_11
    3  A    between atoms: C_8  and  C_30
                            x       y       z     vdW  Elec       q    Type
                         _______ _______ _______ _____ _____    ______ ____

>  <TORSDO>
F 3

$$$$
