=
 OpenBabel11062410183D

 43 48  0  0  1  0  0  0  0  0999 V2000
  160.8490  206.2440  153.8830 N   0  0  0  0  0  2  0  0  0  0  0  0
  161.1390  201.3700  148.3020 C   0  0  0  0  0  0  0  0  0  0  0  0
  160.9960  205.0200  151.7630 C   0  0  0  0  0  0  0  0  0  0  0  0
  161.2970  207.4040  150.4090 C   0  0  0  0  0  0  0  0  0  0  0  0
  160.9930  202.6160  150.3720 C   0  0  0  0  0  0  0  0  0  0  0  0
  161.2950  202.5630  147.5900 C   0  0  0  0  0  3  0  0  0  0  0  0
  161.1350  200.1860  147.6440 F   0  0  0  0  0  0  0  0  0  0  0  0
  161.1500  203.8260  149.6590 C   0  0  0  0  0  0  0  0  0  0  0  0
  160.9890  201.3960  149.6920 C   0  0  0  0  0  3  0  0  0  0  0  0
  161.2990  203.7870  148.2650 C   0  0  0  0  0  3  0  0  0  0  0  0
  161.2980  206.2300  149.7190 N   0  0  0  0  0  0  0  0  0  0  0  0
  161.1510  205.0410  150.3630 C   0  0  0  0  0  0  0  0  0  0  0  0
  160.8480  203.8370  152.4190 N   0  0  0  0  0  0  0  0  0  0  0  0
  161.0020  206.2370  152.4550 C   0  0  0  0  0  0  0  0  0  0  0  0
  161.1520  207.3970  151.7600 N   0  0  0  0  0  0  0  0  0  0  0  0
  160.8440  202.6480  151.7590 C   0  0  0  0  0  3  0  0  0  0  0  0
  161.2340  209.7630  155.0490 C   0  0  0  0  0  3  0  0  0  0  0  0
  160.8560  209.6640  156.3930 C   0  0  0  0  0  0  0  0  0  0  0  0
  160.4590  207.2940  156.1000 C   0  0  0  0  0  3  0  0  0  0  0  0
  161.2280  208.6260  154.2350 C   0  0  0  0  0  3  0  0  0  0  0  0
  160.8420  207.3850  154.7530 C   0  0  0  0  0  0  0  0  0  0  0  0
  160.4640  208.4280  156.9160 C   0  0  0  0  0  3  0  0  0  0  0  0
  160.8460  210.8780  157.2560 C   0  0  0  0  0  2  0  0  0  0  0  0
  160.0220  211.9750  156.6080 C   0  0  0  0  0  1  0  0  0  0  0  0
  161.4680  208.7030  149.6970 C   0  0  2  0  0  3  0  0  0  0  0  0
  162.2690  208.5090  148.4220 C   0  0  0  0  0  1  0  0  0  0  0  0
  162.2920  209.9100  150.7790 S   0  0  0  0  0  0  0  0  0  0  0  0
  160.8210  210.9750  150.8540 C   0  0  1  0  0  3  0  0  0  0  0  0
  160.3430  211.0010  152.1500 F   0  0  0  0  0  0  0  0  0  0  0  0
  161.1800  212.3970  150.4180 C   0  0  0  0  0  2  0  0  0  0  0  0
  160.5200  212.8240  149.1750 N   0  0  0  0  0  0  0  0  0  0  0  0
  158.2850  213.5520  149.8250 C   0  0  0  0  0  2  0  0  0  0  0  0
  159.6760  213.9960  149.4060 C   0  0  0  0  0  3  0  0  0  0  0  0
  158.5340  214.0070  148.4060 C   0  0  0  0  0  2  0  0  0  0  0  0
  161.7080  213.1950  147.9530 S   0  0  0  0  0  0  0  0  0  0  0  0
  162.4610  214.4450  148.3200 O   0  0  0  0  0  0  0  0  0  0  0  0
  162.6800  212.0530  147.8270 O   0  0  0  0  0  0  0  0  0  0  0  0
  160.8920  213.4430  146.3870 C   0  0  1  0  0  3  0  0  0  0  0  0
  159.7060  212.2250  144.5370 C   0  0  0  0  0  3  0  0  0  0  0  0
  161.1490  214.1070  144.0250 C   0  0  0  0  0  2  0  0  0  0  0  0
  160.2020  213.0580  143.6830 N   0  0  0  0  0  0  0  0  0  0  0  0
  161.9070  213.7990  145.3130 C   0  0  0  0  0  2  0  0  0  0  0  0
  160.1500  212.1760  145.9780 C   0  0  0  0  0  2  0  0  0  0  0  0
  1 21  1  0  0  0  0
  2  9  1  0  0  0  0
  3 13  1  0  0  0  0
  3 14  1  0  0  0  0
  4 15  1  0  0  0  0
  5 16  1  0  0  0  0
  6 10  1  0  0  0  0
  6  2  2  0  0  0  0
  7  2  1  0  0  0  0
  8 12  1  0  0  0  0
  8  5  1  0  0  0  0
  9  5  2  0  0  0  0
 10  8  2  0  0  0  0
 11 12  1  0  0  0  0
 11  4  2  0  0  0  0
 12  3  2  0  0  0  0
 14  1  1  0  0  0  0
 15 14  2  0  0  0  0
 16 13  2  0  0  0  0
 17 18  1  0  0  0  0
 18 22  2  0  0  0  0
 18 23  1  0  0  0  0
 19 22  1  0  0  0  0
 20 21  1  0  0  0  0
 20 17  2  0  0  0  0
 21 19  2  0  0  0  0
 24 23  1  0  0  0  0
 25 26  1  6  0  0  0
 25  4  1  0  0  0  0
 25 27  1  0  0  0  0
 27 28  1  0  0  0  0
 28 29  1  1  0  0  0
 30 28  1  0  0  0  0
 31 33  1  0  0  0  0
 31 30  1  0  0  0  0
 33 32  1  0  0  0  0
 34 33  1  0  0  0  0
 34 32  1  0  0  0  0
 35 36  2  0  0  0  0
 35 31  1  0  0  0  0
 37 35  2  0  0  0  0
 38 35  1  1  0  0  0
 39 43  1  0  0  0  0
 40 42  1  0  0  0  0
 41 40  1  0  0  0  0
 41 39  2  0  0  0  0
 42 38  1  0  0  0  0
 43 38  1  0  0  0  0
M  END
>  <MODEL>
1

>  <REMARK>
 VINA RESULT:      -8.3      0.000      0.000
  Name = 
  10 active torsions:
  status: ('A' for Active; 'I' for Inactive)
    1  A    between atoms: N_1  and  C_35
    2  A    between atoms: C_2  and  S_6
    3  A    between atoms: C_2  and  C_13
    4  A    between atoms: C_3  and  N_4
    5  A    between atoms: C_3  and  C_12
    6  A    between atoms: N_4  and  S_14
    7  A    between atoms: N_4  and  C_15
    8  A    between atoms: S_6  and  C_12
    9  A    between atoms: C_11  and  S_14
   10  A    between atoms: C_19  and  C_25
                            x       y       z     vdW  Elec       q    Type
                         _______ _______ _______ _____ _____    ______ ____

>  <TORSDO>
F 10

$$$$
=
 OpenBabel11062410183D

 43 48  0  0  1  0  0  0  0  0999 V2000
  160.9670  204.5280  151.6010 N   0  0  0  0  0  2  0  0  0  0  0  0
  160.9120  210.6550  155.7780 C   0  0  0  0  0  0  0  0  0  0  0  0
  161.0100  206.7820  152.5660 C   0  0  0  0  0  0  0  0  0  0  0  0
  161.3390  207.8540  150.0470 C   0  0  0  0  0  0  0  0  0  0  0  0
  160.8810  208.4470  154.7860 C   0  0  0  0  0  0  0  0  0  0  0  0
  161.0780  211.2250  154.5130 C   0  0  0  0  0  3  0  0  0  0  0  0
  160.8460  211.4480  156.8740 F   0  0  0  0  0  0  0  0  0  0  0  0
  161.0490  209.0170  153.5040 C   0  0  0  0  0  0  0  0  0  0  0  0
  160.8130  209.2670  155.9150 C   0  0  0  0  0  3  0  0  0  0  0  0
  161.1470  210.4110  153.3790 C   0  0  0  0  0  3  0  0  0  0  0  0
  161.2760  208.6780  151.1290 N   0  0  0  0  0  0  0  0  0  0  0  0
  161.1140  208.1750  152.3820 C   0  0  0  0  0  0  0  0  0  0  0  0
  160.8480  206.2660  153.8150 N   0  0  0  0  0  0  0  0  0  0  0  0
  161.0740  205.9510  151.4410 C   0  0  0  0  0  0  0  0  0  0  0  0
  161.2370  206.5090  150.2110 N   0  0  0  0  0  0  0  0  0  0  0  0
  160.7820  207.0620  154.9160 C   0  0  0  0  0  3  0  0  0  0  0  0
  161.1200  203.0070  148.2020 C   0  0  0  0  0  3  0  0  0  0  0  0
  161.0660  201.6400  148.4950 C   0  0  0  0  0  0  0  0  0  0  0  0
  160.9510  202.1580  150.8570 C   0  0  0  0  0  3  0  0  0  0  0  0
  161.0850  203.9470  149.2360 C   0  0  0  0  0  3  0  0  0  0  0  0
  160.9990  203.5310  150.5700 C   0  0  0  0  0  0  0  0  0  0  0  0
  160.9850  201.2170  149.8250 C   0  0  0  0  0  3  0  0  0  0  0  0
  161.1200  200.6380  147.3940 C   0  0  0  0  0  2  0  0  0  0  0  0
  160.8680  201.3140  146.0590 C   0  0  0  0  0  1  0  0  0  0  0  0
  161.5070  208.4140  148.6760 C   0  0  2  0  0  3  0  0  0  0  0  0
  162.0770  207.3660  147.7380 C   0  0  0  0  0  1  0  0  0  0  0  0
  162.5900  209.8750  148.7190 S   0  0  0  0  0  0  0  0  0  0  0  0
  161.1840  211.0200  148.8400 C   0  0  1  0  0  3  0  0  0  0  0  0
  161.3900  211.8820  149.9010 F   0  0  0  0  0  0  0  0  0  0  0  0
  161.0540  211.8290  147.5490 C   0  0  0  0  0  2  0  0  0  0  0  0
  160.6650  213.2320  147.7610 N   0  0  0  0  0  0  0  0  0  0  0  0
  162.8410  213.4450  146.6820 C   0  0  0  0  0  2  0  0  0  0  0  0
  161.5260  214.1350  147.0000 C   0  0  0  0  0  3  0  0  0  0  0  0
  162.7730  214.4530  147.8060 C   0  0  0  0  0  2  0  0  0  0  0  0
  159.0040  213.4780  147.2900 S   0  0  0  0  0  0  0  0  0  0  0  0
  158.9250  214.4500  146.1450 O   0  0  0  0  0  0  0  0  0  0  0  0
  158.3950  212.1680  146.8690 O   0  0  0  0  0  0  0  0  0  0  0  0
  158.0860  214.1300  148.6730 C   0  0  1  0  0  3  0  0  0  0  0  0
  157.9440  214.0760  151.1810 C   0  0  0  0  0  3  0  0  0  0  0  0
  155.9190  214.1860  149.8520 C   0  0  0  0  0  2  0  0  0  0  0  0
  156.6590  214.1830  151.1030 N   0  0  0  0  0  0  0  0  0  0  0  0
  156.6960  213.5160  148.7220 C   0  0  0  0  0  2  0  0  0  0  0  0
  158.8160  213.8240  149.9760 C   0  0  0  0  0  2  0  0  0  0  0  0
  2  9  1  0  0  0  0
  2  7  1  0  0  0  0
  3 13  1  0  0  0  0
  4 15  1  0  0  0  0
  4 11  2  0  0  0  0
  5 16  1  0  0  0  0
  5  9  2  0  0  0  0
  6  2  2  0  0  0  0
  8  5  1  0  0  0  0
 10  8  2  0  0  0  0
 10  6  1  0  0  0  0
 11 12  1  0  0  0  0
 12  3  2  0  0  0  0
 12  8  1  0  0  0  0
 13 16  2  0  0  0  0
 14  1  1  0  0  0  0
 14  3  1  0  0  0  0
 15 14  2  0  0  0  0
 17 18  2  0  0  0  0
 17 20  1  0  0  0  0
 18 22  1  0  0  0  0
 20 21  2  0  0  0  0
 21 19  1  0  0  0  0
 21  1  1  0  0  0  0
 22 19  2  0  0  0  0
 23 18  1  0  0  0  0
 24 23  1  0  0  0  0
 25 26  1  6  0  0  0
 25 27  1  0  0  0  0
 25  4  1  0  0  0  0
 27 28  1  0  0  0  0
 28 29  1  1  0  0  0
 30 31  1  0  0  0  0
 30 28  1  0  0  0  0
 32 33  1  0  0  0  0
 32 34  1  0  0  0  0
 33 31  1  0  0  0  0
 33 34  1  0  0  0  0
 35 31  1  0  0  0  0
 36 35  2  0  0  0  0
 37 35  2  0  0  0  0
 38 35  1  6  0  0  0
 38 42  1  0  0  0  0
 38 43  1  0  0  0  0
 40 41  1  0  0  0  0
 41 39  2  0  0  0  0
 42 40  1  0  0  0  0
 43 39  1  0  0  0  0
M  END
>  <MODEL>
2

>  <REMARK>
 VINA RESULT:      -8.1      2.540      6.968
  Name = 
  10 active torsions:
  status: ('A' for Active; 'I' for Inactive)
    1  A    between atoms: N_1  and  C_35
    2  A    between atoms: C_2  and  S_6
    3  A    between atoms: C_2  and  C_13
    4  A    between atoms: C_3  and  N_4
    5  A    between atoms: C_3  and  C_12
    6  A    between atoms: N_4  and  S_14
    7  A    between atoms: N_4  and  C_15
    8  A    between atoms: S_6  and  C_12
    9  A    between atoms: C_11  and  S_14
   10  A    between atoms: C_19  and  C_25
                            x       y       z     vdW  Elec       q    Type
                         _______ _______ _______ _____ _____    ______ ____

>  <TORSDO>
F 10

$$$$
=
 OpenBabel11062410183D

 43 48  0  0  1  0  0  0  0  0999 V2000
  161.0520  204.4220  151.5450 N   0  0  0  0  0  2  0  0  0  0  0  0
  161.1150  210.5320  155.7470 C   0  0  0  0  0  0  0  0  0  0  0  0
  161.1240  206.6720  152.5180 C   0  0  0  0  0  0  0  0  0  0  0  0
  161.3940  207.7530  149.9960 C   0  0  0  0  0  0  0  0  0  0  0  0
  161.0540  208.3280  154.7470 C   0  0  0  0  0  0  0  0  0  0  0  0
  161.2510  211.1070  154.4810 C   0  0  0  0  0  3  0  0  0  0  0  0
  161.0770  211.3210  156.8480 F   0  0  0  0  0  0  0  0  0  0  0  0
  161.1920  208.9030  153.4630 C   0  0  0  0  0  0  0  0  0  0  0  0
  161.0160  209.1440  155.8810 C   0  0  0  0  0  3  0  0  0  0  0  0
  161.2900  210.2970  153.3420 C   0  0  0  0  0  3  0  0  0  0  0  0
  161.3600  208.5730  151.0830 N   0  0  0  0  0  0  0  0  0  0  0  0
  161.2280  208.0650  152.3370 C   0  0  0  0  0  0  0  0  0  0  0  0
  160.9920  206.1510  153.7690 N   0  0  0  0  0  0  0  0  0  0  0  0
  161.1590  205.8450  151.3890 C   0  0  0  0  0  0  0  0  0  0  0  0
  161.2930  206.4080  150.1580 N   0  0  0  0  0  0  0  0  0  0  0  0
  160.9550  206.9420  154.8740 C   0  0  0  0  0  3  0  0  0  0  0  0
  161.2680  202.9040  148.1480 C   0  0  0  0  0  3  0  0  0  0  0  0
  161.0770  201.5450  148.4270 C   0  0  0  0  0  0  0  0  0  0  0  0
  160.8720  202.0650  150.7830 C   0  0  0  0  0  3  0  0  0  0  0  0
  161.2550  203.8390  149.1870 C   0  0  0  0  0  3  0  0  0  0  0  0
  161.0570  203.4290  150.5100 C   0  0  0  0  0  0  0  0  0  0  0  0
  160.8840  201.1270  149.7470 C   0  0  0  0  0  3  0  0  0  0  0  0
  161.1070  200.5460  147.3230 C   0  0  0  0  0  2  0  0  0  0  0  0
  160.8190  201.2240  145.9970 C   0  0  0  0  0  1  0  0  0  0  0  0
  161.5290  208.3190  148.6230 C   0  0  2  0  0  3  0  0  0  0  0  0
  162.0760  207.2730  147.6680 C   0  0  0  0  0  1  0  0  0  0  0  0
  162.6150  209.7780  148.6460 S   0  0  0  0  0  0  0  0  0  0  0  0
  161.2100  210.9300  148.6100 C   0  0  1  0  0  3  0  0  0  0  0  0
  161.1710  211.6370  149.7970 F   0  0  0  0  0  0  0  0  0  0  0  0
  161.3630  211.9070  147.4430 C   0  0  0  0  0  2  0  0  0  0  0  0
  160.3640  212.9870  147.4350 N   0  0  0  0  0  0  0  0  0  0  0  0
  162.4430  214.0980  148.0600 C   0  0  0  0  0  2  0  0  0  0  0  0
  160.9980  214.2900  147.6310 C   0  0  0  0  0  3  0  0  0  0  0  0
  161.3930  214.4510  149.0880 C   0  0  0  0  0  2  0  0  0  0  0  0
  159.4860  212.9880  145.9280 S   0  0  0  0  0  0  0  0  0  0  0  0
  158.2500  212.1380  146.0450 O   0  0  0  0  0  0  0  0  0  0  0  0
  159.0850  214.3950  145.5750 O   0  0  0  0  0  0  0  0  0  0  0  0
  160.5250  212.3350  144.6350 C   0  0  1  0  0  3  0  0  0  0  0  0
  162.6640  212.7560  143.3860 C   0  0  0  0  0  3  0  0  0  0  0  0
  160.7370  211.8490  142.2250 C   0  0  0  0  0  2  0  0  0  0  0  0
  162.1250  212.2710  142.3160 N   0  0  0  0  0  0  0  0  0  0  0  0
  159.8610  212.5200  143.2790 C   0  0  0  0  0  2  0  0  0  0  0  0
  161.8720  213.0480  144.6360 C   0  0  0  0  0  2  0  0  0  0  0  0
  2  9  1  0  0  0  0
  2  7  1  0  0  0  0
  3 13  1  0  0  0  0
  4 15  1  0  0  0  0
  4 11  2  0  0  0  0
  5 16  1  0  0  0  0
  5  9  2  0  0  0  0
  6  2  2  0  0  0  0
  8  5  1  0  0  0  0
 10  8  2  0  0  0  0
 10  6  1  0  0  0  0
 11 12  1  0  0  0  0
 12  3  2  0  0  0  0
 12  8  1  0  0  0  0
 13 16  2  0  0  0  0
 14  1  1  0  0  0  0
 14  3  1  0  0  0  0
 15 14  2  0  0  0  0
 17 18  2  0  0  0  0
 17 20  1  0  0  0  0
 18 22  1  0  0  0  0
 20 21  2  0  0  0  0
 21 19  1  0  0  0  0
 21  1  1  0  0  0  0
 22 19  2  0  0  0  0
 23 18  1  0  0  0  0
 24 23  1  0  0  0  0
 25 26  1  6  0  0  0
 25 27  1  0  0  0  0
 25  4  1  0  0  0  0
 28 27  1  0  0  0  0
 28 29  1  1  0  0  0
 30 28  1  0  0  0  0
 31 30  1  0  0  0  0
 31 33  1  0  0  0  0
 32 34  1  0  0  0  0
 33 32  1  0  0  0  0
 33 34  1  0  0  0  0
 35 36  2  0  0  0  0
 35 31  1  0  0  0  0
 37 35  2  0  0  0  0
 38 43  1  0  0  0  0
 38 35  1  1  0  0  0
 39 43  1  0  0  0  0
 40 41  1  0  0  0  0
 40 42  1  0  0  0  0
 41 39  2  0  0  0  0
 42 38  1  0  0  0  0
M  END
>  <MODEL>
3

>  <REMARK>
 VINA RESULT:      -7.6      2.509      6.601
  Name = 
  10 active torsions:
  status: ('A' for Active; 'I' for Inactive)
    1  A    between atoms: N_1  and  C_35
    2  A    between atoms: C_2  and  S_6
    3  A    between atoms: C_2  and  C_13
    4  A    between atoms: C_3  and  N_4
    5  A    between atoms: C_3  and  C_12
    6  A    between atoms: N_4  and  S_14
    7  A    between atoms: N_4  and  C_15
    8  A    between atoms: S_6  and  C_12
    9  A    between atoms: C_11  and  S_14
   10  A    between atoms: C_19  and  C_25
                            x       y       z     vdW  Elec       q    Type
                         _______ _______ _______ _____ _____    ______ ____

>  <TORSDO>
F 10

$$$$
=
 OpenBabel11062410183D

 43 48  0  0  1  0  0  0  0  0999 V2000
  159.3530  213.7520  149.4080 N   0  0  0  0  0  2  0  0  0  0  0  0
  155.7570  213.0810  155.8590 C   0  0  0  0  0  0  0  0  0  0  0  0
  158.4920  213.1950  151.6360 C   0  0  0  0  0  0  0  0  0  0  0  0
  160.5000  211.3310  151.9450 C   0  0  0  0  0  0  0  0  0  0  0  0
  156.6360  213.5970  153.6630 C   0  0  0  0  0  0  0  0  0  0  0  0
  156.7650  212.1310  156.0430 C   0  0  0  0  0  3  0  0  0  0  0  0
  154.8420  213.2940  156.8350 F   0  0  0  0  0  0  0  0  0  0  0  0
  157.6570  212.6370  153.8420 C   0  0  0  0  0  0  0  0  0  0  0  0
  155.6920  213.8150  154.6700 C   0  0  0  0  0  3  0  0  0  0  0  0
  157.7120  211.9070  155.0390 C   0  0  0  0  0  3  0  0  0  0  0  0
  159.5950  211.5210  152.9440 N   0  0  0  0  0  0  0  0  0  0  0  0
  158.5950  212.4340  152.8170 C   0  0  0  0  0  0  0  0  0  0  0  0
  157.4960  214.1120  151.4960 N   0  0  0  0  0  0  0  0  0  0  0  0
  159.4340  212.9880  150.6210 C   0  0  0  0  0  0  0  0  0  0  0  0
  160.4130  212.0610  150.8030 N   0  0  0  0  0  0  0  0  0  0  0  0
  156.5770  214.3260  152.4750 C   0  0  0  0  0  3  0  0  0  0  0  0
  162.4780  213.9010  147.3830 C   0  0  0  0  0  3  0  0  0  0  0  0
  162.0100  213.5700  146.1060 C   0  0  0  0  0  0  0  0  0  0  0  0
  159.7680  213.3460  146.9930 C   0  0  0  0  0  3  0  0  0  0  0  0
  161.5890  213.9590  148.4600 C   0  0  0  0  0  3  0  0  0  0  0  0
  160.2300  213.6830  148.2750 C   0  0  0  0  0  0  0  0  0  0  0  0
  160.6540  213.2880  145.9140 C   0  0  0  0  0  3  0  0  0  0  0  0
  162.9590  213.4930  144.9600 C   0  0  0  0  0  2  0  0  0  0  0  0
  162.2710  212.8900  143.7500 C   0  0  0  0  0  1  0  0  0  0  0  0
  161.5990  210.3350  152.0970 C   0  0  2  0  0  3  0  0  0  0  0  0
  162.2870  210.0940  150.7650 C   0  0  0  0  0  1  0  0  0  0  0  0
  160.9460  208.7710  152.7590 S   0  0  0  0  0  0  0  0  0  0  0  0
  161.8010  207.7810  151.4980 C   0  0  1  0  0  3  0  0  0  0  0  0
  162.8130  207.0570  152.0980 F   0  0  0  0  0  0  0  0  0  0  0  0
  160.8180  206.8190  150.8300 C   0  0  0  0  0  2  0  0  0  0  0  0
  161.4510  205.6210  150.2580 N   0  0  0  0  0  0  0  0  0  0  0  0
  160.8460  204.4050  152.2830 C   0  0  0  0  0  2  0  0  0  0  0  0
  160.8210  204.4020  150.7640 C   0  0  0  0  0  3  0  0  0  0  0  0
  161.8460  203.5720  151.5150 C   0  0  0  0  0  2  0  0  0  0  0  0
  161.3440  205.6510  148.5170 S   0  0  0  0  0  0  0  0  0  0  0  0
  160.0050  206.1850  148.0870 O   0  0  0  0  0  0  0  0  0  0  0  0
  162.4300  206.5280  147.9570 O   0  0  0  0  0  0  0  0  0  0  0  0
  161.5440  203.9970  147.8820 C   0  0  1  0  0  3  0  0  0  0  0  0
  161.2350  202.5990  145.8170 C   0  0  0  0  0  3  0  0  0  0  0  0
  160.7960  201.6490  148.0050 C   0  0  0  0  0  2  0  0  0  0  0  0
  160.9260  201.5870  146.5590 N   0  0  0  0  0  0  0  0  0  0  0  0
  160.5120  203.0650  148.4960 C   0  0  0  0  0  2  0  0  0  0  0  0
  161.3820  203.9960  146.3660 C   0  0  0  0  0  2  0  0  0  0  0  0
  1 14  1  0  0  0  0
  2  6  1  0  0  0  0
  2  7  1  0  0  0  0
  3 12  1  0  0  0  0
  4 25  1  0  0  0  0
  4 11  2  0  0  0  0
  5  8  1  0  0  0  0
  5  9  1  0  0  0  0
  8 10  1  0  0  0  0
  9  2  2  0  0  0  0
 10  6  2  0  0  0  0
 12 11  1  0  0  0  0
 12  8  2  0  0  0  0
 13  3  2  0  0  0  0
 13 16  1  0  0  0  0
 14 15  2  0  0  0  0
 14  3  1  0  0  0  0
 15  4  1  0  0  0  0
 16  5  2  0  0  0  0
 17 20  1  0  0  0  0
 18 17  2  0  0  0  0
 19 21  1  0  0  0  0
 21 20  2  0  0  0  0
 21  1  1  0  0  0  0
 22 18  1  0  0  0  0
 22 19  2  0  0  0  0
 23 18  1  0  0  0  0
 24 23  1  0  0  0  0
 25 26  1  6  0  0  0
 25 27  1  0  0  0  0
 28 29  1  1  0  0  0
 28 27  1  0  0  0  0
 30 28  1  0  0  0  0
 31 33  1  0  0  0  0
 31 30  1  0  0  0  0
 33 34  1  0  0  0  0
 33 32  1  0  0  0  0
 34 32  1  0  0  0  0
 35 31  1  0  0  0  0
 36 35  2  0  0  0  0
 37 35  2  0  0  0  0
 38 42  1  0  0  0  0
 38 35  1  1  0  0  0
 39 43  1  0  0  0  0
 39 41  2  0  0  0  0
 40 42  1  0  0  0  0
 41 40  1  0  0  0  0
 43 38  1  0  0  0  0
M  END
>  <MODEL>
4

>  <REMARK>
 VINA RESULT:      -7.2      3.285      9.861
  Name = 
  10 active torsions:
  status: ('A' for Active; 'I' for Inactive)
    1  A    between atoms: N_1  and  C_35
    2  A    between atoms: C_2  and  S_6
    3  A    between atoms: C_2  and  C_13
    4  A    between atoms: C_3  and  N_4
    5  A    between atoms: C_3  and  C_12
    6  A    between atoms: N_4  and  S_14
    7  A    between atoms: N_4  and  C_15
    8  A    between atoms: S_6  and  C_12
    9  A    between atoms: C_11  and  S_14
   10  A    between atoms: C_19  and  C_25
                            x       y       z     vdW  Elec       q    Type
                         _______ _______ _______ _____ _____    ______ ____

>  <TORSDO>
F 10

$$$$
=
 OpenBabel11062410183D

 43 48  0  0  1  0  0  0  0  0999 V2000
  161.8100  211.7520  149.3080 N   0  0  0  0  0  2  0  0  0  0  0  0
  160.9690  207.4260  155.2720 C   0  0  0  0  0  0  0  0  0  0  0  0
  161.5060  209.9660  150.9610 C   0  0  0  0  0  0  0  0  0  0  0  0
  161.4100  208.1030  148.9300 C   0  0  0  0  0  0  0  0  0  0  0  0
  161.2620  209.1590  153.6080 C   0  0  0  0  0  0  0  0  0  0  0  0
  160.9180  206.4600  154.2630 C   0  0  0  0  0  3  0  0  0  0  0  0
  160.8530  207.0550  156.5700 F   0  0  0  0  0  0  0  0  0  0  0  0
  161.2110  208.1880  152.5820 C   0  0  0  0  0  0  0  0  0  0  0  0
  161.1420  208.7750  154.9460 C   0  0  0  0  0  3  0  0  0  0  0  0
  161.0370  206.8380  152.9230 C   0  0  0  0  0  3  0  0  0  0  0  0
  161.2900  207.6980  150.2240 N   0  0  0  0  0  0  0  0  0  0  0  0
  161.3340  208.5970  151.2450 C   0  0  0  0  0  0  0  0  0  0  0  0
  161.5520  210.8750  151.9730 N   0  0  0  0  0  0  0  0  0  0  0  0
  161.6310  210.3620  149.6240 C   0  0  0  0  0  0  0  0  0  0  0  0
  161.5790  209.4200  148.6440 N   0  0  0  0  0  0  0  0  0  0  0  0
  161.4350  210.5030  153.2760 C   0  0  0  0  0  3  0  0  0  0  0  0
  163.4560  213.1350  146.2630 C   0  0  0  0  0  3  0  0  0  0  0  0
  162.3540  213.4770  145.4710 C   0  0  0  0  0  0  0  0  0  0  0  0
  160.8660  212.6760  147.2050 C   0  0  0  0  0  3  0  0  0  0  0  0
  163.2600  212.5680  147.5260 C   0  0  0  0  0  3  0  0  0  0  0  0
  161.9660  212.3360  148.0070 C   0  0  0  0  0  0  0  0  0  0  0  0
  161.0590  213.2430  145.9420 C   0  0  0  0  0  3  0  0  0  0  0  0
  162.5620  214.0650  144.1180 C   0  0  0  0  0  2  0  0  0  0  0  0
  162.6450  212.9660  143.0760 C   0  0  0  0  0  1  0  0  0  0  0  0
  161.3710  207.1110  147.8180 C   0  0  2  0  0  3  0  0  0  0  0  0
  160.1020  206.2800  147.8900 C   0  0  0  0  0  1  0  0  0  0  0  0
  162.8330  206.0310  147.8850 S   0  0  0  0  0  0  0  0  0  0  0  0
  162.2620  205.0270  146.4830 C   0  0  1  0  0  3  0  0  0  0  0  0
  163.0810  205.2570  145.3940 F   0  0  0  0  0  0  0  0  0  0  0  0
  162.3090  203.5420  146.8470 C   0  0  0  0  0  2  0  0  0  0  0  0
  161.0240  202.8460  146.6820 N   0  0  0  0  0  0  0  0  0  0  0  0
  159.8900  202.7710  144.5250 C   0  0  0  0  0  2  0  0  0  0  0  0
  160.9660  202.1490  145.3980 C   0  0  0  0  0  3  0  0  0  0  0  0
  159.6160  201.4710  145.2450 C   0  0  0  0  0  2  0  0  0  0  0  0
  160.7830  201.7020  147.9770 S   0  0  0  0  0  0  0  0  0  0  0  0
  159.3270  201.3400  148.0880 O   0  0  0  0  0  0  0  0  0  0  0  0
  161.5820  200.4560  147.7090 O   0  0  0  0  0  0  0  0  0  0  0  0
  161.3250  202.4230  149.5150 C   0  0  1  0  0  3  0  0  0  0  0  0
  161.2800  202.0870  152.0040 C   0  0  0  0  0  3  0  0  0  0  0  0
  161.1110  204.3220  151.0760 C   0  0  0  0  0  2  0  0  0  0  0  0
  161.2170  203.3680  152.1680 N   0  0  0  0  0  0  0  0  0  0  0  0
  160.5360  203.6880  149.8130 C   0  0  0  0  0  2  0  0  0  0  0  0
  161.1300  201.4300  150.6550 C   0  0  0  0  0  2  0  0  0  0  0  0
  1 14  1  0  0  0  0
  2  7  1  0  0  0  0
  3 12  2  0  0  0  0
  3 13  1  0  0  0  0
  4 11  2  0  0  0  0
  5  9  2  0  0  0  0
  6  2  2  0  0  0  0
  8 10  2  0  0  0  0
  8  5  1  0  0  0  0
  9  2  1  0  0  0  0
 10  6  1  0  0  0  0
 11 12  1  0  0  0  0
 12  8  1  0  0  0  0
 13 16  2  0  0  0  0
 14  3  1  0  0  0  0
 15  4  1  0  0  0  0
 15 14  2  0  0  0  0
 16  5  1  0  0  0  0
 17 20  1  0  0  0  0
 18 22  1  0  0  0  0
 18 17  2  0  0  0  0
 19 21  1  0  0  0  0
 20 21  2  0  0  0  0
 21  1  1  0  0  0  0
 22 19  2  0  0  0  0
 23 18  1  0  0  0  0
 24 23  1  0  0  0  0
 25 27  1  0  0  0  0
 25 26  1  1  0  0  0
 25  4  1  0  0  0  0
 28 29  1  6  0  0  0
 28 30  1  0  0  0  0
 28 27  1  0  0  0  0
 31 30  1  0  0  0  0
 31 35  1  0  0  0  0
 32 34  1  0  0  0  0
 32 33  1  0  0  0  0
 33 31  1  0  0  0  0
 34 33  1  0  0  0  0
 35 36  2  0  0  0  0
 37 35  2  0  0  0  0
 38 35  1  6  0  0  0
 38 42  1  0  0  0  0
 38 43  1  0  0  0  0
 39 41  2  0  0  0  0
 40 41  1  0  0  0  0
 42 40  1  0  0  0  0
 43 39  1  0  0  0  0
M  END
>  <MODEL>
5

>  <REMARK>
 VINA RESULT:      -7.0      3.759      9.502
  Name = 
  10 active torsions:
  status: ('A' for Active; 'I' for Inactive)
    1  A    between atoms: N_1  and  C_35
    2  A    between atoms: C_2  and  S_6
    3  A    between atoms: C_2  and  C_13
    4  A    between atoms: C_3  and  N_4
    5  A    between atoms: C_3  and  C_12
    6  A    between atoms: N_4  and  S_14
    7  A    between atoms: N_4  and  C_15
    8  A    between atoms: S_6  and  C_12
    9  A    between atoms: C_11  and  S_14
   10  A    between atoms: C_19  and  C_25
                            x       y       z     vdW  Elec       q    Type
                         _______ _______ _______ _____ _____    ______ ____

>  <TORSDO>
F 10

$$$$
=
 OpenBabel11062410183D

 43 48  0  0  1  0  0  0  0  0999 V2000
  161.2550  206.4410  148.8900 N   0  0  0  0  0  2  0  0  0  0  0  0
  161.3530  209.5440  155.6240 C   0  0  0  0  0  0  0  0  0  0  0  0
  161.3720  207.8730  150.8780 C   0  0  0  0  0  0  0  0  0  0  0  0
  161.8290  210.0660  149.2700 C   0  0  0  0  0  0  0  0  0  0  0  0
  161.2510  208.1660  153.6370 C   0  0  0  0  0  0  0  0  0  0  0  0
  161.5840  210.6730  154.8340 C   0  0  0  0  0  3  0  0  0  0  0  0
  161.2890  209.6640  156.9720 F   0  0  0  0  0  0  0  0  0  0  0  0
  161.4850  209.3030  152.8320 C   0  0  0  0  0  0  0  0  0  0  0  0
  161.1850  208.2910  155.0270 C   0  0  0  0  0  3  0  0  0  0  0  0
  161.6510  210.5550  153.4420 C   0  0  0  0  0  3  0  0  0  0  0  0
  161.7700  210.2190  150.6220 N   0  0  0  0  0  0  0  0  0  0  0  0
  161.5460  209.1540  151.4370 C   0  0  0  0  0  0  0  0  0  0  0  0
  161.1470  206.7980  151.6820 N   0  0  0  0  0  0  0  0  0  0  0  0
  161.4320  207.7350  149.4860 C   0  0  0  0  0  0  0  0  0  0  0  0
  161.6590  208.8360  148.7190 N   0  0  0  0  0  0  0  0  0  0  0  0
  161.0840  206.9180  153.0350 C   0  0  0  0  0  3  0  0  0  0  0  0
  162.4960  205.2280  145.5920 C   0  0  0  0  0  3  0  0  0  0  0  0
  161.3870  205.4510  144.7670 C   0  0  0  0  0  0  0  0  0  0  0  0
  160.1630  206.3300  146.6620 C   0  0  0  0  0  3  0  0  0  0  0  0
  162.4370  205.5610  146.9480 C   0  0  0  0  0  3  0  0  0  0  0  0
  161.2730  206.1150  147.4930 C   0  0  0  0  0  0  0  0  0  0  0  0
  160.2190  205.9980  145.3050 C   0  0  0  0  0  3  0  0  0  0  0  0
  161.4430  205.0800  143.3250 C   0  0  0  0  0  2  0  0  0  0  0  0
  161.9430  206.2530  142.5030 C   0  0  0  0  0  1  0  0  0  0  0  0
  162.0640  211.2410  148.3830 C   0  0  2  0  0  3  0  0  0  0  0  0
  163.5500  211.5310  148.2660 C   0  0  0  0  0  1  0  0  0  0  0  0
  161.1880  212.7000  149.0240 S   0  0  0  0  0  0  0  0  0  0  0  0
  160.9720  213.4060  147.3630 C   0  0  1  0  0  3  0  0  0  0  0  0
  162.1680  213.9570  146.9440 F   0  0  0  0  0  0  0  0  0  0  0  0
  160.5470  212.3130  146.3800 C   0  0  0  0  0  2  0  0  0  0  0  0
  159.3780  212.6690  145.5620 N   0  0  0  0  0  0  0  0  0  0  0  0
  157.5530  212.6040  147.1770 C   0  0  0  0  0  2  0  0  0  0  0  0
  158.4380  213.4930  146.3210 C   0  0  0  0  0  3  0  0  0  0  0  0
  157.0180  213.1790  145.8860 C   0  0  0  0  0  2  0  0  0  0  0  0
  159.8790  213.5280  144.1290 S   0  0  0  0  0  0  0  0  0  0  0  0
  158.7360  214.3380  143.5800 O   0  0  0  0  0  0  0  0  0  0  0  0
  161.0220  214.4480  144.4610 O   0  0  0  0  0  0  0  0  0  0  0  0
  160.4120  212.3580  142.8920 C   0  0  1  0  0  3  0  0  0  0  0  0
  162.3620  211.7450  141.4320 C   0  0  0  0  0  3  0  0  0  0  0  0
  160.0970  211.5200  140.5930 C   0  0  0  0  0  2  0  0  0  0  0  0
  161.5410  211.3750  140.5050 N   0  0  0  0  0  0  0  0  0  0  0  0
  159.6880  212.6100  141.5790 C   0  0  0  0  0  2  0  0  0  0  0  0
  161.9140  212.4830  142.6690 C   0  0  0  0  0  2  0  0  0  0  0  0
  1 14  1  0  0  0  0
  2  7  1  0  0  0  0
  3 12  2  0  0  0  0
  3 13  1  0  0  0  0
  4 11  2  0  0  0  0
  5  9  2  0  0  0  0
  6  2  2  0  0  0  0
  8 10  2  0  0  0  0
  8  5  1  0  0  0  0
  9  2  1  0  0  0  0
 10  6  1  0  0  0  0
 11 12  1  0  0  0  0
 12  8  1  0  0  0  0
 13 16  2  0  0  0  0
 14  3  1  0  0  0  0
 15  4  1  0  0  0  0
 15 14  2  0  0  0  0
 16  5  1  0  0  0  0
 17 20  1  0  0  0  0
 18 22  1  0  0  0  0
 18 17  2  0  0  0  0
 19 21  1  0  0  0  0
 20 21  2  0  0  0  0
 21  1  1  0  0  0  0
 22 19  2  0  0  0  0
 23 18  1  0  0  0  0
 24 23  1  0  0  0  0
 25 26  1  1  0  0  0
 25 27  1  0  0  0  0
 25  4  1  0  0  0  0
 28 29  1  6  0  0  0
 28 27  1  0  0  0  0
 30 28  1  0  0  0  0
 31 33  1  0  0  0  0
 31 30  1  0  0  0  0
 33 32  1  0  0  0  0
 34 33  1  0  0  0  0
 34 32  1  0  0  0  0
 35 37  2  0  0  0  0
 35 31  1  0  0  0  0
 36 35  2  0  0  0  0
 38 35  1  1  0  0  0
 39 43  1  0  0  0  0
 40 42  1  0  0  0  0
 41 40  1  0  0  0  0
 41 39  2  0  0  0  0
 42 38  1  0  0  0  0
 43 38  1  0  0  0  0
M  END
>  <MODEL>
6

>  <REMARK>
 VINA RESULT:      -7.0      3.350      7.114
  Name = 
  10 active torsions:
  status: ('A' for Active; 'I' for Inactive)
    1  A    between atoms: N_1  and  C_35
    2  A    between atoms: C_2  and  S_6
    3  A    between atoms: C_2  and  C_13
    4  A    between atoms: C_3  and  N_4
    5  A    between atoms: C_3  and  C_12
    6  A    between atoms: N_4  and  S_14
    7  A    between atoms: N_4  and  C_15
    8  A    between atoms: S_6  and  C_12
    9  A    between atoms: C_11  and  S_14
   10  A    between atoms: C_19  and  C_25
                            x       y       z     vdW  Elec       q    Type
                         _______ _______ _______ _____ _____    ______ ____

>  <TORSDO>
F 10

$$$$
=
 OpenBabel11062410183D

 43 48  0  0  1  0  0  0  0  0999 V2000
  161.5250  208.3560  148.0400 N   0  0  0  0  0  2  0  0  0  0  0  0
  161.1970  200.9530  148.3260 C   0  0  0  0  0  0  0  0  0  0  0  0
  161.4130  205.9720  148.6080 C   0  0  0  0  0  0  0  0  0  0  0  0
  161.3850  206.6140  151.2900 C   0  0  0  0  0  0  0  0  0  0  0  0
  161.3130  203.3140  147.8080 C   0  0  0  0  0  0  0  0  0  0  0  0
  161.1800  201.2490  149.6910 C   0  0  0  0  0  3  0  0  0  0  0  0
  161.1480  199.6630  147.9130 F   0  0  0  0  0  0  0  0  0  0  0  0
  161.2960  203.6210  149.1870 C   0  0  0  0  0  0  0  0  0  0  0  0
  161.2630  201.9840  147.3840 C   0  0  0  0  0  3  0  0  0  0  0  0
  161.2300  202.5780  150.1220 C   0  0  0  0  0  3  0  0  0  0  0  0
  161.3340  205.3090  150.9070 N   0  0  0  0  0  0  0  0  0  0  0  0
  161.3470  204.9650  149.5910 C   0  0  0  0  0  0  0  0  0  0  0  0
  161.4270  205.6420  147.2880 N   0  0  0  0  0  0  0  0  0  0  0  0
  161.4610  207.3090  149.0210 C   0  0  0  0  0  0  0  0  0  0  0  0
  161.4460  207.5950  150.3510 N   0  0  0  0  0  0  0  0  0  0  0  0
  161.3780  204.3480  146.8730 C   0  0  0  0  0  3  0  0  0  0  0  0
  160.8420  211.9970  147.6350 C   0  0  0  0  0  3  0  0  0  0  0  0
  161.6020  212.5500  148.6720 C   0  0  0  0  0  0  0  0  0  0  0  0
  162.3230  210.3300  149.3170 C   0  0  0  0  0  3  0  0  0  0  0  0
  160.8290  210.6130  147.4390 C   0  0  0  0  0  3  0  0  0  0  0  0
  161.5680  209.7700  148.2760 C   0  0  0  0  0  0  0  0  0  0  0  0
  162.3390  211.7140  149.5160 C   0  0  0  0  0  3  0  0  0  0  0  0
  161.6040  214.0230  148.8920 C   0  0  0  0  0  2  0  0  0  0  0  0
  160.3150  214.4530  149.5680 C   0  0  0  0  0  1  0  0  0  0  0  0
  161.3600  206.9820  152.7340 C   0  0  2  0  0  3  0  0  0  0  0  0
  160.7200  205.8780  153.5550 C   0  0  0  0  0  1  0  0  0  0  0  0
  160.4590  208.5440  152.9710 S   0  0  0  0  0  0  0  0  0  0  0  0
  161.9540  209.4250  153.5100 C   0  0  1  0  0  3  0  0  0  0  0  0
  162.3800  210.2610  152.4960 F   0  0  0  0  0  0  0  0  0  0  0  0
  161.6530  210.2560  154.7580 C   0  0  0  0  0  2  0  0  0  0  0  0
  160.3640  209.9340  155.3910 N   0  0  0  0  0  0  0  0  0  0  0  0
  161.4370  207.9810  156.3810 C   0  0  0  0  0  2  0  0  0  0  0  0
  160.5610  209.1950  156.6370 C   0  0  0  0  0  3  0  0  0  0  0  0
  159.9410  207.8150  156.5170 C   0  0  0  0  0  2  0  0  0  0  0  0
  159.4670  211.3940  155.7170 S   0  0  0  0  0  0  0  0  0  0  0  0
  158.5370  211.1860  156.8810 O   0  0  0  0  0  0  0  0  0  0  0  0
  160.4190  212.5140  156.0390 O   0  0  0  0  0  0  0  0  0  0  0  0
  158.5110  211.8370  154.2780 C   0  0  1  0  0  3  0  0  0  0  0  0
  158.7140  212.7710  151.9540 C   0  0  0  0  0  3  0  0  0  0  0  0
  156.8070  213.3510  153.3360 C   0  0  0  0  0  2  0  0  0  0  0  0
  157.5730  213.3600  152.1010 N   0  0  0  0  0  0  0  0  0  0  0  0
  157.6830  213.0810  154.5550 C   0  0  0  0  0  2  0  0  0  0  0  0
  159.4370  212.1020  153.0960 C   0  0  0  0  0  2  0  0  0  0  0  0
  1 21  1  0  0  0  0
  1 14  1  0  0  0  0
  2  6  1  0  0  0  0
  3 14  1  0  0  0  0
  3 12  1  0  0  0  0
  4 25  1  0  0  0  0
  5  8  1  0  0  0  0
  6 10  2  0  0  0  0
  7  2  1  0  0  0  0
  8 12  2  0  0  0  0
  8 10  1  0  0  0  0
  9  5  1  0  0  0  0
  9  2  2  0  0  0  0
 11  4  2  0  0  0  0
 12 11  1  0  0  0  0
 13  3  2  0  0  0  0
 14 15  2  0  0  0  0
 15  4  1  0  0  0  0
 16 13  1  0  0  0  0
 16  5  2  0  0  0  0
 17 18  1  0  0  0  0
 18 23  1  0  0  0  0
 18 22  2  0  0  0  0
 19 22  1  0  0  0  0
 20 17  2  0  0  0  0
 20 21  1  0  0  0  0
 21 19  2  0  0  0  0
 23 24  1  0  0  0  0
 25 27  1  0  0  0  0
 25 26  1  1  0  0  0
 27 28  1  0  0  0  0
 28 29  1  6  0  0  0
 28 30  1  0  0  0  0
 30 31  1  0  0  0  0
 31 35  1  0  0  0  0
 31 33  1  0  0  0  0
 32 34  1  0  0  0  0
 32 33  1  0  0  0  0
 34 33  1  0  0  0  0
 35 37  2  0  0  0  0
 35 36  2  0  0  0  0
 38 42  1  0  0  0  0
 38 35  1  1  0  0  0
 39 41  2  0  0  0  0
 39 43  1  0  0  0  0
 40 42  1  0  0  0  0
 41 40  1  0  0  0  0
 43 38  1  0  0  0  0
M  END
>  <MODEL>
7

>  <REMARK>
 VINA RESULT:      -6.6      2.968      6.396
  Name = 
  10 active torsions:
  status: ('A' for Active; 'I' for Inactive)
    1  A    between atoms: N_1  and  C_35
    2  A    between atoms: C_2  and  S_6
    3  A    between atoms: C_2  and  C_13
    4  A    between atoms: C_3  and  N_4
    5  A    between atoms: C_3  and  C_12
    6  A    between atoms: N_4  and  S_14
    7  A    between atoms: N_4  and  C_15
    8  A    between atoms: S_6  and  C_12
    9  A    between atoms: C_11  and  S_14
   10  A    between atoms: C_19  and  C_25
                            x       y       z     vdW  Elec       q    Type
                         _______ _______ _______ _____ _____    ______ ____

>  <TORSDO>
F 10

$$$$
=
 OpenBabel11062410183D

 43 48  0  0  1  0  0  0  0  0999 V2000
  161.2820  206.5470  148.8610 N   0  0  0  0  0  2  0  0  0  0  0  0
  161.3500  209.8180  155.5160 C   0  0  0  0  0  0  0  0  0  0  0  0
  161.4030  208.0260  150.8140 C   0  0  0  0  0  0  0  0  0  0  0  0
  161.9400  210.1660  149.1590 C   0  0  0  0  0  0  0  0  0  0  0  0
  161.2450  208.3920  153.5630 C   0  0  0  0  0  0  0  0  0  0  0  0
  161.6220  210.9210  154.7010 C   0  0  0  0  0  3  0  0  0  0  0  0
  161.2670  209.9740  156.8590 F   0  0  0  0  0  0  0  0  0  0  0  0
  161.5200  209.5020  152.7330 C   0  0  0  0  0  0  0  0  0  0  0  0
  161.1600  208.5550  154.9480 C   0  0  0  0  0  3  0  0  0  0  0  0
  161.7080  210.7650  153.3140 C   0  0  0  0  0  3  0  0  0  0  0  0
  161.8640  210.3550  150.5050 N   0  0  0  0  0  0  0  0  0  0  0  0
  161.6000  209.3170  151.3430 C   0  0  0  0  0  0  0  0  0  0  0  0
  161.1390  206.9780  151.6410 N   0  0  0  0  0  0  0  0  0  0  0  0
  161.4820  207.8520  149.4260 C   0  0  0  0  0  0  0  0  0  0  0  0
  161.7490  208.9260  148.6360 N   0  0  0  0  0  0  0  0  0  0  0  0
  161.0570  207.1340  152.9900 C   0  0  0  0  0  3  0  0  0  0  0  0
  162.5040  205.1290  145.6380 C   0  0  0  0  0  3  0  0  0  0  0  0
  161.4540  205.4430  144.7680 C   0  0  0  0  0  0  0  0  0  0  0  0
  160.2620  206.4920  146.5970 C   0  0  0  0  0  3  0  0  0  0  0  0
  162.4330  205.5010  146.9830 C   0  0  0  0  0  3  0  0  0  0  0  0
  161.3150  206.1850  147.4730 C   0  0  0  0  0  0  0  0  0  0  0  0
  160.3310  206.1210  145.2510 C   0  0  0  0  0  3  0  0  0  0  0  0
  161.5210  205.0320  143.3380 C   0  0  0  0  0  2  0  0  0  0  0  0
  161.6710  206.2520  142.4500 C   0  0  0  0  0  1  0  0  0  0  0  0
  162.2200  211.3110  148.2470 C   0  0  2  0  0  3  0  0  0  0  0  0
  163.6190  211.8510  148.4810 C   0  0  0  0  0  1  0  0  0  0  0  0
  160.9890  212.6280  148.4940 S   0  0  0  0  0  0  0  0  0  0  0  0
  160.3640  212.4790  146.7940 C   0  0  1  0  0  3  0  0  0  0  0  0
  159.0590  212.0250  146.8270 F   0  0  0  0  0  0  0  0  0  0  0  0
  160.4080  213.8410  146.0980 C   0  0  0  0  0  2  0  0  0  0  0  0
  160.9540  213.7950  144.7320 N   0  0  0  0  0  0  0  0  0  0  0  0
  163.3720  213.9480  145.0000 C   0  0  0  0  0  2  0  0  0  0  0  0
  162.2000  213.0320  144.6910 C   0  0  0  0  0  3  0  0  0  0  0  0
  163.0810  213.5530  143.5700 C   0  0  0  0  0  2  0  0  0  0  0  0
  159.7970  213.0780  143.6410 S   0  0  0  0  0  0  0  0  0  0  0  0
  160.0150  211.5920  143.5530 O   0  0  0  0  0  0  0  0  0  0  0  0
  158.4000  213.3440  144.1340 O   0  0  0  0  0  0  0  0  0  0  0  0
  159.9890  213.7930  142.0190 C   0  0  1  0  0  3  0  0  0  0  0  0
  158.7060  214.4530  139.9620 C   0  0  0  0  0  3  0  0  0  0  0  0
  160.9350  213.5200  139.7570 C   0  0  0  0  0  2  0  0  0  0  0  0
  159.7210  214.1240  139.2330 N   0  0  0  0  0  0  0  0  0  0  0  0
  160.7000  212.8210  141.0920 C   0  0  0  0  0  2  0  0  0  0  0  0
  158.6230  214.1370  141.4350 C   0  0  0  0  0  2  0  0  0  0  0  0
  1 14  1  0  0  0  0
  2  7  1  0  0  0  0
  3 12  2  0  0  0  0
  3 13  1  0  0  0  0
  4 11  2  0  0  0  0
  5  9  2  0  0  0  0
  6  2  2  0  0  0  0
  8 10  2  0  0  0  0
  8  5  1  0  0  0  0
  9  2  1  0  0  0  0
 10  6  1  0  0  0  0
 11 12  1  0  0  0  0
 12  8  1  0  0  0  0
 13 16  2  0  0  0  0
 14  3  1  0  0  0  0
 15  4  1  0  0  0  0
 15 14  2  0  0  0  0
 16  5  1  0  0  0  0
 17 20  1  0  0  0  0
 18 22  1  0  0  0  0
 18 17  2  0  0  0  0
 19 21  1  0  0  0  0
 20 21  2  0  0  0  0
 21  1  1  0  0  0  0
 22 19  2  0  0  0  0
 23 18  1  0  0  0  0
 24 23  1  0  0  0  0
 25 26  1  1  0  0  0
 25 27  1  0  0  0  0
 25  4  1  0  0  0  0
 28 29  1  1  0  0  0
 28 27  1  0  0  0  0
 30 28  1  0  0  0  0
 31 30  1  0  0  0  0
 33 31  1  0  0  0  0
 33 32  1  0  0  0  0
 34 33  1  0  0  0  0
 34 32  1  0  0  0  0
 35 37  2  0  0  0  0
 35 31  1  0  0  0  0
 36 35  2  0  0  0  0
 38 35  1  1  0  0  0
 39 43  1  0  0  0  0
 40 42  1  0  0  0  0
 41 40  1  0  0  0  0
 41 39  2  0  0  0  0
 42 38  1  0  0  0  0
 43 38  1  0  0  0  0
M  END
>  <MODEL>
8

>  <REMARK>
 VINA RESULT:      -6.6      3.364      7.411
  Name = 
  10 active torsions:
  status: ('A' for Active; 'I' for Inactive)
    1  A    between atoms: N_1  and  C_35
    2  A    between atoms: C_2  and  S_6
    3  A    between atoms: C_2  and  C_13
    4  A    between atoms: C_3  and  N_4
    5  A    between atoms: C_3  and  C_12
    6  A    between atoms: N_4  and  S_14
    7  A    between atoms: N_4  and  C_15
    8  A    between atoms: S_6  and  C_12
    9  A    between atoms: C_11  and  S_14
   10  A    between atoms: C_19  and  C_25
                            x       y       z     vdW  Elec       q    Type
                         _______ _______ _______ _____ _____    ______ ____

>  <TORSDO>
F 10

$$$$
=
 OpenBabel11062410183D

 43 48  0  0  1  0  0  0  0  0999 V2000
  160.8000  205.0930  152.7420 N   0  0  0  0  0  2  0  0  0  0  0  0
  160.9780  200.7830  146.7100 C   0  0  0  0  0  0  0  0  0  0  0  0
  160.9490  204.0760  150.5150 C   0  0  0  0  0  0  0  0  0  0  0  0
  161.4750  206.5510  149.4200 C   0  0  0  0  0  0  0  0  0  0  0  0
  160.8330  201.8270  148.8890 C   0  0  0  0  0  0  0  0  0  0  0  0
  161.2480  202.0250  146.1280 C   0  0  0  0  0  3  0  0  0  0  0  0
  160.9170  199.6720  145.9360 F   0  0  0  0  0  0  0  0  0  0  0  0
  161.1050  203.0860  148.3080 C   0  0  0  0  0  0  0  0  0  0  0  0
  160.7710  200.6830  148.0890 C   0  0  0  0  0  3  0  0  0  0  0  0
  161.3110  203.1730  146.9230 C   0  0  0  0  0  3  0  0  0  0  0  0
  161.4220  205.4540  148.6160 N   0  0  0  0  0  0  0  0  0  0  0  0
  161.1630  204.2220  149.1300 C   0  0  0  0  0  0  0  0  0  0  0  0
  160.6900  202.8480  151.0430 N   0  0  0  0  0  0  0  0  0  0  0  0
  161.0120  205.2150  151.3270 C   0  0  0  0  0  0  0  0  0  0  0  0
  161.2730  206.4230  150.7580 N   0  0  0  0  0  0  0  0  0  0  0  0
  160.6280  201.7340  150.2660 C   0  0  0  0  0  3  0  0  0  0  0  0
  160.1820  206.9410  155.9180 C   0  0  0  0  0  3  0  0  0  0  0  0
  160.8630  208.1420  155.6900 C   0  0  0  0  0  0  0  0  0  0  0  0
  161.5230  207.3440  153.5020 C   0  0  0  0  0  3  0  0  0  0  0  0
  160.1690  205.9470  154.9360 C   0  0  0  0  0  3  0  0  0  0  0  0
  160.8370  206.1400  153.7220 C   0  0  0  0  0  0  0  0  0  0  0  0
  161.5370  208.3400  154.4820 C   0  0  0  0  0  3  0  0  0  0  0  0
  160.8910  209.1950  156.7430 C   0  0  0  0  0  2  0  0  0  0  0  0
  159.7970  210.2160  156.4910 C   0  0  0  0  0  1  0  0  0  0  0  0
  161.7690  207.8970  148.8500 C   0  0  2  0  0  3  0  0  0  0  0  0
  163.0020  207.8440  147.9650 C   0  0  0  0  0  1  0  0  0  0  0  0
  162.0050  209.1100  150.1850 S   0  0  0  0  0  0  0  0  0  0  0  0
  162.1500  210.4950  149.0170 C   0  0  1  0  0  3  0  0  0  0  0  0
  161.1650  210.3830  148.0540 F   0  0  0  0  0  0  0  0  0  0  0  0
  161.9870  211.8240  149.7560 C   0  0  0  0  0  2  0  0  0  0  0  0
  160.5960  212.1410  150.1130 N   0  0  0  0  0  0  0  0  0  0  0  0
  160.1610  211.1380  152.2920 C   0  0  0  0  0  2  0  0  0  0  0  0
  160.4720  212.4220  151.5420 C   0  0  0  0  0  3  0  0  0  0  0  0
  159.0550  212.1250  152.0000 C   0  0  0  0  0  2  0  0  0  0  0  0
  160.0330  213.5160  149.1990 S   0  0  0  0  0  0  0  0  0  0  0  0
  159.1760  214.4000  150.0620 O   0  0  0  0  0  0  0  0  0  0  0  0
  161.2100  214.3070  148.6960 O   0  0  0  0  0  0  0  0  0  0  0  0
  159.0730  212.9500  147.8060 C   0  0  1  0  0  3  0  0  0  0  0  0
  159.0500  212.8730  145.2950 C   0  0  0  0  0  3  0  0  0  0  0  0
  156.9830  213.2020  146.5200 C   0  0  0  0  0  2  0  0  0  0  0  0
  157.7640  212.9980  145.3110 N   0  0  0  0  0  0  0  0  0  0  0  0
  157.8180  213.7940  147.6520 C   0  0  0  0  0  2  0  0  0  0  0  0
  159.9010  213.0420  146.5290 C   0  0  0  0  0  2  0  0  0  0  0  0
  1 21  1  0  0  0  0
  2  9  1  0  0  0  0
  3 13  1  0  0  0  0
  3 14  1  0  0  0  0
  4 15  1  0  0  0  0
  5 16  1  0  0  0  0
  6  2  2  0  0  0  0
  6 10  1  0  0  0  0
  7  2  1  0  0  0  0
  8  5  1  0  0  0  0
  8 12  1  0  0  0  0
  9  5  2  0  0  0  0
 10  8  2  0  0  0  0
 11 12  1  0  0  0  0
 11  4  2  0  0  0  0
 12  3  2  0  0  0  0
 14  1  1  0  0  0  0
 15 14  2  0  0  0  0
 16 13  2  0  0  0  0
 18 17  1  0  0  0  0
 18 23  1  0  0  0  0
 19 21  2  0  0  0  0
 19 22  1  0  0  0  0
 20 17  2  0  0  0  0
 21 20  1  0  0  0  0
 22 18  2  0  0  0  0
 24 23  1  0  0  0  0
 25 26  1  1  0  0  0
 25  4  1  0  0  0  0
 25 27  1  0  0  0  0
 28 29  1  6  0  0  0
 28 30  1  0  0  0  0
 28 27  1  0  0  0  0
 30 31  1  0  0  0  0
 31 33  1  0  0  0  0
 33 34  1  0  0  0  0
 33 32  1  0  0  0  0
 34 32  1  0  0  0  0
 35 36  2  0  0  0  0
 35 31  1  0  0  0  0
 37 35  2  0  0  0  0
 38 35  1  1  0  0  0
 39 41  2  0  0  0  0
 39 43  1  0  0  0  0
 40 42  1  0  0  0  0
 41 40  1  0  0  0  0
 42 38  1  0  0  0  0
 43 38  1  0  0  0  0
M  END
>  <MODEL>
9

>  <REMARK>
 VINA RESULT:      -6.5      1.604      2.385
  Name = 
  10 active torsions:
  status: ('A' for Active; 'I' for Inactive)
    1  A    between atoms: N_1  and  C_35
    2  A    between atoms: C_2  and  S_6
    3  A    between atoms: C_2  and  C_13
    4  A    between atoms: C_3  and  N_4
    5  A    between atoms: C_3  and  C_12
    6  A    between atoms: N_4  and  S_14
    7  A    between atoms: N_4  and  C_15
    8  A    between atoms: S_6  and  C_12
    9  A    between atoms: C_11  and  S_14
   10  A    between atoms: C_19  and  C_25
                            x       y       z     vdW  Elec       q    Type
                         _______ _______ _______ _____ _____    ______ ____

>  <TORSDO>
F 10

$$$$
