=
 OpenBabel11062410573D

 32 37  0  0  1  0  0  0  0  0999 V2000
  159.0910  213.5200  152.2040 C   0  0  0  0  0  0  0  0  0  0  0  0
  160.2410  212.8710  147.1610 C   0  0  1  0  0  3  0  0  0  0  0  0
  163.6120  214.4530  148.3460 C   0  0  0  0  0  1  0  0  0  0  0  0
  159.4150  213.0410  144.7150 C   0  0  0  0  0  0  0  0  0  0  0  0
  159.8700  213.2480  143.3170 C   0  0  0  0  0  0  0  0  0  0  0  0
  159.2920  213.5290  149.3920 C   0  0  0  0  0  0  0  0  0  0  0  0
  160.8760  211.5030  149.5610 C   0  0  0  0  0  2  0  0  0  0  0  0
  160.7090  213.6490  140.6980 C   0  0  0  0  0  3  0  0  0  0  0  0
  159.9090  212.5940  151.5570 C   0  0  0  0  0  3  0  0  0  0  0  0
  162.1100  212.0460  148.8370 C   0  0  2  0  0  3  0  0  0  0  0  0
  161.6820  212.9750  147.6870 C   0  0  2  0  0  0  0  0  0  0  0  0
  161.7440  213.0950  145.3960 C   0  0  2  0  0  3  0  0  0  0  0  0
  159.4380  213.2440  140.9650 N   0  0  0  0  0  0  0  0  0  0  0  0
  158.3630  214.4430  151.4430 C   0  0  0  0  0  3  0  0  0  0  0  0
  160.0240  212.5810  150.1630 C   0  0  0  0  0  0  0  0  0  0  0  0
  159.0050  213.0420  142.2380 C   0  0  0  0  0  3  0  0  0  0  0  0
  158.4660  214.4450  150.0510 C   0  0  0  0  0  3  0  0  0  0  0  0
  162.3970  214.2520  147.4530 C   0  0  2  0  0  3  0  0  0  0  0  0
  162.6350  213.0910  146.5610 N   0  0  1  0  0  0  0  0  0  0  0  0
  162.2000  213.8910  144.1810 C   0  0  0  0  0  2  0  0  0  0  0  0
  159.3660  213.6300  147.9910 O   0  0  0  0  0  0  0  0  0  0  0  0
  158.2680  212.5900  144.9790 O   0  0  0  0  0  0  0  0  0  0  0  0
  161.6140  213.8620  141.7390 C   0  0  0  0  0  3  0  0  0  0  0  0
  160.3440  213.4880  145.7960 C   0  0  2  0  0  3  0  0  0  0  0  0
  161.2070  213.6570  143.0570 C   0  0  0  0  0  0  0  0  0  0  0  0
  162.2980  209.6710  148.6270 O   0  0  0  0  0  1  0  0  0  0  0  0
  162.9380  210.8740  148.3280 C   0  0  0  0  0  2  0  0  0  0  0  0
  159.0120  213.4960  153.5990 O   0  0  0  0  0  0  0  0  0  0  0  0
  157.7760  213.4730  154.3000 C   0  0  0  0  0  2  0  0  0  0  0  0
  157.4990  212.0940  154.7780 C   0  0  0  0  0  0  0  0  0  0  0  0
  156.2040  211.7220  155.1110 O   0  0  0  0  0  1  0  0  0  0  0  0
  158.4430  211.2740  154.9190 O   0  0  0  0  0  0  0  0  0  0  0  0
  1 28  1  0  0  0  0
  2 11  1  0  0  0  0
  2 21  1  1  0  0  0
  4 22  2  0  0  0  0
  4 24  1  0  0  0  0
  5  4  1  0  0  0  0
  6 17  2  0  0  0  0
  6 15  1  0  0  0  0
  7 15  1  0  0  0  0
  8 13  2  0  0  0  0
  8 23  1  0  0  0  0
  9  1  1  0  0  0  0
 10 27  1  6  0  0  0
 10  7  1  0  0  0  0
 11 10  1  0  0  0  0
 12 24  1  0  0  0  0
 12 19  1  0  0  0  0
 13 16  1  0  0  0  0
 14  1  2  0  0  0  0
 15  9  2  0  0  0  0
 16  5  2  0  0  0  0
 17 14  1  0  0  0  0
 18 11  1  0  0  0  0
 18  3  1  0  0  0  0
 19 18  1  0  0  0  0
 19 11  1  0  0  0  0
 20 12  1  0  0  0  0
 21  6  1  0  0  0  0
 23 25  2  0  0  0  0
 24  2  1  0  0  0  0
 25  5  1  0  0  0  0
 25 20  1  0  0  0  0
 27 26  1  0  0  0  0
 28 29  1  0  0  0  0
 29 30  1  0  0  0  0
 30 32  2  0  0  0  0
 30 31  1  0  0  0  0
M  END
>  <MODEL>
1

>  <REMARK>
 VINA RESULT:      -3.0      0.000      0.000
  Name = 
  4 active torsions:
  status: ('A' for Active; 'I' for Inactive)
    1  A    between atoms: C_1  and  C_10
    2  A    between atoms: C_2  and  O_24
    3  A    between atoms: C_10  and  O_24
    4  A    between atoms: C_13  and  C_14
                            x       y       z     vdW  Elec       q    Type
                         _______ _______ _______ _____ _____    ______ ____

>  <TORSDO>
F 4

$$$$
=
 OpenBabel11062410573D

 32 37  0  0  1  0  0  0  0  0999 V2000
  161.1080  201.5450  149.8540 C   0  0  0  0  0  0  0  0  0  0  0  0
  160.7750  206.1950  152.1850 C   0  0  1  0  0  3  0  0  0  0  0  0
  163.8440  206.9040  149.8730 C   0  0  0  0  0  1  0  0  0  0  0  0
  160.3760  207.4850  154.3930 C   0  0  0  0  0  0  0  0  0  0  0  0
  160.6880  208.7500  155.1050 C   0  0  0  0  0  0  0  0  0  0  0  0
  161.0370  203.7710  151.5810 C   0  0  0  0  0  0  0  0  0  0  0  0
  160.0280  205.1550  149.6560 C   0  0  0  0  0  2  0  0  0  0  0  0
  161.2760  211.1080  156.4530 C   0  0  0  0  0  3  0  0  0  0  0  0
  160.6470  202.7770  149.3900 C   0  0  0  0  0  3  0  0  0  0  0  0
  161.0480  206.2920  149.5580 C   0  0  2  0  0  3  0  0  0  0  0  0
  161.5860  206.6400  150.9580 C   0  0  2  0  0  0  0  0  0  0  0  0
  161.5790  208.3620  152.4750 C   0  0  2  0  0  3  0  0  0  0  0  0
  160.3310  210.2530  156.9300 N   0  0  0  0  0  0  0  0  0  0  0  0
  161.5230  201.4230  151.1860 C   0  0  0  0  0  3  0  0  0  0  0  0
  160.6030  203.8940  150.2310 C   0  0  0  0  0  0  0  0  0  0  0  0
  160.0270  209.0940  156.2880 C   0  0  0  0  0  3  0  0  0  0  0  0
  161.4860  202.5280  152.0380 C   0  0  0  0  0  3  0  0  0  0  0  0
  163.0320  206.8960  151.1590 C   0  0  2  0  0  3  0  0  0  0  0  0
  162.0720  208.0260  151.1360 N   0  0  1  0  0  0  0  0  0  0  0  0
  162.4170  209.3290  153.2990 C   0  0  0  0  0  2  0  0  0  0  0  0
  161.0730  204.8380  152.4980 O   0  0  0  0  0  0  0  0  0  0  0  0
  159.4500  206.7200  154.7740 O   0  0  0  0  0  0  0  0  0  0  0  0
  161.9610  210.8140  155.2720 C   0  0  0  0  0  3  0  0  0  0  0  0
  161.2790  207.1120  153.2630 C   0  0  2  0  0  3  0  0  0  0  0  0
  161.6680  209.6380  154.5820 C   0  0  0  0  0  0  0  0  0  0  0  0
  161.2090  208.0070  147.9000 O   0  0  0  0  0  1  0  0  0  0  0  0
  160.3840  207.4940  148.9010 C   0  0  0  0  0  2  0  0  0  0  0  0
  161.1370  200.4580  148.9750 O   0  0  0  0  0  0  0  0  0  0  0  0
  162.0030  200.4030  147.8490 C   0  0  0  0  0  2  0  0  0  0  0  0
  161.1980  200.2870  146.6060 C   0  0  0  0  0  0  0  0  0  0  0  0
  161.1620  199.0850  145.9120 O   0  0  0  0  0  0  0  0  0  0  0  0
  160.5790  201.2880  146.1600 O   0  0  0  0  0  1  0  0  0  0  0  0
  1 14  1  0  0  0  0
  2 21  1  1  0  0  0
  2 24  1  0  0  0  0
  3 18  1  0  0  0  0
  4 22  2  0  0  0  0
  4  5  1  0  0  0  0
  5 16  1  0  0  0  0
  6 17  1  0  0  0  0
  6 21  1  0  0  0  0
  7 15  1  0  0  0  0
  8 13  1  0  0  0  0
  9  1  2  0  0  0  0
  9 15  1  0  0  0  0
 10 27  1  1  0  0  0
 10  7  1  0  0  0  0
 10 11  1  0  0  0  0
 11 19  1  0  0  0  0
 11 18  1  0  0  0  0
 11  2  1  0  0  0  0
 12 24  1  0  0  0  0
 12 20  1  0  0  0  0
 14 17  2  0  0  0  0
 15  6  2  0  0  0  0
 16 13  2  0  0  0  0
 19 18  1  0  0  0  0
 19 12  1  0  0  0  0
 20 25  1  0  0  0  0
 23  8  2  0  0  0  0
 24  4  1  0  0  0  0
 25  5  2  0  0  0  0
 25 23  1  0  0  0  0
 26 27  1  0  0  0  0
 28  1  1  0  0  0  0
 29 28  1  0  0  0  0
 30 29  1  0  0  0  0
 31 30  2  0  0  0  0
 32 30  1  0  0  0  0
M  END
>  <MODEL>
2

>  <REMARK>
 VINA RESULT:      -2.7      7.091     11.354
  Name = 
  4 active torsions:
  status: ('A' for Active; 'I' for Inactive)
    1  A    between atoms: C_1  and  C_10
    2  A    between atoms: C_2  and  O_24
    3  A    between atoms: C_10  and  O_24
    4  A    between atoms: C_13  and  C_14
                            x       y       z     vdW  Elec       q    Type
                         _______ _______ _______ _____ _____    ______ ____

>  <TORSDO>
F 4

$$$$
=
 OpenBabel11062410573D

 32 37  0  0  1  0  0  0  0  0999 V2000
  160.2430  212.7520  143.5620 C   0  0  0  0  0  0  0  0  0  0  0  0
  160.6150  212.8580  148.7600 C   0  0  1  0  0  3  0  0  0  0  0  0
  162.3930  209.4420  148.1030 C   0  0  0  0  0  1  0  0  0  0  0  0
  159.4420  213.4010  151.0030 C   0  0  0  0  0  0  0  0  0  0  0  0
  159.4060  213.0440  152.4430 C   0  0  0  0  0  0  0  0  0  0  0  0
  159.8850  212.7990  146.3580 C   0  0  0  0  0  0  0  0  0  0  0  0
  162.3860  213.3690  146.6070 C   0  0  0  0  0  2  0  0  0  0  0  0
  159.3200  212.3760  155.1390 C   0  0  0  0  0  3  0  0  0  0  0  0
  161.3280  213.0000  144.4040 C   0  0  0  0  0  3  0  0  0  0  0  0
  162.8510  212.2210  147.5040 C   0  0  2  0  0  3  0  0  0  0  0  0
  161.7370  211.8410  148.4970 C   0  0  2  0  0  0  0  0  0  0  0  0
  161.2970  211.8560  150.7490 C   0  0  2  0  0  3  0  0  0  0  0  0
  158.6570  213.4690  154.6740 N   0  0  0  0  0  0  0  0  0  0  0  0
  158.9760  212.5390  144.1190 C   0  0  0  0  0  3  0  0  0  0  0  0
  161.1720  213.0280  145.7930 C   0  0  0  0  0  0  0  0  0  0  0  0
  158.6850  213.8160  153.3600 C   0  0  0  0  0  3  0  0  0  0  0  0
  158.8030  212.5630  145.5030 C   0  0  0  0  0  3  0  0  0  0  0  0
  161.4370  210.4160  148.7740 C   0  0  2  0  0  3  0  0  0  0  0  0
  162.1850  211.2270  149.7660 N   0  0  1  0  0  0  0  0  0  0  0  0
  160.9250  211.0310  151.9730 C   0  0  0  0  0  2  0  0  0  0  0  0
  159.6250  212.7640  147.7400 O   0  0  0  0  0  0  0  0  0  0  0  0
  158.9020  214.4530  150.5650 O   0  0  0  0  0  0  0  0  0  0  0  0
  160.0600  211.5760  154.2670 C   0  0  0  0  0  3  0  0  0  0  0  0
  160.0610  212.4030  150.0800 C   0  0  2  0  0  3  0  0  0  0  0  0
  160.1170  211.9060  152.9130 C   0  0  0  0  0  0  0  0  0  0  0  0
  164.1560  214.0340  148.3570 O   0  0  0  0  0  1  0  0  0  0  0  0
  164.1220  212.6460  148.2280 C   0  0  0  0  0  2  0  0  0  0  0  0
  160.4490  212.7300  142.1800 O   0  0  0  0  0  0  0  0  0  0  0  0
  161.6500  212.2510  141.5890 C   0  0  0  0  0  2  0  0  0  0  0  0
  161.3880  211.8480  140.1830 C   0  0  0  0  0  0  0  0  0  0  0  0
  161.3260  210.5020  139.8470 O   0  0  0  0  0  1  0  0  0  0  0  0
  161.2630  212.7240  139.2890 O   0  0  0  0  0  0  0  0  0  0  0  0
  1 14  2  0  0  0  0
  1  9  1  0  0  0  0
  2 21  1  6  0  0  0
  2 24  1  0  0  0  0
  3 18  1  0  0  0  0
  4  5  1  0  0  0  0
  5 25  2  0  0  0  0
  5 16  1  0  0  0  0
  6 21  1  0  0  0  0
  7 10  1  0  0  0  0
  9 15  2  0  0  0  0
 10 27  1  1  0  0  0
 10 11  1  0  0  0  0
 11  2  1  0  0  0  0
 11 18  1  0  0  0  0
 11 19  1  0  0  0  0
 12 20  1  0  0  0  0
 13  8  1  0  0  0  0
 14 17  1  0  0  0  0
 15  6  1  0  0  0  0
 15  7  1  0  0  0  0
 16 13  2  0  0  0  0
 17  6  2  0  0  0  0
 18 19  1  0  0  0  0
 19 12  1  0  0  0  0
 20 25  1  0  0  0  0
 22  4  2  0  0  0  0
 23  8  2  0  0  0  0
 24 12  1  0  0  0  0
 24  4  1  0  0  0  0
 25 23  1  0  0  0  0
 27 26  1  0  0  0  0
 28  1  1  0  0  0  0
 29 28  1  0  0  0  0
 30 29  1  0  0  0  0
 31 30  1  0  0  0  0
 32 30  2  0  0  0  0
M  END
>  <MODEL>
3

>  <REMARK>
 VINA RESULT:      -2.1      2.893      8.793
  Name = 
  4 active torsions:
  status: ('A' for Active; 'I' for Inactive)
    1  A    between atoms: C_1  and  C_10
    2  A    between atoms: C_2  and  O_24
    3  A    between atoms: C_10  and  O_24
    4  A    between atoms: C_13  and  C_14
                            x       y       z     vdW  Elec       q    Type
                         _______ _______ _______ _____ _____    ______ ____

>  <TORSDO>
F 4

$$$$
=
 OpenBabel11062410573D

 32 37  0  0  1  0  0  0  0  0999 V2000
  161.1360  207.1640  154.2790 C   0  0  0  0  0  0  0  0  0  0  0  0
  161.6560  204.2750  149.9720 C   0  0  1  0  0  3  0  0  0  0  0  0
  159.7740  207.3290  148.4210 C   0  0  0  0  0  1  0  0  0  0  0  0
  161.5540  201.9100  148.9280 C   0  0  0  0  0  0  0  0  0  0  0  0
  161.3000  201.1780  147.6620 C   0  0  0  0  0  0  0  0  0  0  0  0
  161.0980  205.2340  152.2250 C   0  0  0  0  0  0  0  0  0  0  0  0
  162.9690  206.5490  151.0380 C   0  0  0  0  0  2  0  0  0  0  0  0
  160.8130  199.7960  145.3000 C   0  0  0  0  0  3  0  0  0  0  0  0
  161.9800  207.2970  153.1760 C   0  0  0  0  0  3  0  0  0  0  0  0
  162.3120  206.8190  149.6840 C   0  0  2  0  0  3  0  0  0  0  0  0
  161.4210  205.6290  149.2820 C   0  0  2  0  0  0  0  0  0  0  0  0
  161.2870  203.9810  147.6910 C   0  0  2  0  0  3  0  0  0  0  0  0
  161.3350  199.1580  146.3820 N   0  0  0  0  0  0  0  0  0  0  0  0
  160.2810  206.0580  154.3600 C   0  0  0  0  0  3  0  0  0  0  0  0
  161.9770  206.3510  152.1470 C   0  0  0  0  0  0  0  0  0  0  0  0
  161.5810  199.8120  147.5480 C   0  0  0  0  0  3  0  0  0  0  0  0
  160.2640  205.1050  153.3410 C   0  0  0  0  0  3  0  0  0  0  0  0
  160.0830  205.8640  148.6900 C   0  0  2  0  0  3  0  0  0  0  0  0
  161.2140  205.4390  147.8300 N   0  0  1  0  0  0  0  0  0  0  0  0
  160.4480  203.3480  146.5890 C   0  0  0  0  0  2  0  0  0  0  0  0
  160.9840  204.2480  151.2280 O   0  0  0  0  0  0  0  0  0  0  0  0
  162.1100  201.3560  149.9150 O   0  0  0  0  0  0  0  0  0  0  0  0
  160.5210  201.1600  145.3590 C   0  0  0  0  0  3  0  0  0  0  0  0
  161.0270  203.3050  149.0130 C   0  0  2  0  0  3  0  0  0  0  0  0
  160.7690  201.8660  146.5360 C   0  0  0  0  0  0  0  0  0  0  0  0
  163.0800  208.1980  147.8870 O   0  0  0  0  0  1  0  0  0  0  0  0
  163.4010  207.0740  148.6500 C   0  0  0  0  0  2  0  0  0  0  0  0
  161.1720  208.1380  155.2820 O   0  0  0  0  0  0  0  0  0  0  0  0
  160.4900  209.3800  155.1710 C   0  0  0  0  0  2  0  0  0  0  0  0
  161.4280  210.4210  154.6760 C   0  0  0  0  0  0  0  0  0  0  0  0
  162.5900  210.7010  155.3820 O   0  0  0  0  0  1  0  0  0  0  0  0
  161.1500  211.0770  153.6390 O   0  0  0  0  0  0  0  0  0  0  0  0
  1 14  1  0  0  0  0
  1 28  1  0  0  0  0
  2 21  1  1  0  0  0
  3 18  1  0  0  0  0
  4 24  1  0  0  0  0
  4 22  2  0  0  0  0
  5  4  1  0  0  0  0
  6 17  1  0  0  0  0
  7 15  1  0  0  0  0
  8 23  2  0  0  0  0
  8 13  1  0  0  0  0
  9  1  2  0  0  0  0
 10 27  1  6  0  0  0
 10  7  1  0  0  0  0
 11 10  1  0  0  0  0
 11  2  1  0  0  0  0
 12 19  1  0  0  0  0
 12 24  1  0  0  0  0
 13 16  2  0  0  0  0
 15  6  2  0  0  0  0
 15  9  1  0  0  0  0
 16  5  1  0  0  0  0
 17 14  2  0  0  0  0
 18 11  1  0  0  0  0
 19 18  1  0  0  0  0
 19 11  1  0  0  0  0
 20 12  1  0  0  0  0
 21  6  1  0  0  0  0
 23 25  1  0  0  0  0
 24  2  1  0  0  0  0
 25 20  1  0  0  0  0
 25  5  2  0  0  0  0
 26 27  1  0  0  0  0
 29 28  1  0  0  0  0
 30 29  1  0  0  0  0
 30 31  1  0  0  0  0
 32 30  2  0  0  0  0
M  END
>  <MODEL>
4

>  <REMARK>
 VINA RESULT:      -0.2      7.302      9.405
  Name = 
  4 active torsions:
  status: ('A' for Active; 'I' for Inactive)
    1  A    between atoms: C_1  and  C_10
    2  A    between atoms: C_2  and  O_24
    3  A    between atoms: C_10  and  O_24
    4  A    between atoms: C_13  and  C_14
                            x       y       z     vdW  Elec       q    Type
                         _______ _______ _______ _____ _____    ______ ____

>  <TORSDO>
F 4

$$$$
