=
 OpenBabel11062408323D

 32 33  0  0  1  0  0  0  0  0999 V2000
  161.5480  206.4300  150.9300 C   0  0  2  0  0  3  0  0  0  0  0  0
  161.5220  205.4830  153.4140 C   0  0  1  0  0  3  0  0  0  0  0  0
  160.8000  204.5200  152.4890 C   0  0  0  0  0  2  0  0  0  0  0  0
  161.9630  205.3350  151.9480 C   0  0  1  0  0  3  0  0  0  0  0  0
  160.6220  206.6740  153.7250 C   0  0  0  0  0  2  0  0  0  0  0  0
  159.7330  207.2380  155.9450 C   0  0  0  0  0  2  0  0  0  0  0  0
  160.7880  207.1060  155.1450 C   0  0  0  0  0  3  0  0  0  0  0  0
  161.0290  205.8660  149.6490 C   0  0  0  0  0  0  0  0  0  0  0  0
  159.9500  206.2960  149.1570 O   0  0  0  0  0  0  0  0  0  0  0  0
  161.7480  204.8350  149.0290 O   0  0  0  0  0  0  0  0  0  0  0  0
  161.2330  203.9570  148.0240 C   0  0  1  0  0  3  0  0  0  0  0  0
  161.5970  204.3820  146.5930 C   0  0  1  0  0  3  0  0  0  0  0  0
  161.3100  203.3070  145.5440 C   0  0  0  0  0  1  0  0  0  0  0  0
  161.2310  205.7030  146.2470 O   0  0  0  0  0  0  0  0  0  0  0  0
  160.6140  205.7100  144.9850 C   0  0  0  0  0  1  0  0  0  0  0  0
  161.5200  202.4850  148.3100 C   0  0  0  0  0  2  0  0  0  0  0  0
  161.0600  201.8100  150.5490 O   0  0  0  0  0  1  0  0  0  0  0  0
  159.3070  201.6330  149.0810 O   0  0  0  0  0  0  0  0  0  0  0  0
  160.6210  201.9680  149.3800 C   0  0  0  0  0  0  0  0  0  0  0  0
  162.4840  207.6180  150.6940 C   0  0  0  0  0  2  0  0  0  0  0  0
  161.9940  209.3200  148.9210 C   0  0  0  0  0  1  0  0  0  0  0  0
  161.7030  208.8790  150.3490 C   0  0  2  0  0  3  0  0  0  0  0  0
  161.9900  209.9830  151.3680 C   0  0  2  0  0  3  0  0  0  0  0  0
  162.1930  209.3890  152.7680 C   0  0  0  0  0  2  0  0  0  0  0  0
  160.9730  211.1410  151.3120 C   0  0  0  0  0  2  0  0  0  0  0  0
  160.5650  211.0220  153.8030 C   0  0  1  0  0  3  0  0  0  0  0  0
  161.9900  210.4410  153.8550 C   0  0  0  0  0  2  0  0  0  0  0  0
  159.9100  211.0260  152.4030 C   0  0  1  0  0  3  0  0  0  0  0  0
  159.4480  213.2000  151.2660 C   0  0  0  0  0  1  0  0  0  0  0  0
  158.9350  212.1840  152.2680 C   0  0  0  0  0  2  0  0  0  0  0  0
  159.7230  210.5190  154.8190 O   0  0  0  0  0  0  0  0  0  0  0  0
  159.7740  211.3880  155.9220 C   0  0  0  0  0  1  0  0  0  0  0  0
  1 20  1  6  0  0  0
  2  5  1  6  0  0  0
  3  2  1  0  0  0  0
  4  1  1  6  0  0  0
  4  3  1  0  0  0  0
  4  2  1  0  0  0  0
  5  7  1  0  0  0  0
  7  6  2  0  0  0  0
  8  1  1  0  0  0  0
  9  8  2  0  0  0  0
 10  8  1  0  0  0  0
 11 16  1  1  0  0  0
 11 10  1  0  0  0  0
 12 13  1  6  0  0  0
 12 11  1  0  0  0  0
 14 12  1  0  0  0  0
 15 14  1  0  0  0  0
 16 19  1  0  0  0  0
 18 19  2  0  0  0  0
 19 17  1  0  0  0  0
 22 21  1  6  0  0  0
 22 20  1  0  0  0  0
 23 22  1  6  0  0  0
 23 24  1  0  0  0  0
 24 27  1  0  0  0  0
 25 23  1  0  0  0  0
 25 28  1  0  0  0  0
 26 27  1  0  0  0  0
 26 31  1  1  0  0  0
 28 30  1  1  0  0  0
 28 26  1  0  0  0  0
 29 30  1  0  0  0  0
 31 32  1  0  0  0  0
M  END
>  <MODEL>
1

>  <REMARK>
 VINA RESULT:      -6.6      0.000      0.000
  Name = 
  15 active torsions:
  status: ('A' for Active; 'I' for Inactive)
    1  A    between atoms: C_2  and  C_5
    2  A    between atoms: C_3  and  C_20
    3  A    between atoms: C_3  and  O_22
    4  A    between atoms: C_4  and  C_14
    5  A    between atoms: C_4  and  C_24
    6  A    between atoms: C_4  and  C_30
    7  A    between atoms: C_5  and  C_14
    8  A    between atoms: O_11  and  C_12
    9  A    between atoms: C_13  and  C_18
   10  A    between atoms: C_13  and  C_29
   11  A    between atoms: C_15  and  C_20
   12  A    between atoms: C_15  and  C_26
   13  A    between atoms: O_16  and  C_20
   14  A    between atoms: O_16  and  C_24
   15  A    between atoms: C_28  and  C_32
                            x       y       z     vdW  Elec       q    Type
                         _______ _______ _______ _____ _____    ______ ____

>  <TORSDO>
F 15

$$$$
=
 OpenBabel11062408323D

 32 33  0  0  1  0  0  0  0  0999 V2000
  161.6210  206.5160  151.0070 C   0  0  2  0  0  3  0  0  0  0  0  0
  161.5460  205.5600  153.4860 C   0  0  1  0  0  3  0  0  0  0  0  0
  160.9050  204.5670  152.5330 C   0  0  0  0  0  2  0  0  0  0  0  0
  162.0480  205.4380  152.0380 C   0  0  1  0  0  3  0  0  0  0  0  0
  160.5790  206.7060  153.7650 C   0  0  0  0  0  2  0  0  0  0  0  0
  159.7300  207.1200  156.0330 C   0  0  0  0  0  2  0  0  0  0  0  0
  160.7350  207.2010  155.1660 C   0  0  0  0  0  3  0  0  0  0  0  0
  161.2000  205.9350  149.6980 C   0  0  0  0  0  0  0  0  0  0  0  0
  160.1120  206.2890  149.1670 O   0  0  0  0  0  0  0  0  0  0  0  0
  162.0210  204.9720  149.0970 O   0  0  0  0  0  0  0  0  0  0  0  0
  161.6730  204.1900  147.9490 C   0  0  1  0  0  3  0  0  0  0  0  0
  160.7680  202.9930  148.2730 C   0  0  1  0  0  3  0  0  0  0  0  0
  160.9380  201.8170  147.3100 C   0  0  0  0  0  1  0  0  0  0  0  0
  160.6730  202.6640  149.6460 O   0  0  0  0  0  0  0  0  0  0  0  0
  160.8520  201.2820  149.8170 C   0  0  0  0  0  1  0  0  0  0  0  0
  161.1680  205.0330  146.7810 C   0  0  0  0  0  2  0  0  0  0  0  0
  163.3160  204.7760  145.7790 O   0  0  0  0  0  1  0  0  0  0  0  0
  161.5580  204.9690  144.3190 O   0  0  0  0  0  0  0  0  0  0  0  0
  162.0760  204.9090  145.6060 C   0  0  0  0  0  0  0  0  0  0  0  0
  162.4970  207.7590  150.8260 C   0  0  0  0  0  2  0  0  0  0  0  0
  161.9800  209.3890  148.9930 C   0  0  0  0  0  1  0  0  0  0  0  0
  161.6640  208.9690  150.4230 C   0  0  2  0  0  3  0  0  0  0  0  0
  161.8620  210.1120  151.4200 C   0  0  2  0  0  3  0  0  0  0  0  0
  162.2070  209.5630  152.8110 C   0  0  0  0  0  2  0  0  0  0  0  0
  160.7070  211.1340  151.4100 C   0  0  0  0  0  2  0  0  0  0  0  0
  160.4420  210.9930  153.9190 C   0  0  1  0  0  3  0  0  0  0  0  0
  161.9300  210.5940  153.9020 C   0  0  0  0  0  2  0  0  0  0  0  0
  159.7230  210.9000  152.5540 C   0  0  1  0  0  3  0  0  0  0  0  0
  159.1400  213.3220  152.7280 C   0  0  0  0  0  1  0  0  0  0  0  0
  158.6060  211.9270  152.4640 C   0  0  0  0  0  2  0  0  0  0  0  0
  159.7210  210.4010  154.9790 O   0  0  0  0  0  0  0  0  0  0  0  0
  160.2730  210.8280  156.1990 C   0  0  0  0  0  1  0  0  0  0  0  0
  1 20  1  6  0  0  0
  2  5  1  6  0  0  0
  3  2  1  0  0  0  0
  4  1  1  6  0  0  0
  4  3  1  0  0  0  0
  4  2  1  0  0  0  0
  5  7  1  0  0  0  0
  7  6  2  0  0  0  0
  8  1  1  0  0  0  0
  9  8  2  0  0  0  0
 10  8  1  0  0  0  0
 11 16  1  6  0  0  0
 11 12  1  0  0  0  0
 11 10  1  0  0  0  0
 12 13  1  6  0  0  0
 12 14  1  0  0  0  0
 14 15  1  0  0  0  0
 18 19  2  0  0  0  0
 19 17  1  0  0  0  0
 19 16  1  0  0  0  0
 22 21  1  6  0  0  0
 22 20  1  0  0  0  0
 23 22  1  6  0  0  0
 23 24  1  0  0  0  0
 24 27  1  0  0  0  0
 25 23  1  0  0  0  0
 25 28  1  0  0  0  0
 26 31  1  1  0  0  0
 27 26  1  0  0  0  0
 28 30  1  1  0  0  0
 28 26  1  0  0  0  0
 30 29  1  0  0  0  0
 31 32  1  0  0  0  0
M  END
>  <MODEL>
2

>  <REMARK>
 VINA RESULT:      -6.2      0.826      2.427
  Name = 
  15 active torsions:
  status: ('A' for Active; 'I' for Inactive)
    1  A    between atoms: C_2  and  C_5
    2  A    between atoms: C_3  and  C_20
    3  A    between atoms: C_3  and  O_22
    4  A    between atoms: C_4  and  C_14
    5  A    between atoms: C_4  and  C_24
    6  A    between atoms: C_4  and  C_30
    7  A    between atoms: C_5  and  C_14
    8  A    between atoms: O_11  and  C_12
    9  A    between atoms: C_13  and  C_18
   10  A    between atoms: C_13  and  C_29
   11  A    between atoms: C_15  and  C_20
   12  A    between atoms: C_15  and  C_26
   13  A    between atoms: O_16  and  C_20
   14  A    between atoms: O_16  and  C_24
   15  A    between atoms: C_28  and  C_32
                            x       y       z     vdW  Elec       q    Type
                         _______ _______ _______ _____ _____    ______ ____

>  <TORSDO>
F 15

$$$$
=
 OpenBabel11062408323D

 32 33  0  0  1  0  0  0  0  0999 V2000
  161.5880  207.6020  150.8110 C   0  0  2  0  0  3  0  0  0  0  0  0
  161.6950  209.1920  148.6850 C   0  0  1  0  0  3  0  0  0  0  0  0
  162.6050  207.9940  148.4770 C   0  0  0  0  0  2  0  0  0  0  0  0
  161.3360  207.8290  149.2980 C   0  0  1  0  0  3  0  0  0  0  0  0
  162.3640  210.1920  149.6220 C   0  0  0  0  0  2  0  0  0  0  0  0
  161.8710  211.9320  147.9580 C   0  0  0  0  0  2  0  0  0  0  0  0
  162.0190  211.5930  149.2360 C   0  0  0  0  0  3  0  0  0  0  0  0
  161.7950  206.1640  151.1580 C   0  0  0  0  0  0  0  0  0  0  0  0
  162.7200  205.8280  151.9460 O   0  0  0  0  0  0  0  0  0  0  0  0
  160.9630  205.2050  150.5640 O   0  0  0  0  0  0  0  0  0  0  0  0
  161.3680  204.2670  149.5610 C   0  0  1  0  0  3  0  0  0  0  0  0
  161.2060  202.8020  149.9900 C   0  0  1  0  0  3  0  0  0  0  0  0
  160.9980  202.6220  151.4940 C   0  0  0  0  0  1  0  0  0  0  0  0
  160.3810  202.0170  149.1500 O   0  0  0  0  0  0  0  0  0  0  0  0
  161.0800  200.8720  148.7340 C   0  0  0  0  0  1  0  0  0  0  0  0
  160.7730  204.5660  148.1880 C   0  0  0  0  0  2  0  0  0  0  0  0
  162.8600  204.8210  147.0630 O   0  0  0  0  0  1  0  0  0  0  0  0
  161.4100  203.3100  146.1300 O   0  0  0  0  0  0  0  0  0  0  0  0
  161.7450  204.2380  147.1060 C   0  0  0  0  0  0  0  0  0  0  0  0
  160.6900  208.3110  151.8290 C   0  0  0  0  0  2  0  0  0  0  0  0
  160.6580  207.6030  154.2320 C   0  0  0  0  0  1  0  0  0  0  0  0
  161.3780  208.4380  153.1810 C   0  0  2  0  0  3  0  0  0  0  0  0
  161.4940  209.9080  153.5880 C   0  0  2  0  0  3  0  0  0  0  0  0
  161.2160  210.0790  155.0880 C   0  0  0  0  0  2  0  0  0  0  0  0
  160.6820  210.8550  152.6810 C   0  0  0  0  0  2  0  0  0  0  0  0
  159.5690  211.9500  154.6690 C   0  0  1  0  0  3  0  0  0  0  0  0
  160.8400  211.5180  155.4250 C   0  0  0  0  0  2  0  0  0  0  0  0
  159.3460  211.2480  153.3100 C   0  0  1  0  0  3  0  0  0  0  0  0
  159.5600  213.0770  151.6240 C   0  0  0  0  0  1  0  0  0  0  0  0
  158.5970  212.1590  152.3510 C   0  0  0  0  0  2  0  0  0  0  0  0
  158.4180  211.9760  155.4870 O   0  0  0  0  0  0  0  0  0  0  0  0
  158.7370  212.6100  156.6990 C   0  0  0  0  0  1  0  0  0  0  0  0
  1  8  1  0  0  0  0
  1 20  1  1  0  0  0
  2  4  1  0  0  0  0
  2  5  1  1  0  0  0
  3  2  1  0  0  0  0
  3  4  1  0  0  0  0
  4  1  1  1  0  0  0
  6  7  2  0  0  0  0
  7  5  1  0  0  0  0
  8  9  2  0  0  0  0
 10  8  1  0  0  0  0
 11 16  1  6  0  0  0
 11 12  1  0  0  0  0
 11 10  1  0  0  0  0
 12 13  1  1  0  0  0
 14 12  1  0  0  0  0
 15 14  1  0  0  0  0
 17 19  1  0  0  0  0
 18 19  2  0  0  0  0
 19 16  1  0  0  0  0
 20 22  1  0  0  0  0
 22 21  1  1  0  0  0
 23 22  1  6  0  0  0
 23 24  1  0  0  0  0
 24 27  1  0  0  0  0
 25 28  1  0  0  0  0
 25 23  1  0  0  0  0
 26 27  1  0  0  0  0
 26 31  1  1  0  0  0
 28 30  1  6  0  0  0
 28 26  1  0  0  0  0
 29 30  1  0  0  0  0
 31 32  1  0  0  0  0
M  END
>  <MODEL>
3

>  <REMARK>
 VINA RESULT:      -6.0      1.565      4.070
  Name = 
  15 active torsions:
  status: ('A' for Active; 'I' for Inactive)
    1  A    between atoms: C_2  and  C_5
    2  A    between atoms: C_3  and  C_20
    3  A    between atoms: C_3  and  O_22
    4  A    between atoms: C_4  and  C_14
    5  A    between atoms: C_4  and  C_24
    6  A    between atoms: C_4  and  C_30
    7  A    between atoms: C_5  and  C_14
    8  A    between atoms: O_11  and  C_12
    9  A    between atoms: C_13  and  C_18
   10  A    between atoms: C_13  and  C_29
   11  A    between atoms: C_15  and  C_20
   12  A    between atoms: C_15  and  C_26
   13  A    between atoms: O_16  and  C_20
   14  A    between atoms: O_16  and  C_24
   15  A    between atoms: C_28  and  C_32
                            x       y       z     vdW  Elec       q    Type
                         _______ _______ _______ _____ _____    ______ ____

>  <TORSDO>
F 15

$$$$
=
 OpenBabel11062408323D

 32 33  0  0  1  0  0  0  0  0999 V2000
  161.6980  206.6130  151.1440 C   0  0  2  0  0  3  0  0  0  0  0  0
  162.3620  207.9120  148.9220 C   0  0  1  0  0  3  0  0  0  0  0  0
  161.9250  208.9030  149.9860 C   0  0  0  0  0  2  0  0  0  0  0  0
  162.6210  207.6200  150.4090 C   0  0  1  0  0  3  0  0  0  0  0  0
  161.1380  207.2380  148.3120 C   0  0  0  0  0  2  0  0  0  0  0  0
  160.3840  206.4830  146.0970 C   0  0  0  0  0  2  0  0  0  0  0  0
  161.3790  206.9000  146.8770 C   0  0  0  0  0  3  0  0  0  0  0  0
  161.4480  206.9860  152.5670 C   0  0  0  0  0  0  0  0  0  0  0  0
  162.1150  206.4460  153.4920 O   0  0  0  0  0  0  0  0  0  0  0  0
  160.4400  207.9180  152.8500 O   0  0  0  0  0  0  0  0  0  0  0  0
  160.6400  209.1820  153.4920 C   0  0  1  0  0  3  0  0  0  0  0  0
  159.9640  210.3530  152.7640 C   0  0  1  0  0  3  0  0  0  0  0  0
  158.7710  210.9380  153.5190 C   0  0  0  0  0  1  0  0  0  0  0  0
  160.8500  211.2890  152.1790 O   0  0  0  0  0  0  0  0  0  0  0  0
  160.1280  212.4010  151.7170 C   0  0  0  0  0  1  0  0  0  0  0  0
  160.3430  209.1470  154.9880 C   0  0  0  0  0  2  0  0  0  0  0  0
  162.3150  210.2480  155.7510 O   0  0  0  0  0  0  0  0  0  0  0  0
  162.0100  208.1120  156.5280 O   0  0  0  0  0  1  0  0  0  0  0  0
  161.6040  209.2090  155.7800 C   0  0  0  0  0  0  0  0  0  0  0  0
  161.9580  205.1130  150.9830 C   0  0  0  0  0  2  0  0  0  0  0  0
  161.1270  203.2590  152.4510 C   0  0  0  0  0  1  0  0  0  0  0  0
  160.7440  204.2930  151.4000 C   0  0  2  0  0  3  0  0  0  0  0  0
  160.0800  203.6590  150.1770 C   0  0  2  0  0  3  0  0  0  0  0  0
  159.9580  202.1390  150.3530 C   0  0  0  0  0  2  0  0  0  0  0  0
  160.7220  204.0920  148.8440 C   0  0  0  0  0  2  0  0  0  0  0  0
  160.9700  201.6960  148.0800 C   0  0  1  0  0  3  0  0  0  0  0  0
  159.7720  201.4340  149.0130 C   0  0  0  0  0  2  0  0  0  0  0  0
  161.6930  203.0430  148.3050 C   0  0  1  0  0  3  0  0  0  0  0  0
  161.4060  203.2120  145.8300 C   0  0  0  0  0  1  0  0  0  0  0  0
  162.3000  203.5510  147.0080 C   0  0  0  0  0  2  0  0  0  0  0  0
  161.8470  200.5930  147.9810 O   0  0  0  0  0  0  0  0  0  0  0  0
  161.4590  199.8010  146.8870 C   0  0  0  0  0  1  0  0  0  0  0  0
  1 20  1  1  0  0  0
  1  8  1  0  0  0  0
  2  5  1  1  0  0  0
  2  3  1  0  0  0  0
  2  4  1  0  0  0  0
  3  4  1  0  0  0  0
  4  1  1  1  0  0  0
  6  7  2  0  0  0  0
  7  5  1  0  0  0  0
  8 10  1  0  0  0  0
  8  9  2  0  0  0  0
 10 11  1  0  0  0  0
 11 16  1  1  0  0  0
 12 11  1  0  0  0  0
 12 13  1  1  0  0  0
 14 12  1  0  0  0  0
 15 14  1  0  0  0  0
 16 19  1  0  0  0  0
 17 19  2  0  0  0  0
 19 18  1  0  0  0  0
 20 22  1  0  0  0  0
 22 21  1  1  0  0  0
 23 24  1  0  0  0  0
 23 22  1  1  0  0  0
 25 23  1  0  0  0  0
 26 31  1  1  0  0  0
 26 28  1  0  0  0  0
 26 27  1  0  0  0  0
 27 24  1  0  0  0  0
 28 30  1  6  0  0  0
 28 25  1  0  0  0  0
 29 30  1  0  0  0  0
 32 31  1  0  0  0  0
M  END
>  <MODEL>
4

>  <REMARK>
 VINA RESULT:      -5.9      2.102      8.475
  Name = 
  15 active torsions:
  status: ('A' for Active; 'I' for Inactive)
    1  A    between atoms: C_2  and  C_5
    2  A    between atoms: C_3  and  C_20
    3  A    between atoms: C_3  and  O_22
    4  A    between atoms: C_4  and  C_14
    5  A    between atoms: C_4  and  C_24
    6  A    between atoms: C_4  and  C_30
    7  A    between atoms: C_5  and  C_14
    8  A    between atoms: O_11  and  C_12
    9  A    between atoms: C_13  and  C_18
   10  A    between atoms: C_13  and  C_29
   11  A    between atoms: C_15  and  C_20
   12  A    between atoms: C_15  and  C_26
   13  A    between atoms: O_16  and  C_20
   14  A    between atoms: O_16  and  C_24
   15  A    between atoms: C_28  and  C_32
                            x       y       z     vdW  Elec       q    Type
                         _______ _______ _______ _____ _____    ______ ____

>  <TORSDO>
F 15

$$$$
=
 OpenBabel11062408323D

 32 33  0  0  1  0  0  0  0  0999 V2000
  161.8630  206.5890  149.7700 C   0  0  2  0  0  3  0  0  0  0  0  0
  161.8570  206.8710  147.1270 C   0  0  1  0  0  3  0  0  0  0  0  0
  160.4560  206.5430  147.6120 C   0  0  0  0  0  2  0  0  0  0  0  0
  161.3810  207.3520  148.5080 C   0  0  1  0  0  3  0  0  0  0  0  0
  162.7090  205.6060  147.1160 C   0  0  0  0  0  2  0  0  0  0  0  0
  161.9180  205.2720  144.8130 C   0  0  0  0  0  2  0  0  0  0  0  0
  162.8710  205.0890  145.7240 C   0  0  0  0  0  3  0  0  0  0  0  0
  161.0420  205.3790  150.0670 C   0  0  0  0  0  0  0  0  0  0  0  0
  159.9290  205.4940  150.6490 O   0  0  0  0  0  0  0  0  0  0  0  0
  161.5490  204.1200  149.7160 O   0  0  0  0  0  0  0  0  0  0  0  0
  160.7610  202.9900  149.3320 C   0  0  1  0  0  3  0  0  0  0  0  0
  161.2980  202.2590  148.0920 C   0  0  1  0  0  3  0  0  0  0  0  0
  161.3530  200.7400  148.2520 C   0  0  0  0  0  1  0  0  0  0  0  0
  160.8100  202.7380  146.8540 O   0  0  0  0  0  0  0  0  0  0  0  0
  160.7560  201.6850  145.9260 C   0  0  0  0  0  1  0  0  0  0  0  0
  160.4470  202.0550  150.4970 C   0  0  0  0  0  2  0  0  0  0  0  0
  162.4190  201.9590  151.8320 O   0  0  0  0  0  0  0  0  0  0  0  0
  160.7090  203.2280  152.6820 O   0  0  0  0  0  1  0  0  0  0  0  0
  161.2530  202.4140  151.6970 C   0  0  0  0  0  0  0  0  0  0  0  0
  162.1900  207.3840  151.0380 C   0  0  0  0  0  2  0  0  0  0  0  0
  162.7130  209.8330  151.1380 C   0  0  0  0  0  1  0  0  0  0  0  0
  161.6130  208.7910  150.9740 C   0  0  2  0  0  3  0  0  0  0  0  0
  160.4960  208.9600  152.0040 C   0  0  2  0  0  3  0  0  0  0  0  0
  160.4090  210.4180  152.4760 C   0  0  0  0  0  2  0  0  0  0  0  0
  160.5630  207.9270  153.1480 C   0  0  0  0  0  2  0  0  0  0  0  0
  160.4120  209.7340  154.9090 C   0  0  1  0  0  3  0  0  0  0  0  0
  159.6800  210.5300  153.8120 C   0  0  0  0  0  2  0  0  0  0  0  0
  161.2050  208.5050  154.4080 C   0  0  1  0  0  3  0  0  0  0  0  0
  159.9300  207.3300  156.2040 C   0  0  0  0  0  1  0  0  0  0  0  0
  161.2560  207.4260  155.4760 C   0  0  0  0  0  2  0  0  0  0  0  0
  161.1420  210.5540  155.7960 O   0  0  0  0  0  0  0  0  0  0  0  0
  160.4370  211.7540  155.9890 C   0  0  0  0  0  1  0  0  0  0  0  0
  1  8  1  0  0  0  0
  1 20  1  1  0  0  0
  2  5  1  1  0  0  0
  2  3  1  0  0  0  0
  2  4  1  0  0  0  0
  3  4  1  0  0  0  0
  4  1  1  1  0  0  0
  6  7  2  0  0  0  0
  7  5  1  0  0  0  0
  8  9  2  0  0  0  0
 10  8  1  0  0  0  0
 11 10  1  0  0  0  0
 11 16  1  1  0  0  0
 12 13  1  1  0  0  0
 12 11  1  0  0  0  0
 14 12  1  0  0  0  0
 15 14  1  0  0  0  0
 16 19  1  0  0  0  0
 19 17  2  0  0  0  0
 19 18  1  0  0  0  0
 22 20  1  0  0  0  0
 22 21  1  1  0  0  0
 23 22  1  6  0  0  0
 23 24  1  0  0  0  0
 23 25  1  0  0  0  0
 24 27  1  0  0  0  0
 25 28  1  0  0  0  0
 26 31  1  6  0  0  0
 27 26  1  0  0  0  0
 28 26  1  0  0  0  0
 28 30  1  1  0  0  0
 30 29  1  0  0  0  0
 31 32  1  0  0  0  0
M  END
>  <MODEL>
5

>  <REMARK>
 VINA RESULT:      -5.8      1.712      4.341
  Name = 
  15 active torsions:
  status: ('A' for Active; 'I' for Inactive)
    1  A    between atoms: C_2  and  C_5
    2  A    between atoms: C_3  and  C_20
    3  A    between atoms: C_3  and  O_22
    4  A    between atoms: C_4  and  C_14
    5  A    between atoms: C_4  and  C_24
    6  A    between atoms: C_4  and  C_30
    7  A    between atoms: C_5  and  C_14
    8  A    between atoms: O_11  and  C_12
    9  A    between atoms: C_13  and  C_18
   10  A    between atoms: C_13  and  C_29
   11  A    between atoms: C_15  and  C_20
   12  A    between atoms: C_15  and  C_26
   13  A    between atoms: O_16  and  C_20
   14  A    between atoms: O_16  and  C_24
   15  A    between atoms: C_28  and  C_32
                            x       y       z     vdW  Elec       q    Type
                         _______ _______ _______ _____ _____    ______ ____

>  <TORSDO>
F 15

$$$$
=
 OpenBabel11062408323D

 32 33  0  0  1  0  0  0  0  0999 V2000
  161.0240  208.4260  153.5730 C   0  0  2  0  0  3  0  0  0  0  0  0
  160.6020  207.5450  156.0460 C   0  0  1  0  0  3  0  0  0  0  0  0
  159.6680  208.7050  155.7470 C   0  0  0  0  0  2  0  0  0  0  0  0
  160.0790  207.7740  154.6170 C   0  0  1  0  0  3  0  0  0  0  0  0
  162.0030  208.0720  156.3380 C   0  0  0  0  0  2  0  0  0  0  0  0
  162.9420  210.1470  157.2610 C   0  0  0  0  0  2  0  0  0  0  0  0
  161.9430  209.2690  157.2300 C   0  0  0  0  0  3  0  0  0  0  0  0
  160.8530  209.9060  153.4800 C   0  0  0  0  0  0  0  0  0  0  0  0
  161.7420  210.6770  153.9350 O   0  0  0  0  0  0  0  0  0  0  0  0
  159.6780  210.4120  152.9090 O   0  0  0  0  0  0  0  0  0  0  0  0
  159.0880  211.6790  153.2170 C   0  0  1  0  0  3  0  0  0  0  0  0
  158.9080  212.5870  151.9920 C   0  0  1  0  0  3  0  0  0  0  0  0
  157.6860  213.5010  152.0810 C   0  0  0  0  0  1  0  0  0  0  0  0
  160.0950  213.1800  151.5040 O   0  0  0  0  0  0  0  0  0  0  0  0
  159.9230  213.5510  150.1600 C   0  0  0  0  0  1  0  0  0  0  0  0
  157.8310  211.5610  154.0740 C   0  0  0  0  0  2  0  0  0  0  0  0
  159.0130  212.9260  155.6300 O   0  0  0  0  0  0  0  0  0  0  0  0
  157.2420  211.7500  156.4900 O   0  0  0  0  0  1  0  0  0  0  0  0
  158.0600  212.1260  155.4340 C   0  0  0  0  0  0  0  0  0  0  0  0
  161.1640  207.7780  152.1930 C   0  0  0  0  0  2  0  0  0  0  0  0
  163.0280  206.1300  151.8930 C   0  0  0  0  0  1  0  0  0  0  0  0
  161.5740  206.3160  152.3060 C   0  0  2  0  0  3  0  0  0  0  0  0
  160.6230  205.4300  151.5000 C   0  0  2  0  0  3  0  0  0  0  0  0
  161.1340  203.9830  151.4610 C   0  0  0  0  0  2  0  0  0  0  0  0
  160.2740  206.0150  150.1160 C   0  0  0  0  0  2  0  0  0  0  0  0
  160.8710  203.8530  148.9510 C   0  0  1  0  0  3  0  0  0  0  0  0
  160.5180  203.2040  150.3030 C   0  0  0  0  0  2  0  0  0  0  0  0
  161.0990  205.3810  148.9980 C   0  0  1  0  0  3  0  0  0  0  0  0
  161.9390  206.2160  146.8010 C   0  0  0  0  0  1  0  0  0  0  0  0
  160.7160  206.0230  147.6760 C   0  0  0  0  0  2  0  0  0  0  0  0
  161.8740  203.1530  148.2450 O   0  0  0  0  0  0  0  0  0  0  0  0
  161.2610  202.3100  147.3020 C   0  0  0  0  0  1  0  0  0  0  0  0
  1 20  1  6  0  0  0
  2  5  1  6  0  0  0
  3  2  1  0  0  0  0
  4  1  1  6  0  0  0
  4  3  1  0  0  0  0
  4  2  1  0  0  0  0
  5  7  1  0  0  0  0
  7  6  2  0  0  0  0
  8  1  1  0  0  0  0
  8  9  2  0  0  0  0
 10 11  1  0  0  0  0
 10  8  1  0  0  0  0
 11 16  1  6  0  0  0
 12 13  1  1  0  0  0
 12 11  1  0  0  0  0
 14 12  1  0  0  0  0
 15 14  1  0  0  0  0
 16 19  1  0  0  0  0
 19 17  2  0  0  0  0
 19 18  1  0  0  0  0
 20 22  1  0  0  0  0
 22 21  1  6  0  0  0
 23 22  1  6  0  0  0
 24 23  1  0  0  0  0
 25 23  1  0  0  0  0
 26 31  1  1  0  0  0
 26 28  1  0  0  0  0
 26 27  1  0  0  0  0
 27 24  1  0  0  0  0
 28 30  1  6  0  0  0
 28 25  1  0  0  0  0
 29 30  1  0  0  0  0
 32 31  1  0  0  0  0
M  END
>  <MODEL>
6

>  <REMARK>
 VINA RESULT:      -5.7      1.983      8.022
  Name = 
  15 active torsions:
  status: ('A' for Active; 'I' for Inactive)
    1  A    between atoms: C_2  and  C_5
    2  A    between atoms: C_3  and  C_20
    3  A    between atoms: C_3  and  O_22
    4  A    between atoms: C_4  and  C_14
    5  A    between atoms: C_4  and  C_24
    6  A    between atoms: C_4  and  C_30
    7  A    between atoms: C_5  and  C_14
    8  A    between atoms: O_11  and  C_12
    9  A    between atoms: C_13  and  C_18
   10  A    between atoms: C_13  and  C_29
   11  A    between atoms: C_15  and  C_20
   12  A    between atoms: C_15  and  C_26
   13  A    between atoms: O_16  and  C_20
   14  A    between atoms: O_16  and  C_24
   15  A    between atoms: C_28  and  C_32
                            x       y       z     vdW  Elec       q    Type
                         _______ _______ _______ _____ _____    ______ ____

>  <TORSDO>
F 15

$$$$
=
 OpenBabel11062408323D

 32 33  0  0  1  0  0  0  0  0999 V2000
  160.1070  210.6000  153.0350 C   0  0  2  0  0  3  0  0  0  0  0  0
  160.6320  210.7100  155.6380 C   0  0  1  0  0  3  0  0  0  0  0  0
  161.8490  210.1960  154.8890 C   0  0  0  0  0  2  0  0  0  0  0  0
  160.9270  211.1950  154.2090 C   0  0  1  0  0  3  0  0  0  0  0  0
  159.5970  209.5970  155.7660 C   0  0  0  0  0  2  0  0  0  0  0  0
  160.3410  207.7920  157.2580 C   0  0  0  0  0  2  0  0  0  0  0  0
  160.2600  208.2840  156.0240 C   0  0  0  0  0  3  0  0  0  0  0  0
  160.9470  209.8370  152.0650 C   0  0  0  0  0  0  0  0  0  0  0  0
  161.8010  210.4370  151.3550 O   0  0  0  0  0  0  0  0  0  0  0  0
  160.7440  208.4560  151.9420 O   0  0  0  0  0  0  0  0  0  0  0  0
  161.5720  207.5630  151.1910 C   0  0  1  0  0  3  0  0  0  0  0  0
  161.9900  206.3090  151.9730 C   0  0  1  0  0  3  0  0  0  0  0  0
  161.4890  206.2920  153.4170 C   0  0  0  0  0  1  0  0  0  0  0  0
  161.8790  205.0920  151.2610 O   0  0  0  0  0  0  0  0  0  0  0  0
  161.1360  204.1680  152.0140 C   0  0  0  0  0  1  0  0  0  0  0  0
  161.0150  207.2540  149.8040 C   0  0  0  0  0  2  0  0  0  0  0  0
  162.1570  208.9920  148.6390 O   0  0  0  0  0  1  0  0  0  0  0  0
  162.5060  206.8700  147.8420 O   0  0  0  0  0  0  0  0  0  0  0  0
  161.9290  207.7570  148.7400 C   0  0  0  0  0  0  0  0  0  0  0  0
  159.0760  211.4840  152.3260 C   0  0  0  0  0  2  0  0  0  0  0  0
  158.2030  213.1290  154.0020 C   0  0  0  0  0  1  0  0  0  0  0  0
  159.1450  212.9220  152.8230 C   0  0  2  0  0  3  0  0  0  0  0  0
  158.8660  213.8980  151.6790 C   0  0  2  0  0  3  0  0  0  0  0  0
  157.6580  213.4350  150.8530 C   0  0  0  0  0  2  0  0  0  0  0  0
  160.1180  214.2260  150.8420 C   0  0  0  0  0  2  0  0  0  0  0  0
  158.9210  213.6960  148.6800 C   0  0  1  0  0  3  0  0  0  0  0  0
  157.6520  214.0730  149.4670 C   0  0  0  0  0  2  0  0  0  0  0  0
  160.1710  213.4190  149.5460 C   0  0  1  0  0  3  0  0  0  0  0  0
  162.2160  212.5290  148.4240 C   0  0  0  0  0  1  0  0  0  0  0  0
  161.4390  213.7790  148.7900 C   0  0  0  0  0  2  0  0  0  0  0  0
  158.6890  212.7150  147.6910 O   0  0  0  0  0  0  0  0  0  0  0  0
  157.3520  212.8020  147.2690 C   0  0  0  0  0  1  0  0  0  0  0  0
  1 20  1  6  0  0  0
  2  5  1  6  0  0  0
  3  2  1  0  0  0  0
  4  1  1  6  0  0  0
  4  3  1  0  0  0  0
  4  2  1  0  0  0  0
  5  7  1  0  0  0  0
  7  6  2  0  0  0  0
  8  1  1  0  0  0  0
  9  8  2  0  0  0  0
 10  8  1  0  0  0  0
 11 16  1  6  0  0  0
 11 10  1  0  0  0  0
 11 12  1  0  0  0  0
 12 13  1  1  0  0  0
 14 12  1  0  0  0  0
 14 15  1  0  0  0  0
 17 19  1  0  0  0  0
 18 19  2  0  0  0  0
 19 16  1  0  0  0  0
 20 22  1  0  0  0  0
 22 21  1  1  0  0  0
 23 22  1  1  0  0  0
 24 23  1  0  0  0  0
 25 23  1  0  0  0  0
 26 31  1  1  0  0  0
 26 27  1  0  0  0  0
 26 28  1  0  0  0  0
 27 24  1  0  0  0  0
 28 30  1  6  0  0  0
 28 25  1  0  0  0  0
 29 30  1  0  0  0  0
 32 31  1  0  0  0  0
M  END
>  <MODEL>
7

>  <REMARK>
 VINA RESULT:      -5.7      2.528      5.737
  Name = 
  15 active torsions:
  status: ('A' for Active; 'I' for Inactive)
    1  A    between atoms: C_2  and  C_5
    2  A    between atoms: C_3  and  C_20
    3  A    between atoms: C_3  and  O_22
    4  A    between atoms: C_4  and  C_14
    5  A    between atoms: C_4  and  C_24
    6  A    between atoms: C_4  and  C_30
    7  A    between atoms: C_5  and  C_14
    8  A    between atoms: O_11  and  C_12
    9  A    between atoms: C_13  and  C_18
   10  A    between atoms: C_13  and  C_29
   11  A    between atoms: C_15  and  C_20
   12  A    between atoms: C_15  and  C_26
   13  A    between atoms: O_16  and  C_20
   14  A    between atoms: O_16  and  C_24
   15  A    between atoms: C_28  and  C_32
                            x       y       z     vdW  Elec       q    Type
                         _______ _______ _______ _____ _____    ______ ____

>  <TORSDO>
F 15

$$$$
=
 OpenBabel11062408323D

 32 33  0  0  1  0  0  0  0  0999 V2000
  161.8420  209.1020  150.9880 C   0  0  2  0  0  3  0  0  0  0  0  0
  160.5840  209.3740  153.3140 C   0  0  1  0  0  3  0  0  0  0  0  0
  160.2540  210.5480  152.4110 C   0  0  0  0  0  2  0  0  0  0  0  0
  160.5160  209.1860  151.7890 C   0  0  1  0  0  3  0  0  0  0  0  0
  161.9790  209.5520  153.9050 C   0  0  0  0  0  2  0  0  0  0  0  0
  162.4730  210.5350  156.1020 C   0  0  0  0  0  2  0  0  0  0  0  0
  162.0050  210.6940  154.8670 C   0  0  0  0  0  3  0  0  0  0  0  0
  161.8710  210.0220  149.8130 C   0  0  0  0  0  0  0  0  0  0  0  0
  162.0290  209.5610  148.6500 O   0  0  0  0  0  0  0  0  0  0  0  0
  161.7510  211.4000  150.0370 O   0  0  0  0  0  0  0  0  0  0  0  0
  161.3250  212.3610  149.0650 C   0  0  1  0  0  3  0  0  0  0  0  0
  160.4500  213.4790  149.6510 C   0  0  1  0  0  3  0  0  0  0  0  0
  159.1360  213.6880  148.8980 C   0  0  0  0  0  1  0  0  0  0  0  0
  160.3690  213.5030  151.0630 O   0  0  0  0  0  0  0  0  0  0  0  0
  159.1430  214.0610  151.4590 C   0  0  0  0  0  1  0  0  0  0  0  0
  162.4660  212.8780  148.1930 C   0  0  0  0  0  2  0  0  0  0  0  0
  162.7120  213.6510  145.9520 O   0  0  0  0  0  0  0  0  0  0  0  0
  160.9130  212.2820  146.3350 O   0  0  0  0  0  1  0  0  0  0  0  0
  162.0490  212.9540  146.7650 C   0  0  0  0  0  0  0  0  0  0  0  0
  162.4190  207.7240  150.6500 C   0  0  0  0  0  2  0  0  0  0  0  0
  162.9840  205.7880  152.1380 C   0  0  0  0  0  1  0  0  0  0  0  0
  161.8610  206.6490  151.5730 C   0  0  2  0  0  3  0  0  0  0  0  0
  160.8020  205.8180  150.8480 C   0  0  2  0  0  3  0  0  0  0  0  0
  160.9500  204.3300  151.1940 C   0  0  0  0  0  2  0  0  0  0  0  0
  160.7290  206.1120  149.3360 C   0  0  0  0  0  2  0  0  0  0  0  0
  160.8890  203.6570  148.7590 C   0  0  1  0  0  3  0  0  0  0  0  0
  160.2710  203.4440  150.1540 C   0  0  0  0  0  2  0  0  0  0  0  0
  161.4740  205.0660  148.5090 C   0  0  1  0  0  3  0  0  0  0  0  0
  162.7000  205.1960  146.3390 C   0  0  0  0  0  1  0  0  0  0  0  0
  161.3760  205.4360  147.0390 C   0  0  0  0  0  2  0  0  0  0  0  0
  161.7530  202.6090  148.3700 O   0  0  0  0  0  0  0  0  0  0  0  0
  161.0930  201.3830  148.5560 C   0  0  0  0  0  1  0  0  0  0  0  0
  1 20  1  6  0  0  0
  2  5  1  6  0  0  0
  3  2  1  0  0  0  0
  4  1  1  6  0  0  0
  4  3  1  0  0  0  0
  4  2  1  0  0  0  0
  5  7  1  0  0  0  0
  7  6  2  0  0  0  0
  8 10  1  0  0  0  0
  8  1  1  0  0  0  0
  9  8  2  0  0  0  0
 11 16  1  1  0  0  0
 11 12  1  0  0  0  0
 11 10  1  0  0  0  0
 12 13  1  6  0  0  0
 12 14  1  0  0  0  0
 14 15  1  0  0  0  0
 17 19  2  0  0  0  0
 18 19  1  0  0  0  0
 19 16  1  0  0  0  0
 20 22  1  0  0  0  0
 22 21  1  6  0  0  0
 23 24  1  0  0  0  0
 23 22  1  6  0  0  0
 25 23  1  0  0  0  0
 26 31  1  1  0  0  0
 26 27  1  0  0  0  0
 27 24  1  0  0  0  0
 28 30  1  6  0  0  0
 28 26  1  0  0  0  0
 28 25  1  0  0  0  0
 29 30  1  0  0  0  0
 31 32  1  0  0  0  0
M  END
>  <MODEL>
8

>  <REMARK>
 VINA RESULT:      -5.7      2.844      7.826
  Name = 
  15 active torsions:
  status: ('A' for Active; 'I' for Inactive)
    1  A    between atoms: C_2  and  C_5
    2  A    between atoms: C_3  and  C_20
    3  A    between atoms: C_3  and  O_22
    4  A    between atoms: C_4  and  C_14
    5  A    between atoms: C_4  and  C_24
    6  A    between atoms: C_4  and  C_30
    7  A    between atoms: C_5  and  C_14
    8  A    between atoms: O_11  and  C_12
    9  A    between atoms: C_13  and  C_18
   10  A    between atoms: C_13  and  C_29
   11  A    between atoms: C_15  and  C_20
   12  A    between atoms: C_15  and  C_26
   13  A    between atoms: O_16  and  C_20
   14  A    between atoms: O_16  and  C_24
   15  A    between atoms: C_28  and  C_32
                            x       y       z     vdW  Elec       q    Type
                         _______ _______ _______ _____ _____    ______ ____

>  <TORSDO>
F 15

$$$$
=
 OpenBabel11062408323D

 32 33  0  0  1  0  0  0  0  0999 V2000
  161.5120  207.8780  151.9190 C   0  0  2  0  0  3  0  0  0  0  0  0
  160.8450  205.7630  153.3840 C   0  0  1  0  0  3  0  0  0  0  0  0
  161.8030  206.6470  154.1630 C   0  0  0  0  0  2  0  0  0  0  0  0
  160.8340  207.2880  153.1830 C   0  0  1  0  0  3  0  0  0  0  0  0
  161.6160  204.9570  152.3440 C   0  0  0  0  0  2  0  0  0  0  0  0
  161.4150  202.5600  151.8410 C   0  0  0  0  0  2  0  0  0  0  0  0
  160.8360  203.7550  151.9220 C   0  0  0  0  0  3  0  0  0  0  0  0
  162.0130  209.2690  152.1230 C   0  0  0  0  0  0  0  0  0  0  0  0
  162.5930  209.8800  151.1840 O   0  0  0  0  0  0  0  0  0  0  0  0
  161.8520  209.8620  153.3830 O   0  0  0  0  0  0  0  0  0  0  0  0
  160.6600  210.5020  153.8490 C   0  0  1  0  0  3  0  0  0  0  0  0
  160.4570  210.3910  155.3670 C   0  0  1  0  0  3  0  0  0  0  0  0
  158.9970  210.1990  155.7780 C   0  0  0  0  0  1  0  0  0  0  0  0
  161.4050  209.5890  156.0430 O   0  0  0  0  0  0  0  0  0  0  0  0
  162.3860  210.4050  156.6290 C   0  0  0  0  0  1  0  0  0  0  0  0
  160.4960  211.9230  153.3180 C   0  0  0  0  0  2  0  0  0  0  0  0
  158.4040  211.1370  152.4870 O   0  0  0  0  0  1  0  0  0  0  0  0
  159.1670  213.0910  151.5600 O   0  0  0  0  0  0  0  0  0  0  0  0
  159.2940  212.0280  152.4440 C   0  0  0  0  0  0  0  0  0  0  0  0
  160.8250  207.7120  150.5600 C   0  0  0  0  0  2  0  0  0  0  0  0
  162.2990  207.9620  148.5490 C   0  0  0  0  0  1  0  0  0  0  0  0
  161.7250  206.9870  149.5690 C   0  0  2  0  0  3  0  0  0  0  0  0
  160.9720  205.8310  148.9070 C   0  0  2  0  0  3  0  0  0  0  0  0
  161.8420  204.5670  148.8720 C   0  0  0  0  0  2  0  0  0  0  0  0
  160.3510  206.2110  147.5480 C   0  0  0  0  0  2  0  0  0  0  0  0
  161.3880  204.2050  146.4130 C   0  0  1  0  0  3  0  0  0  0  0  0
  161.3490  203.5790  147.8200 C   0  0  0  0  0  2  0  0  0  0  0  0
  161.2050  205.7390  146.3730 C   0  0  1  0  0  3  0  0  0  0  0  0
  161.1980  205.4870  143.8890 C   0  0  0  0  0  1  0  0  0  0  0  0
  160.5420  206.1680  145.0750 C   0  0  0  0  0  2  0  0  0  0  0  0
  162.4690  203.7430  145.6300 O   0  0  0  0  0  0  0  0  0  0  0  0
  163.6340  204.4280  146.0160 C   0  0  0  0  0  1  0  0  0  0  0  0
  1 20  1  6  0  0  0
  1  8  1  0  0  0  0
  2  5  1  6  0  0  0
  2  3  1  0  0  0  0
  4  1  1  6  0  0  0
  4  2  1  0  0  0  0
  4  3  1  0  0  0  0
  6  7  2  0  0  0  0
  7  5  1  0  0  0  0
  8 10  1  0  0  0  0
  9  8  2  0  0  0  0
 10 11  1  0  0  0  0
 11 16  1  1  0  0  0
 11 12  1  0  0  0  0
 12 13  1  6  0  0  0
 12 14  1  0  0  0  0
 14 15  1  0  0  0  0
 18 19  2  0  0  0  0
 19 17  1  0  0  0  0
 19 16  1  0  0  0  0
 22 21  1  6  0  0  0
 22 20  1  0  0  0  0
 23 22  1  6  0  0  0
 24 23  1  0  0  0  0
 25 23  1  0  0  0  0
 26 31  1  1  0  0  0
 26 27  1  0  0  0  0
 27 24  1  0  0  0  0
 28 30  1  6  0  0  0
 28 26  1  0  0  0  0
 28 25  1  0  0  0  0
 29 30  1  0  0  0  0
 31 32  1  0  0  0  0
M  END
>  <MODEL>
9

>  <REMARK>
 VINA RESULT:      -5.5      2.165      8.154
  Name = 
  15 active torsions:
  status: ('A' for Active; 'I' for Inactive)
    1  A    between atoms: C_2  and  C_5
    2  A    between atoms: C_3  and  C_20
    3  A    between atoms: C_3  and  O_22
    4  A    between atoms: C_4  and  C_14
    5  A    between atoms: C_4  and  C_24
    6  A    between atoms: C_4  and  C_30
    7  A    between atoms: C_5  and  C_14
    8  A    between atoms: O_11  and  C_12
    9  A    between atoms: C_13  and  C_18
   10  A    between atoms: C_13  and  C_29
   11  A    between atoms: C_15  and  C_20
   12  A    between atoms: C_15  and  C_26
   13  A    between atoms: O_16  and  C_20
   14  A    between atoms: O_16  and  C_24
   15  A    between atoms: C_28  and  C_32
                            x       y       z     vdW  Elec       q    Type
                         _______ _______ _______ _____ _____    ______ ____

>  <TORSDO>
F 15

$$$$
