=
 OpenBabel11062409463D

 34 38  0  0  1  0  0  0  0  0999 V2000
  161.5110  206.3210  150.3430 C   0  0  0  0  0  0  0  0  0  0  0  0
  161.2860  203.5140  147.9680 C   0  0  0  0  0  3  0  0  0  0  0  0
  160.7930  203.6630  150.1900 N   0  0  0  0  0  2  0  0  0  0  0  0
  161.9800  208.3190  151.6810 C   0  0  0  0  0  0  0  0  0  0  0  0
  161.8840  207.6740  150.4470 C   0  0  0  0  0  3  0  0  0  0  0  0
  161.3130  206.2630  152.7840 C   0  0  0  0  0  0  0  0  0  0  0  0
  161.0380  205.5940  154.0120 N   0  0  0  0  0  1  0  0  0  0  0  0
  161.6980  207.6030  152.8410 C   0  0  0  0  0  3  0  0  0  0  0  0
  160.8010  204.2600  151.4070 C   0  0  0  0  0  0  0  0  0  0  0  0
  161.2110  205.6020  151.5300 C   0  0  0  0  0  0  0  0  0  0  0  0
  160.4580  203.5810  152.4110 O   0  0  0  0  0  0  0  0  0  0  0  0
  161.9350  203.9010  146.6830 C   0  0  0  0  0  2  0  0  0  0  0  0
  161.2240  205.0040  145.9890 C   0  0  0  0  0  0  0  0  0  0  0  0
  161.0760  206.1880  146.5770 C   0  0  0  0  0  3  0  0  0  0  0  0
  161.1280  204.3000  149.0400 C   0  0  0  0  0  0  0  0  0  0  0  0
  161.3800  206.5040  147.9840 C   0  0  0  0  0  3  0  0  0  0  0  0
  161.3950  205.7000  149.0720 C   0  0  0  0  0  0  0  0  0  0  0  0
  160.8320  204.8290  144.5800 C   0  0  0  0  0  0  0  0  0  0  0  0
  161.3910  205.6360  143.5960 O   0  0  0  0  0  0  0  0  0  0  0  0
  159.9940  203.9470  144.2500 O   0  0  0  0  0  1  0  0  0  0  0  0
  162.3600  209.6650  151.7910 O   0  0  0  0  0  0  0  0  0  0  0  0
  160.9000  209.7090  154.8340 C   0  0  0  0  0  2  0  0  0  0  0  0
  160.2230  210.7850  152.2920 C   0  0  0  0  0  2  0  0  0  0  0  0
  157.5400  211.5020  155.4500 C   0  0  0  0  0  0  0  0  0  0  0  0
  158.8040  210.7330  155.7530 C   0  0  0  0  0  2  0  0  0  0  0  0
  159.4940  210.2260  154.4860 C   0  0  1  0  0  3  0  0  0  0  0  0
  158.1190  211.4900  153.0380 C   0  0  0  0  0  2  0  0  0  0  0  0
  159.5030  211.2830  153.4600 N   0  0  2  0  0  0  0  0  0  0  0  0
  157.2640  211.9040  154.2010 C   0  0  0  0  0  3  0  0  0  0  0  0
  161.7170  210.6490  152.6070 C   0  0  1  0  0  3  0  0  0  0  0  0
  162.0170  210.4560  154.1000 C   0  0  0  0  0  2  0  0  0  0  0  0
  156.6660  211.9040  156.5640 C   0  0  0  0  0  0  0  0  0  0  0  0
  156.9370  212.9190  157.2610 O   0  0  0  0  0  1  0  0  0  0  0  0
  155.5250  211.1660  156.8560 O   0  0  0  0  0  0  0  0  0  0  0  0
  1  5  2  0  0  0  0
  1 10  1  0  0  0  0
  2 15  2  0  0  0  0
  3  9  1  0  0  0  0
  4 21  1  0  0  0  0
  4  8  2  0  0  0  0
  5  4  1  0  0  0  0
  6  8  1  0  0  0  0
  6  7  1  0  0  0  0
  9 10  1  0  0  0  0
  9 11  2  0  0  0  0
 10  6  2  0  0  0  0
 12  2  1  0  0  0  0
 13 14  2  0  0  0  0
 13 12  1  0  0  0  0
 14 16  1  0  0  0  0
 15 17  1  0  0  0  0
 15  3  1  0  0  0  0
 16 17  2  0  0  0  0
 17  1  1  0  0  0  0
 18 13  1  0  0  0  0
 19 18  2  0  0  0  0
 20 18  1  0  0  0  0
 23 30  1  0  0  0  0
 24 25  1  0  0  0  0
 24 32  1  0  0  0  0
 26 22  1  1  0  0  0
 26 25  1  0  0  0  0
 27 28  1  0  0  0  0
 27 29  1  0  0  0  0
 28 23  1  6  0  0  0
 28 26  1  0  0  0  0
 29 24  2  0  0  0  0
 30 21  1  6  0  0  0
 30 31  1  0  0  0  0
 31 22  1  0  0  0  0
 32 34  2  0  0  0  0
 32 33  1  0  0  0  0
M  END
>  <MODEL>
1

>  <REMARK>
 VINA RESULT:     -10.1      0.000      0.000
  Name = 
  4 active torsions:
  status: ('A' for Active; 'I' for Inactive)
    1  A    between atoms: C_3  and  C_25
    2  A    between atoms: C_7  and  C_11
    3  A    between atoms: C_8  and  O_18
    4  A    between atoms: O_18  and  C_30
                            x       y       z     vdW  Elec       q    Type
                         _______ _______ _______ _____ _____    ______ ____

>  <TORSDO>
F 4

$$$$
=
 OpenBabel11062409463D

 34 38  0  0  1  0  0  0  0  0999 V2000
  160.7930  209.2090  153.1160 C   0  0  0  0  0  0  0  0  0  0  0  0
  160.4130  212.5710  151.6590 C   0  0  0  0  0  3  0  0  0  0  0  0
  160.4070  211.8460  153.8220 N   0  0  0  0  0  2  0  0  0  0  0  0
  160.8700  206.8380  153.7260 C   0  0  0  0  0  0  0  0  0  0  0  0
  160.9770  207.8560  152.7770 C   0  0  0  0  0  3  0  0  0  0  0  0
  160.3930  208.5020  155.4260 C   0  0  0  0  0  0  0  0  0  0  0  0
  160.0920  208.7700  156.7940 N   0  0  0  0  0  1  0  0  0  0  0  0
  160.5720  207.1720  155.0440 C   0  0  0  0  0  3  0  0  0  0  0  0
  160.3620  210.9050  154.7950 C   0  0  0  0  0  0  0  0  0  0  0  0
  160.5030  209.5430  154.4650 C   0  0  0  0  0  0  0  0  0  0  0  0
  160.1670  211.2770  155.9830 O   0  0  0  0  0  0  0  0  0  0  0  0
  160.2810  212.4570  150.1790 C   0  0  0  0  0  2  0  0  0  0  0  0
  161.5110  211.9320  149.5320 C   0  0  0  0  0  0  0  0  0  0  0  0
  161.9810  210.7290  149.8490 C   0  0  0  0  0  3  0  0  0  0  0  0
  160.6230  211.5620  152.5130 C   0  0  0  0  0  0  0  0  0  0  0  0
  161.5170  209.8800  150.9610 C   0  0  0  0  0  3  0  0  0  0  0  0
  160.9370  210.2250  152.1340 C   0  0  0  0  0  0  0  0  0  0  0  0
  162.1080  212.6840  148.4150 C   0  0  0  0  0  0  0  0  0  0  0  0
  163.3160  212.2710  147.8650 O   0  0  0  0  0  0  0  0  0  0  0  0
  161.5340  213.7030  147.9450 O   0  0  0  0  0  1  0  0  0  0  0  0
  161.0440  205.4860  153.3920 O   0  0  0  0  0  0  0  0  0  0  0  0
  161.2030  206.2300  150.1030 C   0  0  0  0  0  2  0  0  0  0  0  0
  161.0680  203.8090  151.5870 C   0  0  0  0  0  2  0  0  0  0  0  0
  161.2190  203.4810  147.3970 C   0  0  0  0  0  0  0  0  0  0  0  0
  161.2800  204.8630  148.0030 C   0  0  0  0  0  2  0  0  0  0  0  0
  160.8490  204.8740  149.4700 C   0  0  1  0  0  3  0  0  0  0  0  0
  160.8310  202.5170  149.6490 C   0  0  0  0  0  2  0  0  0  0  0  0
  161.4490  203.7300  150.1800 N   0  0  2  0  0  0  0  0  0  0  0  0
  161.0750  202.3980  148.1720 C   0  0  0  0  0  3  0  0  0  0  0  0
  161.7700  204.9930  152.2620 C   0  0  1  0  0  3  0  0  0  0  0  0
  162.1650  206.1120  151.2880 C   0  0  0  0  0  2  0  0  0  0  0  0
  161.4310  203.3290  145.9480 C   0  0  0  0  0  0  0  0  0  0  0  0
  160.8110  202.4450  145.2970 O   0  0  0  0  0  1  0  0  0  0  0  0
  162.3180  204.1660  145.2820 O   0  0  0  0  0  0  0  0  0  0  0  0
  1 10  1  0  0  0  0
  2 15  2  0  0  0  0
  3  9  1  0  0  0  0
  4  8  2  0  0  0  0
  5  1  2  0  0  0  0
  5  4  1  0  0  0  0
  6  7  1  0  0  0  0
  8  6  1  0  0  0  0
  9 11  2  0  0  0  0
 10  9  1  0  0  0  0
 10  6  2  0  0  0  0
 12  2  1  0  0  0  0
 13 14  2  0  0  0  0
 13 12  1  0  0  0  0
 14 16  1  0  0  0  0
 15  3  1  0  0  0  0
 16 17  2  0  0  0  0
 17 15  1  0  0  0  0
 17  1  1  0  0  0  0
 18 13  1  0  0  0  0
 19 18  2  0  0  0  0
 20 18  1  0  0  0  0
 21  4  1  0  0  0  0
 22 31  1  0  0  0  0
 23 30  1  0  0  0  0
 24 25  1  0  0  0  0
 24 29  2  0  0  0  0
 26 25  1  6  0  0  0
 26 22  1  0  0  0  0
 26 28  1  0  0  0  0
 28 27  1  6  0  0  0
 28 23  1  0  0  0  0
 29 27  1  0  0  0  0
 30 21  1  1  0  0  0
 31 30  1  0  0  0  0
 32 24  1  0  0  0  0
 33 32  1  0  0  0  0
 34 32  2  0  0  0  0
M  END
>  <MODEL>
2

>  <REMARK>
 VINA RESULT:      -9.5      2.341      8.456
  Name = 
  4 active torsions:
  status: ('A' for Active; 'I' for Inactive)
    1  A    between atoms: C_3  and  C_25
    2  A    between atoms: C_7  and  C_11
    3  A    between atoms: C_8  and  O_18
    4  A    between atoms: O_18  and  C_30
                            x       y       z     vdW  Elec       q    Type
                         _______ _______ _______ _____ _____    ______ ____

>  <TORSDO>
F 4

$$$$
=
 OpenBabel11062409463D

 34 38  0  0  1  0  0  0  0  0999 V2000
  161.3360  207.8360  151.7480 C   0  0  0  0  0  0  0  0  0  0  0  0
  161.2870  204.1730  152.1290 C   0  0  0  0  0  3  0  0  0  0  0  0
  160.8490  205.8560  153.6040 N   0  0  0  0  0  2  0  0  0  0  0  0
  161.6680  210.2020  151.2050 C   0  0  0  0  0  0  0  0  0  0  0  0
  161.5920  208.8630  150.8200 C   0  0  0  0  0  3  0  0  0  0  0  0
  161.2170  209.5460  153.4980 C   0  0  0  0  0  0  0  0  0  0  0  0
  161.0380  209.9560  154.8520 N   0  0  0  0  0  1  0  0  0  0  0  0
  161.4840  210.5300  152.5460 C   0  0  0  0  0  3  0  0  0  0  0  0
  160.8410  207.1460  154.0200 C   0  0  0  0  0  0  0  0  0  0  0  0
  161.1360  208.1810  153.1110 C   0  0  0  0  0  0  0  0  0  0  0  0
  160.5900  207.3860  155.2310 O   0  0  0  0  0  0  0  0  0  0  0  0
  161.8610  203.5400  150.9080 C   0  0  0  0  0  2  0  0  0  0  0  0
  161.0350  203.7770  149.6960 C   0  0  0  0  0  0  0  0  0  0  0  0
  160.8020  205.0150  149.2690 C   0  0  0  0  0  3  0  0  0  0  0  0
  161.0930  205.4820  152.3230 C   0  0  0  0  0  0  0  0  0  0  0  0
  161.1190  206.2590  149.9920 C   0  0  0  0  0  3  0  0  0  0  0  0
  161.2370  206.4860  151.3220 C   0  0  0  0  0  0  0  0  0  0  0  0
  160.6180  202.6260  148.8780 C   0  0  0  0  0  0  0  0  0  0  0  0
  159.7560  201.6720  149.4070 O   0  0  0  0  0  1  0  0  0  0  0  0
  161.0320  202.4930  147.6950 O   0  0  0  0  0  0  0  0  0  0  0  0
  161.9320  211.2280  150.2860 O   0  0  0  0  0  0  0  0  0  0  0  0
  163.2370  212.9580  147.6970 C   0  0  0  0  0  2  0  0  0  0  0  0
  160.7250  211.7240  148.1960 C   0  0  0  0  0  2  0  0  0  0  0  0
  161.2060  213.6600  144.4940 C   0  0  0  0  0  0  0  0  0  0  0  0
  162.3830  213.6350  145.4390 C   0  0  0  0  0  2  0  0  0  0  0  0
  161.9780  213.2440  146.8610 C   0  0  1  0  0  3  0  0  0  0  0  0
  159.7940  212.5960  146.2330 C   0  0  0  0  0  2  0  0  0  0  0  0
  161.0380  212.1090  146.8230 N   0  0  2  0  0  0  0  0  0  0  0  0
  160.0310  213.1200  144.8450 C   0  0  0  0  0  3  0  0  0  0  0  0
  161.9500  211.0880  148.8620 C   0  0  1  0  0  3  0  0  0  0  0  0
  163.2850  211.5310  148.2480 C   0  0  0  0  0  2  0  0  0  0  0  0
  161.3970  214.1890  143.1320 C   0  0  0  0  0  0  0  0  0  0  0  0
  160.4050  214.4420  142.3960 O   0  0  0  0  0  0  0  0  0  0  0  0
  162.6780  214.4190  142.6480 O   0  0  0  0  0  1  0  0  0  0  0  0
  1 10  1  0  0  0  0
  2 15  2  0  0  0  0
  3  9  1  0  0  0  0
  4  8  2  0  0  0  0
  5  4  1  0  0  0  0
  5  1  2  0  0  0  0
  6  7  1  0  0  0  0
  8  6  1  0  0  0  0
  9 11  2  0  0  0  0
 10  6  2  0  0  0  0
 10  9  1  0  0  0  0
 12  2  1  0  0  0  0
 13 12  1  0  0  0  0
 14 13  2  0  0  0  0
 14 16  1  0  0  0  0
 15  3  1  0  0  0  0
 16 17  2  0  0  0  0
 17  1  1  0  0  0  0
 17 15  1  0  0  0  0
 18 19  1  0  0  0  0
 18 13  1  0  0  0  0
 20 18  2  0  0  0  0
 21  4  1  0  0  0  0
 22 31  1  0  0  0  0
 23 30  1  0  0  0  0
 24 29  2  0  0  0  0
 24 25  1  0  0  0  0
 26 25  1  6  0  0  0
 26 22  1  0  0  0  0
 28 27  1  1  0  0  0
 28 26  1  0  0  0  0
 28 23  1  0  0  0  0
 29 27  1  0  0  0  0
 30 21  1  1  0  0  0
 31 30  1  0  0  0  0
 32 24  1  0  0  0  0
 33 32  2  0  0  0  0
 34 32  1  0  0  0  0
M  END
>  <MODEL>
3

>  <REMARK>
 VINA RESULT:      -9.4      4.518      7.001
  Name = 
  4 active torsions:
  status: ('A' for Active; 'I' for Inactive)
    1  A    between atoms: C_3  and  C_25
    2  A    between atoms: C_7  and  C_11
    3  A    between atoms: C_8  and  O_18
    4  A    between atoms: O_18  and  C_30
                            x       y       z     vdW  Elec       q    Type
                         _______ _______ _______ _____ _____    ______ ____

>  <TORSDO>
F 4

$$$$
=
 OpenBabel11062409463D

 34 38  0  0  1  0  0  0  0  0999 V2000
  159.8970  210.8000  153.0920 C   0  0  0  0  0  0  0  0  0  0  0  0
  158.2080  213.8470  154.2890 C   0  0  0  0  0  3  0  0  0  0  0  0
  159.2860  213.3800  152.3340 N   0  0  0  0  0  2  0  0  0  0  0  0
  161.1020  208.7030  152.7050 C   0  0  0  0  0  0  0  0  0  0  0  0
  160.2300  209.4850  153.4640 C   0  0  0  0  0  3  0  0  0  0  0  0
  161.3450  210.5370  151.1340 C   0  0  0  0  0  0  0  0  0  0  0  0
  161.9490  211.0220  149.9370 N   0  0  0  0  0  1  0  0  0  0  0  0
  161.6570  209.2410  151.5460 C   0  0  0  0  0  3  0  0  0  0  0  0
  160.0810  212.6410  151.5230 C   0  0  0  0  0  0  0  0  0  0  0  0
  160.4560  211.3370  151.9020 C   0  0  0  0  0  0  0  0  0  0  0  0
  160.4880  213.1560  150.4480 O   0  0  0  0  0  0  0  0  0  0  0  0
  157.8530  213.6840  155.7270 C   0  0  0  0  0  2  0  0  0  0  0  0
  156.8470  212.6140  155.9530 C   0  0  0  0  0  0  0  0  0  0  0  0
  157.1060  211.3590  155.6000 C   0  0  0  0  0  3  0  0  0  0  0  0
  158.7800  212.9240  153.5070 C   0  0  0  0  0  0  0  0  0  0  0  0
  158.2530  210.9000  154.7950 C   0  0  0  0  0  3  0  0  0  0  0  0
  158.9860  211.5610  153.8700 C   0  0  0  0  0  0  0  0  0  0  0  0
  155.6310  212.9270  156.7230 C   0  0  0  0  0  0  0  0  0  0  0  0
  154.8570  211.8990  157.2490 O   0  0  0  0  0  1  0  0  0  0  0  0
  155.2820  214.1220  156.9180 O   0  0  0  0  0  0  0  0  0  0  0  0
  161.4440  207.3940  153.0750 O   0  0  0  0  0  0  0  0  0  0  0  0
  160.8400  206.1860  149.9800 C   0  0  0  0  0  2  0  0  0  0  0  0
  161.5040  205.0030  152.4790 C   0  0  0  0  0  2  0  0  0  0  0  0
  160.9620  202.4070  149.2150 C   0  0  0  0  0  0  0  0  0  0  0  0
  160.8310  203.8920  148.9700 C   0  0  0  0  0  2  0  0  0  0  0  0
  160.6810  204.6840  150.2700 C   0  0  1  0  0  3  0  0  0  0  0  0
  161.2060  202.8360  151.6460 C   0  0  0  0  0  2  0  0  0  0  0  0
  161.6330  204.1840  151.2770 N   0  0  2  0  0  0  0  0  0  0  0  0
  161.2000  201.9330  150.4460 C   0  0  0  0  0  3  0  0  0  0  0  0
  162.0430  206.4150  152.2190 C   0  0  1  0  0  3  0  0  0  0  0  0
  162.0030  206.8280  150.7410 C   0  0  0  0  0  2  0  0  0  0  0  0
  160.9360  201.4900  148.0630 C   0  0  0  0  0  0  0  0  0  0  0  0
  160.4580  201.8600  146.9570 O   0  0  0  0  0  0  0  0  0  0  0  0
  161.4460  200.2030  148.1860 O   0  0  0  0  0  1  0  0  0  0  0  0
  1  5  1  0  0  0  0
  1 17  1  0  0  0  0
  2 12  1  0  0  0  0
  3 15  1  0  0  0  0
  4 21  1  0  0  0  0
  4  5  2  0  0  0  0
  6  8  2  0  0  0  0
  6 10  1  0  0  0  0
  7  6  1  0  0  0  0
  8  4  1  0  0  0  0
  9 10  1  0  0  0  0
  9  3  1  0  0  0  0
 10  1  2  0  0  0  0
 11  9  2  0  0  0  0
 12 13  1  0  0  0  0
 13 18  1  0  0  0  0
 14 13  2  0  0  0  0
 15 17  1  0  0  0  0
 15  2  2  0  0  0  0
 16 14  1  0  0  0  0
 17 16  2  0  0  0  0
 18 20  2  0  0  0  0
 18 19  1  0  0  0  0
 22 26  1  0  0  0  0
 22 31  1  0  0  0  0
 24 29  2  0  0  0  0
 25 24  1  0  0  0  0
 26 25  1  6  0  0  0
 26 28  1  0  0  0  0
 28 27  1  1  0  0  0
 28 23  1  0  0  0  0
 29 27  1  0  0  0  0
 30 23  1  0  0  0  0
 30 21  1  1  0  0  0
 31 30  1  0  0  0  0
 32 34  1  0  0  0  0
 32 24  1  0  0  0  0
 33 32  2  0  0  0  0
M  END
>  <MODEL>
4

>  <REMARK>
 VINA RESULT:      -8.5      2.209     10.075
  Name = 
  4 active torsions:
  status: ('A' for Active; 'I' for Inactive)
    1  A    between atoms: C_3  and  C_25
    2  A    between atoms: C_7  and  C_11
    3  A    between atoms: C_8  and  O_18
    4  A    between atoms: O_18  and  C_30
                            x       y       z     vdW  Elec       q    Type
                         _______ _______ _______ _____ _____    ______ ____

>  <TORSDO>
F 4

$$$$
=
 OpenBabel11062409463D

 34 38  0  0  1  0  0  0  0  0999 V2000
  160.7550  209.7290  152.3100 C   0  0  0  0  0  0  0  0  0  0  0  0
  161.3210  206.3770  153.7310 C   0  0  0  0  0  3  0  0  0  0  0  0
  160.4350  208.2760  154.6320 N   0  0  0  0  0  2  0  0  0  0  0  0
  160.7160  211.8730  151.1260 C   0  0  0  0  0  0  0  0  0  0  0  0
  160.9220  210.4930  151.1410 C   0  0  0  0  0  3  0  0  0  0  0  0
  160.1470  211.7910  153.4840 C   0  0  0  0  0  0  0  0  0  0  0  0
  159.7550  212.5110  154.6500 N   0  0  0  0  0  1  0  0  0  0  0  0
  160.3340  212.5110  152.3030 C   0  0  0  0  0  3  0  0  0  0  0  0
  160.1520  209.6010  154.6570 C   0  0  0  0  0  0  0  0  0  0  0  0
  160.3530  210.3860  153.5040 C   0  0  0  0  0  0  0  0  0  0  0  0
  159.7340  210.1070  155.7320 O   0  0  0  0  0  0  0  0  0  0  0  0
  162.1260  205.5650  152.7750 C   0  0  0  0  0  2  0  0  0  0  0  0
  161.4050  205.2900  151.5060 C   0  0  0  0  0  0  0  0  0  0  0  0
  161.0010  206.2900  150.7280 C   0  0  0  0  0  3  0  0  0  0  0  0
  160.8770  207.6230  153.5280 C   0  0  0  0  0  0  0  0  0  0  0  0
  161.0120  207.7220  151.0770 C   0  0  0  0  0  3  0  0  0  0  0  0
  160.9450  208.3230  152.2880 C   0  0  0  0  0  0  0  0  0  0  0  0
  161.2900  203.8990  151.0350 C   0  0  0  0  0  0  0  0  0  0  0  0
  161.2590  202.8540  151.9520 O   0  0  0  0  0  1  0  0  0  0  0  0
  161.2140  203.6400  149.8040 O   0  0  0  0  0  0  0  0  0  0  0  0
  160.8880  212.6400  149.9640 O   0  0  0  0  0  0  0  0  0  0  0  0
  162.7580  213.7900  147.3990 C   0  0  0  0  0  2  0  0  0  0  0  0
  160.2700  212.4270  147.5880 C   0  0  0  0  0  2  0  0  0  0  0  0
  161.6400  213.3850  143.7290 C   0  0  0  0  0  0  0  0  0  0  0  0
  162.5170  213.7500  144.9040 C   0  0  0  0  0  2  0  0  0  0  0  0
  161.7600  213.6920  146.2320 C   0  0  1  0  0  3  0  0  0  0  0  0
  159.8640  212.6410  145.2930 C   0  0  0  0  0  2  0  0  0  0  0  0
  160.9250  212.4800  146.2850 N   0  0  2  0  0  0  0  0  0  0  0  0
  160.4430  212.8140  143.9170 C   0  0  0  0  0  3  0  0  0  0  0  0
  161.2990  212.1400  148.6880 C   0  0  1  0  0  3  0  0  0  0  0  0
  162.7270  212.5700  148.3240 C   0  0  0  0  0  2  0  0  0  0  0  0
  162.1670  213.5640  142.3660 C   0  0  0  0  0  0  0  0  0  0  0  0
  163.2890  214.1050  142.1760 O   0  0  0  0  0  1  0  0  0  0  0  0
  161.4280  213.1300  141.2720 O   0  0  0  0  0  0  0  0  0  0  0  0
  1 10  1  0  0  0  0
  3  9  1  0  0  0  0
  4  5  1  0  0  0  0
  4  8  2  0  0  0  0
  5  1  2  0  0  0  0
  6 10  2  0  0  0  0
  6  7  1  0  0  0  0
  8  6  1  0  0  0  0
  9 11  2  0  0  0  0
 10  9  1  0  0  0  0
 12  2  1  0  0  0  0
 13 12  1  0  0  0  0
 14 16  1  0  0  0  0
 14 13  2  0  0  0  0
 15  2  2  0  0  0  0
 15  3  1  0  0  0  0
 16 17  2  0  0  0  0
 17  1  1  0  0  0  0
 17 15  1  0  0  0  0
 18 13  1  0  0  0  0
 18 19  1  0  0  0  0
 20 18  2  0  0  0  0
 21  4  1  0  0  0  0
 22 31  1  0  0  0  0
 23 30  1  0  0  0  0
 24 29  2  0  0  0  0
 24 25  1  0  0  0  0
 26 25  1  6  0  0  0
 26 28  1  0  0  0  0
 26 22  1  0  0  0  0
 28 27  1  6  0  0  0
 28 23  1  0  0  0  0
 29 27  1  0  0  0  0
 30 21  1  1  0  0  0
 31 30  1  0  0  0  0
 32 24  1  0  0  0  0
 33 32  1  0  0  0  0
 34 32  2  0  0  0  0
M  END
>  <MODEL>
5

>  <REMARK>
 VINA RESULT:      -8.2      4.562      8.095
  Name = 
  4 active torsions:
  status: ('A' for Active; 'I' for Inactive)
    1  A    between atoms: C_3  and  C_25
    2  A    between atoms: C_7  and  C_11
    3  A    between atoms: C_8  and  O_18
    4  A    between atoms: O_18  and  C_30
                            x       y       z     vdW  Elec       q    Type
                         _______ _______ _______ _____ _____    ______ ____

>  <TORSDO>
F 4

$$$$
=
 OpenBabel11062409463D

 34 38  0  0  1  0  0  0  0  0999 V2000
  161.4160  207.3040  150.9530 C   0  0  0  0  0  0  0  0  0  0  0  0
  161.2080  204.7380  148.3170 C   0  0  0  0  0  3  0  0  0  0  0  0
  162.0250  206.8680  148.2990 N   0  0  0  0  0  2  0  0  0  0  0  0
  161.2070  208.8270  152.8590 C   0  0  0  0  0  0  0  0  0  0  0  0
  161.1030  207.5520  152.3010 C   0  0  0  0  0  3  0  0  0  0  0  0
  161.9670  209.6790  150.7180 C   0  0  0  0  0  0  0  0  0  0  0  0
  162.3990  210.8050  149.9580 N   0  0  0  0  0  1  0  0  0  0  0  0
  161.6350  209.8820  152.0580 C   0  0  0  0  0  3  0  0  0  0  0  0
  162.2130  208.1100  148.8080 C   0  0  0  0  0  0  0  0  0  0  0  0
  161.8650  208.3830  150.1450 C   0  0  0  0  0  0  0  0  0  0  0  0
  162.6780  209.0050  148.0530 O   0  0  0  0  0  0  0  0  0  0  0  0
  160.3890  203.5930  148.8060 C   0  0  0  0  0  2  0  0  0  0  0  0
  161.0240  202.8770  149.9420 C   0  0  0  0  0  0  0  0  0  0  0  0
  161.2910  203.5140  151.0780 C   0  0  0  0  0  3  0  0  0  0  0  0
  161.5440  205.8250  149.0220 C   0  0  0  0  0  0  0  0  0  0  0  0
  161.2060  204.9690  151.3000 C   0  0  0  0  0  3  0  0  0  0  0  0
  161.3260  205.9910  150.4200 C   0  0  0  0  0  0  0  0  0  0  0  0
  161.2000  201.4170  149.8590 C   0  0  0  0  0  0  0  0  0  0  0  0
  161.3220  200.8000  148.6190 O   0  0  0  0  0  0  0  0  0  0  0  0
  161.2460  200.7130  150.9040 O   0  0  0  0  0  1  0  0  0  0  0  0
  160.8880  209.0820  154.2020 O   0  0  0  0  0  0  0  0  0  0  0  0
  158.3260  210.0830  156.1590 C   0  0  0  0  0  2  0  0  0  0  0  0
  159.4870  211.0600  153.7550 C   0  0  0  0  0  2  0  0  0  0  0  0
  156.2190  213.2020  155.3090 C   0  0  0  0  0  0  0  0  0  0  0  0
  156.7140  212.0020  156.0830 C   0  0  0  0  0  2  0  0  0  0  0  0
  157.6360  211.1120  155.2470 C   0  0  1  0  0  3  0  0  0  0  0  0
  157.8170  212.6780  153.4860 C   0  0  0  0  0  2  0  0  0  0  0  0
  158.5870  211.9430  154.4880 N   0  0  2  0  0  0  0  0  0  0  0  0
  156.7790  213.5430  154.1410 C   0  0  0  0  0  3  0  0  0  0  0  0
  160.4230  210.3300  154.7250 C   0  0  1  0  0  3  0  0  0  0  0  0
  159.8530  210.1920  156.1440 C   0  0  0  0  0  2  0  0  0  0  0  0
  155.1850  214.0600  155.9110 C   0  0  0  0  0  0  0  0  0  0  0  0
  155.2880  214.4490  157.1060 O   0  0  0  0  0  1  0  0  0  0  0  0
  154.0840  214.4530  155.1610 O   0  0  0  0  0  0  0  0  0  0  0  0
  1  5  1  0  0  0  0
  2 12  1  0  0  0  0
  2 15  2  0  0  0  0
  3  9  1  0  0  0  0
  3 15  1  0  0  0  0
  4 21  1  0  0  0  0
  5  4  2  0  0  0  0
  6  8  2  0  0  0  0
  7  6  1  0  0  0  0
  8  4  1  0  0  0  0
  9 10  1  0  0  0  0
 10  6  1  0  0  0  0
 10  1  2  0  0  0  0
 11  9  2  0  0  0  0
 12 13  1  0  0  0  0
 13 14  2  0  0  0  0
 14 16  1  0  0  0  0
 15 17  1  0  0  0  0
 17  1  1  0  0  0  0
 17 16  2  0  0  0  0
 18 13  1  0  0  0  0
 18 20  1  0  0  0  0
 19 18  2  0  0  0  0
 23 28  1  0  0  0  0
 23 30  1  0  0  0  0
 24 32  1  0  0  0  0
 24 25  1  0  0  0  0
 26 25  1  1  0  0  0
 26 22  1  0  0  0  0
 27 29  1  0  0  0  0
 28 27  1  6  0  0  0
 28 26  1  0  0  0  0
 29 24  2  0  0  0  0
 30 21  1  6  0  0  0
 30 31  1  0  0  0  0
 31 22  1  0  0  0  0
 32 33  1  0  0  0  0
 34 32  2  0  0  0  0
M  END
>  <MODEL>
6

>  <REMARK>
 VINA RESULT:      -8.1      2.445      3.764
  Name = 
  4 active torsions:
  status: ('A' for Active; 'I' for Inactive)
    1  A    between atoms: C_3  and  C_25
    2  A    between atoms: C_7  and  C_11
    3  A    between atoms: C_8  and  O_18
    4  A    between atoms: O_18  and  C_30
                            x       y       z     vdW  Elec       q    Type
                         _______ _______ _______ _____ _____    ______ ____

>  <TORSDO>
F 4

$$$$
=
 OpenBabel11062409463D

 34 38  0  0  1  0  0  0  0  0999 V2000
  160.3420  210.9470  152.3820 C   0  0  0  0  0  0  0  0  0  0  0  0
  159.7760  213.8320  150.1620 C   0  0  0  0  0  3  0  0  0  0  0  0
  159.4830  213.5670  152.4080 N   0  0  0  0  0  2  0  0  0  0  0  0
  160.6290  208.7950  153.5170 C   0  0  0  0  0  0  0  0  0  0  0  0
  160.7650  209.6050  152.3890 C   0  0  0  0  0  3  0  0  0  0  0  0
  159.6360  210.6620  154.7090 C   0  0  0  0  0  0  0  0  0  0  0  0
  159.0630  211.1440  155.9230 N   0  0  0  0  0  1  0  0  0  0  0  0
  160.0590  209.3320  154.6680 C   0  0  0  0  0  3  0  0  0  0  0  0
  159.3930  212.8470  153.5530 C   0  0  0  0  0  0  0  0  0  0  0  0
  159.7740  211.4910  153.5640 C   0  0  0  0  0  0  0  0  0  0  0  0
  158.9420  213.4120  154.5850 O   0  0  0  0  0  0  0  0  0  0  0  0
  159.9260  213.4010  148.7430 C   0  0  0  0  0  2  0  0  0  0  0  0
  161.3110  212.9740  148.4160 C   0  0  0  0  0  0  0  0  0  0  0  0
  161.8750  211.9580  149.0620 C   0  0  0  0  0  3  0  0  0  0  0  0
  159.9650  213.0660  151.2430 C   0  0  0  0  0  0  0  0  0  0  0  0
  161.3400  211.2840  150.2590 C   0  0  0  0  0  3  0  0  0  0  0  0
  160.5190  211.7530  151.2270 C   0  0  0  0  0  0  0  0  0  0  0  0
  161.9900  213.5770  147.2570 C   0  0  0  0  0  0  0  0  0  0  0  0
  163.0520  214.4530  147.4500 O   0  0  0  0  0  1  0  0  0  0  0  0
  161.6230  213.3050  146.0820 O   0  0  0  0  0  0  0  0  0  0  0  0
  161.0410  207.4540  153.5280 O   0  0  0  0  0  0  0  0  0  0  0  0
  161.1290  207.5480  150.1540 C   0  0  0  0  0  2  0  0  0  0  0  0
  161.1950  205.4630  152.0850 C   0  0  0  0  0  2  0  0  0  0  0  0
  161.3600  204.3300  148.0380 C   0  0  0  0  0  0  0  0  0  0  0  0
  161.3110  205.8050  148.3610 C   0  0  0  0  0  2  0  0  0  0  0  0
  160.8850  206.0700  149.8060 C   0  0  1  0  0  3  0  0  0  0  0  0
  161.0580  203.8010  150.4420 C   0  0  0  0  0  2  0  0  0  0  0  0
  161.5770  205.1390  150.7140 N   0  0  2  0  0  0  0  0  0  0  0  0
  161.3070  203.4130  149.0130 C   0  0  0  0  0  3  0  0  0  0  0  0
  161.8000  206.8080  152.5020 C   0  0  1  0  0  3  0  0  0  0  0  0
  162.1010  207.7410  151.3210 C   0  0  0  0  0  2  0  0  0  0  0  0
  161.5790  203.9140  146.6430 C   0  0  0  0  0  0  0  0  0  0  0  0
  161.1960  202.7810  146.2430 O   0  0  0  0  0  1  0  0  0  0  0  0
  162.2090  204.7720  145.7500 O   0  0  0  0  0  0  0  0  0  0  0  0
  1  5  2  0  0  0  0
  1 10  1  0  0  0  0
  2 15  2  0  0  0  0
  3  9  1  0  0  0  0
  4 21  1  0  0  0  0
  4  8  2  0  0  0  0
  5  4  1  0  0  0  0
  6  7  1  0  0  0  0
  8  6  1  0  0  0  0
  9 10  1  0  0  0  0
  9 11  2  0  0  0  0
 10  6  2  0  0  0  0
 12  2  1  0  0  0  0
 13 12  1  0  0  0  0
 13 14  2  0  0  0  0
 14 16  1  0  0  0  0
 15  3  1  0  0  0  0
 16 17  2  0  0  0  0
 17 15  1  0  0  0  0
 17  1  1  0  0  0  0
 18 19  1  0  0  0  0
 18 13  1  0  0  0  0
 20 18  2  0  0  0  0
 22 31  1  0  0  0  0
 23 30  1  0  0  0  0
 24 25  1  0  0  0  0
 24 29  2  0  0  0  0
 26 25  1  6  0  0  0
 26 22  1  0  0  0  0
 26 28  1  0  0  0  0
 28 27  1  6  0  0  0
 28 23  1  0  0  0  0
 29 27  1  0  0  0  0
 30 21  1  1  0  0  0
 31 30  1  0  0  0  0
 32 24  1  0  0  0  0
 33 32  1  0  0  0  0
 34 32  2  0  0  0  0
M  END
>  <MODEL>
7

>  <REMARK>
 VINA RESULT:      -8.1      2.845      8.423
  Name = 
  4 active torsions:
  status: ('A' for Active; 'I' for Inactive)
    1  A    between atoms: C_3  and  C_25
    2  A    between atoms: C_7  and  C_11
    3  A    between atoms: C_8  and  O_18
    4  A    between atoms: O_18  and  C_30
                            x       y       z     vdW  Elec       q    Type
                         _______ _______ _______ _____ _____    ______ ____

>  <TORSDO>
F 4

$$$$
=
 OpenBabel11062409463D

 34 38  0  0  1  0  0  0  0  0999 V2000
  161.3070  204.6140  149.7510 C   0  0  0  0  0  0  0  0  0  0  0  0
  161.5180  202.9700  146.4610 C   0  0  0  0  0  3  0  0  0  0  0  0
  160.8550  202.1970  148.5020 N   0  0  0  0  0  2  0  0  0  0  0  0
  161.4890  205.9420  151.8010 C   0  0  0  0  0  0  0  0  0  0  0  0
  161.5420  205.8340  150.4110 C   0  0  0  0  0  3  0  0  0  0  0  0
  160.9410  203.5820  151.9420 C   0  0  0  0  0  0  0  0  0  0  0  0
  160.6430  202.4660  152.7780 N   0  0  0  0  0  1  0  0  0  0  0  0
  161.1930  204.8100  152.5550 C   0  0  0  0  0  3  0  0  0  0  0  0
  160.7200  202.2620  149.8490 C   0  0  0  0  0  0  0  0  0  0  0  0
  160.9920  203.4670  150.5270 C   0  0  0  0  0  0  0  0  0  0  0  0
  160.3720  201.2230  150.4690 O   0  0  0  0  0  0  0  0  0  0  0  0
  162.2180  203.8710  145.5020 C   0  0  0  0  0  2  0  0  0  0  0  0
  161.4570  205.1160  145.2230 C   0  0  0  0  0  0  0  0  0  0  0  0
  161.1570  205.9590  146.2060 C   0  0  0  0  0  3  0  0  0  0  0  0
  161.2110  203.2560  147.7320 C   0  0  0  0  0  0  0  0  0  0  0  0
  161.3280  205.7090  147.6490 C   0  0  0  0  0  3  0  0  0  0  0  0
  161.3410  204.5410  148.3340 C   0  0  0  0  0  0  0  0  0  0  0  0
  161.1850  205.4900  143.8250 C   0  0  0  0  0  0  0  0  0  0  0  0
  160.4480  204.6400  143.0070 O   0  0  0  0  0  0  0  0  0  0  0  0
  161.6100  206.5800  143.3550 O   0  0  0  0  0  1  0  0  0  0  0  0
  161.7310  207.1540  152.4640 O   0  0  0  0  0  0  0  0  0  0  0  0
  161.5010  210.4620  153.1020 C   0  0  0  0  0  2  0  0  0  0  0  0
  160.7630  208.1110  154.5190 C   0  0  0  0  0  2  0  0  0  0  0  0
  159.9670  211.7970  156.3800 C   0  0  0  0  0  0  0  0  0  0  0  0
  160.5820  211.8170  155.0010 C   0  0  0  0  0  2  0  0  0  0  0  0
  161.1540  210.4560  154.6010 C   0  0  1  0  0  3  0  0  0  0  0  0
  160.1790  209.3260  156.4320 C   0  0  0  0  0  2  0  0  0  0  0  0
  160.2140  209.3840  154.9730 N   0  0  2  0  0  0  0  0  0  0  0  0
  159.7250  210.6380  157.0070 C   0  0  0  0  0  3  0  0  0  0  0  0
  160.7300  208.0320  152.9890 C   0  0  1  0  0  3  0  0  0  0  0  0
  160.7370  209.4040  152.3010 C   0  0  0  0  0  2  0  0  0  0  0  0
  159.5320  213.0670  156.9840 C   0  0  0  0  0  0  0  0  0  0  0  0
  158.3180  213.2650  157.2600 O   0  0  0  0  0  0  0  0  0  0  0  0
  160.4620  214.0620  157.2600 O   0  0  0  0  0  1  0  0  0  0  0  0
  1  5  2  0  0  0  0
  1 10  1  0  0  0  0
  2 15  2  0  0  0  0
  3  9  1  0  0  0  0
  4 21  1  0  0  0  0
  4  8  2  0  0  0  0
  5  4  1  0  0  0  0
  6  8  1  0  0  0  0
  6  7  1  0  0  0  0
  9 11  2  0  0  0  0
  9 10  1  0  0  0  0
 10  6  2  0  0  0  0
 12  2  1  0  0  0  0
 13 12  1  0  0  0  0
 13 14  2  0  0  0  0
 14 16  1  0  0  0  0
 15 17  1  0  0  0  0
 15  3  1  0  0  0  0
 16 17  2  0  0  0  0
 17  1  1  0  0  0  0
 18 13  1  0  0  0  0
 19 18  2  0  0  0  0
 20 18  1  0  0  0  0
 24 32  1  0  0  0  0
 24 29  2  0  0  0  0
 25 24  1  0  0  0  0
 26 22  1  6  0  0  0
 26 28  1  0  0  0  0
 26 25  1  0  0  0  0
 27 29  1  0  0  0  0
 28 23  1  6  0  0  0
 28 27  1  0  0  0  0
 30 21  1  6  0  0  0
 30 23  1  0  0  0  0
 31 30  1  0  0  0  0
 31 22  1  0  0  0  0
 32 33  2  0  0  0  0
 32 34  1  0  0  0  0
M  END
>  <MODEL>
8

>  <REMARK>
 VINA RESULT:      -7.6      1.885      2.600
  Name = 
  4 active torsions:
  status: ('A' for Active; 'I' for Inactive)
    1  A    between atoms: C_3  and  C_25
    2  A    between atoms: C_7  and  C_11
    3  A    between atoms: C_8  and  O_18
    4  A    between atoms: O_18  and  C_30
                            x       y       z     vdW  Elec       q    Type
                         _______ _______ _______ _____ _____    ______ ____

>  <TORSDO>
F 4

$$$$
=
 OpenBabel11062409463D

 34 38  0  0  1  0  0  0  0  0999 V2000
  159.4920  212.8070  150.9120 C   0  0  0  0  0  0  0  0  0  0  0  0
  158.6410  213.6350  147.4240 C   0  0  0  0  0  3  0  0  0  0  0  0
  157.5690  214.0680  149.3900 N   0  0  0  0  0  2  0  0  0  0  0  0
  160.2490  211.9170  153.0650 C   0  0  0  0  0  0  0  0  0  0  0  0
  160.4550  212.1570  151.7060 C   0  0  0  0  0  3  0  0  0  0  0  0
  158.0780  212.9920  152.9030 C   0  0  0  0  0  0  0  0  0  0  0  0
  156.8830  213.3910  153.5700 N   0  0  0  0  0  1  0  0  0  0  0  0
  159.0570  212.3340  153.6510 C   0  0  0  0  0  3  0  0  0  0  0  0
  157.3480  213.9240  150.7200 C   0  0  0  0  0  0  0  0  0  0  0  0
  158.2840  213.2400  151.5200 C   0  0  0  0  0  0  0  0  0  0  0  0
  156.2850  214.3930  151.2070 O   0  0  0  0  0  0  0  0  0  0  0  0
  159.5790  212.9300  146.5060 C   0  0  0  0  0  2  0  0  0  0  0  0
  160.9810  213.4000  146.6450 C   0  0  0  0  0  0  0  0  0  0  0  0
  161.6180  213.2910  147.8070 C   0  0  0  0  0  3  0  0  0  0  0  0
  158.6830  213.6150  148.7620 C   0  0  0  0  0  0  0  0  0  0  0  0
  161.0130  212.9160  149.0980 C   0  0  0  0  0  3  0  0  0  0  0  0
  159.7420  213.0610  149.5380 C   0  0  0  0  0  0  0  0  0  0  0  0
  161.7140  213.8320  145.4420 C   0  0  0  0  0  0  0  0  0  0  0  0
  163.0850  213.6200  145.3490 O   0  0  0  0  0  1  0  0  0  0  0  0
  161.1110  214.3910  144.4870 O   0  0  0  0  0  0  0  0  0  0  0  0
  161.2020  211.2630  153.8600 O   0  0  0  0  0  0  0  0  0  0  0  0
  161.1540  209.1050  151.2640 C   0  0  0  0  0  2  0  0  0  0  0  0
  161.2310  208.8100  154.0910 C   0  0  0  0  0  2  0  0  0  0  0  0
  161.1920  205.2840  151.7990 C   0  0  0  0  0  0  0  0  0  0  0  0
  161.2050  206.6060  151.0670 C   0  0  0  0  0  2  0  0  0  0  0  0
  160.8470  207.7790  151.9810 C   0  0  1  0  0  3  0  0  0  0  0  0
  160.9720  206.4870  153.9560 C   0  0  0  0  0  2  0  0  0  0  0  0
  161.5460  207.6440  153.2720 N   0  0  2  0  0  0  0  0  0  0  0  0
  161.1490  205.2410  153.1370 C   0  0  0  0  0  3  0  0  0  0  0  0
  161.8970  210.0620  153.5100 C   0  0  1  0  0  3  0  0  0  0  0  0
  162.1790  209.9680  152.0040 C   0  0  0  0  0  2  0  0  0  0  0  0
  161.3400  204.0410  151.0240 C   0  0  0  0  0  0  0  0  0  0  0  0
  161.0340  204.0040  149.8020 O   0  0  0  0  0  0  0  0  0  0  0  0
  161.8250  202.8920  151.6380 O   0  0  0  0  0  1  0  0  0  0  0  0
  1 10  2  0  0  0  0
  1  5  1  0  0  0  0
  2 15  2  0  0  0  0
  3  9  1  0  0  0  0
  4  8  1  0  0  0  0
  4 21  1  0  0  0  0
  5  4  2  0  0  0  0
  6  7  1  0  0  0  0
  6  8  2  0  0  0  0
  9 11  2  0  0  0  0
  9 10  1  0  0  0  0
 10  6  1  0  0  0  0
 12 13  1  0  0  0  0
 12  2  1  0  0  0  0
 13 14  2  0  0  0  0
 14 16  1  0  0  0  0
 15  3  1  0  0  0  0
 15 17  1  0  0  0  0
 16 17  2  0  0  0  0
 17  1  1  0  0  0  0
 18 13  1  0  0  0  0
 19 18  1  0  0  0  0
 20 18  2  0  0  0  0
 22 26  1  0  0  0  0
 22 31  1  0  0  0  0
 24 29  2  0  0  0  0
 25 24  1  0  0  0  0
 26 25  1  6  0  0  0
 26 28  1  0  0  0  0
 28 27  1  1  0  0  0
 28 23  1  0  0  0  0
 29 27  1  0  0  0  0
 30 21  1  6  0  0  0
 30 23  1  0  0  0  0
 31 30  1  0  0  0  0
 32 34  1  0  0  0  0
 32 24  1  0  0  0  0
 33 32  2  0  0  0  0
M  END
>  <MODEL>
9

>  <REMARK>
 VINA RESULT:      -7.5      3.946      7.912
  Name = 
  4 active torsions:
  status: ('A' for Active; 'I' for Inactive)
    1  A    between atoms: C_3  and  C_25
    2  A    between atoms: C_7  and  C_11
    3  A    between atoms: C_8  and  O_18
    4  A    between atoms: O_18  and  C_30
                            x       y       z     vdW  Elec       q    Type
                         _______ _______ _______ _____ _____    ______ ____

>  <TORSDO>
F 4

$$$$
