=
 OpenBabel11062410193D

 43 49  0  0  1  0  0  0  0  0999 V2000
  161.8630  210.3240  149.0600 C   0  0  0  0  0  3  0  0  0  0  0  0
  160.7960  203.1450  150.9230 C   0  0  0  0  0  0  0  0  0  0  0  0
  161.5820  207.9310  149.6270 C   0  0  0  0  0  0  0  0  0  0  0  0
  160.9620  205.2270  149.6970 C   0  0  0  0  0  0  0  0  0  0  0  0
  161.2520  203.7830  152.0830 C   0  0  0  0  0  3  0  0  0  0  0  0
  160.4950  201.8250  150.9540 F   0  0  0  0  0  0  0  0  0  0  0  0
  161.4230  205.8710  150.8750 C   0  0  0  0  0  0  0  0  0  0  0  0
  160.6520  203.8660  149.7340 C   0  0  0  0  0  3  0  0  0  0  0  0
  161.5660  205.1450  152.0620 C   0  0  0  0  0  3  0  0  0  0  0  0
  162.1880  208.0740  151.8550 N   0  0  0  0  0  0  0  0  0  0  0  0
  161.7260  207.2320  150.8030 C   0  0  0  0  0  0  0  0  0  0  0  0
  161.1240  207.3280  148.4560 C   0  0  0  0  0  3  0  0  0  0  0  0
  161.9640  209.3030  149.9160 C   0  0  0  0  0  0  0  0  0  0  0  0
  162.3760  209.3470  151.2920 N   0  0  0  0  0  0  0  0  0  0  0  0
  160.8150  205.9570  148.5000 C   0  0  0  0  0  3  0  0  0  0  0  0
  161.4870  211.0290  152.9040 C   0  0  1  0  0  3  0  0  0  0  0  0
  162.4960  210.2270  153.4680 O   0  0  0  0  0  0  0  0  0  0  0  0
  162.6580  210.5340  152.1030 C   0  0  1  0  0  3  0  0  0  0  0  0
  159.5790  211.4420  155.6740 O   0  0  0  0  0  1  0  0  0  0  0  0
  158.8680  210.7390  154.6960 C   0  0  2  0  0  0  0  0  0  0  0  0
  160.1860  210.2140  152.7710 C   0  0  1  0  0  3  0  0  0  0  0  0
  159.2570  212.2100  151.4600 C   0  0  0  0  0  1  0  0  0  0  0  0
  159.7430  209.6490  154.0950 C   0  0  1  0  0  3  0  0  0  0  0  0
  158.4860  211.6290  153.6690 O   0  0  0  0  0  0  0  0  0  0  0  0
  160.7900  209.2690  154.9230 F   0  0  0  0  0  0  0  0  0  0  0  0
  158.9880  211.1010  152.4670 C   0  0  2  0  0  3  0  0  0  0  0  0
  157.7130  210.1340  155.2770 O   0  0  0  0  0  0  0  0  0  0  0  0
  156.4670  210.7630  155.3900 C   0  0  0  0  0  0  0  0  0  0  0  0
  155.4220  210.0870  155.2000 O   0  0  0  0  0  0  0  0  0  0  0  0
  156.3510  212.2180  155.7320 C   0  0  2  0  0  3  0  0  0  0  0  0
  155.5540  214.3410  155.0560 C   0  0  0  0  0  2  0  0  0  0  0  0
  155.3840  213.8980  157.2600 C   0  0  0  0  0  2  0  0  0  0  0  0
  154.6910  214.4410  156.1630 O   0  0  0  0  0  0  0  0  0  0  0  0
  155.6060  212.4030  157.0520 C   0  0  0  0  0  2  0  0  0  0  0  0
  155.6800  212.9410  154.6520 N   0  0  0  0  0  2  0  0  0  0  0  0
  162.1920  211.6630  149.4190 N   0  0  0  0  0  0  0  0  0  0  0  0
  160.0810  213.7080  147.0120 C   0  0  0  0  0  2  0  0  0  0  0  0
  162.9680  214.3250  146.9290 C   0  0  0  0  0  2  0  0  0  0  0  0
  162.1150  214.4400  145.6610 C   0  0  0  0  0  2  0  0  0  0  0  0
  160.5220  212.5320  147.8730 C   0  0  0  0  0  2  0  0  0  0  0  0
  161.8770  212.7720  148.5360 C   0  0  0  0  0  3  0  0  0  0  0  0
  160.8000  213.6540  145.6720 C   0  0  0  0  0  2  0  0  0  0  0  0
  162.9920  212.9190  147.5070 C   0  0  0  0  0  2  0  0  0  0  0  0
  1 36  2  0  0  0  0
  1 13  1  0  0  0  0
  2  6  1  0  0  0  0
  2  5  1  0  0  0  0
  3 13  2  0  0  0  0
  3 11  1  0  0  0  0
  4  8  1  0  0  0  0
  4  7  2  0  0  0  0
  7  9  1  0  0  0  0
  8  2  2  0  0  0  0
  9  5  2  0  0  0  0
 11  7  1  0  0  0  0
 11 10  2  0  0  0  0
 12 15  2  0  0  0  0
 12  3  1  0  0  0  0
 13 14  1  0  0  0  0
 14 10  1  0  0  0  0
 15  4  1  0  0  0  0
 16 17  1  1  0  0  0
 18 14  1  6  0  0  0
 18 16  1  0  0  0  0
 18 17  1  0  0  0  0
 20 27  1  0  0  0  0
 20 19  1  1  0  0  0
 21 16  1  1  0  0  0
 21 23  1  0  0  0  0
 23 20  1  0  0  0  0
 23 25  1  1  0  0  0
 24 20  1  0  0  0  0
 26 22  1  6  0  0  0
 26 21  1  0  0  0  0
 26 24  1  0  0  0  0
 27 28  1  0  0  0  0
 29 28  2  0  0  0  0
 30 28  1  6  0  0  0
 30 34  1  0  0  0  0
 31 33  1  0  0  0  0
 33 32  1  0  0  0  0
 34 32  1  0  0  0  0
 35 31  1  0  0  0  0
 35 30  1  0  0  0  0
 37 40  1  0  0  0  0
 38 43  1  0  0  0  0
 39 42  1  0  0  0  0
 39 38  1  0  0  0  0
 40 41  1  0  0  0  0
 41 36  1  0  0  0  0
 42 37  1  0  0  0  0
 43 41  1  0  0  0  0
M  END
>  <MODEL>
1

>  <REMARK>
 VINA RESULT:      -7.9      0.000      0.000
  Name = 
  7 active torsions:
  status: ('A' for Active; 'I' for Inactive)
    1  A    between atoms: C_1  and  N_28
    2  A    between atoms: C_2  and  C_6
    3  A    between atoms: C_4  and  O_22
    4  A    between atoms: C_11  and  C_14
    5  A    between atoms: C_13  and  N_38
    6  A    between atoms: C_14  and  O_22
    7  A    between atoms: N_28  and  C_35
                            x       y       z     vdW  Elec       q    Type
                         _______ _______ _______ _____ _____    ______ ____

>  <TORSDO>
F 7

$$$$
=
 OpenBabel11062410193D

 43 49  0  0  1  0  0  0  0  0999 V2000
  160.0370  213.1500  150.1460 C   0  0  0  0  0  3  0  0  0  0  0  0
  155.7960  212.2890  156.2630 C   0  0  0  0  0  0  0  0  0  0  0  0
  158.5770  212.8220  152.1170 C   0  0  0  0  0  0  0  0  0  0  0  0
  156.6420  212.9780  154.1000 C   0  0  0  0  0  0  0  0  0  0  0  0
  156.8990  211.4440  156.4340 C   0  0  0  0  0  3  0  0  0  0  0  0
  154.8490  212.3670  157.2290 F   0  0  0  0  0  0  0  0  0  0  0  0
  157.7590  212.1200  154.2770 C   0  0  0  0  0  0  0  0  0  0  0  0
  155.6680  213.0540  155.0990 C   0  0  0  0  0  3  0  0  0  0  0  0
  157.8810  211.3580  155.4440 C   0  0  0  0  0  3  0  0  0  0  0  0
  159.9070  211.2920  153.2300 N   0  0  0  0  0  0  0  0  0  0  0  0
  158.7120  212.0670  153.2590 C   0  0  0  0  0  0  0  0  0  0  0  0
  157.4940  213.6790  151.9180 C   0  0  0  0  0  3  0  0  0  0  0  0
  159.7400  212.5350  151.2940 C   0  0  0  0  0  0  0  0  0  0  0  0
  160.5200  211.5510  151.9930 N   0  0  0  0  0  0  0  0  0  0  0  0
  156.5170  213.7500  152.9270 C   0  0  0  0  0  3  0  0  0  0  0  0
  162.0500  209.6000  151.7290 C   0  0  1  0  0  3  0  0  0  0  0  0
  161.8380  210.2830  150.5170 O   0  0  0  0  0  0  0  0  0  0  0  0
  161.8730  211.0910  151.6710 C   0  0  1  0  0  3  0  0  0  0  0  0
  162.6950  206.2860  151.4290 O   0  0  0  0  0  1  0  0  0  0  0  0
  161.4420  206.4850  152.0160 C   0  0  2  0  0  0  0  0  0  0  0  0
  160.7930  208.7850  152.0950 C   0  0  1  0  0  3  0  0  0  0  0  0
  161.5440  209.0230  154.5330 C   0  0  0  0  0  1  0  0  0  0  0  0
  160.6660  207.5450  151.2490 C   0  0  1  0  0  3  0  0  0  0  0  0
  161.6160  206.9260  153.3460 O   0  0  0  0  0  0  0  0  0  0  0  0
  161.1060  207.7070  149.9430 F   0  0  0  0  0  0  0  0  0  0  0  0
  160.9150  208.1390  153.4660 C   0  0  2  0  0  3  0  0  0  0  0  0
  160.6980  205.2660  151.9970 O   0  0  0  0  0  0  0  0  0  0  0  0
  161.1290  204.0910  151.3690 C   0  0  0  0  0  0  0  0  0  0  0  0
  161.8640  203.2920  152.0070 O   0  0  0  0  0  0  0  0  0  0  0  0
  160.7340  203.7640  149.9600 C   0  0  2  0  0  3  0  0  0  0  0  0
  161.1820  204.1020  147.6620 C   0  0  0  0  0  2  0  0  0  0  0  0
  160.5560  202.0120  148.2300 C   0  0  0  0  0  2  0  0  0  0  0  0
  161.4740  202.7410  147.4520 O   0  0  0  0  0  0  0  0  0  0  0  0
  160.8140  202.2590  149.7140 C   0  0  0  0  0  2  0  0  0  0  0  0
  161.5800  204.4910  149.0140 N   0  0  0  0  0  2  0  0  0  0  0  0
  161.2270  212.8730  149.4130 N   0  0  0  0  0  0  0  0  0  0  0  0
  160.2470  214.2460  146.0080 C   0  0  0  0  0  2  0  0  0  0  0  0
  163.0660  213.3890  146.2130 C   0  0  0  0  0  2  0  0  0  0  0  0
  162.3140  213.2630  144.8840 C   0  0  0  0  0  2  0  0  0  0  0  0
  160.1090  213.5560  147.3590 C   0  0  0  0  0  2  0  0  0  0  0  0
  161.4430  213.4450  148.0960 C   0  0  0  0  0  3  0  0  0  0  0  0
  160.7850  213.2560  144.9860 C   0  0  0  0  0  2  0  0  0  0  0  0
  162.4380  212.5770  147.3350 C   0  0  0  0  0  2  0  0  0  0  0  0
  1 13  1  0  0  0  0
  2  5  1  0  0  0  0
  2  6  1  0  0  0  0
  3 11  1  0  0  0  0
  4  7  2  0  0  0  0
  4  8  1  0  0  0  0
  7  9  1  0  0  0  0
  8  2  2  0  0  0  0
  9  5  2  0  0  0  0
 10 11  2  0  0  0  0
 11  7  1  0  0  0  0
 12  3  1  0  0  0  0
 12 15  2  0  0  0  0
 13 14  1  0  0  0  0
 13  3  2  0  0  0  0
 14 10  1  0  0  0  0
 15  4  1  0  0  0  0
 16 17  1  6  0  0  0
 17 18  1  0  0  0  0
 18 16  1  0  0  0  0
 18 14  1  1  0  0  0
 20 19  1  6  0  0  0
 20 24  1  0  0  0  0
 21 16  1  6  0  0  0
 21 26  1  0  0  0  0
 23 25  1  6  0  0  0
 23 20  1  0  0  0  0
 23 21  1  0  0  0  0
 24 26  1  0  0  0  0
 26 22  1  1  0  0  0
 27 20  1  0  0  0  0
 28 27  1  0  0  0  0
 28 29  2  0  0  0  0
 30 28  1  1  0  0  0
 31 35  1  0  0  0  0
 32 34  1  0  0  0  0
 33 31  1  0  0  0  0
 33 32  1  0  0  0  0
 34 30  1  0  0  0  0
 35 30  1  0  0  0  0
 36  1  2  0  0  0  0
 37 40  1  0  0  0  0
 38 43  1  0  0  0  0
 39 42  1  0  0  0  0
 39 38  1  0  0  0  0
 40 41  1  0  0  0  0
 41 36  1  0  0  0  0
 42 37  1  0  0  0  0
 43 41  1  0  0  0  0
M  END
>  <MODEL>
2

>  <REMARK>
 VINA RESULT:      -7.2      3.125      7.882
  Name = 
  7 active torsions:
  status: ('A' for Active; 'I' for Inactive)
    1  A    between atoms: C_1  and  N_28
    2  A    between atoms: C_2  and  C_6
    3  A    between atoms: C_4  and  O_22
    4  A    between atoms: C_11  and  C_14
    5  A    between atoms: C_13  and  N_38
    6  A    between atoms: C_14  and  O_22
    7  A    between atoms: N_28  and  C_35
                            x       y       z     vdW  Elec       q    Type
                         _______ _______ _______ _____ _____    ______ ____

>  <TORSDO>
F 7

$$$$
=
 OpenBabel11062410193D

 43 49  0  0  1  0  0  0  0  0999 V2000
  160.9540  208.8180  152.6930 C   0  0  0  0  0  2  0  0  0  0  0  0
  161.9020  204.6380  146.5470 C   0  0  0  0  0  0  0  0  0  0  0  0
  161.1790  207.4310  150.6560 C   0  0  0  0  0  0  0  0  0  0  0  0
  161.3650  205.3890  148.7870 C   0  0  0  0  0  0  0  0  0  0  0  0
  162.2550  205.9440  146.1860 C   0  0  0  0  0  3  0  0  0  0  0  0
  161.9900  203.6390  145.6370 F   0  0  0  0  0  0  0  0  0  0  0  0
  161.7240  206.7120  148.4180 C   0  0  0  0  0  0  0  0  0  0  0  0
  161.4590  204.3620  147.8450 C   0  0  0  0  0  3  0  0  0  0  0  0
  162.1670  206.9820  147.1190 C   0  0  0  0  0  3  0  0  0  0  0  0
  161.9330  209.0950  149.2370 N   0  0  0  0  0  0  0  0  0  0  0  0
  161.6180  207.7130  149.3830 C   0  0  0  0  0  0  0  0  0  0  0  0
  160.8270  206.1410  151.0510 C   0  0  0  0  0  3  0  0  0  0  0  0
  161.2080  208.6860  151.3890 C   0  0  0  0  0  0  0  0  0  0  0  0
  161.6370  209.7030  150.4680 N   0  0  0  0  0  0  0  0  0  0  0  0
  160.9220  205.1120  150.0960 C   0  0  0  0  0  3  0  0  0  0  0  0
  162.0230  212.0040  149.5870 C   0  0  1  0  0  3  0  0  0  0  0  0
  160.9380  211.9470  150.4810 O   0  0  0  0  0  0  0  0  0  0  0  0
  162.0120  211.0850  150.7760 C   0  0  1  0  0  3  0  0  0  0  0  0
  160.9730  214.4090  147.4430 O   0  0  0  0  0  1  0  0  0  0  0  0
  161.0820  213.1830  146.7800 C   0  0  2  0  0  0  0  0  0  0  0  0
  161.6220  211.3680  148.2400 C   0  0  1  0  0  3  0  0  0  0  0  0
  164.1090  211.4800  147.6310 C   0  0  0  0  0  1  0  0  0  0  0  0
  160.4510  212.0790  147.6150 C   0  0  1  0  0  3  0  0  0  0  0  0
  162.4470  212.8790  146.5860 O   0  0  0  0  0  0  0  0  0  0  0  0
  159.5230  212.5490  148.5320 F   0  0  0  0  0  0  0  0  0  0  0  0
  162.6680  211.6160  147.1630 C   0  0  2  0  0  3  0  0  0  0  0  0
  160.4100  213.2500  145.5220 O   0  0  0  0  0  0  0  0  0  0  0  0
  161.0550  213.4470  144.2950 C   0  0  0  0  0  0  0  0  0  0  0  0
  161.7980  214.4530  144.1500 O   0  0  0  0  0  0  0  0  0  0  0  0
  160.8810  212.4890  143.1550 C   0  0  2  0  0  3  0  0  0  0  0  0
  159.7090  211.9970  141.1590 C   0  0  0  0  0  2  0  0  0  0  0  0
  161.9020  211.4770  141.1480 C   0  0  0  0  0  2  0  0  0  0  0  0
  160.8790  212.0610  140.3800 O   0  0  0  0  0  0  0  0  0  0  0  0
  162.1870  212.3330  142.3780 C   0  0  0  0  0  2  0  0  0  0  0  0
  159.8050  212.9400  142.2730 N   0  0  0  0  0  2  0  0  0  0  0  0
  161.0610  210.0660  153.3740 N   0  0  0  0  0  2  0  0  0  0  0  0
  157.7340  211.8020  153.9650 C   0  0  0  0  0  2  0  0  0  0  0  0
  159.4730  211.6550  156.3470 C   0  0  0  0  0  2  0  0  0  0  0  0
  158.5300  212.8470  156.1500 C   0  0  0  0  0  2  0  0  0  0  0  0
  158.9750  211.3160  153.2280 C   0  0  0  0  0  2  0  0  0  0  0  0
  159.9530  210.5900  154.1520 C   0  0  0  0  0  3  0  0  0  0  0  0
  158.0570  213.0870  154.7120 C   0  0  0  0  0  2  0  0  0  0  0  0
  160.4990  211.5140  155.2340 C   0  0  0  0  0  2  0  0  0  0  0  0
  1 36  1  0  0  0  0
  2  8  1  0  0  0  0
  3 12  1  0  0  0  0
  3 13  2  0  0  0  0
  4 15  1  0  0  0  0
  5  2  2  0  0  0  0
  5  9  1  0  0  0  0
  6  2  1  0  0  0  0
  7  4  1  0  0  0  0
  7 11  1  0  0  0  0
  8  4  2  0  0  0  0
  9  7  2  0  0  0  0
 10 11  2  0  0  0  0
 10 14  1  0  0  0  0
 11  3  1  0  0  0  0
 13  1  1  0  0  0  0
 14 13  1  0  0  0  0
 15 12  2  0  0  0  0
 16 17  1  1  0  0  0
 16 18  1  0  0  0  0
 17 18  1  0  0  0  0
 18 14  1  6  0  0  0
 20 19  1  1  0  0  0
 20 23  1  0  0  0  0
 21 16  1  1  0  0  0
 23 21  1  0  0  0  0
 23 25  1  1  0  0  0
 24 20  1  0  0  0  0
 24 26  1  0  0  0  0
 26 22  1  1  0  0  0
 26 21  1  0  0  0  0
 27 20  1  0  0  0  0
 28 27  1  0  0  0  0
 29 28  2  0  0  0  0
 30 28  1  1  0  0  0
 31 35  1  0  0  0  0
 32 34  1  0  0  0  0
 33 32  1  0  0  0  0
 33 31  1  0  0  0  0
 34 30  1  0  0  0  0
 35 30  1  0  0  0  0
 36 41  1  0  0  0  0
 37 42  1  0  0  0  0
 39 38  1  0  0  0  0
 40 37  1  0  0  0  0
 40 41  1  0  0  0  0
 41 43  1  0  0  0  0
 42 39  1  0  0  0  0
 43 38  1  0  0  0  0
M  END
>  <MODEL>
3

>  <REMARK>
 VINA RESULT:      -6.0      4.239      8.417
  Name = 
  7 active torsions:
  status: ('A' for Active; 'I' for Inactive)
    1  A    between atoms: C_1  and  N_28
    2  A    between atoms: C_2  and  C_6
    3  A    between atoms: C_4  and  O_22
    4  A    between atoms: C_11  and  C_14
    5  A    between atoms: C_13  and  N_38
    6  A    between atoms: C_14  and  O_22
    7  A    between atoms: N_28  and  C_35
                            x       y       z     vdW  Elec       q    Type
                         _______ _______ _______ _____ _____    ______ ____

>  <TORSDO>
F 7

$$$$
=
 OpenBabel11062410193D

 43 49  0  0  1  0  0  0  0  0999 V2000
  161.0420  208.0060  153.1920 C   0  0  0  0  0  2  0  0  0  0  0  0
  161.7580  204.5350  146.5900 C   0  0  0  0  0  0  0  0  0  0  0  0
  161.1910  206.8680  150.9990 C   0  0  0  0  0  0  0  0  0  0  0  0
  161.1870  205.0750  148.8810 C   0  0  0  0  0  0  0  0  0  0  0  0
  162.3370  205.7990  146.4280 C   0  0  0  0  0  3  0  0  0  0  0  0
  161.7530  203.6580  145.5580 F   0  0  0  0  0  0  0  0  0  0  0  0
  161.7760  206.3560  148.7140 C   0  0  0  0  0  0  0  0  0  0  0  0
  161.1850  204.1740  147.8140 C   0  0  0  0  0  3  0  0  0  0  0  0
  162.3480  206.7110  147.4880 C   0  0  0  0  0  3  0  0  0  0  0  0
  162.2980  208.5490  149.8590 N   0  0  0  0  0  0  0  0  0  0  0  0
  161.7590  207.2320  149.8000 C   0  0  0  0  0  0  0  0  0  0  0  0
  160.6120  205.6150  151.1960 C   0  0  0  0  0  3  0  0  0  0  0  0
  161.3650  207.9990  151.8960 C   0  0  0  0  0  0  0  0  0  0  0  0
  162.0140  209.0380  151.1450 N   0  0  0  0  0  0  0  0  0  0  0  0
  160.6120  204.7140  150.1170 C   0  0  0  0  0  3  0  0  0  0  0  0
  162.2050  211.5080  150.8630 C   0  0  1  0  0  3  0  0  0  0  0  0
  161.5410  211.1540  152.0520 O   0  0  0  0  0  0  0  0  0  0  0  0
  162.5800  210.2890  151.6570 C   0  0  1  0  0  3  0  0  0  0  0  0
  160.8620  214.4470  149.8390 O   0  0  0  0  0  1  0  0  0  0  0  0
  160.5500  213.4290  148.9320 C   0  0  2  0  0  0  0  0  0  0  0  0
  161.2770  211.2690  149.6560 C   0  0  1  0  0  3  0  0  0  0  0  0
  163.3910  211.3800  148.2110 C   0  0  0  0  0  1  0  0  0  0  0  0
  160.0840  212.1870  149.6780 C   0  0  1  0  0  3  0  0  0  0  0  0
  161.7040  213.1020  148.1870 O   0  0  0  0  0  0  0  0  0  0  0  0
  159.6080  212.4610  150.9530 F   0  0  0  0  0  0  0  0  0  0  0  0
  161.9150  211.7220  148.3510 C   0  0  2  0  0  3  0  0  0  0  0  0
  159.5070  213.8610  148.0590 O   0  0  0  0  0  0  0  0  0  0  0  0
  159.1120  213.1740  146.9040 C   0  0  0  0  0  0  0  0  0  0  0  0
  158.3230  212.1990  147.0140 O   0  0  0  0  0  0  0  0  0  0  0  0
  159.6050  213.5740  145.5460 C   0  0  2  0  0  3  0  0  0  0  0  0
  160.9560  212.9910  143.6930 C   0  0  0  0  0  2  0  0  0  0  0  0
  159.0100  214.0120  143.1910 C   0  0  0  0  0  2  0  0  0  0  0  0
  159.8530  212.9500  142.8200 O   0  0  0  0  0  0  0  0  0  0  0  0
  158.4360  213.7650  144.5830 C   0  0  0  0  0  2  0  0  0  0  0  0
  160.5430  212.5750  145.0330 N   0  0  0  0  0  2  0  0  0  0  0  0
  161.2960  209.1220  154.0400 N   0  0  0  0  0  2  0  0  0  0  0  0
  158.1730  211.0730  154.9810 C   0  0  0  0  0  2  0  0  0  0  0  0
  159.9470  210.4380  157.2560 C   0  0  0  0  0  2  0  0  0  0  0  0
  159.1240  211.7300  157.2540 C   0  0  0  0  0  2  0  0  0  0  0  0
  159.3420  210.5740  154.1410 C   0  0  0  0  0  2  0  0  0  0  0  0
  160.2640  209.6400  154.9220 C   0  0  0  0  0  3  0  0  0  0  0  0
  158.6420  212.2080  155.8800 C   0  0  0  0  0  2  0  0  0  0  0  0
  160.9270  210.3510  156.0960 C   0  0  0  0  0  2  0  0  0  0  0  0
  1 36  1  0  0  0  0
  2  8  1  0  0  0  0
  3 12  1  0  0  0  0
  3 13  2  0  0  0  0
  4 15  1  0  0  0  0
  5  2  2  0  0  0  0
  5  9  1  0  0  0  0
  6  2  1  0  0  0  0
  7  4  1  0  0  0  0
  7 11  1  0  0  0  0
  8  4  2  0  0  0  0
  9  7  2  0  0  0  0
 10 14  1  0  0  0  0
 11 10  2  0  0  0  0
 11  3  1  0  0  0  0
 13  1  1  0  0  0  0
 14 13  1  0  0  0  0
 15 12  2  0  0  0  0
 16 18  1  0  0  0  0
 16 17  1  1  0  0  0
 18 14  1  6  0  0  0
 18 17  1  0  0  0  0
 20 23  1  0  0  0  0
 20 19  1  1  0  0  0
 21 23  1  0  0  0  0
 21 16  1  1  0  0  0
 23 25  1  1  0  0  0
 24 26  1  0  0  0  0
 24 20  1  0  0  0  0
 26 22  1  1  0  0  0
 26 21  1  0  0  0  0
 27 20  1  0  0  0  0
 28 29  2  0  0  0  0
 28 27  1  0  0  0  0
 30 28  1  1  0  0  0
 31 35  1  0  0  0  0
 32 34  1  0  0  0  0
 33 32  1  0  0  0  0
 33 31  1  0  0  0  0
 34 30  1  0  0  0  0
 35 30  1  0  0  0  0
 36 41  1  0  0  0  0
 37 42  1  0  0  0  0
 39 38  1  0  0  0  0
 40 41  1  0  0  0  0
 40 37  1  0  0  0  0
 41 43  1  0  0  0  0
 42 39  1  0  0  0  0
 43 38  1  0  0  0  0
M  END
>  <MODEL>
4

>  <REMARK>
 VINA RESULT:      -5.6      3.277      7.355
  Name = 
  7 active torsions:
  status: ('A' for Active; 'I' for Inactive)
    1  A    between atoms: C_1  and  N_28
    2  A    between atoms: C_2  and  C_6
    3  A    between atoms: C_4  and  O_22
    4  A    between atoms: C_11  and  C_14
    5  A    between atoms: C_13  and  N_38
    6  A    between atoms: C_14  and  O_22
    7  A    between atoms: N_28  and  C_35
                            x       y       z     vdW  Elec       q    Type
                         _______ _______ _______ _____ _____    ______ ____

>  <TORSDO>
F 7

$$$$
=
 OpenBabel11062410193D

 43 49  0  0  1  0  0  0  0  0999 V2000
  161.5890  212.0100  150.1440 C   0  0  0  0  0  2  0  0  0  0  0  0
  159.9650  207.6980  156.0520 C   0  0  0  0  0  0  0  0  0  0  0  0
  160.9670  210.5960  152.0770 C   0  0  0  0  0  0  0  0  0  0  0  0
  160.2040  209.5770  154.5430 C   0  0  0  0  0  0  0  0  0  0  0  0
  160.4980  206.8410  155.0820 C   0  0  0  0  0  3  0  0  0  0  0  0
  159.5900  207.2030  157.2560 F   0  0  0  0  0  0  0  0  0  0  0  0
  160.7440  208.7050  153.5610 C   0  0  0  0  0  0  0  0  0  0  0  0
  159.8190  209.0620  155.7830 C   0  0  0  0  0  3  0  0  0  0  0  0
  160.8880  207.3420  153.8360 C   0  0  0  0  0  3  0  0  0  0  0  0
  161.6850  208.5720  151.2180 N   0  0  0  0  0  0  0  0  0  0  0  0
  161.1160  209.2520  152.3330 C   0  0  0  0  0  0  0  0  0  0  0  0
  160.4460  211.4780  153.0240 C   0  0  0  0  0  3  0  0  0  0  0  0
  161.4640  210.8160  150.7290 C   0  0  0  0  0  0  0  0  0  0  0  0
  161.8590  209.5350  150.2100 N   0  0  0  0  0  0  0  0  0  0  0  0
  160.0600  210.9530  154.2700 C   0  0  0  0  0  3  0  0  0  0  0  0
  162.2860  207.9370  148.3450 C   0  0  1  0  0  3  0  0  0  0  0  0
  161.7040  209.1370  147.8990 O   0  0  0  0  0  0  0  0  0  0  0  0
  162.6020  209.2620  148.9770 C   0  0  1  0  0  3  0  0  0  0  0  0
  162.0470  204.9010  146.8570 O   0  0  0  0  0  1  0  0  0  0  0  0
  161.2950  204.9230  148.0360 C   0  0  2  0  0  0  0  0  0  0  0  0
  161.2270  207.0800  149.0670 C   0  0  1  0  0  3  0  0  0  0  0  0
  163.0850  206.4640  150.7220 C   0  0  0  0  0  1  0  0  0  0  0  0
  160.4710  206.2010  148.1060 C   0  0  1  0  0  3  0  0  0  0  0  0
  162.1680  204.8870  149.1450 O   0  0  0  0  0  0  0  0  0  0  0  0
  160.2530  206.7800  146.8650 F   0  0  0  0  0  0  0  0  0  0  0  0
  161.8630  206.0070  149.9380 C   0  0  2  0  0  3  0  0  0  0  0  0
  160.4110  203.8020  148.0690 O   0  0  0  0  0  0  0  0  0  0  0  0
  160.8260  202.4790  148.2590 C   0  0  0  0  0  0  0  0  0  0  0  0
  160.8920  202.0220  149.4300 O   0  0  0  0  0  0  0  0  0  0  0  0
  161.1890  201.5970  147.1020 C   0  0  2  0  0  3  0  0  0  0  0  0
  161.6380  199.3900  146.3750 C   0  0  0  0  0  2  0  0  0  0  0  0
  160.4870  200.6740  144.9230 C   0  0  0  0  0  2  0  0  0  0  0  0
  160.5420  199.3890  145.4920 O   0  0  0  0  0  0  0  0  0  0  0  0
  160.1460  201.7070  145.9920 C   0  0  0  0  0  2  0  0  0  0  0  0
  161.3290  200.2100  147.5460 N   0  0  0  0  0  2  0  0  0  0  0  0
  162.1450  212.1710  148.8410 N   0  0  0  0  0  2  0  0  0  0  0  0
  159.1710  213.2890  146.7560 C   0  0  0  0  0  2  0  0  0  0  0  0
  161.8010  213.9030  145.5590 C   0  0  0  0  0  2  0  0  0  0  0  0
  160.5980  213.5870  144.6640 C   0  0  0  0  0  2  0  0  0  0  0  0
  159.9920  212.4630  147.7370 C   0  0  0  0  0  2  0  0  0  0  0  0
  161.4450  212.9310  147.8200 C   0  0  0  0  0  3  0  0  0  0  0  0
  159.4540  212.8200  145.3360 C   0  0  0  0  0  2  0  0  0  0  0  0
  162.1700  212.7590  146.4900 C   0  0  0  0  0  2  0  0  0  0  0  0
  1 13  1  0  0  0  0
  2  6  1  0  0  0  0
  3 11  1  0  0  0  0
  3 12  1  0  0  0  0
  4  8  2  0  0  0  0
  5  2  2  0  0  0  0
  7  9  2  0  0  0  0
  7  4  1  0  0  0  0
  8  2  1  0  0  0  0
  9  5  1  0  0  0  0
 10 11  2  0  0  0  0
 11  7  1  0  0  0  0
 12 15  2  0  0  0  0
 13  3  2  0  0  0  0
 14 13  1  0  0  0  0
 14 10  1  0  0  0  0
 15  4  1  0  0  0  0
 16 17  1  6  0  0  0
 16 18  1  0  0  0  0
 17 18  1  0  0  0  0
 18 14  1  1  0  0  0
 20 19  1  6  0  0  0
 20 27  1  0  0  0  0
 20 23  1  0  0  0  0
 20 24  1  0  0  0  0
 21 16  1  6  0  0  0
 21 26  1  0  0  0  0
 23 25  1  6  0  0  0
 23 21  1  0  0  0  0
 24 26  1  0  0  0  0
 26 22  1  6  0  0  0
 27 28  1  0  0  0  0
 28 29  2  0  0  0  0
 30 35  1  0  0  0  0
 30 28  1  1  0  0  0
 31 35  1  0  0  0  0
 32 33  1  0  0  0  0
 32 34  1  0  0  0  0
 33 31  1  0  0  0  0
 34 30  1  0  0  0  0
 36  1  1  0  0  0  0
 37 40  1  0  0  0  0
 38 43  1  0  0  0  0
 39 42  1  0  0  0  0
 39 38  1  0  0  0  0
 40 41  1  0  0  0  0
 41 36  1  0  0  0  0
 42 37  1  0  0  0  0
 43 41  1  0  0  0  0
M  END
>  <MODEL>
5

>  <REMARK>
 VINA RESULT:      -5.0      4.299      8.559
  Name = 
  7 active torsions:
  status: ('A' for Active; 'I' for Inactive)
    1  A    between atoms: C_1  and  N_28
    2  A    between atoms: C_2  and  C_6
    3  A    between atoms: C_4  and  O_22
    4  A    between atoms: C_11  and  C_14
    5  A    between atoms: C_13  and  N_38
    6  A    between atoms: C_14  and  O_22
    7  A    between atoms: N_28  and  C_35
                            x       y       z     vdW  Elec       q    Type
                         _______ _______ _______ _____ _____    ______ ____

>  <TORSDO>
F 7

$$$$
=
 OpenBabel11062410193D

 43 49  0  0  1  0  0  0  0  0999 V2000
  161.8120  211.7140  147.6120 C   0  0  0  0  0  3  0  0  0  0  0  0
  161.4080  206.3850  152.8650 C   0  0  0  0  0  0  0  0  0  0  0  0
  161.7670  209.9450  149.3420 C   0  0  0  0  0  0  0  0  0  0  0  0
  161.7170  207.5680  150.7730 C   0  0  0  0  0  0  0  0  0  0  0  0
  161.1450  207.5950  153.5190 C   0  0  0  0  0  3  0  0  0  0  0  0
  161.3860  205.2230  153.5600 F   0  0  0  0  0  0  0  0  0  0  0  0
  161.4500  208.7930  151.4400 C   0  0  0  0  0  0  0  0  0  0  0  0
  161.6930  206.3720  151.4950 C   0  0  0  0  0  3  0  0  0  0  0  0
  161.1660  208.7990  152.8090 C   0  0  0  0  0  3  0  0  0  0  0  0
  161.2370  211.2950  151.1440 N   0  0  0  0  0  0  0  0  0  0  0  0
  161.4840  209.9680  150.6890 C   0  0  0  0  0  0  0  0  0  0  0  0
  162.0260  208.7570  148.6590 C   0  0  0  0  0  3  0  0  0  0  0  0
  161.7010  211.3230  148.8850 C   0  0  0  0  0  0  0  0  0  0  0  0
  161.4160  212.1370  150.0340 N   0  0  0  0  0  0  0  0  0  0  0  0
  162.0010  207.5580  149.3920 C   0  0  0  0  0  3  0  0  0  0  0  0
  159.6580  213.8370  150.5230 C   0  0  1  0  0  3  0  0  0  0  0  0
  160.7710  213.9550  151.3760 O   0  0  0  0  0  0  0  0  0  0  0  0
  161.0580  213.5580  150.0550 C   0  0  1  0  0  3  0  0  0  0  0  0
  158.0950  214.4140  153.4750 O   0  0  0  0  0  1  0  0  0  0  0  0
  157.6430  213.2160  152.9130 C   0  0  2  0  0  0  0  0  0  0  0  0
  158.8230  212.6050  150.9250 C   0  0  1  0  0  3  0  0  0  0  0  0
  156.9840  213.5580  149.4140 C   0  0  0  0  0  1  0  0  0  0  0  0
  158.8220  212.3930  152.4160 C   0  0  1  0  0  3  0  0  0  0  0  0
  156.8000  213.5060  151.8180 O   0  0  0  0  0  0  0  0  0  0  0  0
  160.0200  212.7250  153.0320 F   0  0  0  0  0  0  0  0  0  0  0  0
  157.3350  212.8320  150.7050 C   0  0  2  0  0  3  0  0  0  0  0  0
  156.9320  212.4590  153.8930 O   0  0  0  0  0  0  0  0  0  0  0  0
  157.1090  212.5960  155.2750 C   0  0  0  0  0  0  0  0  0  0  0  0
  156.3700  213.3950  155.9080 O   0  0  0  0  0  0  0  0  0  0  0  0
  158.1540  211.8160  156.0130 C   0  0  2  0  0  3  0  0  0  0  0  0
  159.5760  209.9240  155.9970 C   0  0  0  0  0  2  0  0  0  0  0  0
  160.4590  211.7930  156.8970 C   0  0  0  0  0  2  0  0  0  0  0  0
  160.7380  210.7170  156.0350 O   0  0  0  0  0  0  0  0  0  0  0  0
  159.3800  212.6840  156.2910 C   0  0  0  0  0  2  0  0  0  0  0  0
  158.5260  210.6210  155.2550 N   0  0  0  0  0  2  0  0  0  0  0  0
  161.6750  213.0750  147.2130 N   0  0  0  0  0  0  0  0  0  0  0  0
  159.7300  213.1430  143.9490 C   0  0  0  0  0  2  0  0  0  0  0  0
  162.5940  213.8110  143.6770 C   0  0  0  0  0  2  0  0  0  0  0  0
  161.8560  213.0930  142.5430 C   0  0  0  0  0  2  0  0  0  0  0  0
  160.1260  212.7370  145.3630 C   0  0  0  0  0  2  0  0  0  0  0  0
  161.4090  213.4250  145.8290 C   0  0  0  0  0  3  0  0  0  0  0  0
  160.5690  212.3660  142.9450 C   0  0  0  0  0  2  0  0  0  0  0  0
  162.6070  213.0220  144.9770 C   0  0  0  0  0  2  0  0  0  0  0  0
  1 13  1  0  0  0  0
  2  5  1  0  0  0  0
  2  6  1  0  0  0  0
  3 11  1  0  0  0  0
  4  7  2  0  0  0  0
  4  8  1  0  0  0  0
  7  9  1  0  0  0  0
  8  2  2  0  0  0  0
  9  5  2  0  0  0  0
 11 10  2  0  0  0  0
 11  7  1  0  0  0  0
 12  3  1  0  0  0  0
 12 15  2  0  0  0  0
 13  3  2  0  0  0  0
 13 14  1  0  0  0  0
 14 10  1  0  0  0  0
 15  4  1  0  0  0  0
 16 17  1  1  0  0  0
 18 14  1  1  0  0  0
 18 16  1  0  0  0  0
 18 17  1  0  0  0  0
 20 19  1  1  0  0  0
 20 27  1  0  0  0  0
 21 16  1  1  0  0  0
 21 23  1  0  0  0  0
 23 20  1  0  0  0  0
 23 25  1  1  0  0  0
 24 20  1  0  0  0  0
 26 22  1  6  0  0  0
 26 21  1  0  0  0  0
 26 24  1  0  0  0  0
 27 28  1  0  0  0  0
 28 29  2  0  0  0  0
 30 28  1  6  0  0  0
 30 34  1  0  0  0  0
 31 33  1  0  0  0  0
 33 32  1  0  0  0  0
 34 32  1  0  0  0  0
 35 31  1  0  0  0  0
 35 30  1  0  0  0  0
 36  1  2  0  0  0  0
 37 40  1  0  0  0  0
 38 43  1  0  0  0  0
 39 42  1  0  0  0  0
 39 38  1  0  0  0  0
 40 41  1  0  0  0  0
 41 36  1  0  0  0  0
 42 37  1  0  0  0  0
 43 41  1  0  0  0  0
M  END
>  <MODEL>
6

>  <REMARK>
 VINA RESULT:      -5.0      2.223      3.524
  Name = 
  7 active torsions:
  status: ('A' for Active; 'I' for Inactive)
    1  A    between atoms: C_1  and  N_28
    2  A    between atoms: C_2  and  C_6
    3  A    between atoms: C_4  and  O_22
    4  A    between atoms: C_11  and  C_14
    5  A    between atoms: C_13  and  N_38
    6  A    between atoms: C_14  and  O_22
    7  A    between atoms: N_28  and  C_35
                            x       y       z     vdW  Elec       q    Type
                         _______ _______ _______ _____ _____    ______ ____

>  <TORSDO>
F 7

$$$$
