=
 OpenBabel11062409593D

 43 47  0  0  1  0  0  0  0  0999 V2000
  160.7140  203.4450  150.9310 C   0  0  1  0  0  3  0  0  0  0  0  0
  160.8890  208.1990  152.6880 C   0  0  1  0  0  3  0  0  0  0  0  0
  161.7720  209.9070  150.6080 C   0  0  0  0  0  0  0  0  0  0  0  0
  161.7170  205.5910  151.8700 C   0  0  0  0  0  0  0  0  0  0  0  0
  159.7210  204.3660  150.3460 N   0  0  0  0  0  2  0  0  0  0  0  0
  161.2020  202.4570  149.8870 C   0  0  0  0  0  1  0  0  0  0  0  0
  160.9690  206.3110  151.0050 C   0  0  0  0  0  0  0  0  0  0  0  0
  161.9190  204.1230  151.6160 C   0  0  0  0  0  2  0  0  0  0  0  0
  160.3440  205.5950  149.8550 C   0  0  0  0  0  2  0  0  0  0  0  0
  161.4200  208.5820  150.3140 O   0  0  0  0  0  0  0  0  0  0  0  0
  160.6630  207.7730  151.2230 C   0  0  2  0  0  3  0  0  0  0  0  0
  162.2410  207.6980  153.1790 C   0  0  0  0  0  2  0  0  0  0  0  0
  160.7780  209.7160  152.8340 C   0  0  1  0  0  3  0  0  0  0  0  0
  161.5310  210.4130  151.7850 N   0  0  0  0  0  0  0  0  0  0  0  0
  162.2460  206.1700  153.1600 C   0  0  0  0  0  2  0  0  0  0  0  0
  162.4790  210.7360  149.5710 C   0  0  1  0  0  3  0  0  0  0  0  0
  162.5590  209.9530  148.2620 C   0  0  0  0  0  1  0  0  0  0  0  0
  161.7970  212.1100  149.4260 C   0  0  2  0  0  3  0  0  0  0  0  0
  160.4320  212.1780  150.0990 C   0  0  0  0  0  1  0  0  0  0  0  0
  160.6360  212.1390  147.3630 O   0  0  0  0  0  0  0  0  0  0  0  0
  161.6480  212.4680  147.9760 C   0  0  0  0  0  0  0  0  0  0  0  0
  162.7040  213.2710  147.2910 C   0  0  0  0  0  2  0  0  0  0  0  0
  162.0830  214.1480  146.2230 C   0  0  0  0  0  2  0  0  0  0  0  0
  162.7270  213.8600  144.8810 C   0  0  0  0  0  2  0  0  0  0  0  0
  161.8610  212.8870  144.1030 C   0  0  0  0  0  2  0  0  0  0  0  0
  162.4740  212.6030  142.7380 C   0  0  2  0  0  3  0  0  0  0  0  0
  162.7890  213.9210  142.0510 C   0  0  0  0  0  1  0  0  0  0  0  0
  161.5390  211.8450  141.9250 N   0  0  0  0  0  2  0  0  0  0  0  0
  161.9520  211.9850  140.5340 C   0  0  2  0  0  3  0  0  0  0  0  0
  161.8330  208.6340  139.9020 C   0  0  0  0  0  1  0  0  0  0  0  0
  160.6220  210.4880  139.2760 N   0  0  0  0  0  2  0  0  0  0  0  0
  161.9200  209.9420  139.2700 N   0  0  0  0  0  0  0  0  0  0  0  0
  160.7500  211.8900  139.6430 C   0  0  0  0  0  2  0  0  0  0  0  0
  162.7560  210.7770  140.1310 C   0  0  0  0  0  2  0  0  0  0  0  0
  159.3060  210.1250  152.7910 C   0  0  0  0  0  2  0  0  0  0  0  0
  156.9260  212.5100  154.2640 C   0  0  0  0  0  2  0  0  0  0  0  0
  157.4390  212.6220  155.9710 S   0  0  0  0  0  0  0  0  0  0  0  0
  157.2800  214.0350  156.4630 O   0  0  0  0  0  0  0  0  0  0  0  0
  159.4550  211.0990  155.0300 C   0  0  0  0  0  3  0  0  0  0  0  0
  158.1490  212.3770  153.3550 C   0  0  0  0  0  2  0  0  0  0  0  0
  159.0080  211.2100  153.7710 C   0  0  0  0  0  0  0  0  0  0  0  0
  156.6010  211.6970  156.8090 O   0  0  0  0  0  0  0  0  0  0  0  0
  159.1550  212.1370  156.0750 C   0  0  0  0  0  2  0  0  0  0  0  0
  1  6  1  6  0  0  0
  1  8  1  0  0  0  0
  2 13  1  0  0  0  0
  2 12  1  6  0  0  0
  3 14  2  0  0  0  0
  4 15  1  0  0  0  0
  5  1  1  0  0  0  0
  7 11  1  0  0  0  0
  7  4  2  0  0  0  0
  8  4  1  0  0  0  0
  9  5  1  0  0  0  0
  9  7  1  0  0  0  0
 10  3  1  0  0  0  0
 11 10  1  6  0  0  0
 11  2  1  0  0  0  0
 13 35  1  6  0  0  0
 14 13  1  0  0  0  0
 15 12  1  0  0  0  0
 16 17  1  6  0  0  0
 16  3  1  0  0  0  0
 18 16  1  0  0  0  0
 18 19  1  6  0  0  0
 20 21  2  0  0  0  0
 21 18  1  0  0  0  0
 22 21  1  0  0  0  0
 23 22  1  0  0  0  0
 24 23  1  0  0  0  0
 25 24  1  0  0  0  0
 26 27  1  6  0  0  0
 26 25  1  0  0  0  0
 28 26  1  0  0  0  0
 29 28  1  1  0  0  0
 31 33  1  0  0  0  0
 32 31  1  0  0  0  0
 32 30  1  0  0  0  0
 32 34  1  0  0  0  0
 33 29  1  0  0  0  0
 34 29  1  0  0  0  0
 35 41  1  0  0  0  0
 36 37  1  0  0  0  0
 37 43  1  0  0  0  0
 37 38  2  0  0  0  0
 37 42  2  0  0  0  0
 39 43  1  0  0  0  0
 40 41  1  0  0  0  0
 40 36  1  0  0  0  0
 41 39  2  0  0  0  0
M  END
>  <MODEL>
1

>  <REMARK>
 VINA RESULT:      -4.9      0.000      0.000
  Name = 
  12 active torsions:
  status: ('A' for Active; 'I' for Inactive)
    1  A    between atoms: C_1  and  C_34
    2  A    between atoms: C_1  and  C_35
    3  A    between atoms: C_2  and  C_6
    4  A    between atoms: C_2  and  C_13
    5  A    between atoms: C_4  and  C_12
    6  A    between atoms: C_4  and  C_15
    7  A    between atoms: C_6  and  C_12
    8  A    between atoms: C_10  and  C_22
    9  A    between atoms: C_10  and  C_42
   10  A    between atoms: C_11  and  N_14
   11  A    between atoms: N_14  and  C_22
   12  A    between atoms: C_15  and  C_42
                            x       y       z     vdW  Elec       q    Type
                         _______ _______ _______ _____ _____    ______ ____

>  <TORSDO>
F 12

$$$$
=
 OpenBabel11062409593D

 43 47  0  0  1  0  0  0  0  0999 V2000
  155.6790  212.6870  155.9230 C   0  0  1  0  0  3  0  0  0  0  0  0
  159.5890  212.6420  152.6920 C   0  0  1  0  0  3  0  0  0  0  0  0
  160.8080  210.0870  152.7730 C   0  0  0  0  0  0  0  0  0  0  0  0
  158.0960  212.7990  155.1230 C   0  0  0  0  0  0  0  0  0  0  0  0
  155.5060  211.8190  154.7430 N   0  0  0  0  0  2  0  0  0  0  0  0
  155.0330  212.0600  157.1440 C   0  0  0  0  0  1  0  0  0  0  0  0
  157.8700  211.7390  154.3160 C   0  0  0  0  0  0  0  0  0  0  0  0
  157.1370  213.0810  156.2450 C   0  0  0  0  0  2  0  0  0  0  0  0
  156.6470  210.9210  154.5590 C   0  0  0  0  0  2  0  0  0  0  0  0
  159.5700  210.2840  153.4020 O   0  0  0  0  0  0  0  0  0  0  0  0
  158.7480  211.4250  153.1280 C   0  0  2  0  0  3  0  0  0  0  0  0
  160.2680  213.2720  153.9020 C   0  0  0  0  0  2  0  0  0  0  0  0
  160.6140  212.2410  151.6320 C   0  0  1  0  0  3  0  0  0  0  0  0
  161.3180  211.0090  152.0060 N   0  0  0  0  0  0  0  0  0  0  0  0
  159.1980  213.7970  154.8600 C   0  0  0  0  0  2  0  0  0  0  0  0
  161.5780  208.8190  153.0280 C   0  0  1  0  0  3  0  0  0  0  0  0
  160.8730  208.0070  154.1130 C   0  0  0  0  0  1  0  0  0  0  0  0
  161.7830  208.0440  151.7130 C   0  0  2  0  0  3  0  0  0  0  0  0
  160.6980  208.3150  150.6780 C   0  0  0  0  0  1  0  0  0  0  0  0
  162.3900  206.1540  153.0020 O   0  0  0  0  0  0  0  0  0  0  0  0
  161.8470  206.5690  151.9820 C   0  0  0  0  0  0  0  0  0  0  0  0
  161.2040  205.6070  151.0380 C   0  0  0  0  0  2  0  0  0  0  0  0
  161.6670  204.1950  151.3350 C   0  0  0  0  0  2  0  0  0  0  0  0
  160.5180  203.2250  151.1400 C   0  0  0  0  0  2  0  0  0  0  0  0
  160.9900  202.0420  150.3150 C   0  0  0  0  0  2  0  0  0  0  0  0
  160.7770  202.3100  148.8310 C   0  0  2  0  0  3  0  0  0  0  0  0
  161.0130  201.0240  148.0550 C   0  0  0  0  0  1  0  0  0  0  0  0
  161.7080  203.3270  148.3740 N   0  0  0  0  0  2  0  0  0  0  0  0
  161.1500  203.9260  147.1690 C   0  0  2  0  0  3  0  0  0  0  0  0
  162.4010  207.0300  147.8320 C   0  0  0  0  0  1  0  0  0  0  0  0
  162.8070  205.3680  146.2930 N   0  0  0  0  0  2  0  0  0  0  0  0
  161.7960  206.2090  146.7940 N   0  0  0  0  0  0  0  0  0  0  0  0
  162.2200  204.0470  146.1270 C   0  0  0  0  0  2  0  0  0  0  0  0
  160.7970  205.3640  147.4460 C   0  0  0  0  0  2  0  0  0  0  0  0
  159.9120  212.0640  150.2870 C   0  0  0  0  0  2  0  0  0  0  0  0
  162.4850  212.4730  147.6920 C   0  0  0  0  0  2  0  0  0  0  0  0
  161.6820  213.4770  146.4520 S   0  0  0  0  0  0  0  0  0  0  0  0
  162.6680  214.4460  145.8590 O   0  0  0  0  0  0  0  0  0  0  0  0
  159.7710  213.5550  148.3530 C   0  0  0  0  0  3  0  0  0  0  0  0
  162.0500  212.9160  149.0900 C   0  0  0  0  0  2  0  0  0  0  0  0
  160.5480  212.8930  149.2210 C   0  0  0  0  0  0  0  0  0  0  0  0
  161.1290  212.5910  145.3700 O   0  0  0  0  0  0  0  0  0  0  0  0
  160.3490  214.3740  147.2330 C   0  0  0  0  0  2  0  0  0  0  0  0
  1  8  1  0  0  0  0
  1  6  1  1  0  0  0
  2 11  1  0  0  0  0
  2 12  1  1  0  0  0
  3 16  1  0  0  0  0
  3 10  1  0  0  0  0
  4  8  1  0  0  0  0
  5  1  1  0  0  0  0
  7  9  1  0  0  0  0
  7  4  2  0  0  0  0
  9  5  1  0  0  0  0
 11 10  1  1  0  0  0
 11  7  1  0  0  0  0
 12 15  1  0  0  0  0
 13 35  1  6  0  0  0
 13 14  1  0  0  0  0
 13  2  1  0  0  0  0
 14  3  2  0  0  0  0
 15  4  1  0  0  0  0
 16 17  1  1  0  0  0
 18 19  1  6  0  0  0
 18 21  1  0  0  0  0
 18 16  1  0  0  0  0
 21 20  2  0  0  0  0
 22 23  1  0  0  0  0
 22 21  1  0  0  0  0
 24 23  1  0  0  0  0
 25 24  1  0  0  0  0
 26 27  1  6  0  0  0
 26 25  1  0  0  0  0
 28 26  1  0  0  0  0
 29 34  1  0  0  0  0
 29 28  1  1  0  0  0
 31 32  1  0  0  0  0
 32 34  1  0  0  0  0
 32 30  1  0  0  0  0
 33 31  1  0  0  0  0
 33 29  1  0  0  0  0
 36 40  1  0  0  0  0
 37 43  1  0  0  0  0
 37 36  1  0  0  0  0
 38 37  2  0  0  0  0
 39 41  2  0  0  0  0
 40 41  1  0  0  0  0
 41 35  1  0  0  0  0
 42 37  2  0  0  0  0
 43 39  1  0  0  0  0
M  END
>  <MODEL>
2

>  <REMARK>
 VINA RESULT:      -4.8      4.178      8.761
  Name = 
  12 active torsions:
  status: ('A' for Active; 'I' for Inactive)
    1  A    between atoms: C_1  and  C_34
    2  A    between atoms: C_1  and  C_35
    3  A    between atoms: C_2  and  C_6
    4  A    between atoms: C_2  and  C_13
    5  A    between atoms: C_4  and  C_12
    6  A    between atoms: C_4  and  C_15
    7  A    between atoms: C_6  and  C_12
    8  A    between atoms: C_10  and  C_22
    9  A    between atoms: C_10  and  C_42
   10  A    between atoms: C_11  and  N_14
   11  A    between atoms: N_14  and  C_22
   12  A    between atoms: C_15  and  C_42
                            x       y       z     vdW  Elec       q    Type
                         _______ _______ _______ _____ _____    ______ ____

>  <TORSDO>
F 12

$$$$
=
 OpenBabel11062409593D

 43 47  0  0  1  0  0  0  0  0999 V2000
  161.1980  204.7000  145.9200 C   0  0  1  0  0  3  0  0  0  0  0  0
  162.0280  207.5170  150.0550 C   0  0  1  0  0  3  0  0  0  0  0  0
  162.0740  210.2480  149.3030 C   0  0  0  0  0  0  0  0  0  0  0  0
  162.4840  206.0980  147.6190 C   0  0  0  0  0  0  0  0  0  0  0  0
  160.0600  205.5380  146.3460 N   0  0  0  0  0  2  0  0  0  0  0  0
  161.2580  204.6170  144.4060 C   0  0  0  0  0  1  0  0  0  0  0  0
  161.4690  206.9890  147.6440 C   0  0  0  0  0  0  0  0  0  0  0  0
  162.5730  205.1220  146.4780 C   0  0  0  0  0  2  0  0  0  0  0  0
  160.4590  206.9310  146.5490 C   0  0  0  0  0  2  0  0  0  0  0  0
  161.6360  209.2830  148.3850 O   0  0  0  0  0  0  0  0  0  0  0  0
  161.2710  207.9570  148.7860 C   0  0  2  0  0  3  0  0  0  0  0  0
  163.4640  207.1470  149.7090 C   0  0  0  0  0  2  0  0  0  0  0  0
  161.9830  208.6130  151.1200 C   0  0  1  0  0  3  0  0  0  0  0  0
  162.2920  209.9290  150.5490 N   0  0  0  0  0  0  0  0  0  0  0  0
  163.4580  205.9460  148.7630 C   0  0  0  0  0  2  0  0  0  0  0  0
  162.3460  211.6510  148.8350 C   0  0  1  0  0  3  0  0  0  0  0  0
  163.5320  211.6450  147.8720 C   0  0  0  0  0  1  0  0  0  0  0  0
  161.0700  212.2730  148.2360 C   0  0  2  0  0  3  0  0  0  0  0  0
  160.6670  211.6540  146.9030 C   0  0  0  0  0  1  0  0  0  0  0  0
  161.5770  214.4510  149.0110 O   0  0  0  0  0  0  0  0  0  0  0  0
  161.2450  213.7530  148.0570 C   0  0  0  0  0  0  0  0  0  0  0  0
  161.0690  214.3700  146.7100 C   0  0  0  0  0  2  0  0  0  0  0  0
  162.3050  214.1420  145.8640 C   0  0  0  0  0  2  0  0  0  0  0  0
  161.9620  214.2990  144.3960 C   0  0  0  0  0  2  0  0  0  0  0  0
  162.0550  212.9490  143.7090 C   0  0  0  0  0  2  0  0  0  0  0  0
  160.8250  212.7070  142.8440 C   0  0  2  0  0  3  0  0  0  0  0  0
  159.6560  212.3260  143.7380 C   0  0  0  0  0  1  0  0  0  0  0  0
  161.0860  211.6290  141.9060 N   0  0  0  0  0  2  0  0  0  0  0  0
  162.1560  212.0670  141.0180 C   0  0  2  0  0  3  0  0  0  0  0  0
  161.7280  209.4920  138.8220 C   0  0  0  0  0  1  0  0  0  0  0  0
  161.3740  211.7660  138.8070 N   0  0  0  0  0  2  0  0  0  0  0  0
  162.3680  210.7870  138.9970 N   0  0  0  0  0  0  0  0  0  0  0  0
  161.5680  212.7760  139.8360 C   0  0  0  0  0  2  0  0  0  0  0  0
  162.8050  210.8630  140.3900 C   0  0  0  0  0  2  0  0  0  0  0  0
  160.6030  208.6300  151.7740 C   0  0  0  0  0  2  0  0  0  0  0  0
  158.7240  211.4240  153.2530 C   0  0  0  0  0  2  0  0  0  0  0  0
  159.1420  211.3460  154.9880 S   0  0  0  0  0  0  0  0  0  0  0  0
  159.2700  212.7370  155.5480 O   0  0  0  0  0  0  0  0  0  0  0  0
  160.8250  209.4500  154.0690 C   0  0  0  0  0  3  0  0  0  0  0  0
  159.9410  211.0590  152.4020 C   0  0  0  0  0  2  0  0  0  0  0  0
  160.4920  209.7120  152.7960 C   0  0  0  0  0  0  0  0  0  0  0  0
  158.0700  210.5980  155.7300 O   0  0  0  0  0  0  0  0  0  0  0  0
  160.6980  210.4840  155.1520 C   0  0  0  0  0  2  0  0  0  0  0  0
  1  6  1  6  0  0  0
  1  5  1  0  0  0  0
  1  8  1  0  0  0  0
  2 12  1  6  0  0  0
  2 13  1  0  0  0  0
  3 14  2  0  0  0  0
  4  7  2  0  0  0  0
  4 15  1  0  0  0  0
  5  9  1  0  0  0  0
  8  4  1  0  0  0  0
  9  7  1  0  0  0  0
 10 11  1  0  0  0  0
 10  3  1  0  0  0  0
 11  7  1  6  0  0  0
 11  2  1  0  0  0  0
 13 35  1  6  0  0  0
 14 13  1  0  0  0  0
 15 12  1  0  0  0  0
 16 17  1  6  0  0  0
 16  3  1  0  0  0  0
 18 19  1  6  0  0  0
 18 16  1  0  0  0  0
 21 18  1  0  0  0  0
 21 20  2  0  0  0  0
 22 21  1  0  0  0  0
 23 22  1  0  0  0  0
 24 23  1  0  0  0  0
 25 24  1  0  0  0  0
 26 25  1  0  0  0  0
 26 27  1  1  0  0  0
 28 26  1  0  0  0  0
 29 28  1  1  0  0  0
 30 32  1  0  0  0  0
 31 32  1  0  0  0  0
 31 33  1  0  0  0  0
 32 34  1  0  0  0  0
 33 29  1  0  0  0  0
 34 29  1  0  0  0  0
 35 41  1  0  0  0  0
 36 37  1  0  0  0  0
 37 43  1  0  0  0  0
 37 38  2  0  0  0  0
 37 42  2  0  0  0  0
 39 43  1  0  0  0  0
 40 41  1  0  0  0  0
 40 36  1  0  0  0  0
 41 39  2  0  0  0  0
M  END
>  <MODEL>
3

>  <REMARK>
 VINA RESULT:      -4.1      2.213      2.744
  Name = 
  12 active torsions:
  status: ('A' for Active; 'I' for Inactive)
    1  A    between atoms: C_1  and  C_34
    2  A    between atoms: C_1  and  C_35
    3  A    between atoms: C_2  and  C_6
    4  A    between atoms: C_2  and  C_13
    5  A    between atoms: C_4  and  C_12
    6  A    between atoms: C_4  and  C_15
    7  A    between atoms: C_6  and  C_12
    8  A    between atoms: C_10  and  C_22
    9  A    between atoms: C_10  and  C_42
   10  A    between atoms: C_11  and  N_14
   11  A    between atoms: N_14  and  C_22
   12  A    between atoms: C_15  and  C_42
                            x       y       z     vdW  Elec       q    Type
                         _______ _______ _______ _____ _____    ______ ____

>  <TORSDO>
F 12

$$$$
=
 OpenBabel11062409593D

 43 47  0  0  1  0  0  0  0  0999 V2000
  157.0770  212.5610  155.1670 C   0  0  1  0  0  3  0  0  0  0  0  0
  161.5120  210.4940  153.8320 C   0  0  1  0  0  3  0  0  0  0  0  0
  161.0150  208.3250  152.0790 C   0  0  0  0  0  0  0  0  0  0  0  0
  159.0230  210.9160  155.1690 C   0  0  0  0  0  0  0  0  0  0  0  0
  157.4500  212.7380  153.7500 N   0  0  0  0  0  2  0  0  0  0  0  0
  155.5770  212.3740  155.3020 C   0  0  0  0  0  1  0  0  0  0  0  0
  159.0170  210.9170  153.8180 C   0  0  0  0  0  0  0  0  0  0  0  0
  157.8170  211.4260  155.9060 C   0  0  0  0  0  2  0  0  0  0  0  0
  157.8170  211.4680  153.1230 C   0  0  0  0  0  2  0  0  0  0  0  0
  159.9720  209.2020  152.4090 O   0  0  0  0  0  0  0  0  0  0  0  0
  160.2120  210.4840  153.0030 C   0  0  2  0  0  3  0  0  0  0  0  0
  161.2920  209.7840  155.1620 C   0  0  0  0  0  2  0  0  0  0  0  0
  162.6580  209.8540  153.0500 C   0  0  1  0  0  3  0  0  0  0  0  0
  162.2440  208.5930  152.4250 N   0  0  0  0  0  0  0  0  0  0  0  0
  160.2480  210.5520  155.9730 C   0  0  0  0  0  2  0  0  0  0  0  0
  160.7060  207.0370  151.3660 C   0  0  1  0  0  3  0  0  0  0  0  0
  160.7700  207.2630  149.8570 C   0  0  0  0  0  1  0  0  0  0  0  0
  161.6370  205.9130  151.8610 C   0  0  2  0  0  3  0  0  0  0  0  0
  162.9950  205.9100  151.1690 C   0  0  0  0  0  1  0  0  0  0  0  0
  160.5250  203.9740  152.6380 O   0  0  0  0  0  0  0  0  0  0  0  0
  160.9860  204.5740  151.6710 C   0  0  0  0  0  0  0  0  0  0  0  0
  160.8490  203.9960  150.3020 C   0  0  0  0  0  2  0  0  0  0  0  0
  160.8530  202.4820  150.3710 C   0  0  0  0  0  2  0  0  0  0  0  0
  160.1430  201.9100  149.1610 C   0  0  0  0  0  2  0  0  0  0  0  0
  161.1600  201.5990  148.0780 C   0  0  0  0  0  2  0  0  0  0  0  0
  160.9070  202.4610  146.8480 C   0  0  2  0  0  3  0  0  0  0  0  0
  160.2900  201.6020  145.7570 C   0  0  0  0  0  1  0  0  0  0  0  0
  162.1600  203.0210  146.3720 N   0  0  0  0  0  2  0  0  0  0  0  0
  162.2020  204.4190  146.7810 C   0  0  2  0  0  3  0  0  0  0  0  0
  161.5570  205.6130  143.6500 C   0  0  0  0  0  1  0  0  0  0  0  0
  160.4320  205.5110  145.6550 N   0  0  0  0  0  2  0  0  0  0  0  0
  161.6140  205.9850  145.0560 N   0  0  0  0  0  0  0  0  0  0  0  0
  160.8040  204.9370  146.9390 C   0  0  0  0  0  2  0  0  0  0  0  0
  162.7340  205.2530  145.6450 C   0  0  0  0  0  2  0  0  0  0  0  0
  163.1580  210.8330  151.9890 C   0  0  0  0  0  2  0  0  0  0  0  0
  161.1310  212.7330  149.5800 C   0  0  0  0  0  2  0  0  0  0  0  0
  161.2800  211.7970  148.0660 S   0  0  0  0  0  0  0  0  0  0  0  0
  159.9720  211.8120  147.3230 O   0  0  0  0  0  0  0  0  0  0  0  0
  162.5570  210.1040  149.7320 C   0  0  0  0  0  3  0  0  0  0  0  0
  161.0700  211.7870  150.7800 C   0  0  0  0  0  2  0  0  0  0  0  0
  162.2580  210.8590  150.7980 C   0  0  0  0  0  0  0  0  0  0  0  0
  162.3590  212.3970  147.2090 O   0  0  0  0  0  0  0  0  0  0  0  0
  161.7150  210.1150  148.4870 C   0  0  0  0  0  2  0  0  0  0  0  0
  1  6  1  6  0  0  0
  1  8  1  0  0  0  0
  2 12  1  1  0  0  0
  3 10  1  0  0  0  0
  3 14  2  0  0  0  0
  4  8  1  0  0  0  0
  4 15  1  0  0  0  0
  5  1  1  0  0  0  0
  7  4  2  0  0  0  0
  9  5  1  0  0  0  0
  9  7  1  0  0  0  0
 11 10  1  1  0  0  0
 11  7  1  0  0  0  0
 11  2  1  0  0  0  0
 12 15  1  0  0  0  0
 13 35  1  6  0  0  0
 13  2  1  0  0  0  0
 14 13  1  0  0  0  0
 16 17  1  6  0  0  0
 16 18  1  0  0  0  0
 16  3  1  0  0  0  0
 18 19  1  6  0  0  0
 21 18  1  0  0  0  0
 21 20  2  0  0  0  0
 22 23  1  0  0  0  0
 22 21  1  0  0  0  0
 24 23  1  0  0  0  0
 25 24  1  0  0  0  0
 26 27  1  6  0  0  0
 26 25  1  0  0  0  0
 28 26  1  0  0  0  0
 29 28  1  6  0  0  0
 29 33  1  0  0  0  0
 30 32  1  0  0  0  0
 31 33  1  0  0  0  0
 32 34  1  0  0  0  0
 32 31  1  0  0  0  0
 34 29  1  0  0  0  0
 36 40  1  0  0  0  0
 37 43  1  0  0  0  0
 37 36  1  0  0  0  0
 38 37  2  0  0  0  0
 39 41  2  0  0  0  0
 40 41  1  0  0  0  0
 41 35  1  0  0  0  0
 42 37  2  0  0  0  0
 43 39  1  0  0  0  0
M  END
>  <MODEL>
4

>  <REMARK>
 VINA RESULT:      -3.2      4.072      8.075
  Name = 
  12 active torsions:
  status: ('A' for Active; 'I' for Inactive)
    1  A    between atoms: C_1  and  C_34
    2  A    between atoms: C_1  and  C_35
    3  A    between atoms: C_2  and  C_6
    4  A    between atoms: C_2  and  C_13
    5  A    between atoms: C_4  and  C_12
    6  A    between atoms: C_4  and  C_15
    7  A    between atoms: C_6  and  C_12
    8  A    between atoms: C_10  and  C_22
    9  A    between atoms: C_10  and  C_42
   10  A    between atoms: C_11  and  N_14
   11  A    between atoms: N_14  and  C_22
   12  A    between atoms: C_15  and  C_42
                            x       y       z     vdW  Elec       q    Type
                         _______ _______ _______ _____ _____    ______ ____

>  <TORSDO>
F 12

$$$$
=
 OpenBabel11062409593D

 43 47  0  0  1  0  0  0  0  0999 V2000
  160.5660  202.1710  150.2310 C   0  0  1  0  0  3  0  0  0  0  0  0
  161.5120  206.4840  152.7260 C   0  0  1  0  0  3  0  0  0  0  0  0
  161.8720  208.5670  150.8410 C   0  0  0  0  0  0  0  0  0  0  0  0
  161.9190  204.0870  151.2280 C   0  0  0  0  0  0  0  0  0  0  0  0
  159.5050  203.1920  150.1420 N   0  0  0  0  0  2  0  0  0  0  0  0
  160.6800  201.4080  148.9250 C   0  0  0  0  0  1  0  0  0  0  0  0
  161.0020  204.9650  150.7670 C   0  0  0  0  0  0  0  0  0  0  0  0
  161.9540  202.6970  150.6550 C   0  0  0  0  0  2  0  0  0  0  0  0
  160.0370  204.4930  149.7330 C   0  0  0  0  0  2  0  0  0  0  0  0
  161.3740  207.3270  150.4170 O   0  0  0  0  0  0  0  0  0  0  0  0
  160.8580  206.3560  151.3360 C   0  0  2  0  0  3  0  0  0  0  0  0
  162.9160  205.8920  152.7030 C   0  0  0  0  0  2  0  0  0  0  0  0
  161.5370  207.9420  153.1820 C   0  0  1  0  0  3  0  0  0  0  0  0
  162.0040  208.8310  152.1110 N   0  0  0  0  0  0  0  0  0  0  0  0
  162.8240  204.3980  152.3960 C   0  0  0  0  0  2  0  0  0  0  0  0
  162.3070  209.5830  149.8200 C   0  0  1  0  0  3  0  0  0  0  0  0
  161.6510  209.2660  148.4770 C   0  0  0  0  0  1  0  0  0  0  0  0
  162.0170  211.0090  150.3250 C   0  0  2  0  0  3  0  0  0  0  0  0
  160.8110  211.0850  151.2530 C   0  0  0  0  0  1  0  0  0  0  0  0
  160.7970  212.6370  149.1160 O   0  0  0  0  0  0  0  0  0  0  0  0
  161.8070  211.9400  149.1680 C   0  0  0  0  0  0  0  0  0  0  0  0
  162.8480  212.0610  148.1050 C   0  0  0  0  0  2  0  0  0  0  0  0
  162.9530  213.4980  147.6370 C   0  0  0  0  0  2  0  0  0  0  0  0
  161.9570  213.7510  146.5220 C   0  0  0  0  0  2  0  0  0  0  0  0
  162.6910  213.8180  145.1950 C   0  0  0  0  0  2  0  0  0  0  0  0
  161.7690  213.4040  144.0560 C   0  0  2  0  0  3  0  0  0  0  0  0
  160.6030  212.6120  144.6240 C   0  0  0  0  0  1  0  0  0  0  0  0
  162.4960  212.5790  143.1070 N   0  0  0  0  0  2  0  0  0  0  0  0
  162.4560  213.2530  141.8160 C   0  0  2  0  0  3  0  0  0  0  0  0
  160.9280  210.6520  140.2240 C   0  0  0  0  0  1  0  0  0  0  0  0
  160.3420  212.7820  140.8660 N   0  0  0  0  0  2  0  0  0  0  0  0
  161.2750  212.0590  140.0980 N   0  0  0  0  0  0  0  0  0  0  0  0
  161.0840  213.8090  141.5830 C   0  0  0  0  0  2  0  0  0  0  0  0
  162.5880  212.2320  140.7170 C   0  0  0  0  0  2  0  0  0  0  0  0
  160.1400  208.3560  153.6420 C   0  0  0  0  0  2  0  0  0  0  0  0
  161.5370  211.4530  155.0480 C   0  0  0  0  0  2  0  0  0  0  0  0
  160.1800  212.1480  155.9780 S   0  0  0  0  0  0  0  0  0  0  0  0
  160.6960  212.7870  157.2390 O   0  0  0  0  0  0  0  0  0  0  0  0
  159.0600  209.7900  155.3040 C   0  0  0  0  0  3  0  0  0  0  0  0
  161.5310  209.9280  155.1670 C   0  0  0  0  0  2  0  0  0  0  0  0
  160.2000  209.3590  154.7450 C   0  0  0  0  0  0  0  0  0  0  0  0
  159.4720  213.1760  155.1410 O   0  0  0  0  0  0  0  0  0  0  0  0
  159.0480  210.8280  156.3910 C   0  0  0  0  0  2  0  0  0  0  0  0
  1  6  1  6  0  0  0
  1  8  1  0  0  0  0
  2 12  1  6  0  0  0
  2 13  1  0  0  0  0
  3 14  2  0  0  0  0
  4 15  1  0  0  0  0
  5  1  1  0  0  0  0
  7  4  2  0  0  0  0
  7 11  1  0  0  0  0
  8  4  1  0  0  0  0
  9  5  1  0  0  0  0
  9  7  1  0  0  0  0
 10  3  1  0  0  0  0
 11 10  1  6  0  0  0
 11  2  1  0  0  0  0
 13 35  1  6  0  0  0
 14 13  1  0  0  0  0
 15 12  1  0  0  0  0
 16 17  1  6  0  0  0
 16 18  1  0  0  0  0
 16  3  1  0  0  0  0
 18 19  1  1  0  0  0
 20 21  2  0  0  0  0
 21 18  1  0  0  0  0
 22 21  1  0  0  0  0
 23 22  1  0  0  0  0
 24 23  1  0  0  0  0
 25 24  1  0  0  0  0
 26 27  1  1  0  0  0
 26 25  1  0  0  0  0
 28 26  1  0  0  0  0
 29 28  1  1  0  0  0
 31 33  1  0  0  0  0
 32 30  1  0  0  0  0
 32 34  1  0  0  0  0
 32 31  1  0  0  0  0
 33 29  1  0  0  0  0
 34 29  1  0  0  0  0
 35 41  1  0  0  0  0
 36 40  1  0  0  0  0
 36 37  1  0  0  0  0
 37 43  1  0  0  0  0
 37 38  2  0  0  0  0
 39 43  1  0  0  0  0
 41 40  1  0  0  0  0
 41 39  2  0  0  0  0
 42 37  2  0  0  0  0
M  END
>  <MODEL>
5

>  <REMARK>
 VINA RESULT:      -3.0      1.659      2.187
  Name = 
  12 active torsions:
  status: ('A' for Active; 'I' for Inactive)
    1  A    between atoms: C_1  and  C_34
    2  A    between atoms: C_1  and  C_35
    3  A    between atoms: C_2  and  C_6
    4  A    between atoms: C_2  and  C_13
    5  A    between atoms: C_4  and  C_12
    6  A    between atoms: C_4  and  C_15
    7  A    between atoms: C_6  and  C_12
    8  A    between atoms: C_10  and  C_22
    9  A    between atoms: C_10  and  C_42
   10  A    between atoms: C_11  and  N_14
   11  A    between atoms: N_14  and  C_22
   12  A    between atoms: C_15  and  C_42
                            x       y       z     vdW  Elec       q    Type
                         _______ _______ _______ _____ _____    ______ ____

>  <TORSDO>
F 12

$$$$
=
 OpenBabel11062409593D

 43 47  0  0  1  0  0  0  0  0999 V2000
  160.7300  203.3270  150.3750 C   0  0  1  0  0  3  0  0  0  0  0  0
  160.9090  207.4790  153.2820 C   0  0  1  0  0  3  0  0  0  0  0  0
  161.6150  209.6940  151.6650 C   0  0  0  0  0  0  0  0  0  0  0  0
  161.7430  205.2000  151.7750 C   0  0  0  0  0  0  0  0  0  0  0  0
  159.6800  204.3270  150.1040 N   0  0  0  0  0  2  0  0  0  0  0  0
  161.1720  202.6580  149.0870 C   0  0  0  0  0  1  0  0  0  0  0  0
  160.9240  206.0870  151.1690 C   0  0  0  0  0  0  0  0  0  0  0  0
  161.9610  203.8540  151.1420 C   0  0  0  0  0  2  0  0  0  0  0  0
  160.2420  205.6650  149.9110 C   0  0  0  0  0  2  0  0  0  0  0  0
  161.2760  208.4750  151.0610 O   0  0  0  0  0  0  0  0  0  0  0  0
  160.5990  207.4320  151.7720 C   0  0  2  0  0  3  0  0  0  0  0  0
  162.3020  206.9220  153.5500 C   0  0  0  0  0  2  0  0  0  0  0  0
  160.7730  208.9020  153.8200 C   0  0  1  0  0  3  0  0  0  0  0  0
  161.4400  209.8730  152.9440 N   0  0  0  0  0  0  0  0  0  0  0  0
  162.3410  205.4500  153.1390 C   0  0  0  0  0  2  0  0  0  0  0  0
  162.2350  210.7870  150.8370 C   0  0  1  0  0  3  0  0  0  0  0  0
  163.7550  210.7330  150.9800 C   0  0  0  0  0  1  0  0  0  0  0  0
  161.7500  210.6940  149.3770 C   0  0  2  0  0  3  0  0  0  0  0  0
  162.3310  209.5030  148.6250 C   0  0  0  0  0  1  0  0  0  0  0  0
  163.0850  212.0000  147.9230 O   0  0  0  0  0  0  0  0  0  0  0  0
  162.0860  211.9550  148.6350 C   0  0  0  0  0  0  0  0  0  0  0  0
  161.1780  213.1370  148.7200 C   0  0  0  0  0  2  0  0  0  0  0  0
  161.0550  213.7990  147.3620 C   0  0  0  0  0  2  0  0  0  0  0  0
  160.5480  212.7980  146.3440 C   0  0  0  0  0  2  0  0  0  0  0  0
  160.5320  213.4390  144.9690 C   0  0  0  0  0  2  0  0  0  0  0  0
  161.5390  212.7570  144.0520 C   0  0  2  0  0  3  0  0  0  0  0  0
  162.9210  213.3330  144.3150 C   0  0  0  0  0  1  0  0  0  0  0  0
  161.1770  212.9840  142.6650 N   0  0  0  0  0  2  0  0  0  0  0  0
  161.8570  211.9770  141.8600 C   0  0  2  0  0  3  0  0  0  0  0  0
  159.3820  211.8130  139.5180 C   0  0  0  0  0  1  0  0  0  0  0  0
  161.5480  212.5880  139.5970 N   0  0  0  0  0  2  0  0  0  0  0  0
  160.7610  211.4370  139.7920 N   0  0  0  0  0  0  0  0  0  0  0  0
  162.5140  212.6340  140.6840 C   0  0  0  0  0  2  0  0  0  0  0  0
  160.8330  211.0850  141.2100 C   0  0  0  0  0  2  0  0  0  0  0  0
  159.2930  209.2510  153.9670 C   0  0  0  0  0  2  0  0  0  0  0  0
  157.2730  212.3030  154.3300 C   0  0  0  0  0  2  0  0  0  0  0  0
  157.6030  212.8340  156.0030 S   0  0  0  0  0  0  0  0  0  0  0  0
  157.6690  214.3360  156.0620 O   0  0  0  0  0  0  0  0  0  0  0  0
  159.3760  210.8080  155.8520 C   0  0  0  0  0  3  0  0  0  0  0  0
  158.5420  211.7200  153.7040 C   0  0  0  0  0  2  0  0  0  0  0  0
  159.1040  210.6100  154.5550 C   0  0  0  0  0  0  0  0  0  0  0  0
  156.5120  212.3380  156.9110 O   0  0  0  0  0  0  0  0  0  0  0  0
  159.1690  212.1410  156.5140 C   0  0  0  0  0  2  0  0  0  0  0  0
  1  6  1  6  0  0  0
  1  8  1  0  0  0  0
  2 12  1  6  0  0  0
  2 13  1  0  0  0  0
  3 14  2  0  0  0  0
  4 15  1  0  0  0  0
  5  1  1  0  0  0  0
  7 11  1  0  0  0  0
  7  4  2  0  0  0  0
  8  4  1  0  0  0  0
  9  5  1  0  0  0  0
  9  7  1  0  0  0  0
 10  3  1  0  0  0  0
 11 10  1  6  0  0  0
 11  2  1  0  0  0  0
 13 35  1  6  0  0  0
 14 13  1  0  0  0  0
 15 12  1  0  0  0  0
 16 17  1  6  0  0  0
 16  3  1  0  0  0  0
 18 19  1  6  0  0  0
 18 16  1  0  0  0  0
 20 21  2  0  0  0  0
 21 22  1  0  0  0  0
 21 18  1  0  0  0  0
 23 22  1  0  0  0  0
 24 23  1  0  0  0  0
 25 24  1  0  0  0  0
 26 27  1  6  0  0  0
 26 25  1  0  0  0  0
 28 26  1  0  0  0  0
 29 28  1  1  0  0  0
 30 32  1  0  0  0  0
 31 32  1  0  0  0  0
 31 33  1  0  0  0  0
 32 34  1  0  0  0  0
 33 29  1  0  0  0  0
 34 29  1  0  0  0  0
 35 41  1  0  0  0  0
 36 37  1  0  0  0  0
 37 38  2  0  0  0  0
 37 43  1  0  0  0  0
 37 42  2  0  0  0  0
 39 43  1  0  0  0  0
 40 36  1  0  0  0  0
 40 41  1  0  0  0  0
 41 39  2  0  0  0  0
M  END
>  <MODEL>
6

>  <REMARK>
 VINA RESULT:      -2.9      1.183      1.622
  Name = 
  12 active torsions:
  status: ('A' for Active; 'I' for Inactive)
    1  A    between atoms: C_1  and  C_34
    2  A    between atoms: C_1  and  C_35
    3  A    between atoms: C_2  and  C_6
    4  A    between atoms: C_2  and  C_13
    5  A    between atoms: C_4  and  C_12
    6  A    between atoms: C_4  and  C_15
    7  A    between atoms: C_6  and  C_12
    8  A    between atoms: C_10  and  C_22
    9  A    between atoms: C_10  and  C_42
   10  A    between atoms: C_11  and  N_14
   11  A    between atoms: N_14  and  C_22
   12  A    between atoms: C_15  and  C_42
                            x       y       z     vdW  Elec       q    Type
                         _______ _______ _______ _____ _____    ______ ____

>  <TORSDO>
F 12

$$$$
=
 OpenBabel11062409593D

 43 47  0  0  1  0  0  0  0  0999 V2000
  161.1610  204.8320  145.7020 C   0  0  1  0  0  3  0  0  0  0  0  0
  162.1720  207.6140  149.8200 C   0  0  1  0  0  3  0  0  0  0  0  0
  162.1650  210.3520  149.0940 C   0  0  0  0  0  0  0  0  0  0  0  0
  162.5190  206.2220  147.3500 C   0  0  0  0  0  0  0  0  0  0  0  0
  160.0400  205.6570  146.1910 N   0  0  0  0  0  2  0  0  0  0  0  0
  161.1490  204.7640  144.1860 C   0  0  0  0  0  1  0  0  0  0  0  0
  161.5010  207.1060  147.4330 C   0  0  0  0  0  0  0  0  0  0  0  0
  162.5590  205.2580  146.1970 C   0  0  0  0  0  2  0  0  0  0  0  0
  160.4390  207.0510  146.3880 C   0  0  0  0  0  2  0  0  0  0  0  0
  161.6880  209.3940  148.1880 O   0  0  0  0  0  0  0  0  0  0  0  0
  161.3520  208.0610  148.5930 C   0  0  2  0  0  3  0  0  0  0  0  0
  163.5930  207.2580  149.4000 C   0  0  0  0  0  2  0  0  0  0  0  0
  162.1720  208.6990  150.8960 C   0  0  1  0  0  3  0  0  0  0  0  0
  162.4440  210.0230  150.3240 N   0  0  0  0  0  0  0  0  0  0  0  0
  163.5480  206.0660  148.4440 C   0  0  0  0  0  2  0  0  0  0  0  0
  162.4040  211.7620  148.6270 C   0  0  1  0  0  3  0  0  0  0  0  0
  163.7060  211.8190  147.8290 C   0  0  0  0  0  1  0  0  0  0  0  0
  161.1810  212.2840  147.8480 C   0  0  2  0  0  3  0  0  0  0  0  0
  160.3760  211.1760  147.1800 C   0  0  0  0  0  1  0  0  0  0  0  0
  162.3680  214.1940  147.1080 O   0  0  0  0  0  0  0  0  0  0  0  0
  161.6100  213.2760  146.8070 C   0  0  0  0  0  0  0  0  0  0  0  0
  161.1610  213.1160  145.3920 C   0  0  0  0  0  2  0  0  0  0  0  0
  162.1610  213.7580  144.4510 C   0  0  0  0  0  2  0  0  0  0  0  0
  161.6390  213.7020  143.0290 C   0  0  0  0  0  2  0  0  0  0  0  0
  162.0460  212.3860  142.3930 C   0  0  0  0  0  2  0  0  0  0  0  0
  161.5180  212.2980  140.9670 C   0  0  2  0  0  3  0  0  0  0  0  0
  160.8250  210.9590  140.7750 C   0  0  0  0  0  1  0  0  0  0  0  0
  162.6170  212.4120  140.0250 N   0  0  0  0  0  2  0  0  0  0  0  0
  162.5830  213.7590  139.4690 C   0  0  2  0  0  3  0  0  0  0  0  0
  165.8750  213.7430  138.5730 C   0  0  0  0  0  1  0  0  0  0  0  0
  163.8530  213.7060  137.4750 N   0  0  0  0  0  2  0  0  0  0  0  0
  164.6160  214.4510  138.3930 N   0  0  0  0  0  0  0  0  0  0  0  0
  162.4870  213.6820  137.9750 C   0  0  0  0  0  2  0  0  0  0  0  0
  163.9210  214.4180  139.6790 C   0  0  0  0  0  2  0  0  0  0  0  0
  160.8250  208.7000  151.6170 C   0  0  0  0  0  2  0  0  0  0  0  0
  160.8690  211.0760  154.4240 C   0  0  0  0  0  2  0  0  0  0  0  0
  160.2250  210.1270  155.7940 S   0  0  0  0  0  0  0  0  0  0  0  0
  160.9470  210.5000  157.0600 O   0  0  0  0  0  0  0  0  0  0  0  0
  160.3920  208.1540  153.9630 C   0  0  0  0  0  3  0  0  0  0  0  0
  161.7410  210.1890  153.5340 C   0  0  0  0  0  2  0  0  0  0  0  0
  160.9830  208.9690  153.0770 C   0  0  0  0  0  0  0  0  0  0  0  0
  158.7550  210.4010  155.9480 O   0  0  0  0  0  0  0  0  0  0  0  0
  160.4790  208.3930  155.4440 C   0  0  0  0  0  2  0  0  0  0  0  0
  1  6  1  6  0  0  0
  1  5  1  0  0  0  0
  1  8  1  0  0  0  0
  2 12  1  6  0  0  0
  2 13  1  0  0  0  0
  3 14  2  0  0  0  0
  4  7  2  0  0  0  0
  4 15  1  0  0  0  0
  5  9  1  0  0  0  0
  8  4  1  0  0  0  0
  9  7  1  0  0  0  0
 10 11  1  0  0  0  0
 10  3  1  0  0  0  0
 11  7  1  6  0  0  0
 11  2  1  0  0  0  0
 13 35  1  6  0  0  0
 14 13  1  0  0  0  0
 15 12  1  0  0  0  0
 16 17  1  6  0  0  0
 16  3  1  0  0  0  0
 18 19  1  6  0  0  0
 18 16  1  0  0  0  0
 21 20  2  0  0  0  0
 21 18  1  0  0  0  0
 22 21  1  0  0  0  0
 23 22  1  0  0  0  0
 24 23  1  0  0  0  0
 25 24  1  0  0  0  0
 26 27  1  1  0  0  0
 26 25  1  0  0  0  0
 28 26  1  0  0  0  0
 29 34  1  0  0  0  0
 29 28  1  1  0  0  0
 31 33  1  0  0  0  0
 31 32  1  0  0  0  0
 32 30  1  0  0  0  0
 32 34  1  0  0  0  0
 33 29  1  0  0  0  0
 35 41  1  0  0  0  0
 36 37  1  0  0  0  0
 37 42  2  0  0  0  0
 37 38  2  0  0  0  0
 39 43  1  0  0  0  0
 40 36  1  0  0  0  0
 41 40  1  0  0  0  0
 41 39  2  0  0  0  0
 43 37  1  0  0  0  0
M  END
>  <MODEL>
7

>  <REMARK>
 VINA RESULT:      -2.6      2.831      3.614
  Name = 
  12 active torsions:
  status: ('A' for Active; 'I' for Inactive)
    1  A    between atoms: C_1  and  C_34
    2  A    between atoms: C_1  and  C_35
    3  A    between atoms: C_2  and  C_6
    4  A    between atoms: C_2  and  C_13
    5  A    between atoms: C_4  and  C_12
    6  A    between atoms: C_4  and  C_15
    7  A    between atoms: C_6  and  C_12
    8  A    between atoms: C_10  and  C_22
    9  A    between atoms: C_10  and  C_42
   10  A    between atoms: C_11  and  N_14
   11  A    between atoms: N_14  and  C_22
   12  A    between atoms: C_15  and  C_42
                            x       y       z     vdW  Elec       q    Type
                         _______ _______ _______ _____ _____    ______ ____

>  <TORSDO>
F 12

$$$$
=
 OpenBabel11062409593D

 43 47  0  0  1  0  0  0  0  0999 V2000
  161.6500  205.9140  151.6830 C   0  0  1  0  0  3  0  0  0  0  0  0
  160.4360  210.7240  152.7340 C   0  0  1  0  0  3  0  0  0  0  0  0
  160.6560  212.2580  150.3630 C   0  0  0  0  0  0  0  0  0  0  0  0
  161.9870  208.3830  152.2160 C   0  0  0  0  0  0  0  0  0  0  0  0
  160.3970  206.3910  151.0690 N   0  0  0  0  0  2  0  0  0  0  0  0
  162.3710  204.9600  150.7480 C   0  0  0  0  0  1  0  0  0  0  0  0
  161.0160  208.6990  151.3320 C   0  0  0  0  0  0  0  0  0  0  0  0
  162.6180  207.0200  152.1530 C   0  0  0  0  0  2  0  0  0  0  0  0
  160.5900  207.6550  150.3560 C   0  0  0  0  0  2  0  0  0  0  0  0
  160.7160  210.8590  150.2910 O   0  0  0  0  0  0  0  0  0  0  0  0
  160.2860  210.0200  151.3700 C   0  0  2  0  0  3  0  0  0  0  0  0
  161.8970  210.7330  153.1630 C   0  0  0  0  0  2  0  0  0  0  0  0
  159.8700  212.1430  152.6760 C   0  0  1  0  0  3  0  0  0  0  0  0
  160.3250  212.8530  151.4750 N   0  0  0  0  0  0  0  0  0  0  0  0
  162.3700  209.2930  153.3590 C   0  0  0  0  0  2  0  0  0  0  0  0
  161.0280  213.0810  149.1590 C   0  0  1  0  0  3  0  0  0  0  0  0
  161.7960  214.3220  149.6100 C   0  0  0  0  0  1  0  0  0  0  0  0
  161.7940  212.2200  148.1370 C   0  0  2  0  0  3  0  0  0  0  0  0
  163.3070  212.3010  148.2960 C   0  0  0  0  0  1  0  0  0  0  0  0
  162.2560  213.1600  146.0140 O   0  0  0  0  0  0  0  0  0  0  0  0
  161.4250  212.6180  146.7380 C   0  0  0  0  0  0  0  0  0  0  0  0
  160.0650  212.3090  146.2060 C   0  0  0  0  0  2  0  0  0  0  0  0
  159.6700  213.3270  145.1550 C   0  0  0  0  0  2  0  0  0  0  0  0
  159.3740  212.6250  143.8450 C   0  0  0  0  0  2  0  0  0  0  0  0
  160.6580  212.4770  143.0490 C   0  0  0  0  0  2  0  0  0  0  0  0
  160.3600  212.4700  141.5560 C   0  0  2  0  0  3  0  0  0  0  0  0
  158.9860  213.0740  141.3200 C   0  0  0  0  0  1  0  0  0  0  0  0
  160.3810  211.1070  141.0550 N   0  0  0  0  0  2  0  0  0  0  0  0
  161.7250  210.8400  140.5570 C   0  0  2  0  0  3  0  0  0  0  0  0
  160.6900  208.5250  138.2750 C   0  0  0  0  0  1  0  0  0  0  0  0
  161.5560  210.6560  138.2050 N   0  0  0  0  0  2  0  0  0  0  0  0
  161.8180  209.3540  138.6720 N   0  0  0  0  0  0  0  0  0  0  0  0
  161.9360  211.5750  139.2680 C   0  0  0  0  0  2  0  0  0  0  0  0
  161.8210  209.3980  140.1330 C   0  0  0  0  0  2  0  0  0  0  0  0
  158.3440  212.0840  152.7120 C   0  0  0  0  0  2  0  0  0  0  0  0
  155.4670  213.2560  154.6800 C   0  0  0  0  0  2  0  0  0  0  0  0
  155.9520  212.9410  156.3700 S   0  0  0  0  0  0  0  0  0  0  0  0
  155.4580  214.0490  157.2600 O   0  0  0  0  0  0  0  0  0  0  0  0
  158.2710  212.3090  155.1470 C   0  0  0  0  0  3  0  0  0  0  0  0
  156.6780  213.7070  153.8610 C   0  0  0  0  0  2  0  0  0  0  0  0
  157.7990  212.7030  153.9550 C   0  0  0  0  0  0  0  0  0  0  0  0
  155.3730  211.6300  156.8220 O   0  0  0  0  0  0  0  0  0  0  0  0
  157.7360  212.8640  156.4370 C   0  0  0  0  0  2  0  0  0  0  0  0
  1  6  1  6  0  0  0
  1  8  1  0  0  0  0
  2 12  1  6  0  0  0
  3 14  2  0  0  0  0
  4 15  1  0  0  0  0
  5  1  1  0  0  0  0
  7 11  1  0  0  0  0
  7  4  2  0  0  0  0
  8  4  1  0  0  0  0
  9  5  1  0  0  0  0
  9  7  1  0  0  0  0
 10  3  1  0  0  0  0
 11 10  1  6  0  0  0
 11  2  1  0  0  0  0
 12 15  1  0  0  0  0
 13 35  1  6  0  0  0
 13  2  1  0  0  0  0
 14 13  1  0  0  0  0
 16 17  1  1  0  0  0
 16  3  1  0  0  0  0
 18 19  1  6  0  0  0
 18 16  1  0  0  0  0
 20 21  2  0  0  0  0
 21 18  1  0  0  0  0
 22 21  1  0  0  0  0
 23 22  1  0  0  0  0
 24 23  1  0  0  0  0
 25 24  1  0  0  0  0
 26 27  1  1  0  0  0
 26 25  1  0  0  0  0
 28 26  1  0  0  0  0
 29 28  1  6  0  0  0
 30 32  1  0  0  0  0
 31 32  1  0  0  0  0
 31 33  1  0  0  0  0
 32 34  1  0  0  0  0
 33 29  1  0  0  0  0
 34 29  1  0  0  0  0
 35 41  1  0  0  0  0
 36 37  1  0  0  0  0
 37 43  1  0  0  0  0
 37 42  2  0  0  0  0
 37 38  2  0  0  0  0
 39 43  1  0  0  0  0
 40 41  1  0  0  0  0
 40 36  1  0  0  0  0
 41 39  2  0  0  0  0
M  END
>  <MODEL>
8

>  <REMARK>
 VINA RESULT:      -2.2      1.672      2.434
  Name = 
  12 active torsions:
  status: ('A' for Active; 'I' for Inactive)
    1  A    between atoms: C_1  and  C_34
    2  A    between atoms: C_1  and  C_35
    3  A    between atoms: C_2  and  C_6
    4  A    between atoms: C_2  and  C_13
    5  A    between atoms: C_4  and  C_12
    6  A    between atoms: C_4  and  C_15
    7  A    between atoms: C_6  and  C_12
    8  A    between atoms: C_10  and  C_22
    9  A    between atoms: C_10  and  C_42
   10  A    between atoms: C_11  and  N_14
   11  A    between atoms: N_14  and  C_22
   12  A    between atoms: C_15  and  C_42
                            x       y       z     vdW  Elec       q    Type
                         _______ _______ _______ _____ _____    ______ ____

>  <TORSDO>
F 12

$$$$
