=
 OpenBabel11052422023D

 30 30  0  0  1  0  0  0  0  0999 V2000
  160.9040  206.3800  147.6690 C   0  0  0  0  0  0  0  0  0  0  0  0
  161.8880  203.1470  148.6820 C   0  0  0  0  0  2  0  0  0  0  0  0
  161.1010  203.5790  149.9180 C   0  0  1  0  0  3  0  0  0  0  0  0
  162.0220  205.5850  147.4230 O   0  0  0  0  0  0  0  0  0  0  0  0
  159.9560  206.4270  146.8400 O   0  0  0  0  0  0  0  0  0  0  0  0
  161.1840  203.4030  147.4870 O   0  0  0  0  0  0  0  0  0  0  0  0
  161.8990  204.3530  146.7220 C   0  0  2  0  0  3  0  0  0  0  0  0
  160.7670  207.0740  148.9850 C   0  0  1  0  0  3  0  0  0  0  0  0
  161.4380  205.0150  150.3470 C   0  0  1  0  0  3  0  0  0  0  0  0
  159.7270  203.3670  149.7600 O   0  0  0  0  0  1  0  0  0  0  0  0
  163.2590  203.8430  146.2600 C   0  0  0  0  0  1  0  0  0  0  0  0
  160.3470  206.0520  150.0490 C   0  0  0  0  0  2  0  0  0  0  0  0
  162.0300  207.8620  149.3680 C   0  0  1  0  0  3  0  0  0  0  0  0
  163.1030  207.7200  148.2920 C   0  0  0  0  0  1  0  0  0  0  0  0
  161.7130  209.3380  149.6520 C   0  0  1  0  0  3  0  0  0  0  0  0
  162.1290  209.7730  151.0570 C   0  0  0  0  0  2  0  0  0  0  0  0
  160.9520  209.8470  152.0160 C   0  0  0  0  0  2  0  0  0  0  0  0
  160.1830  211.8470  152.0620 O   0  0  0  0  0  1  0  0  0  0  0  0
  160.9980  211.0500  152.7180 O   0  0  0  0  0  0  0  0  0  0  0  0
  162.2320  210.1940  148.6690 O   0  0  0  0  0  0  0  0  0  0  0  0
  162.0630  211.4450  149.1650 N   0  0  0  0  0  2  0  0  0  0  0  0
  161.0620  212.2510  147.2190 O   0  0  0  0  0  0  0  0  0  0  0  0
  161.2050  213.7160  148.9740 O   0  0  0  0  0  1  0  0  0  0  0  0
  161.4240  212.4690  148.4050 C   0  0  0  0  0  0  0  0  0  0  0  0
  161.9040  205.0810  151.8040 C   0  0  0  0  0  2  0  0  0  0  0  0
  161.1360  206.1830  153.8790 C   0  0  0  0  0  3  0  0  0  0  0  0
  161.3260  206.2430  152.5580 C   0  0  0  0  0  3  0  0  0  0  0  0
  160.5520  207.3260  154.6540 C   0  0  0  0  0  3  0  0  0  0  0  0
  161.6390  208.2640  155.1490 C   0  0  0  0  0  1  0  0  0  0  0  0
  159.7180  206.8300  155.8210 C   0  0  0  0  0  1  0  0  0  0  0  0
  1  8  1  0  0  0  0
  2  3  1  0  0  0  0
  3 10  1  6  0  0  0
  3  9  1  0  0  0  0
  4  1  1  0  0  0  0
  5  1  2  0  0  0  0
  6  2  1  0  0  0  0
  7 11  1  1  0  0  0
  7  4  1  0  0  0  0
  7  6  1  0  0  0  0
  8 13  1  1  0  0  0
  8 12  1  0  0  0  0
  9 25  1  1  0  0  0
 12  9  1  0  0  0  0
 13 14  1  6  0  0  0
 13 15  1  0  0  0  0
 15 16  1  1  0  0  0
 16 17  1  0  0  0  0
 17 19  1  0  0  0  0
 18 19  1  0  0  0  0
 20 21  1  0  0  0  0
 20 15  1  0  0  0  0
 22 24  2  0  0  0  0
 24 23  1  0  0  0  0
 24 21  1  0  0  0  0
 25 27  1  0  0  0  0
 26 28  1  0  0  0  0
 27 26  2  0  0  0  0
 28 29  1  0  0  0  0
 28 30  1  0  0  0  0
M  END
>  <MODEL>
1

>  <REMARK>
 VINA RESULT:      -5.9      0.000      0.000
  Name = 
  10 active torsions:
  status: ('A' for Active; 'I' for Inactive)
    1  A    between atoms: C_1  and  C_4
    2  A    between atoms: C_1  and  C_22
    3  A    between atoms: C_4  and  C_9
    4  A    between atoms: C_4  and  O_12
    5  A    between atoms: C_7  and  C_23
    6  A    between atoms: C_7  and  C_25
    7  A    between atoms: N_8  and  O_12
    8  A    between atoms: C_9  and  C_21
    9  A    between atoms: C_10  and  C_15
   10  A    between atoms: O_17  and  C_21
                            x       y       z     vdW  Elec       q    Type
                         _______ _______ _______ _____ _____    ______ ____

>  <TORSDO>
F 10

$$$$
=
 OpenBabel11052422023D

 30 30  0  0  1  0  0  0  0  0999 V2000
  160.4830  207.5990  154.3980 C   0  0  0  0  0  0  0  0  0  0  0  0
  161.7660  210.8400  154.9450 C   0  0  0  0  0  2  0  0  0  0  0  0
  161.2770  210.9930  153.5060 C   0  0  1  0  0  3  0  0  0  0  0  0
  161.5350  208.1110  155.1560 O   0  0  0  0  0  0  0  0  0  0  0  0
  159.3670  207.3570  154.9310 O   0  0  0  0  0  0  0  0  0  0  0  0
  160.7970  210.2400  155.7760 O   0  0  0  0  0  0  0  0  0  0  0  0
  161.2870  208.9980  156.2390 C   0  0  2  0  0  3  0  0  0  0  0  0
  160.6360  207.4660  152.9180 C   0  0  1  0  0  3  0  0  0  0  0  0
  161.6630  209.7920  152.6310 C   0  0  1  0  0  3  0  0  0  0  0  0
  159.9110  211.2890  153.4510 O   0  0  0  0  0  1  0  0  0  0  0  0
  162.5160  209.1380  157.1300 C   0  0  0  0  0  1  0  0  0  0  0  0
  160.5040  208.8520  152.2730 C   0  0  0  0  0  2  0  0  0  0  0  0
  161.9310  206.7360  152.5250 C   0  0  1  0  0  3  0  0  0  0  0  0
  162.2440  205.6190  153.5150 C   0  0  0  0  0  1  0  0  0  0  0  0
  161.8690  206.2080  151.0830 C   0  0  1  0  0  3  0  0  0  0  0  0
  160.6930  205.2590  150.8520 C   0  0  0  0  0  2  0  0  0  0  0  0
  161.1300  203.8060  150.7500 C   0  0  0  0  0  2  0  0  0  0  0  0
  161.2280  203.3750  148.6530 O   0  0  0  0  0  1  0  0  0  0  0  0
  160.4530  203.1890  149.7000 O   0  0  0  0  0  0  0  0  0  0  0  0
  161.8950  207.2420  150.1350 O   0  0  0  0  0  0  0  0  0  0  0  0
  160.9620  206.8990  149.2130 N   0  0  0  0  0  2  0  0  0  0  0  0
  162.4830  206.9080  147.4430 O   0  0  0  0  0  1  0  0  0  0  0  0
  160.3370  206.2780  146.9420 O   0  0  0  0  0  0  0  0  0  0  0  0
  161.3070  206.6990  147.8430 C   0  0  0  0  0  0  0  0  0  0  0  0
  162.4530  210.2180  151.3920 C   0  0  0  0  0  2  0  0  0  0  0  0
  162.1330  211.3840  149.2360 C   0  0  0  0  0  3  0  0  0  0  0  0
  161.6520  211.0540  150.4370 C   0  0  0  0  0  3  0  0  0  0  0  0
  161.3570  212.2260  148.2680 C   0  0  0  0  0  3  0  0  0  0  0  0
  162.2550  212.7700  147.1720 C   0  0  0  0  0  1  0  0  0  0  0  0
  160.6470  213.3660  148.9760 C   0  0  0  0  0  1  0  0  0  0  0  0
  1  5  2  0  0  0  0
  1  4  1  0  0  0  0
  2  6  1  0  0  0  0
  3 10  1  1  0  0  0
  3  2  1  0  0  0  0
  4  7  1  0  0  0  0
  6  7  1  0  0  0  0
  7 11  1  6  0  0  0
  8 13  1  1  0  0  0
  8  1  1  0  0  0  0
  9 25  1  6  0  0  0
  9  3  1  0  0  0  0
 12  9  1  0  0  0  0
 12  8  1  0  0  0  0
 13 14  1  1  0  0  0
 15 16  1  1  0  0  0
 15 13  1  0  0  0  0
 17 16  1  0  0  0  0
 18 19  1  0  0  0  0
 19 17  1  0  0  0  0
 20 15  1  0  0  0  0
 21 20  1  0  0  0  0
 22 24  1  0  0  0  0
 23 24  2  0  0  0  0
 24 21  1  0  0  0  0
 26 27  2  0  0  0  0
 27 25  1  0  0  0  0
 28 30  1  0  0  0  0
 28 26  1  0  0  0  0
 29 28  1  0  0  0  0
M  END
>  <MODEL>
2

>  <REMARK>
 VINA RESULT:      -5.5      2.266      7.366
  Name = 
  10 active torsions:
  status: ('A' for Active; 'I' for Inactive)
    1  A    between atoms: C_1  and  C_4
    2  A    between atoms: C_1  and  C_22
    3  A    between atoms: C_4  and  C_9
    4  A    between atoms: C_4  and  O_12
    5  A    between atoms: C_7  and  C_23
    6  A    between atoms: C_7  and  C_25
    7  A    between atoms: N_8  and  O_12
    8  A    between atoms: C_9  and  C_21
    9  A    between atoms: C_10  and  C_15
   10  A    between atoms: O_17  and  C_21
                            x       y       z     vdW  Elec       q    Type
                         _______ _______ _______ _____ _____    ______ ____

>  <TORSDO>
F 10

$$$$
=
 OpenBabel11052422023D

 30 30  0  0  1  0  0  0  0  0999 V2000
  162.1790  210.0090  152.9900 C   0  0  0  0  0  0  0  0  0  0  0  0
  160.4650  207.2400  154.3480 C   0  0  0  0  0  2  0  0  0  0  0  0
  161.2140  206.5500  153.2080 C   0  0  1  0  0  3  0  0  0  0  0  0
  160.9460  209.8450  153.6200 O   0  0  0  0  0  0  0  0  0  0  0  0
  163.1840  210.4000  153.6400 O   0  0  0  0  0  0  0  0  0  0  0  0
  161.3070  208.0780  155.1070 O   0  0  0  0  0  0  0  0  0  0  0  0
  160.8730  209.4160  154.9740 C   0  0  2  0  0  3  0  0  0  0  0  0
  162.3410  209.5870  151.5650 C   0  0  1  0  0  3  0  0  0  0  0  0
  161.1440  207.3500  151.9000 C   0  0  1  0  0  3  0  0  0  0  0  0
  162.5220  206.2170  153.5730 O   0  0  0  0  0  1  0  0  0  0  0  0
  159.4830  209.6510  155.5530 C   0  0  0  0  0  1  0  0  0  0  0  0
  162.4470  208.0580  151.5040 C   0  0  0  0  0  2  0  0  0  0  0  0
  161.2380  210.1540  150.6560 C   0  0  1  0  0  3  0  0  0  0  0  0
  160.7530  211.5050  151.1730 C   0  0  0  0  0  1  0  0  0  0  0  0
  161.7020  210.2460  149.1940 C   0  0  1  0  0  3  0  0  0  0  0  0
  162.5530  211.4860  148.9210 C   0  0  0  0  0  2  0  0  0  0  0  0
  162.0880  212.2530  147.6930 C   0  0  0  0  0  2  0  0  0  0  0  0
  160.0740  212.9720  147.8380 O   0  0  0  0  0  1  0  0  0  0  0  0
  160.7600  211.9310  147.4190 O   0  0  0  0  0  0  0  0  0  0  0  0
  162.3400  209.0740  148.7620 O   0  0  0  0  0  0  0  0  0  0  0  0
  161.4130  208.4210  148.0170 N   0  0  0  0  0  2  0  0  0  0  0  0
  162.7200  206.5020  147.7890 O   0  0  0  0  0  1  0  0  0  0  0  0
  160.6240  206.4250  146.8670 O   0  0  0  0  0  0  0  0  0  0  0  0
  161.6260  207.0850  147.5650 C   0  0  0  0  0  0  0  0  0  0  0  0
  160.5770  206.5160  150.7490 C   0  0  0  0  0  2  0  0  0  0  0  0
  160.8220  204.2400  149.8180 C   0  0  0  0  0  3  0  0  0  0  0  0
  160.8730  205.0510  150.8780 C   0  0  0  0  0  3  0  0  0  0  0  0
  161.1040  202.7700  149.9220 C   0  0  0  0  0  3  0  0  0  0  0  0
  160.0680  201.9590  149.1650 C   0  0  0  0  0  1  0  0  0  0  0  0
  161.1620  202.3230  151.3710 C   0  0  0  0  0  1  0  0  0  0  0  0
  1  4  1  0  0  0  0
  1  5  2  0  0  0  0
  2  6  1  0  0  0  0
  3 10  1  1  0  0  0
  3  2  1  0  0  0  0
  4  7  1  0  0  0  0
  7  6  1  0  0  0  0
  7 11  1  6  0  0  0
  8 13  1  6  0  0  0
  8  1  1  0  0  0  0
  9 25  1  6  0  0  0
  9  3  1  0  0  0  0
 12  8  1  0  0  0  0
 12  9  1  0  0  0  0
 13 14  1  1  0  0  0
 15 16  1  1  0  0  0
 15 13  1  0  0  0  0
 17 16  1  0  0  0  0
 19 17  1  0  0  0  0
 19 18  1  0  0  0  0
 20 15  1  0  0  0  0
 21 20  1  0  0  0  0
 23 24  2  0  0  0  0
 24 22  1  0  0  0  0
 24 21  1  0  0  0  0
 25 27  1  0  0  0  0
 26 28  1  0  0  0  0
 26 27  2  0  0  0  0
 28 30  1  0  0  0  0
 29 28  1  0  0  0  0
M  END
>  <MODEL>
3

>  <REMARK>
 VINA RESULT:      -5.4      1.877      5.958
  Name = 
  10 active torsions:
  status: ('A' for Active; 'I' for Inactive)
    1  A    between atoms: C_1  and  C_4
    2  A    between atoms: C_1  and  C_22
    3  A    between atoms: C_4  and  C_9
    4  A    between atoms: C_4  and  O_12
    5  A    between atoms: C_7  and  C_23
    6  A    between atoms: C_7  and  C_25
    7  A    between atoms: N_8  and  O_12
    8  A    between atoms: C_9  and  C_21
    9  A    between atoms: C_10  and  C_15
   10  A    between atoms: O_17  and  C_21
                            x       y       z     vdW  Elec       q    Type
                         _______ _______ _______ _____ _____    ______ ____

>  <TORSDO>
F 10

$$$$
=
 OpenBabel11052422023D

 30 30  0  0  1  0  0  0  0  0999 V2000
  162.2210  208.9540  151.6100 C   0  0  0  0  0  0  0  0  0  0  0  0
  159.9880  208.1900  154.2320 C   0  0  0  0  0  2  0  0  0  0  0  0
  160.9020  206.9680  154.3030 C   0  0  1  0  0  3  0  0  0  0  0  0
  160.8690  209.2060  151.8370 O   0  0  0  0  0  0  0  0  0  0  0  0
  163.0890  209.8290  151.8700 O   0  0  0  0  0  0  0  0  0  0  0  0
  160.7160  209.3950  154.1620 O   0  0  0  0  0  0  0  0  0  0  0  0
  160.4540  210.0250  152.9230 C   0  0  2  0  0  3  0  0  0  0  0  0
  162.6550  207.5890  151.1840 C   0  0  1  0  0  3  0  0  0  0  0  0
  161.2040  206.3870  152.9140 C   0  0  1  0  0  3  0  0  0  0  0  0
  162.0570  207.2260  155.0480 O   0  0  0  0  0  1  0  0  0  0  0  0
  158.9990  210.4510  152.7690 C   0  0  0  0  0  1  0  0  0  0  0  0
  162.6250  206.6510  152.3980 C   0  0  0  0  0  2  0  0  0  0  0  0
  161.8440  207.0600  149.9890 C   0  0  1  0  0  3  0  0  0  0  0  0
  160.3490  207.2420  150.2290 C   0  0  0  0  0  1  0  0  0  0  0  0
  162.2860  207.7150  148.6710 C   0  0  1  0  0  3  0  0  0  0  0  0
  162.3310  206.7260  147.5060 C   0  0  0  0  0  2  0  0  0  0  0  0
  160.9860  206.5800  146.8150 C   0  0  0  0  0  2  0  0  0  0  0  0
  162.4270  205.5830  145.5820 O   0  0  0  0  0  1  0  0  0  0  0  0
  161.1330  205.8010  145.6680 O   0  0  0  0  0  0  0  0  0  0  0  0
  161.5230  208.8510  148.3590 O   0  0  0  0  0  0  0  0  0  0  0  0
  162.3310  209.9050  148.6340 N   0  0  0  0  0  2  0  0  0  0  0  0
  160.9250  211.4530  147.6000 O   0  0  0  0  0  0  0  0  0  0  0  0
  162.7920  212.2960  148.6260 O   0  0  0  0  0  1  0  0  0  0  0  0
  161.9740  211.2350  148.2620 C   0  0  0  0  0  0  0  0  0  0  0  0
  160.8300  204.9060  152.8200 C   0  0  0  0  0  2  0  0  0  0  0  0
  160.6850  203.3190  150.9300 C   0  0  0  0  0  3  0  0  0  0  0  0
  161.3920  204.2290  151.6050 C   0  0  0  0  0  3  0  0  0  0  0  0
  161.2270  202.6220  149.7190 C   0  0  0  0  0  3  0  0  0  0  0  0
  161.2070  203.5350  148.5060 C   0  0  0  0  0  1  0  0  0  0  0  0
  160.4570  201.3470  149.4270 C   0  0  0  0  0  1  0  0  0  0  0  0
  1  4  1  0  0  0  0
  1  5  2  0  0  0  0
  2  3  1  0  0  0  0
  3 10  1  6  0  0  0
  4  7  1  0  0  0  0
  6  2  1  0  0  0  0
  7 11  1  6  0  0  0
  7  6  1  0  0  0  0
  8 13  1  6  0  0  0
  8  1  1  0  0  0  0
  8 12  1  0  0  0  0
  9 25  1  1  0  0  0
  9  3  1  0  0  0  0
 12  9  1  0  0  0  0
 13 14  1  1  0  0  0
 15 16  1  6  0  0  0
 15 13  1  0  0  0  0
 17 16  1  0  0  0  0
 18 19  1  0  0  0  0
 19 17  1  0  0  0  0
 20 21  1  0  0  0  0
 20 15  1  0  0  0  0
 22 24  2  0  0  0  0
 24 23  1  0  0  0  0
 24 21  1  0  0  0  0
 26 27  2  0  0  0  0
 27 25  1  0  0  0  0
 28 26  1  0  0  0  0
 29 28  1  0  0  0  0
 30 28  1  0  0  0  0
M  END
>  <MODEL>
4

>  <REMARK>
 VINA RESULT:      -5.3      1.848      5.747
  Name = 
  10 active torsions:
  status: ('A' for Active; 'I' for Inactive)
    1  A    between atoms: C_1  and  C_4
    2  A    between atoms: C_1  and  C_22
    3  A    between atoms: C_4  and  C_9
    4  A    between atoms: C_4  and  O_12
    5  A    between atoms: C_7  and  C_23
    6  A    between atoms: C_7  and  C_25
    7  A    between atoms: N_8  and  O_12
    8  A    between atoms: C_9  and  C_21
    9  A    between atoms: C_10  and  C_15
   10  A    between atoms: O_17  and  C_21
                            x       y       z     vdW  Elec       q    Type
                         _______ _______ _______ _____ _____    ______ ____

>  <TORSDO>
F 10

$$$$
=
 OpenBabel11052422023D

 30 30  0  0  1  0  0  0  0  0999 V2000
  160.3680  207.7510  154.6050 C   0  0  0  0  0  0  0  0  0  0  0  0
  161.9640  210.8650  155.0570 C   0  0  0  0  0  2  0  0  0  0  0  0
  161.4300  211.0500  153.6380 C   0  0  1  0  0  3  0  0  0  0  0  0
  161.4940  208.1710  155.3130 O   0  0  0  0  0  0  0  0  0  0  0  0
  159.2580  207.6180  155.1870 O   0  0  0  0  0  0  0  0  0  0  0  0
  160.9800  210.3650  155.9350 O   0  0  0  0  0  0  0  0  0  0  0  0
  161.3740  209.0870  156.3940 C   0  0  2  0  0  3  0  0  0  0  0  0
  160.4460  207.5920  153.1210 C   0  0  1  0  0  3  0  0  0  0  0  0
  161.6680  209.8110  152.7630 C   0  0  1  0  0  3  0  0  0  0  0  0
  160.0950  211.4690  153.6350 O   0  0  0  0  0  1  0  0  0  0  0  0
  162.6470  209.1220  157.2310 C   0  0  0  0  0  1  0  0  0  0  0  0
  160.4140  208.9780  152.4650 C   0  0  0  0  0  2  0  0  0  0  0  0
  161.6520  206.7430  152.6850 C   0  0  1  0  0  3  0  0  0  0  0  0
  161.9940  205.7040  153.7480 C   0  0  0  0  0  1  0  0  0  0  0  0
  161.4160  206.0880  151.3140 C   0  0  1  0  0  3  0  0  0  0  0  0
  162.1300  206.8210  150.1790 C   0  0  0  0  0  2  0  0  0  0  0  0
  161.1600  207.4880  149.2170 C   0  0  0  0  0  2  0  0  0  0  0  0
  160.7960  206.3770  147.4210 O   0  0  0  0  0  1  0  0  0  0  0  0
  161.5980  207.2990  147.9080 O   0  0  0  0  0  0  0  0  0  0  0  0
  161.7200  204.7180  151.3190 O   0  0  0  0  0  0  0  0  0  0  0  0
  161.2190  204.2420  150.1530 N   0  0  0  0  0  2  0  0  0  0  0  0
  161.0580  202.0500  150.9370 O   0  0  0  0  0  1  0  0  0  0  0  0
  160.2770  202.4360  148.8170 O   0  0  0  0  0  0  0  0  0  0  0  0
  160.8540  202.8710  150.0030 C   0  0  0  0  0  0  0  0  0  0  0  0
  162.4400  210.1520  151.4870 C   0  0  0  0  0  2  0  0  0  0  0  0
  162.1710  211.3760  149.3560 C   0  0  0  0  0  3  0  0  0  0  0  0
  161.6340  210.9440  150.5000 C   0  0  0  0  0  3  0  0  0  0  0  0
  161.3890  212.1770  148.3580 C   0  0  0  0  0  3  0  0  0  0  0  0
  162.2890  212.7100  147.2580 C   0  0  0  0  0  1  0  0  0  0  0  0
  160.6490  213.3200  149.0290 C   0  0  0  0  0  1  0  0  0  0  0  0
  1  5  2  0  0  0  0
  1  4  1  0  0  0  0
  2  6  1  0  0  0  0
  3 10  1  1  0  0  0
  3  2  1  0  0  0  0
  4  7  1  0  0  0  0
  6  7  1  0  0  0  0
  7 11  1  6  0  0  0
  8 13  1  1  0  0  0
  8  1  1  0  0  0  0
  9 25  1  6  0  0  0
  9  3  1  0  0  0  0
 12  9  1  0  0  0  0
 12  8  1  0  0  0  0
 13 14  1  1  0  0  0
 15 16  1  6  0  0  0
 15 20  1  0  0  0  0
 15 13  1  0  0  0  0
 17 16  1  0  0  0  0
 18 19  1  0  0  0  0
 19 17  1  0  0  0  0
 21 20  1  0  0  0  0
 23 24  2  0  0  0  0
 24 21  1  0  0  0  0
 24 22  1  0  0  0  0
 26 27  2  0  0  0  0
 27 25  1  0  0  0  0
 28 30  1  0  0  0  0
 28 26  1  0  0  0  0
 29 28  1  0  0  0  0
M  END
>  <MODEL>
5

>  <REMARK>
 VINA RESULT:      -5.3      2.550      7.808
  Name = 
  10 active torsions:
  status: ('A' for Active; 'I' for Inactive)
    1  A    between atoms: C_1  and  C_4
    2  A    between atoms: C_1  and  C_22
    3  A    between atoms: C_4  and  C_9
    4  A    between atoms: C_4  and  O_12
    5  A    between atoms: C_7  and  C_23
    6  A    between atoms: C_7  and  C_25
    7  A    between atoms: N_8  and  O_12
    8  A    between atoms: C_9  and  C_21
    9  A    between atoms: C_10  and  C_15
   10  A    between atoms: O_17  and  C_21
                            x       y       z     vdW  Elec       q    Type
                         _______ _______ _______ _____ _____    ______ ____

>  <TORSDO>
F 10

$$$$
=
 OpenBabel11052422023D

 30 30  0  0  1  0  0  0  0  0999 V2000
  162.5820  208.2890  148.6140 C   0  0  0  0  0  0  0  0  0  0  0  0
  161.4250  210.9480  150.6230 C   0  0  0  0  0  2  0  0  0  0  0  0
  161.8080  209.9470  151.7110 C   0  0  1  0  0  3  0  0  0  0  0  0
  161.6030  209.2690  148.4560 O   0  0  0  0  0  0  0  0  0  0  0  0
  163.7290  208.4410  148.1140 O   0  0  0  0  0  0  0  0  0  0  0  0
  162.4390  211.0940  149.6530 O   0  0  0  0  0  0  0  0  0  0  0  0
  161.9550  210.6460  148.4040 C   0  0  2  0  0  3  0  0  0  0  0  0
  162.3130  207.1130  149.4960 C   0  0  1  0  0  3  0  0  0  0  0  0
  161.3260  208.5260  151.3870 C   0  0  1  0  0  3  0  0  0  0  0  0
  163.1730  210.0030  152.0120 O   0  0  0  0  0  1  0  0  0  0  0  0
  160.8010  211.4900  147.8750 C   0  0  0  0  0  1  0  0  0  0  0  0
  162.4310  207.5490  150.9620 C   0  0  0  0  0  2  0  0  0  0  0  0
  160.9740  206.4300  149.1730 C   0  0  1  0  0  3  0  0  0  0  0  0
  160.6220  206.6020  147.6980 C   0  0  0  0  0  1  0  0  0  0  0  0
  160.9820  204.9480  149.5790 C   0  0  1  0  0  3  0  0  0  0  0  0
  160.3070  204.7020  150.9280 C   0  0  0  0  0  2  0  0  0  0  0  0
  161.2460  204.0680  151.9410 C   0  0  0  0  0  2  0  0  0  0  0  0
  162.1510  202.1260  151.9340 O   0  0  0  0  0  1  0  0  0  0  0  0
  160.9750  202.7040  152.0380 O   0  0  0  0  0  0  0  0  0  0  0  0
  160.4570  204.1180  148.5770 O   0  0  0  0  0  0  0  0  0  0  0  0
  161.2620  203.0270  148.5650 N   0  0  0  0  0  2  0  0  0  0  0  0
  159.5170  201.5400  148.9990 O   0  0  0  0  0  1  0  0  0  0  0  0
  161.5850  200.6150  148.6580 O   0  0  0  0  0  0  0  0  0  0  0  0
  160.7400  201.7120  148.7480 C   0  0  0  0  0  0  0  0  0  0  0  0
  160.4550  207.9480  152.5050 C   0  0  0  0  0  2  0  0  0  0  0  0
  160.7970  208.2210  154.9380 C   0  0  0  0  0  3  0  0  0  0  0  0
  161.2110  207.7040  153.7780 C   0  0  0  0  0  3  0  0  0  0  0  0
  161.5400  208.0000  156.2220 C   0  0  0  0  0  3  0  0  0  0  0  0
  160.6560  207.3260  157.2570 C   0  0  0  0  0  1  0  0  0  0  0  0
  162.0870  209.3050  156.7720 C   0  0  0  0  0  1  0  0  0  0  0  0
  1  8  1  0  0  0  0
  2  3  1  0  0  0  0
  3 10  1  6  0  0  0
  4  1  1  0  0  0  0
  5  1  2  0  0  0  0
  6  2  1  0  0  0  0
  7 11  1  1  0  0  0
  7  4  1  0  0  0  0
  7  6  1  0  0  0  0
  8 13  1  1  0  0  0
  8 12  1  0  0  0  0
  9  3  1  0  0  0  0
  9 25  1  1  0  0  0
 12  9  1  0  0  0  0
 13 14  1  6  0  0  0
 13 15  1  0  0  0  0
 15 16  1  1  0  0  0
 16 17  1  0  0  0  0
 17 19  1  0  0  0  0
 18 19  1  0  0  0  0
 20 15  1  0  0  0  0
 21 20  1  0  0  0  0
 21 24  1  0  0  0  0
 23 24  2  0  0  0  0
 24 22  1  0  0  0  0
 25 27  1  0  0  0  0
 26 28  1  0  0  0  0
 27 26  2  0  0  0  0
 28 30  1  0  0  0  0
 28 29  1  0  0  0  0
M  END
>  <MODEL>
6

>  <REMARK>
 VINA RESULT:      -5.3      2.451      6.417
  Name = 
  10 active torsions:
  status: ('A' for Active; 'I' for Inactive)
    1  A    between atoms: C_1  and  C_4
    2  A    between atoms: C_1  and  C_22
    3  A    between atoms: C_4  and  C_9
    4  A    between atoms: C_4  and  O_12
    5  A    between atoms: C_7  and  C_23
    6  A    between atoms: C_7  and  C_25
    7  A    between atoms: N_8  and  O_12
    8  A    between atoms: C_9  and  C_21
    9  A    between atoms: C_10  and  C_15
   10  A    between atoms: O_17  and  C_21
                            x       y       z     vdW  Elec       q    Type
                         _______ _______ _______ _____ _____    ______ ____

>  <TORSDO>
F 10

$$$$
=
 OpenBabel11052422023D

 30 30  0  0  1  0  0  0  0  0999 V2000
  160.9320  208.9310  154.0170 C   0  0  0  0  0  0  0  0  0  0  0  0
  160.6690  212.0730  155.6010 C   0  0  0  0  0  2  0  0  0  0  0  0
  159.5270  212.1920  154.5930 C   0  0  1  0  0  3  0  0  0  0  0  0
  161.8510  209.8050  154.5970 O   0  0  0  0  0  0  0  0  0  0  0  0
  160.4800  207.9520  154.6680 O   0  0  0  0  0  0  0  0  0  0  0  0
  160.6360  210.8480  156.3000 O   0  0  0  0  0  0  0  0  0  0  0  0
  161.7950  210.1030  155.9860 C   0  0  2  0  0  3  0  0  0  0  0  0
  160.3770  209.2350  152.6630 C   0  0  1  0  0  3  0  0  0  0  0  0
  159.9320  211.6970  153.1970 C   0  0  1  0  0  3  0  0  0  0  0  0
  158.3540  211.5940  155.0640 O   0  0  0  0  0  1  0  0  0  0  0  0
  163.0790  210.7740  156.4590 C   0  0  0  0  0  1  0  0  0  0  0  0
  159.3270  210.3460  152.7900 C   0  0  0  0  0  2  0  0  0  0  0  0
  161.4760  209.5530  151.6360 C   0  0  1  0  0  3  0  0  0  0  0  0
  162.7250  210.0870  152.3290 C   0  0  0  0  0  1  0  0  0  0  0  0
  161.7990  208.3350  150.7560 C   0  0  1  0  0  3  0  0  0  0  0  0
  161.1950  207.0390  151.2970 C   0  0  0  0  0  2  0  0  0  0  0  0
  162.2330  206.1420  151.9510 C   0  0  0  0  0  2  0  0  0  0  0  0
  161.0430  204.4040  152.3460 O   0  0  0  0  0  1  0  0  0  0  0  0
  161.6340  205.4010  152.9680 O   0  0  0  0  0  0  0  0  0  0  0  0
  161.4600  208.5440  149.4110 O   0  0  0  0  0  0  0  0  0  0  0  0
  162.2710  207.7140  148.7090 N   0  0  0  0  0  2  0  0  0  0  0  0
  160.4990  206.5310  147.7590 O   0  0  0  0  0  1  0  0  0  0  0  0
  162.6040  205.9320  147.0840 O   0  0  0  0  0  0  0  0  0  0  0  0
  161.7420  206.7140  147.8400 C   0  0  0  0  0  0  0  0  0  0  0  0
  159.7100  212.7660  152.1250 C   0  0  0  0  0  2  0  0  0  0  0  0
  160.3750  213.3200  149.8100 C   0  0  0  0  0  3  0  0  0  0  0  0
  160.5060  212.5270  150.8760 C   0  0  0  0  0  3  0  0  0  0  0  0
  161.1520  213.0960  148.5460 C   0  0  0  0  0  3  0  0  0  0  0  0
  160.2240  212.8810  147.3640 C   0  0  0  0  0  1  0  0  0  0  0  0
  162.1020  211.9210  148.6860 C   0  0  0  0  0  1  0  0  0  0  0  0
  1  4  1  0  0  0  0
  1  5  2  0  0  0  0
  2  6  1  0  0  0  0
  3 10  1  1  0  0  0
  3  2  1  0  0  0  0
  4  7  1  0  0  0  0
  7  6  1  0  0  0  0
  7 11  1  6  0  0  0
  8 13  1  6  0  0  0
  8 12  1  0  0  0  0
  8  1  1  0  0  0  0
  9 25  1  6  0  0  0
  9  3  1  0  0  0  0
 12  9  1  0  0  0  0
 13 14  1  1  0  0  0
 15 16  1  1  0  0  0
 15 13  1  0  0  0  0
 16 17  1  0  0  0  0
 17 19  1  0  0  0  0
 18 19  1  0  0  0  0
 20 15  1  0  0  0  0
 21 20  1  0  0  0  0
 22 24  1  0  0  0  0
 23 24  2  0  0  0  0
 24 21  1  0  0  0  0
 26 27  2  0  0  0  0
 27 25  1  0  0  0  0
 28 30  1  0  0  0  0
 28 26  1  0  0  0  0
 29 28  1  0  0  0  0
M  END
>  <MODEL>
7

>  <REMARK>
 VINA RESULT:      -5.3      2.512      7.568
  Name = 
  10 active torsions:
  status: ('A' for Active; 'I' for Inactive)
    1  A    between atoms: C_1  and  C_4
    2  A    between atoms: C_1  and  C_22
    3  A    between atoms: C_4  and  C_9
    4  A    between atoms: C_4  and  O_12
    5  A    between atoms: C_7  and  C_23
    6  A    between atoms: C_7  and  C_25
    7  A    between atoms: N_8  and  O_12
    8  A    between atoms: C_9  and  C_21
    9  A    between atoms: C_10  and  C_15
   10  A    between atoms: O_17  and  C_21
                            x       y       z     vdW  Elec       q    Type
                         _______ _______ _______ _____ _____    ______ ____

>  <TORSDO>
F 10

$$$$
=
 OpenBabel11052422023D

 30 30  0  0  1  0  0  0  0  0999 V2000
  162.0250  210.0310  153.3030 C   0  0  0  0  0  0  0  0  0  0  0  0
  160.0810  207.2820  154.3550 C   0  0  0  0  0  2  0  0  0  0  0  0
  160.9780  206.5890  153.3300 C   0  0  1  0  0  3  0  0  0  0  0  0
  160.7100  209.8840  153.7420 O   0  0  0  0  0  0  0  0  0  0  0  0
  162.9300  210.3960  154.0990 O   0  0  0  0  0  0  0  0  0  0  0  0
  160.8160  208.0950  155.2420 O   0  0  0  0  0  0  0  0  0  0  0  0
  160.4300  209.4430  155.0640 C   0  0  2  0  0  3  0  0  0  0  0  0
  162.3890  209.6210  151.9120 C   0  0  1  0  0  3  0  0  0  0  0  0
  161.1170  207.4050  152.0370 C   0  0  1  0  0  3  0  0  0  0  0  0
  162.2120  206.2270  153.8800 O   0  0  0  0  0  1  0  0  0  0  0  0
  158.9740  209.6990  155.4340 C   0  0  0  0  0  1  0  0  0  0  0  0
  162.4760  208.0910  151.8470 C   0  0  0  0  0  2  0  0  0  0  0  0
  161.4430  210.2190  150.8570 C   0  0  1  0  0  3  0  0  0  0  0  0
  160.8320  211.5240  151.3570 C   0  0  0  0  0  1  0  0  0  0  0  0
  162.1510  210.4120  149.5070 C   0  0  1  0  0  3  0  0  0  0  0  0
  161.5810  209.5150  148.4080 C   0  0  0  0  0  2  0  0  0  0  0  0
  162.3500  208.2130  148.2610 C   0  0  0  0  0  2  0  0  0  0  0  0
  162.3450  206.2280  147.4550 O   0  0  0  0  0  1  0  0  0  0  0  0
  161.5930  207.3050  147.5240 O   0  0  0  0  0  0  0  0  0  0  0  0
  162.1890  211.7570  149.1120 O   0  0  0  0  0  0  0  0  0  0  0  0
  161.6110  211.7810  147.8850 N   0  0  0  0  0  2  0  0  0  0  0  0
  162.0840  214.0390  147.5350 O   0  0  0  0  0  1  0  0  0  0  0  0
  161.0710  212.9280  145.8050 O   0  0  0  0  0  0  0  0  0  0  0  0
  161.6080  212.9630  147.0850 C   0  0  0  0  0  0  0  0  0  0  0  0
  160.7120  206.5940  150.8040 C   0  0  0  0  0  2  0  0  0  0  0  0
  161.0690  204.2960  149.9660 C   0  0  0  0  0  3  0  0  0  0  0  0
  160.8460  205.1120  150.9990 C   0  0  0  0  0  3  0  0  0  0  0  0
  161.1970  202.8110  150.1330 C   0  0  0  0  0  3  0  0  0  0  0  0
  160.0840  202.0800  149.4040 C   0  0  0  0  0  1  0  0  0  0  0  0
  161.2050  202.4220  151.6000 C   0  0  0  0  0  1  0  0  0  0  0  0
  1  4  1  0  0  0  0
  1  5  2  0  0  0  0
  2  6  1  0  0  0  0
  3 10  1  1  0  0  0
  3  2  1  0  0  0  0
  4  7  1  0  0  0  0
  7  6  1  0  0  0  0
  7 11  1  6  0  0  0
  8 13  1  6  0  0  0
  8  1  1  0  0  0  0
  9 25  1  6  0  0  0
  9  3  1  0  0  0  0
 12  8  1  0  0  0  0
 12  9  1  0  0  0  0
 13 14  1  1  0  0  0
 15 16  1  6  0  0  0
 15 13  1  0  0  0  0
 17 16  1  0  0  0  0
 18 19  1  0  0  0  0
 19 17  1  0  0  0  0
 20 15  1  0  0  0  0
 21 20  1  0  0  0  0
 23 24  2  0  0  0  0
 24 22  1  0  0  0  0
 24 21  1  0  0  0  0
 25 27  1  0  0  0  0
 26 28  1  0  0  0  0
 26 27  2  0  0  0  0
 28 30  1  0  0  0  0
 29 28  1  0  0  0  0
M  END
>  <MODEL>
8

>  <REMARK>
 VINA RESULT:      -5.1      1.955      5.803
  Name = 
  10 active torsions:
  status: ('A' for Active; 'I' for Inactive)
    1  A    between atoms: C_1  and  C_4
    2  A    between atoms: C_1  and  C_22
    3  A    between atoms: C_4  and  C_9
    4  A    between atoms: C_4  and  O_12
    5  A    between atoms: C_7  and  C_23
    6  A    between atoms: C_7  and  C_25
    7  A    between atoms: N_8  and  O_12
    8  A    between atoms: C_9  and  C_21
    9  A    between atoms: C_10  and  C_15
   10  A    between atoms: O_17  and  C_21
                            x       y       z     vdW  Elec       q    Type
                         _______ _______ _______ _____ _____    ______ ____

>  <TORSDO>
F 10

$$$$
=
 OpenBabel11052422023D

 30 30  0  0  1  0  0  0  0  0999 V2000
  160.7900  208.9310  154.2630 C   0  0  0  0  0  0  0  0  0  0  0  0
  160.7320  212.1460  155.7130 C   0  0  0  0  0  2  0  0  0  0  0  0
  159.5370  212.2650  154.7690 C   0  0  1  0  0  3  0  0  0  0  0  0
  161.7710  209.7940  154.7480 O   0  0  0  0  0  0  0  0  0  0  0  0
  160.3430  207.9990  154.9840 O   0  0  0  0  0  0  0  0  0  0  0  0
  160.6970  210.9560  156.4680 O   0  0  0  0  0  0  0  0  0  0  0  0
  161.8090  210.1550  156.1230 C   0  0  2  0  0  3  0  0  0  0  0  0
  160.1660  209.1950  152.9310 C   0  0  1  0  0  3  0  0  0  0  0  0
  159.8400  211.6940  153.3760 C   0  0  1  0  0  3  0  0  0  0  0  0
  158.3730  211.7330  155.3330 O   0  0  0  0  0  1  0  0  0  0  0  0
  163.1420  210.7960  156.4890 C   0  0  0  0  0  1  0  0  0  0  0  0
  159.1650  210.3500  153.0670 C   0  0  0  0  0  2  0  0  0  0  0  0
  161.2120  209.4260  151.8280 C   0  0  1  0  0  3  0  0  0  0  0  0
  162.5070  209.9750  152.4180 C   0  0  0  0  0  1  0  0  0  0  0  0
  161.4630  208.1500  151.0100 C   0  0  1  0  0  3  0  0  0  0  0  0
  161.9300  208.4440  149.5840 C   0  0  0  0  0  2  0  0  0  0  0  0
  161.4360  207.4100  148.5860 C   0  0  0  0  0  2  0  0  0  0  0  0
  162.2900  206.0630  147.1550 O   0  0  0  0  0  1  0  0  0  0  0  0
  162.3330  207.3250  147.5220 O   0  0  0  0  0  0  0  0  0  0  0  0
  162.3260  207.2580  151.6650 O   0  0  0  0  0  0  0  0  0  0  0  0
  161.8820  206.0230  151.3230 N   0  0  0  0  0  2  0  0  0  0  0  0
  161.3200  205.4480  153.5130 O   0  0  0  0  0  1  0  0  0  0  0  0
  160.8270  203.9040  151.8940 O   0  0  0  0  0  0  0  0  0  0  0  0
  161.3360  205.1320  152.2940 C   0  0  0  0  0  0  0  0  0  0  0  0
  159.5930  212.7230  152.2700 C   0  0  0  0  0  2  0  0  0  0  0  0
  160.3100  213.2670  149.9680 C   0  0  0  0  0  3  0  0  0  0  0  0
  160.4470  212.5050  151.0560 C   0  0  0  0  0  3  0  0  0  0  0  0
  161.1450  213.0630  148.7390 C   0  0  0  0  0  3  0  0  0  0  0  0
  160.2830  213.0410  147.4890 C   0  0  0  0  0  1  0  0  0  0  0  0
  161.9610  211.7870  148.8340 C   0  0  0  0  0  1  0  0  0  0  0  0
  1  4  1  0  0  0  0
  1  5  2  0  0  0  0
  2  6  1  0  0  0  0
  3 10  1  1  0  0  0
  3  2  1  0  0  0  0
  4  7  1  0  0  0  0
  7  6  1  0  0  0  0
  7 11  1  6  0  0  0
  8 13  1  6  0  0  0
  8 12  1  0  0  0  0
  8  1  1  0  0  0  0
  9 25  1  6  0  0  0
  9  3  1  0  0  0  0
 12  9  1  0  0  0  0
 13 14  1  1  0  0  0
 15 16  1  6  0  0  0
 15 20  1  0  0  0  0
 15 13  1  0  0  0  0
 17 16  1  0  0  0  0
 18 19  1  0  0  0  0
 19 17  1  0  0  0  0
 21 20  1  0  0  0  0
 21 24  1  0  0  0  0
 23 24  2  0  0  0  0
 24 22  1  0  0  0  0
 26 27  2  0  0  0  0
 27 25  1  0  0  0  0
 28 30  1  0  0  0  0
 28 26  1  0  0  0  0
 29 28  1  0  0  0  0
M  END
>  <MODEL>
9

>  <REMARK>
 VINA RESULT:      -5.0      2.894      8.001
  Name = 
  10 active torsions:
  status: ('A' for Active; 'I' for Inactive)
    1  A    between atoms: C_1  and  C_4
    2  A    between atoms: C_1  and  C_22
    3  A    between atoms: C_4  and  C_9
    4  A    between atoms: C_4  and  O_12
    5  A    between atoms: C_7  and  C_23
    6  A    between atoms: C_7  and  C_25
    7  A    between atoms: N_8  and  O_12
    8  A    between atoms: C_9  and  C_21
    9  A    between atoms: C_10  and  C_15
   10  A    between atoms: O_17  and  C_21
                            x       y       z     vdW  Elec       q    Type
                         _______ _______ _______ _____ _____    ______ ____

>  <TORSDO>
F 10

$$$$
