=
 OpenBabel11062407413D

 27 31  0  0  1  0  0  0  0  0999 V2000
  161.3290  209.4510  152.3610 C   0  0  2  0  0  3  0  0  0  0  0  0
  161.9380  208.6270  150.0740 C   0  0  0  0  0  0  0  0  0  0  0  0
  161.2970  207.0520  151.8010 O   0  0  0  0  0  0  0  0  0  0  0  0
  162.1920  208.6530  148.7510 N   0  0  0  0  0  0  0  0  0  0  0  0
  161.1260  208.7000  155.1880 C   0  0  1  0  0  3  0  0  0  0  0  0
  162.0610  209.7760  151.0370 C   0  0  1  0  0  3  0  0  0  0  0  0
  161.5870  206.5670  149.3630 C   0  0  0  0  0  0  0  0  0  0  0  0
  161.7360  210.4270  153.4630 C   0  0  0  0  0  2  0  0  0  0  0  0
  161.5910  207.3730  150.4770 C   0  0  1  0  0  3  0  0  0  0  0  0
  160.7960  207.6830  154.0840 C   0  0  0  0  0  2  0  0  0  0  0  0
  161.9710  207.3900  148.3080 C   0  0  0  0  0  3  0  0  0  0  0  0
  160.9310  210.1540  154.7310 C   0  0  0  0  0  2  0  0  0  0  0  0
  161.6000  207.9990  152.8290 C   0  0  2  0  0  3  0  0  0  0  0  0
  161.4170  204.4390  148.0730 C   0  0  0  0  0  3  0  0  0  0  0  0
  160.6600  202.3940  149.1240 C   0  0  0  0  0  3  0  0  0  0  0  0
  160.5080  203.0720  150.3350 C   0  0  0  0  0  3  0  0  0  0  0  0
  160.8100  204.4350  150.4160 C   0  0  0  0  0  3  0  0  0  0  0  0
  161.2680  205.1290  149.2860 C   0  0  0  0  0  0  0  0  0  0  0  0
  161.1150  203.0760  147.9930 C   0  0  0  0  0  3  0  0  0  0  0  0
  160.5730  213.4390  149.3400 C   0  0  0  0  0  3  0  0  0  0  0  0
  161.5500  211.0510  150.4310 C   0  0  0  0  0  0  0  0  0  0  0  0
  160.5650  211.7800  151.1040 C   0  0  0  0  0  3  0  0  0  0  0  0
  160.0770  212.9730  150.5610 C   0  0  0  0  0  3  0  0  0  0  0  0
  161.5590  212.7150  148.6620 C   0  0  0  0  0  3  0  0  0  0  0  0
  162.0470  211.5230  149.2050 C   0  0  0  0  0  3  0  0  0  0  0  0
  159.9970  207.0960  156.3810 C   0  0  0  0  0  1  0  0  0  0  0  0
  160.4830  208.4140  156.4120 O   0  0  0  0  0  0  0  0  0  0  0  0
  1 13  1  0  0  0  0
  1  8  1  1  0  0  0
  2  9  1  0  0  0  0
  2  6  1  0  0  0  0
  3 13  1  0  0  0  0
  4  2  2  0  0  0  0
  5 27  1  1  0  0  0
  6 21  1  6  0  0  0
  6  1  1  0  0  0  0
  8 12  1  0  0  0  0
  9  7  1  6  0  0  0
  9  3  1  0  0  0  0
 10  5  1  0  0  0  0
 11  4  1  0  0  0  0
 11  7  2  0  0  0  0
 12  5  1  0  0  0  0
 13 10  1  1  0  0  0
 14 18  1  0  0  0  0
 15 16  2  0  0  0  0
 16 17  1  0  0  0  0
 18  7  1  0  0  0  0
 18 17  2  0  0  0  0
 19 14  2  0  0  0  0
 19 15  1  0  0  0  0
 20 23  1  0  0  0  0
 21 22  1  0  0  0  0
 23 22  2  0  0  0  0
 24 25  1  0  0  0  0
 24 20  2  0  0  0  0
 25 21  2  0  0  0  0
 26 27  1  0  0  0  0
M  END
>  <MODEL>
1

>  <REMARK>
 VINA RESULT:      -9.1      0.000      0.000
  Name = 
  3 active torsions:
  status: ('A' for Active; 'I' for Inactive)
    1  A    between atoms: C_9  and  C_15
    2  A    between atoms: C_13  and  O_22
    3  A    between atoms: C_14  and  C_17
                            x       y       z     vdW  Elec       q    Type
                         _______ _______ _______ _____ _____    ______ ____

>  <TORSDO>
F 3

$$$$
=
 OpenBabel11062407413D

 27 31  0  0  1  0  0  0  0  0999 V2000
  161.6680  208.0210  150.7850 C   0  0  2  0  0  3  0  0  0  0  0  0
  161.3580  207.3040  153.1670 C   0  0  0  0  0  0  0  0  0  0  0  0
  161.1130  209.6370  152.5590 O   0  0  0  0  0  0  0  0  0  0  0  0
  161.1590  206.4910  154.2230 N   0  0  0  0  0  2  0  0  0  0  0  0
  162.3120  210.2910  149.0450 C   0  0  1  0  0  3  0  0  0  0  0  0
  161.9560  206.9250  151.8390 C   0  0  1  0  0  3  0  0  0  0  0  0
  160.5040  208.5850  154.7470 C   0  0  0  0  0  0  0  0  0  0  0  0
  162.5520  207.8390  149.5530 C   0  0  0  0  0  2  0  0  0  0  0  0
  160.9910  208.5820  153.4620 C   0  0  0  0  0  0  0  0  0  0  0  0
  161.4930  210.4990  150.3290 C   0  0  0  0  0  2  0  0  0  0  0  0
  160.6280  207.2730  155.1950 C   0  0  0  0  0  3  0  0  0  0  0  0
  162.1840  208.8650  148.4860 C   0  0  0  0  0  2  0  0  0  0  0  0
  161.8710  209.4450  151.3620 C   0  0  2  0  0  3  0  0  0  0  0  0
  160.7500  210.3150  156.5280 C   0  0  0  0  0  3  0  0  0  0  0  0
  158.9840  211.9070  156.9810 C   0  0  0  0  0  3  0  0  0  0  0  0
  158.2070  211.3320  155.9730 C   0  0  0  0  0  3  0  0  0  0  0  0
  158.7010  210.2470  155.2430 C   0  0  0  0  0  3  0  0  0  0  0  0
  159.9770  209.7310  155.5130 C   0  0  0  0  0  0  0  0  0  0  0  0
  160.2560  211.3990  157.2580 C   0  0  0  0  0  3  0  0  0  0  0  0
  160.5280  203.1000  150.4840 C   0  0  0  0  0  3  0  0  0  0  0  0
  161.4590  205.5840  151.3820 C   0  0  0  0  0  0  0  0  0  0  0  0
  160.9740  205.4450  150.0770 C   0  0  0  0  0  3  0  0  0  0  0  0
  160.5090  204.2050  149.6280 C   0  0  0  0  0  3  0  0  0  0  0  0
  161.0120  203.2330  151.7880 C   0  0  0  0  0  3  0  0  0  0  0  0
  161.4770  204.4720  152.2380 C   0  0  0  0  0  3  0  0  0  0  0  0
  161.5630  212.4340  148.7040 C   0  0  0  0  0  1  0  0  0  0  0  0
  162.0780  211.2890  148.0740 O   0  0  0  0  0  0  0  0  0  0  0  0
  1  8  1  6  0  0  0
  1 13  1  0  0  0  0
  1  6  1  0  0  0  0
  2  9  2  0  0  0  0
  2  4  1  0  0  0  0
  3  9  1  0  0  0  0
  4 11  1  0  0  0  0
  5 27  1  6  0  0  0
  5 10  1  0  0  0  0
  6 21  1  6  0  0  0
  6  2  1  0  0  0  0
  7 11  2  0  0  0  0
  7 18  1  0  0  0  0
  9  7  1  0  0  0  0
 12  5  1  0  0  0  0
 12  8  1  0  0  0  0
 13 10  1  6  0  0  0
 13  3  1  0  0  0  0
 14 19  1  0  0  0  0
 15 19  2  0  0  0  0
 16 15  1  0  0  0  0
 17 18  1  0  0  0  0
 17 16  2  0  0  0  0
 18 14  2  0  0  0  0
 20 24  1  0  0  0  0
 21 25  1  0  0  0  0
 22 21  2  0  0  0  0
 23 22  1  0  0  0  0
 23 20  2  0  0  0  0
 24 25  2  0  0  0  0
 27 26  1  0  0  0  0
M  END
>  <MODEL>
2

>  <REMARK>
 VINA RESULT:      -8.5      2.269      7.526
  Name = 
  3 active torsions:
  status: ('A' for Active; 'I' for Inactive)
    1  A    between atoms: C_9  and  C_15
    2  A    between atoms: C_13  and  O_22
    3  A    between atoms: C_14  and  C_17
                            x       y       z     vdW  Elec       q    Type
                         _______ _______ _______ _____ _____    ______ ____

>  <TORSDO>
F 3

$$$$
=
 OpenBabel11062407413D

 27 31  0  0  1  0  0  0  0  0999 V2000
  161.5930  206.6360  149.4910 C   0  0  2  0  0  3  0  0  0  0  0  0
  162.2090  208.9310  150.2910 C   0  0  0  0  0  0  0  0  0  0  0  0
  161.7120  208.5540  147.9490 O   0  0  0  0  0  0  0  0  0  0  0  0
  162.4340  209.9500  151.1430 N   0  0  0  0  0  2  0  0  0  0  0  0
  161.4990  204.8760  147.1490 C   0  0  1  0  0  3  0  0  0  0  0  0
  162.2750  207.4610  150.6090 C   0  0  1  0  0  3  0  0  0  0  0  0
  161.9840  210.7660  149.0870 C   0  0  0  0  0  0  0  0  0  0  0  0
  161.9560  205.1580  149.6060 C   0  0  0  0  0  2  0  0  0  0  0  0
  161.9560  209.3930  149.0350 C   0  0  0  0  0  0  0  0  0  0  0  0
  161.2150  206.3800  147.0070 C   0  0  0  0  0  2  0  0  0  0  0  0
  162.2900  211.0820  150.4080 C   0  0  0  0  0  3  0  0  0  0  0  0
  161.1970  204.3470  148.5590 C   0  0  0  0  0  2  0  0  0  0  0  0
  161.9710  207.1540  148.0800 C   0  0  2  0  0  3  0  0  0  0  0  0
  162.8110  212.5340  147.5330 C   0  0  0  0  0  3  0  0  0  0  0  0
  161.3480  213.5410  145.8880 C   0  0  0  0  0  3  0  0  0  0  0  0
  160.2960  212.7350  146.3300 C   0  0  0  0  0  3  0  0  0  0  0  0
  160.5020  211.8280  147.3740 C   0  0  0  0  0  3  0  0  0  0  0  0
  161.7600  211.7200  147.9840 C   0  0  0  0  0  0  0  0  0  0  0  0
  162.6060  213.4400  146.4890 C   0  0  0  0  0  3  0  0  0  0  0  0
  160.5530  206.5780  154.4520 C   0  0  0  0  0  3  0  0  0  0  0  0
  161.6670  207.1680  151.9500 C   0  0  0  0  0  0  0  0  0  0  0  0
  161.7610  205.8750  152.4750 C   0  0  0  0  0  3  0  0  0  0  0  0
  161.2060  205.5800  153.7240 C   0  0  0  0  0  3  0  0  0  0  0  0
  160.4560  207.8730  153.9330 C   0  0  0  0  0  3  0  0  0  0  0  0
  161.0110  208.1680  152.6850 C   0  0  0  0  0  3  0  0  0  0  0  0
  161.1560  204.7050  144.8850 C   0  0  0  0  0  1  0  0  0  0  0  0
  160.9010  204.1030  146.1290 O   0  0  0  0  0  0  0  0  0  0  0  0
  1  8  1  6  0  0  0
  1  6  1  0  0  0  0
  2  6  1  0  0  0  0
  2  4  1  0  0  0  0
  3 13  1  0  0  0  0
  3  9  1  0  0  0  0
  5 27  1  6  0  0  0
  5 12  1  0  0  0  0
  6 21  1  1  0  0  0
  7 11  2  0  0  0  0
  9  7  1  0  0  0  0
  9  2  2  0  0  0  0
 10  5  1  0  0  0  0
 11  4  1  0  0  0  0
 12  8  1  0  0  0  0
 13 10  1  6  0  0  0
 13  1  1  0  0  0  0
 14 18  1  0  0  0  0
 15 16  2  0  0  0  0
 15 19  1  0  0  0  0
 16 17  1  0  0  0  0
 17 18  2  0  0  0  0
 18  7  1  0  0  0  0
 19 14  2  0  0  0  0
 21 22  2  0  0  0  0
 21 25  1  0  0  0  0
 22 23  1  0  0  0  0
 23 20  2  0  0  0  0
 24 20  1  0  0  0  0
 25 24  2  0  0  0  0
 26 27  1  0  0  0  0
M  END
>  <MODEL>
3

>  <REMARK>
 VINA RESULT:      -8.3      2.419      7.271
  Name = 
  3 active torsions:
  status: ('A' for Active; 'I' for Inactive)
    1  A    between atoms: C_9  and  C_15
    2  A    between atoms: C_13  and  O_22
    3  A    between atoms: C_14  and  C_17
                            x       y       z     vdW  Elec       q    Type
                         _______ _______ _______ _____ _____    ______ ____

>  <TORSDO>
F 3

$$$$
=
 OpenBabel11062407413D

 27 31  0  0  1  0  0  0  0  0999 V2000
  161.0150  210.6510  150.9170 C   0  0  2  0  0  3  0  0  0  0  0  0
  162.1290  209.0390  149.3550 C   0  0  0  0  0  0  0  0  0  0  0  0
  160.9130  208.2170  151.2820 O   0  0  0  0  0  0  0  0  0  0  0  0
  162.7260  208.5720  148.2410 N   0  0  0  0  0  0  0  0  0  0  0  0
  160.0020  211.0110  153.6450 C   0  0  1  0  0  3  0  0  0  0  0  0
  162.0980  210.4680  149.8270 C   0  0  1  0  0  3  0  0  0  0  0  0
  161.7920  206.8590  149.3740 C   0  0  0  0  0  0  0  0  0  0  0  0
  161.2030  211.9750  151.6560 C   0  0  0  0  0  2  0  0  0  0  0  0
  161.5740  208.0230  150.0710 C   0  0  1  0  0  3  0  0  0  0  0  0
  159.8840  209.6500  152.9420 C   0  0  0  0  0  2  0  0  0  0  0  0
  162.5150  207.2320  148.2450 C   0  0  0  0  0  3  0  0  0  0  0  0
  160.0700  212.1850  152.6560 C   0  0  0  0  0  2  0  0  0  0  0  0
  161.0170  209.4840  151.9370 C   0  0  2  0  0  3  0  0  0  0  0  0
  161.1710  204.5280  148.7390 C   0  0  0  0  0  3  0  0  0  0  0  0
  160.5740  202.8880  150.4170 C   0  0  0  0  0  3  0  0  0  0  0  0
  160.7740  203.8410  151.4190 C   0  0  0  0  0  3  0  0  0  0  0  0
  161.1710  205.1380  151.0810 C   0  0  0  0  0  3  0  0  0  0  0  0
  161.3740  205.4920  149.7380 C   0  0  0  0  0  0  0  0  0  0  0  0
  160.7730  203.2310  149.0770 C   0  0  0  0  0  3  0  0  0  0  0  0
  161.5330  213.1920  146.5460 C   0  0  0  0  0  3  0  0  0  0  0  0
  161.8850  211.4150  148.6830 C   0  0  0  0  0  0  0  0  0  0  0  0
  162.9360  212.2430  148.2760 C   0  0  0  0  0  3  0  0  0  0  0  0
  162.7620  213.1300  147.2100 C   0  0  0  0  0  3  0  0  0  0  0  0
  160.4790  212.3660  146.9460 C   0  0  0  0  0  3  0  0  0  0  0  0
  160.6530  211.4790  148.0120 C   0  0  0  0  0  3  0  0  0  0  0  0
  159.2520  210.2570  155.6800 C   0  0  0  0  0  1  0  0  0  0  0  0
  159.0350  211.1950  154.6570 O   0  0  0  0  0  0  0  0  0  0  0  0
  1  8  1  1  0  0  0
  1 13  1  0  0  0  0
  2  6  1  0  0  0  0
  3 13  1  0  0  0  0
  4 11  1  0  0  0  0
  4  2  2  0  0  0  0
  5 27  1  1  0  0  0
  6 21  1  6  0  0  0
  6  1  1  0  0  0  0
  7 18  1  0  0  0  0
  7  9  1  0  0  0  0
  8 12  1  0  0  0  0
  9  2  1  6  0  0  0
  9  3  1  0  0  0  0
 10  5  1  0  0  0  0
 11  7  2  0  0  0  0
 12  5  1  0  0  0  0
 13 10  1  1  0  0  0
 14 19  2  0  0  0  0
 14 18  1  0  0  0  0
 15 16  2  0  0  0  0
 17 16  1  0  0  0  0
 18 17  2  0  0  0  0
 19 15  1  0  0  0  0
 20 24  2  0  0  0  0
 20 23  1  0  0  0  0
 22 21  1  0  0  0  0
 23 22  2  0  0  0  0
 24 25  1  0  0  0  0
 25 21  2  0  0  0  0
 27 26  1  0  0  0  0
M  END
>  <MODEL>
4

>  <REMARK>
 VINA RESULT:      -7.6      1.590      2.161
  Name = 
  3 active torsions:
  status: ('A' for Active; 'I' for Inactive)
    1  A    between atoms: C_9  and  C_15
    2  A    between atoms: C_13  and  O_22
    3  A    between atoms: C_14  and  C_17
                            x       y       z     vdW  Elec       q    Type
                         _______ _______ _______ _____ _____    ______ ____

>  <TORSDO>
F 3

$$$$
=
 OpenBabel11062407413D

 27 31  0  0  1  0  0  0  0  0999 V2000
  161.7610  209.0690  149.6660 C   0  0  2  0  0  3  0  0  0  0  0  0
  162.0720  207.2340  151.3450 C   0  0  0  0  0  0  0  0  0  0  0  0
  161.4300  209.4530  152.0770 O   0  0  0  0  0  0  0  0  0  0  0  0
  162.2070  205.9880  151.8400 N   0  0  0  0  0  0  0  0  0  0  0  0
  161.7370  211.9770  149.2930 C   0  0  1  0  0  3  0  0  0  0  0  0
  162.4000  207.6890  149.9490 C   0  0  1  0  0  3  0  0  0  0  0  0
  161.4470  207.3660  153.4570 C   0  0  0  0  0  0  0  0  0  0  0  0
  162.3650  209.7050  148.4160 C   0  0  0  0  0  2  0  0  0  0  0  0
  161.6340  208.0940  152.3070 C   0  0  1  0  0  3  0  0  0  0  0  0
  161.2050  211.3530  150.5920 C   0  0  0  0  0  2  0  0  0  0  0  0
  161.8170  206.0630  153.1380 C   0  0  0  0  0  3  0  0  0  0  0  0
  161.6540  211.0160  148.0970 C   0  0  0  0  0  2  0  0  0  0  0  0
  161.9210  210.0360  150.8670 C   0  0  2  0  0  3  0  0  0  0  0  0
  161.0200  209.2180  155.0730 C   0  0  0  0  0  3  0  0  0  0  0  0
  160.0800  208.7820  157.2600 C   0  0  0  0  0  3  0  0  0  0  0  0
  160.0290  207.4170  156.9660 C   0  0  0  0  0  3  0  0  0  0  0  0
  160.4750  206.9530  155.7260 C   0  0  0  0  0  3  0  0  0  0  0  0
  160.9730  207.8490  154.7690 C   0  0  0  0  0  0  0  0  0  0  0  0
  160.5740  209.6830  156.3130 C   0  0  0  0  0  3  0  0  0  0  0  0
  161.2000  204.7950  147.0000 C   0  0  0  0  0  3  0  0  0  0  0  0
  161.9720  206.6720  148.9310 C   0  0  0  0  0  0  0  0  0  0  0  0
  162.3360  206.8500  147.5920 C   0  0  0  0  0  3  0  0  0  0  0  0
  161.9510  205.9130  146.6280 C   0  0  0  0  0  3  0  0  0  0  0  0
  160.8350  204.6100  148.3370 C   0  0  0  0  0  3  0  0  0  0  0  0
  161.2190  205.5460  149.3010 C   0  0  0  0  0  3  0  0  0  0  0  0
  160.7860  213.2990  147.6740 C   0  0  0  0  0  1  0  0  0  0  0  0
  161.1810  213.2460  149.0220 O   0  0  0  0  0  0  0  0  0  0  0  0
  1  8  1  6  0  0  0
  1  6  1  0  0  0  0
  1 13  1  0  0  0  0
  2  4  2  0  0  0  0
  3  9  1  0  0  0  0
  4 11  1  0  0  0  0
  5 27  1  6  0  0  0
  5 10  1  0  0  0  0
  6 21  1  6  0  0  0
  6  2  1  0  0  0  0
  7 18  1  0  0  0  0
  9  2  1  6  0  0  0
  9  7  1  0  0  0  0
 11  7  2  0  0  0  0
 12  8  1  0  0  0  0
 12  5  1  0  0  0  0
 13 10  1  6  0  0  0
 13  3  1  0  0  0  0
 14 19  1  0  0  0  0
 16 15  1  0  0  0  0
 17 16  2  0  0  0  0
 18 14  2  0  0  0  0
 18 17  1  0  0  0  0
 19 15  2  0  0  0  0
 20 24  1  0  0  0  0
 21 25  1  0  0  0  0
 22 21  2  0  0  0  0
 23 20  2  0  0  0  0
 23 22  1  0  0  0  0
 24 25  2  0  0  0  0
 26 27  1  0  0  0  0
M  END
>  <MODEL>
5

>  <REMARK>
 VINA RESULT:      -7.4      1.926      6.588
  Name = 
  3 active torsions:
  status: ('A' for Active; 'I' for Inactive)
    1  A    between atoms: C_9  and  C_15
    2  A    between atoms: C_13  and  O_22
    3  A    between atoms: C_14  and  C_17
                            x       y       z     vdW  Elec       q    Type
                         _______ _______ _______ _____ _____    ______ ____

>  <TORSDO>
F 3

$$$$
=
 OpenBabel11062407413D

 27 31  0  0  1  0  0  0  0  0999 V2000
  159.9000  209.9770  154.0100 C   0  0  2  0  0  3  0  0  0  0  0  0
  159.6060  212.3220  153.1740 C   0  0  0  0  0  0  0  0  0  0  0  0
  160.7350  210.6760  151.8000 O   0  0  0  0  0  0  0  0  0  0  0  0
  159.1270  213.5780  153.0880 N   0  0  0  0  0  2  0  0  0  0  0  0
  161.5010  207.5350  153.7400 C   0  0  1  0  0  3  0  0  0  0  0  0
  159.6280  211.4490  154.4000 C   0  0  1  0  0  3  0  0  0  0  0  0
  159.9730  212.9520  151.0920 C   0  0  0  0  0  0  0  0  0  0  0  0
  160.2800  209.1490  155.2350 C   0  0  0  0  0  2  0  0  0  0  0  0
  160.1450  211.9240  151.9880 C   0  0  0  0  0  0  0  0  0  0  0  0
  161.1970  208.4080  152.5130 C   0  0  0  0  0  2  0  0  0  0  0  0
  159.3450  213.9670  151.8060 C   0  0  0  0  0  3  0  0  0  0  0  0
  160.4460  207.6820  154.8480 C   0  0  0  0  0  2  0  0  0  0  0  0
  161.0160  209.8600  152.9400 C   0  0  2  0  0  3  0  0  0  0  0  0
  159.5670  213.6350  148.7270 C   0  0  0  0  0  3  0  0  0  0  0  0
  161.1440  213.0850  146.9750 C   0  0  0  0  0  3  0  0  0  0  0  0
  161.9620  212.4470  147.9110 C   0  0  0  0  0  3  0  0  0  0  0  0
  161.5810  212.4020  149.2550 C   0  0  0  0  0  3  0  0  0  0  0  0
  160.3820  212.9960  149.6750 C   0  0  0  0  0  0  0  0  0  0  0  0
  159.9480  213.6800  147.3830 C   0  0  0  0  0  3  0  0  0  0  0  0
  155.9530  211.7940  156.6100 C   0  0  0  0  0  3  0  0  0  0  0  0
  158.3540  211.5790  155.1820 C   0  0  0  0  0  0  0  0  0  0  0  0
  157.1570  211.1210  154.6200 C   0  0  0  0  0  3  0  0  0  0  0  0
  155.9590  211.2280  155.3320 C   0  0  0  0  0  3  0  0  0  0  0  0
  157.1460  212.2510  157.1790 C   0  0  0  0  0  3  0  0  0  0  0  0
  158.3440  212.1450  156.4670 C   0  0  0  0  0  3  0  0  0  0  0  0
  162.1970  206.1220  152.0710 C   0  0  0  0  0  1  0  0  0  0  0  0
  161.7700  206.1900  153.4080 O   0  0  0  0  0  0  0  0  0  0  0  0
  1  6  1  0  0  0  0
  1  8  1  1  0  0  0
  2  6  1  0  0  0  0
  3  9  1  0  0  0  0
  3 13  1  0  0  0  0
  4  2  1  0  0  0  0
  5 27  1  6  0  0  0
  5 12  1  0  0  0  0
  6 21  1  6  0  0  0
  7 11  2  0  0  0  0
  7  9  1  0  0  0  0
  9  2  2  0  0  0  0
 10  5  1  0  0  0  0
 11  4  1  0  0  0  0
 12  8  1  0  0  0  0
 13 10  1  6  0  0  0
 13  1  1  0  0  0  0
 14 18  1  0  0  0  0
 15 19  1  0  0  0  0
 15 16  2  0  0  0  0
 16 17  1  0  0  0  0
 17 18  2  0  0  0  0
 18  7  1  0  0  0  0
 19 14  2  0  0  0  0
 20 24  1  0  0  0  0
 21 25  1  0  0  0  0
 22 21  2  0  0  0  0
 22 23  1  0  0  0  0
 23 20  2  0  0  0  0
 25 24  2  0  0  0  0
 26 27  1  0  0  0  0
M  END
>  <MODEL>
6

>  <REMARK>
 VINA RESULT:      -6.8      2.914      6.665
  Name = 
  3 active torsions:
  status: ('A' for Active; 'I' for Inactive)
    1  A    between atoms: C_9  and  C_15
    2  A    between atoms: C_13  and  O_22
    3  A    between atoms: C_14  and  C_17
                            x       y       z     vdW  Elec       q    Type
                         _______ _______ _______ _____ _____    ______ ____

>  <TORSDO>
F 3

$$$$
=
 OpenBabel11062407413D

 27 31  0  0  1  0  0  0  0  0999 V2000
  161.6000  209.1950  151.6050 C   0  0  2  0  0  3  0  0  0  0  0  0
  160.8300  207.0850  152.7180 C   0  0  0  0  0  0  0  0  0  0  0  0
  161.3740  207.0830  150.3560 O   0  0  0  0  0  0  0  0  0  0  0  0
  160.5320  206.2170  153.7040 N   0  0  0  0  0  2  0  0  0  0  0  0
  161.8300  210.5840  149.0340 C   0  0  1  0  0  3  0  0  0  0  0  0
  160.8570  208.5860  152.8180 C   0  0  1  0  0  3  0  0  0  0  0  0
  160.9480  205.0830  151.7980 C   0  0  0  0  0  0  0  0  0  0  0  0
  161.3320  210.6940  151.4970 C   0  0  0  0  0  2  0  0  0  0  0  0
  161.0650  206.4290  151.5470 C   0  0  0  0  0  0  0  0  0  0  0  0
  162.0180  209.0620  149.1170 C   0  0  0  0  0  2  0  0  0  0  0  0
  160.6100  204.9830  153.1440 C   0  0  0  0  0  3  0  0  0  0  0  0
  162.1520  211.2940  150.3580 C   0  0  0  0  0  2  0  0  0  0  0  0
  161.2040  208.5010  150.2770 C   0  0  2  0  0  3  0  0  0  0  0  0
  161.2070  202.6480  151.3220 C   0  0  0  0  0  3  0  0  0  0  0  0
  161.4530  201.8320  149.0560 C   0  0  0  0  0  3  0  0  0  0  0  0
  161.3680  203.1420  148.5760 C   0  0  0  0  0  3  0  0  0  0  0  0
  161.2040  204.2040  149.4690 C   0  0  0  0  0  3  0  0  0  0  0  0
  161.1210  203.9660  150.8490 C   0  0  0  0  0  0  0  0  0  0  0  0
  161.3710  201.5850  150.4290 C   0  0  0  0  0  3  0  0  0  0  0  0
  162.6210  209.9120  156.5110 C   0  0  0  0  0  3  0  0  0  0  0  0
  161.4690  209.0340  154.1130 C   0  0  0  0  0  0  0  0  0  0  0  0
  162.1340  210.2630  154.1650 C   0  0  0  0  0  3  0  0  0  0  0  0
  162.7080  210.7030  155.3620 C   0  0  0  0  0  3  0  0  0  0  0  0
  161.9560  208.6820  156.4660 C   0  0  0  0  0  3  0  0  0  0  0  0
  161.3820  208.2430  155.2700 C   0  0  0  0  0  3  0  0  0  0  0  0
  162.6380  212.5410  148.1440 C   0  0  0  0  0  1  0  0  0  0  0  0
  162.4860  211.1610  147.9240 O   0  0  0  0  0  0  0  0  0  0  0  0
  1  8  1  6  0  0  0
  1  6  1  0  0  0  0
  2  6  1  0  0  0  0
  2  4  1  0  0  0  0
  3  9  1  0  0  0  0
  5 27  1  6  0  0  0
  5 10  1  0  0  0  0
  5 12  1  0  0  0  0
  6 21  1  1  0  0  0
  7 11  2  0  0  0  0
  9  7  1  0  0  0  0
  9  2  2  0  0  0  0
 11  4  1  0  0  0  0
 12  8  1  0  0  0  0
 13 10  1  6  0  0  0
 13  3  1  0  0  0  0
 13  1  1  0  0  0  0
 15 19  1  0  0  0  0
 16 15  2  0  0  0  0
 16 17  1  0  0  0  0
 17 18  2  0  0  0  0
 18 14  1  0  0  0  0
 18  7  1  0  0  0  0
 19 14  2  0  0  0  0
 21 22  2  0  0  0  0
 21 25  1  0  0  0  0
 22 23  1  0  0  0  0
 23 20  2  0  0  0  0
 24 20  1  0  0  0  0
 25 24  2  0  0  0  0
 27 26  1  0  0  0  0
M  END
>  <MODEL>
7

>  <REMARK>
 VINA RESULT:      -6.7      2.118      5.009
  Name = 
  3 active torsions:
  status: ('A' for Active; 'I' for Inactive)
    1  A    between atoms: C_9  and  C_15
    2  A    between atoms: C_13  and  O_22
    3  A    between atoms: C_14  and  C_17
                            x       y       z     vdW  Elec       q    Type
                         _______ _______ _______ _____ _____    ______ ____

>  <TORSDO>
F 3

$$$$
=
 OpenBabel11062407413D

 27 31  0  0  1  0  0  0  0  0999 V2000
  161.5130  208.6650  150.2500 C   0  0  2  0  0  3  0  0  0  0  0  0
  161.7620  211.1310  149.8730 C   0  0  0  0  0  0  0  0  0  0  0  0
  161.4850  209.6360  147.9860 O   0  0  0  0  0  0  0  0  0  0  0  0
  161.7900  212.4510  150.1430 N   0  0  0  0  0  2  0  0  0  0  0  0
  161.8170  206.0240  149.0150 C   0  0  1  0  0  3  0  0  0  0  0  0
  161.9990  210.0080  150.8470 C   0  0  1  0  0  3  0  0  0  0  0  0
  161.3820  212.1360  147.9470 C   0  0  0  0  0  0  0  0  0  0  0  0
  162.0590  207.4840  151.0490 C   0  0  0  0  0  2  0  0  0  0  0  0
  161.5390  210.9110  148.5480 C   0  0  0  0  0  0  0  0  0  0  0  0
  161.3480  207.2260  148.1810 C   0  0  0  0  0  2  0  0  0  0  0  0
  161.5500  213.0730  148.9620 C   0  0  0  0  0  3  0  0  0  0  0  0
  161.4890  206.1760  150.5090 C   0  0  0  0  0  2  0  0  0  0  0  0
  161.9170  208.5150  148.7620 C   0  0  2  0  0  3  0  0  0  0  0  0
  159.8720  212.0830  145.9620 C   0  0  0  0  0  3  0  0  0  0  0  0
  160.5880  212.9500  143.8180 C   0  0  0  0  0  3  0  0  0  0  0  0
  161.8270  213.2890  144.3690 C   0  0  0  0  0  3  0  0  0  0  0  0
  162.0880  213.0240  145.7160 C   0  0  0  0  0  3  0  0  0  0  0  0
  161.1130  212.4200  146.5240 C   0  0  0  0  0  0  0  0  0  0  0  0
  159.6110  212.3480  144.6140 C   0  0  0  0  0  3  0  0  0  0  0  0
  160.1580  210.8090  154.6530 C   0  0  0  0  0  3  0  0  0  0  0  0
  161.3420  210.2870  152.1680 C   0  0  0  0  0  0  0  0  0  0  0  0
  162.1200  210.2930  153.3300 C   0  0  0  0  0  3  0  0  0  0  0  0
  161.5300  210.5540  154.5710 C   0  0  0  0  0  3  0  0  0  0  0  0
  159.3750  210.8050  153.4940 C   0  0  0  0  0  3  0  0  0  0  0  0
  159.9640  210.5440  152.2540 C   0  0  0  0  0  3  0  0  0  0  0  0
  160.9290  203.9690  149.5220 C   0  0  0  0  0  1  0  0  0  0  0  0
  161.4000  204.7860  148.4800 O   0  0  0  0  0  0  0  0  0  0  0  0
  1  6  1  0  0  0  0
  1  8  1  1  0  0  0
  2  4  1  0  0  0  0
  2  6  1  0  0  0  0
  3  9  1  0  0  0  0
  3 13  1  0  0  0  0
  5 27  1  6  0  0  0
  5 12  1  0  0  0  0
  6 21  1  1  0  0  0
  7  9  1  0  0  0  0
  7 11  2  0  0  0  0
  9  2  2  0  0  0  0
 10  5  1  0  0  0  0
 11  4  1  0  0  0  0
 12  8  1  0  0  0  0
 13 10  1  6  0  0  0
 13  1  1  0  0  0  0
 14 18  1  0  0  0  0
 15 16  2  0  0  0  0
 15 19  1  0  0  0  0
 16 17  1  0  0  0  0
 17 18  2  0  0  0  0
 18  7  1  0  0  0  0
 19 14  2  0  0  0  0
 21 25  2  0  0  0  0
 21 22  1  0  0  0  0
 22 23  2  0  0  0  0
 23 20  1  0  0  0  0
 24 20  2  0  0  0  0
 25 24  1  0  0  0  0
 27 26  1  0  0  0  0
M  END
>  <MODEL>
8

>  <REMARK>
 VINA RESULT:      -6.6      2.476      6.487
  Name = 
  3 active torsions:
  status: ('A' for Active; 'I' for Inactive)
    1  A    between atoms: C_9  and  C_15
    2  A    between atoms: C_13  and  O_22
    3  A    between atoms: C_14  and  C_17
                            x       y       z     vdW  Elec       q    Type
                         _______ _______ _______ _____ _____    ______ ____

>  <TORSDO>
F 3

$$$$
=
 OpenBabel11062407413D

 27 31  0  0  1  0  0  0  0  0999 V2000
  161.4040  209.8020  150.4040 C   0  0  2  0  0  3  0  0  0  0  0  0
  161.1020  208.9410  152.7390 C   0  0  0  0  0  0  0  0  0  0  0  0
  160.5620  211.2450  152.2140 O   0  0  0  0  0  0  0  0  0  0  0  0
  160.9750  208.0610  153.7510 N   0  0  0  0  0  2  0  0  0  0  0  0
  161.7970  212.2150  148.7870 C   0  0  1  0  0  3  0  0  0  0  0  0
  161.7980  208.7080  151.4250 C   0  0  1  0  0  3  0  0  0  0  0  0
  160.0180  210.0210  154.3280 C   0  0  0  0  0  0  0  0  0  0  0  0
  162.3520  209.7980  149.2070 C   0  0  0  0  0  2  0  0  0  0  0  0
  160.5520  210.1430  153.0680 C   0  0  0  0  0  0  0  0  0  0  0  0
  160.9080  212.2520  150.0390 C   0  0  0  0  0  2  0  0  0  0  0  0
  160.3030  208.7190  154.7290 C   0  0  0  0  0  3  0  0  0  0  0  0
  161.8890  210.8130  148.1660 C   0  0  0  0  0  2  0  0  0  0  0  0
  161.3860  211.2120  151.0460 C   0  0  2  0  0  3  0  0  0  0  0  0
  159.8650  211.5290  156.3100 C   0  0  0  0  0  3  0  0  0  0  0  0
  157.9680  212.9990  156.6230 C   0  0  0  0  0  3  0  0  0  0  0  0
  157.4060  212.5270  155.4350 C   0  0  0  0  0  3  0  0  0  0  0  0
  158.0730  211.5540  154.6840 C   0  0  0  0  0  3  0  0  0  0  0  0
  159.3090  211.0480  155.1150 C   0  0  0  0  0  0  0  0  0  0  0  0
  159.1980  212.5010  157.0610 C   0  0  0  0  0  3  0  0  0  0  0  0
  160.9800  204.7540  149.9390 C   0  0  0  0  0  3  0  0  0  0  0  0
  161.5080  207.3350  150.8920 C   0  0  0  0  0  0  0  0  0  0  0  0
  161.9060  206.2170  151.6330 C   0  0  0  0  0  3  0  0  0  0  0  0
  161.6420  204.9280  151.1580 C   0  0  0  0  0  3  0  0  0  0  0  0
  160.5790  205.8680  149.1950 C   0  0  0  0  0  3  0  0  0  0  0  0
  160.8430  207.1560  149.6690 C   0  0  0  0  0  3  0  0  0  0  0  0
  161.2420  212.6170  146.5960 C   0  0  0  0  0  1  0  0  0  0  0  0
  161.4680  213.2160  147.8460 O   0  0  0  0  0  0  0  0  0  0  0  0
  1  8  1  6  0  0  0
  1 13  1  0  0  0  0
  1  6  1  0  0  0  0
  2  9  2  0  0  0  0
  2  4  1  0  0  0  0
  3  9  1  0  0  0  0
  4 11  1  0  0  0  0
  5 27  1  6  0  0  0
  5 10  1  0  0  0  0
  6 21  1  6  0  0  0
  6  2  1  0  0  0  0
  7 11  2  0  0  0  0
  7 18  1  0  0  0  0
  9  7  1  0  0  0  0
 12  5  1  0  0  0  0
 12  8  1  0  0  0  0
 13 10  1  6  0  0  0
 13  3  1  0  0  0  0
 14 19  1  0  0  0  0
 15 19  2  0  0  0  0
 16 15  1  0  0  0  0
 17 18  1  0  0  0  0
 17 16  2  0  0  0  0
 18 14  2  0  0  0  0
 20 23  1  0  0  0  0
 21 22  1  0  0  0  0
 23 22  2  0  0  0  0
 24 25  1  0  0  0  0
 24 20  2  0  0  0  0
 25 21  2  0  0  0  0
 26 27  1  0  0  0  0
M  END
>  <MODEL>
9

>  <REMARK>
 VINA RESULT:      -6.3      2.683      7.593
  Name = 
  3 active torsions:
  status: ('A' for Active; 'I' for Inactive)
    1  A    between atoms: C_9  and  C_15
    2  A    between atoms: C_13  and  O_22
    3  A    between atoms: C_14  and  C_17
                            x       y       z     vdW  Elec       q    Type
                         _______ _______ _______ _____ _____    ______ ____

>  <TORSDO>
F 3

$$$$
