=
 OpenBabel11052423153D

 27 31  0  0  1  0  0  0  0  0999 V2000
  160.7910  210.6570  151.4420 N   0  0  0  0  0  2  0  0  0  0  0  0
  161.6350  208.9020  150.0110 C   0  0  0  0  0  0  0  0  0  0  0  0
  161.8720  207.9690  152.2680 O   0  0  0  0  0  0  0  0  0  0  0  0
  161.1310  205.0520  148.4620 C   0  0  0  0  0  3  0  0  0  0  0  0
  161.0280  202.6930  148.7920 F   0  0  0  0  0  0  0  0  0  0  0  0
  161.4040  208.6770  148.6450 C   0  0  0  0  0  3  0  0  0  0  0  0
  161.5690  205.3870  151.2080 C   0  0  0  0  0  3  0  0  0  0  0  0
  160.2680  209.1540  155.3600 C   0  0  0  0  0  0  0  0  0  0  0  0
  161.4060  204.1050  150.6750 C   0  0  0  0  0  3  0  0  0  0  0  0
  160.1320  208.7130  156.6690 O   0  0  0  0  0  1  0  0  0  0  0  0
  161.5170  206.5100  150.3720 C   0  0  0  0  0  0  0  0  0  0  0  0
  161.8740  210.2780  150.5550 C   0  0  1  0  0  3  0  0  0  0  0  0
  161.1870  203.9370  149.3050 C   0  0  0  0  0  0  0  0  0  0  0  0
  161.2940  206.3360  148.9880 C   0  0  0  0  0  0  0  0  0  0  0  0
  160.5730  210.0610  152.7220 C   0  0  0  0  0  0  0  0  0  0  0  0
  161.6650  207.8070  150.8890 C   0  0  0  0  0  0  0  0  0  0  0  0
  161.0220  208.4130  154.4490 C   0  0  0  0  0  3  0  0  0  0  0  0
  161.2380  207.4160  148.1680 N   0  0  0  0  0  0  0  0  0  0  0  0
  159.6440  210.3310  154.9520 C   0  0  0  0  0  3  0  0  0  0  0  0
  159.8020  210.7810  153.6420 C   0  0  0  0  0  3  0  0  0  0  0  0
  161.1670  208.8330  153.1210 C   0  0  0  0  0  0  0  0  0  0  0  0
  162.5290  213.3550  147.6180 C   0  0  0  0  0  3  0  0  0  0  0  0
  162.1090  211.3350  149.5140 C   0  0  0  0  0  0  0  0  0  0  0  0
  161.1960  212.3890  149.3940 C   0  0  0  0  0  3  0  0  0  0  0  0
  161.4040  213.3960  148.4460 C   0  0  0  0  0  3  0  0  0  0  0  0
  163.4470  212.3080  147.7370 C   0  0  0  0  0  3  0  0  0  0  0  0
  163.2400  211.3010  148.6840 C   0  0  0  0  0  3  0  0  0  0  0  0
  1 15  1  0  0  0  0
  2 12  1  0  0  0  0
  2 16  1  0  0  0  0
  3 21  1  0  0  0  0
  4 14  1  0  0  0  0
  4 13  2  0  0  0  0
  5 13  1  0  0  0  0
  6  2  2  0  0  0  0
  8 10  1  0  0  0  0
  9  7  2  0  0  0  0
 11 16  2  0  0  0  0
 11  7  1  0  0  0  0
 12 23  1  6  0  0  0
 12  1  1  0  0  0  0
 13  9  1  0  0  0  0
 14 11  1  0  0  0  0
 15 21  2  0  0  0  0
 15 20  1  0  0  0  0
 16  3  1  0  0  0  0
 17  8  2  0  0  0  0
 18  6  1  0  0  0  0
 18 14  2  0  0  0  0
 19  8  1  0  0  0  0
 20 19  2  0  0  0  0
 21 17  1  0  0  0  0
 22 26  2  0  0  0  0
 22 25  1  0  0  0  0
 24 23  1  0  0  0  0
 25 24  2  0  0  0  0
 26 27  1  0  0  0  0
 27 23  2  0  0  0  0
M  END
>  <MODEL>
1

>  <REMARK>
 VINA RESULT:      -8.0      0.000      0.000
  Name = 
  1 active torsions:
  status: ('A' for Active; 'I' for Inactive)
    1  A    between atoms: C_9  and  C_15
                            x       y       z     vdW  Elec       q    Type
                         _______ _______ _______ _____ _____    ______ ____

>  <TORSDO>
F 1

$$$$
=
 OpenBabel11052423153D

 27 31  0  0  1  0  0  0  0  0999 V2000
  160.6920  206.9790  151.9250 N   0  0  0  0  0  2  0  0  0  0  0  0
  161.2310  209.3350  151.8910 C   0  0  0  0  0  0  0  0  0  0  0  0
  162.3840  208.4520  149.9130 O   0  0  0  0  0  0  0  0  0  0  0  0
  160.7990  213.0370  149.9970 C   0  0  0  0  0  3  0  0  0  0  0  0
  161.1740  214.4440  148.1100 F   0  0  0  0  0  0  0  0  0  0  0  0
  160.5720  210.4110  152.5070 C   0  0  0  0  0  3  0  0  0  0  0  0
  162.1180  210.9540  148.6680 C   0  0  0  0  0  3  0  0  0  0  0  0
  161.8110  205.2230  148.2440 C   0  0  0  0  0  0  0  0  0  0  0  0
  161.9720  212.1990  148.0500 C   0  0  0  0  0  3  0  0  0  0  0  0
  162.2110  204.5990  147.0710 O   0  0  0  0  0  1  0  0  0  0  0  0
  161.6090  210.7420  149.9560 C   0  0  0  0  0  0  0  0  0  0  0  0
  161.4380  208.0280  152.5940 C   0  0  1  0  0  3  0  0  0  0  0  0
  161.3130  213.2390  148.7130 C   0  0  0  0  0  0  0  0  0  0  0  0
  160.9420  211.7950  150.6210 C   0  0  0  0  0  0  0  0  0  0  0  0
  161.0290  206.4720  150.6320 C   0  0  0  0  0  0  0  0  0  0  0  0
  161.7320  209.4950  150.5890 C   0  0  0  0  0  0  0  0  0  0  0  0
  162.2990  206.4910  148.5610 C   0  0  0  0  0  3  0  0  0  0  0  0
  160.4400  211.6010  151.8670 N   0  0  0  0  0  0  0  0  0  0  0  0
  160.9140  204.5880  149.1010 C   0  0  0  0  0  3  0  0  0  0  0  0
  160.5320  205.2100  150.2900 C   0  0  0  0  0  3  0  0  0  0  0  0
  161.9030  207.1440  149.7350 C   0  0  0  0  0  0  0  0  0  0  0  0
  160.5730  208.0200  156.8110 C   0  0  0  0  0  3  0  0  0  0  0  0
  161.1310  208.0480  154.0650 C   0  0  0  0  0  0  0  0  0  0  0  0
  160.4090  206.9880  154.6250 C   0  0  0  0  0  3  0  0  0  0  0  0
  160.1280  206.9750  155.9950 C   0  0  0  0  0  3  0  0  0  0  0  0
  161.2990  209.0780  156.2570 C   0  0  0  0  0  3  0  0  0  0  0  0
  161.5800  209.0930  154.8880 C   0  0  0  0  0  3  0  0  0  0  0  0
  1 12  1  0  0  0  0
  2  6  1  0  0  0  0
  2 12  1  0  0  0  0
  3 16  1  0  0  0  0
  4 14  1  0  0  0  0
  5 13  1  0  0  0  0
  7 11  1  0  0  0  0
  8 17  2  0  0  0  0
  8 19  1  0  0  0  0
  9  7  2  0  0  0  0
  9 13  1  0  0  0  0
 10  8  1  0  0  0  0
 11 16  1  0  0  0  0
 11 14  2  0  0  0  0
 12 23  1  1  0  0  0
 13  4  2  0  0  0  0
 14 18  1  0  0  0  0
 15  1  1  0  0  0  0
 16  2  2  0  0  0  0
 17 21  1  0  0  0  0
 18  6  2  0  0  0  0
 19 20  2  0  0  0  0
 20 15  1  0  0  0  0
 21  3  1  0  0  0  0
 21 15  2  0  0  0  0
 23 24  2  0  0  0  0
 23 27  1  0  0  0  0
 24 25  1  0  0  0  0
 25 22  2  0  0  0  0
 26 22  1  0  0  0  0
 27 26  2  0  0  0  0
M  END
>  <MODEL>
2

>  <REMARK>
 VINA RESULT:      -7.4      2.998      7.058
  Name = 
  1 active torsions:
  status: ('A' for Active; 'I' for Inactive)
    1  A    between atoms: C_9  and  C_15
                            x       y       z     vdW  Elec       q    Type
                         _______ _______ _______ _____ _____    ______ ____

>  <TORSDO>
F 1

$$$$
=
 OpenBabel11052423153D

 27 31  0  0  1  0  0  0  0  0999 V2000
  162.3990  208.7900  148.6480 N   0  0  0  0  0  2  0  0  0  0  0  0
  161.6580  209.5290  150.8270 C   0  0  0  0  0  0  0  0  0  0  0  0
  160.5660  207.3490  150.5560 O   0  0  0  0  0  0  0  0  0  0  0  0
  161.7520  208.9780  154.9700 C   0  0  0  0  0  3  0  0  0  0  0  0
  161.2380  207.6570  156.8860 F   0  0  0  0  0  0  0  0  0  0  0  0
  162.2290  210.4790  151.6890 C   0  0  0  0  0  3  0  0  0  0  0  0
  160.6030  207.0090  153.3420 C   0  0  0  0  0  3  0  0  0  0  0  0
  161.3980  204.7150  148.1240 C   0  0  0  0  0  0  0  0  0  0  0  0
  160.6350  206.8420  154.7300 C   0  0  0  0  0  3  0  0  0  0  0  0
  161.0410  203.3940  147.8940 O   0  0  0  0  0  1  0  0  0  0  0  0
  161.1420  208.1630  152.7590 C   0  0  0  0  0  0  0  0  0  0  0  0
  161.5720  209.7550  149.3480 C   0  0  1  0  0  3  0  0  0  0  0  0
  161.2090  207.8240  155.5430 C   0  0  0  0  0  0  0  0  0  0  0  0
  161.7220  209.1520  153.5840 C   0  0  0  0  0  0  0  0  0  0  0  0
  162.0930  207.3970  148.5720 C   0  0  0  0  0  0  0  0  0  0  0  0
  161.1320  208.3450  151.3670 C   0  0  0  0  0  0  0  0  0  0  0  0
  160.8060  205.4260  149.1700 C   0  0  0  0  0  3  0  0  0  0  0  0
  162.2520  210.2730  153.0310 N   0  0  0  0  0  0  0  0  0  0  0  0
  162.3540  205.3300  147.3190 C   0  0  0  0  0  3  0  0  0  0  0  0
  162.6930  206.6650  147.5410 C   0  0  0  0  0  3  0  0  0  0  0  0
  161.1560  206.7570  149.4270 C   0  0  0  0  0  0  0  0  0  0  0  0
  162.5070  213.7410  148.0170 C   0  0  0  0  0  3  0  0  0  0  0  0
  161.8920  211.1550  148.9050 C   0  0  0  0  0  0  0  0  0  0  0  0
  163.0640  211.3890  148.1780 C   0  0  0  0  0  3  0  0  0  0  0  0
  163.3730  212.6800  147.7360 C   0  0  0  0  0  3  0  0  0  0  0  0
  161.3320  213.5120  148.7390 C   0  0  0  0  0  3  0  0  0  0  0  0
  161.0220  212.2220  149.1800 C   0  0  0  0  0  3  0  0  0  0  0  0
  1 12  1  0  0  0  0
  2 16  2  0  0  0  0
  2  6  1  0  0  0  0
  3 16  1  0  0  0  0
  4 13  1  0  0  0  0
  6 18  2  0  0  0  0
  7  9  1  0  0  0  0
  8 17  1  0  0  0  0
  9 13  2  0  0  0  0
 10  8  1  0  0  0  0
 11  7  2  0  0  0  0
 11 14  1  0  0  0  0
 12 23  1  1  0  0  0
 12  2  1  0  0  0  0
 13  5  1  0  0  0  0
 14  4  2  0  0  0  0
 15  1  1  0  0  0  0
 15 21  1  0  0  0  0
 16 11  1  0  0  0  0
 17 21  2  0  0  0  0
 18 14  1  0  0  0  0
 19 20  1  0  0  0  0
 19  8  2  0  0  0  0
 20 15  2  0  0  0  0
 21  3  1  0  0  0  0
 22 26  1  0  0  0  0
 23 27  1  0  0  0  0
 24 23  2  0  0  0  0
 25 22  2  0  0  0  0
 25 24  1  0  0  0  0
 26 27  2  0  0  0  0
M  END
>  <MODEL>
3

>  <REMARK>
 VINA RESULT:      -7.3      2.590      5.375
  Name = 
  1 active torsions:
  status: ('A' for Active; 'I' for Inactive)
    1  A    between atoms: C_9  and  C_15
                            x       y       z     vdW  Elec       q    Type
                         _______ _______ _______ _____ _____    ______ ____

>  <TORSDO>
F 1

$$$$
=
 OpenBabel11052423153D

 27 31  0  0  1  0  0  0  0  0999 V2000
  161.4830  206.5160  153.1160 N   0  0  0  0  0  2  0  0  0  0  0  0
  161.3470  207.5130  150.9190 C   0  0  0  0  0  0  0  0  0  0  0  0
  160.3590  209.2140  152.3860 O   0  0  0  0  0  0  0  0  0  0  0  0
  162.6470  210.5080  148.3070 C   0  0  0  0  0  3  0  0  0  0  0  0
  162.7800  212.8130  147.7160 F   0  0  0  0  0  0  0  0  0  0  0  0
  162.0790  207.2190  149.7580 C   0  0  0  0  0  3  0  0  0  0  0  0
  161.2060  211.2110  150.6040 C   0  0  0  0  0  3  0  0  0  0  0  0
  160.6260  209.4390  156.0490 C   0  0  0  0  0  0  0  0  0  0  0  0
  161.6410  212.2010  149.7180 C   0  0  0  0  0  3  0  0  0  0  0  0
  160.3010  210.3570  157.0380 O   0  0  0  0  0  1  0  0  0  0  0  0
  161.4850  209.8630  150.3460 C   0  0  0  0  0  0  0  0  0  0  0  0
  160.8310  206.4350  151.8220 C   0  0  1  0  0  3  0  0  0  0  0  0
  162.3600  211.8510  148.5710 C   0  0  0  0  0  0  0  0  0  0  0  0
  162.2140  209.5130  149.1880 C   0  0  0  0  0  0  0  0  0  0  0  0
  161.2540  207.5720  154.0510 C   0  0  0  0  0  0  0  0  0  0  0  0
  161.0700  208.8540  151.2300 C   0  0  0  0  0  0  0  0  0  0  0  0
  160.3130  209.7100  154.7160 C   0  0  0  0  0  3  0  0  0  0  0  0
  162.4950  208.2110  148.9290 N   0  0  0  0  0  0  0  0  0  0  0  0
  161.2750  208.2530  156.3840 C   0  0  0  0  0  3  0  0  0  0  0  0
  161.5810  207.3250  155.3890 C   0  0  0  0  0  3  0  0  0  0  0  0
  160.6390  208.8040  153.7000 C   0  0  0  0  0  0  0  0  0  0  0  0
  161.0620  202.4280  150.2670 C   0  0  0  0  0  3  0  0  0  0  0  0
  160.9250  205.0440  151.2610 C   0  0  0  0  0  0  0  0  0  0  0  0
  161.1510  203.9720  152.1310 C   0  0  0  0  0  3  0  0  0  0  0  0
  161.2220  202.6660  151.6360 C   0  0  0  0  0  3  0  0  0  0  0  0
  160.8310  203.4950  149.3940 C   0  0  0  0  0  3  0  0  0  0  0  0
  160.7600  204.8000  149.8890 C   0  0  0  0  0  3  0  0  0  0  0  0
  1 15  1  0  0  0  0
  2 16  1  0  0  0  0
  2 12  1  0  0  0  0
  3 21  1  0  0  0  0
  4 13  2  0  0  0  0
  4 14  1  0  0  0  0
  5 13  1  0  0  0  0
  6  2  2  0  0  0  0
  8 19  1  0  0  0  0
  8 10  1  0  0  0  0
  9  7  2  0  0  0  0
 11  7  1  0  0  0  0
 11 16  2  0  0  0  0
 12 23  1  6  0  0  0
 12  1  1  0  0  0  0
 13  9  1  0  0  0  0
 14 11  1  0  0  0  0
 15 20  1  0  0  0  0
 16  3  1  0  0  0  0
 17  8  2  0  0  0  0
 18 14  2  0  0  0  0
 18  6  1  0  0  0  0
 20 19  2  0  0  0  0
 21 15  2  0  0  0  0
 21 17  1  0  0  0  0
 22 25  1  0  0  0  0
 23 24  1  0  0  0  0
 25 24  2  0  0  0  0
 26 27  1  0  0  0  0
 26 22  2  0  0  0  0
 27 23  2  0  0  0  0
M  END
>  <MODEL>
4

>  <REMARK>
 VINA RESULT:      -7.1      2.478      5.884
  Name = 
  1 active torsions:
  status: ('A' for Active; 'I' for Inactive)
    1  A    between atoms: C_9  and  C_15
                            x       y       z     vdW  Elec       q    Type
                         _______ _______ _______ _____ _____    ______ ____

>  <TORSDO>
F 1

$$$$
=
 OpenBabel11052423153D

 27 31  0  0  1  0  0  0  0  0999 V2000
  160.5970  211.9490  150.7030 N   0  0  0  0  0  2  0  0  0  0  0  0
  161.6450  209.8850  150.0100 C   0  0  0  0  0  0  0  0  0  0  0  0
  161.8560  209.8460  152.4540 O   0  0  0  0  0  0  0  0  0  0  0  0
  161.5290  205.7060  149.9440 C   0  0  0  0  0  3  0  0  0  0  0  0
  161.6060  203.6230  151.0990 F   0  0  0  0  0  0  0  0  0  0  0  0
  161.4960  209.1660  148.8130 C   0  0  0  0  0  3  0  0  0  0  0  0
  161.8140  207.0390  152.3910 C   0  0  0  0  0  3  0  0  0  0  0  0
  160.0230  211.9030  154.8920 C   0  0  0  0  0  0  0  0  0  0  0  0
  161.7810  205.6430  152.3530 C   0  0  0  0  0  3  0  0  0  0  0  0
  159.8640  211.9480  156.2700 O   0  0  0  0  0  1  0  0  0  0  0  0
  161.7090  207.7800  151.2060 C   0  0  0  0  0  0  0  0  0  0  0  0
  161.7460  211.3800  150.0250 C   0  0  1  0  0  3  0  0  0  0  0  0
  161.6380  204.9760  151.1320 C   0  0  0  0  0  0  0  0  0  0  0  0
  161.5630  207.1030  149.9750 C   0  0  0  0  0  0  0  0  0  0  0  0
  160.3700  211.8320  152.1080 C   0  0  0  0  0  0  0  0  0  0  0  0
  161.7260  209.1840  151.2230 C   0  0  0  0  0  0  0  0  0  0  0  0
  160.8760  210.9590  154.3180 C   0  0  0  0  0  3  0  0  0  0  0  0
  161.4550  207.8080  148.8200 N   0  0  0  0  0  0  0  0  0  0  0  0
  159.3230  212.7930  154.0800 C   0  0  0  0  0  3  0  0  0  0  0  0
  159.5030  212.7580  152.6970 C   0  0  0  0  0  3  0  0  0  0  0  0
  161.0450  210.8890  152.9300 C   0  0  0  0  0  0  0  0  0  0  0  0
  162.3500  213.1460  146.1460 C   0  0  0  0  0  3  0  0  0  0  0  0
  161.9400  212.0130  148.6760 C   0  0  0  0  0  0  0  0  0  0  0  0
  163.2390  212.1880  148.1860 C   0  0  0  0  0  3  0  0  0  0  0  0
  163.4440  212.7550  146.9240 C   0  0  0  0  0  3  0  0  0  0  0  0
  161.0500  212.9690  146.6290 C   0  0  0  0  0  3  0  0  0  0  0  0
  160.8440  212.4010  147.8900 C   0  0  0  0  0  3  0  0  0  0  0  0
  1 15  1  0  0  0  0
  2 12  1  0  0  0  0
  2 16  1  0  0  0  0
  3 21  1  0  0  0  0
  4 14  1  0  0  0  0
  4 13  2  0  0  0  0
  5 13  1  0  0  0  0
  6 18  1  0  0  0  0
  6  2  2  0  0  0  0
  8 10  1  0  0  0  0
  9  7  2  0  0  0  0
 11 16  2  0  0  0  0
 11  7  1  0  0  0  0
 12 23  1  6  0  0  0
 12  1  1  0  0  0  0
 13  9  1  0  0  0  0
 14 11  1  0  0  0  0
 15 20  2  0  0  0  0
 15 21  1  0  0  0  0
 16  3  1  0  0  0  0
 17  8  1  0  0  0  0
 18 14  2  0  0  0  0
 19  8  2  0  0  0  0
 20 19  1  0  0  0  0
 21 17  2  0  0  0  0
 22 26  2  0  0  0  0
 22 25  1  0  0  0  0
 24 23  1  0  0  0  0
 25 24  2  0  0  0  0
 26 27  1  0  0  0  0
 27 23  2  0  0  0  0
M  END
>  <MODEL>
5

>  <REMARK>
 VINA RESULT:      -6.7      1.508      2.058
  Name = 
  1 active torsions:
  status: ('A' for Active; 'I' for Inactive)
    1  A    between atoms: C_9  and  C_15
                            x       y       z     vdW  Elec       q    Type
                         _______ _______ _______ _____ _____    ______ ____

>  <TORSDO>
F 1

$$$$
=
 OpenBabel11052423153D

 27 31  0  0  1  0  0  0  0  0999 V2000
  161.4830  208.7880  153.4770 N   0  0  0  0  0  2  0  0  0  0  0  0
  161.2570  209.3870  151.1460 C   0  0  0  0  0  0  0  0  0  0  0  0
  160.1750  211.2460  152.3270 O   0  0  0  0  0  0  0  0  0  0  0  0
  162.3270  211.9710  148.0390 C   0  0  0  0  0  3  0  0  0  0  0  0
  162.3020  214.1470  147.0650 F   0  0  0  0  0  0  0  0  0  0  0  0
  161.9940  208.9470  150.0360 C   0  0  0  0  0  3  0  0  0  0  0  0
  160.8690  212.9620  150.2150 C   0  0  0  0  0  3  0  0  0  0  0  0
  160.4680  212.1070  155.8930 C   0  0  0  0  0  0  0  0  0  0  0  0
  161.2280  213.8130  149.1660 C   0  0  0  0  0  3  0  0  0  0  0  0
  160.0930  213.1560  156.7200 O   0  0  0  0  0  1  0  0  0  0  0  0
  161.2340  211.6100  150.1830 C   0  0  0  0  0  0  0  0  0  0  0  0
  160.8230  208.4480  152.2300 C   0  0  1  0  0  3  0  0  0  0  0  0
  161.9560  213.3190  148.0790 C   0  0  0  0  0  0  0  0  0  0  0  0
  161.9710  211.1150  149.0840 C   0  0  0  0  0  0  0  0  0  0  0  0
  161.1950  209.9710  154.2250 C   0  0  0  0  0  0  0  0  0  0  0  0
  160.8950  210.7410  151.2330 C   0  0  0  0  0  0  0  0  0  0  0  0
  160.1220  212.1270  154.5400 C   0  0  0  0  0  3  0  0  0  0  0  0
  162.3340  209.8080  149.0430 N   0  0  0  0  0  0  0  0  0  0  0  0
  161.1970  211.0380  156.4080 C   0  0  0  0  0  3  0  0  0  0  0  0
  161.5520  209.9750  155.5780 C   0  0  0  0  0  3  0  0  0  0  0  0
  160.4970  211.0840  153.6850 C   0  0  0  0  0  0  0  0  0  0  0  0
  161.3020  204.2580  151.3690 C   0  0  0  0  0  3  0  0  0  0  0  0
  161.0030  206.9910  151.9100 C   0  0  0  0  0  0  0  0  0  0  0  0
  161.3330  206.1020  152.9390 C   0  0  0  0  0  3  0  0  0  0  0  0
  161.4840  204.7380  152.6690 C   0  0  0  0  0  3  0  0  0  0  0  0
  160.9670  205.1400  150.3380 C   0  0  0  0  0  3  0  0  0  0  0  0
  160.8150  206.5040  150.6070 C   0  0  0  0  0  3  0  0  0  0  0  0
  1 15  1  0  0  0  0
  2 16  1  0  0  0  0
  2 12  1  0  0  0  0
  3 21  1  0  0  0  0
  4 13  2  0  0  0  0
  4 14  1  0  0  0  0
  5 13  1  0  0  0  0
  6  2  2  0  0  0  0
  8 19  1  0  0  0  0
  8 10  1  0  0  0  0
  9  7  2  0  0  0  0
 11  7  1  0  0  0  0
 11 16  2  0  0  0  0
 12 23  1  6  0  0  0
 12  1  1  0  0  0  0
 13  9  1  0  0  0  0
 14 11  1  0  0  0  0
 15 20  1  0  0  0  0
 16  3  1  0  0  0  0
 17  8  2  0  0  0  0
 18 14  2  0  0  0  0
 18  6  1  0  0  0  0
 20 19  2  0  0  0  0
 21 15  2  0  0  0  0
 21 17  1  0  0  0  0
 22 25  1  0  0  0  0
 23 24  1  0  0  0  0
 25 24  2  0  0  0  0
 26 27  1  0  0  0  0
 26 22  2  0  0  0  0
 27 23  2  0  0  0  0
M  END
>  <MODEL>
6

>  <REMARK>
 VINA RESULT:      -6.7      2.874      5.965
  Name = 
  1 active torsions:
  status: ('A' for Active; 'I' for Inactive)
    1  A    between atoms: C_9  and  C_15
                            x       y       z     vdW  Elec       q    Type
                         _______ _______ _______ _____ _____    ______ ____

>  <TORSDO>
F 1

$$$$
=
 OpenBabel11052423153D

 27 31  0  0  1  0  0  0  0  0999 V2000
  161.8720  208.6240  152.5340 N   0  0  0  0  0  2  0  0  0  0  0  0
  161.0490  206.3620  152.3150 C   0  0  0  0  0  0  0  0  0  0  0  0
  160.5850  207.3590  150.1220 O   0  0  0  0  0  0  0  0  0  0  0  0
  161.4630  202.6040  150.5310 C   0  0  0  0  0  3  0  0  0  0  0  0
  161.4110  201.2280  148.5850 F   0  0  0  0  0  0  0  0  0  0  0  0
  161.3730  205.2180  153.0620 C   0  0  0  0  0  3  0  0  0  0  0  0
  160.8300  204.8230  148.9420 C   0  0  0  0  0  3  0  0  0  0  0  0
  162.0040  210.4530  148.7230 C   0  0  0  0  0  0  0  0  0  0  0  0
  160.9650  203.5590  148.3610 C   0  0  0  0  0  3  0  0  0  0  0  0
  162.0130  211.1040  147.4980 O   0  0  0  0  0  1  0  0  0  0  0  0
  161.0080  204.9860  150.3220 C   0  0  0  0  0  0  0  0  0  0  0  0
  160.8430  207.6970  152.9640 C   0  0  1  0  0  3  0  0  0  0  0  0
  161.2810  202.4510  149.1530 C   0  0  0  0  0  0  0  0  0  0  0  0
  161.3290  203.8650  151.1190 C   0  0  0  0  0  0  0  0  0  0  0  0
  161.9570  209.1500  151.2080 C   0  0  0  0  0  0  0  0  0  0  0  0
  160.8900  206.2490  150.9250 C   0  0  0  0  0  0  0  0  0  0  0  0
  161.2840  209.2670  148.8770 C   0  0  0  0  0  3  0  0  0  0  0  0
  161.5080  204.0100  152.4560 N   0  0  0  0  0  0  0  0  0  0  0  0
  162.7210  210.9750  149.7970 C   0  0  0  0  0  3  0  0  0  0  0  0
  162.6900  210.3280  151.0320 C   0  0  0  0  0  3  0  0  0  0  0  0
  161.2670  208.5870  150.1010 C   0  0  0  0  0  0  0  0  0  0  0  0
  160.5830  207.6600  157.2610 C   0  0  0  0  0  3  0  0  0  0  0  0
  160.7480  207.6600  154.4640 C   0  0  0  0  0  0  0  0  0  0  0  0
  161.6820  208.3730  155.2230 C   0  0  0  0  0  3  0  0  0  0  0  0
  161.6020  208.3720  156.6190 C   0  0  0  0  0  3  0  0  0  0  0  0
  159.6450  206.9500  156.5070 C   0  0  0  0  0  3  0  0  0  0  0  0
  159.7240  206.9510  155.1110 C   0  0  0  0  0  3  0  0  0  0  0  0
  1 12  1  0  0  0  0
  2 12  1  0  0  0  0
  2  6  1  0  0  0  0
  3 16  1  0  0  0  0
  4 14  1  0  0  0  0
  5 13  1  0  0  0  0
  7 11  1  0  0  0  0
  8 17  2  0  0  0  0
  8 19  1  0  0  0  0
  9  7  2  0  0  0  0
  9 13  1  0  0  0  0
 10  8  1  0  0  0  0
 11 16  1  0  0  0  0
 11 14  2  0  0  0  0
 12 23  1  1  0  0  0
 13  4  2  0  0  0  0
 14 18  1  0  0  0  0
 15  1  1  0  0  0  0
 16  2  2  0  0  0  0
 17 21  1  0  0  0  0
 18  6  2  0  0  0  0
 19 20  2  0  0  0  0
 20 15  1  0  0  0  0
 21  3  1  0  0  0  0
 21 15  2  0  0  0  0
 23 27  2  0  0  0  0
 23 24  1  0  0  0  0
 24 25  2  0  0  0  0
 25 22  1  0  0  0  0
 26 22  2  0  0  0  0
 27 26  1  0  0  0  0
M  END
>  <MODEL>
7

>  <REMARK>
 VINA RESULT:      -6.2      2.369      5.733
  Name = 
  1 active torsions:
  status: ('A' for Active; 'I' for Inactive)
    1  A    between atoms: C_9  and  C_15
                            x       y       z     vdW  Elec       q    Type
                         _______ _______ _______ _____ _____    ______ ____

>  <TORSDO>
F 1

$$$$
=
 OpenBabel11052423153D

 27 31  0  0  1  0  0  0  0  0999 V2000
  161.2640  208.8570  148.2610 N   0  0  0  0  0  2  0  0  0  0  0  0
  161.6520  207.9740  150.4770 C   0  0  0  0  0  0  0  0  0  0  0  0
  162.6010  210.2340  150.5830 O   0  0  0  0  0  0  0  0  0  0  0  0
  160.7640  208.1440  154.5590 C   0  0  0  0  0  3  0  0  0  0  0  0
  160.8160  209.3170  156.6330 F   0  0  0  0  0  0  0  0  0  0  0  0
  161.0110  206.9160  151.1410 C   0  0  0  0  0  3  0  0  0  0  0  0
  162.0320  210.3190  153.3310 C   0  0  0  0  0  3  0  0  0  0  0  0
  162.0220  213.0170  148.2480 C   0  0  0  0  0  0  0  0  0  0  0  0
  161.7360  210.3590  154.6970 C   0  0  0  0  0  3  0  0  0  0  0  0
  162.3110  214.3740  148.1900 O   0  0  0  0  0  1  0  0  0  0  0  0
  161.7000  209.1910  152.5710 C   0  0  0  0  0  0  0  0  0  0  0  0
  162.0230  207.8870  149.0280 C   0  0  1  0  0  3  0  0  0  0  0  0
  161.1020  209.2740  155.3100 C   0  0  0  0  0  0  0  0  0  0  0  0
  161.0590  208.0970  153.1930 C   0  0  0  0  0  0  0  0  0  0  0  0
  161.4690  210.2680  148.3500 C   0  0  0  0  0  0  0  0  0  0  0  0
  161.9770  209.1350  151.1950 C   0  0  0  0  0  0  0  0  0  0  0  0
  162.4680  212.2550  149.3280 C   0  0  0  0  0  3  0  0  0  0  0  0
  160.7280  207.0000  152.4670 N   0  0  0  0  0  0  0  0  0  0  0  0
  161.2790  212.4180  147.2330 C   0  0  0  0  0  3  0  0  0  0  0  0
  161.0110  211.0510  147.2850 C   0  0  0  0  0  3  0  0  0  0  0  0
  162.1820  210.8870  149.4130 C   0  0  0  0  0  0  0  0  0  0  0  0
  161.7340  203.9630  147.2820 C   0  0  0  0  0  3  0  0  0  0  0  0
  161.9000  206.5150  148.4270 C   0  0  0  0  0  0  0  0  0  0  0  0
  162.3900  206.2900  147.1360 C   0  0  0  0  0  3  0  0  0  0  0  0
  162.3060  205.0170  146.5630 C   0  0  0  0  0  3  0  0  0  0  0  0
  161.2470  204.1810  148.5740 C   0  0  0  0  0  3  0  0  0  0  0  0
  161.3310  205.4530  149.1470 C   0  0  0  0  0  3  0  0  0  0  0  0
  1 15  1  0  0  0  0
  1 12  1  0  0  0  0
  2  6  2  0  0  0  0
  2 16  1  0  0  0  0
  3 16  1  0  0  0  0
  4 13  2  0  0  0  0
  6 18  1  0  0  0  0
  7  9  2  0  0  0  0
  8 17  1  0  0  0  0
  9 13  1  0  0  0  0
 10  8  1  0  0  0  0
 11 14  1  0  0  0  0
 11  7  1  0  0  0  0
 12 23  1  6  0  0  0
 12  2  1  0  0  0  0
 13  5  1  0  0  0  0
 14  4  1  0  0  0  0
 15 21  1  0  0  0  0
 16 11  2  0  0  0  0
 17 21  2  0  0  0  0
 18 14  2  0  0  0  0
 19 20  1  0  0  0  0
 19  8  2  0  0  0  0
 20 15  2  0  0  0  0
 21  3  1  0  0  0  0
 22 26  1  0  0  0  0
 23 27  1  0  0  0  0
 24 23  2  0  0  0  0
 25 24  1  0  0  0  0
 25 22  2  0  0  0  0
 26 27  2  0  0  0  0
M  END
>  <MODEL>
8

>  <REMARK>
 VINA RESULT:      -5.8      2.910      6.397
  Name = 
  1 active torsions:
  status: ('A' for Active; 'I' for Inactive)
    1  A    between atoms: C_9  and  C_15
                            x       y       z     vdW  Elec       q    Type
                         _______ _______ _______ _____ _____    ______ ____

>  <TORSDO>
F 1

$$$$
=
 OpenBabel11052423153D

 27 31  0  0  1  0  0  0  0  0999 V2000
  161.1530  210.3580  152.6300 N   0  0  0  0  0  2  0  0  0  0  0  0
  159.5040  211.5430  153.9410 C   0  0  0  0  0  0  0  0  0  0  0  0
  159.8880  213.0240  152.0240 O   0  0  0  0  0  0  0  0  0  0  0  0
  155.5810  212.9510  154.2570 C   0  0  0  0  0  3  0  0  0  0  0  0
  153.8390  214.3910  153.4980 F   0  0  0  0  0  0  0  0  0  0  0  0
  158.6160  211.0530  154.9130 C   0  0  0  0  0  3  0  0  0  0  0  0
  157.2620  213.9870  152.2710 C   0  0  0  0  0  3  0  0  0  0  0  0
  161.5040  212.1770  148.8280 C   0  0  0  0  0  0  0  0  0  0  0  0
  155.9500  214.4530  152.3920 C   0  0  0  0  0  3  0  0  0  0  0  0
  161.6860  212.7760  147.5900 O   0  0  0  0  0  1  0  0  0  0  0  0
  157.7440  213.0020  153.1430 C   0  0  0  0  0  0  0  0  0  0  0  0
  160.9280  211.0800  153.8680 C   0  0  1  0  0  3  0  0  0  0  0  0
  155.1100  213.9360  153.3830 C   0  0  0  0  0  0  0  0  0  0  0  0
  156.8920  212.4810  154.1410 C   0  0  0  0  0  0  0  0  0  0  0  0
  161.1650  210.9800  151.3440 C   0  0  0  0  0  0  0  0  0  0  0  0
  159.0540  212.5100  153.0290 C   0  0  0  0  0  0  0  0  0  0  0  0
  160.8430  212.8660  149.8460 C   0  0  0  0  0  3  0  0  0  0  0  0
  157.3450  211.5240  154.9900 N   0  0  0  0  0  0  0  0  0  0  0  0
  161.9720  210.8840  149.0530 C   0  0  0  0  0  3  0  0  0  0  0  0
  161.8060  210.2940  150.3060 C   0  0  0  0  0  3  0  0  0  0  0  0
  160.6400  212.2780  151.1010 C   0  0  0  0  0  0  0  0  0  0  0  0
  162.2750  208.7250  157.2090 C   0  0  0  0  0  3  0  0  0  0  0  0
  161.3910  210.2750  155.0490 C   0  0  0  0  0  0  0  0  0  0  0  0
  161.1360  208.8990  155.0780 C   0  0  0  0  0  3  0  0  0  0  0  0
  161.5750  208.1250  156.1570 C   0  0  0  0  0  3  0  0  0  0  0  0
  162.5360  210.0970  157.1830 C   0  0  0  0  0  3  0  0  0  0  0  0
  162.0980  210.8720  156.1040 C   0  0  0  0  0  3  0  0  0  0  0  0
  1 12  1  0  0  0  0
  2  6  1  0  0  0  0
  3 16  1  0  0  0  0
  6 18  2  0  0  0  0
  7  9  2  0  0  0  0
  7 11  1  0  0  0  0
  8 19  2  0  0  0  0
  8 17  1  0  0  0  0
  9 13  1  0  0  0  0
 10  8  1  0  0  0  0
 11 14  2  0  0  0  0
 12  2  1  0  0  0  0
 12 23  1  1  0  0  0
 13  5  1  0  0  0  0
 13  4  2  0  0  0  0
 14  4  1  0  0  0  0
 14 18  1  0  0  0  0
 15  1  1  0  0  0  0
 16 11  1  0  0  0  0
 16  2  2  0  0  0  0
 17 21  2  0  0  0  0
 19 20  1  0  0  0  0
 20 15  2  0  0  0  0
 21 15  1  0  0  0  0
 21  3  1  0  0  0  0
 23 24  2  0  0  0  0
 23 27  1  0  0  0  0
 24 25  1  0  0  0  0
 25 22  2  0  0  0  0
 26 22  1  0  0  0  0
 27 26  2  0  0  0  0
M  END
>  <MODEL>
9

>  <REMARK>
 VINA RESULT:      -5.3      4.376      8.182
  Name = 
  1 active torsions:
  status: ('A' for Active; 'I' for Inactive)
    1  A    between atoms: C_9  and  C_15
                            x       y       z     vdW  Elec       q    Type
                         _______ _______ _______ _____ _____    ______ ____

>  <TORSDO>
F 1

$$$$
