=
 OpenBabel11062410483D

 32 37  0  0  1  0  0  0  0  0999 V2000
  161.1330  204.5890  150.9580 C   0  0  2  0  0  3  0  0  0  0  0  0
  160.8500  208.6340  152.2390 C   0  0  0  0  0  0  0  0  0  0  0  0
  160.6500  207.2450  156.8730 C   0  0  0  0  0  3  0  0  0  0  0  0
  160.5330  208.5900  157.2270 C   0  0  0  0  0  3  0  0  0  0  0  0
  161.0710  207.0600  150.4870 C   0  0  2  0  0  3  0  0  0  0  0  0
  160.9770  206.3010  152.7470 N   0  0  0  0  0  0  0  0  0  0  0  0
  159.8690  204.0390  151.0570 F   0  0  0  0  0  0  0  0  0  0  0  0
  160.7620  206.8990  155.5260 C   0  0  0  0  0  3  0  0  0  0  0  0
  160.8650  207.5870  153.1810 C   0  0  2  0  0  3  0  0  0  0  0  0
  160.7570  207.8960  154.5440 C   0  0  0  0  0  0  0  0  0  0  0  0
  160.6300  210.2550  153.9650 C   0  0  0  0  0  0  0  0  0  0  0  0
  161.4640  205.5140  148.6570 C   0  0  0  0  0  0  0  0  0  0  0  0
  161.0890  206.0150  151.4230 C   0  0  0  0  0  0  0  0  0  0  0  0
  161.2120  206.7640  149.0590 C   0  0  0  0  0  3  0  0  0  0  0  0
  161.5910  204.4830  149.6040 O   0  0  0  0  0  0  0  0  0  0  0  0
  160.5280  209.5520  156.2670 N   0  0  0  0  0  0  0  0  0  0  0  0
  160.6370  209.2460  154.9440 C   0  0  0  0  0  0  0  0  0  0  0  0
  160.9530  208.3450  150.9150 N   0  0  0  0  0  0  0  0  0  0  0  0
  160.7350  209.9240  152.6490 N   0  0  0  0  0  0  0  0  0  0  0  0
  161.6470  205.2010  147.2310 C   0  0  0  0  0  0  0  0  0  0  0  0
  161.9900  204.0080  146.8560 N   0  0  0  0  0  2  0  0  0  0  0  0
  161.4460  206.2110  146.2850 O   0  0  0  0  0  0  0  0  0  0  0  0
  160.3950  206.1610  145.3300 C   0  0  0  0  0  1  0  0  0  0  0  0
  160.5300  211.6970  154.3470 C   0  0  0  0  0  2  0  0  0  0  0  0
  158.7980  213.5580  150.2900 C   0  0  0  0  0  1  0  0  0  0  0  0
  159.3430  213.2530  152.6810 C   0  0  2  0  0  3  0  0  0  0  0  0
  158.0350  212.2350  154.3430 C   0  0  0  0  0  0  0  0  0  0  0  0
  157.1860  213.0010  153.6890 C   0  0  0  0  0  3  0  0  0  0  0  0
  157.8960  213.7390  152.5860 C   0  0  2  0  0  3  0  0  0  0  0  0
  158.4530  212.7820  151.5430 C   0  0  1  0  0  3  0  0  0  0  0  0
  157.6550  211.3630  155.4870 C   0  0  0  0  0  1  0  0  0  0  0  0
  159.3300  212.2900  153.7720 N   0  0  0  0  0  0  0  0  0  0  0  0
  1  7  1  6  0  0  0
  1 13  1  0  0  0  0
  2 19  1  0  0  0  0
  3  4  1  0  0  0  0
  5 14  1  1  0  0  0
  5 18  1  0  0  0  0
  5 13  1  0  0  0  0
  6  9  1  0  0  0  0
  8  3  2  0  0  0  0
  9  2  1  6  0  0  0
  9 10  1  0  0  0  0
 10 17  2  0  0  0  0
 10  8  1  0  0  0  0
 11 24  1  0  0  0  0
 11 17  1  0  0  0  0
 12 14  2  0  0  0  0
 12 15  1  0  0  0  0
 13  6  2  0  0  0  0
 15  1  1  0  0  0  0
 16  4  2  0  0  0  0
 17 16  1  0  0  0  0
 18  2  2  0  0  0  0
 19 11  2  0  0  0  0
 20 12  1  0  0  0  0
 21 20  2  0  0  0  0
 22 20  1  0  0  0  0
 23 22  1  0  0  0  0
 26 32  1  1  0  0  0
 27 31  1  0  0  0  0
 28 27  2  0  0  0  0
 29 26  1  0  0  0  0
 29 28  1  1  0  0  0
 30 25  1  6  0  0  0
 30 29  1  0  0  0  0
 30 26  1  0  0  0  0
 32 27  1  0  0  0  0
 32 24  1  0  0  0  0
M  END
>  <MODEL>
1

>  <REMARK>
 VINA RESULT:      -8.5      0.000      0.000
  Name = 
  4 active torsions:
  status: ('A' for Active; 'I' for Inactive)
    1  A    between atoms: C_1  and  O_10
    2  A    between atoms: C_1  and  C_19
    3  A    between atoms: C_16  and  C_27
    4  A    between atoms: C_27  and  N_32
                            x       y       z     vdW  Elec       q    Type
                         _______ _______ _______ _____ _____    ______ ____

>  <TORSDO>
F 4

$$$$
=
 OpenBabel11062410483D

 32 37  0  0  1  0  0  0  0  0999 V2000
  161.0470  204.4150  150.4890 C   0  0  2  0  0  3  0  0  0  0  0  0
  161.0340  208.4670  151.7800 C   0  0  0  0  0  0  0  0  0  0  0  0
  160.4450  207.0920  156.3850 C   0  0  0  0  0  3  0  0  0  0  0  0
  160.4210  208.4410  156.7410 C   0  0  0  0  0  3  0  0  0  0  0  0
  161.2230  206.8830  150.0330 C   0  0  2  0  0  3  0  0  0  0  0  0
  160.9330  206.1310  152.2780 N   0  0  0  0  0  0  0  0  0  0  0  0
  159.7370  203.9750  150.5100 F   0  0  0  0  0  0  0  0  0  0  0  0
  160.6060  206.7400  155.0440 C   0  0  0  0  0  3  0  0  0  0  0  0
  160.9050  207.4210  152.7140 C   0  0  2  0  0  3  0  0  0  0  0  0
  160.7430  207.7360  154.0700 C   0  0  0  0  0  0  0  0  0  0  0  0
  160.8520  210.0980  153.5010 C   0  0  0  0  0  0  0  0  0  0  0  0
  161.5910  205.3130  148.2190 C   0  0  0  0  0  0  0  0  0  0  0  0
  161.0980  205.8400  150.9620 C   0  0  0  0  0  0  0  0  0  0  0  0
  161.4230  206.5790  148.6140 C   0  0  0  0  0  3  0  0  0  0  0  0
  161.5740  204.2740  149.1640 O   0  0  0  0  0  0  0  0  0  0  0  0
  160.5550  209.4020  155.7880 N   0  0  0  0  0  0  0  0  0  0  0  0
  160.7150  209.0900  154.4720 C   0  0  0  0  0  0  0  0  0  0  0  0
  161.1900  208.1730  150.4630 N   0  0  0  0  0  0  0  0  0  0  0  0
  161.0060  209.7620  152.1920 N   0  0  0  0  0  0  0  0  0  0  0  0
  161.8300  204.9880  146.8030 C   0  0  0  0  0  0  0  0  0  0  0  0
  162.1110  205.9230  145.9500 N   0  0  0  0  0  2  0  0  0  0  0  0
  161.7490  203.6540  146.3930 O   0  0  0  0  0  0  0  0  0  0  0  0
  160.9620  203.2460  145.2830 C   0  0  0  0  0  1  0  0  0  0  0  0
  160.8530  211.5430  153.8870 C   0  0  0  0  0  2  0  0  0  0  0  0
  157.0430  212.8690  156.4670 C   0  0  0  0  0  1  0  0  0  0  0  0
  158.4330  211.8410  154.7000 C   0  0  2  0  0  3  0  0  0  0  0  0
  158.9950  212.7320  152.6030 C   0  0  0  0  0  0  0  0  0  0  0  0
  157.7080  212.9820  152.7240 C   0  0  0  0  0  3  0  0  0  0  0  0
  157.1960  212.4470  154.0340 C   0  0  2  0  0  3  0  0  0  0  0  0
  157.8510  213.1460  155.2160 C   0  0  1  0  0  3  0  0  0  0  0  0
  159.8120  213.1380  151.4270 C   0  0  0  0  0  1  0  0  0  0  0  0
  159.5130  212.1000  153.7600 N   0  0  0  0  0  0  0  0  0  0  0  0
  1  7  1  6  0  0  0
  1 13  1  0  0  0  0
  2 19  1  0  0  0  0
  3  4  1  0  0  0  0
  5 14  1  1  0  0  0
  5 18  1  0  0  0  0
  5 13  1  0  0  0  0
  6  9  1  0  0  0  0
  8  3  2  0  0  0  0
  9  2  1  6  0  0  0
  9 10  1  0  0  0  0
 10 17  2  0  0  0  0
 10  8  1  0  0  0  0
 11 24  1  0  0  0  0
 11 17  1  0  0  0  0
 12 14  2  0  0  0  0
 12 15  1  0  0  0  0
 13  6  2  0  0  0  0
 15  1  1  0  0  0  0
 16  4  2  0  0  0  0
 17 16  1  0  0  0  0
 18  2  2  0  0  0  0
 19 11  2  0  0  0  0
 20 12  1  0  0  0  0
 21 20  2  0  0  0  0
 22 20  1  0  0  0  0
 23 22  1  0  0  0  0
 26 32  1  6  0  0  0
 26 30  1  0  0  0  0
 27 28  2  0  0  0  0
 27 32  1  0  0  0  0
 29 28  1  6  0  0  0
 29 26  1  0  0  0  0
 29 30  1  0  0  0  0
 30 25  1  1  0  0  0
 31 27  1  0  0  0  0
 32 24  1  0  0  0  0
M  END
>  <MODEL>
2

>  <REMARK>
 VINA RESULT:      -8.4      1.030      1.955
  Name = 
  4 active torsions:
  status: ('A' for Active; 'I' for Inactive)
    1  A    between atoms: C_1  and  O_10
    2  A    between atoms: C_1  and  C_19
    3  A    between atoms: C_16  and  C_27
    4  A    between atoms: C_27  and  N_32
                            x       y       z     vdW  Elec       q    Type
                         _______ _______ _______ _____ _____    ______ ____

>  <TORSDO>
F 4

$$$$
=
 OpenBabel11062410483D

 32 37  0  0  1  0  0  0  0  0999 V2000
  161.1150  204.3510  151.2850 C   0  0  2  0  0  3  0  0  0  0  0  0
  160.7920  208.4730  152.2780 C   0  0  0  0  0  0  0  0  0  0  0  0
  160.6720  207.4180  157.0020 C   0  0  0  0  0  3  0  0  0  0  0  0
  160.5400  208.7830  157.2610 C   0  0  0  0  0  3  0  0  0  0  0  0
  161.0120  206.7810  150.6400 C   0  0  0  0  0  0  0  0  0  0  0  0
  160.9580  206.1840  152.9500 N   0  0  0  0  0  0  0  0  0  0  0  0
  159.8600  203.7930  151.4410 F   0  0  0  0  0  0  0  0  0  0  0  0
  160.7700  206.9770  155.6820 C   0  0  0  0  0  3  0  0  0  0  0  0
  160.8330  207.4960  153.2930 C   0  0  0  0  0  0  0  0  0  0  0  0
  160.7390  207.9010  154.6310 C   0  0  0  0  0  0  0  0  0  0  0  0
  160.5710  210.2110  153.8870 C   0  0  0  0  0  0  0  0  0  0  0  0
  161.4030  205.1130  148.9200 C   0  0  0  0  0  0  0  0  0  0  0  0
  161.0570  205.8060  151.6480 C   0  0  0  0  0  0  0  0  0  0  0  0
  161.1390  206.3850  149.2350 C   0  0  0  0  0  3  0  0  0  0  0  0
  161.5560  204.1550  149.9360 O   0  0  0  0  0  0  0  0  0  0  0  0
  160.5090  209.6740  156.2340 N   0  0  0  0  0  0  0  0  0  0  0  0
  160.6050  209.2750  154.9350 C   0  0  0  0  0  0  0  0  0  0  0  0
  160.8820  208.0910  150.9770 N   0  0  0  0  0  0  0  0  0  0  0  0
  160.6640  209.7880  152.5970 N   0  0  0  0  0  0  0  0  0  0  0  0
  161.5720  204.7010  147.5170 C   0  0  0  0  0  0  0  0  0  0  0  0
  161.5930  203.4450  147.1970 N   0  0  0  0  0  2  0  0  0  0  0  0
  161.7110  205.6860  146.5350 O   0  0  0  0  0  0  0  0  0  0  0  0
  162.3310  205.4300  145.2830 C   0  0  0  0  0  1  0  0  0  0  0  0
  160.4560  211.6750  154.1660 C   0  0  0  0  0  2  0  0  0  0  0  0
  155.8890  210.3220  154.6550 C   0  0  0  0  0  1  0  0  0  0  0  0
  157.9010  211.7410  154.4300 C   0  0  2  0  0  3  0  0  0  0  0  0
  159.1970  212.6920  156.1400 C   0  0  0  0  0  0  0  0  0  0  0  0
  157.9560  212.9190  156.5140 C   0  0  0  0  0  3  0  0  0  0  0  0
  156.9970  212.3700  155.4920 C   0  0  2  0  0  3  0  0  0  0  0  0
  157.1080  210.8570  155.3780 C   0  0  1  0  0  3  0  0  0  0  0  0
  160.3900  213.0960  156.9330 C   0  0  0  0  0  1  0  0  0  0  0  0
  159.2500  211.9500  154.9340 N   0  0  0  0  0  0  0  0  0  0  0  0
  1  7  1  6  0  0  0
  1 13  1  0  0  0  0
  2 19  1  0  0  0  0
  2  9  1  0  0  0  0
  3  4  1  0  0  0  0
  5 18  1  0  0  0  0
  5 13  2  0  0  0  0
  6  9  2  0  0  0  0
  8  3  2  0  0  0  0
  9 10  1  0  0  0  0
 10 17  2  0  0  0  0
 10  8  1  0  0  0  0
 11 24  1  0  0  0  0
 11 17  1  0  0  0  0
 12 14  2  0  0  0  0
 12 15  1  0  0  0  0
 13  6  1  0  0  0  0
 14  5  1  0  0  0  0
 15  1  1  0  0  0  0
 16  4  2  0  0  0  0
 17 16  1  0  0  0  0
 18  2  2  0  0  0  0
 19 11  2  0  0  0  0
 20 12  1  0  0  0  0
 21 20  2  0  0  0  0
 22 20  1  0  0  0  0
 23 22  1  0  0  0  0
 24 32  1  0  0  0  0
 26 32  1  1  0  0  0
 26 30  1  0  0  0  0
 26 29  1  0  0  0  0
 27 28  2  0  0  0  0
 27 31  1  0  0  0  0
 29 28  1  1  0  0  0
 30 25  1  6  0  0  0
 30 29  1  0  0  0  0
 32 27  1  0  0  0  0
M  END
>  <MODEL>
3

>  <REMARK>
 VINA RESULT:      -7.7      1.328      1.866
  Name = 
  4 active torsions:
  status: ('A' for Active; 'I' for Inactive)
    1  A    between atoms: C_1  and  O_10
    2  A    between atoms: C_1  and  C_19
    3  A    between atoms: C_16  and  C_27
    4  A    between atoms: C_27  and  N_32
                            x       y       z     vdW  Elec       q    Type
                         _______ _______ _______ _____ _____    ______ ____

>  <TORSDO>
F 4

$$$$
=
 OpenBabel11062410483D

 32 37  0  0  1  0  0  0  0  0999 V2000
  161.2910  204.7510  147.4490 C   0  0  2  0  0  3  0  0  0  0  0  0
  161.6460  207.1760  150.9240 C   0  0  0  0  0  0  0  0  0  0  0  0
  161.9960  211.1710  148.2090 C   0  0  0  0  0  3  0  0  0  0  0  0
  162.1350  211.9070  149.3860 C   0  0  0  0  0  3  0  0  0  0  0  0
  161.3550  205.0420  149.9470 C   0  0  2  0  0  3  0  0  0  0  0  0
  161.5200  206.9650  148.5450 N   0  0  0  0  0  0  0  0  0  0  0  0
  162.5550  204.6360  146.8990 F   0  0  0  0  0  0  0  0  0  0  0  0
  161.8360  209.7860  148.2830 C   0  0  0  0  0  3  0  0  0  0  0  0
  161.6570  207.7610  149.6420 C   0  0  2  0  0  3  0  0  0  0  0  0
  161.8140  209.1490  149.5290 C   0  0  0  0  0  0  0  0  0  0  0  0
  161.9370  209.3000  151.9530 C   0  0  0  0  0  0  0  0  0  0  0  0
  160.8880  202.8470  149.0210 C   0  0  0  0  0  0  0  0  0  0  0  0
  161.3610  205.6220  148.6700 C   0  0  0  0  0  0  0  0  0  0  0  0
  161.1620  203.5970  150.0930 C   0  0  0  0  0  3  0  0  0  0  0  0
  160.7860  203.4450  147.7530 O   0  0  0  0  0  0  0  0  0  0  0  0
  162.1130  211.2800  150.5930 N   0  0  0  0  0  0  0  0  0  0  0  0
  161.9560  209.9310  150.6970 C   0  0  0  0  0  0  0  0  0  0  0  0
  161.4960  205.8310  151.0450 N   0  0  0  0  0  0  0  0  0  0  0  0
  161.7840  207.9510  152.0320 N   0  0  0  0  0  0  0  0  0  0  0  0
  160.6530  201.4000  149.1490 C   0  0  0  0  0  0  0  0  0  0  0  0
  159.6050  200.9530  149.7670 N   0  0  0  0  0  2  0  0  0  0  0  0
  161.5810  200.5130  148.5940 O   0  0  0  0  0  0  0  0  0  0  0  0
  161.5810  200.1770  147.2140 C   0  0  0  0  0  1  0  0  0  0  0  0
  162.0600  210.0940  153.2150 C   0  0  0  0  0  2  0  0  0  0  0  0
  158.2060  212.6900  152.0580 C   0  0  0  0  0  1  0  0  0  0  0  0
  160.0790  211.7250  153.3510 C   0  0  2  0  0  3  0  0  0  0  0  0
  160.0450  209.8510  154.7630 C   0  0  0  0  0  0  0  0  0  0  0  0
  158.9580  210.5180  155.0880 C   0  0  0  0  0  3  0  0  0  0  0  0
  158.8510  211.7710  154.2630 C   0  0  2  0  0  3  0  0  0  0  0  0
  158.6960  211.4540  152.7830 C   0  0  1  0  0  3  0  0  0  0  0  0
  160.4430  208.5580  155.3840 C   0  0  0  0  0  1  0  0  0  0  0  0
  160.7410  210.4780  153.7010 N   0  0  0  0  0  0  0  0  0  0  0  0
  1  7  1  1  0  0  0
  1 15  1  0  0  0  0
  1 13  1  0  0  0  0
  2 18  2  0  0  0  0
  2 19  1  0  0  0  0
  3  8  2  0  0  0  0
  3  4  1  0  0  0  0
  4 16  2  0  0  0  0
  5 14  1  1  0  0  0
  5 18  1  0  0  0  0
  6 13  2  0  0  0  0
  8 10  1  0  0  0  0
  9  6  1  6  0  0  0
  9  2  1  0  0  0  0
 10  9  1  0  0  0  0
 10 17  2  0  0  0  0
 11 19  2  0  0  0  0
 11 24  1  0  0  0  0
 12 20  1  0  0  0  0
 12 14  2  0  0  0  0
 13  5  1  0  0  0  0
 15 12  1  0  0  0  0
 16 17  1  0  0  0  0
 17 11  1  0  0  0  0
 20 21  2  0  0  0  0
 22 20  1  0  0  0  0
 23 22  1  0  0  0  0
 24 32  1  0  0  0  0
 26 32  1  1  0  0  0
 26 29  1  0  0  0  0
 27 28  2  0  0  0  0
 27 31  1  0  0  0  0
 29 28  1  1  0  0  0
 30 25  1  6  0  0  0
 30 26  1  0  0  0  0
 30 29  1  0  0  0  0
 32 27  1  0  0  0  0
M  END
>  <MODEL>
4

>  <REMARK>
 VINA RESULT:      -7.7      2.589      4.441
  Name = 
  4 active torsions:
  status: ('A' for Active; 'I' for Inactive)
    1  A    between atoms: C_1  and  O_10
    2  A    between atoms: C_1  and  C_19
    3  A    between atoms: C_16  and  C_27
    4  A    between atoms: C_27  and  N_32
                            x       y       z     vdW  Elec       q    Type
                         _______ _______ _______ _____ _____    ______ ____

>  <TORSDO>
F 4

$$$$
=
 OpenBabel11062410483D

 32 37  0  0  1  0  0  0  0  0999 V2000
  162.0810  205.2060  146.4420 C   0  0  2  0  0  3  0  0  0  0  0  0
  161.3240  207.2170  150.1110 C   0  0  0  0  0  0  0  0  0  0  0  0
  162.3500  211.4930  148.0820 C   0  0  0  0  0  3  0  0  0  0  0  0
  162.1140  212.0900  149.3210 C   0  0  0  0  0  3  0  0  0  0  0  0
  161.3940  205.2100  148.8630 C   0  0  2  0  0  3  0  0  0  0  0  0
  161.9140  207.2790  147.7950 N   0  0  0  0  0  0  0  0  0  0  0  0
  163.4530  205.1460  146.2840 F   0  0  0  0  0  0  0  0  0  0  0  0
  162.2140  210.1100  147.9510 C   0  0  0  0  0  3  0  0  0  0  0  0
  161.6970  207.9440  148.9630 C   0  0  2  0  0  3  0  0  0  0  0  0
  161.8420  209.3350  149.0560 C   0  0  0  0  0  0  0  0  0  0  0  0
  161.2370  209.2090  151.4080 C   0  0  0  0  0  0  0  0  0  0  0  0
  161.2830  203.1380  147.6030 C   0  0  0  0  0  0  0  0  0  0  0  0
  161.7620  205.9310  147.7170 C   0  0  0  0  0  0  0  0  0  0  0  0
  161.2070  203.7590  148.7840 C   0  0  0  0  0  3  0  0  0  0  0  0
  161.5450  203.8760  146.4360 O   0  0  0  0  0  0  0  0  0  0  0  0
  161.7540  211.3300  150.3900 N   0  0  0  0  0  0  0  0  0  0  0  0
  161.6100  209.9780  150.2930 C   0  0  0  0  0  0  0  0  0  0  0  0
  161.1810  205.8690  150.0330 N   0  0  0  0  0  0  0  0  0  0  0  0
  161.1060  207.8600  151.2890 N   0  0  0  0  0  0  0  0  0  0  0  0
  161.0620  201.6870  147.4950 C   0  0  0  0  0  0  0  0  0  0  0  0
  160.8480  200.9720  148.5550 N   0  0  0  0  0  2  0  0  0  0  0  0
  161.0850  201.0910  146.2300 O   0  0  0  0  0  0  0  0  0  0  0  0
  160.0730  201.3230  145.2610 C   0  0  0  0  0  1  0  0  0  0  0  0
  160.9590  209.8530  152.7290 C   0  0  0  0  0  2  0  0  0  0  0  0
  161.1530  205.1350  153.5210 C   0  0  0  0  0  1  0  0  0  0  0  0
  160.5080  207.5150  153.6940 C   0  0  2  0  0  3  0  0  0  0  0  0
  161.3720  209.1440  155.1460 C   0  0  0  0  0  0  0  0  0  0  0  0
  161.1950  208.0900  155.9150 C   0  0  0  0  0  3  0  0  0  0  0  0
  160.6220  206.9520  155.1130 C   0  0  2  0  0  3  0  0  0  0  0  0
  161.5840  206.4950  154.0270 C   0  0  1  0  0  3  0  0  0  0  0  0
  161.9350  210.4350  155.6250 C   0  0  0  0  0  1  0  0  0  0  0  0
  161.0350  208.8670  153.7980 N   0  0  0  0  0  0  0  0  0  0  0  0
  1  7  1  1  0  0  0
  1 13  1  0  0  0  0
  2 19  1  0  0  0  0
  3  4  1  0  0  0  0
  4 16  2  0  0  0  0
  5 14  1  6  0  0  0
  5 18  1  0  0  0  0
  8  3  2  0  0  0  0
  8 10  1  0  0  0  0
  9  6  1  1  0  0  0
  9 10  1  0  0  0  0
  9  2  1  0  0  0  0
 10 17  2  0  0  0  0
 11 24  1  0  0  0  0
 12 14  2  0  0  0  0
 13  6  2  0  0  0  0
 13  5  1  0  0  0  0
 15  1  1  0  0  0  0
 15 12  1  0  0  0  0
 17 16  1  0  0  0  0
 17 11  1  0  0  0  0
 18  2  2  0  0  0  0
 19 11  2  0  0  0  0
 20 12  1  0  0  0  0
 20 21  2  0  0  0  0
 22 20  1  0  0  0  0
 23 22  1  0  0  0  0
 24 32  1  0  0  0  0
 26 32  1  1  0  0  0
 26 30  1  0  0  0  0
 26 29  1  0  0  0  0
 27 31  1  0  0  0  0
 27 28  2  0  0  0  0
 29 28  1  1  0  0  0
 30 25  1  6  0  0  0
 30 29  1  0  0  0  0
 32 27  1  0  0  0  0
M  END
>  <MODEL>
5

>  <REMARK>
 VINA RESULT:      -7.1      2.813      5.418
  Name = 
  4 active torsions:
  status: ('A' for Active; 'I' for Inactive)
    1  A    between atoms: C_1  and  O_10
    2  A    between atoms: C_1  and  C_19
    3  A    between atoms: C_16  and  C_27
    4  A    between atoms: C_27  and  N_32
                            x       y       z     vdW  Elec       q    Type
                         _______ _______ _______ _____ _____    ______ ____

>  <TORSDO>
F 4

$$$$
=
 OpenBabel11062410483D

 32 37  0  0  1  0  0  0  0  0999 V2000
  161.2320  204.7130  147.6030 C   0  0  2  0  0  3  0  0  0  0  0  0
  161.6810  207.2040  151.0200 C   0  0  0  0  0  0  0  0  0  0  0  0
  161.9030  211.1510  148.2230 C   0  0  0  0  0  3  0  0  0  0  0  0
  162.0750  211.9110  149.3810 C   0  0  0  0  0  3  0  0  0  0  0  0
  161.3760  205.0500  150.0920 C   0  0  2  0  0  3  0  0  0  0  0  0
  161.4780  206.9490  148.6510 N   0  0  0  0  0  0  0  0  0  0  0  0
  162.4770  204.5990  147.0130 F   0  0  0  0  0  0  0  0  0  0  0  0
  161.7580  209.7670  148.3270 C   0  0  0  0  0  3  0  0  0  0  0  0
  161.6430  207.7660  149.7280 C   0  0  2  0  0  3  0  0  0  0  0  0
  161.7840  209.1530  149.5840 C   0  0  0  0  0  0  0  0  0  0  0  0
  161.9870  209.3490  152.0000 C   0  0  0  0  0  0  0  0  0  0  0  0
  160.8990  202.8350  149.2210 C   0  0  0  0  0  0  0  0  0  0  0  0
  161.3350  205.6070  148.8050 C   0  0  0  0  0  0  0  0  0  0  0  0
  161.2020  203.6070  150.2700 C   0  0  0  0  0  3  0  0  0  0  0  0
  160.7490  203.4080  147.9470 O   0  0  0  0  0  0  0  0  0  0  0  0
  162.1000  211.3060  150.5990 N   0  0  0  0  0  0  0  0  0  0  0  0
  161.9590  209.9570  150.7330 C   0  0  0  0  0  0  0  0  0  0  0  0
  161.5470  205.8610  151.1700 N   0  0  0  0  0  0  0  0  0  0  0  0
  161.8490  208.0000  152.1080 N   0  0  0  0  0  0  0  0  0  0  0  0
  160.6820  201.3880  149.3830 C   0  0  0  0  0  0  0  0  0  0  0  0
  159.6740  200.9450  150.0670 N   0  0  0  0  0  2  0  0  0  0  0  0
  161.5820  200.4990  148.7880 O   0  0  0  0  0  0  0  0  0  0  0  0
  161.5550  200.2060  147.3990 C   0  0  0  0  0  1  0  0  0  0  0  0
  162.1450  210.1670  153.2420 C   0  0  0  0  0  2  0  0  0  0  0  0
  160.7130  207.9920  157.2610 C   0  0  0  0  0  1  0  0  0  0  0  0
  160.7560  208.8180  154.9310 C   0  0  2  0  0  3  0  0  0  0  0  0
  159.8180  210.7950  154.0820 C   0  0  0  0  0  0  0  0  0  0  0  0
  158.8780  210.3020  154.8610 C   0  0  0  0  0  3  0  0  0  0  0  0
  159.3370  209.0060  155.4720 C   0  0  2  0  0  3  0  0  0  0  0  0
  160.5390  209.2130  156.3820 C   0  0  1  0  0  3  0  0  0  0  0  0
  159.6900  212.0750  153.3340 C   0  0  0  0  0  1  0  0  0  0  0  0
  160.9880  209.9960  154.1100 N   0  0  0  0  0  0  0  0  0  0  0  0
  1  7  1  1  0  0  0
  1 15  1  0  0  0  0
  1 13  1  0  0  0  0
  2 18  2  0  0  0  0
  2 19  1  0  0  0  0
  3  8  2  0  0  0  0
  3  4  1  0  0  0  0
  4 16  2  0  0  0  0
  5 14  1  1  0  0  0
  5 18  1  0  0  0  0
  6 13  2  0  0  0  0
  8 10  1  0  0  0  0
  9  6  1  6  0  0  0
  9  2  1  0  0  0  0
 10  9  1  0  0  0  0
 10 17  2  0  0  0  0
 11 19  2  0  0  0  0
 11 24  1  0  0  0  0
 12 20  1  0  0  0  0
 12 14  2  0  0  0  0
 13  5  1  0  0  0  0
 15 12  1  0  0  0  0
 16 17  1  0  0  0  0
 17 11  1  0  0  0  0
 20 21  2  0  0  0  0
 22 20  1  0  0  0  0
 23 22  1  0  0  0  0
 24 32  1  0  0  0  0
 26 32  1  6  0  0  0
 26 29  1  0  0  0  0
 26 30  1  0  0  0  0
 27 32  1  0  0  0  0
 27 28  2  0  0  0  0
 29 28  1  6  0  0  0
 29 30  1  0  0  0  0
 30 25  1  1  0  0  0
 31 27  1  0  0  0  0
M  END
>  <MODEL>
6

>  <REMARK>
 VINA RESULT:      -6.9      2.567      4.950
  Name = 
  4 active torsions:
  status: ('A' for Active; 'I' for Inactive)
    1  A    between atoms: C_1  and  O_10
    2  A    between atoms: C_1  and  C_19
    3  A    between atoms: C_16  and  C_27
    4  A    between atoms: C_27  and  N_32
                            x       y       z     vdW  Elec       q    Type
                         _______ _______ _______ _____ _____    ______ ____

>  <TORSDO>
F 4

$$$$
=
 OpenBabel11062410483D

 32 37  0  0  1  0  0  0  0  0999 V2000
  160.7840  204.0500  149.9040 C   0  0  2  0  0  3  0  0  0  0  0  0
  161.6730  208.1720  149.3520 C   0  0  0  0  0  0  0  0  0  0  0  0
  161.2500  208.9900  154.1060 C   0  0  0  0  0  3  0  0  0  0  0  0
  161.5210  210.3360  153.8560 C   0  0  0  0  0  3  0  0  0  0  0  0
  161.3920  206.0060  148.4430 C   0  0  2  0  0  3  0  0  0  0  0  0
  161.1670  206.3340  150.7960 N   0  0  0  0  0  0  0  0  0  0  0  0
  159.4210  203.9500  150.1100 F   0  0  0  0  0  0  0  0  0  0  0  0
  161.2170  208.0890  153.0420 C   0  0  0  0  0  3  0  0  0  0  0  0
  161.4290  207.6610  150.6430 C   0  0  2  0  0  3  0  0  0  0  0  0
  161.4560  208.5370  151.7370 C   0  0  0  0  0  0  0  0  0  0  0  0
  161.9670  210.3670  150.2190 C   0  0  0  0  0  0  0  0  0  0  0  0
  161.2820  203.7870  147.4660 C   0  0  0  0  0  0  0  0  0  0  0  0
  161.1510  205.4950  149.7270 C   0  0  0  0  0  0  0  0  0  0  0  0
  161.3990  205.1070  147.2870 C   0  0  0  0  0  3  0  0  0  0  0  0
  161.1490  203.2630  148.7630 O   0  0  0  0  0  0  0  0  0  0  0  0
  161.7510  210.7630  152.5850 N   0  0  0  0  0  0  0  0  0  0  0  0
  161.7270  209.9070  151.5260 C   0  0  0  0  0  0  0  0  0  0  0  0
  161.6490  207.3320  148.2850 N   0  0  0  0  0  0  0  0  0  0  0  0
  161.9330  209.4940  149.1760 N   0  0  0  0  0  0  0  0  0  0  0  0
  161.3240  202.8610  146.3230 C   0  0  0  0  0  0  0  0  0  0  0  0
  161.5100  203.3070  145.1200 N   0  0  0  0  0  2  0  0  0  0  0  0
  161.1580  201.4920  146.5540 O   0  0  0  0  0  0  0  0  0  0  0  0
  160.4650  200.6460  145.6490 C   0  0  0  0  0  1  0  0  0  0  0  0
  162.2830  211.8050  149.9550 C   0  0  0  0  0  2  0  0  0  0  0  0
  160.2070  212.2300  145.6610 C   0  0  0  0  0  1  0  0  0  0  0  0
  161.1760  212.8030  147.8620 C   0  0  2  0  0  3  0  0  0  0  0  0
  160.0590  213.0570  149.9100 C   0  0  0  0  0  0  0  0  0  0  0  0
  159.3020  213.7030  149.0490 C   0  0  0  0  0  3  0  0  0  0  0  0
  159.9080  213.6380  147.6730 C   0  0  2  0  0  3  0  0  0  0  0  0
  159.9690  212.2090  147.1570 C   0  0  1  0  0  3  0  0  0  0  0  0
  159.7390  212.9190  151.3570 C   0  0  0  0  0  1  0  0  0  0  0  0
  161.1690  212.4490  149.2730 N   0  0  0  0  0  0  0  0  0  0  0  0
  1  7  1  6  0  0  0
  4  3  1  0  0  0  0
  5 14  1  1  0  0  0
  5 13  1  0  0  0  0
  8  3  2  0  0  0  0
  9  2  1  6  0  0  0
  9  6  1  0  0  0  0
  9 10  1  0  0  0  0
 10  8  1  0  0  0  0
 11 17  1  0  0  0  0
 12 15  1  0  0  0  0
 13  1  1  0  0  0  0
 13  6  2  0  0  0  0
 14 12  2  0  0  0  0
 15  1  1  0  0  0  0
 16  4  2  0  0  0  0
 17 10  2  0  0  0  0
 17 16  1  0  0  0  0
 18  5  1  0  0  0  0
 18  2  2  0  0  0  0
 19  2  1  0  0  0  0
 19 11  2  0  0  0  0
 20 22  1  0  0  0  0
 20 12  1  0  0  0  0
 21 20  2  0  0  0  0
 23 22  1  0  0  0  0
 24 11  1  0  0  0  0
 26 32  1  1  0  0  0
 27 31  1  0  0  0  0
 28 27  2  0  0  0  0
 29 26  1  0  0  0  0
 29 28  1  1  0  0  0
 30 25  1  6  0  0  0
 30 29  1  0  0  0  0
 30 26  1  0  0  0  0
 32 27  1  0  0  0  0
 32 24  1  0  0  0  0
M  END
>  <MODEL>
7

>  <REMARK>
 VINA RESULT:      -6.7      2.472      3.710
  Name = 
  4 active torsions:
  status: ('A' for Active; 'I' for Inactive)
    1  A    between atoms: C_1  and  O_10
    2  A    between atoms: C_1  and  C_19
    3  A    between atoms: C_16  and  C_27
    4  A    between atoms: C_27  and  N_32
                            x       y       z     vdW  Elec       q    Type
                         _______ _______ _______ _____ _____    ______ ____

>  <TORSDO>
F 4

$$$$
=
 OpenBabel11062410483D

 32 37  0  0  1  0  0  0  0  0999 V2000
  161.1930  203.2420  152.1790 C   0  0  2  0  0  3  0  0  0  0  0  0
  160.8890  207.4480  151.6310 C   0  0  0  0  0  0  0  0  0  0  0  0
  161.4690  208.1980  156.3800 C   0  0  0  0  0  3  0  0  0  0  0  0
  161.3340  209.5650  156.1380 C   0  0  0  0  0  3  0  0  0  0  0  0
  160.9270  205.2690  150.7120 C   0  0  2  0  0  3  0  0  0  0  0  0
  161.2170  205.5610  153.0620 N   0  0  0  0  0  0  0  0  0  0  0  0
  159.9890  202.8100  152.7040 F   0  0  0  0  0  0  0  0  0  0  0  0
  161.3930  207.3020  155.3120 C   0  0  0  0  0  3  0  0  0  0  0  0
  161.1030  206.9100  152.9160 C   0  0  2  0  0  3  0  0  0  0  0  0
  161.1860  207.7790  154.0120 C   0  0  0  0  0  0  0  0  0  0  0  0
  160.8460  209.6590  152.5070 C   0  0  0  0  0  0  0  0  0  0  0  0
  161.1210  203.0790  149.6830 C   0  0  0  0  0  0  0  0  0  0  0  0
  161.1430  204.7310  151.9890 C   0  0  0  0  0  0  0  0  0  0  0  0
  160.8660  204.3840  149.5460 C   0  0  0  0  0  3  0  0  0  0  0  0
  161.4450  202.5550  150.9460 O   0  0  0  0  0  0  0  0  0  0  0  0
  161.1310  210.0200  154.8720 N   0  0  0  0  0  0  0  0  0  0  0  0
  161.0550  209.1710  153.8090 C   0  0  0  0  0  0  0  0  0  0  0  0
  160.8060  206.6150  150.5610 N   0  0  0  0  0  0  0  0  0  0  0  0
  160.7680  208.7910  151.4620 N   0  0  0  0  0  0  0  0  0  0  0  0
  161.1030  202.1780  148.5200 C   0  0  0  0  0  0  0  0  0  0  0  0
  160.9560  200.8990  148.6770 N   0  0  0  0  0  2  0  0  0  0  0  0
  161.2470  202.7230  147.2400 O   0  0  0  0  0  0  0  0  0  0  0  0
  160.8270  202.0360  146.0690 C   0  0  0  0  0  1  0  0  0  0  0  0
  160.7270  211.1260  152.2450 C   0  0  0  0  0  2  0  0  0  0  0  0
  162.5260  209.1220  148.2860 C   0  0  0  0  0  1  0  0  0  0  0  0
  162.1300  210.7180  150.1320 C   0  0  2  0  0  3  0  0  0  0  0  0
  160.7030  212.5820  150.1490 C   0  0  0  0  0  0  0  0  0  0  0  0
  161.3200  212.6600  148.9880 C   0  0  0  0  0  3  0  0  0  0  0  0
  162.2930  211.5220  148.8400 C   0  0  2  0  0  3  0  0  0  0  0  0
  161.5810  210.1780  148.8220 C   0  0  1  0  0  3  0  0  0  0  0  0
  159.6680  213.5480  150.6050 C   0  0  0  0  0  1  0  0  0  0  0  0
  161.0930  211.4250  150.8670 N   0  0  0  0  0  0  0  0  0  0  0  0
  1  7  1  6  0  0  0
  4  3  1  0  0  0  0
  5 14  1  6  0  0  0
  5 13  1  0  0  0  0
  8  3  2  0  0  0  0
  9  2  1  1  0  0  0
  9  6  1  0  0  0  0
  9 10  1  0  0  0  0
 10  8  1  0  0  0  0
 11 17  1  0  0  0  0
 12 15  1  0  0  0  0
 13  1  1  0  0  0  0
 13  6  2  0  0  0  0
 14 12  2  0  0  0  0
 15  1  1  0  0  0  0
 16  4  2  0  0  0  0
 17 10  2  0  0  0  0
 17 16  1  0  0  0  0
 18  5  1  0  0  0  0
 18  2  2  0  0  0  0
 19  2  1  0  0  0  0
 19 11  2  0  0  0  0
 20 21  2  0  0  0  0
 20 12  1  0  0  0  0
 22 20  1  0  0  0  0
 23 22  1  0  0  0  0
 24 11  1  0  0  0  0
 26 32  1  1  0  0  0
 27 31  1  0  0  0  0
 27 32  1  0  0  0  0
 28 27  2  0  0  0  0
 29 28  1  1  0  0  0
 29 26  1  0  0  0  0
 30 25  1  6  0  0  0
 30 29  1  0  0  0  0
 30 26  1  0  0  0  0
 32 24  1  0  0  0  0
M  END
>  <MODEL>
8

>  <REMARK>
 VINA RESULT:      -6.6      2.260      3.274
  Name = 
  4 active torsions:
  status: ('A' for Active; 'I' for Inactive)
    1  A    between atoms: C_1  and  O_10
    2  A    between atoms: C_1  and  C_19
    3  A    between atoms: C_16  and  C_27
    4  A    between atoms: C_27  and  N_32
                            x       y       z     vdW  Elec       q    Type
                         _______ _______ _______ _____ _____    ______ ____

>  <TORSDO>
F 4

$$$$
=
 OpenBabel11062410483D

 32 37  0  0  1  0  0  0  0  0999 V2000
  157.3800  214.0030  153.2150 C   0  0  2  0  0  3  0  0  0  0  0  0
  160.0340  210.7710  152.4480 C   0  0  0  0  0  0  0  0  0  0  0  0
  161.6460  212.9330  148.4260 C   0  0  0  0  0  3  0  0  0  0  0  0
  162.4750  211.8290  148.2160 C   0  0  0  0  0  3  0  0  0  0  0  0
  158.4030  211.7870  153.8260 C   0  0  0  0  0  0  0  0  0  0  0  0
  159.1480  212.9120  151.8590 N   0  0  0  0  0  0  0  0  0  0  0  0
  156.3120  213.8700  152.3490 F   0  0  0  0  0  0  0  0  0  0  0  0
  160.8140  212.9600  149.5460 C   0  0  0  0  0  3  0  0  0  0  0  0
  159.9910  211.8800  151.5800 C   0  0  0  0  0  0  0  0  0  0  0  0
  160.8150  211.8880  150.4460 C   0  0  0  0  0  0  0  0  0  0  0  0
  161.6770  209.7090  151.0960 C   0  0  0  0  0  0  0  0  0  0  0  0
  156.8580  212.8460  155.3710 C   0  0  0  0  0  0  0  0  0  0  0  0
  158.3600  212.8940  152.9660 C   0  0  0  0  0  0  0  0  0  0  0  0
  157.5730  211.7680  155.0340 C   0  0  0  0  0  3  0  0  0  0  0  0
  156.8990  213.9970  154.5660 O   0  0  0  0  0  0  0  0  0  0  0  0
  162.4690  210.7920  149.0950 N   0  0  0  0  0  0  0  0  0  0  0  0
  161.6690  210.7900  150.1980 C   0  0  0  0  0  0  0  0  0  0  0  0
  159.2390  210.7520  153.5500 N   0  0  0  0  0  0  0  0  0  0  0  0
  160.8660  209.7280  152.1880 N   0  0  0  0  0  0  0  0  0  0  0  0
  156.0470  212.8620  156.5990 C   0  0  0  0  0  0  0  0  0  0  0  0
  155.7750  211.7600  157.2250 N   0  0  0  0  0  2  0  0  0  0  0  0
  155.5730  214.0860  157.0810 O   0  0  0  0  0  0  0  0  0  0  0  0
  154.2020  214.4520  157.0120 C   0  0  0  0  0  1  0  0  0  0  0  0
  162.5850  208.5390  150.8840 C   0  0  0  0  0  2  0  0  0  0  0  0
  161.5040  206.3160  146.7830 C   0  0  0  0  0  1  0  0  0  0  0  0
  161.2750  207.3710  149.0070 C   0  0  2  0  0  3  0  0  0  0  0  0
  161.3220  206.3330  151.1110 C   0  0  0  0  0  0  0  0  0  0  0  0
  160.5480  205.5530  150.3850 C   0  0  0  0  0  3  0  0  0  0  0  0
  160.4100  206.1090  148.9930 C   0  0  2  0  0  3  0  0  0  0  0  0
  161.7470  206.1310  148.2660 C   0  0  1  0  0  3  0  0  0  0  0  0
  161.6720  206.0630  152.5320 C   0  0  0  0  0  1  0  0  0  0  0  0
  161.8360  207.4100  150.3480 N   0  0  0  0  0  0  0  0  0  0  0  0
  1  7  1  6  0  0  0
  1 15  1  0  0  0  0
  2 18  2  0  0  0  0
  3  8  1  0  0  0  0
  4  3  2  0  0  0  0
  4 16  1  0  0  0  0
  5 14  1  0  0  0  0
  6 13  1  0  0  0  0
  8 10  2  0  0  0  0
  9  6  2  0  0  0  0
  9  2  1  0  0  0  0
 10  9  1  0  0  0  0
 11 19  2  0  0  0  0
 12 20  1  0  0  0  0
 13  1  1  0  0  0  0
 13  5  2  0  0  0  0
 14 12  2  0  0  0  0
 15 12  1  0  0  0  0
 16 17  2  0  0  0  0
 17 10  1  0  0  0  0
 17 11  1  0  0  0  0
 18  5  1  0  0  0  0
 19  2  1  0  0  0  0
 20 22  1  0  0  0  0
 20 21  2  0  0  0  0
 23 22  1  0  0  0  0
 24 11  1  0  0  0  0
 26 32  1  1  0  0  0
 27 31  1  0  0  0  0
 28 27  2  0  0  0  0
 29 26  1  0  0  0  0
 29 28  1  1  0  0  0
 30 25  1  6  0  0  0
 30 29  1  0  0  0  0
 30 26  1  0  0  0  0
 32 24  1  0  0  0  0
 32 27  1  0  0  0  0
M  END
>  <MODEL>
9

>  <REMARK>
 VINA RESULT:      -6.5      4.280      8.837
  Name = 
  4 active torsions:
  status: ('A' for Active; 'I' for Inactive)
    1  A    between atoms: C_1  and  O_10
    2  A    between atoms: C_1  and  C_19
    3  A    between atoms: C_16  and  C_27
    4  A    between atoms: C_27  and  N_32
                            x       y       z     vdW  Elec       q    Type
                         _______ _______ _______ _____ _____    ______ ____

>  <TORSDO>
F 4

$$$$
