=
 OpenBabel11062408353D

 32 34  0  0  1  0  0  0  0  0999 V2000
  161.1080  210.3820  151.5180 O   0  0  0  0  0  0  0  0  0  0  0  0
  161.9260  209.2500  151.4870 C   0  0  0  0  0  2  0  0  0  0  0  0
  161.1720  208.0520  150.9230 C   0  0  2  0  0  3  0  0  0  0  0  0
  161.2150  206.9710  151.8080 O   0  0  0  0  0  1  0  0  0  0  0  0
  161.6400  207.6600  149.5160 C   0  0  2  0  0  3  0  0  0  0  0  0
  161.7760  208.7930  148.7130 O   0  0  0  0  0  1  0  0  0  0  0  0
  160.7870  206.5860  148.8250 C   0  0  0  0  0  2  0  0  0  0  0  0
  161.5220  205.2670  148.6060 C   0  0  2  0  0  3  0  0  0  0  0  0
  161.3610  204.8330  147.1540 C   0  0  1  0  0  3  0  0  0  0  0  0
  161.5960  206.0080  146.2270 C   0  0  0  0  0  2  0  0  0  0  0  0
  162.6870  204.9800  146.4330 C   0  0  2  0  0  3  0  0  0  0  0  0
  162.7110  204.1090  145.3450 O   0  0  0  0  0  1  0  0  0  0  0  0
  160.9440  204.2020  149.5270 C   0  0  0  0  0  2  0  0  0  0  0  0
  160.8880  202.8590  148.8200 C   0  0  0  0  0  2  0  0  0  0  0  0
  160.9880  202.2230  151.1180 O   0  0  0  0  0  1  0  0  0  0  0  0
  160.7430  201.7390  149.8320 C   0  0  0  0  0  2  0  0  0  0  0  0
  160.6560  210.4740  152.8390 C   0  0  2  0  0  3  0  0  0  0  0  0
  159.9090  211.7880  153.0610 C   0  0  1  0  0  3  0  0  0  0  0  0
  159.9940  212.7240  151.8140 C   0  0  0  0  0  2  0  0  0  0  0  0
  155.8620  213.8580  153.4370 C   0  0  0  0  0  0  0  0  0  0  0  0
  158.4630  211.5100  153.5330 C   0  0  0  0  0  2  0  0  0  0  0  0
  156.6530  214.3690  152.4120 O   0  0  0  0  0  0  0  0  0  0  0  0
  157.7120  213.4490  152.2690 C   0  0  1  0  0  3  0  0  0  0  0  0
  159.0840  213.9670  151.9150 C   0  0  0  0  0  2  0  0  0  0  0  0
  156.4230  212.9100  154.1190 N   0  0  0  0  0  0  0  0  0  0  0  0
  154.4740  214.3210  153.7000 C   0  0  0  0  0  1  0  0  0  0  0  0
  157.7930  212.8580  153.6420 C   0  0  1  0  0  3  0  0  0  0  0  0
  161.8320  210.3660  153.8070 C   0  0  0  0  0  2  0  0  0  0  0  0
  161.4810  209.5570  155.0150 C   0  0  0  0  0  0  0  0  0  0  0  0
  161.9120  209.9260  156.2230 C   0  0  0  0  0  2  0  0  0  0  0  0
  159.8260  208.0820  156.1240 C   0  0  0  0  0  1  0  0  0  0  0  0
  160.6220  208.3440  154.8580 C   0  0  0  0  0  2  0  0  0  0  0  0
  1 17  1  0  0  0  0
  2  1  1  0  0  0  0
  3  2  1  0  0  0  0
  3  4  1  1  0  0  0
  5  6  1  6  0  0  0
  5  3  1  0  0  0  0
  7  5  1  0  0  0  0
  8  7  1  6  0  0  0
  8 13  1  0  0  0  0
  9  8  1  1  0  0  0
 10 11  1  0  0  0  0
 10  9  1  0  0  0  0
 11 12  1  6  0  0  0
 11  9  1  0  0  0  0
 14 13  1  0  0  0  0
 14 16  1  0  0  0  0
 16 15  1  0  0  0  0
 17 28  1  1  0  0  0
 18 17  1  6  0  0  0
 18 21  1  0  0  0  0
 19 24  1  0  0  0  0
 19 18  1  0  0  0  0
 20 26  1  0  0  0  0
 20 25  2  0  0  0  0
 22 20  1  0  0  0  0
 23 24  1  1  0  0  0
 23 22  1  0  0  0  0
 23 27  1  0  0  0  0
 27 21  1  6  0  0  0
 27 25  1  0  0  0  0
 28 29  1  0  0  0  0
 29 30  2  0  0  0  0
 32 29  1  0  0  0  0
 32 31  1  0  0  0  0
M  END
>  <MODEL>
1

>  <REMARK>
 VINA RESULT:      -6.7      0.000      0.000
  Name = 
  14 active torsions:
  status: ('A' for Active; 'I' for Inactive)
    1  A    between atoms: C_1  and  C_4
    2  A    between atoms: C_1  and  O_5
    3  A    between atoms: C_2  and  C_14
    4  A    between atoms: C_3  and  C_20
    5  A    between atoms: C_4  and  C_24
    6  A    between atoms: O_5  and  C_14
    7  A    between atoms: C_13  and  C_29
    8  A    between atoms: C_13  and  C_30
    9  A    between atoms: C_14  and  C_30
   10  A    between atoms: C_15  and  C_20
   11  A    between atoms: C_15  and  C_26
   12  A    between atoms: C_16  and  C_20
   13  A    between atoms: C_16  and  C_24
   14  A    between atoms: C_19  and  C_26
                            x       y       z     vdW  Elec       q    Type
                         _______ _______ _______ _____ _____    ______ ____

>  <TORSDO>
F 14

$$$$
=
 OpenBabel11062408353D

 32 34  0  0  1  0  0  0  0  0999 V2000
  160.9530  206.1960  153.0690 O   0  0  0  0  0  0  0  0  0  0  0  0
  160.8370  207.5100  153.5290 C   0  0  0  0  0  2  0  0  0  0  0  0
  160.9460  207.5640  155.0480 C   0  0  2  0  0  3  0  0  0  0  0  0
  159.8300  206.9780  155.6520 O   0  0  0  0  0  1  0  0  0  0  0  0
  161.2080  208.9790  155.5780 C   0  0  2  0  0  3  0  0  0  0  0  0
  162.1640  208.9510  156.5950 O   0  0  0  0  0  1  0  0  0  0  0  0
  159.9540  209.7500  156.0140 C   0  0  0  0  0  2  0  0  0  0  0  0
  159.8630  211.1550  155.4260 C   0  0  2  0  0  3  0  0  0  0  0  0
  158.4010  211.5810  155.3570 C   0  0  1  0  0  3  0  0  0  0  0  0
  157.8210  211.6930  156.7520 C   0  0  0  0  0  2  0  0  0  0  0  0
  158.2400  212.9420  156.0070 C   0  0  2  0  0  3  0  0  0  0  0  0
  157.1100  213.5650  155.4810 O   0  0  0  0  0  1  0  0  0  0  0  0
  160.4670  211.1640  154.0300 C   0  0  0  0  0  2  0  0  0  0  0  0
  159.3740  211.1340  152.9760 C   0  0  0  0  0  2  0  0  0  0  0  0
  159.3160  213.4910  152.6010 O   0  0  0  0  0  1  0  0  0  0  0  0
  159.5710  212.2650  151.9840 C   0  0  0  0  0  2  0  0  0  0  0  0
  161.2210  206.3070  151.7000 C   0  0  2  0  0  3  0  0  0  0  0  0
  161.5510  204.9400  151.1040 C   0  0  1  0  0  3  0  0  0  0  0  0
  160.8890  203.7780  151.9110 C   0  0  0  0  0  2  0  0  0  0  0  0
  160.8500  201.9980  147.6890 C   0  0  0  0  0  0  0  0  0  0  0  0
  161.2170  204.9180  149.5950 C   0  0  0  0  0  2  0  0  0  0  0  0
  160.5260  201.4830  148.9400 O   0  0  0  0  0  0  0  0  0  0  0  0
  160.5380  202.5920  149.8110 C   0  0  1  0  0  3  0  0  0  0  0  0
  161.0230  202.4010  151.2270 C   0  0  0  0  0  2  0  0  0  0  0  0
  161.3200  203.2070  147.7170 N   0  0  0  0  0  0  0  0  0  0  0  0
  160.6330  201.2530  146.4220 C   0  0  0  0  0  1  0  0  0  0  0  0
  161.4980  203.5110  149.1250 C   0  0  1  0  0  3  0  0  0  0  0  0
  162.3780  207.2770  151.4670 C   0  0  0  0  0  2  0  0  0  0  0  0
  161.9800  208.4060  150.5700 C   0  0  0  0  0  0  0  0  0  0  0  0
  162.1140  209.6690  150.9770 C   0  0  0  0  0  2  0  0  0  0  0  0
  162.5910  207.8240  148.2390 C   0  0  0  0  0  1  0  0  0  0  0  0
  161.4530  208.1040  149.2040 C   0  0  0  0  0  2  0  0  0  0  0  0
  1  2  1  0  0  0  0
  2  3  1  0  0  0  0
  3  5  1  0  0  0  0
  3  4  1  1  0  0  0
  5  7  1  0  0  0  0
  5  6  1  1  0  0  0
  8 13  1  6  0  0  0
  8  7  1  0  0  0  0
  9  8  1  1  0  0  0
  9 11  1  0  0  0  0
  9 10  1  0  0  0  0
 11 12  1  6  0  0  0
 11 10  1  0  0  0  0
 14 13  1  0  0  0  0
 16 15  1  0  0  0  0
 16 14  1  0  0  0  0
 17 28  1  1  0  0  0
 17  1  1  0  0  0  0
 18 17  1  1  0  0  0
 18 19  1  0  0  0  0
 20 25  2  0  0  0  0
 20 22  1  0  0  0  0
 21 18  1  0  0  0  0
 22 23  1  0  0  0  0
 23 24  1  1  0  0  0
 24 19  1  0  0  0  0
 25 27  1  0  0  0  0
 26 20  1  0  0  0  0
 27 21  1  6  0  0  0
 27 23  1  0  0  0  0
 29 30  2  0  0  0  0
 29 28  1  0  0  0  0
 31 32  1  0  0  0  0
 32 29  1  0  0  0  0
M  END
>  <MODEL>
2

>  <REMARK>
 VINA RESULT:      -6.6      3.226      9.655
  Name = 
  14 active torsions:
  status: ('A' for Active; 'I' for Inactive)
    1  A    between atoms: C_1  and  C_4
    2  A    between atoms: C_1  and  O_5
    3  A    between atoms: C_2  and  C_14
    4  A    between atoms: C_3  and  C_20
    5  A    between atoms: C_4  and  C_24
    6  A    between atoms: O_5  and  C_14
    7  A    between atoms: C_13  and  C_29
    8  A    between atoms: C_13  and  C_30
    9  A    between atoms: C_14  and  C_30
   10  A    between atoms: C_15  and  C_20
   11  A    between atoms: C_15  and  C_26
   12  A    between atoms: C_16  and  C_20
   13  A    between atoms: C_16  and  C_24
   14  A    between atoms: C_19  and  C_26
                            x       y       z     vdW  Elec       q    Type
                         _______ _______ _______ _____ _____    ______ ____

>  <TORSDO>
F 14

$$$$
=
 OpenBabel11062408353D

 32 34  0  0  1  0  0  0  0  0999 V2000
  162.3200  207.1450  152.5510 O   0  0  0  0  0  0  0  0  0  0  0  0
  161.9320  206.1810  151.6170 C   0  0  0  0  0  2  0  0  0  0  0  0
  160.8950  205.2360  152.2120 C   0  0  2  0  0  3  0  0  0  0  0  0
  161.1850  204.9530  153.5500 O   0  0  0  0  0  1  0  0  0  0  0  0
  160.7050  203.9590  151.3840 C   0  0  2  0  0  3  0  0  0  0  0  0
  160.7510  202.8330  152.2060 O   0  0  0  0  0  1  0  0  0  0  0  0
  161.6560  203.8160  150.1870 C   0  0  0  0  0  2  0  0  0  0  0  0
  160.9390  203.7160  148.8430 C   0  0  2  0  0  3  0  0  0  0  0  0
  161.5260  202.5600  148.0420 C   0  0  1  0  0  3  0  0  0  0  0  0
  161.1780  201.2390  148.6970 C   0  0  0  0  0  2  0  0  0  0  0  0
  160.4000  201.7080  147.4870 C   0  0  2  0  0  3  0  0  0  0  0  0
  160.8570  201.0340  146.3560 O   0  0  0  0  0  1  0  0  0  0  0  0
  161.1160  205.0170  148.0740 C   0  0  0  0  0  2  0  0  0  0  0  0
  162.0870  204.8260  146.9210 C   0  0  0  0  0  2  0  0  0  0  0  0
  160.5100  205.9410  145.5190 O   0  0  0  0  0  1  0  0  0  0  0  0
  161.8610  205.8900  145.8640 C   0  0  0  0  0  2  0  0  0  0  0  0
  161.8540  208.3610  152.0390 C   0  0  2  0  0  3  0  0  0  0  0  0
  160.8300  208.9840  152.9860 C   0  0  1  0  0  3  0  0  0  0  0  0
  160.8830  208.3410  154.4080 C   0  0  0  0  0  2  0  0  0  0  0  0
  159.6510  212.6240  155.4700 C   0  0  0  0  0  0  0  0  0  0  0  0
  160.9740  210.5240  152.9950 C   0  0  0  0  0  2  0  0  0  0  0  0
  159.7790  211.4590  156.2200 O   0  0  0  0  0  0  0  0  0  0  0  0
  160.4040  210.5330  155.3600 C   0  0  1  0  0  3  0  0  0  0  0  0
  160.0140  209.0770  155.4500 C   0  0  0  0  0  2  0  0  0  0  0  0
  159.8590  212.4650  154.2010 N   0  0  0  0  0  0  0  0  0  0  0  0
  159.3520  213.9500  156.0730 C   0  0  0  0  0  1  0  0  0  0  0  0
  159.9820  211.0310  154.0130 C   0  0  1  0  0  3  0  0  0  0  0  0
  161.2360  208.1510  150.6590 C   0  0  0  0  0  2  0  0  0  0  0  0
  161.9290  208.9660  149.6130 C   0  0  0  0  0  0  0  0  0  0  0  0
  162.3220  208.4020  148.4700 C   0  0  0  0  0  2  0  0  0  0  0  0
  162.0680  211.2020  148.5540 C   0  0  0  0  0  1  0  0  0  0  0  0
  162.1570  210.4240  149.8540 C   0  0  0  0  0  2  0  0  0  0  0  0
  2  3  1  0  0  0  0
  2  1  1  0  0  0  0
  3  4  1  1  0  0  0
  5  6  1  1  0  0  0
  5  3  1  0  0  0  0
  7  5  1  0  0  0  0
  8 13  1  6  0  0  0
  8  7  1  0  0  0  0
  9 10  1  0  0  0  0
  9  8  1  1  0  0  0
 11 12  1  6  0  0  0
 11  9  1  0  0  0  0
 11 10  1  0  0  0  0
 14 13  1  0  0  0  0
 15 16  1  0  0  0  0
 16 14  1  0  0  0  0
 17 28  1  6  0  0  0
 17  1  1  0  0  0  0
 18 17  1  6  0  0  0
 18 21  1  0  0  0  0
 18 19  1  0  0  0  0
 19 24  1  0  0  0  0
 20 26  1  0  0  0  0
 20 22  1  0  0  0  0
 23 24  1  1  0  0  0
 23 22  1  0  0  0  0
 25 20  2  0  0  0  0
 27 21  1  6  0  0  0
 27 25  1  0  0  0  0
 27 23  1  0  0  0  0
 29 32  1  0  0  0  0
 29 28  1  0  0  0  0
 30 29  2  0  0  0  0
 31 32  1  0  0  0  0
M  END
>  <MODEL>
3

>  <REMARK>
 VINA RESULT:      -6.6      2.513      4.685
  Name = 
  14 active torsions:
  status: ('A' for Active; 'I' for Inactive)
    1  A    between atoms: C_1  and  C_4
    2  A    between atoms: C_1  and  O_5
    3  A    between atoms: C_2  and  C_14
    4  A    between atoms: C_3  and  C_20
    5  A    between atoms: C_4  and  C_24
    6  A    between atoms: O_5  and  C_14
    7  A    between atoms: C_13  and  C_29
    8  A    between atoms: C_13  and  C_30
    9  A    between atoms: C_14  and  C_30
   10  A    between atoms: C_15  and  C_20
   11  A    between atoms: C_15  and  C_26
   12  A    between atoms: C_16  and  C_20
   13  A    between atoms: C_16  and  C_24
   14  A    between atoms: C_19  and  C_26
                            x       y       z     vdW  Elec       q    Type
                         _______ _______ _______ _____ _____    ______ ____

>  <TORSDO>
F 14

$$$$
=
 OpenBabel11062408353D

 32 34  0  0  1  0  0  0  0  0999 V2000
  160.3540  209.6600  152.3580 O   0  0  0  0  0  0  0  0  0  0  0  0
  161.1100  208.5410  152.0010 C   0  0  0  0  0  2  0  0  0  0  0  0
  162.1830  208.9130  150.9850 C   0  0  2  0  0  3  0  0  0  0  0  0
  162.2120  210.2940  150.7710 O   0  0  0  0  0  1  0  0  0  0  0  0
  162.0560  208.1330  149.6700 C   0  0  2  0  0  3  0  0  0  0  0  0
  162.0340  209.0080  148.5830 O   0  0  0  0  0  1  0  0  0  0  0  0
  160.8830  207.1440  149.6140 C   0  0  0  0  0  2  0  0  0  0  0  0
  161.3150  205.6890  149.4610 C   0  0  2  0  0  3  0  0  0  0  0  0
  160.9540  205.1990  148.0630 C   0  0  1  0  0  3  0  0  0  0  0  0
  162.0510  205.5610  147.0820 C   0  0  0  0  0  2  0  0  0  0  0  0
  161.9580  204.1500  147.6220 C   0  0  2  0  0  3  0  0  0  0  0  0
  161.3640  203.3290  146.6640 O   0  0  0  0  0  1  0  0  0  0  0  0
  160.6080  204.8340  150.5020 C   0  0  0  0  0  2  0  0  0  0  0  0
  161.6190  204.1390  151.3970 C   0  0  0  0  0  2  0  0  0  0  0  0
  160.9830  202.0550  150.4230 O   0  0  0  0  0  1  0  0  0  0  0  0
  161.2020  202.7010  151.6400 C   0  0  0  0  0  2  0  0  0  0  0  0
  160.1560  209.5450  153.7390 C   0  0  2  0  0  3  0  0  0  0  0  0
  159.7580  210.8930  154.3380 C   0  0  1  0  0  3  0  0  0  0  0  0
  159.5690  211.9860  153.2390 C   0  0  0  0  0  2  0  0  0  0  0  0
  156.4830  213.3630  156.3330 C   0  0  0  0  0  0  0  0  0  0  0  0
  158.5330  210.7270  155.2670 C   0  0  0  0  0  2  0  0  0  0  0  0
  156.9520  213.9190  155.1480 O   0  0  0  0  0  0  0  0  0  0  0  0
  157.7310  212.9080  154.5480 C   0  0  1  0  0  3  0  0  0  0  0  0
  158.9680  213.3020  153.7780 C   0  0  0  0  0  2  0  0  0  0  0  0
  157.0760  212.2620  156.6760 N   0  0  0  0  0  0  0  0  0  0  0  0
  155.3640  213.9470  157.1180 C   0  0  0  0  0  1  0  0  0  0  0  0
  158.1740  212.1150  155.7380 C   0  0  1  0  0  3  0  0  0  0  0  0
  161.4230  209.0220  154.4120 C   0  0  0  0  0  2  0  0  0  0  0  0
  161.1070  208.2000  155.6210 C   0  0  0  0  0  0  0  0  0  0  0  0
  160.1310  207.2920  155.5820 C   0  0  0  0  0  2  0  0  0  0  0  0
  162.4280  209.8150  156.9590 C   0  0  0  0  0  1  0  0  0  0  0  0
  161.9130  208.3910  156.8660 C   0  0  0  0  0  2  0  0  0  0  0  0
  1 17  1  0  0  0  0
  2  1  1  0  0  0  0
  3  4  1  6  0  0  0
  3  2  1  0  0  0  0
  5  6  1  6  0  0  0
  5  3  1  0  0  0  0
  7  5  1  0  0  0  0
  8  7  1  6  0  0  0
  8 13  1  0  0  0  0
  9  8  1  1  0  0  0
 10 11  1  0  0  0  0
 10  9  1  0  0  0  0
 11 12  1  6  0  0  0
 11  9  1  0  0  0  0
 13 14  1  0  0  0  0
 14 16  1  0  0  0  0
 15 16  1  0  0  0  0
 17 28  1  1  0  0  0
 18 17  1  6  0  0  0
 18 21  1  0  0  0  0
 19 24  1  0  0  0  0
 19 18  1  0  0  0  0
 20 25  2  0  0  0  0
 20 26  1  0  0  0  0
 22 20  1  0  0  0  0
 23 24  1  1  0  0  0
 23 22  1  0  0  0  0
 23 27  1  0  0  0  0
 27 21  1  6  0  0  0
 27 25  1  0  0  0  0
 28 29  1  0  0  0  0
 29 32  1  0  0  0  0
 30 29  2  0  0  0  0
 32 31  1  0  0  0  0
M  END
>  <MODEL>
4

>  <REMARK>
 VINA RESULT:      -6.5      1.635      2.079
  Name = 
  14 active torsions:
  status: ('A' for Active; 'I' for Inactive)
    1  A    between atoms: C_1  and  C_4
    2  A    between atoms: C_1  and  O_5
    3  A    between atoms: C_2  and  C_14
    4  A    between atoms: C_3  and  C_20
    5  A    between atoms: C_4  and  C_24
    6  A    between atoms: O_5  and  C_14
    7  A    between atoms: C_13  and  C_29
    8  A    between atoms: C_13  and  C_30
    9  A    between atoms: C_14  and  C_30
   10  A    between atoms: C_15  and  C_20
   11  A    between atoms: C_15  and  C_26
   12  A    between atoms: C_16  and  C_20
   13  A    between atoms: C_16  and  C_24
   14  A    between atoms: C_19  and  C_26
                            x       y       z     vdW  Elec       q    Type
                         _______ _______ _______ _____ _____    ______ ____

>  <TORSDO>
F 14

$$$$
=
 OpenBabel11062408353D

 32 34  0  0  1  0  0  0  0  0999 V2000
  161.1010  210.1350  151.5860 O   0  0  0  0  0  0  0  0  0  0  0  0
  161.9900  209.0580  151.6390 C   0  0  0  0  0  2  0  0  0  0  0  0
  161.2700  207.7470  151.3450 C   0  0  2  0  0  3  0  0  0  0  0  0
  161.4550  206.8310  152.3830 O   0  0  0  0  0  1  0  0  0  0  0  0
  161.6450  207.1520  149.9820 C   0  0  2  0  0  3  0  0  0  0  0  0
  162.2360  208.1230  149.1720 O   0  0  0  0  0  1  0  0  0  0  0  0
  160.5000  206.4370  149.2500 C   0  0  0  0  0  2  0  0  0  0  0  0
  160.8630  205.0370  148.7650 C   0  0  2  0  0  3  0  0  0  0  0  0
  161.3400  204.2010  149.9460 C   0  0  1  0  0  3  0  0  0  0  0  0
  160.2200  204.0260  150.9510 C   0  0  0  0  0  2  0  0  0  0  0  0
  160.5560  202.9020  149.9950 C   0  0  2  0  0  3  0  0  0  0  0  0
  161.3130  201.9410  150.6620 O   0  0  0  0  0  1  0  0  0  0  0  0
  161.9660  205.1280  147.7210 C   0  0  0  0  0  2  0  0  0  0  0  0
  161.5010  204.5410  146.4000 C   0  0  0  0  0  2  0  0  0  0  0  0
  160.1450  206.2140  145.3720 O   0  0  0  0  0  1  0  0  0  0  0  0
  161.4100  205.6280  145.3460 C   0  0  0  0  0  2  0  0  0  0  0  0
  160.7060  210.3510  152.9110 C   0  0  2  0  0  3  0  0  0  0  0  0
  159.9780  211.6880  153.0420 C   0  0  1  0  0  3  0  0  0  0  0  0
  160.0690  212.5330  151.7320 C   0  0  0  0  0  2  0  0  0  0  0  0
  155.9620  213.8370  153.2890 C   0  0  0  0  0  0  0  0  0  0  0  0
  158.5310  211.4650  153.5390 C   0  0  0  0  0  2  0  0  0  0  0  0
  156.7540  214.2630  152.2270 O   0  0  0  0  0  0  0  0  0  0  0  0
  157.7990  213.3200  152.1450 C   0  0  1  0  0  3  0  0  0  0  0  0
  159.1770  213.7920  151.7490 C   0  0  0  0  0  2  0  0  0  0  0  0
  156.5140  212.9310  154.0350 N   0  0  0  0  0  0  0  0  0  0  0  0
  154.5820  214.3360  153.5250 C   0  0  0  0  0  1  0  0  0  0  0  0
  157.8800  212.8270  153.5560 C   0  0  1  0  0  3  0  0  0  0  0  0
  161.9210  210.3200  153.8360 C   0  0  0  0  0  2  0  0  0  0  0  0
  161.5460  209.9150  155.2260 C   0  0  0  0  0  0  0  0  0  0  0  0
  161.4190  210.8350  156.1840 C   0  0  0  0  0  2  0  0  0  0  0  0
  159.8490  208.2580  155.9470 C   0  0  0  0  0  1  0  0  0  0  0  0
  161.2910  208.4730  155.5250 C   0  0  0  0  0  2  0  0  0  0  0  0
  1  2  1  0  0  0  0
  1 17  1  0  0  0  0
  3  2  1  0  0  0  0
  3  4  1  1  0  0  0
  5  6  1  6  0  0  0
  5  3  1  0  0  0  0
  7  5  1  0  0  0  0
  8 13  1  6  0  0  0
  8  7  1  0  0  0  0
  9  8  1  6  0  0  0
  9 11  1  0  0  0  0
  9 10  1  0  0  0  0
 11 12  1  1  0  0  0
 11 10  1  0  0  0  0
 14 13  1  0  0  0  0
 16 15  1  0  0  0  0
 16 14  1  0  0  0  0
 17 28  1  1  0  0  0
 18 17  1  6  0  0  0
 18 21  1  0  0  0  0
 19 24  1  0  0  0  0
 19 18  1  0  0  0  0
 20 26  1  0  0  0  0
 20 25  2  0  0  0  0
 22 20  1  0  0  0  0
 23 24  1  1  0  0  0
 23 22  1  0  0  0  0
 23 27  1  0  0  0  0
 27 21  1  6  0  0  0
 27 25  1  0  0  0  0
 28 29  1  0  0  0  0
 29 32  1  0  0  0  0
 29 30  2  0  0  0  0
 32 31  1  0  0  0  0
M  END
>  <MODEL>
5

>  <REMARK>
 VINA RESULT:      -6.4      0.861      2.487
  Name = 
  14 active torsions:
  status: ('A' for Active; 'I' for Inactive)
    1  A    between atoms: C_1  and  C_4
    2  A    between atoms: C_1  and  O_5
    3  A    between atoms: C_2  and  C_14
    4  A    between atoms: C_3  and  C_20
    5  A    between atoms: C_4  and  C_24
    6  A    between atoms: O_5  and  C_14
    7  A    between atoms: C_13  and  C_29
    8  A    between atoms: C_13  and  C_30
    9  A    between atoms: C_14  and  C_30
   10  A    between atoms: C_15  and  C_20
   11  A    between atoms: C_15  and  C_26
   12  A    between atoms: C_16  and  C_20
   13  A    between atoms: C_16  and  C_24
   14  A    between atoms: C_19  and  C_26
                            x       y       z     vdW  Elec       q    Type
                         _______ _______ _______ _____ _____    ______ ____

>  <TORSDO>
F 14

$$$$
=
 OpenBabel11062408353D

 32 34  0  0  1  0  0  0  0  0999 V2000
  160.7640  206.9280  152.7050 O   0  0  0  0  0  0  0  0  0  0  0  0
  161.5650  206.7310  153.8320 C   0  0  0  0  0  2  0  0  0  0  0  0
  160.9920  207.4640  155.0400 C   0  0  2  0  0  3  0  0  0  0  0  0
  159.7700  206.9090  155.4280 O   0  0  0  0  0  1  0  0  0  0  0  0
  160.8910  208.9800  154.8260 C   0  0  2  0  0  3  0  0  0  0  0  0
  162.0450  209.6150  155.2850 O   0  0  0  0  0  1  0  0  0  0  0  0
  159.6270  209.6330  155.4040 C   0  0  0  0  0  2  0  0  0  0  0  0
  159.2340  210.9310  154.7050 C   0  0  2  0  0  3  0  0  0  0  0  0
  157.7690  211.2360  154.9920 C   0  0  1  0  0  3  0  0  0  0  0  0
  157.5640  211.4710  156.4750 C   0  0  0  0  0  2  0  0  0  0  0  0
  157.6440  212.6500  155.5290 C   0  0  2  0  0  3  0  0  0  0  0  0
  156.3580  213.1210  155.2710 O   0  0  0  0  0  1  0  0  0  0  0  0
  159.4430  210.7860  153.2050 C   0  0  0  0  0  2  0  0  0  0  0  0
  160.0830  212.0390  152.6320 C   0  0  0  0  0  2  0  0  0  0  0  0
  159.6950  213.8780  151.1620 O   0  0  0  0  0  1  0  0  0  0  0  0
  159.0650  212.8310  151.8350 C   0  0  0  0  0  2  0  0  0  0  0  0
  161.4330  206.2820  151.6600 C   0  0  2  0  0  3  0  0  0  0  0  0
  162.1140  207.3010  150.7480 C   0  0  1  0  0  3  0  0  0  0  0  0
  162.0110  206.8970  149.2430 C   0  0  0  0  0  2  0  0  0  0  0  0
  161.9530  211.4640  148.8900 C   0  0  0  0  0  0  0  0  0  0  0  0
  161.5880  208.7240  151.0460 C   0  0  0  0  0  2  0  0  0  0  0  0
  162.0110  210.4400  147.9500 O   0  0  0  0  0  0  0  0  0  0  0  0
  161.7750  209.2560  148.6800 C   0  0  1  0  0  3  0  0  0  0  0  0
  162.5000  207.9950  148.2760 C   0  0  0  0  0  2  0  0  0  0  0  0
  161.9850  211.0590  150.1210 N   0  0  0  0  0  0  0  0  0  0  0  0
  161.8160  212.8980  148.5220 C   0  0  0  0  0  1  0  0  0  0  0  0
  162.2560  209.6350  150.0450 C   0  0  1  0  0  3  0  0  0  0  0  0
  160.4560  205.4260  150.8570 C   0  0  0  0  0  2  0  0  0  0  0  0
  160.8700  203.9890  150.8350 C   0  0  0  0  0  0  0  0  0  0  0  0
  161.2030  203.3660  151.9680 C   0  0  0  0  0  2  0  0  0  0  0  0
  160.7040  201.7610  149.7620 C   0  0  0  0  0  1  0  0  0  0  0  0
  160.8840  203.2510  149.5350 C   0  0  0  0  0  2  0  0  0  0  0  0
  1  2  1  0  0  0  0
  2  3  1  0  0  0  0
  3  4  1  6  0  0  0
  5  3  1  0  0  0  0
  5  6  1  1  0  0  0
  5  7  1  0  0  0  0
  8 13  1  6  0  0  0
  8  7  1  0  0  0  0
  9  8  1  1  0  0  0
  9 11  1  0  0  0  0
  9 10  1  0  0  0  0
 11 12  1  6  0  0  0
 11 10  1  0  0  0  0
 14 13  1  0  0  0  0
 15 16  1  0  0  0  0
 16 14  1  0  0  0  0
 17 28  1  6  0  0  0
 17  1  1  0  0  0  0
 18 21  1  0  0  0  0
 18 17  1  1  0  0  0
 19 18  1  0  0  0  0
 20 25  2  0  0  0  0
 22 23  1  0  0  0  0
 22 20  1  0  0  0  0
 23 24  1  6  0  0  0
 23 27  1  0  0  0  0
 24 19  1  0  0  0  0
 26 20  1  0  0  0  0
 27 25  1  0  0  0  0
 27 21  1  1  0  0  0
 29 28  1  0  0  0  0
 29 30  2  0  0  0  0
 32 31  1  0  0  0  0
 32 29  1  0  0  0  0
M  END
>  <MODEL>
6

>  <REMARK>
 VINA RESULT:      -6.2      2.721      8.199
  Name = 
  14 active torsions:
  status: ('A' for Active; 'I' for Inactive)
    1  A    between atoms: C_1  and  C_4
    2  A    between atoms: C_1  and  O_5
    3  A    between atoms: C_2  and  C_14
    4  A    between atoms: C_3  and  C_20
    5  A    between atoms: C_4  and  C_24
    6  A    between atoms: O_5  and  C_14
    7  A    between atoms: C_13  and  C_29
    8  A    between atoms: C_13  and  C_30
    9  A    between atoms: C_14  and  C_30
   10  A    between atoms: C_15  and  C_20
   11  A    between atoms: C_15  and  C_26
   12  A    between atoms: C_16  and  C_20
   13  A    between atoms: C_16  and  C_24
   14  A    between atoms: C_19  and  C_26
                            x       y       z     vdW  Elec       q    Type
                         _______ _______ _______ _____ _____    ______ ____

>  <TORSDO>
F 14

$$$$
=
 OpenBabel11062408353D

 32 34  0  0  1  0  0  0  0  0999 V2000
  161.2120  207.6760  149.4050 O   0  0  0  0  0  0  0  0  0  0  0  0
  162.2050  208.3270  150.1410 C   0  0  0  0  0  2  0  0  0  0  0  0
  161.6150  209.4770  150.9480 C   0  0  2  0  0  3  0  0  0  0  0  0
  162.1980  210.6940  150.5870 O   0  0  0  0  0  1  0  0  0  0  0  0
  161.6780  209.2390  152.4630 C   0  0  2  0  0  3  0  0  0  0  0  0
  160.5390  208.5600  152.8980 O   0  0  0  0  0  1  0  0  0  0  0  0
  161.9360  210.4960  153.3060 C   0  0  0  0  0  2  0  0  0  0  0  0
  161.3810  210.4060  154.7250 C   0  0  2  0  0  3  0  0  0  0  0  0
  160.4370  211.5760  154.9740 C   0  0  1  0  0  3  0  0  0  0  0  0
  159.5160  211.7680  153.7870 C   0  0  0  0  0  2  0  0  0  0  0  0
  159.0080  211.0690  155.0290 C   0  0  2  0  0  3  0  0  0  0  0  0
  158.2400  211.9600  155.7760 O   0  0  0  0  0  1  0  0  0  0  0  0
  162.5270  210.4490  155.7240 C   0  0  0  0  0  2  0  0  0  0  0  0
  162.3300  209.4030  156.8070 C   0  0  0  0  0  2  0  0  0  0  0  0
  160.4190  208.0050  157.1070 O   0  0  0  0  0  1  0  0  0  0  0  0
  161.5120  208.2420  156.2730 C   0  0  0  0  0  2  0  0  0  0  0  0
  161.3640  206.3180  149.7020 C   0  0  2  0  0  3  0  0  0  0  0  0
  160.8780  205.4560  148.5380 C   0  0  1  0  0  3  0  0  0  0  0  0
  161.5070  205.9030  147.1800 C   0  0  0  0  0  2  0  0  0  0  0  0
  161.0630  201.4000  146.4580 C   0  0  0  0  0  0  0  0  0  0  0  0
  161.0870  203.9570  148.8560 C   0  0  0  0  0  2  0  0  0  0  0  0
  161.4440  202.4600  145.6410 O   0  0  0  0  0  0  0  0  0  0  0  0
  161.5920  203.5610  146.5090 C   0  0  1  0  0  3  0  0  0  0  0  0
  161.2080  204.9350  146.0150 C   0  0  0  0  0  2  0  0  0  0  0  0
  160.6960  201.7530  147.6500 N   0  0  0  0  0  0  0  0  0  0  0  0
  161.1170  199.9790  146.0240 C   0  0  0  0  0  1  0  0  0  0  0  0
  160.6560  203.2030  147.6210 C   0  0  1  0  0  3  0  0  0  0  0  0
  160.5950  205.9670  150.9740 C   0  0  0  0  0  2  0  0  0  0  0  0
  161.4690  205.2850  151.9780 C   0  0  0  0  0  0  0  0  0  0  0  0
  162.7070  205.7290  152.2040 C   0  0  0  0  0  2  0  0  0  0  0  0
  161.2110  202.8210  152.0030 C   0  0  0  0  0  1  0  0  0  0  0  0
  160.9340  204.1170  152.7420 C   0  0  0  0  0  2  0  0  0  0  0  0
  1 17  1  0  0  0  0
  1  2  1  0  0  0  0
  2  3  1  0  0  0  0
  3  4  1  1  0  0  0
  3  5  1  0  0  0  0
  5  6  1  1  0  0  0
  5  7  1  0  0  0  0
  8  7  1  6  0  0  0
  8 13  1  0  0  0  0
  9  8  1  6  0  0  0
  9 11  1  0  0  0  0
 10  9  1  0  0  0  0
 10 11  1  0  0  0  0
 11 12  1  1  0  0  0
 13 14  1  0  0  0  0
 16 14  1  0  0  0  0
 16 15  1  0  0  0  0
 17 28  1  1  0  0  0
 18 21  1  0  0  0  0
 18 17  1  1  0  0  0
 19 18  1  0  0  0  0
 20 25  2  0  0  0  0
 22 20  1  0  0  0  0
 22 23  1  0  0  0  0
 23 24  1  6  0  0  0
 23 27  1  0  0  0  0
 24 19  1  0  0  0  0
 26 20  1  0  0  0  0
 27 25  1  0  0  0  0
 27 21  1  1  0  0  0
 28 29  1  0  0  0  0
 29 30  2  0  0  0  0
 29 32  1  0  0  0  0
 31 32  1  0  0  0  0
M  END
>  <MODEL>
7

>  <REMARK>
 VINA RESULT:      -6.1      3.315      9.301
  Name = 
  14 active torsions:
  status: ('A' for Active; 'I' for Inactive)
    1  A    between atoms: C_1  and  C_4
    2  A    between atoms: C_1  and  O_5
    3  A    between atoms: C_2  and  C_14
    4  A    between atoms: C_3  and  C_20
    5  A    between atoms: C_4  and  C_24
    6  A    between atoms: O_5  and  C_14
    7  A    between atoms: C_13  and  C_29
    8  A    between atoms: C_13  and  C_30
    9  A    between atoms: C_14  and  C_30
   10  A    between atoms: C_15  and  C_20
   11  A    between atoms: C_15  and  C_26
   12  A    between atoms: C_16  and  C_20
   13  A    between atoms: C_16  and  C_24
   14  A    between atoms: C_19  and  C_26
                            x       y       z     vdW  Elec       q    Type
                         _______ _______ _______ _____ _____    ______ ____

>  <TORSDO>
F 14

$$$$
=
 OpenBabel11062408353D

 32 34  0  0  1  0  0  0  0  0999 V2000
  161.8540  210.1250  151.7940 O   0  0  0  0  0  0  0  0  0  0  0  0
  161.5120  208.9080  151.1990 C   0  0  0  0  0  2  0  0  0  0  0  0
  162.1820  208.7630  149.8380 C   0  0  2  0  0  3  0  0  0  0  0  0
  161.5350  209.5430  148.8760 O   0  0  0  0  0  1  0  0  0  0  0  0
  162.3200  207.3020  149.3930 C   0  0  2  0  0  3  0  0  0  0  0  0
  162.7980  207.2330  148.0830 O   0  0  0  0  0  1  0  0  0  0  0  0
  161.0560  206.4480  149.5700 C   0  0  0  0  0  2  0  0  0  0  0  0
  161.3170  204.9460  149.5080 C   0  0  2  0  0  3  0  0  0  0  0  0
  160.7660  204.3910  148.2000 C   0  0  1  0  0  3  0  0  0  0  0  0
  161.7910  204.5400  147.0940 C   0  0  0  0  0  2  0  0  0  0  0  0
  161.5990  203.1990  147.7670 C   0  0  2  0  0  3  0  0  0  0  0  0
  160.8250  202.3790  146.9470 O   0  0  0  0  0  1  0  0  0  0  0  0
  160.6370  204.2610  150.6840 C   0  0  0  0  0  2  0  0  0  0  0  0
  161.5810  204.1760  151.8700 C   0  0  0  0  0  2  0  0  0  0  0  0
  162.3050  206.0050  153.2230 O   0  0  0  0  0  1  0  0  0  0  0  0
  161.2020  205.2060  152.9170 C   0  0  0  0  0  2  0  0  0  0  0  0
  161.0400  210.2220  152.9280 C   0  0  2  0  0  3  0  0  0  0  0  0
  160.3050  211.5610  152.9490 C   0  0  1  0  0  3  0  0  0  0  0  0
  160.3600  212.2770  151.5620 C   0  0  0  0  0  2  0  0  0  0  0  0
  156.2790  213.7000  153.0810 C   0  0  0  0  0  0  0  0  0  0  0  0
  158.8710  211.3780  153.4970 C   0  0  0  0  0  2  0  0  0  0  0  0
  157.0440  214.0280  151.9660 O   0  0  0  0  0  0  0  0  0  0  0  0
  158.0950  213.0870  151.9500 C   0  0  1  0  0  3  0  0  0  0  0  0
  159.4600  213.5280  151.4800 C   0  0  0  0  0  2  0  0  0  0  0  0
  156.8540  212.8730  153.8960 N   0  0  0  0  0  0  0  0  0  0  0  0
  154.9000  214.2120  153.2990 C   0  0  0  0  0  1  0  0  0  0  0  0
  158.2100  212.7310  153.3990 C   0  0  1  0  0  3  0  0  0  0  0  0
  161.8790  210.0620  154.1940 C   0  0  0  0  0  2  0  0  0  0  0  0
  161.1790  209.2250  155.2180 C   0  0  0  0  0  0  0  0  0  0  0  0
  161.4010  209.4250  156.5180 C   0  0  0  0  0  2  0  0  0  0  0  0
  159.7370  207.3450  155.9460 C   0  0  0  0  0  1  0  0  0  0  0  0
  160.2120  208.1770  154.7690 C   0  0  0  0  0  2  0  0  0  0  0  0
  1 17  1  0  0  0  0
  2  1  1  0  0  0  0
  3  4  1  6  0  0  0
  3  2  1  0  0  0  0
  5  6  1  6  0  0  0
  5  7  1  0  0  0  0
  5  3  1  0  0  0  0
  8  7  1  1  0  0  0
  8 13  1  0  0  0  0
  9  8  1  1  0  0  0
 10 11  1  0  0  0  0
 10  9  1  0  0  0  0
 11 12  1  6  0  0  0
 11  9  1  0  0  0  0
 13 14  1  0  0  0  0
 14 16  1  0  0  0  0
 16 15  1  0  0  0  0
 17 28  1  1  0  0  0
 18 17  1  6  0  0  0
 18 21  1  0  0  0  0
 19 18  1  0  0  0  0
 20 26  1  0  0  0  0
 20 25  2  0  0  0  0
 22 20  1  0  0  0  0
 23 24  1  1  0  0  0
 23 22  1  0  0  0  0
 23 27  1  0  0  0  0
 24 19  1  0  0  0  0
 27 21  1  6  0  0  0
 27 25  1  0  0  0  0
 28 29  1  0  0  0  0
 29 30  2  0  0  0  0
 32 29  1  0  0  0  0
 32 31  1  0  0  0  0
M  END
>  <MODEL>
8

>  <REMARK>
 VINA RESULT:      -5.9      1.313      1.817
  Name = 
  14 active torsions:
  status: ('A' for Active; 'I' for Inactive)
    1  A    between atoms: C_1  and  C_4
    2  A    between atoms: C_1  and  O_5
    3  A    between atoms: C_2  and  C_14
    4  A    between atoms: C_3  and  C_20
    5  A    between atoms: C_4  and  C_24
    6  A    between atoms: O_5  and  C_14
    7  A    between atoms: C_13  and  C_29
    8  A    between atoms: C_13  and  C_30
    9  A    between atoms: C_14  and  C_30
   10  A    between atoms: C_15  and  C_20
   11  A    between atoms: C_15  and  C_26
   12  A    between atoms: C_16  and  C_20
   13  A    between atoms: C_16  and  C_24
   14  A    between atoms: C_19  and  C_26
                            x       y       z     vdW  Elec       q    Type
                         _______ _______ _______ _____ _____    ______ ____

>  <TORSDO>
F 14

$$$$
=
 OpenBabel11062408353D

 32 34  0  0  1  0  0  0  0  0999 V2000
  160.2350  205.0910  150.8040 O   0  0  0  0  0  0  0  0  0  0  0  0
  160.9790  206.1980  151.2200 C   0  0  0  0  0  2  0  0  0  0  0  0
  161.5930  205.9530  152.5930 C   0  0  2  0  0  3  0  0  0  0  0  0
  161.1980  204.7140  153.1050 O   0  0  0  0  0  1  0  0  0  0  0  0
  161.3220  207.0950  153.5810 C   0  0  2  0  0  3  0  0  0  0  0  0
  160.4630  206.6680  154.5950 O   0  0  0  0  0  1  0  0  0  0  0  0
  160.8260  208.4000  152.9420 C   0  0  0  0  0  2  0  0  0  0  0  0
  161.5770  209.6400  153.4210 C   0  0  2  0  0  3  0  0  0  0  0  0
  160.5820  210.6460  153.9870 C   0  0  1  0  0  3  0  0  0  0  0  0
  159.8230  210.0360  155.1480 C   0  0  0  0  0  2  0  0  0  0  0  0
  160.9680  210.9890  155.4140 C   0  0  2  0  0  3  0  0  0  0  0  0
  160.4560  212.2460  155.7320 O   0  0  0  0  0  1  0  0  0  0  0  0
  162.3290  210.2630  152.2540 C   0  0  0  0  0  2  0  0  0  0  0  0
  162.1230  209.4450  150.9900 C   0  0  0  0  0  2  0  0  0  0  0  0
  161.9360  209.6080  148.6170 O   0  0  0  0  0  1  0  0  0  0  0  0
  162.2630  210.3290  149.7660 C   0  0  0  0  0  2  0  0  0  0  0  0
  160.4810  204.9770  149.4320 C   0  0  2  0  0  3  0  0  0  0  0  0
  161.2010  203.6650  149.1230 C   0  0  1  0  0  3  0  0  0  0  0  0
  161.0330  202.6230  150.2730 C   0  0  0  0  0  2  0  0  0  0  0  0
  161.2580  199.8370  146.6430 C   0  0  0  0  0  0  0  0  0  0  0  0
  160.7750  203.1330  147.7350 C   0  0  0  0  0  2  0  0  0  0  0  0
  161.2260  199.6080  148.0150 O   0  0  0  0  0  0  0  0  0  0  0  0
  160.9340  200.8620  148.5910 C   0  0  1  0  0  3  0  0  0  0  0  0
  161.5660  201.2190  149.9150 C   0  0  0  0  0  2  0  0  0  0  0  0
  161.2970  201.0900  146.3130 N   0  0  0  0  0  0  0  0  0  0  0  0
  161.2030  198.7460  145.6350 C   0  0  0  0  0  1  0  0  0  0  0  0
  161.4740  201.8060  147.5640 C   0  0  1  0  0  3  0  0  0  0  0  0
  161.3120  206.1620  148.9440 C   0  0  0  0  0  2  0  0  0  0  0  0
  161.4400  206.1710  147.4540 C   0  0  0  0  0  0  0  0  0  0  0  0
  160.4230  206.5800  146.6930 C   0  0  0  0  0  2  0  0  0  0  0  0
  162.5310  205.4360  145.3530 C   0  0  0  0  0  1  0  0  0  0  0  0
  162.7270  205.7390  146.8270 C   0  0  0  0  0  2  0  0  0  0  0  0
  1  2  1  0  0  0  0
  2  3  1  0  0  0  0
  3  4  1  1  0  0  0
  3  5  1  0  0  0  0
  5  6  1  1  0  0  0
  7  8  1  0  0  0  0
  7  5  1  0  0  0  0
  8 13  1  6  0  0  0
  9  8  1  1  0  0  0
  9 10  1  0  0  0  0
  9 11  1  0  0  0  0
 10 11  1  0  0  0  0
 11 12  1  6  0  0  0
 14 13  1  0  0  0  0
 15 16  1  0  0  0  0
 16 14  1  0  0  0  0
 17 28  1  1  0  0  0
 17  1  1  0  0  0  0
 18 17  1  1  0  0  0
 18 19  1  0  0  0  0
 20 22  1  0  0  0  0
 21 18  1  0  0  0  0
 22 23  1  0  0  0  0
 23 24  1  1  0  0  0
 24 19  1  0  0  0  0
 25 20  2  0  0  0  0
 25 27  1  0  0  0  0
 26 20  1  0  0  0  0
 27 21  1  6  0  0  0
 27 23  1  0  0  0  0
 29 28  1  0  0  0  0
 30 29  2  0  0  0  0
 31 32  1  0  0  0  0
 32 29  1  0  0  0  0
M  END
>  <MODEL>
9

>  <REMARK>
 VINA RESULT:      -5.7      3.901     10.127
  Name = 
  14 active torsions:
  status: ('A' for Active; 'I' for Inactive)
    1  A    between atoms: C_1  and  C_4
    2  A    between atoms: C_1  and  O_5
    3  A    between atoms: C_2  and  C_14
    4  A    between atoms: C_3  and  C_20
    5  A    between atoms: C_4  and  C_24
    6  A    between atoms: O_5  and  C_14
    7  A    between atoms: C_13  and  C_29
    8  A    between atoms: C_13  and  C_30
    9  A    between atoms: C_14  and  C_30
   10  A    between atoms: C_15  and  C_20
   11  A    between atoms: C_15  and  C_26
   12  A    between atoms: C_16  and  C_20
   13  A    between atoms: C_16  and  C_24
   14  A    between atoms: C_19  and  C_26
                            x       y       z     vdW  Elec       q    Type
                         _______ _______ _______ _____ _____    ______ ____

>  <TORSDO>
F 14

$$$$
