=
 OpenBabel11062409193D

 37 42  0  0  1  0  0  0  0  0999 V2000
  160.5360  211.6820  152.8590 C   0  0  1  0  0  3  0  0  0  0  0  0
  161.3840  209.2660  157.2610 C   0  0  0  0  0  2  0  0  0  0  0  0
  160.3430  207.3070  153.3650 C   0  0  2  0  0  3  0  0  0  0  0  0
  161.1970  208.6760  150.5170 C   0  0  2  0  0  3  0  0  0  0  0  0
  161.6180  207.2760  155.6140 C   0  0  1  0  0  3  0  0  0  0  0  0
  161.4420  208.0820  152.5940 C   0  0  1  0  0  3  0  0  0  0  0  0
  159.2090  212.3070  154.9680 S   0  0  0  0  0  0  0  0  0  0  0  0
  160.3170  207.6800  154.8570 C   0  0  1  0  0  3  0  0  0  0  0  0
  161.8600  207.5060  151.2260 C   0  0  1  0  0  3  0  0  0  0  0  0
  162.6240  208.2380  155.3940 O   0  0  0  0  0  0  0  0  0  0  0  0
  159.6330  209.0320  155.1030 C   0  0  0  0  0  2  0  0  0  0  0  0
  162.5540  211.0530  156.1470 O   0  0  0  0  0  1  0  0  0  0  0  0
  162.5330  204.7900  152.4910 C   0  0  0  0  0  1  0  0  0  0  0  0
  160.0700  211.3760  154.2760 C   0  0  0  0  0  0  0  0  0  0  0  0
  159.7470  205.0720  153.9060 O   0  0  0  0  0  0  0  0  0  0  0  0
  160.6300  210.1760  155.0050 C   0  0  1  0  0  3  0  0  0  0  0  0
  162.2290  209.4600  149.7170 C   0  0  0  0  0  1  0  0  0  0  0  0
  160.3850  205.8050  153.1650 C   0  0  0  0  0  0  0  0  0  0  0  0
  160.8120  209.2700  151.8820 C   0  0  1  0  0  3  0  0  0  0  0  0
  162.2130  208.0810  156.7330 C   0  0  1  0  0  3  0  0  0  0  0  0
  161.1630  206.1930  150.8580 C   0  0  2  0  0  3  0  0  0  0  0  0
  161.2910  210.4960  156.3490 C   0  0  1  0  0  3  0  0  0  0  0  0
  161.4260  210.6030  152.2780 C   0  0  0  0  0  0  0  0  0  0  0  0
  162.7490  210.7550  152.3990 C   0  0  0  0  0  2  0  0  0  0  0  0
  161.1420  205.1990  152.0260 C   0  0  1  0  0  3  0  0  0  0  0  0
  161.3050  206.5490  148.3420 C   0  0  0  0  0  2  0  0  0  0  0  0
  161.6490  205.6170  149.5220 C   0  0  2  0  0  3  0  0  0  0  0  0
  161.2380  204.1850  149.2890 C   0  0  0  0  0  3  0  0  0  0  0  0
  160.9980  202.3670  147.8430 F   0  0  0  0  0  0  0  0  0  0  0  0
  161.9230  204.4890  146.9580 C   0  0  0  0  0  2  0  0  0  0  0  0
  161.3940  203.6440  148.0780 C   0  0  0  0  0  0  0  0  0  0  0  0
  161.2130  205.8440  146.9740 C   0  0  0  0  0  2  0  0  0  0  0  0
  158.0360  211.8670  152.5230 C   0  0  0  0  0  1  0  0  0  0  0  0
  159.4020  212.1240  151.9090 C   0  0  1  0  0  3  0  0  0  0  0  0
  159.5420  213.5710  151.4410 C   0  0  0  0  0  2  0  0  0  0  0  0
  159.5840  213.6590  149.9240 C   0  0  0  0  0  2  0  0  0  0  0  0
  160.8760  213.0700  149.3900 C   0  0  0  0  0  1  0  0  0  0  0  0
  1 34  1  6  0  0  0
  1 14  1  0  0  0  0
  3 18  1  1  0  0  0
  3  8  1  0  0  0  0
  4 17  1  1  0  0  0
  4  9  1  0  0  0  0
  4 19  1  0  0  0  0
  5 10  1  6  0  0  0
  5 20  1  0  0  0  0
  6  3  1  0  0  0  0
  8 11  1  0  0  0  0
  8  5  1  0  0  0  0
  9  6  1  0  0  0  0
 10 20  1  0  0  0  0
 12 22  1  0  0  0  0
 14  7  2  0  0  0  0
 14 16  1  0  0  0  0
 16 11  1  0  0  0  0
 16 22  1  0  0  0  0
 18 15  2  0  0  0  0
 19 23  1  0  0  0  0
 19  6  1  0  0  0  0
 20  2  1  0  0  0  0
 21  9  1  0  0  0  0
 21 25  1  0  0  0  0
 22  2  1  0  0  0  0
 23 24  2  0  0  0  0
 23  1  1  0  0  0  0
 25 13  1  0  0  0  0
 25 18  1  0  0  0  0
 26 27  1  0  0  0  0
 27 21  1  0  0  0  0
 28 27  1  0  0  0  0
 29 31  1  0  0  0  0
 30 32  1  0  0  0  0
 30 31  1  0  0  0  0
 31 28  2  0  0  0  0
 32 26  1  0  0  0  0
 34 33  1  0  0  0  0
 35 34  1  0  0  0  0
 36 35  1  0  0  0  0
 37 36  1  0  0  0  0
M  END
>  <MODEL>
1

>  <REMARK>
 VINA RESULT:      -2.7      0.000      0.000
  Name = 
  4 active torsions:
  status: ('A' for Active; 'I' for Inactive)
    1  A    between atoms: C_1  and  C_17
    2  A    between atoms: C_6  and  C_31
    3  A    between atoms: C_11  and  C_26
    4  A    between atoms: C_17  and  C_26
                            x       y       z     vdW  Elec       q    Type
                         _______ _______ _______ _____ _____    ______ ____

>  <TORSDO>
F 4

$$$$
=
 OpenBabel11062409193D

 37 42  0  0  1  0  0  0  0  0999 V2000
  160.7780  211.7500  153.1410 C   0  0  1  0  0  3  0  0  0  0  0  0
  161.4030  208.8220  157.2600 C   0  0  0  0  0  2  0  0  0  0  0  0
  160.3400  207.3630  153.1570 C   0  0  2  0  0  3  0  0  0  0  0  0
  161.3250  208.9870  150.4910 C   0  0  2  0  0  3  0  0  0  0  0  0
  161.5630  207.0150  155.4080 C   0  0  1  0  0  3  0  0  0  0  0  0
  161.4940  208.1560  152.4930 C   0  0  1  0  0  3  0  0  0  0  0  0
  159.4430  212.2130  155.2860 S   0  0  0  0  0  0  0  0  0  0  0  0
  160.3020  207.5720  154.6810 C   0  0  1  0  0  3  0  0  0  0  0  0
  161.9090  207.7110  151.0760 C   0  0  1  0  0  3  0  0  0  0  0  0
  162.6250  207.9380  155.3100 O   0  0  0  0  0  0  0  0  0  0  0  0
  159.6870  208.9250  155.0640 C   0  0  0  0  0  2  0  0  0  0  0  0
  162.6900  210.6530  156.3690 O   0  0  0  0  0  1  0  0  0  0  0  0
  162.4090  204.8390  152.0420 C   0  0  0  0  0  1  0  0  0  0  0  0
  160.2670  211.3170  154.5090 C   0  0  0  0  0  0  0  0  0  0  0  0
  159.6130  205.1190  153.4380 O   0  0  0  0  0  0  0  0  0  0  0  0
  160.7460  210.0150  155.1080 C   0  0  1  0  0  3  0  0  0  0  0  0
  162.4140  209.7960  149.7980 C   0  0  0  0  0  1  0  0  0  0  0  0
  160.3050  205.8920  152.7930 C   0  0  0  0  0  0  0  0  0  0  0  0
  160.9440  209.4480  151.9070 C   0  0  1  0  0  3  0  0  0  0  0  0
  162.1770  207.6590  156.6170 C   0  0  1  0  0  3  0  0  0  0  0  0
  161.1510  206.4870  150.5540 C   0  0  2  0  0  3  0  0  0  0  0  0
  161.3950  210.1480  156.4890 C   0  0  1  0  0  3  0  0  0  0  0  0
  161.6200  210.6930  152.4580 C   0  0  0  0  0  0  0  0  0  0  0  0
  162.9470  210.7570  152.6140 C   0  0  0  0  0  2  0  0  0  0  0  0
  161.0520  205.3740  151.6040 C   0  0  1  0  0  3  0  0  0  0  0  0
  161.0830  206.9430  148.0510 C   0  0  0  0  0  2  0  0  0  0  0  0
  161.6340  206.0350  149.1700 C   0  0  2  0  0  3  0  0  0  0  0  0
  161.4250  204.5660  148.9010 C   0  0  0  0  0  3  0  0  0  0  0  0
  161.3680  202.7810  147.3960 F   0  0  0  0  0  0  0  0  0  0  0  0
  161.9120  205.0460  146.5500 C   0  0  0  0  0  2  0  0  0  0  0  0
  161.5840  204.0950  147.6610 C   0  0  0  0  0  0  0  0  0  0  0  0
  161.0110  206.2770  146.6620 C   0  0  0  0  0  2  0  0  0  0  0  0
  160.1660  212.4490  150.7880 C   0  0  0  0  0  1  0  0  0  0  0  0
  159.6900  212.3560  152.2290 C   0  0  1  0  0  3  0  0  0  0  0  0
  158.3500  211.6290  152.3300 C   0  0  0  0  0  2  0  0  0  0  0  0
  157.1860  212.6040  152.2470 C   0  0  0  0  0  2  0  0  0  0  0  0
  157.6220  213.9940  152.6700 C   0  0  0  0  0  1  0  0  0  0  0  0
  1 34  1  6  0  0  0
  1 14  1  0  0  0  0
  3 18  1  1  0  0  0
  3  8  1  0  0  0  0
  4 17  1  1  0  0  0
  4  9  1  0  0  0  0
  4 19  1  0  0  0  0
  5 10  1  6  0  0  0
  5 20  1  0  0  0  0
  6  3  1  0  0  0  0
  8 11  1  0  0  0  0
  8  5  1  0  0  0  0
  9  6  1  0  0  0  0
 10 20  1  0  0  0  0
 11 16  1  0  0  0  0
 12 22  1  0  0  0  0
 14 16  1  0  0  0  0
 14  7  2  0  0  0  0
 16 22  1  0  0  0  0
 18 15  2  0  0  0  0
 19 23  1  0  0  0  0
 19  6  1  0  0  0  0
 20  2  1  0  0  0  0
 21  9  1  0  0  0  0
 21 25  1  0  0  0  0
 22  2  1  0  0  0  0
 23 24  2  0  0  0  0
 23  1  1  0  0  0  0
 25 13  1  0  0  0  0
 25 18  1  0  0  0  0
 26 27  1  0  0  0  0
 27 21  1  0  0  0  0
 28 27  1  0  0  0  0
 29 31  1  0  0  0  0
 30 32  1  0  0  0  0
 30 31  1  0  0  0  0
 31 28  2  0  0  0  0
 32 26  1  0  0  0  0
 33 34  1  0  0  0  0
 34 35  1  0  0  0  0
 36 35  1  0  0  0  0
 36 37  1  0  0  0  0
M  END
>  <MODEL>
2

>  <REMARK>
 VINA RESULT:      -0.8      0.619      1.212
  Name = 
  4 active torsions:
  status: ('A' for Active; 'I' for Inactive)
    1  A    between atoms: C_1  and  C_17
    2  A    between atoms: C_6  and  C_31
    3  A    between atoms: C_11  and  C_26
    4  A    between atoms: C_17  and  C_26
                            x       y       z     vdW  Elec       q    Type
                         _______ _______ _______ _____ _____    ______ ____

>  <TORSDO>
F 4

$$$$
=
 OpenBabel11062409193D

 37 42  0  0  1  0  0  0  0  0999 V2000
  160.0330  209.1000  156.3140 C   0  0  1  0  0  3  0  0  0  0  0  0
  158.7470  213.1910  153.5690 C   0  0  0  0  0  2  0  0  0  0  0  0
  161.5160  209.9240  152.2450 C   0  0  2  0  0  3  0  0  0  0  0  0
  161.1620  206.8680  153.3640 C   0  0  2  0  0  3  0  0  0  0  0  0
  159.7050  211.6840  151.6890 C   0  0  1  0  0  3  0  0  0  0  0  0
  160.5110  208.8100  152.6340 C   0  0  1  0  0  3  0  0  0  0  0  0
  160.3660  211.4640  157.2610 S   0  0  0  0  0  0  0  0  0  0  0  0
  160.9600  211.3280  152.5420 C   0  0  1  0  0  3  0  0  0  0  0  0
  160.7470  207.4200  152.0100 C   0  0  1  0  0  3  0  0  0  0  0  0
  158.5530  211.1090  152.2630 O   0  0  0  0  0  0  0  0  0  0  0  0
  161.0430  211.6790  154.0330 C   0  0  0  0  0  2  0  0  0  0  0  0
  157.4440  211.6640  154.9000 O   0  0  0  0  0  1  0  0  0  0  0  0
  160.6710  208.5990  149.1750 C   0  0  0  0  0  1  0  0  0  0  0  0
  160.1200  210.6080  156.1240 C   0  0  0  0  0  0  0  0  0  0  0  0
  162.6320  210.7630  150.3220 O   0  0  0  0  0  0  0  0  0  0  0  0
  159.8000  211.2110  154.7760 C   0  0  1  0  0  3  0  0  0  0  0  0
  160.2230  205.7460  153.7860 C   0  0  0  0  0  1  0  0  0  0  0  0
  162.0420  209.8190  150.8270 C   0  0  0  0  0  0  0  0  0  0  0  0
  160.8920  208.2440  153.9940 C   0  0  1  0  0  3  0  0  0  0  0  0
  158.5650  212.5180  152.1980 C   0  0  1  0  0  3  0  0  0  0  0  0
  161.9200  207.3640  151.0270 C   0  0  2  0  0  3  0  0  0  0  0  0
  158.6950  212.2720  154.7950 C   0  0  1  0  0  3  0  0  0  0  0  0
  159.7780  208.3500  155.0230 C   0  0  0  0  0  0  0  0  0  0  0  0
  158.5100  208.0580  154.7130 C   0  0  0  0  0  2  0  0  0  0  0  0
  161.9170  208.5470  150.0500 C   0  0  1  0  0  3  0  0  0  0  0  0
  161.9720  206.0610  148.8410 C   0  0  0  0  0  2  0  0  0  0  0  0
  162.0850  205.9840  150.3780 C   0  0  2  0  0  3  0  0  0  0  0  0
  161.2130  204.9150  150.9870 C   0  0  0  0  0  3  0  0  0  0  0  0
  160.2820  202.7750  150.8870 F   0  0  0  0  0  0  0  0  0  0  0  0
  161.7760  203.5200  149.0540 C   0  0  0  0  0  2  0  0  0  0  0  0
  161.0900  203.7370  150.3700 C   0  0  0  0  0  0  0  0  0  0  0  0
  161.5490  204.7420  148.1630 C   0  0  0  0  0  2  0  0  0  0  0  0
  161.0700  206.9950  157.2610 C   0  0  0  0  0  1  0  0  0  0  0  0
  161.1860  208.5070  157.1530 C   0  0  1  0  0  3  0  0  0  0  0  0
  162.5670  208.9280  156.6570 C   0  0  0  0  0  2  0  0  0  0  0  0
  162.9890  210.2590  157.2600 C   0  0  0  0  0  2  0  0  0  0  0  0
  163.8510  211.0370  156.2850 C   0  0  0  0  0  1  0  0  0  0  0  0
  1 34  1  6  0  0  0
  2 22  1  0  0  0  0
  3 18  1  6  0  0  0
  3  8  1  0  0  0  0
  3  6  1  0  0  0  0
  4 17  1  1  0  0  0
  4 19  1  0  0  0  0
  5 20  1  0  0  0  0
  5 10  1  1  0  0  0
  5  8  1  0  0  0  0
  6 19  1  0  0  0  0
  8 11  1  0  0  0  0
  9  6  1  0  0  0  0
  9  4  1  0  0  0  0
 11 16  1  0  0  0  0
 13 25  1  0  0  0  0
 14  1  1  0  0  0  0
 14  7  2  0  0  0  0
 15 18  2  0  0  0  0
 16 22  1  0  0  0  0
 16 14  1  0  0  0  0
 19 23  1  0  0  0  0
 20 10  1  0  0  0  0
 20  2  1  0  0  0  0
 21  9  1  0  0  0  0
 22 12  1  0  0  0  0
 23  1  1  0  0  0  0
 24 23  2  0  0  0  0
 25 18  1  0  0  0  0
 25 21  1  0  0  0  0
 26 27  1  0  0  0  0
 27 28  1  0  0  0  0
 27 21  1  0  0  0  0
 30 31  1  0  0  0  0
 31 29  1  0  0  0  0
 31 28  2  0  0  0  0
 32 26  1  0  0  0  0
 32 30  1  0  0  0  0
 34 33  1  0  0  0  0
 35 34  1  0  0  0  0
 35 36  1  0  0  0  0
 37 36  1  0  0  0  0
M  END
>  <MODEL>
3

>  <REMARK>
 VINA RESULT:      -0.4      2.139      4.714
  Name = 
  4 active torsions:
  status: ('A' for Active; 'I' for Inactive)
    1  A    between atoms: C_1  and  C_17
    2  A    between atoms: C_6  and  C_31
    3  A    between atoms: C_11  and  C_26
    4  A    between atoms: C_17  and  C_26
                            x       y       z     vdW  Elec       q    Type
                         _______ _______ _______ _____ _____    ______ ____

>  <TORSDO>
F 4

$$$$
