=
 OpenBabel11052422243D

 31 35  0  0  1  0  0  0  0  0999 V2000
  161.9480  210.4440  149.5910 C   0  0  0  0  0  0  0  0  0  0  0  0
  161.0980  208.3540  152.6190 C   0  0  0  0  0  0  0  0  0  0  0  0
  160.7800  209.2710  153.6860 C   0  0  0  0  0  0  0  0  0  0  0  0
  160.6680  211.7420  154.5050 C   0  0  0  0  0  2  0  0  0  0  0  0
  161.4530  208.7510  151.2880 C   0  0  0  0  0  0  0  0  0  0  0  0
  162.1720  209.4490  148.6420 C   0  0  0  0  0  3  0  0  0  0  0  0
  160.5690  210.7430  153.3630 C   0  0  0  0  0  2  0  0  0  0  0  0
  161.3190  206.0190  151.8770 C   0  0  0  0  0  0  0  0  0  0  0  0
  162.0820  211.8750  149.2150 C   0  0  0  0  0  1  0  0  0  0  0  0
  160.5120  207.3740  155.2040 C   0  0  0  0  0  3  0  0  0  0  0  0
  159.4850  211.6450  155.3210 N   0  0  0  0  0  0  0  0  0  0  0  0
  161.6230  206.4440  150.6270 N   0  0  0  0  0  0  0  0  0  0  0  0
  161.0610  206.9550  152.8920 C   0  0  0  0  0  0  0  0  0  0  0  0
  161.2590  204.6140  152.1540 N   0  0  0  0  0  2  0  0  0  0  0  0
  161.5970  210.0950  150.8960 C   0  0  0  0  0  3  0  0  0  0  0  0
  159.3010  210.6440  156.1050 C   0  0  0  0  0  3  0  0  0  0  0  0
  161.7030  207.7550  150.3080 C   0  0  0  0  0  0  0  0  0  0  0  0
  162.0510  208.1090  149.0010 C   0  0  0  0  0  3  0  0  0  0  0  0
  160.7690  206.4900  154.1730 C   0  0  0  0  0  3  0  0  0  0  0  0
  160.5050  208.7460  154.9870 C   0  0  0  0  0  0  0  0  0  0  0  0
  160.3330  209.5670  156.2340 C   0  0  0  0  0  2  0  0  0  0  0  0
  161.8720  202.2790  151.8340 C   0  0  0  0  0  1  0  0  0  0  0  0
  161.5490  203.5980  151.1530 C   0  0  1  0  0  3  0  0  0  0  0  0
  160.3900  203.4290  150.2900 N   0  0  0  0  0  2  0  0  0  0  0  0
  160.7010  203.9700  149.0580 O   0  0  0  0  0  0  0  0  0  0  0  0
  161.0920  201.9350  148.0430 O   0  0  0  0  0  0  0  0  0  0  0  0
  161.2350  203.1870  148.0310 C   0  0  0  0  0  0  0  0  0  0  0  0
  161.9510  203.7990  146.9600 N   0  0  0  0  0  2  0  0  0  0  0  0
  162.3500  205.6490  145.4550 C   0  0  0  0  0  2  0  0  0  0  0  0
  161.0030  205.8540  146.1110 C   0  0  0  0  0  2  0  0  0  0  0  0
  162.1410  205.2380  146.8990 C   0  0  0  0  0  3  0  0  0  0  0  0
  1 15  1  0  0  0  0
  2 13  2  0  0  0  0
  2  3  1  0  0  0  0
  3 20  2  0  0  0  0
  4 11  1  0  0  0  0
  5  2  1  0  0  0  0
  6 18  1  0  0  0  0
  6  1  2  0  0  0  0
  7  3  1  0  0  0  0
  7  4  1  0  0  0  0
  8 14  1  0  0  0  0
  8 13  1  0  0  0  0
  9  1  1  0  0  0  0
 11 16  2  0  0  0  0
 12  8  2  0  0  0  0
 13 19  1  0  0  0  0
 15  5  2  0  0  0  0
 16 21  1  0  0  0  0
 17 12  1  0  0  0  0
 17  5  1  0  0  0  0
 18 17  2  0  0  0  0
 19 10  2  0  0  0  0
 20 10  1  0  0  0  0
 20 21  1  0  0  0  0
 23 22  1  1  0  0  0
 23 14  1  0  0  0  0
 24 23  1  0  0  0  0
 25 24  1  0  0  0  0
 27 26  2  0  0  0  0
 27 25  1  0  0  0  0
 28 27  1  0  0  0  0
 29 30  1  0  0  0  0
 29 31  1  0  0  0  0
 30 31  1  0  0  0  0
 31 28  1  0  0  0  0
M  END
>  <MODEL>
1

>  <REMARK>
 VINA RESULT:      -9.4      0.000      0.000
  Name = 
  5 active torsions:
  status: ('A' for Active; 'I' for Inactive)
    1  A    between atoms: O_3  and  C_19
    2  A    between atoms: O_3  and  N_22
    3  A    between atoms: C_9  and  N_22
    4  A    between atoms: C_9  and  N_23
    5  A    between atoms: C_11  and  N_24
                            x       y       z     vdW  Elec       q    Type
                         _______ _______ _______ _____ _____    ______ ____

>  <TORSDO>
F 5

$$$$
=
 OpenBabel11052422243D

 31 35  0  0  1  0  0  0  0  0999 V2000
  160.8930  207.6600  154.1170 C   0  0  0  0  0  0  0  0  0  0  0  0
  161.4580  207.2510  150.4050 C   0  0  0  0  0  0  0  0  0  0  0  0
  161.3590  205.8400  150.1200 C   0  0  0  0  0  0  0  0  0  0  0  0
  161.1060  203.4180  151.0460 C   0  0  0  0  0  2  0  0  0  0  0  0
  161.2810  207.8280  151.7060 C   0  0  0  0  0  0  0  0  0  0  0  0
  160.9560  209.0460  154.2390 C   0  0  0  0  0  3  0  0  0  0  0  0
  160.8070  204.9030  151.1830 C   0  0  0  0  0  2  0  0  0  0  0  0
  161.8140  209.5290  149.5490 C   0  0  0  0  0  0  0  0  0  0  0  0
  160.6510  206.8170  155.3160 C   0  0  0  0  0  1  0  0  0  0  0  0
  161.9330  206.2980  147.7870 C   0  0  0  0  0  3  0  0  0  0  0  0
  160.2930  202.8690  149.9910 N   0  0  0  0  0  0  0  0  0  0  0  0
  161.6130  210.0290  150.7920 N   0  0  0  0  0  0  0  0  0  0  0  0
  161.7510  208.1430  149.3330 C   0  0  0  0  0  0  0  0  0  0  0  0
  162.0890  210.4210  148.4610 N   0  0  0  0  0  2  0  0  0  0  0  0
  161.0570  207.0640  152.8660 C   0  0  0  0  0  3  0  0  0  0  0  0
  160.5510  203.1170  148.7570 C   0  0  0  0  0  3  0  0  0  0  0  0
  161.3590  209.2370  151.8580 C   0  0  0  0  0  0  0  0  0  0  0  0
  161.1910  209.8310  153.1120 C   0  0  0  0  0  3  0  0  0  0  0  0
  161.9810  207.6550  148.0480 C   0  0  0  0  0  3  0  0  0  0  0  0
  161.6220  205.3870  148.7890 C   0  0  0  0  0  0  0  0  0  0  0  0
  161.7340  203.9490  148.3710 C   0  0  0  0  0  2  0  0  0  0  0  0
  163.4180  212.3780  147.8840 C   0  0  0  0  0  1  0  0  0  0  0  0
  162.2000  211.8630  148.6300 C   0  0  1  0  0  3  0  0  0  0  0  0
  161.0020  212.5020  148.1070 N   0  0  0  0  0  2  0  0  0  0  0  0
  160.7580  211.9760  146.8540 O   0  0  0  0  0  0  0  0  0  0  0  0
  158.7680  212.8000  146.0290 O   0  0  0  0  0  0  0  0  0  0  0  0
  160.0150  212.6770  145.9000 C   0  0  0  0  0  0  0  0  0  0  0  0
  160.6620  213.2570  144.7700 N   0  0  0  0  0  2  0  0  0  0  0  0
  162.3730  212.6560  143.1700 C   0  0  0  0  0  2  0  0  0  0  0  0
  162.5310  214.1220  143.5040 C   0  0  0  0  0  2  0  0  0  0  0  0
  162.0980  213.1460  144.5780 C   0  0  0  0  0  3  0  0  0  0  0  0
  1  6  1  0  0  0  0
  1  9  1  0  0  0  0
  2  5  1  0  0  0  0
  3  2  1  0  0  0  0
  3  7  1  0  0  0  0
  4  7  1  0  0  0  0
  5 17  2  0  0  0  0
  5 15  1  0  0  0  0
  8 12  2  0  0  0  0
 10 19  2  0  0  0  0
 10 20  1  0  0  0  0
 11  4  1  0  0  0  0
 12 17  1  0  0  0  0
 13  8  1  0  0  0  0
 13  2  2  0  0  0  0
 14 23  1  0  0  0  0
 14  8  1  0  0  0  0
 15  1  2  0  0  0  0
 16 11  2  0  0  0  0
 17 18  1  0  0  0  0
 18  6  2  0  0  0  0
 19 13  1  0  0  0  0
 20  3  2  0  0  0  0
 21 16  1  0  0  0  0
 21 20  1  0  0  0  0
 23 22  1  6  0  0  0
 24 23  1  0  0  0  0
 25 24  1  0  0  0  0
 27 26  2  0  0  0  0
 27 25  1  0  0  0  0
 28 27  1  0  0  0  0
 29 30  1  0  0  0  0
 29 31  1  0  0  0  0
 30 31  1  0  0  0  0
 31 28  1  0  0  0  0
M  END
>  <MODEL>
2

>  <REMARK>
 VINA RESULT:      -9.3      3.842      7.504
  Name = 
  5 active torsions:
  status: ('A' for Active; 'I' for Inactive)
    1  A    between atoms: O_3  and  C_19
    2  A    between atoms: O_3  and  N_22
    3  A    between atoms: C_9  and  N_22
    4  A    between atoms: C_9  and  N_23
    5  A    between atoms: C_11  and  N_24
                            x       y       z     vdW  Elec       q    Type
                         _______ _______ _______ _____ _____    ______ ____

>  <TORSDO>
F 5

$$$$
=
 OpenBabel11052422243D

 31 35  0  0  1  0  0  0  0  0999 V2000
  160.9680  202.2580  150.9370 C   0  0  0  0  0  0  0  0  0  0  0  0
  161.3420  205.4750  148.9950 C   0  0  0  0  0  0  0  0  0  0  0  0
  161.4120  205.1160  147.6000 C   0  0  0  0  0  0  0  0  0  0  0  0
  161.5390  203.2200  145.8170 C   0  0  0  0  0  2  0  0  0  0  0  0
  161.1750  204.5350  150.0660 C   0  0  0  0  0  0  0  0  0  0  0  0
  160.8550  202.7480  152.2360 C   0  0  0  0  0  3  0  0  0  0  0  0
  161.0570  203.6980  147.1780 C   0  0  0  0  0  2  0  0  0  0  0  0
  161.3410  207.2580  150.6890 C   0  0  0  0  0  0  0  0  0  0  0  0
  160.9150  200.7940  150.6870 C   0  0  0  0  0  1  0  0  0  0  0  0
  161.7700  207.4680  147.0390 C   0  0  0  0  0  3  0  0  0  0  0  0
  160.7400  203.8370  144.7900 N   0  0  0  0  0  0  0  0  0  0  0  0
  161.1550  206.3350  151.6630 N   0  0  0  0  0  0  0  0  0  0  0  0
  161.4460  206.8510  149.3490 C   0  0  0  0  0  0  0  0  0  0  0  0
  161.4250  208.6470  151.0350 N   0  0  0  0  0  2  0  0  0  0  0  0
  161.1280  203.1420  149.8700 C   0  0  0  0  0  3  0  0  0  0  0  0
  160.8830  205.0790  144.4940 C   0  0  0  0  0  3  0  0  0  0  0  0
  161.0760  205.0110  151.3990 C   0  0  0  0  0  0  0  0  0  0  0  0
  160.9120  204.1220  152.4650 C   0  0  0  0  0  3  0  0  0  0  0  0
  161.6560  207.8210  148.3700 C   0  0  0  0  0  3  0  0  0  0  0  0
  161.6470  206.1450  146.6350 C   0  0  0  0  0  0  0  0  0  0  0  0
  161.9200  205.9170  145.1750 C   0  0  0  0  0  2  0  0  0  0  0  0
  162.4890  210.1020  152.6720 C   0  0  0  0  0  1  0  0  0  0  0  0
  161.3570  209.1250  152.4080 C   0  0  1  0  0  3  0  0  0  0  0  0
  160.0800  209.7890  152.6230 N   0  0  0  0  0  2  0  0  0  0  0  0
  160.1810  210.5280  153.7850 O   0  0  0  0  0  0  0  0  0  0  0  0
  158.1760  211.1590  154.7340 O   0  0  0  0  0  0  0  0  0  0  0  0
  159.2130  210.4460  154.7890 C   0  0  0  0  0  0  0  0  0  0  0  0
  159.3910  209.5540  155.8870 N   0  0  0  0  0  2  0  0  0  0  0  0
  160.2690  207.5620  156.9400 C   0  0  0  0  0  2  0  0  0  0  0  0
  160.2400  207.3340  155.4460 C   0  0  0  0  0  2  0  0  0  0  0  0
  160.5670  208.7080  155.9940 C   0  0  0  0  0  3  0  0  0  0  0  0
  1  6  1  0  0  0  0
  2 13  1  0  0  0  0
  2  5  1  0  0  0  0
  3  2  2  0  0  0  0
  4  7  1  0  0  0  0
  5 17  2  0  0  0  0
  6 18  2  0  0  0  0
  7  3  1  0  0  0  0
  8 14  1  0  0  0  0
  8 12  2  0  0  0  0
  9  1  1  0  0  0  0
 10 19  1  0  0  0  0
 11  4  1  0  0  0  0
 13  8  1  0  0  0  0
 14 23  1  0  0  0  0
 15  5  1  0  0  0  0
 15  1  2  0  0  0  0
 16 11  2  0  0  0  0
 16 21  1  0  0  0  0
 17 12  1  0  0  0  0
 17 18  1  0  0  0  0
 19 13  2  0  0  0  0
 20 10  2  0  0  0  0
 20  3  1  0  0  0  0
 21 20  1  0  0  0  0
 23 24  1  0  0  0  0
 23 22  1  6  0  0  0
 24 25  1  0  0  0  0
 25 27  1  0  0  0  0
 26 27  2  0  0  0  0
 27 28  1  0  0  0  0
 28 31  1  0  0  0  0
 30 31  1  0  0  0  0
 30 29  1  0  0  0  0
 31 29  1  0  0  0  0
M  END
>  <MODEL>
3

>  <REMARK>
 VINA RESULT:      -9.1      2.907      8.550
  Name = 
  5 active torsions:
  status: ('A' for Active; 'I' for Inactive)
    1  A    between atoms: O_3  and  C_19
    2  A    between atoms: O_3  and  N_22
    3  A    between atoms: C_9  and  N_22
    4  A    between atoms: C_9  and  N_23
    5  A    between atoms: C_11  and  N_24
                            x       y       z     vdW  Elec       q    Type
                         _______ _______ _______ _____ _____    ______ ____

>  <TORSDO>
F 5

$$$$
=
 OpenBabel11052422243D

 31 35  0  0  1  0  0  0  0  0999 V2000
  161.0130  207.0160  153.9690 C   0  0  0  0  0  0  0  0  0  0  0  0
  161.4570  206.7670  150.2270 C   0  0  0  0  0  0  0  0  0  0  0  0
  161.3450  205.3710  149.8840 C   0  0  0  0  0  0  0  0  0  0  0  0
  161.1140  202.9110  150.7120 C   0  0  0  0  0  2  0  0  0  0  0  0
  161.3240  207.2880  151.5570 C   0  0  0  0  0  0  0  0  0  0  0  0
  161.0840  208.3960  154.1490 C   0  0  0  0  0  3  0  0  0  0  0  0
  160.8240  204.3890  150.9230 C   0  0  0  0  0  2  0  0  0  0  0  0
  161.7930  209.0800  149.4590 C   0  0  0  0  0  0  0  0  0  0  0  0
  160.8070  206.1230  155.1380 C   0  0  0  0  0  1  0  0  0  0  0  0
  161.8450  205.9280  147.5570 C   0  0  0  0  0  3  0  0  0  0  0  0
  160.2660  202.4090  149.6620 N   0  0  0  0  0  0  0  0  0  0  0  0
  161.6330  209.5260  150.7280 N   0  0  0  0  0  0  0  0  0  0  0  0
  161.7180  207.7050  149.1850 C   0  0  0  0  0  0  0  0  0  0  0  0
  162.0350  210.0180  148.4030 N   0  0  0  0  0  2  0  0  0  0  0  0
  161.1350  206.4740  152.6890 C   0  0  0  0  0  3  0  0  0  0  0  0
  160.4850  202.7100  148.4320 C   0  0  0  0  0  3  0  0  0  0  0  0
  161.4110  208.6890  151.7670 C   0  0  0  0  0  0  0  0  0  0  0  0
  161.2850  209.2290  153.0500 C   0  0  0  0  0  3  0  0  0  0  0  0
  161.9060  207.2720  147.8740 C   0  0  0  0  0  3  0  0  0  0  0  0
  161.5630  204.9750  148.5270 C   0  0  0  0  0  0  0  0  0  0  0  0
  161.6580  203.5560  148.0440 C   0  0  0  0  0  2  0  0  0  0  0  0
  163.3800  211.9860  147.9080 C   0  0  0  0  0  1  0  0  0  0  0  0
  162.1560  211.4500  148.6300 C   0  0  1  0  0  3  0  0  0  0  0  0
  160.9640  212.1190  148.1300 N   0  0  0  0  0  2  0  0  0  0  0  0
  160.6690  213.1540  148.9960 O   0  0  0  0  0  0  0  0  0  0  0  0
  158.6350  213.9220  148.2250 O   0  0  0  0  0  0  0  0  0  0  0  0
  159.3540  213.5810  149.2010 C   0  0  0  0  0  0  0  0  0  0  0  0
  158.8160  213.6380  150.5200 N   0  0  0  0  0  2  0  0  0  0  0  0
  158.7030  213.2050  152.8960 C   0  0  0  0  0  2  0  0  0  0  0  0
  159.1000  211.9230  152.2000 C   0  0  0  0  0  2  0  0  0  0  0  0
  159.6040  213.2530  151.6790 C   0  0  0  0  0  3  0  0  0  0  0  0
  1  6  1  0  0  0  0
  1  9  1  0  0  0  0
  2  5  1  0  0  0  0
  3  2  1  0  0  0  0
  3  7  1  0  0  0  0
  4  7  1  0  0  0  0
  5 17  2  0  0  0  0
  5 15  1  0  0  0  0
  8 12  2  0  0  0  0
 10 19  2  0  0  0  0
 10 20  1  0  0  0  0
 11  4  1  0  0  0  0
 12 17  1  0  0  0  0
 13  8  1  0  0  0  0
 13  2  2  0  0  0  0
 14 23  1  0  0  0  0
 14  8  1  0  0  0  0
 15  1  2  0  0  0  0
 16 11  2  0  0  0  0
 17 18  1  0  0  0  0
 18  6  2  0  0  0  0
 19 13  1  0  0  0  0
 20  3  2  0  0  0  0
 21 16  1  0  0  0  0
 21 20  1  0  0  0  0
 23 22  1  6  0  0  0
 24 23  1  0  0  0  0
 24 25  1  0  0  0  0
 25 27  1  0  0  0  0
 26 27  2  0  0  0  0
 27 28  1  0  0  0  0
 28 31  1  0  0  0  0
 30 29  1  0  0  0  0
 31 30  1  0  0  0  0
 31 29  1  0  0  0  0
M  END
>  <MODEL>
4

>  <REMARK>
 VINA RESULT:      -8.8      3.326      7.964
  Name = 
  5 active torsions:
  status: ('A' for Active; 'I' for Inactive)
    1  A    between atoms: O_3  and  C_19
    2  A    between atoms: O_3  and  N_22
    3  A    between atoms: C_9  and  N_22
    4  A    between atoms: C_9  and  N_23
    5  A    between atoms: C_11  and  N_24
                            x       y       z     vdW  Elec       q    Type
                         _______ _______ _______ _____ _____    ______ ____

>  <TORSDO>
F 5

$$$$
=
 OpenBabel11052422243D

 31 35  0  0  1  0  0  0  0  0999 V2000
  160.9360  202.2590  150.9280 C   0  0  0  0  0  0  0  0  0  0  0  0
  161.3380  205.4590  148.9640 C   0  0  0  0  0  0  0  0  0  0  0  0
  161.4160  205.0890  147.5720 C   0  0  0  0  0  0  0  0  0  0  0  0
  161.5480  203.1790  145.8050 C   0  0  0  0  0  2  0  0  0  0  0  0
  161.1590  204.5290  150.0410 C   0  0  0  0  0  0  0  0  0  0  0  0
  160.8170  202.7610  152.2230 C   0  0  0  0  0  3  0  0  0  0  0  0
  161.0570  203.6700  147.1580 C   0  0  0  0  0  2  0  0  0  0  0  0
  161.3320  207.2560  150.6440 C   0  0  0  0  0  0  0  0  0  0  0  0
  160.8790  200.7940  150.6900 C   0  0  0  0  0  1  0  0  0  0  0  0
  161.7880  207.4350  146.9940 C   0  0  0  0  0  3  0  0  0  0  0  0
  160.7590  203.7900  144.7670 N   0  0  0  0  0  0  0  0  0  0  0  0
  161.1350  206.3410  151.6230 N   0  0  0  0  0  0  0  0  0  0  0  0
  161.4450  206.8380  149.3080 C   0  0  0  0  0  0  0  0  0  0  0  0
  161.4200  208.6470  150.9790 N   0  0  0  0  0  2  0  0  0  0  0  0
  161.1070  203.1350  149.8560 C   0  0  0  0  0  3  0  0  0  0  0  0
  160.9090  205.0290  144.4630 C   0  0  0  0  0  3  0  0  0  0  0  0
  161.0530  205.0150  151.3690 C   0  0  0  0  0  0  0  0  0  0  0  0
  160.8770  204.1350  152.4410 C   0  0  0  0  0  3  0  0  0  0  0  0
  161.6660  207.7990  148.3230 C   0  0  0  0  0  3  0  0  0  0  0  0
  161.6620  206.1100  146.6000 C   0  0  0  0  0  0  0  0  0  0  0  0
  161.9440  205.8690  145.1450 C   0  0  0  0  0  2  0  0  0  0  0  0
  162.2980  210.3030  152.5330 C   0  0  0  0  0  1  0  0  0  0  0  0
  161.3440  209.1360  152.3480 C   0  0  1  0  0  3  0  0  0  0  0  0
  159.9830  209.5700  152.6280 N   0  0  0  0  0  2  0  0  0  0  0  0
  160.0280  210.9130  152.9450 O   0  0  0  0  0  0  0  0  0  0  0  0
  157.9400  211.5550  153.6890 O   0  0  0  0  0  0  0  0  0  0  0  0
  158.8870  211.7180  152.8740 C   0  0  0  0  0  0  0  0  0  0  0  0
  158.7840  212.7290  151.8750 N   0  0  0  0  0  2  0  0  0  0  0  0
  159.2970  213.7390  149.7380 C   0  0  0  0  0  2  0  0  0  0  0  0
  160.1040  214.4480  150.8030 C   0  0  0  0  0  2  0  0  0  0  0  0
  159.8500  212.9580  150.9140 C   0  0  0  0  0  3  0  0  0  0  0  0
  1  6  1  0  0  0  0
  2 13  1  0  0  0  0
  2  5  1  0  0  0  0
  3  2  2  0  0  0  0
  4  7  1  0  0  0  0
  5 17  2  0  0  0  0
  6 18  2  0  0  0  0
  7  3  1  0  0  0  0
  8 14  1  0  0  0  0
  8 12  2  0  0  0  0
  9  1  1  0  0  0  0
 10 19  1  0  0  0  0
 11  4  1  0  0  0  0
 13  8  1  0  0  0  0
 14 23  1  0  0  0  0
 15  5  1  0  0  0  0
 15  1  2  0  0  0  0
 16 11  2  0  0  0  0
 16 21  1  0  0  0  0
 17 12  1  0  0  0  0
 17 18  1  0  0  0  0
 19 13  2  0  0  0  0
 20 10  2  0  0  0  0
 20  3  1  0  0  0  0
 21 20  1  0  0  0  0
 23 22  1  6  0  0  0
 23 24  1  0  0  0  0
 24 25  1  0  0  0  0
 27 25  1  0  0  0  0
 27 26  2  0  0  0  0
 28 27  1  0  0  0  0
 29 30  1  0  0  0  0
 29 31  1  0  0  0  0
 30 31  1  0  0  0  0
 31 28  1  0  0  0  0
M  END
>  <MODEL>
5

>  <REMARK>
 VINA RESULT:      -8.4      3.169      8.437
  Name = 
  5 active torsions:
  status: ('A' for Active; 'I' for Inactive)
    1  A    between atoms: O_3  and  C_19
    2  A    between atoms: O_3  and  N_22
    3  A    between atoms: C_9  and  N_22
    4  A    between atoms: C_9  and  N_23
    5  A    between atoms: C_11  and  N_24
                            x       y       z     vdW  Elec       q    Type
                         _______ _______ _______ _____ _____    ______ ____

>  <TORSDO>
F 5

$$$$
=
 OpenBabel11052422243D

 31 35  0  0  1  0  0  0  0  0999 V2000
  160.9170  202.3220  151.0700 C   0  0  0  0  0  0  0  0  0  0  0  0
  161.4000  205.4850  149.0640 C   0  0  0  0  0  0  0  0  0  0  0  0
  161.4850  205.0930  147.6780 C   0  0  0  0  0  0  0  0  0  0  0  0
  161.5970  203.1560  145.9400 C   0  0  0  0  0  2  0  0  0  0  0  0
  161.1930  204.5740  150.1520 C   0  0  0  0  0  0  0  0  0  0  0  0
  160.7950  202.8440  152.3560 C   0  0  0  0  0  3  0  0  0  0  0  0
  161.1030  203.6750  147.2820 C   0  0  0  0  0  2  0  0  0  0  0  0
  161.4130  207.3060  150.7190 C   0  0  0  0  0  0  0  0  0  0  0  0
  160.8340  200.8550  150.8520 C   0  0  0  0  0  1  0  0  0  0  0  0
  161.9080  207.4240  147.0720 C   0  0  0  0  0  3  0  0  0  0  0  0
  160.8300  203.7680  144.8860 N   0  0  0  0  0  0  0  0  0  0  0  0
  161.1890  206.4090  151.7090 N   0  0  0  0  0  0  0  0  0  0  0  0
  161.5310  206.8670  149.3900 C   0  0  0  0  0  0  0  0  0  0  0  0
  161.5240  208.6990  151.0350 N   0  0  0  0  0  2  0  0  0  0  0  0
  161.1160  203.1790  149.9870 C   0  0  0  0  0  3  0  0  0  0  0  0
  161.0080  204.9990  144.5660 C   0  0  0  0  0  3  0  0  0  0  0  0
  161.0830  205.0810  151.4730 C   0  0  0  0  0  0  0  0  0  0  0  0
  160.8800  204.2200  152.5550 C   0  0  0  0  0  3  0  0  0  0  0  0
  161.7800  207.8090  148.3940 C   0  0  0  0  0  3  0  0  0  0  0  0
  161.7600  206.0950  146.6950 C   0  0  0  0  0  0  0  0  0  0  0  0
  162.0520  205.8280  145.2460 C   0  0  0  0  0  2  0  0  0  0  0  0
  162.4580  210.3230  152.5900 C   0  0  0  0  0  1  0  0  0  0  0  0
  161.4440  209.2100  152.3960 C   0  0  1  0  0  3  0  0  0  0  0  0
  160.1040  209.7220  152.6390 N   0  0  0  0  0  2  0  0  0  0  0  0
  160.1820  210.6220  153.6830 O   0  0  0  0  0  0  0  0  0  0  0  0
  160.4280  209.6600  155.7650 O   0  0  0  0  0  0  0  0  0  0  0  0
  159.7060  210.3030  154.9580 C   0  0  0  0  0  0  0  0  0  0  0  0
  158.3960  210.7020  155.3560 N   0  0  0  0  0  2  0  0  0  0  0  0
  156.1990  211.6920  155.1520 C   0  0  0  0  0  2  0  0  0  0  0  0
  157.2260  212.8000  155.0790 C   0  0  0  0  0  2  0  0  0  0  0  0
  157.5260  211.4490  154.4620 C   0  0  0  0  0  3  0  0  0  0  0  0
  1  6  1  0  0  0  0
  2 13  1  0  0  0  0
  2  5  1  0  0  0  0
  3  2  2  0  0  0  0
  4  7  1  0  0  0  0
  5 17  2  0  0  0  0
  6 18  2  0  0  0  0
  7  3  1  0  0  0  0
  8 14  1  0  0  0  0
  8 12  2  0  0  0  0
  9  1  1  0  0  0  0
 10 19  1  0  0  0  0
 11  4  1  0  0  0  0
 13  8  1  0  0  0  0
 14 23  1  0  0  0  0
 15  5  1  0  0  0  0
 15  1  2  0  0  0  0
 16 11  2  0  0  0  0
 16 21  1  0  0  0  0
 17 12  1  0  0  0  0
 17 18  1  0  0  0  0
 19 13  2  0  0  0  0
 20 10  2  0  0  0  0
 20  3  1  0  0  0  0
 21 20  1  0  0  0  0
 23 22  1  6  0  0  0
 23 24  1  0  0  0  0
 24 25  1  0  0  0  0
 25 27  1  0  0  0  0
 27 28  1  0  0  0  0
 27 26  2  0  0  0  0
 30 29  1  0  0  0  0
 31 30  1  0  0  0  0
 31 29  1  0  0  0  0
 31 28  1  0  0  0  0
M  END
>  <MODEL>
6

>  <REMARK>
 VINA RESULT:      -8.4      2.978      8.715
  Name = 
  5 active torsions:
  status: ('A' for Active; 'I' for Inactive)
    1  A    between atoms: O_3  and  C_19
    2  A    between atoms: O_3  and  N_22
    3  A    between atoms: C_9  and  N_22
    4  A    between atoms: C_9  and  N_23
    5  A    between atoms: C_11  and  N_24
                            x       y       z     vdW  Elec       q    Type
                         _______ _______ _______ _____ _____    ______ ____

>  <TORSDO>
F 5

$$$$
=
 OpenBabel11052422243D

 31 35  0  0  1  0  0  0  0  0999 V2000
  161.9540  210.7600  149.2090 C   0  0  0  0  0  0  0  0  0  0  0  0
  161.3420  207.2560  150.4750 C   0  0  0  0  0  0  0  0  0  0  0  0
  161.4430  206.3750  149.3370 C   0  0  0  0  0  0  0  0  0  0  0  0
  161.7190  206.1340  146.7570 C   0  0  0  0  0  2  0  0  0  0  0  0
  161.5340  208.6760  150.4200 C   0  0  0  0  0  0  0  0  0  0  0  0
  161.8870  211.4830  150.3980 C   0  0  0  0  0  3  0  0  0  0  0  0
  162.0140  206.9100  148.0320 C   0  0  0  0  0  2  0  0  0  0  0  0
  160.9650  207.4970  152.8940 C   0  0  0  0  0  0  0  0  0  0  0  0
  162.2170  211.4620  147.9260 C   0  0  0  0  0  1  0  0  0  0  0  0
  160.8360  204.4910  150.7710 C   0  0  0  0  0  3  0  0  0  0  0  0
  162.5190  204.9370  146.7370 N   0  0  0  0  0  0  0  0  0  0  0  0
  161.1810  208.8310  152.7950 N   0  0  0  0  0  0  0  0  0  0  0  0
  161.0310  206.6900  151.7460 C   0  0  0  0  0  0  0  0  0  0  0  0
  160.6720  206.9180  154.1720 N   0  0  0  0  0  2  0  0  0  0  0  0
  161.7770  209.3760  149.2250 C   0  0  0  0  0  3  0  0  0  0  0  0
  162.2450  203.9430  147.5020 C   0  0  0  0  0  3  0  0  0  0  0  0
  161.4520  209.4350  151.6160 C   0  0  0  0  0  0  0  0  0  0  0  0
  161.6340  210.8210  151.5980 C   0  0  0  0  0  3  0  0  0  0  0  0
  160.7860  205.3240  151.8730 C   0  0  0  0  0  3  0  0  0  0  0  0
  161.1640  204.9840  149.5150 C   0  0  0  0  0  0  0  0  0  0  0  0
  161.0530  203.9750  148.4080 C   0  0  0  0  0  2  0  0  0  0  0  0
  159.8090  206.9160  156.4480 C   0  0  0  0  0  1  0  0  0  0  0  0
  160.5570  207.7070  155.3890 C   0  0  1  0  0  3  0  0  0  0  0  0
  161.8880  208.0360  155.8770 N   0  0  0  0  0  2  0  0  0  0  0  0
  161.8080  209.2500  156.5290 O   0  0  0  0  0  0  0  0  0  0  0  0
  163.3480  210.7220  155.6430 O   0  0  0  0  0  0  0  0  0  0  0  0
  162.1430  210.4460  155.8880 C   0  0  0  0  0  0  0  0  0  0  0  0
  161.1240  211.3680  155.5080 N   0  0  0  0  0  2  0  0  0  0  0  0
  158.8990  212.3040  155.3660 C   0  0  0  0  0  2  0  0  0  0  0  0
  158.9650  211.1010  154.4520 C   0  0  0  0  0  2  0  0  0  0  0  0
  159.7200  211.0950  155.7660 C   0  0  0  0  0  3  0  0  0  0  0  0
  1 15  2  0  0  0  0
  1  6  1  0  0  0  0
  2 13  1  0  0  0  0
  3 20  1  0  0  0  0
  3  2  2  0  0  0  0
  4  7  1  0  0  0  0
  5  2  1  0  0  0  0
  5 17  2  0  0  0  0
  6 18  2  0  0  0  0
  7  3  1  0  0  0  0
  8 14  1  0  0  0  0
  9  1  1  0  0  0  0
 10 19  1  0  0  0  0
 11  4  1  0  0  0  0
 11 16  2  0  0  0  0
 12  8  2  0  0  0  0
 13 19  2  0  0  0  0
 13  8  1  0  0  0  0
 14 23  1  0  0  0  0
 15  5  1  0  0  0  0
 16 21  1  0  0  0  0
 17 12  1  0  0  0  0
 18 17  1  0  0  0  0
 20 10  2  0  0  0  0
 21 20  1  0  0  0  0
 23 24  1  0  0  0  0
 23 22  1  1  0  0  0
 24 25  1  0  0  0  0
 26 27  2  0  0  0  0
 27 25  1  0  0  0  0
 28 31  1  0  0  0  0
 28 27  1  0  0  0  0
 29 31  1  0  0  0  0
 30 29  1  0  0  0  0
 30 31  1  0  0  0  0
M  END
>  <MODEL>
7

>  <REMARK>
 VINA RESULT:      -8.3      3.081      7.273
  Name = 
  5 active torsions:
  status: ('A' for Active; 'I' for Inactive)
    1  A    between atoms: O_3  and  C_19
    2  A    between atoms: O_3  and  N_22
    3  A    between atoms: C_9  and  N_22
    4  A    between atoms: C_9  and  N_23
    5  A    between atoms: C_11  and  N_24
                            x       y       z     vdW  Elec       q    Type
                         _______ _______ _______ _____ _____    ______ ____

>  <TORSDO>
F 5

$$$$
=
 OpenBabel11052422243D

 31 35  0  0  1  0  0  0  0  0999 V2000
  160.9580  203.9530  152.1000 C   0  0  0  0  0  0  0  0  0  0  0  0
  161.3650  205.4270  148.6470 C   0  0  0  0  0  0  0  0  0  0  0  0
  161.3280  204.3270  147.7150 C   0  0  0  0  0  0  0  0  0  0  0  0
  161.2470  201.7470  147.3550 C   0  0  0  0  0  2  0  0  0  0  0  0
  161.2210  205.2900  150.0680 C   0  0  0  0  0  0  0  0  0  0  0  0
  160.9540  205.1090  152.8790 C   0  0  0  0  0  3  0  0  0  0  0  0
  160.8770  202.9570  148.1990 C   0  0  0  0  0  2  0  0  0  0  0  0
  161.5610  207.8540  148.9970 C   0  0  0  0  0  0  0  0  0  0  0  0
  160.8180  202.6220  152.7440 C   0  0  0  0  0  1  0  0  0  0  0  0
  161.7650  205.8920  145.8880 C   0  0  0  0  0  3  0  0  0  0  0  0
  160.4150  201.7200  146.1800 N   0  0  0  0  0  0  0  0  0  0  0  0
  161.3920  207.6760  150.3300 N   0  0  0  0  0  0  0  0  0  0  0  0
  161.5600  206.7440  148.1370 C   0  0  0  0  0  0  0  0  0  0  0  0
  161.7350  209.1770  148.4740 N   0  0  0  0  0  2  0  0  0  0  0  0
  161.0930  204.0480  150.7150 C   0  0  0  0  0  3  0  0  0  0  0  0
  160.6000  202.5510  145.2170 C   0  0  0  0  0  3  0  0  0  0  0  0
  161.2320  206.4520  150.8820 C   0  0  0  0  0  0  0  0  0  0  0  0
  161.0930  206.3550  152.2700 C   0  0  0  0  0  3  0  0  0  0  0  0
  161.7540  206.9540  146.7730 C   0  0  0  0  0  3  0  0  0  0  0  0
  161.5500  204.5920  146.3270 C   0  0  0  0  0  0  0  0  0  0  0  0
  161.7180  203.5450  145.2620 C   0  0  0  0  0  2  0  0  0  0  0  0
  162.5020  210.0450  150.6160 C   0  0  0  0  0  1  0  0  0  0  0  0
  161.7780  210.3620  149.3190 C   0  0  1  0  0  3  0  0  0  0  0  0
  162.4790  211.4270  148.6170 N   0  0  0  0  0  2  0  0  0  0  0  0
  161.6740  211.8430  147.5750 O   0  0  0  0  0  0  0  0  0  0  0  0
  161.4780  213.9990  148.3750 O   0  0  0  0  0  0  0  0  0  0  0  0
  161.0910  213.1140  147.5660 C   0  0  0  0  0  0  0  0  0  0  0  0
  160.0500  213.4190  146.6410 N   0  0  0  0  0  2  0  0  0  0  0  0
  158.9260  213.1510  144.5170 C   0  0  0  0  0  2  0  0  0  0  0  0
  160.3270  212.5980  144.3840 C   0  0  0  0  0  2  0  0  0  0  0  0
  159.5710  212.4340  145.6860 C   0  0  0  0  0  3  0  0  0  0  0  0
  1  9  1  0  0  0  0
  1  6  1  0  0  0  0
  2  5  1  0  0  0  0
  3  7  1  0  0  0  0
  3  2  2  0  0  0  0
  4  7  1  0  0  0  0
  5 15  1  0  0  0  0
  5 17  2  0  0  0  0
  8 12  2  0  0  0  0
 10 20  2  0  0  0  0
 10 19  1  0  0  0  0
 11  4  1  0  0  0  0
 12 17  1  0  0  0  0
 13  2  1  0  0  0  0
 13  8  1  0  0  0  0
 14  8  1  0  0  0  0
 14 23  1  0  0  0  0
 15  1  2  0  0  0  0
 16 21  1  0  0  0  0
 16 11  2  0  0  0  0
 17 18  1  0  0  0  0
 18  6  2  0  0  0  0
 19 13  2  0  0  0  0
 20  3  1  0  0  0  0
 21 20  1  0  0  0  0
 23 22  1  1  0  0  0
 24 23  1  0  0  0  0
 25 24  1  0  0  0  0
 27 25  1  0  0  0  0
 27 26  2  0  0  0  0
 28 27  1  0  0  0  0
 29 31  1  0  0  0  0
 30 29  1  0  0  0  0
 30 31  1  0  0  0  0
 31 28  1  0  0  0  0
M  END
>  <MODEL>
8

>  <REMARK>
 VINA RESULT:      -8.0      3.638      8.390
  Name = 
  5 active torsions:
  status: ('A' for Active; 'I' for Inactive)
    1  A    between atoms: O_3  and  C_19
    2  A    between atoms: O_3  and  N_22
    3  A    between atoms: C_9  and  N_22
    4  A    between atoms: C_9  and  N_23
    5  A    between atoms: C_11  and  N_24
                            x       y       z     vdW  Elec       q    Type
                         _______ _______ _______ _____ _____    ______ ____

>  <TORSDO>
F 5

$$$$
=
 OpenBabel11052422243D

 31 35  0  0  1  0  0  0  0  0999 V2000
  160.9780  203.9190  152.1410 C   0  0  0  0  0  0  0  0  0  0  0  0
  161.5230  205.4590  148.7370 C   0  0  0  0  0  0  0  0  0  0  0  0
  161.4330  204.3890  147.7740 C   0  0  0  0  0  0  0  0  0  0  0  0
  161.2030  201.8310  147.3400 C   0  0  0  0  0  2  0  0  0  0  0  0
  161.3500  205.2930  150.1510 C   0  0  0  0  0  0  0  0  0  0  0  0
  161.0310  205.0510  152.9520 C   0  0  0  0  0  3  0  0  0  0  0  0
  160.8940  203.0370  148.2130 C   0  0  0  0  0  2  0  0  0  0  0  0
  161.8580  207.8600  149.1580 C   0  0  0  0  0  0  0  0  0  0  0  0
  160.7480  202.5820  152.7460 C   0  0  0  0  0  1  0  0  0  0  0  0
  161.9890  205.9750  145.9980 C   0  0  0  0  0  3  0  0  0  0  0  0
  160.3880  201.8860  146.1540 N   0  0  0  0  0  0  0  0  0  0  0  0
  161.6600  207.6560  150.4830 N   0  0  0  0  0  0  0  0  0  0  0  0
  161.8030  206.7760  148.2670 C   0  0  0  0  0  0  0  0  0  0  0  0
  162.1190  209.1840  148.6750 N   0  0  0  0  0  2  0  0  0  0  0  0
  161.1380  204.0430  150.7610 C   0  0  0  0  0  3  0  0  0  0  0  0
  160.6360  202.7300  145.2170 C   0  0  0  0  0  3  0  0  0  0  0  0
  161.4180  206.4300  150.9980 C   0  0  0  0  0  0  0  0  0  0  0  0
  161.2530  206.3020  152.3800 C   0  0  0  0  0  3  0  0  0  0  0  0
  162.0290  207.0110  146.9120 C   0  0  0  0  0  3  0  0  0  0  0  0
  161.6910  204.6780  146.3970 C   0  0  0  0  0  0  0  0  0  0  0  0
  161.8110  203.6530  145.3050 C   0  0  0  0  0  2  0  0  0  0  0  0
  162.3080  211.6100  148.7260 C   0  0  0  0  0  1  0  0  0  0  0  0
  162.2210  210.3400  149.5530 C   0  0  1  0  0  3  0  0  0  0  0  0
  161.0470  210.3970  150.4110 N   0  0  0  0  0  2  0  0  0  0  0  0
  161.4710  210.7490  151.6780 O   0  0  0  0  0  0  0  0  0  0  0  0
  159.7370  212.2040  152.1250 O   0  0  0  0  0  0  0  0  0  0  0  0
  160.6340  211.4350  152.5620 C   0  0  0  0  0  0  0  0  0  0  0  0
  160.7900  211.2710  153.9700 N   0  0  0  0  0  2  0  0  0  0  0  0
  161.4730  210.1020  155.9740 C   0  0  0  0  0  2  0  0  0  0  0  0
  161.1660  209.0750  154.9080 C   0  0  0  0  0  2  0  0  0  0  0  0
  161.8060  210.3930  154.5240 C   0  0  0  0  0  3  0  0  0  0  0  0
  1  9  1  0  0  0  0
  1  6  1  0  0  0  0
  2  5  1  0  0  0  0
  3  7  1  0  0  0  0
  3  2  2  0  0  0  0
  4  7  1  0  0  0  0
  5 15  1  0  0  0  0
  5 17  2  0  0  0  0
  8 12  2  0  0  0  0
 10 20  2  0  0  0  0
 10 19  1  0  0  0  0
 11  4  1  0  0  0  0
 12 17  1  0  0  0  0
 13  2  1  0  0  0  0
 13  8  1  0  0  0  0
 14  8  1  0  0  0  0
 14 23  1  0  0  0  0
 15  1  2  0  0  0  0
 16 21  1  0  0  0  0
 16 11  2  0  0  0  0
 17 18  1  0  0  0  0
 18  6  2  0  0  0  0
 19 13  2  0  0  0  0
 20  3  1  0  0  0  0
 21 20  1  0  0  0  0
 23 22  1  6  0  0  0
 23 24  1  0  0  0  0
 24 25  1  0  0  0  0
 25 27  1  0  0  0  0
 26 27  2  0  0  0  0
 27 28  1  0  0  0  0
 28 31  1  0  0  0  0
 30 29  1  0  0  0  0
 31 30  1  0  0  0  0
 31 29  1  0  0  0  0
M  END
>  <MODEL>
9

>  <REMARK>
 VINA RESULT:      -7.9      2.723      8.558
  Name = 
  5 active torsions:
  status: ('A' for Active; 'I' for Inactive)
    1  A    between atoms: O_3  and  C_19
    2  A    between atoms: O_3  and  N_22
    3  A    between atoms: C_9  and  N_22
    4  A    between atoms: C_9  and  N_23
    5  A    between atoms: C_11  and  N_24
                            x       y       z     vdW  Elec       q    Type
                         _______ _______ _______ _____ _____    ______ ____

>  <TORSDO>
F 5

$$$$
