=
 OpenBabel11062410213D

 43 48  0  0  1  0  0  0  0  0999 V2000
  160.8220  205.5650  150.9090 O   0  0  0  0  0  0  0  0  0  0  0  0
  161.1010  201.9720  147.4100 C   0  0  0  0  0  0  0  0  0  0  0  0
  161.6150  206.7280  148.8620 C   0  0  0  0  0  0  0  0  0  0  0  0
  161.5390  204.3030  147.4990 C   0  0  0  0  0  0  0  0  0  0  0  0
  160.7070  201.9720  148.7500 C   0  0  0  0  0  3  0  0  0  0  0  0
  161.0780  200.7060  146.6310 C   0  0  0  0  0  1  0  0  0  0  0  0
  161.1490  204.3510  148.8520 C   0  0  0  0  0  0  0  0  0  0  0  0
  161.5060  203.1260  146.8160 N   0  0  0  0  0  0  0  0  0  0  0  0
  160.7340  203.1660  149.4710 C   0  0  0  0  0  3  0  0  0  0  0  0
  161.1990  205.5640  149.5570 C   0  0  0  0  0  0  0  0  0  0  0  0
  161.9790  206.6410  147.5520 N   0  0  0  0  0  0  0  0  0  0  0  0
  161.9570  205.4690  146.8670 C   0  0  0  0  0  3  0  0  0  0  0  0
  161.5860  208.0860  149.4890 C   0  0  0  0  0  2  0  0  0  0  0  0
  162.1610  209.1290  148.5420 C   0  0  0  0  0  2  0  0  0  0  0  0
  162.3200  210.4680  149.2470 C   0  0  0  0  0  2  0  0  0  0  0  0
  162.7480  213.6970  147.1260 C   0  0  0  0  0  2  0  0  0  0  0  0
  159.7910  213.0870  147.6980 C   0  0  0  0  0  2  0  0  0  0  0  0
  160.5790  214.0910  146.8640 C   0  0  0  0  0  2  0  0  0  0  0  0
  163.1150  212.4230  147.8850 C   0  0  0  0  0  2  0  0  0  0  0  0
  161.8960  211.6150  148.3430 C   0  0  2  0  0  3  0  0  0  0  0  0
  161.6780  213.4690  146.2570 O   0  0  0  0  0  0  0  0  0  0  0  0
  160.6900  212.6580  149.2270 S   0  0  0  0  0  0  0  0  0  0  0  0
  161.6430  205.0900  151.9660 C   0  0  0  0  0  2  0  0  0  0  0  0
  162.1310  206.2570  152.8070 C   0  0  0  0  0  2  0  0  0  0  0  0
  160.9720  207.1470  153.2360 C   0  0  1  0  0  3  0  0  0  0  0  0
  159.0170  209.8500  155.4660 F   0  0  0  0  0  0  0  0  0  0  0  0
  160.3950  209.8500  155.6550 C   0  0  2  0  0  0  0  0  0  0  0  0
  161.2020  207.6800  154.5770 N   0  0  2  0  0  0  0  0  0  0  0  0
  160.8360  208.3060  152.2680 C   0  0  0  0  0  2  0  0  0  0  0  0
  160.1510  207.1240  155.4330 C   0  0  0  0  0  2  0  0  0  0  0  0
  161.0870  209.1480  154.4650 C   0  0  1  0  0  3  0  0  0  0  0  0
  160.7330  209.0880  156.9410 C   0  0  0  0  0  2  0  0  0  0  0  0
  160.4700  209.4820  153.1260 C   0  0  0  0  0  2  0  0  0  0  0  0
  160.3110  207.6160  156.8730 C   0  0  0  0  0  2  0  0  0  0  0  0
  160.8980  211.2240  155.7360 N   0  0  0  0  0  2  0  0  0  0  0  0
  159.8560  212.1290  156.2150 C   0  0  1  0  0  3  0  0  0  0  0  0
  160.4340  213.0640  157.2600 C   0  0  0  0  0  1  0  0  0  0  0  0
  159.2860  212.9120  155.0770 C   0  0  0  0  0  0  0  0  0  0  0  0
  159.1380  213.2970  152.6900 N   0  0  0  0  0  0  0  0  0  0  0  0
  157.0610  213.6980  153.9080 C   0  0  0  0  0  2  0  0  0  0  0  0
  157.9340  213.7930  152.6940 C   0  0  0  0  0  3  0  0  0  0  0  0
  158.0310  214.1750  155.3690 S   0  0  0  0  0  0  0  0  0  0  0  0
  159.7370  212.6820  153.8410 C   0  0  0  0  0  3  0  0  0  0  0  0
  1 23  1  0  0  0  0
  2  5  1  0  0  0  0
  3 13  1  0  0  0  0
  3 10  1  0  0  0  0
  4  7  1  0  0  0  0
  5  9  2  0  0  0  0
  6  2  1  0  0  0  0
  7  9  1  0  0  0  0
  7 10  2  0  0  0  0
  8  2  2  0  0  0  0
  8  4  1  0  0  0  0
 10  1  1  0  0  0  0
 11  3  2  0  0  0  0
 12  4  2  0  0  0  0
 12 11  1  0  0  0  0
 14 15  1  0  0  0  0
 14 13  1  0  0  0  0
 16 19  1  0  0  0  0
 17 22  1  0  0  0  0
 18 17  1  0  0  0  0
 19 20  1  0  0  0  0
 20 22  1  0  0  0  0
 20 15  1  1  0  0  0
 21 18  1  0  0  0  0
 21 16  1  0  0  0  0
 23 24  1  0  0  0  0
 25 24  1  6  0  0  0
 25 28  1  0  0  0  0
 27 26  1  6  0  0  0
 27 35  1  0  0  0  0
 27 32  1  0  0  0  0
 28 30  1  1  0  0  0
 29 33  1  0  0  0  0
 29 25  1  0  0  0  0
 30 34  1  0  0  0  0
 31 33  1  6  0  0  0
 31 28  1  0  0  0  0
 31 27  1  0  0  0  0
 34 32  1  0  0  0  0
 35 36  1  0  0  0  0
 36 37  1  1  0  0  0
 38 42  1  0  0  0  0
 38 36  1  0  0  0  0
 39 41  2  0  0  0  0
 39 43  1  0  0  0  0
 40 42  1  0  0  0  0
 41 40  1  0  0  0  0
 43 38  2  0  0  0  0
M  END
>  <MODEL>
1

>  <REMARK>
 VINA RESULT:      -8.9      0.000      0.000
  Name = 
  11 active torsions:
  status: ('A' for Active; 'I' for Inactive)
    1  A    between atoms: C_1  and  C_28
    2  A    between atoms: C_1  and  C_34
    3  A    between atoms: C_2  and  C_13
    4  A    between atoms: C_4  and  N_22
    5  A    between atoms: C_8  and  C_34
    6  A    between atoms: C_11  and  C_14
    7  A    between atoms: C_13  and  C_38
    8  A    between atoms: C_14  and  N_22
    9  A    between atoms: O_27  and  C_30
   10  A    between atoms: O_27  and  C_38
   11  A    between atoms: C_28  and  C_35
                            x       y       z     vdW  Elec       q    Type
                         _______ _______ _______ _____ _____    ______ ____

>  <TORSDO>
F 11

$$$$
=
 OpenBabel11062410213D

 43 48  0  0  1  0  0  0  0  0999 V2000
  160.3510  212.0000  153.0850 O   0  0  0  0  0  0  0  0  0  0  0  0
  156.3850  212.0560  156.1670 C   0  0  0  0  0  0  0  0  0  0  0  0
  158.8080  213.6820  152.1070 C   0  0  0  0  0  0  0  0  0  0  0  0
  157.0110  213.1800  154.1730 C   0  0  0  0  0  0  0  0  0  0  0  0
  157.5900  211.3480  156.1730 C   0  0  0  0  0  3  0  0  0  0  0  0
  155.3890  211.8310  157.2460 C   0  0  0  0  0  1  0  0  0  0  0  0
  158.2390  212.4910  154.1380 C   0  0  0  0  0  0  0  0  0  0  0  0
  156.1210  212.9490  155.1760 N   0  0  0  0  0  0  0  0  0  0  0  0
  158.5170  211.5680  155.1530 C   0  0  0  0  0  3  0  0  0  0  0  0
  159.1480  212.7220  153.0930 C   0  0  0  0  0  0  0  0  0  0  0  0
  157.6120  214.3320  152.1790 N   0  0  0  0  0  0  0  0  0  0  0  0
  156.7160  214.1000  153.1720 C   0  0  0  0  0  3  0  0  0  0  0  0
  159.7580  214.0860  151.0240 C   0  0  0  0  0  2  0  0  0  0  0  0
  159.1640  213.8010  149.6520 C   0  0  0  0  0  2  0  0  0  0  0  0
  160.0180  214.4190  148.5560 C   0  0  0  0  0  2  0  0  0  0  0  0
  157.8700  212.5090  145.9400 C   0  0  0  0  0  2  0  0  0  0  0  0
  160.7190  213.0390  144.9150 C   0  0  0  0  0  2  0  0  0  0  0  0
  159.4210  212.4700  144.3520 C   0  0  0  0  0  2  0  0  0  0  0  0
  158.2380  213.2530  147.2220 C   0  0  0  0  0  2  0  0  0  0  0  0
  159.6440  213.8610  147.1920 C   0  0  2  0  0  3  0  0  0  0  0  0
  158.3210  213.2050  144.8140 O   0  0  0  0  0  0  0  0  0  0  0  0
  160.8960  212.6350  146.6860 S   0  0  0  0  0  0  0  0  0  0  0  0
  160.6000  210.8740  152.2550 C   0  0  0  0  0  2  0  0  0  0  0  0
  160.6670  209.6120  153.0980 C   0  0  0  0  0  2  0  0  0  0  0  0
  161.5690  208.5690  152.4530 C   0  0  1  0  0  3  0  0  0  0  0  0
  162.5460  205.0550  150.7790 F   0  0  0  0  0  0  0  0  0  0  0  0
  161.1790  205.3090  150.8060 C   0  0  2  0  0  0  0  0  0  0  0  0
  160.9100  207.2650  152.4260 N   0  0  2  0  0  0  0  0  0  0  0  0
  161.8880  208.9830  151.0300 C   0  0  0  0  0  2  0  0  0  0  0  0
  161.7040  206.3790  153.2810 C   0  0  0  0  0  2  0  0  0  0  0  0
  160.9300  206.8190  151.0190 C   0  0  1  0  0  3  0  0  0  0  0  0
  160.5400  204.5370  151.9670 C   0  0  0  0  0  2  0  0  0  0  0  0
  161.8850  207.7020  150.2470 C   0  0  0  0  0  2  0  0  0  0  0  0
  161.0850  204.9810  153.3300 C   0  0  0  0  0  2  0  0  0  0  0  0
  160.5620  204.9130  149.5380 N   0  0  0  0  0  2  0  0  0  0  0  0
  161.4520  204.0360  148.7810 C   0  0  1  0  0  3  0  0  0  0  0  0
  160.9630  202.6030  148.8830 C   0  0  0  0  0  1  0  0  0  0  0  0
  161.5080  204.4640  147.3510 C   0  0  0  0  0  0  0  0  0  0  0  0
  161.2960  203.8990  145.0040 N   0  0  0  0  0  0  0  0  0  0  0  0
  160.5490  206.1520  145.5720 C   0  0  0  0  0  2  0  0  0  0  0  0
  160.9430  205.0850  144.5980 C   0  0  0  0  0  3  0  0  0  0  0  0
  161.7660  206.1970  146.9210 S   0  0  0  0  0  0  0  0  0  0  0  0
  161.3890  203.5410  146.3920 C   0  0  0  0  0  3  0  0  0  0  0  0
  1 10  1  0  0  0  0
  2  5  1  0  0  0  0
  2  6  1  0  0  0  0
  3 11  2  0  0  0  0
  3 10  1  0  0  0  0
  4  8  1  0  0  0  0
  7  4  1  0  0  0  0
  7  9  1  0  0  0  0
  8  2  2  0  0  0  0
  9  5  2  0  0  0  0
 10  7  2  0  0  0  0
 11 12  1  0  0  0  0
 12  4  2  0  0  0  0
 13  3  1  0  0  0  0
 14 13  1  0  0  0  0
 15 14  1  0  0  0  0
 16 19  1  0  0  0  0
 17 22  1  0  0  0  0
 18 21  1  0  0  0  0
 18 17  1  0  0  0  0
 20 19  1  0  0  0  0
 20 15  1  1  0  0  0
 21 16  1  0  0  0  0
 22 20  1  0  0  0  0
 23  1  1  0  0  0  0
 23 24  1  0  0  0  0
 25 24  1  6  0  0  0
 27 26  1  6  0  0  0
 27 31  1  0  0  0  0
 27 32  1  0  0  0  0
 28 25  1  0  0  0  0
 28 30  1  1  0  0  0
 29 25  1  0  0  0  0
 30 34  1  0  0  0  0
 31 33  1  6  0  0  0
 31 28  1  0  0  0  0
 32 34  1  0  0  0  0
 33 29  1  0  0  0  0
 35 27  1  0  0  0  0
 36 37  1  6  0  0  0
 36 35  1  0  0  0  0
 38 36  1  0  0  0  0
 39 43  1  0  0  0  0
 40 42  1  0  0  0  0
 41 39  2  0  0  0  0
 41 40  1  0  0  0  0
 42 38  1  0  0  0  0
 43 38  2  0  0  0  0
M  END
>  <MODEL>
2

>  <REMARK>
 VINA RESULT:      -8.7      3.022      8.768
  Name = 
  11 active torsions:
  status: ('A' for Active; 'I' for Inactive)
    1  A    between atoms: C_1  and  C_28
    2  A    between atoms: C_1  and  C_34
    3  A    between atoms: C_2  and  C_13
    4  A    between atoms: C_4  and  N_22
    5  A    between atoms: C_8  and  C_34
    6  A    between atoms: C_11  and  C_14
    7  A    between atoms: C_13  and  C_38
    8  A    between atoms: C_14  and  N_22
    9  A    between atoms: O_27  and  C_30
   10  A    between atoms: O_27  and  C_38
   11  A    between atoms: C_28  and  C_35
                            x       y       z     vdW  Elec       q    Type
                         _______ _______ _______ _____ _____    ______ ____

>  <TORSDO>
F 11

$$$$
=
 OpenBabel11062410213D

 43 48  0  0  1  0  0  0  0  0999 V2000
  160.4970  211.8950  152.4820 O   0  0  0  0  0  0  0  0  0  0  0  0
  159.7250  213.9640  147.9700 C   0  0  0  0  0  0  0  0  0  0  0  0
  158.2460  212.9350  152.6340 C   0  0  0  0  0  0  0  0  0  0  0  0
  158.5120  213.8060  150.0040 C   0  0  0  0  0  0  0  0  0  0  0  0
  160.7770  213.2240  148.5150 C   0  0  0  0  0  3  0  0  0  0  0  0
  159.8100  214.4530  146.5700 C   0  0  0  0  0  1  0  0  0  0  0  0
  159.5470  213.0550  150.5940 C   0  0  0  0  0  0  0  0  0  0  0  0
  158.6240  214.2390  148.7190 N   0  0  0  0  0  0  0  0  0  0  0  0
  160.6860  212.7710  149.8310 C   0  0  0  0  0  3  0  0  0  0  0  0
  159.4340  212.6230  151.9250 C   0  0  0  0  0  0  0  0  0  0  0  0
  157.2650  213.6590  152.0260 N   0  0  0  0  0  0  0  0  0  0  0  0
  157.3730  214.1010  150.7470 C   0  0  0  0  0  3  0  0  0  0  0  0
  157.9790  212.4170  154.0130 C   0  0  0  0  0  2  0  0  0  0  0  0
  159.1070  212.8020  154.9600 C   0  0  0  0  0  2  0  0  0  0  0  0
  158.9460  212.1020  156.3010 C   0  0  0  0  0  2  0  0  0  0  0  0
  162.4650  210.4990  155.9050 C   0  0  0  0  0  2  0  0  0  0  0  0
  160.4340  208.5230  157.0950 C   0  0  0  0  0  2  0  0  0  0  0  0
  161.9330  208.5460  156.8160 C   0  0  0  0  0  2  0  0  0  0  0  0
  161.3630  211.5560  155.8870 C   0  0  0  0  0  2  0  0  0  0  0  0
  160.0500  211.0790  156.5180 C   0  0  2  0  0  3  0  0  0  0  0  0
  162.4690  209.8040  157.1180 O   0  0  0  0  0  0  0  0  0  0  0  0
  159.5190  209.4740  155.8340 S   0  0  0  0  0  0  0  0  0  0  0  0
  161.1520  210.8160  151.8310 C   0  0  0  0  0  2  0  0  0  0  0  0
  160.9800  209.5410  152.6390 C   0  0  0  0  0  2  0  0  0  0  0  0
  161.8050  208.4050  152.0530 C   0  0  1  0  0  3  0  0  0  0  0  0
  162.5280  204.7510  150.5580 F   0  0  0  0  0  0  0  0  0  0  0  0
  161.1830  205.1060  150.5620 C   0  0  2  0  0  0  0  0  0  0  0  0
  161.0520  207.1530  152.0830 N   0  0  2  0  0  0  0  0  0  0  0  0
  162.1610  208.7240  150.6140 C   0  0  0  0  0  2  0  0  0  0  0  0
  161.7740  206.2530  152.9860 C   0  0  0  0  0  2  0  0  0  0  0  0
  161.0450  206.6380  150.6990 C   0  0  1  0  0  3  0  0  0  0  0  0
  160.4840  204.4390  151.7530 C   0  0  0  0  0  2  0  0  0  0  0  0
  162.0660  207.4100  149.8930 C   0  0  0  0  0  2  0  0  0  0  0  0
  161.0540  204.9080  153.0970 C   0  0  0  0  0  2  0  0  0  0  0  0
  160.5440  204.6950  149.3090 N   0  0  0  0  0  2  0  0  0  0  0  0
  161.5080  204.0420  148.4260 C   0  0  1  0  0  3  0  0  0  0  0  0
  161.1070  202.5940  148.2150 C   0  0  0  0  0  1  0  0  0  0  0  0
  161.5780  204.7570  147.1160 C   0  0  0  0  0  0  0  0  0  0  0  0
  162.2970  204.7880  144.8030 N   0  0  0  0  0  0  0  0  0  0  0  0
  160.1630  205.8990  145.2120 C   0  0  0  0  0  2  0  0  0  0  0  0
  161.3560  205.5730  144.3660 C   0  0  0  0  0  3  0  0  0  0  0  0
  160.7290  206.3320  146.8840 S   0  0  0  0  0  0  0  0  0  0  0  0
  162.2990  204.2270  146.1250 C   0  0  0  0  0  3  0  0  0  0  0  0
  2  5  2  0  0  0  0
  2  8  1  0  0  0  0
  3 13  1  0  0  0  0
  4  7  1  0  0  0  0
  4 12  1  0  0  0  0
  5  9  1  0  0  0  0
  6  2  1  0  0  0  0
  7 10  1  0  0  0  0
  8  4  2  0  0  0  0
  9  7  2  0  0  0  0
 10  1  1  0  0  0  0
 10  3  2  0  0  0  0
 11  3  1  0  0  0  0
 12 11  2  0  0  0  0
 13 14  1  0  0  0  0
 14 15  1  0  0  0  0
 16 21  1  0  0  0  0
 18 17  1  0  0  0  0
 18 21  1  0  0  0  0
 19 16  1  0  0  0  0
 19 20  1  0  0  0  0
 20 15  1  6  0  0  0
 22 20  1  0  0  0  0
 22 17  1  0  0  0  0
 23  1  1  0  0  0  0
 23 24  1  0  0  0  0
 25 28  1  0  0  0  0
 25 24  1  6  0  0  0
 27 26  1  6  0  0  0
 27 31  1  0  0  0  0
 27 32  1  0  0  0  0
 28 30  1  1  0  0  0
 29 25  1  0  0  0  0
 30 34  1  0  0  0  0
 31 33  1  6  0  0  0
 31 28  1  0  0  0  0
 32 34  1  0  0  0  0
 33 29  1  0  0  0  0
 35 27  1  0  0  0  0
 36 37  1  6  0  0  0
 36 35  1  0  0  0  0
 38 36  1  0  0  0  0
 39 43  1  0  0  0  0
 40 42  1  0  0  0  0
 41 39  2  0  0  0  0
 41 40  1  0  0  0  0
 42 38  1  0  0  0  0
 43 38  2  0  0  0  0
M  END
>  <MODEL>
3

>  <REMARK>
 VINA RESULT:      -7.9      2.881      9.184
  Name = 
  11 active torsions:
  status: ('A' for Active; 'I' for Inactive)
    1  A    between atoms: C_1  and  C_28
    2  A    between atoms: C_1  and  C_34
    3  A    between atoms: C_2  and  C_13
    4  A    between atoms: C_4  and  N_22
    5  A    between atoms: C_8  and  C_34
    6  A    between atoms: C_11  and  C_14
    7  A    between atoms: C_13  and  C_38
    8  A    between atoms: C_14  and  N_22
    9  A    between atoms: O_27  and  C_30
   10  A    between atoms: O_27  and  C_38
   11  A    between atoms: C_28  and  C_35
                            x       y       z     vdW  Elec       q    Type
                         _______ _______ _______ _____ _____    ______ ____

>  <TORSDO>
F 11

$$$$
=
 OpenBabel11062410213D

 43 48  0  0  1  0  0  0  0  0999 V2000
  159.8450  210.9140  153.5810 O   0  0  0  0  0  0  0  0  0  0  0  0
  156.0300  212.7800  156.2630 C   0  0  0  0  0  0  0  0  0  0  0  0
  159.0980  212.9180  152.3170 C   0  0  0  0  0  0  0  0  0  0  0  0
  157.1360  213.3550  154.2430 C   0  0  0  0  0  0  0  0  0  0  0  0
  156.8800  211.6870  156.4440 C   0  0  0  0  0  3  0  0  0  0  0  0
  154.9660  213.0640  157.2600 C   0  0  0  0  0  1  0  0  0  0  0  0
  158.0170  212.2650  154.3850 C   0  0  0  0  0  0  0  0  0  0  0  0
  156.1730  213.5850  155.1750 N   0  0  0  0  0  0  0  0  0  0  0  0
  157.8750  211.4300  155.4990 C   0  0  0  0  0  3  0  0  0  0  0  0
  159.0010  212.0220  153.4120 C   0  0  0  0  0  0  0  0  0  0  0  0
  158.2300  213.9640  152.2190 N   0  0  0  0  0  0  0  0  0  0  0  0
  157.2610  214.1950  153.1410 C   0  0  0  0  0  3  0  0  0  0  0  0
  160.1860  212.8160  151.2950 C   0  0  0  0  0  2  0  0  0  0  0  0
  159.7720  213.4950  149.9980 C   0  0  0  0  0  2  0  0  0  0  0  0
  160.9800  214.0960  149.2950 C   0  0  0  0  0  2  0  0  0  0  0  0
  159.8140  212.3710  146.0130 C   0  0  0  0  0  2  0  0  0  0  0  0
  162.4510  213.9030  145.6270 C   0  0  0  0  0  2  0  0  0  0  0  0
  161.4590  213.1540  144.7440 C   0  0  0  0  0  2  0  0  0  0  0  0
  159.7980  212.8480  147.4640 C   0  0  0  0  0  2  0  0  0  0  0  0
  160.9420  213.8090  147.8030 C   0  0  2  0  0  3  0  0  0  0  0  0
  160.1440  213.4190  145.1480 O   0  0  0  0  0  0  0  0  0  0  0  0
  162.5580  213.1410  147.2820 S   0  0  0  0  0  0  0  0  0  0  0  0
  161.2060  211.0020  153.9770 C   0  0  0  0  0  2  0  0  0  0  0  0
  162.0360  209.9850  153.2130 C   0  0  0  0  0  2  0  0  0  0  0  0
  161.1950  209.2650  152.1680 C   0  0  1  0  0  3  0  0  0  0  0  0
  160.4450  207.2130  148.8020 F   0  0  0  0  0  0  0  0  0  0  0  0
  161.7800  207.1920  149.1930 C   0  0  2  0  0  0  0  0  0  0  0  0
  161.9740  209.0320  150.9530 N   0  0  2  0  0  0  0  0  0  0  0  0
  160.7370  207.9280  152.7170 C   0  0  0  0  0  2  0  0  0  0  0  0
  161.3330  209.8100  149.8900 C   0  0  0  0  0  2  0  0  0  0  0  0
  161.8960  207.5820  150.6830 C   0  0  1  0  0  3  0  0  0  0  0  0
  162.5720  208.2030  148.3550 C   0  0  0  0  0  2  0  0  0  0  0  0
  160.8080  206.9880  151.5480 C   0  0  0  0  0  2  0  0  0  0  0  0
  162.0860  209.6420  148.5690 C   0  0  0  0  0  2  0  0  0  0  0  0
  162.3410  205.8490  149.0210 N   0  0  0  0  0  2  0  0  0  0  0  0
  161.4350  205.0060  148.2450 C   0  0  1  0  0  3  0  0  0  0  0  0
  161.9800  204.8320  146.8390 C   0  0  0  0  0  1  0  0  0  0  0  0
  161.2710  203.6750  148.9050 C   0  0  0  0  0  0  0  0  0  0  0  0
  161.0070  202.3850  150.9380 N   0  0  0  0  0  0  0  0  0  0  0  0
  159.7960  201.4960  149.0140 C   0  0  0  0  0  2  0  0  0  0  0  0
  160.3510  201.3960  150.4020 C   0  0  0  0  0  3  0  0  0  0  0  0
  161.0750  202.1780  147.9170 S   0  0  0  0  0  0  0  0  0  0  0  0
  161.2960  203.6050  150.2380 C   0  0  0  0  0  3  0  0  0  0  0  0
  1 23  1  0  0  0  0
  2  5  1  0  0  0  0
  2  6  1  0  0  0  0
  3 10  1  0  0  0  0
  4  7  1  0  0  0  0
  4  8  1  0  0  0  0
  7  9  1  0  0  0  0
  8  2  2  0  0  0  0
  9  5  2  0  0  0  0
 10  1  1  0  0  0  0
 10  7  2  0  0  0  0
 11  3  2  0  0  0  0
 11 12  1  0  0  0  0
 12  4  2  0  0  0  0
 13  3  1  0  0  0  0
 14 13  1  0  0  0  0
 15 14  1  0  0  0  0
 16 19  1  0  0  0  0
 17 22  1  0  0  0  0
 18 21  1  0  0  0  0
 18 17  1  0  0  0  0
 19 20  1  0  0  0  0
 20 15  1  1  0  0  0
 21 16  1  0  0  0  0
 22 20  1  0  0  0  0
 24 23  1  0  0  0  0
 25 29  1  0  0  0  0
 25 24  1  1  0  0  0
 27 26  1  6  0  0  0
 27 31  1  0  0  0  0
 28 30  1  6  0  0  0
 28 25  1  0  0  0  0
 31 28  1  0  0  0  0
 31 33  1  1  0  0  0
 32 34  1  0  0  0  0
 32 27  1  0  0  0  0
 33 29  1  0  0  0  0
 34 30  1  0  0  0  0
 35 27  1  0  0  0  0
 36 37  1  6  0  0  0
 36 38  1  0  0  0  0
 36 35  1  0  0  0  0
 38 43  2  0  0  0  0
 40 41  1  0  0  0  0
 41 39  2  0  0  0  0
 42 38  1  0  0  0  0
 42 40  1  0  0  0  0
 43 39  1  0  0  0  0
M  END
>  <MODEL>
4

>  <REMARK>
 VINA RESULT:      -7.4      2.906      8.953
  Name = 
  11 active torsions:
  status: ('A' for Active; 'I' for Inactive)
    1  A    between atoms: C_1  and  C_28
    2  A    between atoms: C_1  and  C_34
    3  A    between atoms: C_2  and  C_13
    4  A    between atoms: C_4  and  N_22
    5  A    between atoms: C_8  and  C_34
    6  A    between atoms: C_11  and  C_14
    7  A    between atoms: C_13  and  C_38
    8  A    between atoms: C_14  and  N_22
    9  A    between atoms: O_27  and  C_30
   10  A    between atoms: O_27  and  C_38
   11  A    between atoms: C_28  and  C_35
                            x       y       z     vdW  Elec       q    Type
                         _______ _______ _______ _____ _____    ______ ____

>  <TORSDO>
F 11

$$$$
=
 OpenBabel11062410213D

 43 48  0  0  1  0  0  0  0  0999 V2000
  160.9970  212.0390  151.1890 O   0  0  0  0  0  0  0  0  0  0  0  0
  162.0140  213.3370  146.4440 C   0  0  0  0  0  0  0  0  0  0  0  0
  159.0160  213.3400  150.4450 C   0  0  0  0  0  0  0  0  0  0  0  0
  160.2230  213.6880  147.9610 C   0  0  0  0  0  0  0  0  0  0  0  0
  162.7080  212.5910  147.4010 C   0  0  0  0  0  3  0  0  0  0  0  0
  162.6090  213.5530  145.1000 C   0  0  0  0  0  1  0  0  0  0  0  0
  160.8850  212.9420  148.9560 C   0  0  0  0  0  0  0  0  0  0  0  0
  160.7970  213.8670  146.7410 N   0  0  0  0  0  0  0  0  0  0  0  0
  162.1390  212.3960  148.6600 C   0  0  0  0  0  3  0  0  0  0  0  0
  160.2950  212.7720  150.2190 C   0  0  0  0  0  0  0  0  0  0  0  0
  158.4060  214.0500  149.4550 N   0  0  0  0  0  0  0  0  0  0  0  0
  158.9760  214.2400  148.2380 C   0  0  0  0  0  3  0  0  0  0  0  0
  158.2530  213.1130  151.7120 C   0  0  0  0  0  2  0  0  0  0  0  0
  157.0720  214.0680  151.8090 C   0  0  0  0  0  2  0  0  0  0  0  0
  156.5860  214.1800  153.2460 C   0  0  0  0  0  2  0  0  0  0  0  0
  156.8440  211.2570  155.7950 C   0  0  0  0  0  2  0  0  0  0  0  0
  159.5170  212.7420  155.4800 C   0  0  0  0  0  2  0  0  0  0  0  0
  159.0140  211.4950  156.1990 C   0  0  0  0  0  2  0  0  0  0  0  0
  156.2480  212.1940  154.7460 C   0  0  0  0  0  2  0  0  0  0  0  0
  157.2730  213.1570  154.1360 C   0  0  2  0  0  3  0  0  0  0  0  0
  158.1030  210.7980  155.3950 O   0  0  0  0  0  0  0  0  0  0  0  0
  158.2250  214.0300  155.4230 S   0  0  0  0  0  0  0  0  0  0  0  0
  161.7430  210.8620  150.9140 C   0  0  0  0  0  2  0  0  0  0  0  0
  161.1440  209.6820  151.6610 C   0  0  0  0  0  2  0  0  0  0  0  0
  161.9050  208.3990  151.3580 C   0  0  1  0  0  3  0  0  0  0  0  0
  162.4540  204.4500  150.8980 F   0  0  0  0  0  0  0  0  0  0  0  0
  161.1190  204.8400  150.9000 C   0  0  2  0  0  0  0  0  0  0  0  0
  161.1380  207.2320  151.7930 N   0  0  2  0  0  0  0  0  0  0  0  0
  162.1480  208.2920  149.8650 C   0  0  0  0  0  2  0  0  0  0  0  0
  161.9180  206.5940  152.8570 C   0  0  0  0  0  2  0  0  0  0  0  0
  161.0140  206.3540  150.6120 C   0  0  1  0  0  3  0  0  0  0  0  0
  160.5080  204.5570  152.2780 C   0  0  0  0  0  2  0  0  0  0  0  0
  161.9780  206.8340  149.5510 C   0  0  0  0  0  2  0  0  0  0  0  0
  161.1900  205.3600  153.3920 C   0  0  0  0  0  2  0  0  0  0  0  0
  160.3760  204.1190  149.8630 N   0  0  0  0  0  2  0  0  0  0  0  0
  161.1300  202.9570  149.3990 C   0  0  1  0  0  3  0  0  0  0  0  0
  160.3940  201.6870  149.7790 C   0  0  0  0  0  1  0  0  0  0  0  0
  161.3240  203.0220  147.9190 C   0  0  0  0  0  0  0  0  0  0  0  0
  160.7940  202.1650  145.7150 N   0  0  0  0  0  0  0  0  0  0  0  0
  161.1740  204.5740  145.7960 C   0  0  0  0  0  2  0  0  0  0  0  0
  161.0040  203.2760  145.0700 C   0  0  0  0  0  3  0  0  0  0  0  0
  162.3270  204.3280  147.1810 S   0  0  0  0  0  0  0  0  0  0  0  0
  160.7640  202.0850  147.1490 C   0  0  0  0  0  3  0  0  0  0  0  0
  2  8  2  0  0  0  0
  2  5  1  0  0  0  0
  3 13  1  0  0  0  0
  4 12  2  0  0  0  0
  4  7  1  0  0  0  0
  5  9  2  0  0  0  0
  6  2  1  0  0  0  0
  7 10  2  0  0  0  0
  8  4  1  0  0  0  0
  9  7  1  0  0  0  0
 10  3  1  0  0  0  0
 10  1  1  0  0  0  0
 11  3  2  0  0  0  0
 12 11  1  0  0  0  0
 13 14  1  0  0  0  0
 14 15  1  0  0  0  0
 17 18  1  0  0  0  0
 19 16  1  0  0  0  0
 20 15  1  1  0  0  0
 20 19  1  0  0  0  0
 20 22  1  0  0  0  0
 21 16  1  0  0  0  0
 21 18  1  0  0  0  0
 22 17  1  0  0  0  0
 23  1  1  0  0  0  0
 23 24  1  0  0  0  0
 25 24  1  6  0  0  0
 25 28  1  0  0  0  0
 27 26  1  6  0  0  0
 27 32  1  0  0  0  0
 28 30  1  1  0  0  0
 29 25  1  0  0  0  0
 30 34  1  0  0  0  0
 31 33  1  6  0  0  0
 31 27  1  0  0  0  0
 31 28  1  0  0  0  0
 32 34  1  0  0  0  0
 33 29  1  0  0  0  0
 35 27  1  0  0  0  0
 36 37  1  6  0  0  0
 36 35  1  0  0  0  0
 38 36  1  0  0  0  0
 39 43  1  0  0  0  0
 40 42  1  0  0  0  0
 41 39  2  0  0  0  0
 41 40  1  0  0  0  0
 42 38  1  0  0  0  0
 43 38  2  0  0  0  0
M  END
>  <MODEL>
5

>  <REMARK>
 VINA RESULT:      -7.4      2.912      9.079
  Name = 
  11 active torsions:
  status: ('A' for Active; 'I' for Inactive)
    1  A    between atoms: C_1  and  C_28
    2  A    between atoms: C_1  and  C_34
    3  A    between atoms: C_2  and  C_13
    4  A    between atoms: C_4  and  N_22
    5  A    between atoms: C_8  and  C_34
    6  A    between atoms: C_11  and  C_14
    7  A    between atoms: C_13  and  C_38
    8  A    between atoms: C_14  and  N_22
    9  A    between atoms: O_27  and  C_30
   10  A    between atoms: O_27  and  C_38
   11  A    between atoms: C_28  and  C_35
                            x       y       z     vdW  Elec       q    Type
                         _______ _______ _______ _____ _____    ______ ____

>  <TORSDO>
F 11

$$$$
=
 OpenBabel11062410213D

 43 48  0  0  1  0  0  0  0  0999 V2000
  160.0540  212.0670  151.4280 O   0  0  0  0  0  0  0  0  0  0  0  0
  157.2260  211.8220  155.5720 C   0  0  0  0  0  0  0  0  0  0  0  0
  161.1880  210.3970  152.8750 C   0  0  0  0  0  0  0  0  0  0  0  0
  159.2190  210.7870  154.8040 C   0  0  0  0  0  0  0  0  0  0  0  0
  157.1200  212.5500  154.3840 C   0  0  0  0  0  3  0  0  0  0  0  0
  156.2030  211.9870  156.6370 C   0  0  0  0  0  1  0  0  0  0  0  0
  159.1520  211.4980  153.5900 C   0  0  0  0  0  0  0  0  0  0  0  0
  158.2650  210.9630  155.7570 N   0  0  0  0  0  0  0  0  0  0  0  0
  158.0880  212.3860  153.3930 C   0  0  0  0  0  3  0  0  0  0  0  0
  160.1470  211.3240  152.6150 C   0  0  0  0  0  0  0  0  0  0  0  0
  161.2140  209.7240  154.0600 N   0  0  0  0  0  0  0  0  0  0  0  0
  160.2700  209.9010  155.0190 C   0  0  0  0  0  3  0  0  0  0  0  0
  162.2250  210.0510  151.8530 C   0  0  0  0  0  2  0  0  0  0  0  0
  162.2380  208.5540  151.5850 C   0  0  0  0  0  2  0  0  0  0  0  0
  160.8330  208.0430  151.3060 C   0  0  0  0  0  2  0  0  0  0  0  0
  161.5760  204.2450  150.9460 C   0  0  0  0  0  2  0  0  0  0  0  0
  160.9650  205.5550  148.2330 C   0  0  0  0  0  2  0  0  0  0  0  0
  161.2060  204.1440  148.7590 C   0  0  0  0  0  2  0  0  0  0  0  0
  161.3370  205.6010  151.6070 C   0  0  0  0  0  2  0  0  0  0  0  0
  160.8700  206.6830  150.6270 C   0  0  2  0  0  3  0  0  0  0  0  0
  160.5820  203.9700  150.0010 O   0  0  0  0  0  0  0  0  0  0  0  0
  161.9520  206.7770  149.1620 S   0  0  0  0  0  0  0  0  0  0  0  0
  159.8430  213.4710  151.3800 C   0  0  0  0  0  2  0  0  0  0  0  0
  160.3420  214.0260  150.0570 C   0  0  0  0  0  2  0  0  0  0  0  0
  159.9380  213.1260  148.8980 C   0  0  1  0  0  3  0  0  0  0  0  0
  158.5200  212.1970  145.2600 F   0  0  0  0  0  0  0  0  0  0  0  0
  158.8720  213.5350  145.4060 C   0  0  2  0  0  0  0  0  0  0  0  0
  159.1400  213.8680  147.9240 N   0  0  2  0  0  0  0  0  0  0  0  0
  161.1800  212.5970  148.2070 C   0  0  0  0  0  2  0  0  0  0  0  0
  157.8080  213.2570  147.9230 C   0  0  0  0  0  2  0  0  0  0  0  0
  159.8130  213.7000  146.6210 C   0  0  1  0  0  3  0  0  0  0  0  0
  157.6100  214.3720  145.6440 C   0  0  0  0  0  2  0  0  0  0  0  0
  160.8350  212.5920  146.7460 C   0  0  0  0  0  2  0  0  0  0  0  0
  156.8860  213.9760  146.9370 C   0  0  0  0  0  2  0  0  0  0  0  0
  159.5740  214.0110  144.2110 N   0  0  0  0  0  2  0  0  0  0  0  0
  159.1380  213.2730  143.0270 C   0  0  1  0  0  3  0  0  0  0  0  0
  158.5650  214.2390  142.0070 C   0  0  0  0  0  1  0  0  0  0  0  0
  160.2820  212.5150  142.4390 C   0  0  0  0  0  0  0  0  0  0  0  0
  161.1170  211.0010  140.7410 N   0  0  0  0  0  0  0  0  0  0  0  0
  162.7060  212.7200  141.4300 C   0  0  0  0  0  2  0  0  0  0  0  0
  162.3410  211.4440  140.7380 C   0  0  0  0  0  3  0  0  0  0  0  0
  161.9540  212.7280  143.0850 S   0  0  0  0  0  0  0  0  0  0  0  0
  160.0490  211.6570  141.4420 C   0  0  0  0  0  3  0  0  0  0  0  0
  1 10  1  0  0  0  0
  2  8  1  0  0  0  0
  2  6  1  0  0  0  0
  3 11  1  0  0  0  0
  4 12  1  0  0  0  0
  4  8  2  0  0  0  0
  5  2  2  0  0  0  0
  7  4  1  0  0  0  0
  9  7  2  0  0  0  0
  9  5  1  0  0  0  0
 10  3  2  0  0  0  0
 10  7  1  0  0  0  0
 11 12  2  0  0  0  0
 13  3  1  0  0  0  0
 14 13  1  0  0  0  0
 15 14  1  0  0  0  0
 16 19  1  0  0  0  0
 17 18  1  0  0  0  0
 17 22  1  0  0  0  0
 18 21  1  0  0  0  0
 20 15  1  1  0  0  0
 20 19  1  0  0  0  0
 21 16  1  0  0  0  0
 22 20  1  0  0  0  0
 23  1  1  0  0  0  0
 24 23  1  0  0  0  0
 25 24  1  1  0  0  0
 27 26  1  6  0  0  0
 27 32  1  0  0  0  0
 27 31  1  0  0  0  0
 28 30  1  6  0  0  0
 28 25  1  0  0  0  0
 29 25  1  0  0  0  0
 31 33  1  1  0  0  0
 31 28  1  0  0  0  0
 32 34  1  0  0  0  0
 33 29  1  0  0  0  0
 34 30  1  0  0  0  0
 35 27  1  0  0  0  0
 36 37  1  6  0  0  0
 36 35  1  0  0  0  0
 38 36  1  0  0  0  0
 38 42  1  0  0  0  0
 39 43  1  0  0  0  0
 40 42  1  0  0  0  0
 41 39  2  0  0  0  0
 41 40  1  0  0  0  0
 43 38  2  0  0  0  0
M  END
>  <MODEL>
6

>  <REMARK>
 VINA RESULT:      -7.0      3.942     10.193
  Name = 
  11 active torsions:
  status: ('A' for Active; 'I' for Inactive)
    1  A    between atoms: C_1  and  C_28
    2  A    between atoms: C_1  and  C_34
    3  A    between atoms: C_2  and  C_13
    4  A    between atoms: C_4  and  N_22
    5  A    between atoms: C_8  and  C_34
    6  A    between atoms: C_11  and  C_14
    7  A    between atoms: C_13  and  C_38
    8  A    between atoms: C_14  and  N_22
    9  A    between atoms: O_27  and  C_30
   10  A    between atoms: O_27  and  C_38
   11  A    between atoms: C_28  and  C_35
                            x       y       z     vdW  Elec       q    Type
                         _______ _______ _______ _____ _____    ______ ____

>  <TORSDO>
F 11

$$$$
=
 OpenBabel11062410213D

 43 48  0  0  1  0  0  0  0  0999 V2000
  160.9760  211.5110  152.2050 O   0  0  0  0  0  0  0  0  0  0  0  0
  160.0810  208.5960  156.1960 C   0  0  0  0  0  0  0  0  0  0  0  0
  158.9820  212.5150  153.2930 C   0  0  0  0  0  0  0  0  0  0  0  0
  159.0850  210.5230  155.2350 C   0  0  0  0  0  0  0  0  0  0  0  0
  161.0620  208.5780  155.2010 C   0  0  0  0  0  3  0  0  0  0  0  0
  160.0880  207.5590  157.2610 C   0  0  0  0  0  1  0  0  0  0  0  0
  160.0540  210.5460  154.2120 C   0  0  0  0  0  0  0  0  0  0  0  0
  159.1200  209.5580  156.1930 N   0  0  0  0  0  0  0  0  0  0  0  0
  161.0440  209.5570  154.2070 C   0  0  0  0  0  3  0  0  0  0  0  0
  160.0050  211.5350  153.2170 C   0  0  0  0  0  0  0  0  0  0  0  0
  158.0670  212.4610  154.3010 N   0  0  0  0  0  0  0  0  0  0  0  0
  158.0910  211.4960  155.2560 C   0  0  0  0  0  3  0  0  0  0  0  0
  158.9170  213.6770  152.3520 C   0  0  0  0  0  2  0  0  0  0  0  0
  158.6460  213.2050  150.9310 C   0  0  0  0  0  2  0  0  0  0  0  0
  159.4890  213.9850  149.9340 C   0  0  0  0  0  2  0  0  0  0  0  0
  157.2140  212.5870  147.1100 C   0  0  0  0  0  2  0  0  0  0  0  0
  159.9410  213.5080  146.0320 C   0  0  0  0  0  2  0  0  0  0  0  0
  158.6260  213.0030  145.4480 C   0  0  0  0  0  2  0  0  0  0  0  0
  157.6550  213.0430  148.4990 C   0  0  0  0  0  2  0  0  0  0  0  0
  159.0270  213.7270  148.5090 C   0  0  2  0  0  3  0  0  0  0  0  0
  157.5390  213.5450  146.1440 O   0  0  0  0  0  0  0  0  0  0  0  0
  160.2840  212.7270  147.6460 S   0  0  0  0  0  0  0  0  0  0  0  0
  161.8150  210.3970  151.9310 C   0  0  0  0  0  2  0  0  0  0  0  0
  161.2260  209.5700  150.8010 C   0  0  0  0  0  2  0  0  0  0  0  0
  161.9640  208.2470  150.6470 C   0  0  1  0  0  3  0  0  0  0  0  0
  162.4500  204.2640  150.6650 F   0  0  0  0  0  0  0  0  0  0  0  0
  161.1200  204.6720  150.6360 C   0  0  2  0  0  0  0  0  0  0  0  0
  161.1870  207.1550  151.2300 N   0  0  2  0  0  0  0  0  0  0  0  0
  162.1850  207.9560  149.1760 C   0  0  0  0  0  2  0  0  0  0  0  0
  161.9720  206.6380  152.3550 C   0  0  0  0  0  2  0  0  0  0  0  0
  161.0340  206.1420  150.1670 C   0  0  1  0  0  3  0  0  0  0  0  0
  160.5250  204.5680  152.0450 C   0  0  0  0  0  2  0  0  0  0  0  0
  161.9900  206.4730  149.0440 C   0  0  0  0  0  2  0  0  0  0  0  0
  161.2340  205.4900  153.0450 C   0  0  0  0  0  2  0  0  0  0  0  0
  160.3530  203.8430  149.7030 N   0  0  0  0  0  2  0  0  0  0  0  0
  161.1530  202.7110  149.2390 C   0  0  1  0  0  3  0  0  0  0  0  0
  160.5600  201.4180  149.7660 C   0  0  0  0  0  1  0  0  0  0  0  0
  161.2010  202.6890  147.7460 C   0  0  0  0  0  0  0  0  0  0  0  0
  160.4580  201.7080  145.6580 N   0  0  0  0  0  0  0  0  0  0  0  0
  160.8460  204.1160  145.5610 C   0  0  0  0  0  2  0  0  0  0  0  0
  160.6050  202.7780  144.9320 C   0  0  0  0  0  3  0  0  0  0  0  0
  162.1280  203.9430  146.8380 S   0  0  0  0  0  0  0  0  0  0  0  0
  160.5680  201.7120  147.0900 C   0  0  0  0  0  3  0  0  0  0  0  0
  1 10  1  0  0  0  0
  2  6  1  0  0  0  0
  3 11  1  0  0  0  0
  4 12  1  0  0  0  0
  4  8  2  0  0  0  0
  5  2  2  0  0  0  0
  7  4  1  0  0  0  0
  8  2  1  0  0  0  0
  9  7  2  0  0  0  0
  9  5  1  0  0  0  0
 10  3  2  0  0  0  0
 10  7  1  0  0  0  0
 11 12  2  0  0  0  0
 13  3  1  0  0  0  0
 14 13  1  0  0  0  0
 15 14  1  0  0  0  0
 16 19  1  0  0  0  0
 17 22  1  0  0  0  0
 18 17  1  0  0  0  0
 18 21  1  0  0  0  0
 19 20  1  0  0  0  0
 20 15  1  1  0  0  0
 21 16  1  0  0  0  0
 22 20  1  0  0  0  0
 23  1  1  0  0  0  0
 24 23  1  0  0  0  0
 25 24  1  6  0  0  0
 25 28  1  0  0  0  0
 27 26  1  1  0  0  0
 27 32  1  0  0  0  0
 28 30  1  1  0  0  0
 29 25  1  0  0  0  0
 30 34  1  0  0  0  0
 31 33  1  6  0  0  0
 31 27  1  0  0  0  0
 31 28  1  0  0  0  0
 32 34  1  0  0  0  0
 33 29  1  0  0  0  0
 35 27  1  0  0  0  0
 36 35  1  0  0  0  0
 36 37  1  6  0  0  0
 38 36  1  0  0  0  0
 39 43  1  0  0  0  0
 40 42  1  0  0  0  0
 41 40  1  0  0  0  0
 41 39  2  0  0  0  0
 42 38  1  0  0  0  0
 43 38  2  0  0  0  0
M  END
>  <MODEL>
7

>  <REMARK>
 VINA RESULT:      -6.9      2.776      8.536
  Name = 
  11 active torsions:
  status: ('A' for Active; 'I' for Inactive)
    1  A    between atoms: C_1  and  C_28
    2  A    between atoms: C_1  and  C_34
    3  A    between atoms: C_2  and  C_13
    4  A    between atoms: C_4  and  N_22
    5  A    between atoms: C_8  and  C_34
    6  A    between atoms: C_11  and  C_14
    7  A    between atoms: C_13  and  C_38
    8  A    between atoms: C_14  and  N_22
    9  A    between atoms: O_27  and  C_30
   10  A    between atoms: O_27  and  C_38
   11  A    between atoms: C_28  and  C_35
                            x       y       z     vdW  Elec       q    Type
                         _______ _______ _______ _____ _____    ______ ____

>  <TORSDO>
F 11

$$$$
=
 OpenBabel11062410213D

 43 48  0  0  1  0  0  0  0  0999 V2000
  161.9770  211.7620  148.9280 O   0  0  0  0  0  0  0  0  0  0  0  0
  159.3820  213.9600  145.2300 C   0  0  0  0  0  0  0  0  0  0  0  0
  160.2020  213.0630  150.0800 C   0  0  0  0  0  0  0  0  0  0  0  0
  159.2760  213.9260  147.6010 C   0  0  0  0  0  0  0  0  0  0  0  0
  160.4770  213.0930  145.2450 C   0  0  0  0  0  3  0  0  0  0  0  0
  158.8430  214.4510  143.9360 C   0  0  0  0  0  1  0  0  0  0  0  0
  160.3770  213.0500  147.6640 C   0  0  0  0  0  0  0  0  0  0  0  0
  158.8090  214.3570  146.3980 N   0  0  0  0  0  0  0  0  0  0  0  0
  160.9750  212.6390  146.4670 C   0  0  0  0  0  3  0  0  0  0  0  0
  160.8650  212.6190  148.9080 C   0  0  0  0  0  0  0  0  0  0  0  0
  159.1370  213.9060  149.9770 N   0  0  0  0  0  0  0  0  0  0  0  0
  158.6700  214.3470  148.7810 C   0  0  0  0  0  3  0  0  0  0  0  0
  160.5680  212.5650  151.4430 C   0  0  0  0  0  2  0  0  0  0  0  0
  159.3560  211.9680  152.1430 C   0  0  0  0  0  2  0  0  0  0  0  0
  159.7210  210.6620  152.8330 C   0  0  0  0  0  2  0  0  0  0  0  0
  161.9190  209.9910  155.9670 C   0  0  0  0  0  2  0  0  0  0  0  0
  159.7570  212.1060  156.5160 C   0  0  0  0  0  2  0  0  0  0  0  0
  160.9510  211.5150  157.2590 C   0  0  0  0  0  2  0  0  0  0  0  0
  161.4150  209.9100  154.5280 C   0  0  0  0  0  2  0  0  0  0  0  0
  160.3050  210.9190  154.2130 C   0  0  2  0  0  3  0  0  0  0  0  0
  162.0270  211.3210  156.3830 O   0  0  0  0  0  0  0  0  0  0  0  0
  158.9660  210.8540  155.4490 S   0  0  0  0  0  0  0  0  0  0  0  0
  161.9100  210.3640  148.6860 C   0  0  0  0  0  2  0  0  0  0  0  0
  161.6120  209.6280  149.9810 C   0  0  0  0  0  2  0  0  0  0  0  0
  162.2680  208.2540  149.9930 C   0  0  1  0  0  3  0  0  0  0  0  0
  162.4750  204.2610  150.3400 F   0  0  0  0  0  0  0  0  0  0  0  0
  161.1850  204.7470  150.1550 C   0  0  2  0  0  0  0  0  0  0  0  0
  161.3680  207.2600  150.5750 N   0  0  2  0  0  0  0  0  0  0  0  0
  162.6020  207.8370  148.5740 C   0  0  0  0  0  2  0  0  0  0  0  0
  162.0100  206.7840  151.8030 C   0  0  0  0  0  2  0  0  0  0  0  0
  161.2430  206.1790  149.5770 C   0  0  1  0  0  3  0  0  0  0  0  0
  160.4580  204.7900  151.5040 C   0  0  0  0  0  2  0  0  0  0  0  0
  162.3180  206.3630  148.5290 C   0  0  0  0  0  2  0  0  0  0  0  0
  161.1350  205.7400  152.4990 C   0  0  0  0  0  2  0  0  0  0  0  0
  160.4510  203.8980  149.2140 N   0  0  0  0  0  2  0  0  0  0  0  0
  161.3220  202.8620  148.6640 C   0  0  1  0  0  3  0  0  0  0  0  0
  161.0040  201.5300  149.3170 C   0  0  0  0  0  1  0  0  0  0  0  0
  161.1450  202.7680  147.1830 C   0  0  0  0  0  0  0  0  0  0  0  0
  160.0700  201.7210  145.2810 N   0  0  0  0  0  0  0  0  0  0  0  0
  160.5120  204.1060  145.0050 C   0  0  0  0  0  2  0  0  0  0  0  0
  160.1400  202.7500  144.4870 C   0  0  0  0  0  3  0  0  0  0  0  0
  161.9640  203.9450  146.0860 S   0  0  0  0  0  0  0  0  0  0  0  0
  160.3930  201.7870  146.6790 C   0  0  0  0  0  3  0  0  0  0  0  0
  2  5  2  0  0  0  0
  2  8  1  0  0  0  0
  3 13  1  0  0  0  0
  4  7  1  0  0  0  0
  4 12  1  0  0  0  0
  5  9  1  0  0  0  0
  6  2  1  0  0  0  0
  7 10  1  0  0  0  0
  8  4  2  0  0  0  0
  9  7  2  0  0  0  0
 10  1  1  0  0  0  0
 10  3  2  0  0  0  0
 11  3  1  0  0  0  0
 12 11  2  0  0  0  0
 13 14  1  0  0  0  0
 14 15  1  0  0  0  0
 16 21  1  0  0  0  0
 17 18  1  0  0  0  0
 19 16  1  0  0  0  0
 20 15  1  6  0  0  0
 20 19  1  0  0  0  0
 20 22  1  0  0  0  0
 21 18  1  0  0  0  0
 22 17  1  0  0  0  0
 23  1  1  0  0  0  0
 23 24  1  0  0  0  0
 25 24  1  6  0  0  0
 25 28  1  0  0  0  0
 27 26  1  1  0  0  0
 27 32  1  0  0  0  0
 28 30  1  1  0  0  0
 29 25  1  0  0  0  0
 30 34  1  0  0  0  0
 31 33  1  6  0  0  0
 31 27  1  0  0  0  0
 31 28  1  0  0  0  0
 32 34  1  0  0  0  0
 33 29  1  0  0  0  0
 35 27  1  0  0  0  0
 36 35  1  0  0  0  0
 36 37  1  1  0  0  0
 38 36  1  0  0  0  0
 39 43  1  0  0  0  0
 40 42  1  0  0  0  0
 41 40  1  0  0  0  0
 41 39  2  0  0  0  0
 42 38  1  0  0  0  0
 43 38  2  0  0  0  0
M  END
>  <MODEL>
8

>  <REMARK>
 VINA RESULT:      -6.7      3.064      9.318
  Name = 
  11 active torsions:
  status: ('A' for Active; 'I' for Inactive)
    1  A    between atoms: C_1  and  C_28
    2  A    between atoms: C_1  and  C_34
    3  A    between atoms: C_2  and  C_13
    4  A    between atoms: C_4  and  N_22
    5  A    between atoms: C_8  and  C_34
    6  A    between atoms: C_11  and  C_14
    7  A    between atoms: C_13  and  C_38
    8  A    between atoms: C_14  and  N_22
    9  A    between atoms: O_27  and  C_30
   10  A    between atoms: O_27  and  C_38
   11  A    between atoms: C_28  and  C_35
                            x       y       z     vdW  Elec       q    Type
                         _______ _______ _______ _____ _____    ______ ____

>  <TORSDO>
F 11

$$$$
=
 OpenBabel11062410213D

 43 48  0  0  1  0  0  0  0  0999 V2000
  161.4110  207.8250  152.6920 O   0  0  0  0  0  0  0  0  0  0  0  0
  159.1390  210.8300  156.0150 C   0  0  0  0  0  0  0  0  0  0  0  0
  161.4430  210.0760  151.6420 C   0  0  0  0  0  0  0  0  0  0  0  0
  160.1190  211.0930  153.8700 C   0  0  0  0  0  0  0  0  0  0  0  0
  159.4530  209.4680  156.0160 C   0  0  0  0  0  3  0  0  0  0  0  0
  158.4350  211.4290  157.1790 C   0  0  0  0  0  1  0  0  0  0  0  0
  160.4580  209.7260  153.8270 C   0  0  0  0  0  0  0  0  0  0  0  0
  159.4740  211.6080  154.9510 N   0  0  0  0  0  0  0  0  0  0  0  0
  160.1130  208.9180  154.9170 C   0  0  0  0  0  3  0  0  0  0  0  0
  161.1100  209.1960  152.7030 C   0  0  0  0  0  0  0  0  0  0  0  0
  161.1030  211.3930  151.7230 N   0  0  0  0  0  0  0  0  0  0  0  0
  160.4520  211.9120  152.7950 C   0  0  0  0  0  3  0  0  0  0  0  0
  162.2430  209.6330  150.4580 C   0  0  0  0  0  2  0  0  0  0  0  0
  161.6750  210.2200  149.1740 C   0  0  0  0  0  2  0  0  0  0  0  0
  162.2840  211.5860  148.8900 C   0  0  0  0  0  2  0  0  0  0  0  0
  161.5840  213.8320  145.7970 C   0  0  0  0  0  2  0  0  0  0  0  0
  159.1260  213.6070  147.6270 C   0  0  0  0  0  2  0  0  0  0  0  0
  159.4480  214.2110  146.2650 C   0  0  0  0  0  2  0  0  0  0  0  0
  162.3250  212.8920  146.7460 C   0  0  0  0  0  2  0  0  0  0  0  0
  161.4470  212.3570  147.8820 C   0  0  2  0  0  3  0  0  0  0  0  0
  160.2930  213.3630  145.5380 O   0  0  0  0  0  0  0  0  0  0  0  0
  160.5670  213.7030  148.7430 S   0  0  0  0  0  0  0  0  0  0  0  0
  160.7460  206.8700  151.8780 C   0  0  0  0  0  2  0  0  0  0  0  0
  161.0700  205.4650  152.3580 C   0  0  0  0  0  2  0  0  0  0  0  0
  161.7820  204.6660  151.2760 C   0  0  1  0  0  3  0  0  0  0  0  0
  162.1870  201.9530  148.3460 F   0  0  0  0  0  0  0  0  0  0  0  0
  160.8660  202.2860  148.6320 C   0  0  2  0  0  0  0  0  0  0  0  0
  160.9730  203.5200  150.8650 N   0  0  2  0  0  0  0  0  0  0  0  0
  162.0240  205.5500  150.0670 C   0  0  0  0  0  2  0  0  0  0  0  0
  161.7270  202.3210  151.2400 C   0  0  0  0  0  2  0  0  0  0  0  0
  160.8180  203.6250  149.4000 C   0  0  1  0  0  3  0  0  0  0  0  0
  160.2440  201.1920  149.5080 C   0  0  0  0  0  2  0  0  0  0  0  0
  161.8010  204.6520  148.8840 C   0  0  0  0  0  2  0  0  0  0  0  0
  160.9540  201.0570  150.8610 C   0  0  0  0  0  2  0  0  0  0  0  0
  160.0990  202.4360  147.3930 N   0  0  0  0  0  2  0  0  0  0  0  0
  160.9310  202.1380  146.2290 C   0  0  1  0  0  3  0  0  0  0  0  0
  160.1980  201.1780  145.3110 C   0  0  0  0  0  1  0  0  0  0  0  0
  161.2720  203.3960  145.4990 C   0  0  0  0  0  0  0  0  0  0  0  0
  160.5600  205.2470  144.1080 N   0  0  0  0  0  0  0  0  0  0  0  0
  162.2820  205.8160  145.7410 C   0  0  0  0  0  2  0  0  0  0  0  0
  161.4500  206.0990  144.5280 C   0  0  0  0  0  3  0  0  0  0  0  0
  162.9210  204.1170  145.6330 S   0  0  0  0  0  0  0  0  0  0  0  0
  160.3460  203.9680  144.7250 C   0  0  0  0  0  3  0  0  0  0  0  0
  1 10  1  0  0  0  0
  2  5  1  0  0  0  0
  2  6  1  0  0  0  0
  3 11  2  0  0  0  0
  3 10  1  0  0  0  0
  4  8  1  0  0  0  0
  7  4  1  0  0  0  0
  7  9  1  0  0  0  0
  8  2  2  0  0  0  0
  9  5  2  0  0  0  0
 10  7  2  0  0  0  0
 11 12  1  0  0  0  0
 12  4  2  0  0  0  0
 13  3  1  0  0  0  0
 14 13  1  0  0  0  0
 15 14  1  0  0  0  0
 16 19  1  0  0  0  0
 17 22  1  0  0  0  0
 18 17  1  0  0  0  0
 19 20  1  0  0  0  0
 20 22  1  0  0  0  0
 20 15  1  1  0  0  0
 21 16  1  0  0  0  0
 21 18  1  0  0  0  0
 23 24  1  0  0  0  0
 23  1  1  0  0  0  0
 25 24  1  1  0  0  0
 27 26  1  6  0  0  0
 27 31  1  0  0  0  0
 27 32  1  0  0  0  0
 28 30  1  6  0  0  0
 28 25  1  0  0  0  0
 29 25  1  0  0  0  0
 31 33  1  6  0  0  0
 31 28  1  0  0  0  0
 32 34  1  0  0  0  0
 33 29  1  0  0  0  0
 34 30  1  0  0  0  0
 35 27  1  0  0  0  0
 36 37  1  6  0  0  0
 36 35  1  0  0  0  0
 38 42  1  0  0  0  0
 38 36  1  0  0  0  0
 39 41  2  0  0  0  0
 39 43  1  0  0  0  0
 41 40  1  0  0  0  0
 42 40  1  0  0  0  0
 43 38  2  0  0  0  0
M  END
>  <MODEL>
9

>  <REMARK>
 VINA RESULT:      -6.6      2.811      8.763
  Name = 
  11 active torsions:
  status: ('A' for Active; 'I' for Inactive)
    1  A    between atoms: C_1  and  C_28
    2  A    between atoms: C_1  and  C_34
    3  A    between atoms: C_2  and  C_13
    4  A    between atoms: C_4  and  N_22
    5  A    between atoms: C_8  and  C_34
    6  A    between atoms: C_11  and  C_14
    7  A    between atoms: C_13  and  C_38
    8  A    between atoms: C_14  and  N_22
    9  A    between atoms: O_27  and  C_30
   10  A    between atoms: O_27  and  C_38
   11  A    between atoms: C_28  and  C_35
                            x       y       z     vdW  Elec       q    Type
                         _______ _______ _______ _____ _____    ______ ____

>  <TORSDO>
F 11

$$$$
