=
 OpenBabel11052423133D

 27 31  0  0  1  0  0  0  0  0999 V2000
  160.7800  211.4030  151.0570 N   0  0  0  0  0  2  0  0  0  0  0  0
  161.7560  209.4220  149.9930 C   0  0  0  0  0  0  0  0  0  0  0  0
  161.9310  208.7590  152.5260 C   0  0  0  0  0  2  0  0  0  0  0  0
  161.2450  205.2810  148.9200 C   0  0  0  0  0  2  0  0  0  0  0  0
  160.9870  203.0720  149.8360 N   0  0  0  0  0  2  0  0  0  0  0  0
  161.5890  208.9810  148.6720 C   0  0  0  0  0  3  0  0  0  0  0  0
  161.6310  206.0180  151.7630 C   0  0  0  0  0  2  0  0  0  0  0  0
  161.1610  209.9890  155.3960 C   0  0  0  0  0  2  0  0  0  0  0  0
  160.7160  204.8510  151.4210 C   0  0  0  0  0  2  0  0  0  0  0  0
  160.0090  210.8770  155.3600 N   0  0  0  0  0  2  0  0  0  0  0  0
  161.5830  207.0860  150.7000 C   0  0  0  0  0  0  0  0  0  0  0  0
  161.8950  210.9170  150.2530 C   0  0  1  0  0  3  0  0  0  0  0  0
  161.0800  204.3280  150.0700 C   0  0  0  0  0  0  0  0  0  0  0  0
  161.4320  206.7150  149.3460 C   0  0  0  0  0  0  0  0  0  0  0  0
  160.6640  210.9510  152.3990 C   0  0  0  0  0  0  0  0  0  0  0  0
  161.7500  208.4490  151.0410 C   0  0  0  0  0  0  0  0  0  0  0  0
  162.2190  210.4790  154.4210 C   0  0  0  0  0  2  0  0  0  0  0  0
  161.4380  207.6670  148.3830 N   0  0  0  0  0  0  0  0  0  0  0  0
  159.1330  210.3870  154.3090 C   0  0  0  0  0  2  0  0  0  0  0  0
  159.4690  211.0210  152.9950 C   0  0  0  0  0  3  0  0  0  0  0  0
  161.8530  210.2170  152.9580 C   0  0  1  0  0  3  0  0  0  0  0  0
  162.4260  213.4130  146.7860 C   0  0  0  0  0  3  0  0  0  0  0  0
  162.0910  211.7710  149.0310 C   0  0  0  0  0  0  0  0  0  0  0  0
  161.0390  212.5780  148.5880 C   0  0  0  0  0  3  0  0  0  0  0  0
  161.2050  213.3960  147.4660 C   0  0  0  0  0  3  0  0  0  0  0  0
  163.4840  212.6120  147.2290 C   0  0  0  0  0  3  0  0  0  0  0  0
  163.3180  211.7940  148.3510 C   0  0  0  0  0  3  0  0  0  0  0  0
  1 15  1  0  0  0  0
  2 12  1  0  0  0  0
  2 16  1  0  0  0  0
  4 14  1  0  0  0  0
  4 13  1  0  0  0  0
  5 13  2  0  0  0  0
  6  2  2  0  0  0  0
  9  7  1  0  0  0  0
 10  8  1  0  0  0  0
 11 16  2  0  0  0  0
 11  7  1  0  0  0  0
 12 23  1  6  0  0  0
 12  1  1  0  0  0  0
 13  9  1  0  0  0  0
 14 11  1  0  0  0  0
 15 21  1  0  0  0  0
 15 20  2  0  0  0  0
 16  3  1  0  0  0  0
 17  8  1  0  0  0  0
 18  6  1  0  0  0  0
 18 14  2  0  0  0  0
 19 10  1  0  0  0  0
 20 19  1  0  0  0  0
 21  3  1  1  0  0  0
 21 17  1  0  0  0  0
 22 26  2  0  0  0  0
 22 25  1  0  0  0  0
 24 23  1  0  0  0  0
 25 24  2  0  0  0  0
 26 27  1  0  0  0  0
 27 23  2  0  0  0  0
M  END
>  <MODEL>
1

>  <REMARK>
 VINA RESULT:      -7.2      0.000      0.000
  Name = 
  1 active torsions:
  status: ('A' for Active; 'I' for Inactive)
    1  A    between atoms: C_9  and  C_15
                            x       y       z     vdW  Elec       q    Type
                         _______ _______ _______ _____ _____    ______ ____

>  <TORSDO>
F 1

$$$$
=
 OpenBabel11052423133D

 27 31  0  0  1  0  0  0  0  0999 V2000
  160.7310  209.4870  153.8560 N   0  0  0  0  0  2  0  0  0  0  0  0
  160.8830  209.8610  151.4380 C   0  0  0  0  0  0  0  0  0  0  0  0
  159.3320  211.8560  152.1500 C   0  0  0  0  0  2  0  0  0  0  0  0
  162.5310  212.2500  148.2530 C   0  0  0  0  0  2  0  0  0  0  0  0
  162.5110  214.4530  147.2910 N   0  0  0  0  0  2  0  0  0  0  0  0
  161.8660  209.3970  150.5530 C   0  0  0  0  0  3  0  0  0  0  0  0
  160.4240  213.3900  149.9960 C   0  0  0  0  0  2  0  0  0  0  0  0
  158.0510  213.0690  154.8390 C   0  0  0  0  0  2  0  0  0  0  0  0
  161.5210  214.3040  149.4690 C   0  0  0  0  0  2  0  0  0  0  0  0
  158.8530  212.8240  156.0280 N   0  0  0  0  0  2  0  0  0  0  0  0
  160.9400  211.9940  150.2390 C   0  0  0  0  0  0  0  0  0  0  0  0
  160.4000  208.9350  152.5470 C   0  0  1  0  0  3  0  0  0  0  0  0
  162.1150  213.6930  148.2420 C   0  0  0  0  0  0  0  0  0  0  0  0
  161.9190  211.4530  149.3780 C   0  0  0  0  0  0  0  0  0  0  0  0
  160.0890  210.6860  154.2680 C   0  0  0  0  0  0  0  0  0  0  0  0
  160.4060  211.2010  151.2820 C   0  0  0  0  0  0  0  0  0  0  0  0
  157.7250  211.7490  154.1590 C   0  0  0  0  0  2  0  0  0  0  0  0
  162.3500  210.1820  149.5630 N   0  0  0  0  0  0  0  0  0  0  0  0
  160.2420  212.8080  155.6030 C   0  0  0  0  0  2  0  0  0  0  0  0
  160.6670  211.4240  155.2210 C   0  0  0  0  0  3  0  0  0  0  0  0
  158.9240  211.1380  153.4300 C   0  0  1  0  0  3  0  0  0  0  0  0
  161.6470  204.8240  152.2850 C   0  0  0  0  0  3  0  0  0  0  0  0
  160.8480  207.5050  152.4370 C   0  0  0  0  0  0  0  0  0  0  0  0
  161.2120  206.8120  153.5970 C   0  0  0  0  0  3  0  0  0  0  0  0
  161.6120  205.4750  153.5210 C   0  0  0  0  0  3  0  0  0  0  0  0
  161.2790  205.5090  151.1230 C   0  0  0  0  0  3  0  0  0  0  0  0
  160.8780  206.8460  151.1980 C   0  0  0  0  0  3  0  0  0  0  0  0
  1 15  1  0  0  0  0
  2 12  1  0  0  0  0
  4 14  1  0  0  0  0
  5 13  2  0  0  0  0
  6  2  2  0  0  0  0
  7 11  1  0  0  0  0
  8 10  1  0  0  0  0
  9  7  1  0  0  0  0
 11 16  2  0  0  0  0
 12 23  1  6  0  0  0
 12  1  1  0  0  0  0
 13  4  1  0  0  0  0
 13  9  1  0  0  0  0
 14 18  2  0  0  0  0
 14 11  1  0  0  0  0
 15 20  2  0  0  0  0
 16  2  1  0  0  0  0
 16  3  1  0  0  0  0
 17  8  1  0  0  0  0
 18  6  1  0  0  0  0
 19 10  1  0  0  0  0
 20 19  1  0  0  0  0
 21  3  1  6  0  0  0
 21 17  1  0  0  0  0
 21 15  1  0  0  0  0
 22 25  1  0  0  0  0
 23 24  1  0  0  0  0
 25 24  2  0  0  0  0
 26 27  1  0  0  0  0
 26 22  2  0  0  0  0
 27 23  2  0  0  0  0
M  END
>  <MODEL>
2

>  <REMARK>
 VINA RESULT:      -5.3      2.075      6.159
  Name = 
  1 active torsions:
  status: ('A' for Active; 'I' for Inactive)
    1  A    between atoms: C_9  and  C_15
                            x       y       z     vdW  Elec       q    Type
                         _______ _______ _______ _____ _____    ______ ____

>  <TORSDO>
F 1

$$$$
