=
 OpenBabel11062408233D

 32 37  0  0  1  0  0  0  0  0999 V2000
  161.6410  206.9470  151.9070 C   0  0  0  0  0  0  0  0  0  0  0  0
  161.5500  209.4630  152.1850 C   0  0  2  0  0  3  0  0  0  0  0  0
  161.5800  205.6630  152.4710 C   0  0  0  0  0  3  0  0  0  0  0  0
  161.3350  208.0650  152.7060 C   0  0  0  0  0  0  0  0  0  0  0  0
  160.3630  210.3310  152.5920 C   0  0  2  0  0  3  0  0  0  0  0  0
  161.8710  212.2610  148.0620 C   0  0  0  0  0  3  0  0  0  0  0  0
  161.9330  209.5160  150.6850 C   0  0  1  0  0  3  0  0  0  0  0  0
  160.7040  213.0710  150.0210 C   0  0  0  0  0  3  0  0  0  0  0  0
  160.9150  211.8450  150.6600 C   0  0  0  0  0  0  0  0  0  0  0  0
  160.8050  207.8830  154.0010 C   0  0  0  0  0  0  0  0  0  0  0  0
  160.4390  211.6570  151.9920 N   0  0  0  0  0  2  0  0  0  0  0  0
  160.1650  209.0190  154.7660 C   0  0  0  0  0  2  0  0  0  0  0  0
  160.7200  206.5930  154.5320 C   0  0  0  0  0  3  0  0  0  0  0  0
  161.3920  208.3790  149.9460 N   0  0  0  0  0  2  0  0  0  0  0  0
  162.0350  207.1680  150.4620 C   0  0  2  0  0  3  0  0  0  0  0  0
  161.6180  210.8190  150.0000 C   0  0  0  0  0  0  0  0  0  0  0  0
  160.3120  210.4130  154.1280 C   0  0  1  0  0  3  0  0  0  0  0  0
  161.1330  205.4890  153.7820 C   0  0  0  0  0  3  0  0  0  0  0  0
  161.1780  213.2770  148.7230 C   0  0  0  0  0  3  0  0  0  0  0  0
  162.0960  211.0380  148.7010 C   0  0  0  0  0  3  0  0  0  0  0  0
  161.6580  204.9680  147.3730 C   0  0  0  0  0  0  0  0  0  0  0  0
  161.8900  205.0210  146.0380 F   0  0  0  0  0  0  0  0  0  0  0  0
  161.7080  205.9990  149.5720 C   0  0  0  0  0  0  0  0  0  0  0  0
  161.1200  203.8060  147.9310 C   0  0  0  0  0  3  0  0  0  0  0  0
  161.1700  204.8250  150.1210 C   0  0  0  0  0  3  0  0  0  0  0  0
  161.9550  206.0670  148.1880 C   0  0  0  0  0  0  0  0  0  0  0  0
  162.5070  207.2480  147.6090 N   0  0  0  0  0  1  0  0  0  0  0  0
  160.8730  203.7280  149.3100 C   0  0  0  0  0  0  0  0  0  0  0  0
  160.7760  201.2690  149.5590 C   0  0  0  0  0  1  0  0  0  0  0  0
  160.3380  202.5780  149.8960 O   0  0  0  0  0  0  0  0  0  0  0  0
  161.5320  211.1100  154.7260 C   0  0  0  0  0  2  0  0  0  0  0  0
  161.8220  210.5800  155.9840 O   0  0  0  0  0  1  0  0  0  0  0  0
  1  3  2  0  0  0  0
  1  4  1  0  0  0  0
  2  5  1  0  0  0  0
  2  4  1  6  0  0  0
  3 18  1  0  0  0  0
  4 10  2  0  0  0  0
  5 11  1  6  0  0  0
  5 17  1  0  0  0  0
  6 20  2  0  0  0  0
  6 19  1  0  0  0  0
  7 14  1  6  0  0  0
  7  2  1  0  0  0  0
  8  9  1  0  0  0  0
  9 11  1  0  0  0  0
 10 13  1  0  0  0  0
 10 12  1  0  0  0  0
 14 15  1  0  0  0  0
 15 23  1  6  0  0  0
 15  1  1  0  0  0  0
 16  9  2  0  0  0  0
 16  7  1  0  0  0  0
 17 31  1  1  0  0  0
 17 12  1  0  0  0  0
 18 13  2  0  0  0  0
 19  8  2  0  0  0  0
 20 16  1  0  0  0  0
 21 24  2  0  0  0  0
 21 26  1  0  0  0  0
 22 21  1  0  0  0  0
 23 25  1  0  0  0  0
 24 28  1  0  0  0  0
 26 23  2  0  0  0  0
 27 26  1  0  0  0  0
 28 30  1  0  0  0  0
 28 25  2  0  0  0  0
 29 30  1  0  0  0  0
 31 32  1  0  0  0  0
M  END
>  <MODEL>
1

>  <REMARK>
 VINA RESULT:      -9.6      0.000      0.000
  Name = 
  3 active torsions:
  status: ('A' for Active; 'I' for Inactive)
    1  A    between atoms: C_13  and  C_29
    2  A    between atoms: O_15  and  C_26
    3  A    between atoms: C_16  and  C_27
                            x       y       z     vdW  Elec       q    Type
                         _______ _______ _______ _____ _____    ______ ____

>  <TORSDO>
F 3

$$$$
=
 OpenBabel11062408233D

 32 37  0  0  1  0  0  0  0  0999 V2000
  161.8360  208.1950  151.0330 C   0  0  0  0  0  0  0  0  0  0  0  0
  161.9000  206.1670  149.5170 C   0  0  2  0  0  3  0  0  0  0  0  0
  161.9370  209.5850  151.2020 C   0  0  0  0  0  3  0  0  0  0  0  0
  161.8380  207.6570  149.7320 C   0  0  0  0  0  0  0  0  0  0  0  0
  160.9360  205.7880  148.3960 C   0  0  2  0  0  3  0  0  0  0  0  0
  160.8910  201.7210  151.5550 C   0  0  0  0  0  3  0  0  0  0  0  0
  161.7620  205.3440  150.8220 C   0  0  1  0  0  3  0  0  0  0  0  0
  160.4630  202.1350  149.2080 C   0  0  0  0  0  3  0  0  0  0  0  0
  160.8460  203.4700  149.3690 C   0  0  0  0  0  0  0  0  0  0  0  0
  161.7670  208.5150  148.6140 C   0  0  0  0  0  0  0  0  0  0  0  0
  160.8370  204.3430  148.2400 N   0  0  0  0  0  2  0  0  0  0  0  0
  161.4440  207.9960  147.2320 C   0  0  0  0  0  2  0  0  0  0  0  0
  161.8350  209.8980  148.8050 C   0  0  0  0  0  3  0  0  0  0  0  0
  160.9800  206.0530  151.8310 N   0  0  0  0  0  2  0  0  0  0  0  0
  161.7300  207.2510  152.2130 C   0  0  2  0  0  3  0  0  0  0  0  0
  161.2660  203.9350  150.6300 C   0  0  0  0  0  0  0  0  0  0  0  0
  161.4020  206.4630  147.0930 C   0  0  1  0  0  3  0  0  0  0  0  0
  161.9490  210.4310  150.0920 C   0  0  0  0  0  3  0  0  0  0  0  0
  160.4800  201.2630  150.3000 C   0  0  0  0  0  3  0  0  0  0  0  0
  161.2890  203.0510  151.7170 C   0  0  0  0  0  3  0  0  0  0  0  0
  160.2370  207.7120  155.6890 C   0  0  0  0  0  0  0  0  0  0  0  0
  159.9560  206.9770  156.7920 F   0  0  0  0  0  0  0  0  0  0  0  0
  161.0990  207.8830  153.4240 C   0  0  0  0  0  0  0  0  0  0  0  0
  159.9490  209.0790  155.6820 C   0  0  0  0  0  3  0  0  0  0  0  0
  160.8080  209.2560  153.4310 C   0  0  0  0  0  3  0  0  0  0  0  0
  160.8130  207.1090  154.5630 C   0  0  0  0  0  0  0  0  0  0  0  0
  161.1060  205.7130  154.5820 N   0  0  0  0  0  1  0  0  0  0  0  0
  160.2340  209.8600  154.5520 C   0  0  0  0  0  0  0  0  0  0  0  0
  160.0760  212.0060  153.3340 C   0  0  0  0  0  1  0  0  0  0  0  0
  159.9580  211.2290  154.5170 O   0  0  0  0  0  0  0  0  0  0  0  0
  162.7660  205.9650  146.6230 C   0  0  0  0  0  2  0  0  0  0  0  0
  162.6270  205.2070  145.4600 O   0  0  0  0  0  1  0  0  0  0  0  0
  1  3  1  0  0  0  0
  1 15  1  0  0  0  0
  2  4  1  1  0  0  0
  2  7  1  0  0  0  0
  4  1  2  0  0  0  0
  5 11  1  6  0  0  0
  5  2  1  0  0  0  0
  6 20  1  0  0  0  0
  7 16  1  6  0  0  0
  7 14  1  0  0  0  0
  8  9  2  0  0  0  0
  8 19  1  0  0  0  0
  9 16  1  0  0  0  0
 10 13  2  0  0  0  0
 10  4  1  0  0  0  0
 11  9  1  0  0  0  0
 12 10  1  0  0  0  0
 13 18  1  0  0  0  0
 14 15  1  0  0  0  0
 15 23  1  1  0  0  0
 16 20  2  0  0  0  0
 17 31  1  1  0  0  0
 17 12  1  0  0  0  0
 17  5  1  0  0  0  0
 18  3  2  0  0  0  0
 19  6  2  0  0  0  0
 21 22  1  0  0  0  0
 23 25  2  0  0  0  0
 23 26  1  0  0  0  0
 24 21  1  0  0  0  0
 25 28  1  0  0  0  0
 26 27  1  0  0  0  0
 26 21  2  0  0  0  0
 28 24  2  0  0  0  0
 29 30  1  0  0  0  0
 30 28  1  0  0  0  0
 32 31  1  0  0  0  0
M  END
>  <MODEL>
2

>  <REMARK>
 VINA RESULT:      -8.6      2.892      7.847
  Name = 
  3 active torsions:
  status: ('A' for Active; 'I' for Inactive)
    1  A    between atoms: C_13  and  C_29
    2  A    between atoms: O_15  and  C_26
    3  A    between atoms: C_16  and  C_27
                            x       y       z     vdW  Elec       q    Type
                         _______ _______ _______ _____ _____    ______ ____

>  <TORSDO>
F 3

$$$$
=
 OpenBabel11062408233D

 32 37  0  0  1  0  0  0  0  0999 V2000
  160.7870  205.7770  151.0670 C   0  0  0  0  0  0  0  0  0  0  0  0
  160.6260  204.2290  149.0690 C   0  0  2  0  0  3  0  0  0  0  0  0
  160.8350  205.9580  152.4580 C   0  0  0  0  0  3  0  0  0  0  0  0
  160.8420  204.4730  150.5400 C   0  0  0  0  0  0  0  0  0  0  0  0
  161.6390  203.1950  148.5840 C   0  0  2  0  0  3  0  0  0  0  0  0
  160.9070  206.2770  144.5240 C   0  0  0  0  0  3  0  0  0  0  0  0
  160.5430  205.5270  148.2290 C   0  0  1  0  0  3  0  0  0  0  0  0
  161.5990  203.9880  144.8960 C   0  0  0  0  0  3  0  0  0  0  0  0
  161.3630  204.1340  146.2670 C   0  0  0  0  0  0  0  0  0  0  0  0
  161.1200  203.3810  151.3890 C   0  0  0  0  0  0  0  0  0  0  0  0
  161.5810  203.0250  147.1380 N   0  0  0  0  0  2  0  0  0  0  0  0
  161.5060  202.0260  150.8430 C   0  0  0  0  0  2  0  0  0  0  0  0
  161.1980  203.5870  152.7700 C   0  0  0  0  0  3  0  0  0  0  0  0
  161.3050  206.6160  148.8340 N   0  0  0  0  0  2  0  0  0  0  0  0
  160.6690  206.9460  150.1110 C   0  0  2  0  0  3  0  0  0  0  0  0
  160.8840  205.3580  146.7720 C   0  0  0  0  0  0  0  0  0  0  0  0
  161.3800  201.8660  149.3160 C   0  0  1  0  0  3  0  0  0  0  0  0
  161.0270  204.8660  153.3050 C   0  0  0  0  0  3  0  0  0  0  0  0
  161.3770  205.0590  144.0270 C   0  0  0  0  0  3  0  0  0  0  0  0
  160.6560  206.4240  145.8910 C   0  0  0  0  0  3  0  0  0  0  0  0
  162.3500  210.3600  150.3090 C   0  0  0  0  0  0  0  0  0  0  0  0
  162.9000  211.2850  149.4840 F   0  0  0  0  0  0  0  0  0  0  0  0
  161.2540  208.2200  150.6570 C   0  0  0  0  0  0  0  0  0  0  0  0
  162.3150  210.6020  151.6840 C   0  0  0  0  0  3  0  0  0  0  0  0
  161.2220  208.4750  152.0370 C   0  0  0  0  0  3  0  0  0  0  0  0
  161.8210  209.1720  149.7900 C   0  0  0  0  0  0  0  0  0  0  0  0
  161.8590  208.9380  148.3830 N   0  0  0  0  0  1  0  0  0  0  0  0
  161.7490  209.6590  152.5570 C   0  0  0  0  0  0  0  0  0  0  0  0
  161.2650  208.8790  154.8530 C   0  0  0  0  0  1  0  0  0  0  0  0
  161.6980  209.8740  153.9360 O   0  0  0  0  0  0  0  0  0  0  0  0
  160.0170  201.2630  148.9870 C   0  0  0  0  0  2  0  0  0  0  0  0
  159.4150  200.7720  150.1460 O   0  0  0  0  0  1  0  0  0  0  0  0
  1  3  1  0  0  0  0
  2  4  1  1  0  0  0
  3 18  2  0  0  0  0
  4  1  2  0  0  0  0
  4 10  1  0  0  0  0
  5 11  1  6  0  0  0
  5  2  1  0  0  0  0
  5 17  1  0  0  0  0
  6 20  1  0  0  0  0
  7 16  1  6  0  0  0
  7 14  1  0  0  0  0
  7  2  1  0  0  0  0
  8  9  2  0  0  0  0
  9 16  1  0  0  0  0
  9 11  1  0  0  0  0
 10 13  2  0  0  0  0
 12 10  1  0  0  0  0
 13 18  1  0  0  0  0
 14 15  1  0  0  0  0
 15 23  1  1  0  0  0
 15  1  1  0  0  0  0
 17 31  1  1  0  0  0
 17 12  1  0  0  0  0
 19  6  2  0  0  0  0
 19  8  1  0  0  0  0
 20 16  2  0  0  0  0
 21 24  1  0  0  0  0
 22 21  1  0  0  0  0
 23 25  2  0  0  0  0
 24 28  2  0  0  0  0
 25 28  1  0  0  0  0
 26 21  2  0  0  0  0
 26 23  1  0  0  0  0
 27 26  1  0  0  0  0
 28 30  1  0  0  0  0
 30 29  1  0  0  0  0
 31 32  1  0  0  0  0
M  END
>  <MODEL>
3

>  <REMARK>
 VINA RESULT:      -8.1      2.261      6.902
  Name = 
  3 active torsions:
  status: ('A' for Active; 'I' for Inactive)
    1  A    between atoms: C_13  and  C_29
    2  A    between atoms: O_15  and  C_26
    3  A    between atoms: C_16  and  C_27
                            x       y       z     vdW  Elec       q    Type
                         _______ _______ _______ _____ _____    ______ ____

>  <TORSDO>
F 3

$$$$
=
 OpenBabel11062408233D

 32 37  0  0  1  0  0  0  0  0999 V2000
  161.6940  204.8270  150.1350 C   0  0  0  0  0  0  0  0  0  0  0  0
  161.7900  207.0590  151.3290 C   0  0  2  0  0  3  0  0  0  0  0  0
  161.5600  203.4310  150.1850 C   0  0  0  0  0  3  0  0  0  0  0  0
  161.4920  205.5810  151.3060 C   0  0  0  0  0  0  0  0  0  0  0  0
  160.6800  207.7750  152.0930 C   0  0  2  0  0  3  0  0  0  0  0  0
  162.1820  211.1710  148.5250 C   0  0  0  0  0  3  0  0  0  0  0  0
  162.1290  207.6470  149.9380 C   0  0  1  0  0  3  0  0  0  0  0  0
  161.1350  211.2530  150.7060 C   0  0  0  0  0  3  0  0  0  0  0  0
  161.2780  209.8680  150.8320 C   0  0  0  0  0  0  0  0  0  0  0  0
  160.9910  204.9580  152.4680 C   0  0  0  0  0  0  0  0  0  0  0  0
  160.8300  209.2220  152.0230 N   0  0  0  0  0  2  0  0  0  0  0  0
  160.4560  205.7590  153.6330 C   0  0  0  0  0  2  0  0  0  0  0  0
  160.8310  203.5690  152.4870 C   0  0  0  0  0  3  0  0  0  0  0  0
  161.4880  206.8990  148.8600 N   0  0  0  0  0  2  0  0  0  0  0  0
  162.0590  205.5500  148.8540 C   0  0  2  0  0  3  0  0  0  0  0  0
  161.8870  209.1270  149.8020 C   0  0  0  0  0  0  0  0  0  0  0  0
  160.6810  207.2800  153.5500 C   0  0  1  0  0  3  0  0  0  0  0  0
  161.1420  202.8040  151.3600 C   0  0  0  0  0  3  0  0  0  0  0  0
  161.5820  211.9040  149.5520 C   0  0  0  0  0  3  0  0  0  0  0  0
  162.3390  209.7880  148.6530 C   0  0  0  0  0  3  0  0  0  0  0  0
  160.9420  204.8310  145.2820 C   0  0  0  0  0  0  0  0  0  0  0  0
  160.6600  205.5020  144.1390 F   0  0  0  0  0  0  0  0  0  0  0  0
  161.6230  204.8180  147.6140 C   0  0  0  0  0  0  0  0  0  0  0  0
  160.8400  203.4380  145.3040 C   0  0  0  0  0  3  0  0  0  0  0  0
  161.5200  203.4180  147.6230 C   0  0  0  0  0  3  0  0  0  0  0  0
  161.3340  205.5260  146.4330 C   0  0  0  0  0  0  0  0  0  0  0  0
  161.4390  206.9480  146.3990 N   0  0  0  0  0  1  0  0  0  0  0  0
  161.1290  202.7230  146.4760 C   0  0  0  0  0  0  0  0  0  0  0  0
  161.2060  200.5930  147.7300 C   0  0  0  0  0  1  0  0  0  0  0  0
  161.0380  201.3300  146.5270 O   0  0  0  0  0  0  0  0  0  0  0  0
  161.9650  207.6360  154.2960 C   0  0  0  0  0  2  0  0  0  0  0  0
  161.6600  208.2540  155.5100 O   0  0  0  0  0  1  0  0  0  0  0  0
  1  3  2  0  0  0  0
  1  4  1  0  0  0  0
  2  4  1  6  0  0  0
  2  5  1  0  0  0  0
  3 18  1  0  0  0  0
  4 10  2  0  0  0  0
  5 11  1  1  0  0  0
  5 17  1  0  0  0  0
  6 20  2  0  0  0  0
  6 19  1  0  0  0  0
  7 14  1  6  0  0  0
  7  2  1  0  0  0  0
  8  9  1  0  0  0  0
  9 11  1  0  0  0  0
 10 13  1  0  0  0  0
 10 12  1  0  0  0  0
 15 23  1  6  0  0  0
 15 14  1  0  0  0  0
 15  1  1  0  0  0  0
 16  7  1  0  0  0  0
 16  9  2  0  0  0  0
 17 12  1  0  0  0  0
 17 31  1  6  0  0  0
 18 13  2  0  0  0  0
 19  8  2  0  0  0  0
 20 16  1  0  0  0  0
 21 24  2  0  0  0  0
 21 26  1  0  0  0  0
 22 21  1  0  0  0  0
 23 25  1  0  0  0  0
 24 28  1  0  0  0  0
 26 23  2  0  0  0  0
 27 26  1  0  0  0  0
 28 30  1  0  0  0  0
 28 25  2  0  0  0  0
 30 29  1  0  0  0  0
 31 32  1  0  0  0  0
M  END
>  <MODEL>
4

>  <REMARK>
 VINA RESULT:      -7.6      1.692      2.602
  Name = 
  3 active torsions:
  status: ('A' for Active; 'I' for Inactive)
    1  A    between atoms: C_13  and  C_29
    2  A    between atoms: O_15  and  C_26
    3  A    between atoms: C_16  and  C_27
                            x       y       z     vdW  Elec       q    Type
                         _______ _______ _______ _____ _____    ______ ____

>  <TORSDO>
F 3

$$$$
=
 OpenBabel11062408233D

 32 37  0  0  1  0  0  0  0  0999 V2000
  161.9560  208.4510  149.7640 C   0  0  0  0  0  0  0  0  0  0  0  0
  161.7340  206.9600  151.7990 C   0  0  2  0  0  3  0  0  0  0  0  0
  162.0810  208.5920  148.3730 C   0  0  0  0  0  3  0  0  0  0  0  0
  161.7080  207.1770  150.3080 C   0  0  0  0  0  0  0  0  0  0  0  0
  160.5720  206.0500  152.1870 C   0  0  2  0  0  3  0  0  0  0  0  0
  161.1670  209.1720  156.2390 C   0  0  0  0  0  3  0  0  0  0  0  0
  161.8580  208.2690  152.6160 C   0  0  1  0  0  3  0  0  0  0  0  0
  160.2860  206.9530  155.8390 C   0  0  0  0  0  3  0  0  0  0  0  0
  160.6870  207.0310  154.5010 C   0  0  0  0  0  0  0  0  0  0  0  0
  161.4140  206.0910  149.4560 C   0  0  0  0  0  0  0  0  0  0  0  0
  160.4520  205.9220  153.6340 N   0  0  0  0  0  2  0  0  0  0  0  0
  160.8310  204.8010  149.9830 C   0  0  0  0  0  2  0  0  0  0  0  0
  161.5110  206.2600  148.0710 C   0  0  0  0  0  3  0  0  0  0  0  0
  161.2840  209.4100  151.9060 N   0  0  0  0  0  2  0  0  0  0  0  0
  162.0880  209.6320  150.7030 C   0  0  2  0  0  3  0  0  0  0  0  0
  161.3420  208.1830  154.0280 C   0  0  0  0  0  0  0  0  0  0  0  0
  160.7710  204.6790  151.5170 C   0  0  1  0  0  3  0  0  0  0  0  0
  161.8710  207.4970  147.5320 C   0  0  0  0  0  3  0  0  0  0  0  0
  160.5220  208.0240  156.7060 C   0  0  0  0  0  3  0  0  0  0  0  0
  161.5810  209.2480  154.9070 C   0  0  0  0  0  3  0  0  0  0  0  0
  160.4900  213.0450  150.1340 C   0  0  0  0  0  0  0  0  0  0  0  0
  159.6500  213.9040  150.7620 F   0  0  0  0  0  0  0  0  0  0  0  0
  161.7020  210.9410  150.0670 C   0  0  0  0  0  0  0  0  0  0  0  0
  161.0140  213.3870  148.8860 C   0  0  0  0  0  3  0  0  0  0  0  0
  162.2250  211.2970  148.8140 C   0  0  0  0  0  3  0  0  0  0  0  0
  160.8310  211.8240  150.7310 C   0  0  0  0  0  0  0  0  0  0  0  0
  160.2920  211.4870  152.0070 N   0  0  0  0  0  1  0  0  0  0  0  0
  161.8860  212.5130  148.2180 C   0  0  0  0  0  0  0  0  0  0  0  0
  161.6400  213.3170  145.8920 C   0  0  0  0  0  1  0  0  0  0  0  0
  162.4280  212.8290  146.9690 O   0  0  0  0  0  0  0  0  0  0  0  0
  162.0200  203.9530  152.0110 C   0  0  0  0  0  2  0  0  0  0  0  0
  161.9550  202.6000  151.6750 O   0  0  0  0  0  1  0  0  0  0  0  0
  1  4  1  0  0  0  0
  1 15  1  0  0  0  0
  2  4  1  6  0  0  0
  2  5  1  0  0  0  0
  2  7  1  0  0  0  0
  3  1  2  0  0  0  0
  5 11  1  1  0  0  0
  6 19  1  0  0  0  0
  7 14  1  6  0  0  0
  7 16  1  0  0  0  0
  8 19  2  0  0  0  0
  9  8  1  0  0  0  0
 10 12  1  0  0  0  0
 10  4  2  0  0  0  0
 11  9  1  0  0  0  0
 12 17  1  0  0  0  0
 13 10  1  0  0  0  0
 15 23  1  6  0  0  0
 15 14  1  0  0  0  0
 16  9  2  0  0  0  0
 16 20  1  0  0  0  0
 17 31  1  1  0  0  0
 17  5  1  0  0  0  0
 18 13  2  0  0  0  0
 18  3  1  0  0  0  0
 20  6  2  0  0  0  0
 21 26  1  0  0  0  0
 21 22  1  0  0  0  0
 23 26  2  0  0  0  0
 24 21  2  0  0  0  0
 25 23  1  0  0  0  0
 26 27  1  0  0  0  0
 28 25  2  0  0  0  0
 28 24  1  0  0  0  0
 29 30  1  0  0  0  0
 30 28  1  0  0  0  0
 32 31  1  0  0  0  0
M  END
>  <MODEL>
5

>  <REMARK>
 VINA RESULT:      -7.1      2.897      7.014
  Name = 
  3 active torsions:
  status: ('A' for Active; 'I' for Inactive)
    1  A    between atoms: C_13  and  C_29
    2  A    between atoms: O_15  and  C_26
    3  A    between atoms: C_16  and  C_27
                            x       y       z     vdW  Elec       q    Type
                         _______ _______ _______ _____ _____    ______ ____

>  <TORSDO>
F 3

$$$$
=
 OpenBabel11062408233D

 32 37  0  0  1  0  0  0  0  0999 V2000
  161.7860  209.7410  151.0560 C   0  0  0  0  0  0  0  0  0  0  0  0
  161.9530  207.3980  150.1090 C   0  0  2  0  0  3  0  0  0  0  0  0
  161.8730  211.1300  150.8740 C   0  0  0  0  0  3  0  0  0  0  0  0
  161.8750  208.8930  149.9360 C   0  0  0  0  0  0  0  0  0  0  0  0
  161.0650  206.7320  149.0610 C   0  0  2  0  0  3  0  0  0  0  0  0
  160.8220  203.5920  153.1360 C   0  0  0  0  0  3  0  0  0  0  0  0
  161.7310  206.9280  151.5670 C   0  0  1  0  0  3  0  0  0  0  0  0
  160.5460  203.3930  150.7390 C   0  0  0  0  0  3  0  0  0  0  0  0
  160.9160  204.7320  150.5810 C   0  0  0  0  0  0  0  0  0  0  0  0
  161.8740  209.4410  148.6360 C   0  0  0  0  0  0  0  0  0  0  0  0
  160.9790  205.2930  149.2700 N   0  0  0  0  0  2  0  0  0  0  0  0
  161.6440  208.5840  147.4120 C   0  0  0  0  0  2  0  0  0  0  0  0
  161.9270  210.8280  148.4750 C   0  0  0  0  0  3  0  0  0  0  0  0
  160.8840  207.8540  152.3140 N   0  0  0  0  0  2  0  0  0  0  0  0
  161.6050  209.1230  152.4270 C   0  0  2  0  0  3  0  0  0  0  0  0
  161.2520  205.5080  151.7070 C   0  0  0  0  0  0  0  0  0  0  0  0
  161.6130  207.0650  147.6620 C   0  0  1  0  0  3  0  0  0  0  0  0
  161.9560  211.6700  149.5900 C   0  0  0  0  0  3  0  0  0  0  0  0
  160.4940  202.8250  152.0150 C   0  0  0  0  0  3  0  0  0  0  0  0
  161.2050  204.9270  152.9810 C   0  0  0  0  0  3  0  0  0  0  0  0
  160.9210  211.4470  155.3700 C   0  0  0  0  0  0  0  0  0  0  0  0
  161.5800  211.9990  156.4180 F   0  0  0  0  0  0  0  0  0  0  0  0
  160.8950  210.0290  153.3970 C   0  0  0  0  0  0  0  0  0  0  0  0
  159.5680  211.7340  155.1800 C   0  0  0  0  0  3  0  0  0  0  0  0
  159.5360  210.3270  153.2160 C   0  0  0  0  0  3  0  0  0  0  0  0
  161.5910  210.5960  154.4810 C   0  0  0  0  0  0  0  0  0  0  0  0
  162.9740  210.3120  154.6810 N   0  0  0  0  0  1  0  0  0  0  0  0
  158.8670  211.1760  154.1010 C   0  0  0  0  0  0  0  0  0  0  0  0
  156.5650  211.5060  154.9420 C   0  0  0  0  0  1  0  0  0  0  0  0
  157.5130  211.4470  153.8860 O   0  0  0  0  0  0  0  0  0  0  0  0
  163.0070  206.4900  147.4190 C   0  0  0  0  0  2  0  0  0  0  0  0
  162.9330  205.4020  146.5490 O   0  0  0  0  0  1  0  0  0  0  0  0
  1 15  1  0  0  0  0
  2  4  1  1  0  0  0
  2  7  1  0  0  0  0
  3  1  1  0  0  0  0
  4  1  2  0  0  0  0
  5 11  1  1  0  0  0
  5  2  1  0  0  0  0
  7 16  1  6  0  0  0
  7 14  1  0  0  0  0
  8 19  1  0  0  0  0
  9  8  2  0  0  0  0
  9 16  1  0  0  0  0
 10  4  1  0  0  0  0
 11  9  1  0  0  0  0
 12 17  1  0  0  0  0
 12 10  1  0  0  0  0
 13 10  2  0  0  0  0
 13 18  1  0  0  0  0
 14 15  1  0  0  0  0
 15 23  1  1  0  0  0
 16 20  2  0  0  0  0
 17 31  1  1  0  0  0
 17  5  1  0  0  0  0
 18  3  2  0  0  0  0
 19  6  2  0  0  0  0
 20  6  1  0  0  0  0
 21 22  1  0  0  0  0
 23 26  1  0  0  0  0
 24 21  1  0  0  0  0
 25 23  2  0  0  0  0
 25 28  1  0  0  0  0
 26 27  1  0  0  0  0
 26 21  2  0  0  0  0
 28 24  2  0  0  0  0
 30 28  1  0  0  0  0
 30 29  1  0  0  0  0
 32 31  1  0  0  0  0
M  END
>  <MODEL>
6

>  <REMARK>
 VINA RESULT:      -6.9      3.042      7.847
  Name = 
  3 active torsions:
  status: ('A' for Active; 'I' for Inactive)
    1  A    between atoms: C_13  and  C_29
    2  A    between atoms: O_15  and  C_26
    3  A    between atoms: C_16  and  C_27
                            x       y       z     vdW  Elec       q    Type
                         _______ _______ _______ _____ _____    ______ ____

>  <TORSDO>
F 3

$$$$
=
 OpenBabel11062408233D

 32 37  0  0  1  0  0  0  0  0999 V2000
  161.8550  209.1920  149.5560 C   0  0  0  0  0  0  0  0  0  0  0  0
  161.8330  208.0310  151.8080 C   0  0  2  0  0  3  0  0  0  0  0  0
  161.8330  209.1170  148.1550 C   0  0  0  0  0  3  0  0  0  0  0  0
  161.6510  208.0220  150.3110 C   0  0  0  0  0  0  0  0  0  0  0  0
  160.7080  207.2240  152.4490 C   0  0  2  0  0  3  0  0  0  0  0  0
  161.7720  210.9030  155.8920 C   0  0  0  0  0  3  0  0  0  0  0  0
  162.0600  209.4450  152.3970 C   0  0  1  0  0  3  0  0  0  0  0  0
  160.8260  208.6750  155.9290 C   0  0  0  0  0  3  0  0  0  0  0  0
  161.0820  208.5390  154.5610 C   0  0  0  0  0  0  0  0  0  0  0  0
  161.2540  206.8290  149.6700 C   0  0  0  0  0  0  0  0  0  0  0  0
  160.7420  207.3190  153.9020 N   0  0  0  0  0  2  0  0  0  0  0  0
  160.7140  205.6500  150.4470 C   0  0  0  0  0  2  0  0  0  0  0  0
  161.2040  206.7840  148.2740 C   0  0  0  0  0  3  0  0  0  0  0  0
  161.4290  210.4810  151.5840 N   0  0  0  0  0  2  0  0  0  0  0  0
  162.1020  210.4970  150.2840 C   0  0  2  0  0  3  0  0  0  0  0  0
  161.6970  209.5880  153.8520 C   0  0  0  0  0  0  0  0  0  0  0  0
  160.8160  205.7620  151.9790 C   0  0  1  0  0  3  0  0  0  0  0  0
  161.5200  207.9160  147.5170 C   0  0  0  0  0  3  0  0  0  0  0  0
  161.1660  209.8570  156.5920 C   0  0  0  0  0  3  0  0  0  0  0  0
  162.0420  210.7660  154.5270 C   0  0  0  0  0  3  0  0  0  0  0  0
  162.0900  213.3780  147.7900 C   0  0  0  0  0  0  0  0  0  0  0  0
  162.8950  213.9240  146.8460 F   0  0  0  0  0  0  0  0  0  0  0  0
  161.6670  211.7060  149.5000 C   0  0  0  0  0  0  0  0  0  0  0  0
  160.8330  213.9390  148.0280 C   0  0  0  0  0  3  0  0  0  0  0  0
  160.4050  212.2760  149.7280 C   0  0  0  0  0  3  0  0  0  0  0  0
  162.5120  212.2610  148.5220 C   0  0  0  0  0  0  0  0  0  0  0  0
  163.7960  211.6940  148.2680 N   0  0  0  0  0  1  0  0  0  0  0  0
  159.9820  213.3900  149.0000 C   0  0  0  0  0  0  0  0  0  0  0  0
  157.9710  213.6070  150.4210 C   0  0  0  0  0  1  0  0  0  0  0  0
  158.7190  213.9290  149.2580 O   0  0  0  0  0  0  0  0  0  0  0  0
  162.1020  205.0830  152.4450 C   0  0  0  0  0  2  0  0  0  0  0  0
  162.2440  203.8430  151.8240 O   0  0  0  0  0  1  0  0  0  0  0  0
  1 15  1  0  0  0  0
  1  4  1  0  0  0  0
  2  4  1  6  0  0  0
  2  7  1  0  0  0  0
  2  5  1  0  0  0  0
  3  1  2  0  0  0  0
  5 11  1  1  0  0  0
  6 19  1  0  0  0  0
  7 14  1  6  0  0  0
  7 16  1  0  0  0  0
  8 19  2  0  0  0  0
  9  8  1  0  0  0  0
 10  4  2  0  0  0  0
 10 12  1  0  0  0  0
 11  9  1  0  0  0  0
 12 17  1  0  0  0  0
 13 10  1  0  0  0  0
 15 23  1  6  0  0  0
 15 14  1  0  0  0  0
 16 20  1  0  0  0  0
 16  9  2  0  0  0  0
 17 31  1  6  0  0  0
 17  5  1  0  0  0  0
 18  3  1  0  0  0  0
 18 13  2  0  0  0  0
 20  6  2  0  0  0  0
 21 24  2  0  0  0  0
 21 26  1  0  0  0  0
 22 21  1  0  0  0  0
 23 25  1  0  0  0  0
 24 28  1  0  0  0  0
 26 23  2  0  0  0  0
 27 26  1  0  0  0  0
 28 30  1  0  0  0  0
 28 25  2  0  0  0  0
 30 29  1  0  0  0  0
 32 31  1  0  0  0  0
M  END
>  <MODEL>
7

>  <REMARK>
 VINA RESULT:      -6.9      2.805      6.680
  Name = 
  3 active torsions:
  status: ('A' for Active; 'I' for Inactive)
    1  A    between atoms: C_13  and  C_29
    2  A    between atoms: O_15  and  C_26
    3  A    between atoms: C_16  and  C_27
                            x       y       z     vdW  Elec       q    Type
                         _______ _______ _______ _____ _____    ______ ____

>  <TORSDO>
F 3

$$$$
=
 OpenBabel11062408233D

 32 37  0  0  1  0  0  0  0  0999 V2000
  160.9560  206.3960  149.5150 C   0  0  0  0  0  0  0  0  0  0  0  0
  161.0490  208.4000  151.0620 C   0  0  2  0  0  3  0  0  0  0  0  0
  161.0330  205.8600  148.2200 C   0  0  0  0  0  3  0  0  0  0  0  0
  161.2790  207.7500  149.7210 C   0  0  0  0  0  0  0  0  0  0  0  0
  162.2440  209.2890  151.3920 C   0  0  2  0  0  3  0  0  0  0  0  0
  160.6280  207.5610  155.9660 C   0  0  0  0  0  3  0  0  0  0  0  0
  160.6320  207.4040  152.1720 C   0  0  1  0  0  3  0  0  0  0  0  0
  161.8390  209.4860  155.1370 C   0  0  0  0  0  3  0  0  0  0  0  0
  161.6450  209.0490  153.8230 C   0  0  0  0  0  0  0  0  0  0  0  0
  161.8390  208.5090  148.6720 C   0  0  0  0  0  0  0  0  0  0  0  0
  162.1530  209.8300  152.7420 N   0  0  0  0  0  2  0  0  0  0  0  0
  162.4950  209.8480  148.9200 C   0  0  0  0  0  2  0  0  0  0  0  0
  161.9380  207.9470  147.3960 C   0  0  0  0  0  3  0  0  0  0  0  0
  161.1570  206.0630  151.9250 N   0  0  0  0  0  2  0  0  0  0  0  0
  160.5290  205.5590  150.7030 C   0  0  2  0  0  3  0  0  0  0  0  0
  160.9280  207.8630  153.5750 C   0  0  0  0  0  0  0  0  0  0  0  0
  162.3310  210.4130  150.3430 C   0  0  1  0  0  3  0  0  0  0  0  0
  161.5100  206.6370  147.1630 C   0  0  0  0  0  3  0  0  0  0  0  0
  161.3350  208.7410  156.2070 C   0  0  0  0  0  3  0  0  0  0  0  0
  160.4200  207.1270  154.6540 C   0  0  0  0  0  3  0  0  0  0  0  0
  161.7560  202.0190  151.4060 C   0  0  0  0  0  0  0  0  0  0  0  0
  162.3830  201.3250  152.3870 F   0  0  0  0  0  0  0  0  0  0  0  0
  160.8370  204.0940  150.5390 C   0  0  0  0  0  0  0  0  0  0  0  0
  161.3800  201.3630  150.2320 C   0  0  0  0  0  3  0  0  0  0  0  0
  160.4600  203.4230  149.3660 C   0  0  0  0  0  3  0  0  0  0  0  0
  161.4870  203.3850  151.5650 C   0  0  0  0  0  0  0  0  0  0  0  0
  161.8730  204.0450  152.7690 N   0  0  0  0  0  1  0  0  0  0  0  0
  160.7280  202.0620  149.2040 C   0  0  0  0  0  0  0  0  0  0  0  0
  160.8300  201.8180  146.7450 C   0  0  0  0  0  1  0  0  0  0  0  0
  160.3380  201.4310  148.0210 O   0  0  0  0  0  0  0  0  0  0  0  0
  161.1240  211.3480  150.3740 C   0  0  0  0  0  2  0  0  0  0  0  0
  161.2080  212.2760  149.3360 O   0  0  0  0  0  1  0  0  0  0  0  0
  1  4  1  0  0  0  0
  1 15  1  0  0  0  0
  2  4  1  6  0  0  0
  2  5  1  0  0  0  0
  2  7  1  0  0  0  0
  3  1  2  0  0  0  0
  5 11  1  1  0  0  0
  6 19  1  0  0  0  0
  7 14  1  6  0  0  0
  7 16  1  0  0  0  0
  8 19  2  0  0  0  0
  9  8  1  0  0  0  0
 10 12  1  0  0  0  0
 10  4  2  0  0  0  0
 11  9  1  0  0  0  0
 12 17  1  0  0  0  0
 13 10  1  0  0  0  0
 15 23  1  6  0  0  0
 15 14  1  0  0  0  0
 16  9  2  0  0  0  0
 16 20  1  0  0  0  0
 17 31  1  6  0  0  0
 17  5  1  0  0  0  0
 18 13  2  0  0  0  0
 18  3  1  0  0  0  0
 20  6  2  0  0  0  0
 21 26  1  0  0  0  0
 21 22  1  0  0  0  0
 23 26  2  0  0  0  0
 24 21  2  0  0  0  0
 25 23  1  0  0  0  0
 26 27  1  0  0  0  0
 28 25  2  0  0  0  0
 28 24  1  0  0  0  0
 29 30  1  0  0  0  0
 30 28  1  0  0  0  0
 32 31  1  0  0  0  0
M  END
>  <MODEL>
8

>  <REMARK>
 VINA RESULT:      -6.6      2.506      4.983
  Name = 
  3 active torsions:
  status: ('A' for Active; 'I' for Inactive)
    1  A    between atoms: C_13  and  C_29
    2  A    between atoms: O_15  and  C_26
    3  A    between atoms: C_16  and  C_27
                            x       y       z     vdW  Elec       q    Type
                         _______ _______ _______ _____ _____    ______ ____

>  <TORSDO>
F 3

$$$$
