=
 OpenBabel11062410193D

 43 47  0  0  1  0  0  0  0  0999 V2000
  160.5450  202.7760  149.7390 C   0  0  1  0  0  3  0  0  0  0  0  0
  161.3000  207.4750  151.7890 C   0  0  0  0  0  0  0  0  0  0  0  0
  161.8610  209.2360  149.6760 C   0  0  0  0  0  0  0  0  0  0  0  0
  160.8690  204.6750  151.3200 C   0  0  1  0  0  3  0  0  0  0  0  0
  161.1860  203.5960  148.6200 C   0  0  0  0  0  2  0  0  0  0  0  0
  160.8100  201.3040  149.5060 C   0  0  0  0  0  1  0  0  0  0  0  0
  161.5700  205.4800  150.2210 C   0  0  1  0  0  3  0  0  0  0  0  0
  161.1070  203.1870  151.1000 C   0  0  0  0  0  2  0  0  0  0  0  0
  160.9810  205.0910  148.8620 C   0  0  0  0  0  2  0  0  0  0  0  0
  161.8270  207.8610  149.4450 C   0  0  0  0  0  3  0  0  0  0  0  0
  161.5120  206.9700  150.4810 C   0  0  0  0  0  0  0  0  0  0  0  0
  160.9530  206.5480  152.9320 C   0  0  0  0  0  2  0  0  0  0  0  0
  161.3320  208.8640  152.0170 C   0  0  0  0  0  0  0  0  0  0  0  0
  161.6160  209.7330  150.9550 C   0  0  0  0  0  3  0  0  0  0  0  0
  161.3920  205.1100  152.6770 C   0  0  0  0  0  2  0  0  0  0  0  0
  162.2330  210.1640  148.5760 C   0  0  0  0  0  2  0  0  0  0  0  0
  162.1940  211.5340  149.0670 N   0  0  0  0  0  2  0  0  0  0  0  0
  161.2290  212.2750  148.2670 C   0  0  1  0  0  3  0  0  0  0  0  0
  160.6650  213.3060  149.0220 O   0  0  0  0  0  1  0  0  0  0  0  0
  161.8940  212.8420  147.0120 C   0  0  0  0  0  2  0  0  0  0  0  0
  161.0890  212.5870  145.7410 C   0  0  0  0  0  2  0  0  0  0  0  0
  161.3430  213.6220  144.7510 N   0  0  0  0  0  0  0  0  0  0  0  0
  161.9810  213.1390  142.4900 C   0  0  2  0  0  3  0  0  0  0  0  0
  160.1950  213.6930  143.9380 N   0  0  0  0  0  2  0  0  0  0  0  0
  162.4470  213.1460  143.9200 C   0  0  1  0  0  3  0  0  0  0  0  0
  163.6340  214.0790  144.0580 C   0  0  0  0  0  1  0  0  0  0  0  0
  160.6490  213.8240  142.5660 C   0  0  0  0  0  2  0  0  0  0  0  0
  161.8110  211.7910  142.0700 O   0  0  0  0  0  0  0  0  0  0  0  0
  161.9660  211.3930  140.7400 C   0  0  0  0  0  0  0  0  0  0  0  0
  161.7140  210.1720  138.7450 C   0  0  0  0  0  0  0  0  0  0  0  0
  162.9280  211.3930  138.2710 S   0  0  0  0  0  0  0  0  0  0  0  0
  161.3750  209.2740  137.9930 O   0  0  0  0  0  0  0  0  0  0  0  0
  162.8540  211.9880  139.9560 C   0  0  0  0  0  3  0  0  0  0  0  0
  161.1670  210.2960  140.1200 C   0  0  0  0  0  2  0  0  0  0  0  0
  161.0960  209.3760  153.3380 N   0  0  0  0  0  2  0  0  0  0  0  0
  161.2880  210.7630  153.7590 C   0  0  2  0  0  3  0  0  0  0  0  0
  161.7190  210.8070  155.0850 O   0  0  0  0  0  1  0  0  0  0  0  0
  160.0090  211.5730  153.6010 C   0  0  0  0  0  2  0  0  0  0  0  0
  159.1570  211.3990  154.7640 N   0  0  0  0  0  2  0  0  0  0  0  0
  157.7960  211.6790  154.3300 C   0  0  0  0  0  2  0  0  0  0  0  0
  156.2560  212.8020  155.9670 C   0  0  0  0  0  1  0  0  0  0  0  0
  156.7940  211.4760  155.4650 C   0  0  0  0  0  3  0  0  0  0  0  0
  155.6500  210.5720  155.0440 C   0  0  0  0  0  1  0  0  0  0  0  0
  1  6  1  6  0  0  0
  1  8  1  0  0  0  0
  2 13  1  0  0  0  0
  2 12  1  0  0  0  0
  3 14  1  0  0  0  0
  4  8  1  6  0  0  0
  4 15  1  0  0  0  0
  5  9  1  0  0  0  0
  5  1  1  0  0  0  0
  7  9  1  6  0  0  0
  7 11  1  0  0  0  0
  7  4  1  0  0  0  0
 10  3  2  0  0  0  0
 10 11  1  0  0  0  0
 11  2  2  0  0  0  0
 13 35  1  0  0  0  0
 14 13  2  0  0  0  0
 15 12  1  0  0  0  0
 16 17  1  0  0  0  0
 16  3  1  0  0  0  0
 18 19  1  1  0  0  0
 18 17  1  0  0  0  0
 20 18  1  0  0  0  0
 21 20  1  0  0  0  0
 22 21  1  0  0  0  0
 23 28  1  1  0  0  0
 23 27  1  0  0  0  0
 23 25  1  0  0  0  0
 24 22  1  0  0  0  0
 25 26  1  6  0  0  0
 25 22  1  0  0  0  0
 27 24  1  0  0  0  0
 29 28  1  0  0  0  0
 30 34  1  0  0  0  0
 31 30  1  0  0  0  0
 31 33  1  0  0  0  0
 32 30  2  0  0  0  0
 33 29  2  0  0  0  0
 34 29  1  0  0  0  0
 35 36  1  0  0  0  0
 36 37  1  1  0  0  0
 38 36  1  0  0  0  0
 38 39  1  0  0  0  0
 40 39  1  0  0  0  0
 40 42  1  0  0  0  0
 42 41  1  0  0  0  0
 43 42  1  0  0  0  0
M  END
>  <MODEL>
1

>  <REMARK>
 VINA RESULT:      -8.6      0.000      0.000
  Name = 
  14 active torsions:
  status: ('A' for Active; 'I' for Inactive)
    1  A    between atoms: C_1  and  C_9
    2  A    between atoms: C_1  and  N_35
    3  A    between atoms: C_2  and  N_6
    4  A    between atoms: C_2  and  C_13
    5  A    between atoms: C_3  and  N_4
    6  A    between atoms: C_3  and  C_7
    7  A    between atoms: N_6  and  C_12
    8  A    between atoms: C_7  and  C_12
    9  A    between atoms: C_9  and  N_32
   10  A    between atoms: C_10  and  O_14
   11  A    between atoms: C_11  and  O_14
   12  A    between atoms: C_25  and  N_32
   13  A    between atoms: C_25  and  C_37
   14  A    between atoms: C_34  and  N_35
                            x       y       z     vdW  Elec       q    Type
                         _______ _______ _______ _____ _____    ______ ____

>  <TORSDO>
F 14

$$$$
=
 OpenBabel11062410193D

 43 47  0  0  1  0  0  0  0  0999 V2000
  160.5400  203.0510  149.7690 C   0  0  1  0  0  3  0  0  0  0  0  0
  161.2710  207.6650  152.0090 C   0  0  0  0  0  0  0  0  0  0  0  0
  161.9650  209.4840  149.9860 C   0  0  0  0  0  0  0  0  0  0  0  0
  160.8170  204.8910  151.4270 C   0  0  1  0  0  3  0  0  0  0  0  0
  161.2490  203.8950  148.7100 C   0  0  0  0  0  2  0  0  0  0  0  0
  160.7920  201.5830  149.5000 C   0  0  0  0  0  1  0  0  0  0  0  0
  161.5850  205.7190  150.3900 C   0  0  1  0  0  3  0  0  0  0  0  0
  161.0410  203.4070  151.1680 C   0  0  0  0  0  2  0  0  0  0  0  0
  161.0570  205.3850  148.9920 C   0  0  0  0  0  2  0  0  0  0  0  0
  161.9190  208.1190  149.7080 C   0  0  0  0  0  3  0  0  0  0  0  0
  161.5390  207.2000  150.6970 C   0  0  0  0  0  0  0  0  0  0  0  0
  160.8530  206.7090  153.1020 C   0  0  0  0  0  2  0  0  0  0  0  0
  161.3150  209.0450  152.2850 C   0  0  0  0  0  0  0  0  0  0  0  0
  161.6650  209.9430  151.2680 C   0  0  0  0  0  3  0  0  0  0  0  0
  161.2800  205.2720  152.8200 C   0  0  0  0  0  2  0  0  0  0  0  0
  162.4050  210.4410  148.9370 C   0  0  0  0  0  2  0  0  0  0  0  0
  161.2680  211.2400  148.5050 N   0  0  0  0  0  2  0  0  0  0  0  0
  161.7070  212.6230  148.3790 C   0  0  1  0  0  3  0  0  0  0  0  0
  162.7540  212.7160  147.4590 O   0  0  0  0  0  1  0  0  0  0  0  0
  160.5440  213.5180  147.9480 C   0  0  0  0  0  2  0  0  0  0  0  0
  160.6230  213.9390  146.4830 C   0  0  0  0  0  2  0  0  0  0  0  0
  159.6210  213.2450  145.6900 N   0  0  0  0  0  0  0  0  0  0  0  0
  159.3250  213.6170  143.3400 C   0  0  2  0  0  3  0  0  0  0  0  0
  160.2960  212.2270  144.9890 N   0  0  0  0  0  2  0  0  0  0  0  0
  159.1220  214.2050  144.7090 C   0  0  1  0  0  3  0  0  0  0  0  0
  157.6430  214.4530  144.9360 C   0  0  0  0  0  1  0  0  0  0  0  0
  159.7670  212.2150  143.6370 C   0  0  0  0  0  2  0  0  0  0  0  0
  160.3700  214.3280  142.6860 O   0  0  0  0  0  0  0  0  0  0  0  0
  160.9620  213.8750  141.5050 C   0  0  0  0  0  0  0  0  0  0  0  0
  162.5830  213.0750  140.0010 C   0  0  0  0  0  0  0  0  0  0  0  0
  161.1610  213.2550  138.9370 S   0  0  0  0  0  0  0  0  0  0  0  0
  163.6780  212.7590  139.5650 O   0  0  0  0  0  0  0  0  0  0  0  0
  160.2860  213.8850  140.3650 C   0  0  0  0  0  3  0  0  0  0  0  0
  162.3620  213.3640  141.4400 C   0  0  0  0  0  2  0  0  0  0  0  0
  161.0220  209.5180  153.6100 N   0  0  0  0  0  2  0  0  0  0  0  0
  161.3190  210.8560  154.1190 C   0  0  2  0  0  3  0  0  0  0  0  0
  162.3950  210.8050  155.0050 O   0  0  0  0  0  1  0  0  0  0  0  0
  160.1070  211.4690  154.8070 C   0  0  0  0  0  2  0  0  0  0  0  0
  159.7130  212.6940  154.1330 N   0  0  0  0  0  2  0  0  0  0  0  0
  158.5100  212.3840  153.3740 C   0  0  0  0  0  2  0  0  0  0  0  0
  157.5510  213.0580  151.1520 C   0  0  0  0  0  1  0  0  0  0  0  0
  158.7570  212.4830  151.8700 C   0  0  0  0  0  3  0  0  0  0  0  0
  159.9920  213.3090  151.5610 C   0  0  0  0  0  1  0  0  0  0  0  0
  1  6  1  6  0  0  0
  1  8  1  0  0  0  0
  2 13  1  0  0  0  0
  2 12  1  0  0  0  0
  3 14  1  0  0  0  0
  4  8  1  6  0  0  0
  4 15  1  0  0  0  0
  5  9  1  0  0  0  0
  5  1  1  0  0  0  0
  7  9  1  6  0  0  0
  7 11  1  0  0  0  0
  7  4  1  0  0  0  0
 10  3  2  0  0  0  0
 10 11  1  0  0  0  0
 11  2  2  0  0  0  0
 13 35  1  0  0  0  0
 14 13  2  0  0  0  0
 15 12  1  0  0  0  0
 16  3  1  0  0  0  0
 17 16  1  0  0  0  0
 18 19  1  6  0  0  0
 18 17  1  0  0  0  0
 20 18  1  0  0  0  0
 21 20  1  0  0  0  0
 22 21  1  0  0  0  0
 23 28  1  1  0  0  0
 23 27  1  0  0  0  0
 23 25  1  0  0  0  0
 24 22  1  0  0  0  0
 25 26  1  1  0  0  0
 25 22  1  0  0  0  0
 27 24  1  0  0  0  0
 29 28  1  0  0  0  0
 30 34  1  0  0  0  0
 31 30  1  0  0  0  0
 31 33  1  0  0  0  0
 32 30  2  0  0  0  0
 33 29  2  0  0  0  0
 34 29  1  0  0  0  0
 35 36  1  0  0  0  0
 36 38  1  0  0  0  0
 36 37  1  1  0  0  0
 39 38  1  0  0  0  0
 40 39  1  0  0  0  0
 41 42  1  0  0  0  0
 42 40  1  0  0  0  0
 43 42  1  0  0  0  0
M  END
>  <MODEL>
2

>  <REMARK>
 VINA RESULT:      -7.9      1.813      2.414
  Name = 
  14 active torsions:
  status: ('A' for Active; 'I' for Inactive)
    1  A    between atoms: C_1  and  C_9
    2  A    between atoms: C_1  and  N_35
    3  A    between atoms: C_2  and  N_6
    4  A    between atoms: C_2  and  C_13
    5  A    between atoms: C_3  and  N_4
    6  A    between atoms: C_3  and  C_7
    7  A    between atoms: N_6  and  C_12
    8  A    between atoms: C_7  and  C_12
    9  A    between atoms: C_9  and  N_32
   10  A    between atoms: C_10  and  O_14
   11  A    between atoms: C_11  and  O_14
   12  A    between atoms: C_25  and  N_32
   13  A    between atoms: C_25  and  C_37
   14  A    between atoms: C_34  and  N_35
                            x       y       z     vdW  Elec       q    Type
                         _______ _______ _______ _____ _____    ______ ____

>  <TORSDO>
F 14

$$$$
=
 OpenBabel11062410193D

 43 47  0  0  1  0  0  0  0  0999 V2000
  161.1380  202.8580  150.1620 C   0  0  1  0  0  3  0  0  0  0  0  0
  161.5760  208.0050  149.7710 C   0  0  0  0  0  0  0  0  0  0  0  0
  161.5970  209.0500  152.3770 C   0  0  0  0  0  0  0  0  0  0  0  0
  161.2640  205.1910  149.2970 C   0  0  1  0  0  3  0  0  0  0  0  0
  160.7880  203.3900  151.5520 C   0  0  0  0  0  2  0  0  0  0  0  0
  160.5000  201.4990  149.9630 C   0  0  0  0  0  1  0  0  0  0  0  0
  160.8520  205.7300  150.6710 C   0  0  1  0  0  3  0  0  0  0  0  0
  160.6470  203.8160  149.0770 C   0  0  0  0  0  2  0  0  0  0  0  0
  161.3740  204.7860  151.7560 C   0  0  0  0  0  2  0  0  0  0  0  0
  161.2740  207.7100  152.1670 C   0  0  0  0  0  3  0  0  0  0  0  0
  161.2940  207.1630  150.8760 C   0  0  0  0  0  0  0  0  0  0  0  0
  161.6120  207.4540  148.3640 C   0  0  0  0  0  2  0  0  0  0  0  0
  161.9050  209.3570  149.9870 C   0  0  0  0  0  0  0  0  0  0  0  0
  161.9100  209.8680  151.2920 C   0  0  0  0  0  3  0  0  0  0  0  0
  160.8180  206.1610  148.2180 C   0  0  0  0  0  2  0  0  0  0  0  0
  161.5360  209.6230  153.7470 C   0  0  0  0  0  2  0  0  0  0  0  0
  160.2220  210.2080  153.9670 N   0  0  0  0  0  2  0  0  0  0  0  0
  160.3370  211.6520  153.8140 C   0  0  1  0  0  3  0  0  0  0  0  0
  159.8840  212.0430  152.5520 O   0  0  0  0  0  1  0  0  0  0  0  0
  159.5450  212.3720  154.9060 C   0  0  0  0  0  2  0  0  0  0  0  0
  158.7920  211.4170  155.8280 C   0  0  0  0  0  2  0  0  0  0  0  0
  157.3740  211.7400  155.8620 N   0  0  0  0  0  0  0  0  0  0  0  0
  156.4350  213.6220  154.7090 C   0  0  2  0  0  3  0  0  0  0  0  0
  156.8300  211.2900  154.6440 N   0  0  0  0  0  2  0  0  0  0  0  0
  157.2760  213.1980  155.8810 C   0  0  1  0  0  3  0  0  0  0  0  0
  156.6130  213.6520  157.1670 C   0  0  0  0  0  1  0  0  0  0  0  0
  155.9170  212.3180  154.1770 C   0  0  0  0  0  2  0  0  0  0  0  0
  157.2750  214.2410  153.7430 O   0  0  0  0  0  0  0  0  0  0  0  0
  157.0260  214.1660  152.3700 C   0  0  0  0  0  0  0  0  0  0  0  0
  155.8730  214.1760  150.3200 C   0  0  0  0  0  0  0  0  0  0  0  0
  157.5370  213.7930  149.7970 S   0  0  0  0  0  0  0  0  0  0  0  0
  154.9380  214.1840  149.5380 O   0  0  0  0  0  0  0  0  0  0  0  0
  157.9910  213.8260  151.5280 C   0  0  0  0  0  3  0  0  0  0  0  0
  155.6920  214.4530  151.7670 C   0  0  0  0  0  2  0  0  0  0  0  0
  162.2130  210.2050  148.8690 N   0  0  0  0  0  2  0  0  0  0  0  0
  162.4170  211.6510  148.9300 C   0  0  2  0  0  3  0  0  0  0  0  0
  161.2390  212.2860  149.3230 O   0  0  0  0  0  1  0  0  0  0  0  0
  162.8830  212.2030  147.5900 C   0  0  0  0  0  2  0  0  0  0  0  0
  162.0180  213.2900  147.1660 N   0  0  0  0  0  2  0  0  0  0  0  0
  161.5150  212.9320  145.8470 C   0  0  0  0  0  2  0  0  0  0  0  0
  159.5230  212.9350  144.3170 C   0  0  0  0  0  1  0  0  0  0  0  0
  160.0590  213.3590  145.6710 C   0  0  0  0  0  3  0  0  0  0  0  0
  159.1780  212.8090  146.7780 C   0  0  0  0  0  1  0  0  0  0  0  0
  1  6  1  6  0  0  0
  1  5  1  0  0  0  0
  2 13  2  0  0  0  0
  2 11  1  0  0  0  0
  3 16  1  0  0  0  0
  4 15  1  6  0  0  0
  4  7  1  0  0  0  0
  5  9  1  0  0  0  0
  7 11  1  0  0  0  0
  7  9  1  1  0  0  0
  8  4  1  0  0  0  0
  8  1  1  0  0  0  0
 10  3  1  0  0  0  0
 11 10  2  0  0  0  0
 12  2  1  0  0  0  0
 13 14  1  0  0  0  0
 14  3  2  0  0  0  0
 15 12  1  0  0  0  0
 16 17  1  0  0  0  0
 18 19  1  6  0  0  0
 18 17  1  0  0  0  0
 18 20  1  0  0  0  0
 20 21  1  0  0  0  0
 21 22  1  0  0  0  0
 22 25  1  0  0  0  0
 23 28  1  6  0  0  0
 23 25  1  0  0  0  0
 24 22  1  0  0  0  0
 25 26  1  1  0  0  0
 27 24  1  0  0  0  0
 27 23  1  0  0  0  0
 29 28  1  0  0  0  0
 30 34  1  0  0  0  0
 31 30  1  0  0  0  0
 31 33  1  0  0  0  0
 32 30  2  0  0  0  0
 33 29  2  0  0  0  0
 34 29  1  0  0  0  0
 35 36  1  0  0  0  0
 35 13  1  0  0  0  0
 36 37  1  6  0  0  0
 38 36  1  0  0  0  0
 39 38  1  0  0  0  0
 40 39  1  0  0  0  0
 41 42  1  0  0  0  0
 42 40  1  0  0  0  0
 42 43  1  0  0  0  0
M  END
>  <MODEL>
3

>  <REMARK>
 VINA RESULT:      -7.7      3.661      8.672
  Name = 
  14 active torsions:
  status: ('A' for Active; 'I' for Inactive)
    1  A    between atoms: C_1  and  C_9
    2  A    between atoms: C_1  and  N_35
    3  A    between atoms: C_2  and  N_6
    4  A    between atoms: C_2  and  C_13
    5  A    between atoms: C_3  and  N_4
    6  A    between atoms: C_3  and  C_7
    7  A    between atoms: N_6  and  C_12
    8  A    between atoms: C_7  and  C_12
    9  A    between atoms: C_9  and  N_32
   10  A    between atoms: C_10  and  O_14
   11  A    between atoms: C_11  and  O_14
   12  A    between atoms: C_25  and  N_32
   13  A    between atoms: C_25  and  C_37
   14  A    between atoms: C_34  and  N_35
                            x       y       z     vdW  Elec       q    Type
                         _______ _______ _______ _____ _____    ______ ____

>  <TORSDO>
F 14

$$$$
=
 OpenBabel11062410193D

 43 47  0  0  1  0  0  0  0  0999 V2000
  161.2070  204.2780  146.6060 C   0  0  1  0  0  3  0  0  0  0  0  0
  161.1540  206.9190  151.0630 C   0  0  0  0  0  0  0  0  0  0  0  0
  161.8150  209.5820  150.4720 C   0  0  0  0  0  0  0  0  0  0  0  0
  161.0980  204.9080  149.0140 C   0  0  1  0  0  3  0  0  0  0  0  0
  161.9080  205.5990  146.2890 C   0  0  0  0  0  2  0  0  0  0  0  0
  161.6590  203.2150  145.6270 C   0  0  0  0  0  1  0  0  0  0  0  0
  161.8560  206.2060  148.7160 C   0  0  1  0  0  3  0  0  0  0  0  0
  161.5240  203.8260  148.0310 C   0  0  0  0  0  2  0  0  0  0  0  0
  161.5100  206.6740  147.3000 C   0  0  0  0  0  2  0  0  0  0  0  0
  161.9620  208.5970  149.4970 C   0  0  0  0  0  3  0  0  0  0  0  0
  161.6020  207.2680  149.7640 C   0  0  0  0  0  0  0  0  0  0  0  0
  160.7520  205.4990  151.3900 C   0  0  0  0  0  2  0  0  0  0  0  0
  161.0040  207.9180  152.0440 C   0  0  0  0  0  0  0  0  0  0  0  0
  161.3400  209.2430  151.7380 C   0  0  0  0  0  3  0  0  0  0  0  0
  161.3740  204.4790  150.4430 C   0  0  0  0  0  2  0  0  0  0  0  0
  162.2360  210.9800  150.1850 C   0  0  0  0  0  2  0  0  0  0  0  0
  162.2480  211.1940  148.7460 N   0  0  0  0  0  2  0  0  0  0  0  0
  161.2750  212.2310  148.4340 C   0  0  1  0  0  3  0  0  0  0  0  0
  161.8110  213.4930  148.6990 O   0  0  0  0  0  1  0  0  0  0  0  0
  160.8420  212.1380  146.9700 C   0  0  0  0  0  2  0  0  0  0  0  0
  159.7240  213.1140  146.6130 C   0  0  0  0  0  2  0  0  0  0  0  0
  160.1920  214.1140  145.6650 N   0  0  0  0  0  0  0  0  0  0  0  0
  161.1850  213.5510  143.5560 C   0  0  2  0  0  3  0  0  0  0  0  0
  159.2050  214.2160  144.6670 N   0  0  0  0  0  2  0  0  0  0  0  0
  161.3980  213.5700  145.0440 C   0  0  1  0  0  3  0  0  0  0  0  0
  162.5870  214.4530  145.3700 C   0  0  0  0  0  1  0  0  0  0  0  0
  159.8930  214.2950  143.3910 C   0  0  0  0  0  2  0  0  0  0  0  0
  161.0260  212.2020  143.1330 O   0  0  0  0  0  0  0  0  0  0  0  0
  161.2730  211.7910  141.8220 C   0  0  0  0  0  0  0  0  0  0  0  0
  162.3700  211.4670  139.7670 C   0  0  0  0  0  0  0  0  0  0  0  0
  160.7820  210.7120  139.4520 S   0  0  0  0  0  0  0  0  0  0  0  0
  163.2120  211.5850  138.8930 O   0  0  0  0  0  0  0  0  0  0  0  0
  160.3200  211.2090  141.1070 C   0  0  0  0  0  3  0  0  0  0  0  0
  162.5900  211.9720  141.1450 C   0  0  0  0  0  2  0  0  0  0  0  0
  160.5300  207.5670  153.3540 N   0  0  0  0  0  2  0  0  0  0  0  0
  161.2220  207.8450  154.6110 C   0  0  2  0  0  3  0  0  0  0  0  0
  160.7010  207.0490  155.6320 O   0  0  0  0  0  1  0  0  0  0  0  0
  161.1140  209.3140  154.9910 C   0  0  0  0  0  2  0  0  0  0  0  0
  160.0160  209.5140  155.9200 N   0  0  0  0  0  2  0  0  0  0  0  0
  159.5900  210.8990  155.7730 C   0  0  0  0  0  2  0  0  0  0  0  0
  157.1470  211.4380  155.9910 C   0  0  0  0  0  1  0  0  0  0  0  0
  158.2500  210.9970  155.0480 C   0  0  0  0  0  3  0  0  0  0  0  0
  158.3260  211.9360  153.8580 C   0  0  0  0  0  1  0  0  0  0  0  0
  1  6  1  6  0  0  0
  1  8  1  0  0  0  0
  2 12  1  0  0  0  0
  2 13  1  0  0  0  0
  3 14  1  0  0  0  0
  4  8  1  6  0  0  0
  4 15  1  0  0  0  0
  5  1  1  0  0  0  0
  5  9  1  0  0  0  0
  7  9  1  6  0  0  0
  7  4  1  0  0  0  0
  7 11  1  0  0  0  0
 10 11  1  0  0  0  0
 10  3  2  0  0  0  0
 11  2  2  0  0  0  0
 13 35  1  0  0  0  0
 14 13  2  0  0  0  0
 15 12  1  0  0  0  0
 16  3  1  0  0  0  0
 17 16  1  0  0  0  0
 18 19  1  6  0  0  0
 18 17  1  0  0  0  0
 20 18  1  0  0  0  0
 21 20  1  0  0  0  0
 22 21  1  0  0  0  0
 23 28  1  1  0  0  0
 23 25  1  0  0  0  0
 24 22  1  0  0  0  0
 25 26  1  6  0  0  0
 25 22  1  0  0  0  0
 27 23  1  0  0  0  0
 27 24  1  0  0  0  0
 29 28  1  0  0  0  0
 30 34  1  0  0  0  0
 31 30  1  0  0  0  0
 31 33  1  0  0  0  0
 32 30  2  0  0  0  0
 33 29  2  0  0  0  0
 34 29  1  0  0  0  0
 35 36  1  0  0  0  0
 36 38  1  0  0  0  0
 36 37  1  1  0  0  0
 38 39  1  0  0  0  0
 40 39  1  0  0  0  0
 42 40  1  0  0  0  0
 42 41  1  0  0  0  0
 43 42  1  0  0  0  0
M  END
>  <MODEL>
4

>  <REMARK>
 VINA RESULT:      -7.7      1.655      2.170
  Name = 
  14 active torsions:
  status: ('A' for Active; 'I' for Inactive)
    1  A    between atoms: C_1  and  C_9
    2  A    between atoms: C_1  and  N_35
    3  A    between atoms: C_2  and  N_6
    4  A    between atoms: C_2  and  C_13
    5  A    between atoms: C_3  and  N_4
    6  A    between atoms: C_3  and  C_7
    7  A    between atoms: N_6  and  C_12
    8  A    between atoms: C_7  and  C_12
    9  A    between atoms: C_9  and  N_32
   10  A    between atoms: C_10  and  O_14
   11  A    between atoms: C_11  and  O_14
   12  A    between atoms: C_25  and  N_32
   13  A    between atoms: C_25  and  C_37
   14  A    between atoms: C_34  and  N_35
                            x       y       z     vdW  Elec       q    Type
                         _______ _______ _______ _____ _____    ______ ____

>  <TORSDO>
F 14

$$$$
=
 OpenBabel11062410193D

 43 47  0  0  1  0  0  0  0  0999 V2000
  160.6620  203.6370  149.5570 C   0  0  1  0  0  3  0  0  0  0  0  0
  161.0740  207.4040  153.0900 C   0  0  0  0  0  0  0  0  0  0  0  0
  161.1940  209.8450  151.7100 C   0  0  0  0  0  0  0  0  0  0  0  0
  160.9280  204.9040  151.6860 C   0  0  1  0  0  3  0  0  0  0  0  0
  161.0790  204.8770  148.7650 C   0  0  0  0  0  2  0  0  0  0  0  0
  161.0720  202.3910  148.8010 C   0  0  0  0  0  1  0  0  0  0  0  0
  161.4080  206.1320  150.9040 C   0  0  1  0  0  3  0  0  0  0  0  0
  161.3150  203.6340  150.9380 C   0  0  0  0  0  2  0  0  0  0  0  0
  160.7260  206.1500  149.5330 C   0  0  0  0  0  2  0  0  0  0  0  0
  161.2970  208.6440  151.0090 C   0  0  0  0  0  3  0  0  0  0  0  0
  161.2030  207.4160  151.6780 C   0  0  0  0  0  0  0  0  0  0  0  0
  160.9640  206.1010  153.8490 C   0  0  0  0  0  2  0  0  0  0  0  0
  160.9670  208.6190  153.7940 C   0  0  0  0  0  0  0  0  0  0  0  0
  161.0310  209.8310  153.0940 C   0  0  0  0  0  3  0  0  0  0  0  0
  161.5390  204.9190  153.0750 C   0  0  0  0  0  2  0  0  0  0  0  0
  161.3340  211.1390  150.9910 C   0  0  0  0  0  2  0  0  0  0  0  0
  162.4710  211.0680  150.0860 N   0  0  0  0  0  2  0  0  0  0  0  0
  162.0420  211.5480  148.7800 C   0  0  1  0  0  3  0  0  0  0  0  0
  161.5960  210.4820  147.9950 O   0  0  0  0  0  1  0  0  0  0  0  0
  160.9360  212.5940  148.9280 C   0  0  0  0  0  2  0  0  0  0  0  0
  160.0170  212.6710  147.7120 C   0  0  0  0  0  2  0  0  0  0  0  0
  160.3110  213.8520  146.9160 N   0  0  0  0  0  0  0  0  0  0  0  0
  160.9460  213.7470  144.6050 C   0  0  2  0  0  3  0  0  0  0  0  0
  159.1700  214.1010  146.1280 N   0  0  0  0  0  2  0  0  0  0  0  0
  161.4030  213.4910  146.0140 C   0  0  1  0  0  3  0  0  0  0  0  0
  162.6200  214.3460  146.3120 C   0  0  0  0  0  1  0  0  0  0  0  0
  159.6360  214.4530  144.7990 C   0  0  0  0  0  2  0  0  0  0  0  0
  160.7340  212.4990  143.9580 O   0  0  0  0  0  0  0  0  0  0  0  0
  160.9130  212.3240  142.5840 C   0  0  0  0  0  0  0  0  0  0  0  0
  160.4280  211.9620  140.3110 C   0  0  0  0  0  0  0  0  0  0  0  0
  162.2110  212.0490  140.2910 S   0  0  0  0  0  0  0  0  0  0  0  0
  159.7850  211.6880  139.3120 O   0  0  0  0  0  0  0  0  0  0  0  0
  162.1310  212.2490  142.0670 C   0  0  0  0  0  3  0  0  0  0  0  0
  159.7780  212.2100  141.6220 C   0  0  0  0  0  2  0  0  0  0  0  0
  160.8150  208.6060  155.2220 N   0  0  0  0  0  2  0  0  0  0  0  0
  161.3280  209.6200  156.1410 C   0  0  2  0  0  3  0  0  0  0  0  0
  162.3700  209.0940  156.9040 O   0  0  0  0  0  1  0  0  0  0  0  0
  160.2310  210.1490  157.0540 C   0  0  0  0  0  2  0  0  0  0  0  0
  159.0540  210.4970  156.2760 N   0  0  0  0  0  2  0  0  0  0  0  0
  158.5560  211.7550  156.8130 C   0  0  0  0  0  2  0  0  0  0  0  0
  158.4170  212.1480  154.3370 C   0  0  0  0  0  1  0  0  0  0  0  0
  158.0200  212.6620  155.7070 C   0  0  0  0  0  3  0  0  0  0  0  0
  156.5130  212.8150  155.7930 C   0  0  0  0  0  1  0  0  0  0  0  0
  1  6  1  6  0  0  0
  1  8  1  0  0  0  0
  2 13  1  0  0  0  0
  2 12  1  0  0  0  0
  3 14  1  0  0  0  0
  4  8  1  6  0  0  0
  4 15  1  0  0  0  0
  5  9  1  0  0  0  0
  5  1  1  0  0  0  0
  7  9  1  6  0  0  0
  7 11  1  0  0  0  0
  7  4  1  0  0  0  0
 10 11  1  0  0  0  0
 10  3  2  0  0  0  0
 11  2  2  0  0  0  0
 13 35  1  0  0  0  0
 14 13  2  0  0  0  0
 15 12  1  0  0  0  0
 16  3  1  0  0  0  0
 17 16  1  0  0  0  0
 18 19  1  6  0  0  0
 18 20  1  0  0  0  0
 18 17  1  0  0  0  0
 21 20  1  0  0  0  0
 22 21  1  0  0  0  0
 23 28  1  6  0  0  0
 23 27  1  0  0  0  0
 23 25  1  0  0  0  0
 24 22  1  0  0  0  0
 25 26  1  1  0  0  0
 25 22  1  0  0  0  0
 27 24  1  0  0  0  0
 29 28  1  0  0  0  0
 30 34  1  0  0  0  0
 31 30  1  0  0  0  0
 31 33  1  0  0  0  0
 32 30  2  0  0  0  0
 33 29  2  0  0  0  0
 34 29  1  0  0  0  0
 35 36  1  0  0  0  0
 36 37  1  1  0  0  0
 36 38  1  0  0  0  0
 39 40  1  0  0  0  0
 39 38  1  0  0  0  0
 41 42  1  0  0  0  0
 42 43  1  0  0  0  0
 42 40  1  0  0  0  0
M  END
>  <MODEL>
5

>  <REMARK>
 VINA RESULT:      -7.5      1.728      2.152
  Name = 
  14 active torsions:
  status: ('A' for Active; 'I' for Inactive)
    1  A    between atoms: C_1  and  C_9
    2  A    between atoms: C_1  and  N_35
    3  A    between atoms: C_2  and  N_6
    4  A    between atoms: C_2  and  C_13
    5  A    between atoms: C_3  and  N_4
    6  A    between atoms: C_3  and  C_7
    7  A    between atoms: N_6  and  C_12
    8  A    between atoms: C_7  and  C_12
    9  A    between atoms: C_9  and  N_32
   10  A    between atoms: C_10  and  O_14
   11  A    between atoms: C_11  and  O_14
   12  A    between atoms: C_25  and  N_32
   13  A    between atoms: C_25  and  C_37
   14  A    between atoms: C_34  and  N_35
                            x       y       z     vdW  Elec       q    Type
                         _______ _______ _______ _____ _____    ______ ____

>  <TORSDO>
F 14

$$$$
=
 OpenBabel11062410193D

 43 47  0  0  1  0  0  0  0  0999 V2000
  160.5940  202.4350  148.1530 C   0  0  1  0  0  3  0  0  0  0  0  0
  161.3530  206.4800  151.2990 C   0  0  0  0  0  0  0  0  0  0  0  0
  161.9390  208.7030  149.6880 C   0  0  0  0  0  0  0  0  0  0  0  0
  160.9140  203.8840  150.1540 C   0  0  1  0  0  3  0  0  0  0  0  0
  161.2480  203.5010  147.2730 C   0  0  0  0  0  2  0  0  0  0  0  0
  160.8550  201.0630  147.5670 C   0  0  0  0  0  1  0  0  0  0  0  0
  161.6270  204.9310  149.2910 C   0  0  1  0  0  3  0  0  0  0  0  0
  161.1480  202.4940  149.5760 C   0  0  0  0  0  2  0  0  0  0  0  0
  161.0470  204.8910  147.8740 C   0  0  0  0  0  2  0  0  0  0  0  0
  161.9000  207.4280  149.1260 C   0  0  0  0  0  3  0  0  0  0  0  0
  161.5740  206.3110  149.9090 C   0  0  0  0  0  0  0  0  0  0  0  0
  160.9940  205.3030  152.1770 C   0  0  0  0  0  2  0  0  0  0  0  0
  161.3900  207.7700  151.8620 C   0  0  0  0  0  0  0  0  0  0  0  0
  161.6860  208.8720  151.0480 C   0  0  0  0  0  3  0  0  0  0  0  0
  161.4280  203.9690  151.5790 C   0  0  0  0  0  2  0  0  0  0  0  0
  162.3230  209.8720  148.8520 C   0  0  0  0  0  2  0  0  0  0  0  0
  161.9370  211.0990  149.5320 N   0  0  0  0  0  2  0  0  0  0  0  0
  162.4970  212.2220  148.7940 C   0  0  1  0  0  3  0  0  0  0  0  0
  162.9280  211.8050  147.5320 O   0  0  0  0  0  1  0  0  0  0  0  0
  161.4650  213.3420  148.6560 C   0  0  0  0  0  2  0  0  0  0  0  0
  161.1750  213.7140  147.2040 C   0  0  0  0  0  2  0  0  0  0  0  0
  159.9440  213.0890  146.7450 N   0  0  0  0  0  0  0  0  0  0  0  0
  158.8970  213.6400  144.6590 C   0  0  2  0  0  3  0  0  0  0  0  0
  160.3140  212.1210  145.7920 N   0  0  0  0  0  2  0  0  0  0  0  0
  159.1800  214.1250  146.0540 C   0  0  1  0  0  3  0  0  0  0  0  0
  157.8690  214.3680  146.7770 C   0  0  0  0  0  1  0  0  0  0  0  0
  159.3660  212.2150  144.6960 C   0  0  0  0  0  2  0  0  0  0  0  0
  159.6890  214.3880  143.7440 O   0  0  0  0  0  0  0  0  0  0  0  0
  159.7010  214.1270  142.3720 C   0  0  0  0  0  0  0  0  0  0  0  0
  160.4920  213.8210  140.1780 C   0  0  0  0  0  0  0  0  0  0  0  0
  158.7330  213.6050  139.9610 S   0  0  0  0  0  0  0  0  0  0  0  0
  161.2620  213.8260  139.2330 O   0  0  0  0  0  0  0  0  0  0  0  0
  158.5670  213.9560  141.7080 C   0  0  0  0  0  3  0  0  0  0  0  0
  160.9570  214.0260  141.5730 C   0  0  0  0  0  2  0  0  0  0  0  0
  161.1460  207.9430  153.2670 N   0  0  0  0  0  2  0  0  0  0  0  0
  160.8280  209.2100  153.9240 C   0  0  2  0  0  3  0  0  0  0  0  0
  160.4040  208.9790  155.2330 O   0  0  0  0  0  1  0  0  0  0  0  0
  159.7600  209.9790  153.1600 C   0  0  0  0  0  2  0  0  0  0  0  0
  158.9230  210.7270  154.0820 N   0  0  0  0  0  2  0  0  0  0  0  0
  159.4870  212.0670  154.1640 C   0  0  0  0  0  2  0  0  0  0  0  0
  158.7110  214.4530  154.0410 C   0  0  0  0  0  1  0  0  0  0  0  0
  158.4490  213.0830  154.6360 C   0  0  0  0  0  3  0  0  0  0  0  0
  157.0370  212.6310  154.3070 C   0  0  0  0  0  1  0  0  0  0  0  0
  1  6  1  6  0  0  0
  1  8  1  0  0  0  0
  2 13  1  0  0  0  0
  2 12  1  0  0  0  0
  3 14  1  0  0  0  0
  4  8  1  6  0  0  0
  4 15  1  0  0  0  0
  5  9  1  0  0  0  0
  5  1  1  0  0  0  0
  7  9  1  6  0  0  0
  7 11  1  0  0  0  0
  7  4  1  0  0  0  0
 10  3  2  0  0  0  0
 10 11  1  0  0  0  0
 11  2  2  0  0  0  0
 13 35  1  0  0  0  0
 14 13  2  0  0  0  0
 15 12  1  0  0  0  0
 16 17  1  0  0  0  0
 16  3  1  0  0  0  0
 18 19  1  6  0  0  0
 18 17  1  0  0  0  0
 20 18  1  0  0  0  0
 21 20  1  0  0  0  0
 22 21  1  0  0  0  0
 23 28  1  6  0  0  0
 23 27  1  0  0  0  0
 23 25  1  0  0  0  0
 24 22  1  0  0  0  0
 25 22  1  0  0  0  0
 25 26  1  1  0  0  0
 27 24  1  0  0  0  0
 29 28  1  0  0  0  0
 30 34  1  0  0  0  0
 31 30  1  0  0  0  0
 31 33  1  0  0  0  0
 32 30  2  0  0  0  0
 33 29  2  0  0  0  0
 34 29  1  0  0  0  0
 35 36  1  0  0  0  0
 36 37  1  1  0  0  0
 38 36  1  0  0  0  0
 38 39  1  0  0  0  0
 39 40  1  0  0  0  0
 40 42  1  0  0  0  0
 41 42  1  0  0  0  0
 43 42  1  0  0  0  0
M  END
>  <MODEL>
6

>  <REMARK>
 VINA RESULT:      -6.9      2.147      2.695
  Name = 
  14 active torsions:
  status: ('A' for Active; 'I' for Inactive)
    1  A    between atoms: C_1  and  C_9
    2  A    between atoms: C_1  and  N_35
    3  A    between atoms: C_2  and  N_6
    4  A    between atoms: C_2  and  C_13
    5  A    between atoms: C_3  and  N_4
    6  A    between atoms: C_3  and  C_7
    7  A    between atoms: N_6  and  C_12
    8  A    between atoms: C_7  and  C_12
    9  A    between atoms: C_9  and  N_32
   10  A    between atoms: C_10  and  O_14
   11  A    between atoms: C_11  and  O_14
   12  A    between atoms: C_25  and  N_32
   13  A    between atoms: C_25  and  C_37
   14  A    between atoms: C_34  and  N_35
                            x       y       z     vdW  Elec       q    Type
                         _______ _______ _______ _____ _____    ______ ____

>  <TORSDO>
F 14

$$$$
=
 OpenBabel11062410193D

 43 47  0  0  1  0  0  0  0  0999 V2000
  160.5760  202.1730  148.0320 C   0  0  1  0  0  3  0  0  0  0  0  0
  161.1820  205.5160  151.9430 C   0  0  0  0  0  0  0  0  0  0  0  0
  161.6690  208.0440  150.8230 C   0  0  0  0  0  0  0  0  0  0  0  0
  160.8450  203.1950  150.2890 C   0  0  1  0  0  3  0  0  0  0  0  0
  161.1820  203.4230  147.3920 C   0  0  0  0  0  2  0  0  0  0  0  0
  160.8900  200.9630  147.1780 C   0  0  0  0  0  1  0  0  0  0  0  0
  161.5110  204.4240  149.6610 C   0  0  1  0  0  3  0  0  0  0  0  0
  161.1330  201.9630  149.4400 C   0  0  0  0  0  2  0  0  0  0  0  0
  160.9270  204.6510  148.2640 C   0  0  0  0  0  2  0  0  0  0  0  0
  161.6810  206.9110  150.0120 C   0  0  0  0  0  3  0  0  0  0  0  0
  161.4030  205.6450  150.5490 C   0  0  0  0  0  0  0  0  0  0  0  0
  160.8750  204.1710  152.5600 C   0  0  0  0  0  2  0  0  0  0  0  0
  161.1680  206.6650  152.7580 C   0  0  0  0  0  0  0  0  0  0  0  0
  161.4150  207.9210  152.1880 C   0  0  0  0  0  3  0  0  0  0  0  0
  161.3610  203.0070  151.7030 C   0  0  0  0  0  2  0  0  0  0  0  0
  162.0010  209.3740  150.2460 C   0  0  0  0  0  2  0  0  0  0  0  0
  162.2830  209.2270  148.8260 N   0  0  0  0  0  2  0  0  0  0  0  0
  162.0450  210.5100  148.1810 C   0  0  1  0  0  3  0  0  0  0  0  0
  160.8440  210.4790  147.4690 O   0  0  0  0  0  1  0  0  0  0  0  0
  162.0150  211.6340  149.2180 C   0  0  0  0  0  2  0  0  0  0  0  0
  160.6910  212.3940  149.2380 C   0  0  0  0  0  2  0  0  0  0  0  0
  160.8230  213.6810  148.5730 N   0  0  0  0  0  0  0  0  0  0  0  0
  161.2890  213.8990  146.2310 C   0  0  2  0  0  3  0  0  0  0  0  0
  159.6090  213.9100  147.8960 N   0  0  0  0  0  2  0  0  0  0  0  0
  161.8710  213.5280  147.5670 C   0  0  1  0  0  3  0  0  0  0  0  0
  163.0290  214.4530  147.8860 C   0  0  0  0  0  1  0  0  0  0  0  0
  159.9420  214.4530  146.5910 C   0  0  0  0  0  2  0  0  0  0  0  0
  161.1370  212.7180  145.4530 O   0  0  0  0  0  0  0  0  0  0  0  0
  161.1910  212.7240  144.0580 C   0  0  0  0  0  0  0  0  0  0  0  0
  162.0360  212.9030  141.8700 C   0  0  0  0  0  0  0  0  0  0  0  0
  160.3030  212.5950  141.5640 S   0  0  0  0  0  0  0  0  0  0  0  0
  162.8160  213.1470  140.9660 O   0  0  0  0  0  0  0  0  0  0  0  0
  160.0840  212.5940  143.3400 C   0  0  0  0  0  3  0  0  0  0  0  0
  162.4620  212.8750  143.2920 C   0  0  0  0  0  2  0  0  0  0  0  0
  160.9220  206.5360  154.1680 N   0  0  0  0  0  2  0  0  0  0  0  0
  161.0570  207.6060  155.1550 C   0  0  2  0  0  3  0  0  0  0  0  0
  160.3670  207.2740  156.3210 O   0  0  0  0  0  1  0  0  0  0  0  0
  160.5470  208.9320  154.6090 C   0  0  0  0  0  2  0  0  0  0  0  0
  160.9870  210.0270  155.4560 N   0  0  0  0  0  2  0  0  0  0  0  0
  159.8180  210.8610  155.7010 C   0  0  0  0  0  2  0  0  0  0  0  0
  158.5350  211.3810  153.6050 C   0  0  0  0  0  1  0  0  0  0  0  0
  159.6010  211.8640  154.5690 C   0  0  0  0  0  3  0  0  0  0  0  0
  159.2400  213.2380  155.1040 C   0  0  0  0  0  1  0  0  0  0  0  0
  1  6  1  6  0  0  0
  1  8  1  0  0  0  0
  2 12  1  0  0  0  0
  2 13  1  0  0  0  0
  3 14  1  0  0  0  0
  4  8  1  6  0  0  0
  4 15  1  0  0  0  0
  5  1  1  0  0  0  0
  5  9  1  0  0  0  0
  7  9  1  6  0  0  0
  7  4  1  0  0  0  0
  7 11  1  0  0  0  0
 10 11  1  0  0  0  0
 10  3  2  0  0  0  0
 11  2  2  0  0  0  0
 13 35  1  0  0  0  0
 14 13  2  0  0  0  0
 15 12  1  0  0  0  0
 16  3  1  0  0  0  0
 17 16  1  0  0  0  0
 18 19  1  1  0  0  0
 18 17  1  0  0  0  0
 18 20  1  0  0  0  0
 20 21  1  0  0  0  0
 22 21  1  0  0  0  0
 23 28  1  6  0  0  0
 23 27  1  0  0  0  0
 23 25  1  0  0  0  0
 24 22  1  0  0  0  0
 25 26  1  1  0  0  0
 25 22  1  0  0  0  0
 27 24  1  0  0  0  0
 29 28  1  0  0  0  0
 30 34  1  0  0  0  0
 31 30  1  0  0  0  0
 31 33  1  0  0  0  0
 32 30  2  0  0  0  0
 33 29  2  0  0  0  0
 34 29  1  0  0  0  0
 35 36  1  0  0  0  0
 36 37  1  1  0  0  0
 38 36  1  0  0  0  0
 38 39  1  0  0  0  0
 39 40  1  0  0  0  0
 41 42  1  0  0  0  0
 42 43  1  0  0  0  0
 42 40  1  0  0  0  0
M  END
>  <MODEL>
7

>  <REMARK>
 VINA RESULT:      -6.8      2.221      3.088
  Name = 
  14 active torsions:
  status: ('A' for Active; 'I' for Inactive)
    1  A    between atoms: C_1  and  C_9
    2  A    between atoms: C_1  and  N_35
    3  A    between atoms: C_2  and  N_6
    4  A    between atoms: C_2  and  C_13
    5  A    between atoms: C_3  and  N_4
    6  A    between atoms: C_3  and  C_7
    7  A    between atoms: N_6  and  C_12
    8  A    between atoms: C_7  and  C_12
    9  A    between atoms: C_9  and  N_32
   10  A    between atoms: C_10  and  O_14
   11  A    between atoms: C_11  and  O_14
   12  A    between atoms: C_25  and  N_32
   13  A    between atoms: C_25  and  C_37
   14  A    between atoms: C_34  and  N_35
                            x       y       z     vdW  Elec       q    Type
                         _______ _______ _______ _____ _____    ______ ____

>  <TORSDO>
F 14

$$$$
=
 OpenBabel11062410193D

 43 47  0  0  1  0  0  0  0  0999 V2000
  160.7720  203.8560  146.5070 C   0  0  1  0  0  3  0  0  0  0  0  0
  161.4290  207.2130  150.3980 C   0  0  0  0  0  0  0  0  0  0  0  0
  161.9870  209.7190  149.2640 C   0  0  0  0  0  0  0  0  0  0  0  0
  161.0480  204.8870  148.7590 C   0  0  1  0  0  3  0  0  0  0  0  0
  161.4130  205.0850  145.8630 C   0  0  0  0  0  2  0  0  0  0  0  0
  161.0630  202.6320  145.6650 C   0  0  0  0  0  1  0  0  0  0  0  0
  161.7490  206.0950  148.1270 C   0  0  1  0  0  3  0  0  0  0  0  0
  161.3120  203.6430  147.9210 C   0  0  0  0  0  2  0  0  0  0  0  0
  161.1810  206.3260  146.7240 C   0  0  0  0  0  2  0  0  0  0  0  0
  161.9770  208.5800  148.4610 C   0  0  0  0  0  3  0  0  0  0  0  0
  161.6640  207.3260  149.0050 C   0  0  0  0  0  0  0  0  0  0  0  0
  161.0840  205.8800  151.0230 C   0  0  0  0  0  2  0  0  0  0  0  0
  161.4370  208.3670  151.2050 C   0  0  0  0  0  0  0  0  0  0  0  0
  161.7190  209.6120  150.6280 C   0  0  0  0  0  3  0  0  0  0  0  0
  161.5480  204.6980  150.1780 C   0  0  0  0  0  2  0  0  0  0  0  0
  162.3560  211.0360  148.6800 C   0  0  0  0  0  2  0  0  0  0  0  0
  161.5380  212.0780  149.2830 N   0  0  0  0  0  2  0  0  0  0  0  0
  161.6800  213.2860  148.4820 C   0  0  1  0  0  3  0  0  0  0  0  0
  162.7230  213.1390  147.5650 O   0  0  0  0  0  1  0  0  0  0  0  0
  160.3740  213.6020  147.7520 C   0  0  0  0  0  2  0  0  0  0  0  0
  160.5770  213.9170  146.2720 C   0  0  0  0  0  2  0  0  0  0  0  0
  159.5820  213.2390  145.4570 N   0  0  0  0  0  0  0  0  0  0  0  0
  159.2670  213.7010  143.1240 C   0  0  2  0  0  3  0  0  0  0  0  0
  160.2690  212.2610  144.7120 N   0  0  0  0  0  2  0  0  0  0  0  0
  159.0620  214.2300  144.5170 C   0  0  1  0  0  3  0  0  0  0  0  0
  157.5810  214.4440  144.7610 C   0  0  0  0  0  1  0  0  0  0  0  0
  159.7330  212.2950  143.3630 C   0  0  0  0  0  2  0  0  0  0  0  0
  160.2960  214.4530  142.4950 O   0  0  0  0  0  0  0  0  0  0  0  0
  160.7850  214.1420  141.2240 C   0  0  0  0  0  0  0  0  0  0  0  0
  160.8410  213.4780  138.9690 C   0  0  0  0  0  0  0  0  0  0  0  0
  162.5740  213.7380  139.3110 S   0  0  0  0  0  0  0  0  0  0  0  0
  160.4550  213.0300  137.9020 O   0  0  0  0  0  0  0  0  0  0  0  0
  162.0900  214.1300  140.9880 C   0  0  0  0  0  3  0  0  0  0  0  0
  159.9020  213.8080  140.0700 C   0  0  0  0  0  2  0  0  0  0  0  0
  161.1770  208.2550  152.6140 N   0  0  0  0  0  2  0  0  0  0  0  0
  160.7320  209.3420  153.4840 C   0  0  2  0  0  3  0  0  0  0  0  0
  161.5460  210.4610  153.3100 O   0  0  0  0  0  1  0  0  0  0  0  0
  160.7350  208.9190  154.9460 C   0  0  0  0  0  2  0  0  0  0  0  0
  159.8840  209.8010  155.7260 N   0  0  0  0  0  2  0  0  0  0  0  0
  160.4880  209.9030  157.0470 C   0  0  0  0  0  2  0  0  0  0  0  0
  162.6920  211.1030  156.9350 C   0  0  0  0  0  1  0  0  0  0  0  0
  161.2100  211.2360  157.2290 C   0  0  0  0  0  3  0  0  0  0  0  0
  160.6000  212.3230  156.3630 C   0  0  0  0  0  1  0  0  0  0  0  0
  1  6  1  6  0  0  0
  1  8  1  0  0  0  0
  2 12  1  0  0  0  0
  2 13  1  0  0  0  0
  3 14  1  0  0  0  0
  4  8  1  6  0  0  0
  4 15  1  0  0  0  0
  5  1  1  0  0  0  0
  5  9  1  0  0  0  0
  7  9  1  6  0  0  0
  7  4  1  0  0  0  0
  7 11  1  0  0  0  0
 10 11  1  0  0  0  0
 10  3  2  0  0  0  0
 11  2  2  0  0  0  0
 13 35  1  0  0  0  0
 14 13  2  0  0  0  0
 15 12  1  0  0  0  0
 16  3  1  0  0  0  0
 16 17  1  0  0  0  0
 18 19  1  6  0  0  0
 18 17  1  0  0  0  0
 20 18  1  0  0  0  0
 21 20  1  0  0  0  0
 22 21  1  0  0  0  0
 23 28  1  1  0  0  0
 23 27  1  0  0  0  0
 23 25  1  0  0  0  0
 24 22  1  0  0  0  0
 25 26  1  1  0  0  0
 25 22  1  0  0  0  0
 27 24  1  0  0  0  0
 29 28  1  0  0  0  0
 30 31  1  0  0  0  0
 30 34  1  0  0  0  0
 31 33  1  0  0  0  0
 32 30  2  0  0  0  0
 33 29  2  0  0  0  0
 34 29  1  0  0  0  0
 35 36  1  0  0  0  0
 36 37  1  1  0  0  0
 36 38  1  0  0  0  0
 38 39  1  0  0  0  0
 39 40  1  0  0  0  0
 40 42  1  0  0  0  0
 41 42  1  0  0  0  0
 43 42  1  0  0  0  0
M  END
>  <MODEL>
8

>  <REMARK>
 VINA RESULT:      -6.7      2.340      2.956
  Name = 
  14 active torsions:
  status: ('A' for Active; 'I' for Inactive)
    1  A    between atoms: C_1  and  C_9
    2  A    between atoms: C_1  and  N_35
    3  A    between atoms: C_2  and  N_6
    4  A    between atoms: C_2  and  C_13
    5  A    between atoms: C_3  and  N_4
    6  A    between atoms: C_3  and  C_7
    7  A    between atoms: N_6  and  C_12
    8  A    between atoms: C_7  and  C_12
    9  A    between atoms: C_9  and  N_32
   10  A    between atoms: C_10  and  O_14
   11  A    between atoms: C_11  and  O_14
   12  A    between atoms: C_25  and  N_32
   13  A    between atoms: C_25  and  C_37
   14  A    between atoms: C_34  and  N_35
                            x       y       z     vdW  Elec       q    Type
                         _______ _______ _______ _____ _____    ______ ____

>  <TORSDO>
F 14

$$$$
=
 OpenBabel11062410193D

 43 47  0  0  1  0  0  0  0  0999 V2000
  160.9080  204.5210  147.8610 C   0  0  1  0  0  3  0  0  0  0  0  0
  161.7080  208.6560  150.8770 C   0  0  0  0  0  0  0  0  0  0  0  0
  162.1340  210.8600  149.1910 C   0  0  0  0  0  0  0  0  0  0  0  0
  161.2900  206.0240  149.8110 C   0  0  1  0  0  3  0  0  0  0  0  0
  161.4790  205.5870  146.9250 C   0  0  0  0  0  2  0  0  0  0  0  0
  161.1800  203.1450  147.2890 C   0  0  0  0  0  1  0  0  0  0  0  0
  161.9220  207.0720  148.8890 C   0  0  1  0  0  3  0  0  0  0  0  0
  161.5360  204.6290  149.2500 C   0  0  0  0  0  2  0  0  0  0  0  0
  161.2670  206.9830  147.5080 C   0  0  0  0  0  2  0  0  0  0  0  0
  162.1060  209.5720  148.6580 C   0  0  0  0  0  3  0  0  0  0  0  0
  161.8580  208.4640  149.4810 C   0  0  0  0  0  0  0  0  0  0  0  0
  161.4340  207.4890  151.7980 C   0  0  0  0  0  2  0  0  0  0  0  0
  161.7340  209.9590  151.4110 C   0  0  0  0  0  0  0  0  0  0  0  0
  161.9500  211.0510  150.5590 C   0  0  0  0  0  3  0  0  0  0  0  0
  161.8770  206.1560  151.2040 C   0  0  0  0  0  2  0  0  0  0  0  0
  162.4350  212.0210  148.3120 C   0  0  0  0  0  2  0  0  0  0  0  0
  161.2020  212.7350  148.0170 N   0  0  0  0  0  2  0  0  0  0  0  0
  161.4960  213.7540  147.0190 C   0  0  1  0  0  3  0  0  0  0  0  0
  162.7240  213.4930  146.4070 O   0  0  0  0  0  1  0  0  0  0  0  0
  160.3850  213.8130  145.9700 C   0  0  0  0  0  2  0  0  0  0  0  0
  160.8950  214.1760  144.5770 C   0  0  0  0  0  2  0  0  0  0  0  0
  160.5510  213.1410  143.6140 N   0  0  0  0  0  0  0  0  0  0  0  0
  160.9150  213.3790  141.2550 C   0  0  2  0  0  3  0  0  0  0  0  0
  161.7520  212.4860  143.2800 N   0  0  0  0  0  2  0  0  0  0  0  0
  160.0700  213.8270  142.4160 C   0  0  1  0  0  3  0  0  0  0  0  0
  158.6230  213.4570  142.1580 C   0  0  0  0  0  1  0  0  0  0  0  0
  161.7370  212.2710  141.8450 C   0  0  0  0  0  2  0  0  0  0  0  0
  161.7590  214.4530  140.8610 O   0  0  0  0  0  0  0  0  0  0  0  0
  162.7370  214.3170  139.8740 C   0  0  0  0  0  0  0  0  0  0  0  0
  164.8420  214.2860  138.8250 C   0  0  0  0  0  0  0  0  0  0  0  0
  163.7520  213.9200  137.4590 S   0  0  0  0  0  0  0  0  0  0  0  0
  166.0400  214.4490  138.6670 O   0  0  0  0  0  0  0  0  0  0  0  0
  162.3960  214.0960  138.6120 C   0  0  0  0  0  3  0  0  0  0  0  0
  164.1990  214.4110  140.1570 C   0  0  0  0  0  2  0  0  0  0  0  0
  161.5600  210.1560  152.8230 N   0  0  0  0  0  2  0  0  0  0  0  0
  160.2770  210.2590  153.5150 C   0  0  2  0  0  3  0  0  0  0  0  0
  159.2330  210.2710  152.5900 O   0  0  0  0  0  1  0  0  0  0  0  0
  160.2140  211.5070  154.3850 C   0  0  0  0  0  2  0  0  0  0  0  0
  158.8490  211.9980  154.4620 N   0  0  0  0  0  2  0  0  0  0  0  0
  158.4120  211.8020  155.8370 C   0  0  0  0  0  2  0  0  0  0  0  0
  157.1570  213.8730  155.1690 C   0  0  0  0  0  1  0  0  0  0  0  0
  157.3110  212.7900  156.2190 C   0  0  0  0  0  3  0  0  0  0  0  0
  155.9850  212.0870  156.4440 C   0  0  0  0  0  1  0  0  0  0  0  0
  1  6  1  6  0  0  0
  1  8  1  0  0  0  0
  2 13  1  0  0  0  0
  2 12  1  0  0  0  0
  3 14  1  0  0  0  0
  4  8  1  6  0  0  0
  4 15  1  0  0  0  0
  5  9  1  0  0  0  0
  5  1  1  0  0  0  0
  7  9  1  6  0  0  0
  7 11  1  0  0  0  0
  7  4  1  0  0  0  0
 10  3  2  0  0  0  0
 10 11  1  0  0  0  0
 11  2  2  0  0  0  0
 13 35  1  0  0  0  0
 14 13  2  0  0  0  0
 15 12  1  0  0  0  0
 16  3  1  0  0  0  0
 17 16  1  0  0  0  0
 18 19  1  6  0  0  0
 18 17  1  0  0  0  0
 20 18  1  0  0  0  0
 21 20  1  0  0  0  0
 22 21  1  0  0  0  0
 23 28  1  1  0  0  0
 23 27  1  0  0  0  0
 23 25  1  0  0  0  0
 24 22  1  0  0  0  0
 25 26  1  6  0  0  0
 25 22  1  0  0  0  0
 27 24  1  0  0  0  0
 29 34  1  0  0  0  0
 29 28  1  0  0  0  0
 30 34  1  0  0  0  0
 31 33  1  0  0  0  0
 31 30  1  0  0  0  0
 32 30  2  0  0  0  0
 33 29  2  0  0  0  0
 35 36  1  0  0  0  0
 36 37  1  6  0  0  0
 36 38  1  0  0  0  0
 38 39  1  0  0  0  0
 39 40  1  0  0  0  0
 40 42  1  0  0  0  0
 41 42  1  0  0  0  0
 42 43  1  0  0  0  0
M  END
>  <MODEL>
9

>  <REMARK>
 VINA RESULT:      -6.5      2.023      2.676
  Name = 
  14 active torsions:
  status: ('A' for Active; 'I' for Inactive)
    1  A    between atoms: C_1  and  C_9
    2  A    between atoms: C_1  and  N_35
    3  A    between atoms: C_2  and  N_6
    4  A    between atoms: C_2  and  C_13
    5  A    between atoms: C_3  and  N_4
    6  A    between atoms: C_3  and  C_7
    7  A    between atoms: N_6  and  C_12
    8  A    between atoms: C_7  and  C_12
    9  A    between atoms: C_9  and  N_32
   10  A    between atoms: C_10  and  O_14
   11  A    between atoms: C_11  and  O_14
   12  A    between atoms: C_25  and  N_32
   13  A    between atoms: C_25  and  C_37
   14  A    between atoms: C_34  and  N_35
                            x       y       z     vdW  Elec       q    Type
                         _______ _______ _______ _____ _____    ______ ____

>  <TORSDO>
F 14

$$$$
