=
 OpenBabel11062409503D

 34 37  0  0  1  0  0  0  0  0999 V2000
  159.8480  210.1870  154.5230 C   0  0  1  0  0  3  0  0  0  0  0  0
  158.8430  212.3510  152.9790 C   0  0  0  0  0  2  0  0  0  0  0  0
  162.0380  211.5080  149.4620 N   0  0  0  0  0  0  0  0  0  0  0  0
  159.2130  213.1070  154.2250 C   0  0  0  0  0  3  0  0  0  0  0  0
  160.7580  207.9960  155.6300 C   0  0  2  0  0  3  0  0  0  0  0  0
  159.5870  208.7470  154.9850 C   0  0  0  0  0  2  0  0  0  0  0  0
  161.7420  211.2220  155.9210 C   0  0  0  0  0  2  0  0  0  0  0  0
  162.4190  209.8550  155.9800 C   0  0  0  0  0  2  0  0  0  0  0  0
  160.2380  212.9080  150.2480 C   0  0  0  0  0  3  0  0  0  0  0  0
  161.5590  208.7960  156.6590 C   0  0  0  0  0  2  0  0  0  0  0  0
  159.7690  212.6300  155.3550 C   0  0  0  0  0  0  0  0  0  0  0  0
  160.2410  211.2060  155.5980 C   0  0  1  0  0  3  0  0  0  0  0  0
  159.9500  213.5360  156.3920 O   0  0  0  0  0  1  0  0  0  0  0  0
  160.5630  211.8180  151.2040 C   0  0  0  0  0  0  0  0  0  0  0  0
  161.2400  212.6780  149.0980 C   0  0  0  0  0  3  0  0  0  0  0  0
  161.5850  211.0550  150.7190 C   0  0  2  0  0  3  0  0  0  0  0  0
  162.0960  209.9700  151.4290 C   0  0  0  0  0  3  0  0  0  0  0  0
  159.9740  211.5320  152.4400 C   0  0  0  0  0  0  0  0  0  0  0  0
  161.5220  209.6640  152.6730 C   0  0  0  0  0  3  0  0  0  0  0  0
  160.4490  210.4290  153.1710 C   0  0  0  0  0  0  0  0  0  0  0  0
  161.6330  207.2820  154.6080 C   0  0  0  0  0  2  0  0  0  0  0  0
  160.8110  206.2990  153.7900 C   0  0  0  0  0  2  0  0  0  0  0  0
  161.6810  205.6100  152.7390 C   0  0  0  0  0  2  0  0  0  0  0  0
  160.9560  205.3720  151.4120 C   0  0  2  0  0  3  0  0  0  0  0  0
  161.5050  204.1450  150.7000 C   0  0  0  0  0  2  0  0  0  0  0  0
  160.7180  201.8560  150.1720 C   0  0  0  0  0  1  0  0  0  0  0  0
  160.8890  202.8830  151.2720 C   0  0  0  0  0  2  0  0  0  0  0  0
  160.9930  206.5980  150.5080 C   0  0  0  0  0  2  0  0  0  0  0  0
  160.5650  206.2200  149.1020 C   0  0  0  0  0  2  0  0  0  0  0  0
  161.5740  206.6370  148.1450 N   0  0  0  0  0  0  0  0  0  0  0  0
  162.2230  207.9230  148.3670 C   0  0  0  0  0  1  0  0  0  0  0  0
  162.0050  205.6920  147.1500 C   0  0  0  0  0  3  0  0  0  0  0  0
  161.4560  205.5260  145.9420 C   0  0  0  0  0  3  0  0  0  0  0  0
  160.3350  206.2760  145.4840 N   0  0  0  0  0  1  0  0  0  0  0  0
  1  6  1  1  0  0  0
  1 12  1  0  0  0  0
  2  4  1  0  0  0  0
  3 16  1  0  0  0  0
  4 11  2  0  0  0  0
  5 21  1  6  0  0  0
  5 10  1  0  0  0  0
  6  5  1  0  0  0  0
  7  8  1  0  0  0  0
  8 10  1  0  0  0  0
  9 14  2  0  0  0  0
 11 12  1  0  0  0  0
 11 13  1  0  0  0  0
 12  7  1  6  0  0  0
 14 18  1  0  0  0  0
 15  3  2  0  0  0  0
 15  9  1  0  0  0  0
 16 14  1  0  0  0  0
 16 17  1  1  0  0  0
 17 19  2  0  0  0  0
 18  2  1  0  0  0  0
 18 20  2  0  0  0  0
 19 20  1  0  0  0  0
 20  1  1  0  0  0  0
 22 21  1  0  0  0  0
 23 22  1  0  0  0  0
 24 28  1  6  0  0  0
 24 23  1  0  0  0  0
 25 27  1  0  0  0  0
 25 24  1  0  0  0  0
 26 27  1  0  0  0  0
 29 28  1  0  0  0  0
 30 31  1  0  0  0  0
 30 29  1  0  0  0  0
 32 30  1  0  0  0  0
 33 32  2  0  0  0  0
 34 33  1  0  0  0  0
M  END
>  <MODEL>
1

>  <REMARK>
 VINA RESULT:      -6.8      0.000      0.000
  Name = 
  10 active torsions:
  status: ('A' for Active; 'I' for Inactive)
    1  A    between atoms: C_6  and  C_28
    2  A    between atoms: C_6  and  C_30
    3  A    between atoms: N_7  and  C_11
    4  A    between atoms: N_7  and  C_29
    5  A    between atoms: C_8  and  C_18
    6  A    between atoms: C_16  and  C_28
    7  A    between atoms: C_16  and  C_31
    8  A    between atoms: C_18  and  C_30
    9  A    between atoms: C_26  and  C_28
   10  A    between atoms: C_26  and  C_29
                            x       y       z     vdW  Elec       q    Type
                         _______ _______ _______ _____ _____    ______ ____

>  <TORSDO>
F 10

$$$$
=
 OpenBabel11062409503D

 34 37  0  0  1  0  0  0  0  0999 V2000
  159.6320  210.1170  154.9070 C   0  0  1  0  0  3  0  0  0  0  0  0
  158.2950  212.3840  153.8360 C   0  0  0  0  0  2  0  0  0  0  0  0
  161.1140  212.3670  149.9180 N   0  0  0  0  0  0  0  0  0  0  0  0
  158.7500  212.9780  155.1400 C   0  0  0  0  0  3  0  0  0  0  0  0
  160.8250  207.8780  155.5560 C   0  0  2  0  0  3  0  0  0  0  0  0
  159.5350  208.6060  155.1620 C   0  0  0  0  0  2  0  0  0  0  0  0
  161.5930  211.1020  156.2480 C   0  0  0  0  0  2  0  0  0  0  0  0
  162.3720  209.8090  156.0200 C   0  0  0  0  0  2  0  0  0  0  0  0
  159.3170  213.4640  151.0970 C   0  0  0  0  0  3  0  0  0  0  0  0
  161.6780  208.5880  156.6090 C   0  0  0  0  0  2  0  0  0  0  0  0
  159.4670  212.3920  156.1170 C   0  0  0  0  0  0  0  0  0  0  0  0
  160.0690  210.9970  156.0830 C   0  0  1  0  0  3  0  0  0  0  0  0
  159.6990  213.1470  157.2590 O   0  0  0  0  0  1  0  0  0  0  0  0
  159.8320  212.2790  151.8300 C   0  0  0  0  0  0  0  0  0  0  0  0
  160.1930  213.5000  149.8270 C   0  0  0  0  0  3  0  0  0  0  0  0
  160.8450  211.6940  151.1280 C   0  0  2  0  0  3  0  0  0  0  0  0
  161.5150  210.5670  151.6020 C   0  0  0  0  0  3  0  0  0  0  0  0
  159.4130  211.7610  153.0600 C   0  0  0  0  0  0  0  0  0  0  0  0
  161.1130  210.0280  152.8350 C   0  0  0  0  0  3  0  0  0  0  0  0
  160.0520  210.6100  153.5560 C   0  0  0  0  0  0  0  0  0  0  0  0
  161.6260  207.4070  154.3500 C   0  0  0  0  0  2  0  0  0  0  0  0
  160.7330  206.6680  153.3660 C   0  0  0  0  0  2  0  0  0  0  0  0
  161.4970  205.5300  152.6910 C   0  0  0  0  0  2  0  0  0  0  0  0
  161.5300  205.6410  151.1650 C   0  0  2  0  0  3  0  0  0  0  0  0
  161.4490  207.0940  150.7200 C   0  0  0  0  0  2  0  0  0  0  0  0
  161.9590  208.6840  148.8890 C   0  0  0  0  0  1  0  0  0  0  0  0
  162.2190  207.2920  149.4280 C   0  0  0  0  0  2  0  0  0  0  0  0
  160.4450  204.8000  150.5030 C   0  0  0  0  0  2  0  0  0  0  0  0
  160.8710  203.3440  150.4590 C   0  0  0  0  0  2  0  0  0  0  0  0
  161.0610  202.9220  149.0820 N   0  0  0  0  0  0  0  0  0  0  0  0
  160.6480  201.5710  148.7280 C   0  0  0  0  0  1  0  0  0  0  0  0
  161.4680  203.9070  148.1160 C   0  0  0  0  0  3  0  0  0  0  0  0
  161.4920  203.7360  146.7900 C   0  0  0  0  0  3  0  0  0  0  0  0
  161.1240  202.5160  146.1540 N   0  0  0  0  0  1  0  0  0  0  0  0
  1  6  1  1  0  0  0
  1 12  1  0  0  0  0
  2  4  1  0  0  0  0
  3 16  1  0  0  0  0
  4 11  2  0  0  0  0
  5 21  1  6  0  0  0
  5 10  1  0  0  0  0
  6  5  1  0  0  0  0
  8  7  1  0  0  0  0
  8 10  1  0  0  0  0
  9 14  2  0  0  0  0
 11 13  1  0  0  0  0
 12 11  1  0  0  0  0
 12  7  1  6  0  0  0
 14 18  1  0  0  0  0
 15  3  2  0  0  0  0
 15  9  1  0  0  0  0
 16 17  1  1  0  0  0
 16 14  1  0  0  0  0
 17 19  2  0  0  0  0
 18 20  2  0  0  0  0
 18  2  1  0  0  0  0
 19 20  1  0  0  0  0
 20  1  1  0  0  0  0
 22 21  1  0  0  0  0
 23 22  1  0  0  0  0
 24 28  1  6  0  0  0
 24 23  1  0  0  0  0
 25 24  1  0  0  0  0
 26 27  1  0  0  0  0
 27 25  1  0  0  0  0
 29 28  1  0  0  0  0
 30 29  1  0  0  0  0
 31 30  1  0  0  0  0
 32 30  1  0  0  0  0
 33 32  2  0  0  0  0
 34 33  1  0  0  0  0
M  END
>  <MODEL>
2

>  <REMARK>
 VINA RESULT:      -5.8      1.338      2.390
  Name = 
  10 active torsions:
  status: ('A' for Active; 'I' for Inactive)
    1  A    between atoms: C_6  and  C_28
    2  A    between atoms: C_6  and  C_30
    3  A    between atoms: N_7  and  C_11
    4  A    between atoms: N_7  and  C_29
    5  A    between atoms: C_8  and  C_18
    6  A    between atoms: C_16  and  C_28
    7  A    between atoms: C_16  and  C_31
    8  A    between atoms: C_18  and  C_30
    9  A    between atoms: C_26  and  C_28
   10  A    between atoms: C_26  and  C_29
                            x       y       z     vdW  Elec       q    Type
                         _______ _______ _______ _____ _____    ______ ____

>  <TORSDO>
F 10

$$$$
=
 OpenBabel11062409503D

 34 37  0  0  1  0  0  0  0  0999 V2000
  162.4490  207.5140  151.6490 C   0  0  1  0  0  3  0  0  0  0  0  0
  162.7250  209.9830  153.0290 C   0  0  0  0  0  2  0  0  0  0  0  0
  159.5770  208.5990  156.4160 N   0  0  0  0  0  0  0  0  0  0  0  0
  162.2770  210.5120  151.6950 C   0  0  0  0  0  3  0  0  0  0  0  0
  162.2360  205.0790  150.7100 C   0  0  2  0  0  3  0  0  0  0  0  0
  163.1130  206.1640  151.3460 C   0  0  0  0  0  2  0  0  0  0  0  0
  160.4750  207.8930  150.0450 C   0  0  0  0  0  2  0  0  0  0  0  0
  160.1840  206.3950  150.0800 C   0  0  0  0  0  2  0  0  0  0  0  0
  161.0110  210.3610  155.6040 C   0  0  0  0  0  3  0  0  0  0  0  0
  161.3430  205.5540  149.5610 C   0  0  0  0  0  2  0  0  0  0  0  0
  161.9600  209.8160  150.5870 C   0  0  0  0  0  0  0  0  0  0  0  0
  161.8970  208.3040  150.4570 C   0  0  1  0  0  3  0  0  0  0  0  0
  161.6380  210.5560  149.4570 O   0  0  0  0  0  1  0  0  0  0  0  0
  161.0610  209.1520  154.7420 C   0  0  0  0  0  0  0  0  0  0  0  0
  160.0100  209.9650  156.7100 C   0  0  0  0  0  2  0  0  0  0  0  0
  160.2350  208.1860  155.2390 C   0  0  0  0  0  0  0  0  0  0  0  0
  160.0850  206.9510  154.6090 C   0  0  0  0  0  3  0  0  0  0  0  0
  161.8050  208.9370  153.5780 C   0  0  0  0  0  0  0  0  0  0  0  0
  160.8210  206.7110  153.4380 C   0  0  0  0  0  3  0  0  0  0  0  0
  161.6950  207.6930  152.9320 C   0  0  0  0  0  0  0  0  0  0  0  0
  161.4950  204.2410  151.7430 C   0  0  0  0  0  2  0  0  0  0  0  0
  160.4480  203.3650  151.0720 C   0  0  0  0  0  2  0  0  0  0  0  0
  161.1130  202.2930  150.2090 C   0  0  0  0  0  2  0  0  0  0  0  0
  160.6820  202.3430  148.7410 C   0  0  2  0  0  3  0  0  0  0  0  0
  160.3210  200.9570  148.2280 C   0  0  0  0  0  2  0  0  0  0  0  0
  161.5180  199.5360  146.5900 C   0  0  0  0  0  1  0  0  0  0  0  0
  161.5780  200.1450  147.9750 C   0  0  0  0  0  2  0  0  0  0  0  0
  161.7310  203.0030  147.8550 C   0  0  0  0  0  2  0  0  0  0  0  0
  161.2100  203.1240  146.4340 C   0  0  0  0  0  2  0  0  0  0  0  0
  161.8870  204.2090  145.7460 N   0  0  0  0  0  0  0  0  0  0  0  0
  163.3230  204.3440  145.9500 C   0  0  0  0  0  1  0  0  0  0  0  0
  161.1490  204.9660  144.7710 C   0  0  0  0  0  3  0  0  0  0  0  0
  160.4490  206.0800  145.0130 C   0  0  0  0  0  3  0  0  0  0  0  0
  160.3330  206.6620  146.3070 N   0  0  0  0  0  1  0  0  0  0  0  0
  1  6  1  6  0  0  0
  1 20  1  0  0  0  0
  2 18  1  0  0  0  0
  3 15  1  0  0  0  0
  4  2  1  0  0  0  0
  5  6  1  0  0  0  0
  5 21  1  1  0  0  0
  7  8  1  0  0  0  0
  9 15  1  0  0  0  0
 10  8  1  0  0  0  0
 10  5  1  0  0  0  0
 11  4  2  0  0  0  0
 12  7  1  1  0  0  0
 12 11  1  0  0  0  0
 12  1  1  0  0  0  0
 13 11  1  0  0  0  0
 14 16  1  0  0  0  0
 14  9  2  0  0  0  0
 16  3  2  0  0  0  0
 17 16  1  0  0  0  0
 18 14  1  0  0  0  0
 19 17  2  0  0  0  0
 20 19  1  0  0  0  0
 20 18  2  0  0  0  0
 22 21  1  0  0  0  0
 23 22  1  0  0  0  0
 24 28  1  6  0  0  0
 24 23  1  0  0  0  0
 25 24  1  0  0  0  0
 26 27  1  0  0  0  0
 27 25  1  0  0  0  0
 29 28  1  0  0  0  0
 30 31  1  0  0  0  0
 30 29  1  0  0  0  0
 32 33  2  0  0  0  0
 32 30  1  0  0  0  0
 33 34  1  0  0  0  0
M  END
>  <MODEL>
3

>  <REMARK>
 VINA RESULT:      -4.4      2.562      5.136
  Name = 
  10 active torsions:
  status: ('A' for Active; 'I' for Inactive)
    1  A    between atoms: C_6  and  C_28
    2  A    between atoms: C_6  and  C_30
    3  A    between atoms: N_7  and  C_11
    4  A    between atoms: N_7  and  C_29
    5  A    between atoms: C_8  and  C_18
    6  A    between atoms: C_16  and  C_28
    7  A    between atoms: C_16  and  C_31
    8  A    between atoms: C_18  and  C_30
    9  A    between atoms: C_26  and  C_28
   10  A    between atoms: C_26  and  C_29
                            x       y       z     vdW  Elec       q    Type
                         _______ _______ _______ _____ _____    ______ ____

>  <TORSDO>
F 10

$$$$
=
 OpenBabel11062409503D

 34 37  0  0  1  0  0  0  0  0999 V2000
  162.0550  204.1500  150.2750 C   0  0  1  0  0  3  0  0  0  0  0  0
  162.0720  202.6540  147.8590 C   0  0  0  0  0  2  0  0  0  0  0  0
  160.3780  206.4160  145.3540 N   0  0  0  0  0  0  0  0  0  0  0  0
  161.1700  201.7690  148.6730 C   0  0  0  0  0  3  0  0  0  0  0  0
  162.2060  205.7970  152.3040 C   0  0  2  0  0  3  0  0  0  0  0  0
  162.9260  204.8920  151.2980 C   0  0  0  0  0  2  0  0  0  0  0  0
  159.6960  203.7940  151.2330 C   0  0  0  0  0  2  0  0  0  0  0  0
  159.8020  205.1410  151.9430 C   0  0  0  0  0  2  0  0  0  0  0  0
  161.0660  204.1040  145.2910 C   0  0  0  0  0  3  0  0  0  0  0  0
  160.9510  205.1960  152.9420 C   0  0  0  0  0  2  0  0  0  0  0  0
  160.7510  201.9470  149.9400 C   0  0  0  0  0  0  0  0  0  0  0  0
  161.0290  203.1520  150.8230 C   0  0  1  0  0  3  0  0  0  0  0  0
  159.9680  200.9380  150.4860 O   0  0  0  0  0  1  0  0  0  0  0  0
  161.1800  204.6890  146.6510 C   0  0  0  0  0  0  0  0  0  0  0  0
  160.5240  205.2770  144.4470 C   0  0  0  0  0  3  0  0  0  0  0  0
  160.7800  205.9930  146.6390 C   0  0  2  0  0  3  0  0  0  0  0  0
  160.7770  206.7740  147.7940 C   0  0  0  0  0  3  0  0  0  0  0  0
  161.6180  204.0790  147.8320 C   0  0  0  0  0  0  0  0  0  0  0  0
  161.2100  206.1850  148.9920 C   0  0  0  0  0  3  0  0  0  0  0  0
  161.6490  204.8460  149.0110 C   0  0  0  0  0  0  0  0  0  0  0  0
  161.9950  207.2110  151.7780 C   0  0  0  0  0  2  0  0  0  0  0  0
  160.9460  207.9400  152.6030 C   0  0  0  0  0  2  0  0  0  0  0  0
  161.4330  209.3380  152.9830 C   0  0  0  0  0  2  0  0  0  0  0  0
  161.2060  209.6790  154.4580 C   0  0  2  0  0  3  0  0  0  0  0  0
  160.3310  208.6350  155.1340 C   0  0  0  0  0  2  0  0  0  0  0  0
  160.1760  207.0960  157.0700 C   0  0  0  0  0  1  0  0  0  0  0  0
  161.1220  207.8920  156.1940 C   0  0  0  0  0  2  0  0  0  0  0  0
  160.6350  211.0800  154.6430 C   0  0  0  0  0  2  0  0  0  0  0  0
  159.1930  210.9980  155.1100 C   0  0  0  0  0  2  0  0  0  0  0  0
  158.3400  211.7830  154.2350 N   0  0  0  0  0  0  0  0  0  0  0  0
  158.5210  211.6250  152.7980 C   0  0  0  0  0  1  0  0  0  0  0  0
  157.2550  212.5220  154.8230 C   0  0  0  0  0  3  0  0  0  0  0  0
  156.0590  212.0230  155.1520 C   0  0  0  0  0  3  0  0  0  0  0  0
  155.6970  210.6620  154.9420 N   0  0  0  0  0  1  0  0  0  0  0  0
  1 12  1  0  0  0  0
  1  6  1  1  0  0  0
  2  4  1  0  0  0  0
  3 16  1  0  0  0  0
  4 11  2  0  0  0  0
  5 21  1  6  0  0  0
  5 10  1  0  0  0  0
  6  5  1  0  0  0  0
  7  8  1  0  0  0  0
  8 10  1  0  0  0  0
  9 14  2  0  0  0  0
 11 13  1  0  0  0  0
 11 12  1  0  0  0  0
 12  7  1  6  0  0  0
 14 18  1  0  0  0  0
 15  9  1  0  0  0  0
 15  3  2  0  0  0  0
 16 14  1  0  0  0  0
 16 17  1  1  0  0  0
 17 19  2  0  0  0  0
 18  2  1  0  0  0  0
 18 20  2  0  0  0  0
 19 20  1  0  0  0  0
 20  1  1  0  0  0  0
 21 22  1  0  0  0  0
 22 23  1  0  0  0  0
 24 23  1  6  0  0  0
 24 28  1  0  0  0  0
 24 25  1  0  0  0  0
 25 27  1  0  0  0  0
 27 26  1  0  0  0  0
 28 29  1  0  0  0  0
 30 32  1  0  0  0  0
 30 29  1  0  0  0  0
 31 30  1  0  0  0  0
 32 33  2  0  0  0  0
 34 33  1  0  0  0  0
M  END
>  <MODEL>
4

>  <REMARK>
 VINA RESULT:      -4.4      3.298      8.340
  Name = 
  10 active torsions:
  status: ('A' for Active; 'I' for Inactive)
    1  A    between atoms: C_6  and  C_28
    2  A    between atoms: C_6  and  C_30
    3  A    between atoms: N_7  and  C_11
    4  A    between atoms: N_7  and  C_29
    5  A    between atoms: C_8  and  C_18
    6  A    between atoms: C_16  and  C_28
    7  A    between atoms: C_16  and  C_31
    8  A    between atoms: C_18  and  C_30
    9  A    between atoms: C_26  and  C_28
   10  A    between atoms: C_26  and  C_29
                            x       y       z     vdW  Elec       q    Type
                         _______ _______ _______ _____ _____    ______ ____

>  <TORSDO>
F 10

$$$$
=
 OpenBabel11062409503D

 34 37  0  0  1  0  0  0  0  0999 V2000
  162.0320  204.0510  150.2920 C   0  0  1  0  0  3  0  0  0  0  0  0
  162.0730  202.6030  147.8470 C   0  0  0  0  0  2  0  0  0  0  0  0
  160.3620  206.4000  145.4080 N   0  0  0  0  0  0  0  0  0  0  0  0
  161.1730  201.6950  148.6390 C   0  0  0  0  0  3  0  0  0  0  0  0
  162.1590  205.6590  152.3540 C   0  0  2  0  0  3  0  0  0  0  0  0
  162.8910  204.7800  151.3340 C   0  0  0  0  0  2  0  0  0  0  0  0
  159.6700  203.6580  151.2300 C   0  0  0  0  0  2  0  0  0  0  0  0
  159.7620  204.9920  151.9670 C   0  0  0  0  0  2  0  0  0  0  0  0
  161.0690  204.0960  145.3020 C   0  0  0  0  0  3  0  0  0  0  0  0
  160.9060  205.0360  152.9730 C   0  0  0  0  0  2  0  0  0  0  0  0
  160.7470  201.8450  149.9070 C   0  0  0  0  0  0  0  0  0  0  0  0
  161.0110  203.0350  150.8150 C   0  0  1  0  0  3  0  0  0  0  0  0
  159.9690  200.8190  150.4290 O   0  0  0  0  0  1  0  0  0  0  0  0
  161.1720  204.6540  146.6750 C   0  0  0  0  0  0  0  0  0  0  0  0
  160.5230  205.2810  144.4800 C   0  0  0  0  0  3  0  0  0  0  0  0
  160.7620  205.9550  146.6860 C   0  0  2  0  0  3  0  0  0  0  0  0
  160.7460  206.7130  147.8560 C   0  0  0  0  0  3  0  0  0  0  0  0
  161.6080  204.0250  147.8460 C   0  0  0  0  0  0  0  0  0  0  0  0
  161.1780  206.1040  149.0450 C   0  0  0  0  0  3  0  0  0  0  0  0
  161.6270  204.7680  149.0390 C   0  0  0  0  0  0  0  0  0  0  0  0
  161.9400  207.0810  151.8550 C   0  0  0  0  0  2  0  0  0  0  0  0
  160.8370  207.7650  152.6470 C   0  0  0  0  0  2  0  0  0  0  0  0
  161.0300  209.2810  152.6450 C   0  0  0  0  0  2  0  0  0  0  0  0
  161.1470  209.8800  154.0480 C   0  0  2  0  0  3  0  0  0  0  0  0
  161.2700  208.7900  155.1020 C   0  0  0  0  0  2  0  0  0  0  0  0
  159.6720  207.2300  156.1740 C   0  0  0  0  0  1  0  0  0  0  0  0
  159.9880  208.6870  155.9060 C   0  0  0  0  0  2  0  0  0  0  0  0
  159.9970  210.8280  154.3670 C   0  0  0  0  0  2  0  0  0  0  0  0
  159.3170  211.2720  153.0840 C   0  0  0  0  0  2  0  0  0  0  0  0
  159.2320  212.7200  153.0410 N   0  0  0  0  0  0  0  0  0  0  0  0
  159.3830  213.3660  151.7440 C   0  0  0  0  0  1  0  0  0  0  0  0
  158.8230  213.4170  154.2320 C   0  0  0  0  0  3  0  0  0  0  0  0
  157.5620  213.7030  154.5740 C   0  0  0  0  0  3  0  0  0  0  0  0
  156.4380  213.3590  153.7710 N   0  0  0  0  0  1  0  0  0  0  0  0
  1 12  1  0  0  0  0
  1  6  1  1  0  0  0
  2  4  1  0  0  0  0
  3 16  1  0  0  0  0
  4 11  2  0  0  0  0
  5 21  1  6  0  0  0
  5 10  1  0  0  0  0
  6  5  1  0  0  0  0
  7  8  1  0  0  0  0
  8 10  1  0  0  0  0
  9 14  2  0  0  0  0
 11 13  1  0  0  0  0
 11 12  1  0  0  0  0
 12  7  1  6  0  0  0
 14 16  1  0  0  0  0
 14 18  1  0  0  0  0
 15  9  1  0  0  0  0
 15  3  2  0  0  0  0
 16 17  1  1  0  0  0
 17 19  2  0  0  0  0
 18  2  1  0  0  0  0
 18 20  2  0  0  0  0
 20 19  1  0  0  0  0
 20  1  1  0  0  0  0
 21 22  1  0  0  0  0
 23 22  1  0  0  0  0
 24 23  1  6  0  0  0
 24 28  1  0  0  0  0
 24 25  1  0  0  0  0
 25 27  1  0  0  0  0
 27 26  1  0  0  0  0
 29 28  1  0  0  0  0
 30 29  1  0  0  0  0
 30 32  1  0  0  0  0
 31 30  1  0  0  0  0
 32 33  2  0  0  0  0
 34 33  1  0  0  0  0
M  END
>  <MODEL>
5

>  <REMARK>
 VINA RESULT:      -4.3      3.112      8.311
  Name = 
  10 active torsions:
  status: ('A' for Active; 'I' for Inactive)
    1  A    between atoms: C_6  and  C_28
    2  A    between atoms: C_6  and  C_30
    3  A    between atoms: N_7  and  C_11
    4  A    between atoms: N_7  and  C_29
    5  A    between atoms: C_8  and  C_18
    6  A    between atoms: C_16  and  C_28
    7  A    between atoms: C_16  and  C_31
    8  A    between atoms: C_18  and  C_30
    9  A    between atoms: C_26  and  C_28
   10  A    between atoms: C_26  and  C_29
                            x       y       z     vdW  Elec       q    Type
                         _______ _______ _______ _____ _____    ______ ____

>  <TORSDO>
F 10

$$$$
=
 OpenBabel11062409503D

 34 37  0  0  1  0  0  0  0  0999 V2000
  161.9130  203.7700  150.2010 C   0  0  1  0  0  3  0  0  0  0  0  0
  161.9190  202.3740  147.7250 C   0  0  0  0  0  2  0  0  0  0  0  0
  160.5190  206.3270  145.3350 N   0  0  0  0  0  0  0  0  0  0  0  0
  160.9430  201.5110  148.4760 C   0  0  0  0  0  3  0  0  0  0  0  0
  162.0950  205.3220  152.3010 C   0  0  2  0  0  3  0  0  0  0  0  0
  162.7930  204.4180  151.2790 C   0  0  0  0  0  2  0  0  0  0  0  0
  159.5090  203.5140  151.0770 C   0  0  0  0  0  2  0  0  0  0  0  0
  159.6700  204.8220  151.8460 C   0  0  0  0  0  2  0  0  0  0  0  0
  161.0750  203.9840  145.1930 C   0  0  0  0  0  3  0  0  0  0  0  0
  160.7890  204.7690  152.8770 C   0  0  0  0  0  2  0  0  0  0  0  0
  160.4960  201.6620  149.7370 C   0  0  0  0  0  0  0  0  0  0  0  0
  160.8160  202.8120  150.6780 C   0  0  1  0  0  3  0  0  0  0  0  0
  159.6410  200.6790  150.2180 O   0  0  0  0  0  1  0  0  0  0  0  0
  161.1810  204.5050  146.5800 C   0  0  0  0  0  0  0  0  0  0  0  0
  160.6280  205.2200  144.3860 C   0  0  0  0  0  3  0  0  0  0  0  0
  160.8570  205.8300  146.6110 C   0  0  2  0  0  3  0  0  0  0  0  0
  160.8620  206.5620  147.7980 C   0  0  0  0  0  3  0  0  0  0  0  0
  161.5470  203.8240  147.7460 C   0  0  0  0  0  0  0  0  0  0  0  0
  161.2250  205.9010  148.9820 C   0  0  0  0  0  3  0  0  0  0  0  0
  161.5860  204.5390  148.9560 C   0  0  0  0  0  0  0  0  0  0  0  0
  161.9820  206.7660  151.8300 C   0  0  0  0  0  2  0  0  0  0  0  0
  161.5140  207.6660  152.9630 C   0  0  0  0  0  2  0  0  0  0  0  0
  160.4700  208.6650  152.4640 C   0  0  0  0  0  2  0  0  0  0  0  0
  161.0350  210.0680  152.2350 C   0  0  2  0  0  3  0  0  0  0  0  0
  162.3230  210.0170  151.4260 C   0  0  0  0  0  2  0  0  0  0  0  0
  162.0440  211.2160  149.2770 C   0  0  0  0  0  1  0  0  0  0  0  0
  162.0120  209.8600  149.9500 C   0  0  0  0  0  2  0  0  0  0  0  0
  161.2330  210.8290  153.5400 C   0  0  0  0  0  2  0  0  0  0  0  0
  159.9320  210.8700  154.3220 C   0  0  0  0  0  2  0  0  0  0  0  0
  160.1970  210.7000  155.7390 N   0  0  0  0  0  0  0  0  0  0  0  0
  160.7370  211.8410  156.4660 C   0  0  0  0  0  1  0  0  0  0  0  0
  159.7440  209.4930  156.3790 C   0  0  0  0  0  3  0  0  0  0  0  0
  160.5160  208.4590  156.7280 C   0  0  0  0  0  3  0  0  0  0  0  0
  161.9190  208.4150  156.4870 N   0  0  0  0  0  1  0  0  0  0  0  0
  1 12  1  0  0  0  0
  1  6  1  1  0  0  0
  2 18  1  0  0  0  0
  2  4  1  0  0  0  0
  3 16  1  0  0  0  0
  4 11  2  0  0  0  0
  5 21  1  6  0  0  0
  5 10  1  0  0  0  0
  6  5  1  0  0  0  0
  7  8  1  0  0  0  0
  8 10  1  0  0  0  0
  9 14  2  0  0  0  0
 11 13  1  0  0  0  0
 11 12  1  0  0  0  0
 12  7  1  6  0  0  0
 14 16  1  0  0  0  0
 14 18  1  0  0  0  0
 15  9  1  0  0  0  0
 15  3  2  0  0  0  0
 16 17  1  1  0  0  0
 17 19  2  0  0  0  0
 18 20  2  0  0  0  0
 20 19  1  0  0  0  0
 20  1  1  0  0  0  0
 21 22  1  0  0  0  0
 23 22  1  0  0  0  0
 24 25  1  1  0  0  0
 24 23  1  0  0  0  0
 24 28  1  0  0  0  0
 26 27  1  0  0  0  0
 27 25  1  0  0  0  0
 28 29  1  0  0  0  0
 29 30  1  0  0  0  0
 30 32  1  0  0  0  0
 30 31  1  0  0  0  0
 32 33  2  0  0  0  0
 34 33  1  0  0  0  0
M  END
>  <MODEL>
6

>  <REMARK>
 VINA RESULT:      -4.3      3.271      8.424
  Name = 
  10 active torsions:
  status: ('A' for Active; 'I' for Inactive)
    1  A    between atoms: C_6  and  C_28
    2  A    between atoms: C_6  and  C_30
    3  A    between atoms: N_7  and  C_11
    4  A    between atoms: N_7  and  C_29
    5  A    between atoms: C_8  and  C_18
    6  A    between atoms: C_16  and  C_28
    7  A    between atoms: C_16  and  C_31
    8  A    between atoms: C_18  and  C_30
    9  A    between atoms: C_26  and  C_28
   10  A    between atoms: C_26  and  C_29
                            x       y       z     vdW  Elec       q    Type
                         _______ _______ _______ _____ _____    ______ ____

>  <TORSDO>
F 10

$$$$
=
 OpenBabel11062409503D

 34 37  0  0  1  0  0  0  0  0999 V2000
  160.7310  205.4770  147.2930 C   0  0  1  0  0  3  0  0  0  0  0  0
  160.3470  203.6620  145.1400 C   0  0  0  0  0  2  0  0  0  0  0  0
  161.5250  199.8980  147.9230 N   0  0  0  0  0  0  0  0  0  0  0  0
  161.3900  204.5460  144.5150 C   0  0  0  0  0  3  0  0  0  0  0  0
  160.8830  206.9110  149.4780 C   0  0  2  0  0  3  0  0  0  0  0  0
  160.0260  206.3570  148.3340 C   0  0  0  0  0  2  0  0  0  0  0  0
  163.2230  206.0980  147.1710 C   0  0  0  0  0  2  0  0  0  0  0  0
  163.2070  206.3770  148.6720 C   0  0  0  0  0  2  0  0  0  0  0  0
  160.8850  200.6470  145.7210 C   0  0  0  0  0  3  0  0  0  0  0  0
  162.2380  207.4860  149.0590 C   0  0  0  0  0  2  0  0  0  0  0  0
  162.0080  205.6130  145.0530 C   0  0  0  0  0  0  0  0  0  0  0  0
  161.8540  206.1250  146.4760 C   0  0  1  0  0  3  0  0  0  0  0  0
  162.8920  206.3020  144.2320 O   0  0  0  0  0  1  0  0  0  0  0  0
  160.9840  201.7680  146.6910 C   0  0  0  0  0  0  0  0  0  0  0  0
  161.2550  199.4130  146.5690 C   0  0  0  0  0  3  0  0  0  0  0  0
  161.3490  201.2970  147.9180 C   0  0  0  0  0  0  0  0  0  0  0  0
  161.5270  202.1470  149.0100 C   0  0  0  0  0  3  0  0  0  0  0  0
  160.7610  203.1320  146.4780 C   0  0  2  0  0  3  0  0  0  0  0  0
  161.3100  203.5200  148.8210 C   0  0  0  0  0  3  0  0  0  0  0  0
  160.9080  204.0130  147.5640 C   0  0  0  0  0  0  0  0  0  0  0  0
  160.9740  205.9570  150.6610 C   0  0  0  0  0  2  0  0  0  0  0  0
  161.7510  206.5910  151.8040 C   0  0  0  0  0  2  0  0  0  0  0  0
  160.8000  207.2430  152.8080 C   0  0  0  0  0  2  0  0  0  0  0  0
  161.2240  208.6560  153.2150 C   0  0  2  0  0  3  0  0  0  0  0  0
  161.0310  208.8770  154.7080 C   0  0  0  0  0  2  0  0  0  0  0  0
  159.7250  207.4310  156.2370 C   0  0  0  0  0  1  0  0  0  0  0  0
  161.0060  207.5480  155.4390 C   0  0  0  0  0  2  0  0  0  0  0  0
  160.5090  209.7280  152.4020 C   0  0  0  0  0  2  0  0  0  0  0  0
  160.7370  211.0930  153.0250 C   0  0  0  0  0  2  0  0  0  0  0  0
  159.5800  211.9420  152.8050 N   0  0  0  0  0  0  0  0  0  0  0  0
  159.7000  212.9980  151.8090 C   0  0  0  0  0  1  0  0  0  0  0  0
  158.3380  211.5820  153.4350 C   0  0  0  0  0  3  0  0  0  0  0  0
  157.9810  211.8900  154.6860 C   0  0  0  0  0  3  0  0  0  0  0  0
  158.8170  212.6190  155.5800 N   0  0  0  0  0  1  0  0  0  0  0  0
  1 20  1  0  0  0  0
  1  6  1  1  0  0  0
  4 11  2  0  0  0  0
  4  2  1  0  0  0  0
  5 21  1  1  0  0  0
  6  5  1  0  0  0  0
  7  8  1  0  0  0  0
  8 10  1  0  0  0  0
  9 15  1  0  0  0  0
  9 14  2  0  0  0  0
 10  5  1  0  0  0  0
 11 12  1  0  0  0  0
 12  7  1  1  0  0  0
 12  1  1  0  0  0  0
 13 11  1  0  0  0  0
 14 16  1  0  0  0  0
 15  3  2  0  0  0  0
 16  3  1  0  0  0  0
 16 17  2  0  0  0  0
 18  2  1  1  0  0  0
 18 14  1  0  0  0  0
 18 20  1  0  0  0  0
 19 17  1  0  0  0  0
 20 19  2  0  0  0  0
 21 22  1  0  0  0  0
 22 23  1  0  0  0  0
 23 24  1  0  0  0  0
 24 28  1  6  0  0  0
 24 25  1  0  0  0  0
 25 27  1  0  0  0  0
 27 26  1  0  0  0  0
 28 29  1  0  0  0  0
 30 29  1  0  0  0  0
 30 32  1  0  0  0  0
 31 30  1  0  0  0  0
 32 33  2  0  0  0  0
 33 34  1  0  0  0  0
M  END
>  <MODEL>
7

>  <REMARK>
 VINA RESULT:      -4.3      3.568      9.238
  Name = 
  10 active torsions:
  status: ('A' for Active; 'I' for Inactive)
    1  A    between atoms: C_6  and  C_28
    2  A    between atoms: C_6  and  C_30
    3  A    between atoms: N_7  and  C_11
    4  A    between atoms: N_7  and  C_29
    5  A    between atoms: C_8  and  C_18
    6  A    between atoms: C_16  and  C_28
    7  A    between atoms: C_16  and  C_31
    8  A    between atoms: C_18  and  C_30
    9  A    between atoms: C_26  and  C_28
   10  A    between atoms: C_26  and  C_29
                            x       y       z     vdW  Elec       q    Type
                         _______ _______ _______ _____ _____    ______ ____

>  <TORSDO>
F 10

$$$$
=
 OpenBabel11062409503D

 34 37  0  0  1  0  0  0  0  0999 V2000
  161.9610  203.9070  150.2180 C   0  0  1  0  0  3  0  0  0  0  0  0
  161.9850  202.5150  147.7400 C   0  0  0  0  0  2  0  0  0  0  0  0
  160.4580  206.4310  145.3670 N   0  0  0  0  0  0  0  0  0  0  0  0
  161.0390  201.6250  148.4970 C   0  0  0  0  0  3  0  0  0  0  0  0
  162.1160  205.4600  152.3190 C   0  0  2  0  0  3  0  0  0  0  0  0
  162.8310  204.5770  151.2900 C   0  0  0  0  0  2  0  0  0  0  0  0
  159.5710  203.5830  151.1120 C   0  0  0  0  0  2  0  0  0  0  0  0
  159.7030  204.8950  151.8820 C   0  0  0  0  0  2  0  0  0  0  0  0
  161.0780  204.1040  145.2170 C   0  0  0  0  0  3  0  0  0  0  0  0
  160.8310  204.8710  152.9050 C   0  0  0  0  0  2  0  0  0  0  0  0
  160.5990  201.7610  149.7620 C   0  0  0  0  0  0  0  0  0  0  0  0
  160.8940  202.9180  150.7010 C   0  0  1  0  0  3  0  0  0  0  0  0
  159.7740  200.7540  150.2470 O   0  0  0  0  0  1  0  0  0  0  0  0
  161.1800  204.6270  146.6040 C   0  0  0  0  0  0  0  0  0  0  0  0
  160.5900  205.3290  144.4150 C   0  0  0  0  0  3  0  0  0  0  0  0
  160.8200  205.9420  146.6400 C   0  0  2  0  0  3  0  0  0  0  0  0
  160.8150  206.6720  147.8280 C   0  0  0  0  0  3  0  0  0  0  0  0
  161.5740  203.9540  147.7660 C   0  0  0  0  0  0  0  0  0  0  0  0
  161.2040  206.0190  149.0080 C   0  0  0  0  0  3  0  0  0  0  0  0
  161.6030  204.6680  148.9770 C   0  0  0  0  0  0  0  0  0  0  0  0
  161.9590  206.9010  151.8510 C   0  0  0  0  0  2  0  0  0  0  0  0
  161.3660  207.7630  152.9540 C   0  0  0  0  0  2  0  0  0  0  0  0
  160.5200  208.8900  152.3630 C   0  0  0  0  0  2  0  0  0  0  0  0
  160.4040  210.1080  153.2820 C   0  0  2  0  0  3  0  0  0  0  0  0
  160.0620  211.3620  152.4910 C   0  0  0  0  0  2  0  0  0  0  0  0
  158.5980  213.2980  152.9850 C   0  0  0  0  0  1  0  0  0  0  0  0
  158.6390  211.7980  152.7850 C   0  0  0  0  0  2  0  0  0  0  0  0
  161.6560  210.3130  154.1270 C   0  0  0  0  0  2  0  0  0  0  0  0
  161.3130  211.0870  155.3870 C   0  0  0  0  0  2  0  0  0  0  0  0
  161.6120  210.2850  156.5600 N   0  0  0  0  0  0  0  0  0  0  0  0
  162.9790  210.3140  157.0650 C   0  0  0  0  0  1  0  0  0  0  0  0
  160.5200  209.6640  157.2610 C   0  0  0  0  0  3  0  0  0  0  0  0
  160.1990  208.3670  157.2120 C   0  0  0  0  0  3  0  0  0  0  0  0
  160.9100  207.4160  156.4270 N   0  0  0  0  0  1  0  0  0  0  0  0
  1 12  1  0  0  0  0
  1  6  1  1  0  0  0
  2 18  1  0  0  0  0
  2  4  1  0  0  0  0
  3 16  1  0  0  0  0
  4 11  2  0  0  0  0
  5 21  1  6  0  0  0
  5 10  1  0  0  0  0
  6  5  1  0  0  0  0
  7  8  1  0  0  0  0
  8 10  1  0  0  0  0
  9 14  2  0  0  0  0
 11 13  1  0  0  0  0
 11 12  1  0  0  0  0
 12  7  1  6  0  0  0
 14 16  1  0  0  0  0
 14 18  1  0  0  0  0
 15  9  1  0  0  0  0
 15  3  2  0  0  0  0
 16 17  1  1  0  0  0
 17 19  2  0  0  0  0
 18 20  2  0  0  0  0
 20 19  1  0  0  0  0
 20  1  1  0  0  0  0
 21 22  1  0  0  0  0
 23 22  1  0  0  0  0
 24 23  1  6  0  0  0
 24 28  1  0  0  0  0
 25 27  1  0  0  0  0
 25 24  1  0  0  0  0
 27 26  1  0  0  0  0
 28 29  1  0  0  0  0
 29 30  1  0  0  0  0
 30 31  1  0  0  0  0
 30 32  1  0  0  0  0
 33 32  2  0  0  0  0
 34 33  1  0  0  0  0
M  END
>  <MODEL>
8

>  <REMARK>
 VINA RESULT:      -4.3      3.322      8.634
  Name = 
  10 active torsions:
  status: ('A' for Active; 'I' for Inactive)
    1  A    between atoms: C_6  and  C_28
    2  A    between atoms: C_6  and  C_30
    3  A    between atoms: N_7  and  C_11
    4  A    between atoms: N_7  and  C_29
    5  A    between atoms: C_8  and  C_18
    6  A    between atoms: C_16  and  C_28
    7  A    between atoms: C_16  and  C_31
    8  A    between atoms: C_18  and  C_30
    9  A    between atoms: C_26  and  C_28
   10  A    between atoms: C_26  and  C_29
                            x       y       z     vdW  Elec       q    Type
                         _______ _______ _______ _____ _____    ______ ____

>  <TORSDO>
F 10

$$$$
=
 OpenBabel11062409503D

 34 37  0  0  1  0  0  0  0  0999 V2000
  161.9310  203.7660  150.2290 C   0  0  1  0  0  3  0  0  0  0  0  0
  161.9950  202.4310  147.7210 C   0  0  0  0  0  2  0  0  0  0  0  0
  160.4600  206.3860  145.4200 N   0  0  0  0  0  0  0  0  0  0  0  0
  161.0490  201.5150  148.4480 C   0  0  0  0  0  3  0  0  0  0  0  0
  162.0500  205.2740  152.3660 C   0  0  2  0  0  3  0  0  0  0  0  0
  162.7830  204.4200  151.3250 C   0  0  0  0  0  2  0  0  0  0  0  0
  159.5350  203.4020  151.0890 C   0  0  0  0  0  2  0  0  0  0  0  0
  159.6460  204.6970  151.8890 C   0  0  0  0  0  2  0  0  0  0  0  0
  161.1020  204.0680  145.2250 C   0  0  0  0  0  3  0  0  0  0  0  0
  160.7640  204.6600  152.9240 C   0  0  0  0  0  2  0  0  0  0  0  0
  160.5930  201.6200  149.7100 C   0  0  0  0  0  0  0  0  0  0  0  0
  160.8680  202.7580  150.6780 C   0  0  1  0  0  3  0  0  0  0  0  0
  159.7730  200.5950  150.1640 O   0  0  0  0  0  1  0  0  0  0  0  0
  161.1850  204.5600  146.6240 C   0  0  0  0  0  0  0  0  0  0  0  0
  160.6120  205.3060  144.4450 C   0  0  0  0  0  3  0  0  0  0  0  0
  160.8120  205.8710  146.6850 C   0  0  2  0  0  3  0  0  0  0  0  0
  160.7870  206.5740  147.8890 C   0  0  0  0  0  3  0  0  0  0  0  0
  161.5710  203.8650  147.7740 C   0  0  0  0  0  0  0  0  0  0  0  0
  161.1700  205.8990  149.0580 C   0  0  0  0  0  3  0  0  0  0  0  0
  161.5810  204.5520  149.0020 C   0  0  0  0  0  0  0  0  0  0  0  0
  161.8860  206.7230  151.9290 C   0  0  0  0  0  2  0  0  0  0  0  0
  161.1950  207.5360  153.0120 C   0  0  0  0  0  2  0  0  0  0  0  0
  160.5300  208.7760  152.4160 C   0  0  0  0  0  2  0  0  0  0  0  0
  161.3430  210.0570  152.6160 C   0  0  2  0  0  3  0  0  0  0  0  0
  160.4340  211.2530  152.8550 C   0  0  0  0  0  2  0  0  0  0  0  0
  161.4660  210.7990  155.0600 C   0  0  0  0  0  1  0  0  0  0  0  0
  160.4440  211.6380  154.3220 C   0  0  0  0  0  2  0  0  0  0  0  0
  162.3030  210.3160  151.4610 C   0  0  0  0  0  2  0  0  0  0  0  0
  161.6430  211.2090  150.4260 C   0  0  0  0  0  2  0  0  0  0  0  0
  162.1680  210.9130  149.1050 N   0  0  0  0  0  0  0  0  0  0  0  0
  162.0720  209.5380  148.6330 C   0  0  0  0  0  1  0  0  0  0  0  0
  162.5800  212.0110  148.2710 C   0  0  0  0  0  3  0  0  0  0  0  0
  161.8090  212.6490  147.3840 C   0  0  0  0  0  3  0  0  0  0  0  0
  160.4520  212.2990  147.1360 N   0  0  0  0  0  1  0  0  0  0  0  0
  1 12  1  0  0  0  0
  1  6  1  1  0  0  0
  2 18  1  0  0  0  0
  2  4  1  0  0  0  0
  3 16  1  0  0  0  0
  4 11  2  0  0  0  0
  5 21  1  6  0  0  0
  5 10  1  0  0  0  0
  6  5  1  0  0  0  0
  7  8  1  0  0  0  0
  8 10  1  0  0  0  0
  9 14  2  0  0  0  0
 11 13  1  0  0  0  0
 11 12  1  0  0  0  0
 12  7  1  6  0  0  0
 14 16  1  0  0  0  0
 14 18  1  0  0  0  0
 15  9  1  0  0  0  0
 15  3  2  0  0  0  0
 16 17  1  1  0  0  0
 17 19  2  0  0  0  0
 18 20  2  0  0  0  0
 20 19  1  0  0  0  0
 20  1  1  0  0  0  0
 21 22  1  0  0  0  0
 23 24  1  0  0  0  0
 23 22  1  0  0  0  0
 24 28  1  6  0  0  0
 24 25  1  0  0  0  0
 25 27  1  0  0  0  0
 27 26  1  0  0  0  0
 29 28  1  0  0  0  0
 30 29  1  0  0  0  0
 31 30  1  0  0  0  0
 32 30  1  0  0  0  0
 33 32  2  0  0  0  0
 34 33  1  0  0  0  0
M  END
>  <MODEL>
9

>  <REMARK>
 VINA RESULT:      -4.3      2.889      7.832
  Name = 
  10 active torsions:
  status: ('A' for Active; 'I' for Inactive)
    1  A    between atoms: C_6  and  C_28
    2  A    between atoms: C_6  and  C_30
    3  A    between atoms: N_7  and  C_11
    4  A    between atoms: N_7  and  C_29
    5  A    between atoms: C_8  and  C_18
    6  A    between atoms: C_16  and  C_28
    7  A    between atoms: C_16  and  C_31
    8  A    between atoms: C_18  and  C_30
    9  A    between atoms: C_26  and  C_28
   10  A    between atoms: C_26  and  C_29
                            x       y       z     vdW  Elec       q    Type
                         _______ _______ _______ _____ _____    ______ ____

>  <TORSDO>
F 10

$$$$
