=
 OpenBabel11062410433D

 32 38  0  0  1  0  0  0  0  0999 V2000
  162.1700  204.9160  149.8610 C   0  0  0  0  0  2  0  0  0  0  0  0
  160.2220  203.2380  149.6140 C   0  0  1  0  0  3  0  0  0  0  0  0
  160.3260  203.2230  151.1540 C   0  0  1  0  0  3  0  0  0  0  0  0
  160.8650  200.7320  149.7350 C   0  0  2  0  0  3  0  0  0  0  0  0
  161.9650  201.3240  150.6190 C   0  0  0  0  0  2  0  0  0  0  0  0
  161.3750  202.2360  151.6960 C   0  0  0  0  0  2  0  0  0  0  0  0
  160.5180  201.4690  147.7380 C   0  0  0  0  0  2  0  0  0  0  0  0
  161.2070  205.6210  150.8180 C   0  0  1  0  0  3  0  0  0  0  0  0
  160.5320  204.6140  151.7650 C   0  0  0  0  0  2  0  0  0  0  0  0
  161.4210  200.4150  148.3590 C   0  0  0  0  0  2  0  0  0  0  0  0
  161.4210  203.9500  148.9320 C   0  0  1  0  0  3  0  0  0  0  0  0
  159.9530  201.7950  149.1110 C   0  0  2  0  0  3  0  0  0  0  0  0
  162.9560  205.5720  145.9920 O   0  0  0  0  0  0  0  0  0  0  0  0
  162.6670  203.2370  146.2470 C   0  0  0  0  0  2  0  0  0  0  0  0
  161.9550  206.5130  146.2550 C   0  0  0  0  0  2  0  0  0  0  0  0
  159.9710  206.9120  147.6900 C   0  0  0  0  0  1  0  0  0  0  0  0
  161.2650  206.1370  147.5560 C   0  0  1  0  0  3  0  0  0  0  0  0
  160.9820  204.6260  147.6250 C   0  0  1  0  0  3  0  0  0  0  0  0
  162.3150  204.4570  145.4230 C   0  0  1  0  0  3  0  0  0  0  0  0
  161.2610  203.8050  146.3400 C   0  0  1  0  0  3  0  0  0  0  0  0
  160.7600  208.7100  152.3790 C   0  0  0  0  0  3  0  0  0  0  0  0
  161.8650  206.7930  151.5720 C   0  0  1  0  0  0  0  0  0  0  0  0
  163.2150  206.3840  152.1500 C   0  0  0  0  0  1  0  0  0  0  0  0
  161.3610  209.1120  151.2750 C   0  0  0  0  0  3  0  0  0  0  0  0
  162.0970  207.9800  150.6300 C   0  0  0  0  0  2  0  0  0  0  0  0
  160.9980  207.3360  152.6140 N   0  0  0  0  0  0  0  0  0  0  0  0
  160.4590  206.6150  153.7610 C   0  0  0  0  0  2  0  0  0  0  0  0
  159.7930  207.2990  156.4030 S   0  0  0  0  0  0  0  0  0  0  0  0
  161.7730  208.2030  155.1770 N   0  0  0  0  0  0  0  0  0  0  0  0
  160.7440  208.3940  157.2590 C   0  0  0  0  0  3  0  0  0  0  0  0
  160.7370  207.3560  155.0230 C   0  0  0  0  0  0  0  0  0  0  0  0
  161.7840  208.7750  156.4120 C   0  0  0  0  0  3  0  0  0  0  0  0
  1  8  1  0  0  0  0
  2  3  1  0  0  0  0
  3  6  1  0  0  0  0
  3  9  1  0  0  0  0
  4  5  1  0  0  0  0
  5  6  1  0  0  0  0
  7 10  1  0  0  0  0
  7 12  1  0  0  0  0
  8 22  1  0  0  0  0
  8  9  1  0  0  0  0
 10  4  1  0  0  0  0
 11  2  1  0  0  0  0
 11  1  1  0  0  0  0
 12  2  1  0  0  0  0
 12  4  1  0  0  0  0
 13 15  1  0  0  0  0
 14 20  1  0  0  0  0
 15 17  1  0  0  0  0
 17 18  1  0  0  0  0
 17 16  1  0  0  0  0
 18 11  1  0  0  0  0
 19 13  1  0  0  0  0
 19 14  1  0  0  0  0
 19 20  1  0  0  0  0
 20 18  1  0  0  0  0
 21 26  1  0  0  0  0
 22 23  1  0  0  0  0
 22 26  1  0  0  0  0
 24 21  2  0  0  0  0
 25 24  1  0  0  0  0
 25 22  1  0  0  0  0
 26 27  1  0  0  0  0
 27 31  1  0  0  0  0
 28 30  1  0  0  0  0
 29 32  1  0  0  0  0
 31 29  2  0  0  0  0
 31 28  1  0  0  0  0
 32 30  2  0  0  0  0
M  END
>  <MODEL>
1

>  <REMARK>
 VINA RESULT:      -6.1      0.000      0.000
  Name = 
  4 active torsions:
  status: ('A' for Active; 'I' for Inactive)
    1  A    between atoms: C_8  and  C_28
    2  A    between atoms: C_16  and  C_31
    3  A    between atoms: C_19  and  C_24
    4  A    between atoms: N_23  and  C_24
                            x       y       z     vdW  Elec       q    Type
                         _______ _______ _______ _____ _____    ______ ____

>  <TORSDO>
F 4

$$$$
=
 OpenBabel11062410433D

 32 38  0  0  1  0  0  0  0  0999 V2000
  162.2710  205.2390  149.3690 C   0  0  0  0  0  2  0  0  0  0  0  0
  160.2460  203.6520  149.6000 C   0  0  1  0  0  3  0  0  0  0  0  0
  160.4460  203.9670  151.0980 C   0  0  1  0  0  3  0  0  0  0  0  0
  160.7940  201.2030  150.2350 C   0  0  2  0  0  3  0  0  0  0  0  0
  161.9710  201.9130  150.9080 C   0  0  0  0  0  2  0  0  0  0  0  0
  161.4870  203.0670  151.7880 C   0  0  0  0  0  2  0  0  0  0  0  0
  160.3510  201.5060  148.1460 C   0  0  0  0  0  2  0  0  0  0  0  0
  161.3990  206.1850  150.1970 C   0  0  1  0  0  3  0  0  0  0  0  0
  160.7460  205.4450  151.3770 C   0  0  0  0  0  2  0  0  0  0  0  0
  161.2490  200.5660  148.9350 C   0  0  0  0  0  2  0  0  0  0  0  0
  161.4260  204.1360  148.7160 C   0  0  1  0  0  3  0  0  0  0  0  0
  159.8870  202.1510  149.4410 C   0  0  2  0  0  3  0  0  0  0  0  0
  162.7940  205.5150  145.5760 O   0  0  0  0  0  0  0  0  0  0  0  0
  162.8490  203.2280  146.1820 C   0  0  0  0  0  2  0  0  0  0  0  0
  161.6560  206.3220  145.6850 C   0  0  0  0  0  2  0  0  0  0  0  0
  159.5900  206.6230  147.0240 C   0  0  0  0  0  1  0  0  0  0  0  0
  160.9890  206.0430  147.0220 C   0  0  1  0  0  3  0  0  0  0  0  0
  160.9330  204.5340  147.3170 C   0  0  1  0  0  3  0  0  0  0  0  0
  162.3450  204.2430  145.1780 C   0  0  1  0  0  3  0  0  0  0  0  0
  161.3710  203.5820  146.1750 C   0  0  1  0  0  3  0  0  0  0  0  0
  161.3570  209.6660  150.4460 C   0  0  0  0  0  3  0  0  0  0  0  0
  162.1500  207.4560  150.6390 C   0  0  1  0  0  0  0  0  0  0  0  0
  163.2580  207.1210  151.6310 C   0  0  0  0  0  1  0  0  0  0  0  0
  162.2140  209.5320  149.4520 C   0  0  0  0  0  3  0  0  0  0  0  0
  162.7920  208.1510  149.4340 C   0  0  0  0  0  2  0  0  0  0  0  0
  161.2500  208.4660  151.1880 N   0  0  0  0  0  0  0  0  0  0  0  0
  160.3760  208.3170  152.3460 C   0  0  0  0  0  2  0  0  0  0  0  0
  159.5950  210.8570  153.2560 S   0  0  0  0  0  0  0  0  0  0  0  0
  161.4950  209.5470  154.2140 N   0  0  0  0  0  0  0  0  0  0  0  0
  160.4330  211.6000  154.5140 C   0  0  0  0  0  3  0  0  0  0  0  0
  160.5340  209.4720  153.2730 C   0  0  0  0  0  0  0  0  0  0  0  0
  161.4410  210.7190  154.9050 C   0  0  0  0  0  3  0  0  0  0  0  0
  1  8  1  0  0  0  0
  2  3  1  0  0  0  0
  3  9  1  0  0  0  0
  3  6  1  0  0  0  0
  4  5  1  0  0  0  0
  5  6  1  0  0  0  0
  7 10  1  0  0  0  0
  7 12  1  0  0  0  0
  8 22  1  0  0  0  0
  8  9  1  0  0  0  0
 10  4  1  0  0  0  0
 11  1  1  0  0  0  0
 11  2  1  0  0  0  0
 12  2  1  0  0  0  0
 12  4  1  0  0  0  0
 13 15  1  0  0  0  0
 15 17  1  0  0  0  0
 17 16  1  0  0  0  0
 17 18  1  0  0  0  0
 18 11  1  0  0  0  0
 19 13  1  0  0  0  0
 19 20  1  0  0  0  0
 19 14  1  0  0  0  0
 20 14  1  0  0  0  0
 20 18  1  0  0  0  0
 21 26  1  0  0  0  0
 22 26  1  0  0  0  0
 22 23  1  0  0  0  0
 24 21  2  0  0  0  0
 25 24  1  0  0  0  0
 25 22  1  0  0  0  0
 26 27  1  0  0  0  0
 27 31  1  0  0  0  0
 28 31  1  0  0  0  0
 28 30  1  0  0  0  0
 29 32  1  0  0  0  0
 30 32  2  0  0  0  0
 31 29  2  0  0  0  0
M  END
>  <MODEL>
2

>  <REMARK>
 VINA RESULT:      -4.7      1.476      1.640
  Name = 
  4 active torsions:
  status: ('A' for Active; 'I' for Inactive)
    1  A    between atoms: C_8  and  C_28
    2  A    between atoms: C_16  and  C_31
    3  A    between atoms: C_19  and  C_24
    4  A    between atoms: N_23  and  C_24
                            x       y       z     vdW  Elec       q    Type
                         _______ _______ _______ _____ _____    ______ ____

>  <TORSDO>
F 4

$$$$
=
 OpenBabel11062410433D

 32 38  0  0  1  0  0  0  0  0999 V2000
  161.0430  211.1100  153.8850 C   0  0  0  0  0  2  0  0  0  0  0  0
  158.5040  211.0680  154.3560 C   0  0  1  0  0  3  0  0  0  0  0  0
  158.4420  211.5180  152.8810 C   0  0  1  0  0  3  0  0  0  0  0  0
  157.4160  213.3540  154.9010 C   0  0  2  0  0  3  0  0  0  0  0  0
  158.5630  213.8220  154.0020 C   0  0  0  0  0  2  0  0  0  0  0  0
  158.5870  213.0380  152.6890 C   0  0  0  0  0  2  0  0  0  0  0  0
  157.7820  212.1070  156.6220 C   0  0  0  0  0  2  0  0  0  0  0  0
  160.6590  210.2160  152.7050 C   0  0  1  0  0  3  0  0  0  0  0  0
  159.4240  210.7670  151.9720 C   0  0  0  0  0  2  0  0  0  0  0  0
  157.7650  213.6040  156.3560 C   0  0  0  0  0  2  0  0  0  0  0  0
  159.9370  211.1280  154.9490 C   0  0  1  0  0  3  0  0  0  0  0  0
  157.4320  211.8440  155.1660 C   0  0  2  0  0  3  0  0  0  0  0  0
  162.5880  208.8440  156.1250 O   0  0  0  0  0  0  0  0  0  0  0  0
  162.3480  211.0970  156.8080 C   0  0  0  0  0  2  0  0  0  0  0  0
  161.5290  207.9310  156.0700 C   0  0  0  0  0  2  0  0  0  0  0  0
  159.0820  207.7900  155.6880 C   0  0  0  0  0  1  0  0  0  0  0  0
  160.3270  208.6180  155.4450 C   0  0  1  0  0  3  0  0  0  0  0  0
  160.1340  210.0360  156.0110 C   0  0  1  0  0  3  0  0  0  0  0  0
  162.3600  209.6500  157.2550 C   0  0  1  0  0  3  0  0  0  0  0  0
  161.0360  210.4400  157.2030 C   0  0  1  0  0  3  0  0  0  0  0  0
  161.6900  209.6400  149.4210 C   0  0  0  0  0  3  0  0  0  0  0  0
  161.8400  209.9460  151.7520 C   0  0  1  0  0  0  0  0  0  0  0  0
  163.1640  210.3500  152.3900 C   0  0  0  0  0  1  0  0  0  0  0  0
  161.8340  208.4230  149.9080 C   0  0  0  0  0  3  0  0  0  0  0  0
  161.9220  208.4560  151.4010 C   0  0  0  0  0  2  0  0  0  0  0  0
  161.6660  210.6010  150.4580 N   0  0  0  0  0  0  0  0  0  0  0  0
  161.5190  212.0320  150.2210 C   0  0  0  0  0  2  0  0  0  0  0  0
  163.0980  212.5500  147.9550 S   0  0  0  0  0  0  0  0  0  0  0  0
  160.6000  212.5260  147.9470 N   0  0  0  0  0  0  0  0  0  0  0  0
  162.3690  212.8870  146.4750 C   0  0  0  0  0  3  0  0  0  0  0  0
  161.6510  212.3380  148.7690 C   0  0  0  0  0  0  0  0  0  0  0  0
  160.9910  212.8240  146.6790 C   0  0  0  0  0  3  0  0  0  0  0  0
  1 11  1  0  0  0  0
  2 11  1  0  0  0  0
  2 12  1  0  0  0  0
  3  2  1  0  0  0  0
  4 12  1  0  0  0  0
  4 10  1  0  0  0  0
  5  4  1  0  0  0  0
  6  3  1  0  0  0  0
  6  5  1  0  0  0  0
  8  1  1  0  0  0  0
  9  8  1  0  0  0  0
  9  3  1  0  0  0  0
 10  7  1  0  0  0  0
 11 18  1  0  0  0  0
 12  7  1  0  0  0  0
 13 19  1  0  0  0  0
 14 20  1  0  0  0  0
 14 19  1  0  0  0  0
 15 13  1  0  0  0  0
 17 16  1  0  0  0  0
 17 18  1  0  0  0  0
 17 15  1  0  0  0  0
 18 20  1  0  0  0  0
 20 19  1  0  0  0  0
 21 24  2  0  0  0  0
 21 26  1  0  0  0  0
 22 23  1  0  0  0  0
 22  8  1  0  0  0  0
 24 25  1  0  0  0  0
 25 22  1  0  0  0  0
 26 22  1  0  0  0  0
 27 26  1  0  0  0  0
 28 31  1  0  0  0  0
 29 31  2  0  0  0  0
 30 32  2  0  0  0  0
 30 28  1  0  0  0  0
 31 27  1  0  0  0  0
 32 29  1  0  0  0  0
M  END
>  <MODEL>
3

>  <REMARK>
 VINA RESULT:      -4.4      5.307      9.707
  Name = 
  4 active torsions:
  status: ('A' for Active; 'I' for Inactive)
    1  A    between atoms: C_8  and  C_28
    2  A    between atoms: C_16  and  C_31
    3  A    between atoms: C_19  and  C_24
    4  A    between atoms: N_23  and  C_24
                            x       y       z     vdW  Elec       q    Type
                         _______ _______ _______ _____ _____    ______ ____

>  <TORSDO>
F 4

$$$$
=
 OpenBabel11062410433D

 32 38  0  0  1  0  0  0  0  0999 V2000
  159.9650  209.6630  153.2280 C   0  0  0  0  0  2  0  0  0  0  0  0
  162.0990  208.3870  152.5280 C   0  0  1  0  0  3  0  0  0  0  0  0
  161.8600  209.1490  151.2070 C   0  0  1  0  0  3  0  0  0  0  0  0
  161.7250  206.2370  151.1340 C   0  0  2  0  0  3  0  0  0  0  0  0
  160.4920  207.0370  150.7090 C   0  0  0  0  0  2  0  0  0  0  0  0
  160.8810  208.4440  150.2520 C   0  0  0  0  0  2  0  0  0  0  0  0
  162.1670  205.8850  153.2170 C   0  0  0  0  0  2  0  0  0  0  0  0
  160.7560  210.8850  152.7590 C   0  0  1  0  0  3  0  0  0  0  0  0
  161.4490  210.6120  151.4120 C   0  0  0  0  0  2  0  0  0  0  0  0
  161.3320  205.1850  152.1560 C   0  0  0  0  0  2  0  0  0  0  0  0
  160.8950  208.4740  153.5040 C   0  0  1  0  0  3  0  0  0  0  0  0
  162.5680  206.9440  152.2020 C   0  0  2  0  0  3  0  0  0  0  0  0
  159.5110  208.9490  156.8940 O   0  0  0  0  0  0  0  0  0  0  0  0
  159.3940  206.9330  155.6590 C   0  0  0  0  0  2  0  0  0  0  0  0
  160.6760  209.7100  157.0320 C   0  0  0  0  0  2  0  0  0  0  0  0
  162.7780  210.3050  155.8550 C   0  0  0  0  0  1  0  0  0  0  0  0
  161.3600  209.8000  155.6780 C   0  0  1  0  0  3  0  0  0  0  0  0
  161.3730  208.4370  154.9630 C   0  0  1  0  0  3  0  0  0  0  0  0
  159.9100  207.6010  156.9160 C   0  0  1  0  0  3  0  0  0  0  0  0
  160.8820  207.2160  155.7810 C   0  0  1  0  0  3  0  0  0  0  0  0
  157.9990  212.5450  151.4090 C   0  0  0  0  0  3  0  0  0  0  0  0
  159.9090  212.1730  152.7370 C   0  0  1  0  0  0  0  0  0  0  0  0
  160.1510  213.0100  153.9870 C   0  0  0  0  0  1  0  0  0  0  0  0
  158.9650  213.1980  150.7920 C   0  0  0  0  0  3  0  0  0  0  0  0
  160.2630  213.0320  151.5190 C   0  0  0  0  0  2  0  0  0  0  0  0
  158.4850  211.8940  152.5670 N   0  0  0  0  0  0  0  0  0  0  0  0
  157.6430  211.0950  153.4490 C   0  0  0  0  0  2  0  0  0  0  0  0
  157.2520  211.8260  156.1330 S   0  0  0  0  0  0  0  0  0  0  0  0
  156.1060  212.9180  154.2010 N   0  0  0  0  0  0  0  0  0  0  0  0
  156.1780  213.0620  156.5250 C   0  0  0  0  0  3  0  0  0  0  0  0
  157.0040  211.9550  154.4840 C   0  0  0  0  0  0  0  0  0  0  0  0
  155.6500  213.5360  155.3250 C   0  0  0  0  0  3  0  0  0  0  0  0
  1 11  1  0  0  0  0
  2 11  1  0  0  0  0
  3  9  1  0  0  0  0
  3  2  1  0  0  0  0
  4 10  1  0  0  0  0
  4 12  1  0  0  0  0
  5  4  1  0  0  0  0
  6  5  1  0  0  0  0
  6  3  1  0  0  0  0
  8  1  1  0  0  0  0
  9  8  1  0  0  0  0
 10  7  1  0  0  0  0
 11 18  1  0  0  0  0
 12  2  1  0  0  0  0
 12  7  1  0  0  0  0
 13 19  1  0  0  0  0
 13 15  1  0  0  0  0
 14 20  1  0  0  0  0
 14 19  1  0  0  0  0
 17 16  1  0  0  0  0
 17 15  1  0  0  0  0
 18 17  1  0  0  0  0
 18 20  1  0  0  0  0
 20 19  1  0  0  0  0
 21 26  1  0  0  0  0
 22  8  1  0  0  0  0
 22 23  1  0  0  0  0
 24 21  2  0  0  0  0
 24 25  1  0  0  0  0
 25 22  1  0  0  0  0
 26 22  1  0  0  0  0
 26 27  1  0  0  0  0
 27 31  1  0  0  0  0
 28 30  1  0  0  0  0
 29 31  2  0  0  0  0
 29 32  1  0  0  0  0
 31 28  1  0  0  0  0
 32 30  2  0  0  0  0
M  END
>  <MODEL>
4

>  <REMARK>
 VINA RESULT:      -4.2      4.239      7.449
  Name = 
  4 active torsions:
  status: ('A' for Active; 'I' for Inactive)
    1  A    between atoms: C_8  and  C_28
    2  A    between atoms: C_16  and  C_31
    3  A    between atoms: C_19  and  C_24
    4  A    between atoms: N_23  and  C_24
                            x       y       z     vdW  Elec       q    Type
                         _______ _______ _______ _____ _____    ______ ____

>  <TORSDO>
F 4

$$$$
=
 OpenBabel11062410433D

 32 38  0  0  1  0  0  0  0  0999 V2000
  162.5830  205.1300  149.8390 C   0  0  0  0  0  2  0  0  0  0  0  0
  160.5720  203.8830  148.8040 C   0  0  1  0  0  3  0  0  0  0  0  0
  160.0800  203.9100  150.2670 C   0  0  1  0  0  3  0  0  0  0  0  0
  160.5880  201.3060  149.0560 C   0  0  2  0  0  3  0  0  0  0  0  0
  161.3690  201.6920  150.3140 C   0  0  0  0  0  2  0  0  0  0  0  0
  160.6180  202.7500  151.1240 C   0  0  0  0  0  2  0  0  0  0  0  0
  161.1820  202.0160  147.1080 C   0  0  0  0  0  2  0  0  0  0  0  0
  161.4990  206.0580  150.3880 C   0  0  1  0  0  3  0  0  0  0  0  0
  160.3240  205.2520  150.9680 C   0  0  0  0  0  2  0  0  0  0  0  0
  161.5440  200.8250  147.9810 C   0  0  0  0  0  2  0  0  0  0  0  0
  162.0590  204.3040  148.6560 C   0  0  1  0  0  3  0  0  0  0  0  0
  160.2200  202.5080  148.1780 C   0  0  2  0  0  3  0  0  0  0  0  0
  160.2700  204.9010  145.4820 O   0  0  0  0  0  0  0  0  0  0  0  0
  160.0190  206.2090  147.4390 C   0  0  0  0  0  2  0  0  0  0  0  0
  161.5080  204.5140  144.9590 C   0  0  0  0  0  2  0  0  0  0  0  0
  163.8320  203.9620  145.6300 C   0  0  0  0  0  1  0  0  0  0  0  0
  162.3950  204.0510  146.1030 C   0  0  1  0  0  3  0  0  0  0  0  0
  162.2970  205.0010  147.3090 C   0  0  1  0  0  3  0  0  0  0  0  0
  160.4390  206.2040  145.9840 C   0  0  1  0  0  3  0  0  0  0  0  0
  161.4970  206.3120  147.1020 C   0  0  1  0  0  3  0  0  0  0  0  0
  160.8190  208.8390  152.3850 C   0  0  0  0  0  3  0  0  0  0  0  0
  162.0500  207.0980  151.3830 C   0  0  1  0  0  0  0  0  0  0  0  0
  163.3530  206.6190  152.0120 C   0  0  0  0  0  1  0  0  0  0  0  0
  161.5050  209.4270  151.4240 C   0  0  0  0  0  3  0  0  0  0  0  0
  162.3300  208.4280  150.6750 C   0  0  0  0  0  2  0  0  0  0  0  0
  161.0760  207.4480  152.4130 N   0  0  0  0  0  0  0  0  0  0  0  0
  160.4570  206.5390  153.3700 C   0  0  0  0  0  2  0  0  0  0  0  0
  159.4510  206.9560  155.9600 S   0  0  0  0  0  0  0  0  0  0  0  0
  161.7050  207.7120  155.1930 N   0  0  0  0  0  0  0  0  0  0  0  0
  160.3750  207.7750  157.1050 C   0  0  0  0  0  3  0  0  0  0  0  0
  160.6110  207.0560  154.7590 C   0  0  0  0  0  0  0  0  0  0  0  0
  161.5810  208.1080  156.4890 C   0  0  0  0  0  3  0  0  0  0  0  0
  1  8  1  0  0  0  0
  2  3  1  0  0  0  0
  3  9  1  0  0  0  0
  3  6  1  0  0  0  0
  4  5  1  0  0  0  0
  5  6  1  0  0  0  0
  7 10  1  0  0  0  0
  7 12  1  0  0  0  0
  8  9  1  0  0  0  0
  8 22  1  0  0  0  0
 10  4  1  0  0  0  0
 11  2  1  0  0  0  0
 11  1  1  0  0  0  0
 12  2  1  0  0  0  0
 12  4  1  0  0  0  0
 13 19  1  0  0  0  0
 15 13  1  0  0  0  0
 15 17  1  0  0  0  0
 16 17  1  0  0  0  0
 17 18  1  0  0  0  0
 18 11  1  0  0  0  0
 19 20  1  0  0  0  0
 19 14  1  0  0  0  0
 20 18  1  0  0  0  0
 20 14  1  0  0  0  0
 21 26  1  0  0  0  0
 22 23  1  0  0  0  0
 22 26  1  0  0  0  0
 24 21  2  0  0  0  0
 25 22  1  0  0  0  0
 25 24  1  0  0  0  0
 26 27  1  0  0  0  0
 27 31  1  0  0  0  0
 28 30  1  0  0  0  0
 29 32  1  0  0  0  0
 31 29  2  0  0  0  0
 31 28  1  0  0  0  0
 32 30  2  0  0  0  0
M  END
>  <MODEL>
5

>  <REMARK>
 VINA RESULT:      -3.7      0.935      1.729
  Name = 
  4 active torsions:
  status: ('A' for Active; 'I' for Inactive)
    1  A    between atoms: C_8  and  C_28
    2  A    between atoms: C_16  and  C_31
    3  A    between atoms: C_19  and  C_24
    4  A    between atoms: N_23  and  C_24
                            x       y       z     vdW  Elec       q    Type
                         _______ _______ _______ _____ _____    ______ ____

>  <TORSDO>
F 4

$$$$
=
 OpenBabel11062410433D

 32 38  0  0  1  0  0  0  0  0999 V2000
  160.4810  208.4290  152.5060 C   0  0  0  0  0  2  0  0  0  0  0  0
  162.3960  209.6540  151.2800 C   0  0  1  0  0  3  0  0  0  0  0  0
  162.0860  210.7380  152.3340 C   0  0  1  0  0  3  0  0  0  0  0  0
  161.6720  211.4180  149.5280 C   0  0  2  0  0  3  0  0  0  0  0  0
  160.4800  211.4990  150.4840 C   0  0  0  0  0  2  0  0  0  0  0  0
  160.9450  211.6890  151.9290 C   0  0  0  0  0  2  0  0  0  0  0  0
  162.3060  209.5340  148.6890 C   0  0  0  0  0  2  0  0  0  0  0  0
  161.3260  208.7220  153.7470 C   0  0  1  0  0  3  0  0  0  0  0  0
  161.8380  210.1720  153.7380 C   0  0  0  0  0  2  0  0  0  0  0  0
  161.2980  210.6040  148.3030 C   0  0  0  0  0  2  0  0  0  0  0  0
  161.3210  208.5360  151.2260 C   0  0  1  0  0  3  0  0  0  0  0  0
  162.6900  210.3400  149.9200 C   0  0  2  0  0  3  0  0  0  0  0  0
  160.2440  205.1370  150.2690 O   0  0  0  0  0  0  0  0  0  0  0  0
  160.3950  206.9720  148.7830 C   0  0  0  0  0  2  0  0  0  0  0  0
  161.2440  204.7920  151.1850 C   0  0  0  0  0  2  0  0  0  0  0  0
  163.0470  205.7760  152.5770 C   0  0  0  0  0  1  0  0  0  0  0  0
  161.7470  206.0610  151.8540 C   0  0  1  0  0  3  0  0  0  0  0  0
  161.9510  207.1920  150.8310 C   0  0  1  0  0  3  0  0  0  0  0  0
  160.9020  205.5830  149.1090 C   0  0  1  0  0  3  0  0  0  0  0  0
  161.8010  206.8160  149.3350 C   0  0  1  0  0  3  0  0  0  0  0  0
  160.2970  209.7860  156.9080 C   0  0  0  0  0  3  0  0  0  0  0  0
  160.6060  208.3570  155.0600 C   0  0  1  0  0  0  0  0  0  0  0  0
  159.7110  207.1380  154.8740 C   0  0  0  0  0  1  0  0  0  0  0  0
  161.2930  208.9950  157.2610 C   0  0  0  0  0  3  0  0  0  0  0  0
  161.6200  208.0340  156.1620 C   0  0  0  0  0  2  0  0  0  0  0  0
  159.8450  209.4810  155.6020 N   0  0  0  0  0  0  0  0  0  0  0  0
  158.7550  210.1910  154.9460 C   0  0  0  0  0  2  0  0  0  0  0  0
  157.4320  212.1880  156.4140 S   0  0  0  0  0  0  0  0  0  0  0  0
  159.5520  212.5530  155.1440 N   0  0  0  0  0  0  0  0  0  0  0  0
  158.0530  213.7530  156.4650 C   0  0  0  0  0  3  0  0  0  0  0  0
  158.6620  211.5900  155.4510 C   0  0  0  0  0  0  0  0  0  0  0  0
  159.2220  213.7490  155.7050 C   0  0  0  0  0  3  0  0  0  0  0  0
  1  8  1  0  0  0  0
  2  3  1  0  0  0  0
  3  9  1  0  0  0  0
  4 12  1  0  0  0  0
  4  5  1  0  0  0  0
  5  6  1  0  0  0  0
  6  3  1  0  0  0  0
  7 12  1  0  0  0  0
  8 22  1  0  0  0  0
  9  8  1  0  0  0  0
 10  7  1  0  0  0  0
 10  4  1  0  0  0  0
 11  2  1  0  0  0  0
 11  1  1  0  0  0  0
 12  2  1  0  0  0  0
 13 15  1  0  0  0  0
 14 19  1  0  0  0  0
 14 20  1  0  0  0  0
 15 17  1  0  0  0  0
 17 16  1  0  0  0  0
 18 11  1  0  0  0  0
 18 17  1  0  0  0  0
 19 20  1  0  0  0  0
 19 13  1  0  0  0  0
 20 18  1  0  0  0  0
 21 24  2  0  0  0  0
 22 26  1  0  0  0  0
 22 25  1  0  0  0  0
 23 22  1  0  0  0  0
 25 24  1  0  0  0  0
 26 21  1  0  0  0  0
 27 31  1  0  0  0  0
 27 26  1  0  0  0  0
 28 30  1  0  0  0  0
 29 31  2  0  0  0  0
 29 32  1  0  0  0  0
 31 28  1  0  0  0  0
 32 30  2  0  0  0  0
M  END
>  <MODEL>
6

>  <REMARK>
 VINA RESULT:      -3.7      2.848      6.285
  Name = 
  4 active torsions:
  status: ('A' for Active; 'I' for Inactive)
    1  A    between atoms: C_8  and  C_28
    2  A    between atoms: C_16  and  C_31
    3  A    between atoms: C_19  and  C_24
    4  A    between atoms: N_23  and  C_24
                            x       y       z     vdW  Elec       q    Type
                         _______ _______ _______ _____ _____    ______ ____

>  <TORSDO>
F 4

$$$$
