=
 OpenBabel11052421463D

 30 35  0  0  1  0  0  0  0  0999 V2000
  160.3660  210.9790  153.6820 C   0  0  1  0  0  0  0  0  0  0  0  0
  158.8410  210.7830  153.8480 C   0  0  2  0  0  3  0  0  0  0  0  0
  158.9910  212.1050  155.9000 C   0  0  1  0  0  0  0  0  0  0  0  0
  161.2360  210.0380  154.5560 C   0  0  2  0  0  3  0  0  0  0  0  0
  160.8590  211.6920  152.4110 C   0  0  0  0  0  2  0  0  0  0  0  0
  161.6340  208.9020  149.5000 S   0  0  0  0  0  0  0  0  0  0  0  0
  160.8200  209.5490  150.9970 C   0  0  2  0  0  3  0  0  0  0  0  0
  162.0540  211.4710  150.2740 N   0  0  0  0  0  2  0  0  0  0  0  0
  159.9750  212.0520  157.0070 N   0  0  0  0  0  0  0  0  0  0  0  0
  161.6200  210.7700  151.4630 C   0  0  1  0  0  3  0  0  0  0  0  0
  160.6250  208.4680  152.0680 C   0  0  0  0  0  2  0  0  0  0  0  0
  156.6620  212.0140  153.7870 C   0  0  0  0  0  2  0  0  0  0  0  0
  162.4050  210.9900  148.0140 O   0  0  0  0  0  0  0  0  0  0  0  0
  157.8160  211.4380  152.9350 C   0  0  0  0  0  2  0  0  0  0  0  0
  156.9650  213.0300  156.8550 O   0  0  0  0  0  1  0  0  0  0  0  0
  156.5240  211.3510  155.1760 C   0  0  0  0  0  2  0  0  0  0  0  0
  162.1140  210.5860  149.1690 C   0  0  0  0  0  0  0  0  0  0  0  0
  159.5870  211.8920  154.5570 C   0  0  1  0  0  0  0  0  0  0  0  0
  161.8220  210.7300  155.8020 C   0  0  0  0  0  2  0  0  0  0  0  0
  160.8060  213.2490  157.1170 C   0  0  0  0  0  1  0  0  0  0  0  0
  160.8310  210.8450  156.9950 C   0  0  2  0  0  3  0  0  0  0  0  0
  162.3500  209.3250  153.7880 C   0  0  0  0  0  2  0  0  0  0  0  0
  157.4950  211.8810  156.2640 C   0  0  1  0  0  3  0  0  0  0  0  0
  159.1260  213.2820  154.8400 C   0  0  0  0  0  2  0  0  0  0  0  0
  161.8570  208.1540  152.9260 C   0  0  0  0  0  2  0  0  0  0  0  0
  160.0210  209.5720  157.2600 C   0  0  0  0  0  2  0  0  0  0  0  0
  160.8090  208.3000  157.1050 C   0  0  0  0  0  0  0  0  0  0  0  0
  162.0800  208.3410  157.2600 N   0  0  0  0  0  2  0  0  0  0  0  0
  160.1540  206.9880  156.7970 C   0  0  0  0  0  2  0  0  0  0  0  0
  159.7720  206.9510  155.4540 O   0  0  0  0  0  1  0  0  0  0  0  0
  1  5  1  6  0  0  0
  1  2  1  0  0  0  0
  1  4  1  0  0  0  0
  1 18  1  0  0  0  0
  2 14  1  6  0  0  0
  2 18  1  0  0  0  0
  3 24  1  6  0  0  0
  3 23  1  0  0  0  0
  3  9  1  0  0  0  0
  4 22  1  6  0  0  0
  4 19  1  0  0  0  0
  6  7  1  0  0  0  0
  7 10  1  0  0  0  0
  7 11  1  1  0  0  0
  8 10  1  0  0  0  0
  9 20  1  0  0  0  0
 10  5  1  1  0  0  0
 11 25  1  0  0  0  0
 12 16  1  0  0  0  0
 13 17  2  0  0  0  0
 14 12  1  0  0  0  0
 16 23  1  0  0  0  0
 17  6  1  0  0  0  0
 17  8  1  0  0  0  0
 18 24  1  6  0  0  0
 18  3  1  0  0  0  0
 19 21  1  0  0  0  0
 21  9  1  0  0  0  0
 21 26  1  6  0  0  0
 23 15  1  6  0  0  0
 25 22  1  0  0  0  0
 27 26  1  0  0  0  0
 27 28  2  0  0  0  0
 29 27  1  0  0  0  0
 30 29  1  0  0  0  0
M  END
>  <MODEL>
1

>  <REMARK>
 VINA RESULT:      -0.9      0.000      0.000
  Name = 
  3 active torsions:
  status: ('A' for Active; 'I' for Inactive)
    1  A    between atoms: CA_7  and  C_10
    2  A    between atoms: CA_7  and  C_15
    3  A    between atoms: C_10  and  C_25
                            x       y       z     vdW  Elec       q    Type
                         _______ _______ _______ _____ _____    ______ ____

>  <TORSDO>
F 3

$$$$
=
 OpenBabel11052421463D

 30 35  0  0  1  0  0  0  0  0999 V2000
  160.6680  211.3160  151.4560 C   0  0  1  0  0  0  0  0  0  0  0  0
  160.3740  209.8710  150.9910 C   0  0  2  0  0  3  0  0  0  0  0  0
  162.1440  210.1470  149.3270 C   0  0  1  0  0  0  0  0  0  0  0  0
  160.0420  212.4210  150.5650 C   0  0  2  0  0  3  0  0  0  0  0  0
  161.1100  211.5200  152.9160 C   0  0  0  0  0  2  0  0  0  0  0  0
  157.8060  212.2150  155.2530 S   0  0  0  0  0  0  0  0  0  0  0  0
  158.7040  211.5530  153.8110 C   0  0  2  0  0  3  0  0  0  0  0  0
  160.5130  212.4060  155.1300 N   0  0  0  0  0  2  0  0  0  0  0  0
  162.4420  211.2820  148.4210 N   0  0  0  0  0  0  0  0  0  0  0  0
  160.0690  212.2470  153.7610 C   0  0  1  0  0  3  0  0  0  0  0  0
  157.8870  211.6600  152.5160 C   0  0  0  0  0  2  0  0  0  0  0  0
  161.3480  207.5650  150.9380 C   0  0  0  0  0  2  0  0  0  0  0  0
  159.5550  212.4810  157.2600 O   0  0  0  0  0  0  0  0  0  0  0  0
  160.7010  208.6460  151.8320 C   0  0  0  0  0  2  0  0  0  0  0  0
  163.0720  208.1820  148.2560 O   0  0  0  0  0  1  0  0  0  0  0  0
  161.0160  207.7210  149.4370 C   0  0  0  0  0  2  0  0  0  0  0  0
  159.4050  212.4170  156.0130 C   0  0  0  0  0  0  0  0  0  0  0  0
  161.6830  210.5620  150.6750 C   0  0  1  0  0  0  0  0  0  0  0  0
  161.0550  213.0880  149.6160 C   0  0  0  0  0  2  0  0  0  0  0  0
  163.7040  211.9580  148.7150 C   0  0  0  0  0  1  0  0  0  0  0  0
  161.3510  212.2770  148.3220 C   0  0  2  0  0  3  0  0  0  0  0  0
  159.2770  213.4930  151.3430 C   0  0  0  0  0  2  0  0  0  0  0  0
  161.8720  208.7630  148.6710 C   0  0  1  0  0  3  0  0  0  0  0  0
  163.0510  209.9720  150.6210 C   0  0  0  0  0  2  0  0  0  0  0  0
  157.8970  213.0350  151.8360 C   0  0  0  0  0  2  0  0  0  0  0  0
  160.1040  211.6870  147.6550 C   0  0  0  0  0  2  0  0  0  0  0  0
  159.4540  212.6010  146.6530 C   0  0  0  0  0  0  0  0  0  0  0  0
  160.1900  213.1780  145.7770 N   0  0  0  0  0  2  0  0  0  0  0  0
  157.9740  212.8400  146.6330 C   0  0  0  0  0  2  0  0  0  0  0  0
  157.4570  212.7240  147.9240 O   0  0  0  0  0  1  0  0  0  0  0  0
  1  5  1  1  0  0  0
  2  1  1  0  0  0  0
  2 14  1  1  0  0  0
  3 24  1  1  0  0  0
  3 18  1  0  0  0  0
  4 19  1  1  0  0  0
  4 22  1  0  0  0  0
  4  1  1  0  0  0  0
  6 17  1  0  0  0  0
  7 11  1  6  0  0  0
  7  6  1  0  0  0  0
  8 17  1  0  0  0  0
  9 20  1  0  0  0  0
  9  3  1  0  0  0  0
 10  5  1  6  0  0  0
 10  7  1  0  0  0  0
 10  8  1  0  0  0  0
 12 14  1  0  0  0  0
 16 12  1  0  0  0  0
 17 13  2  0  0  0  0
 18 24  1  1  0  0  0
 18  2  1  0  0  0  0
 18  1  1  0  0  0  0
 21 26  1  1  0  0  0
 21  9  1  0  0  0  0
 21 19  1  0  0  0  0
 22 25  1  0  0  0  0
 23 15  1  1  0  0  0
 23  3  1  0  0  0  0
 23 16  1  0  0  0  0
 25 11  1  0  0  0  0
 27 26  1  0  0  0  0
 28 27  2  0  0  0  0
 29 27  1  0  0  0  0
 29 30  1  0  0  0  0
M  END
>  <MODEL>
2

>  <REMARK>
 VINA RESULT:       0.9      2.893      7.702
  Name = 
  3 active torsions:
  status: ('A' for Active; 'I' for Inactive)
    1  A    between atoms: CA_7  and  C_10
    2  A    between atoms: CA_7  and  C_15
    3  A    between atoms: C_10  and  C_25
                            x       y       z     vdW  Elec       q    Type
                         _______ _______ _______ _____ _____    ______ ____

>  <TORSDO>
F 3

$$$$
=
 OpenBabel11052421463D

 30 35  0  0  1  0  0  0  0  0999 V2000
  160.7990  209.8270  153.6180 C   0  0  1  0  0  0  0  0  0  0  0  0
  159.2960  210.1660  153.7600 C   0  0  2  0  0  3  0  0  0  0  0  0
  159.8760  211.4770  155.7410 C   0  0  1  0  0  0  0  0  0  0  0  0
  161.2980  208.7010  154.5600 C   0  0  2  0  0  3  0  0  0  0  0  0
  161.5070  210.2580  152.3220 C   0  0  0  0  0  2  0  0  0  0  0  0
  161.3050  207.2080  149.5810 S   0  0  0  0  0  0  0  0  0  0  0  0
  160.7530  208.1760  151.0240 C   0  0  2  0  0  3  0  0  0  0  0  0
  162.5640  209.5260  150.2270 N   0  0  0  0  0  2  0  0  0  0  0  0
  160.7820  211.1600  156.8720 N   0  0  0  0  0  0  0  0  0  0  0  0
  161.9160  209.0810  151.4420 C   0  0  1  0  0  3  0  0  0  0  0  0
  160.2010  207.2870  152.1470 C   0  0  0  0  0  2  0  0  0  0  0  0
  157.6600  212.0530  153.5840 C   0  0  0  0  0  2  0  0  0  0  0  0
  162.7400  208.8250  148.0050 O   0  0  0  0  0  0  0  0  0  0  0  0
  158.5550  211.0740  152.7910 C   0  0  0  0  0  2  0  0  0  0  0  0
  158.2780  213.0820  156.6010 O   0  0  0  0  0  1  0  0  0  0  0  0
  157.3030  211.5560  155.0030 C   0  0  0  0  0  2  0  0  0  0  0  0
  162.3260  208.6100  149.1730 C   0  0  0  0  0  0  0  0  0  0  0  0
  160.3700  210.9980  154.4260 C   0  0  1  0  0  0  0  0  0  0  0  0
  162.0790  209.2260  155.7800 C   0  0  0  0  0  2  0  0  0  0  0  0
  161.9680  212.0110  156.9360 C   0  0  0  0  0  1  0  0  0  0  0  0
  161.1810  209.7360  156.9430 C   0  0  2  0  0  3  0  0  0  0  0  0
  162.1090  207.6110  153.8560 C   0  0  0  0  0  2  0  0  0  0  0  0
  158.3920  211.7910  156.0830 C   0  0  1  0  0  3  0  0  0  0  0  0
  160.4040  212.4760  154.6240 C   0  0  0  0  0  2  0  0  0  0  0  0
  161.2530  206.6260  153.0470 C   0  0  0  0  0  2  0  0  0  0  0  0
  159.9890  208.8270  157.2570 C   0  0  0  0  0  2  0  0  0  0  0  0
  160.2010  207.3850  156.8860 C   0  0  0  0  0  0  0  0  0  0  0  0
  161.2990  206.8180  157.2240 N   0  0  0  0  0  2  0  0  0  0  0  0
  159.1640  206.5880  156.1540 C   0  0  0  0  0  2  0  0  0  0  0  0
  158.3400  207.4420  155.4190 O   0  0  0  0  0  1  0  0  0  0  0  0
  1  5  1  6  0  0  0
  1  2  1  0  0  0  0
  1 18  1  0  0  0  0
  1  4  1  0  0  0  0
  2 14  1  6  0  0  0
  2 18  1  0  0  0  0
  3 24  1  6  0  0  0
  3 23  1  0  0  0  0
  3  9  1  0  0  0  0
  4 22  1  6  0  0  0
  4 19  1  0  0  0  0
  6  7  1  0  0  0  0
  7 10  1  0  0  0  0
  7 11  1  1  0  0  0
  8 10  1  0  0  0  0
  9 20  1  0  0  0  0
  9 21  1  0  0  0  0
 10  5  1  6  0  0  0
 11 25  1  0  0  0  0
 12 16  1  0  0  0  0
 13 17  2  0  0  0  0
 14 12  1  0  0  0  0
 16 23  1  0  0  0  0
 17  6  1  0  0  0  0
 17  8  1  0  0  0  0
 18 24  1  6  0  0  0
 18  3  1  0  0  0  0
 19 21  1  0  0  0  0
 21 26  1  6  0  0  0
 23 15  1  6  0  0  0
 25 22  1  0  0  0  0
 27 28  2  0  0  0  0
 27 26  1  0  0  0  0
 29 27  1  0  0  0  0
 30 29  1  0  0  0  0
M  END
>  <MODEL>
3

>  <REMARK>
 VINA RESULT:       0.9      1.311      1.426
  Name = 
  3 active torsions:
  status: ('A' for Active; 'I' for Inactive)
    1  A    between atoms: CA_7  and  C_10
    2  A    between atoms: CA_7  and  C_15
    3  A    between atoms: C_10  and  C_25
                            x       y       z     vdW  Elec       q    Type
                         _______ _______ _______ _____ _____    ______ ____

>  <TORSDO>
F 3

$$$$
=
 OpenBabel11052421463D

 30 35  0  0  1  0  0  0  0  0999 V2000
  161.4490  208.4600  152.6620 C   0  0  1  0  0  0  0  0  0  0  0  0
  160.5990  207.1820  152.8560 C   0  0  2  0  0  3  0  0  0  0  0  0
  162.1740  206.0260  151.3850 C   0  0  1  0  0  0  0  0  0  0  0  0
  161.1880  209.2120  151.3310 C   0  0  2  0  0  3  0  0  0  0  0  0
  162.0760  209.0960  153.9140 C   0  0  0  0  0  2  0  0  0  0  0  0
  159.5070  211.9120  155.4410 S   0  0  0  0  0  0  0  0  0  0  0  0
  159.9510  210.4090  154.5110 C   0  0  2  0  0  3  0  0  0  0  0  0
  162.0680  211.0070  155.4610 N   0  0  0  0  0  2  0  0  0  0  0  0
  162.7770  206.4520  150.1000 N   0  0  0  0  0  0  0  0  0  0  0  0
  161.4640  210.4470  154.2710 C   0  0  1  0  0  3  0  0  0  0  0  0
  159.1080  210.2380  153.2400 C   0  0  0  0  0  2  0  0  0  0  0  0
  160.6450  204.9050  153.8950 C   0  0  0  0  0  2  0  0  0  0  0  0
  161.4200  212.3500  157.2600 O   0  0  0  0  0  0  0  0  0  0  0  0
  160.5330  206.4210  154.1710 C   0  0  0  0  0  2  0  0  0  0  0  0
  162.2020  203.6040  151.3610 O   0  0  0  0  0  1  0  0  0  0  0  0
  160.2470  204.5050  152.4570 C   0  0  0  0  0  2  0  0  0  0  0  0
  161.1350  211.8130  156.1590 C   0  0  0  0  0  0  0  0  0  0  0  0
  162.0320  207.1240  152.3730 C   0  0  1  0  0  0  0  0  0  0  0  0
  162.2780  208.9690  150.2680 C   0  0  0  0  0  2  0  0  0  0  0  0
  164.2220  206.6630  150.1660 C   0  0  0  0  0  1  0  0  0  0  0  0
  162.1250  207.6320  149.4880 C   0  0  2  0  0  3  0  0  0  0  0  0
  160.9530  210.7140  151.4970 C   0  0  0  0  0  2  0  0  0  0  0  0
  161.3480  204.7080  151.3820 C   0  0  1  0  0  3  0  0  0  0  0  0
  163.0740  206.1060  152.6920 C   0  0  0  0  0  2  0  0  0  0  0  0
  159.5570  211.0670  152.0300 C   0  0  0  0  0  2  0  0  0  0  0  0
  160.6900  207.3240  149.0510 C   0  0  0  0  0  2  0  0  0  0  0  0
  160.5860  206.2600  147.9920 C   0  0  0  0  0  0  0  0  0  0  0  0
  160.4780  205.0370  148.3580 N   0  0  0  0  0  2  0  0  0  0  0  0
  160.5820  206.5880  146.5300 C   0  0  0  0  0  2  0  0  0  0  0  0
  161.6800  205.9920  145.9070 O   0  0  0  0  0  1  0  0  0  0  0  0
  1  2  1  0  0  0  0
  1  5  1  1  0  0  0
  2 14  1  1  0  0  0
  3 18  1  0  0  0  0
  3 24  1  1  0  0  0
  4 19  1  6  0  0  0
  4 22  1  0  0  0  0
  4  1  1  0  0  0  0
  6 17  1  0  0  0  0
  7 11  1  6  0  0  0
  7  6  1  0  0  0  0
  8 17  1  0  0  0  0
  9 20  1  0  0  0  0
  9  3  1  0  0  0  0
 10  5  1  1  0  0  0
 10  7  1  0  0  0  0
 10  8  1  0  0  0  0
 12 14  1  0  0  0  0
 16 12  1  0  0  0  0
 17 13  2  0  0  0  0
 18  1  1  0  0  0  0
 18 24  1  1  0  0  0
 18  2  1  0  0  0  0
 21 26  1  1  0  0  0
 21  9  1  0  0  0  0
 21 19  1  0  0  0  0
 22 25  1  0  0  0  0
 23 15  1  1  0  0  0
 23  3  1  0  0  0  0
 23 16  1  0  0  0  0
 25 11  1  0  0  0  0
 27 28  2  0  0  0  0
 27 26  1  0  0  0  0
 29 27  1  0  0  0  0
 30 29  1  0  0  0  0
M  END
>  <MODEL>
4

>  <REMARK>
 VINA RESULT:       1.3      3.502      7.394
  Name = 
  3 active torsions:
  status: ('A' for Active; 'I' for Inactive)
    1  A    between atoms: CA_7  and  C_10
    2  A    between atoms: CA_7  and  C_15
    3  A    between atoms: C_10  and  C_25
                            x       y       z     vdW  Elec       q    Type
                         _______ _______ _______ _____ _____    ______ ____

>  <TORSDO>
F 3

$$$$
=
 OpenBabel11052421463D

 30 35  0  0  1  0  0  0  0  0999 V2000
  159.3420  212.6390  153.4150 C   0  0  1  0  0  0  0  0  0  0  0  0
  157.8720  212.1600  153.4610 C   0  0  2  0  0  3  0  0  0  0  0  0
  157.7610  213.0260  155.7460 C   0  0  1  0  0  0  0  0  0  0  0  0
  160.3500  211.6940  154.1190 C   0  0  2  0  0  3  0  0  0  0  0  0
  159.7220  213.6760  152.3440 C   0  0  0  0  0  2  0  0  0  0  0  0
  161.0090  211.7320  148.9640 S   0  0  0  0  0  0  0  0  0  0  0  0
  160.0750  211.9040  150.5200 C   0  0  2  0  0  3  0  0  0  0  0  0
  160.9660  214.1140  150.2690 N   0  0  0  0  0  2  0  0  0  0  0  0
  158.7240  212.9060  156.8660 N   0  0  0  0  0  0  0  0  0  0  0  0
  160.6440  213.1150  151.2660 C   0  0  1  0  0  3  0  0  0  0  0  0
  160.0550  210.6040  151.3350 C   0  0  0  0  0  2  0  0  0  0  0  0
  155.5140  212.9960  153.5450 C   0  0  0  0  0  2  0  0  0  0  0  0
  161.4260  214.1850  147.9790 O   0  0  0  0  0  0  0  0  0  0  0  0
  156.7610  212.8130  152.6530 C   0  0  0  0  0  2  0  0  0  0  0  0
  155.5930  213.3770  156.7680 O   0  0  0  0  0  1  0  0  0  0  0  0
  155.4740  212.0410  154.7600 C   0  0  0  0  0  2  0  0  0  0  0  0
  161.1940  213.5040  149.0110 C   0  0  0  0  0  0  0  0  0  0  0  0
  158.4040  213.2040  154.4200 C   0  0  1  0  0  0  0  0  0  0  0  0
  160.7900  212.1940  155.5090 C   0  0  0  0  0  2  0  0  0  0  0  0
  159.3340  214.1740  157.2610 C   0  0  0  0  0  1  0  0  0  0  0  0
  159.7780  211.8880  156.6500 C   0  0  2  0  0  3  0  0  0  0  0  0
  161.5810  211.3540  153.2780 C   0  0  0  0  0  2  0  0  0  0  0  0
  156.3220  212.4840  155.9810 C   0  0  1  0  0  3  0  0  0  0  0  0
  157.7060  214.4060  154.9580 C   0  0  0  0  0  2  0  0  0  0  0  0
  161.3110  210.3260  152.1710 C   0  0  0  0  0  2  0  0  0  0  0  0
  159.1970  210.4710  156.6060 C   0  0  0  0  0  2  0  0  0  0  0  0
  160.2320  209.3880  156.4700 C   0  0  0  0  0  0  0  0  0  0  0  0
  161.2440  209.4010  157.2560 N   0  0  0  0  0  2  0  0  0  0  0  0
  160.1070  208.2860  155.4620 C   0  0  0  0  0  2  0  0  0  0  0  0
  161.3550  207.7020  155.2390 O   0  0  0  0  0  1  0  0  0  0  0  0
  1  5  1  6  0  0  0
  1  2  1  0  0  0  0
  1  4  1  0  0  0  0
  1 18  1  0  0  0  0
  2 14  1  6  0  0  0
  2 18  1  0  0  0  0
  3 24  1  1  0  0  0
  3 23  1  0  0  0  0
  3  9  1  0  0  0  0
  4 22  1  6  0  0  0
  4 19  1  0  0  0  0
  6 17  1  0  0  0  0
  6  7  1  0  0  0  0
  7 10  1  0  0  0  0
  7 11  1  1  0  0  0
  8 10  1  0  0  0  0
  9 20  1  0  0  0  0
 10  5  1  1  0  0  0
 11 25  1  0  0  0  0
 12 16  1  0  0  0  0
 13 17  2  0  0  0  0
 14 12  1  0  0  0  0
 16 23  1  0  0  0  0
 17  8  1  0  0  0  0
 18 24  1  6  0  0  0
 18  3  1  0  0  0  0
 19 21  1  0  0  0  0
 21 26  1  6  0  0  0
 21  9  1  0  0  0  0
 23 15  1  6  0  0  0
 25 22  1  0  0  0  0
 27 26  1  0  0  0  0
 27 28  2  0  0  0  0
 29 27  1  0  0  0  0
 30 29  1  0  0  0  0
M  END
>  <MODEL>
5

>  <REMARK>
 VINA RESULT:       1.8      1.767      2.042
  Name = 
  3 active torsions:
  status: ('A' for Active; 'I' for Inactive)
    1  A    between atoms: CA_7  and  C_10
    2  A    between atoms: CA_7  and  C_15
    3  A    between atoms: C_10  and  C_25
                            x       y       z     vdW  Elec       q    Type
                         _______ _______ _______ _____ _____    ______ ____

>  <TORSDO>
F 3

$$$$
