=
 OpenBabel11052422423D

 31 34  0  0  1  0  0  0  0  0999 V2000
  161.7320  209.1120  148.2860 C   0  0  0  0  0  3  0  0  0  0  0  0
  161.2790  206.2630  150.8460 C   0  0  0  0  0  0  0  0  0  0  0  0
  161.2150  205.1560  150.0050 C   0  0  0  0  0  0  0  0  0  0  0  0
  161.4210  204.1590  147.7630 C   0  0  0  0  0  3  0  0  0  0  0  0
  161.5290  207.6310  150.4030 C   0  0  0  0  0  0  0  0  0  0  0  0
  162.1870  210.7850  150.0650 C   0  0  0  0  0  3  0  0  0  0  0  0
  161.4230  205.2600  148.6140 C   0  0  0  0  0  2  0  0  0  0  0  0
  161.3090  207.0790  153.1700 C   0  0  0  0  0  0  0  0  0  0  0  0
  162.0110  210.3380  148.6920 C   0  0  0  0  0  3  0  0  0  0  0  0
  160.7800  203.6180  151.8080 C   0  0  0  0  0  3  0  0  0  0  0  0
  161.2170  202.8900  148.2810 C   0  0  0  0  0  3  0  0  0  0  0  0
  161.6210  208.3460  152.7280 C   0  0  0  0  0  3  0  0  0  0  0  0
  161.1230  206.0410  152.2500 C   0  0  0  0  0  0  0  0  0  0  0  0
  161.5340  207.9000  149.0850 C   0  0  0  0  0  3  0  0  0  0  0  0
  160.7590  201.0710  150.2270 Cl  0  0  0  0  0  0  0  0  0  0  0  0
  161.7270  208.6510  151.3800 C   0  0  0  0  0  0  0  0  0  0  0  0
  162.0630  210.0690  151.1740 C   0  0  0  0  0  3  0  0  0  0  0  0
  160.6730  204.7160  152.7960 C   0  0  0  0  0  3  0  0  0  0  0  0
  160.9960  203.8340  150.5120 C   0  0  0  0  0  0  0  0  0  0  0  0
  161.0110  202.7170  149.6450 C   0  0  0  0  0  0  0  0  0  0  0  0
  161.1960  206.8600  154.6490 C   0  0  0  0  0  2  0  0  0  0  0  0
  162.2400  208.3050  156.4120 C   0  0  0  0  0  1  0  0  0  0  0  0
  161.1180  208.1910  155.3950 C   0  0  2  0  0  3  0  0  0  0  0  0
  158.8700  207.3780  155.6960 O   0  0  0  0  0  1  0  0  0  0  0  0
  159.7630  208.3850  156.0790 C   0  0  2  0  0  3  0  0  0  0  0  0
  159.2560  210.5920  156.8980 O   0  0  0  0  0  1  0  0  0  0  0  0
  159.1670  209.7630  155.7770 C   0  0  1  0  0  3  0  0  0  0  0  0
  159.8260  210.4350  154.5700 C   0  0  0  0  0  2  0  0  0  0  0  0
  158.8430  211.1610  153.7090 C   0  0  0  0  0  0  0  0  0  0  0  0
  159.1420  211.4560  152.5230 O   0  0  0  0  0  0  0  0  0  0  0  0
  157.5890  211.4830  154.2080 O   0  0  0  0  0  1  0  0  0  0  0  0
  1  9  2  0  0  0  0
  1 14  1  0  0  0  0
  2 13  1  0  0  0  0
  3 19  1  0  0  0  0
  3  2  2  0  0  0  0
  4 11  2  0  0  0  0
  4  7  1  0  0  0  0
  5  2  1  0  0  0  0
  5 16  1  0  0  0  0
  6 17  2  0  0  0  0
  7  3  1  0  0  0  0
  8 21  1  0  0  0  0
  9  6  1  0  0  0  0
 10 18  2  0  0  0  0
 11 20  1  0  0  0  0
 12  8  1  0  0  0  0
 13 18  1  0  0  0  0
 13  8  2  0  0  0  0
 14  5  2  0  0  0  0
 16 12  2  0  0  0  0
 17 16  1  0  0  0  0
 19 10  1  0  0  0  0
 20 15  1  0  0  0  0
 20 19  2  0  0  0  0
 21 23  1  0  0  0  0
 23 25  1  0  0  0  0
 23 22  1  1  0  0  0
 25 24  1  6  0  0  0
 27 25  1  0  0  0  0
 27 26  1  1  0  0  0
 28 27  1  0  0  0  0
 29 31  1  0  0  0  0
 29 28  1  0  0  0  0
 30 29  2  0  0  0  0
M  END
>  <MODEL>
1

>  <REMARK>
 VINA RESULT:      -9.1      0.000      0.000
  Name = 
  6 active torsions:
  status: ('A' for Active; 'I' for Inactive)
    1  A    between atoms: C_1  and  C_24
    2  A    between atoms: C_9  and  C_22
    3  A    between atoms: C_9  and  C_23
    4  A    between atoms: C_15  and  C_23
    5  A    between atoms: C_19  and  C_22
    6  A    between atoms: C_19  and  C_24
                            x       y       z     vdW  Elec       q    Type
                         _______ _______ _______ _____ _____    ______ ____

>  <TORSDO>
F 6

$$$$
=
 OpenBabel11052422423D

 31 34  0  0  1  0  0  0  0  0999 V2000
  161.0680  205.9490  153.8630 C   0  0  0  0  0  3  0  0  0  0  0  0
  161.4150  206.3340  150.0410 C   0  0  0  0  0  0  0  0  0  0  0  0
  161.2730  205.0140  149.6260 C   0  0  0  0  0  0  0  0  0  0  0  0
  160.7520  202.6600  150.1240 C   0  0  0  0  0  3  0  0  0  0  0  0
  161.2870  206.7910  151.4220 C   0  0  0  0  0  0  0  0  0  0  0  0
  160.9730  208.4070  154.2120 C   0  0  0  0  0  3  0  0  0  0  0  0
  160.9550  203.9760  150.5260 C   0  0  0  0  0  3  0  0  0  0  0  0
  161.6890  208.6850  149.3580 C   0  0  0  0  0  0  0  0  0  0  0  0
  160.9720  207.0150  154.6370 C   0  0  0  0  0  3  0  0  0  0  0  0
  161.6870  205.5360  147.3100 C   0  0  0  0  0  3  0  0  0  0  0  0
  160.8530  202.3270  148.7820 C   0  0  0  0  0  3  0  0  0  0  0  0
  161.4880  209.0930  150.6590 C   0  0  0  0  0  3  0  0  0  0  0  0
  161.6690  207.3230  149.0400 C   0  0  0  0  0  0  0  0  0  0  0  0
  161.1950  205.8780  152.4050 C   0  0  0  0  0  3  0  0  0  0  0  0
  161.2680  202.8020  146.1540 Cl  0  0  0  0  0  0  0  0  0  0  0  0
  161.2970  208.1910  151.6930 C   0  0  0  0  0  0  0  0  0  0  0  0
  161.1120  208.8790  152.9810 C   0  0  0  0  0  3  0  0  0  0  0  0
  162.0090  206.9470  147.6260 C   0  0  0  0  0  3  0  0  0  0  0  0
  161.3810  204.6400  148.2460 C   0  0  0  0  0  0  0  0  0  0  0  0
  161.1590  203.3040  147.8410 C   0  0  2  0  0  3  0  0  0  0  0  0
  161.9080  209.7420  148.3180 C   0  0  0  0  0  2  0  0  0  0  0  0
  161.2060  211.6970  149.7220 C   0  0  0  0  0  1  0  0  0  0  0  0
  162.3510  211.0570  148.9570 C   0  0  2  0  0  3  0  0  0  0  0  0
  164.0680  212.6540  148.4030 O   0  0  0  0  0  1  0  0  0  0  0  0
  162.9080  212.0370  147.9230 C   0  0  2  0  0  3  0  0  0  0  0  0
  162.3730  214.3790  147.7520 O   0  0  0  0  0  1  0  0  0  0  0  0
  161.8720  213.0940  147.5270 C   0  0  1  0  0  3  0  0  0  0  0  0
  161.4150  212.9520  146.0730 C   0  0  0  0  0  2  0  0  0  0  0  0
  159.9910  212.5120  145.9600 C   0  0  0  0  0  0  0  0  0  0  0  0
  159.2410  212.5380  146.9710 O   0  0  0  0  0  1  0  0  0  0  0  0
  159.4860  212.1030  144.7340 O   0  0  0  0  0  0  0  0  0  0  0  0
  1  9  1  0  0  0  0
  2  5  2  0  0  0  0
  3  2  1  0  0  0  0
  3  7  2  0  0  0  0
  4  7  1  0  0  0  0
  5 16  1  0  0  0  0
  5 14  1  0  0  0  0
  6  9  2  0  0  0  0
  8 12  2  0  0  0  0
 10 18  1  0  0  0  0
 10 19  2  0  0  0  0
 11  4  2  0  0  0  0
 12 16  1  0  0  0  0
 13  8  1  0  0  0  0
 13  2  1  0  0  0  0
 14  1  2  0  0  0  0
 16 17  2  0  0  0  0
 17  6  1  0  0  0  0
 18 13  2  0  0  0  0
 19  3  1  0  0  0  0
 20 15  1  1  0  0  0
 20 19  1  0  0  0  0
 20 11  1  0  0  0  0
 21 23  1  0  0  0  0
 21  8  1  0  0  0  0
 23 22  1  6  0  0  0
 25 24  1  1  0  0  0
 25 23  1  0  0  0  0
 27 26  1  6  0  0  0
 27 25  1  0  0  0  0
 28 27  1  0  0  0  0
 29 28  1  0  0  0  0
 29 30  1  0  0  0  0
 31 29  2  0  0  0  0
M  END
>  <MODEL>
2

>  <REMARK>
 VINA RESULT:      -8.8      3.419      5.938
  Name = 
  6 active torsions:
  status: ('A' for Active; 'I' for Inactive)
    1  A    between atoms: C_1  and  C_24
    2  A    between atoms: C_9  and  C_22
    3  A    between atoms: C_9  and  C_23
    4  A    between atoms: C_15  and  C_23
    5  A    between atoms: C_19  and  C_22
    6  A    between atoms: C_19  and  C_24
                            x       y       z     vdW  Elec       q    Type
                         _______ _______ _______ _____ _____    ______ ____

>  <TORSDO>
F 6

$$$$
=
 OpenBabel11052422423D

 31 34  0  0  1  0  0  0  0  0999 V2000
  161.1130  204.8730  149.4420 C   0  0  0  0  0  3  0  0  0  0  0  0
  161.2860  208.2830  151.2350 C   0  0  0  0  0  0  0  0  0  0  0  0
  161.0780  207.9010  152.5570 C   0  0  0  0  0  0  0  0  0  0  0  0
  160.8340  206.1400  154.2600 C   0  0  0  0  0  3  0  0  0  0  0  0
  161.4000  207.3600  150.1100 C   0  0  0  0  0  0  0  0  0  0  0  0
  161.8860  205.8430  147.2890 C   0  0  0  0  0  3  0  0  0  0  0  0
  160.9850  206.5460  152.9380 C   0  0  0  0  0  2  0  0  0  0  0  0
  161.7830  210.1320  149.6850 C   0  0  0  0  0  0  0  0  0  0  0  0
  161.4370  204.7720  148.1650 C   0  0  0  0  0  3  0  0  0  0  0  0
  161.0740  210.1670  153.3740 C   0  0  0  0  0  3  0  0  0  0  0  0
  160.7780  207.0880  155.2690 C   0  0  0  0  0  3  0  0  0  0  0  0
  161.9600  209.2320  148.6580 C   0  0  0  0  0  3  0  0  0  0  0  0
  161.4360  209.6790  150.9630 C   0  0  0  0  0  0  0  0  0  0  0  0
  161.1210  206.0590  150.3020 C   0  0  0  0  0  3  0  0  0  0  0  0
  160.7910  209.5860  156.3020 Cl  0  0  0  0  0  0  0  0  0  0  0  0
  161.7720  207.8700  148.8310 C   0  0  0  0  0  0  0  0  0  0  0  0
  162.0170  207.1290  147.5820 C   0  0  0  0  0  3  0  0  0  0  0  0
  161.1480  210.7230  152.0030 C   0  0  0  0  0  3  0  0  0  0  0  0
  161.0070  208.8610  153.6190 C   0  0  0  0  0  0  0  0  0  0  0  0
  160.8690  208.4410  154.9620 C   0  0  0  0  0  0  0  0  0  0  0  0
  161.9900  211.5870  149.3870 C   0  0  0  0  0  2  0  0  0  0  0  0
  163.5240  212.2500  147.5170 C   0  0  0  0  0  1  0  0  0  0  0  0
  162.1120  211.8250  147.8820 C   0  0  2  0  0  3  0  0  0  0  0  0
  160.0180  212.9540  148.2600 O   0  0  0  0  0  1  0  0  0  0  0  0
  161.1040  212.8610  147.3830 C   0  0  2  0  0  3  0  0  0  0  0  0
  159.2190  212.4700  145.9360 O   0  0  0  0  0  1  0  0  0  0  0  0
  160.6140  212.5410  145.9680 C   0  0  1  0  0  3  0  0  0  0  0  0
  161.1150  213.5490  144.9310 C   0  0  0  0  0  2  0  0  0  0  0  0
  162.1060  212.9540  143.9830 C   0  0  0  0  0  0  0  0  0  0  0  0
  161.7140  212.2080  143.0480 O   0  0  0  0  0  0  0  0  0  0  0  0
  163.4560  213.2450  144.1160 O   0  0  0  0  0  1  0  0  0  0  0  0
  1 14  1  0  0  0  0
  2  3  2  0  0  0  0
  3  7  1  0  0  0  0
  3 19  1  0  0  0  0
  4 11  2  0  0  0  0
  5 14  2  0  0  0  0
  5  2  1  0  0  0  0
  6 17  2  0  0  0  0
  6  9  1  0  0  0  0
  7  4  1  0  0  0  0
  8 13  2  0  0  0  0
  9  1  2  0  0  0  0
 10 19  1  0  0  0  0
 12 16  2  0  0  0  0
 12  8  1  0  0  0  0
 13  2  1  0  0  0  0
 13 18  1  0  0  0  0
 16  5  1  0  0  0  0
 17 16  1  0  0  0  0
 18 10  2  0  0  0  0
 19 20  2  0  0  0  0
 20 11  1  0  0  0  0
 20 15  1  0  0  0  0
 21  8  1  0  0  0  0
 23 22  1  1  0  0  0
 23 21  1  0  0  0  0
 25 23  1  0  0  0  0
 25 24  1  1  0  0  0
 27 26  1  1  0  0  0
 27 25  1  0  0  0  0
 28 27  1  0  0  0  0
 29 31  1  0  0  0  0
 29 28  1  0  0  0  0
 30 29  2  0  0  0  0
M  END
>  <MODEL>
3

>  <REMARK>
 VINA RESULT:      -8.4      3.898      7.390
  Name = 
  6 active torsions:
  status: ('A' for Active; 'I' for Inactive)
    1  A    between atoms: C_1  and  C_24
    2  A    between atoms: C_9  and  C_22
    3  A    between atoms: C_9  and  C_23
    4  A    between atoms: C_15  and  C_23
    5  A    between atoms: C_19  and  C_22
    6  A    between atoms: C_19  and  C_24
                            x       y       z     vdW  Elec       q    Type
                         _______ _______ _______ _____ _____    ______ ____

>  <TORSDO>
F 6

$$$$
=
 OpenBabel11052422423D

 31 34  0  0  1  0  0  0  0  0999 V2000
  160.9980  204.7440  149.4850 C   0  0  0  0  0  3  0  0  0  0  0  0
  161.2920  208.1240  151.3190 C   0  0  0  0  0  0  0  0  0  0  0  0
  161.0700  207.7340  152.6360 C   0  0  0  0  0  0  0  0  0  0  0  0
  160.7650  205.9620  154.3180 C   0  0  0  0  0  3  0  0  0  0  0  0
  161.3730  207.2110  150.1820 C   0  0  0  0  0  0  0  0  0  0  0  0
  161.8050  205.7120  147.3440 C   0  0  0  0  0  3  0  0  0  0  0  0
  160.9290  206.3780  153.0010 C   0  0  0  0  0  2  0  0  0  0  0  0
  161.8530  209.9730  149.7910 C   0  0  0  0  0  0  0  0  0  0  0  0
  161.3180  204.6470  148.2070 C   0  0  0  0  0  3  0  0  0  0  0  0
  161.1450  209.9890  153.4810 C   0  0  0  0  0  3  0  0  0  0  0  0
  160.7420  206.8990  155.3390 C   0  0  0  0  0  3  0  0  0  0  0  0
  161.9980  209.0790  148.7530 C   0  0  0  0  0  3  0  0  0  0  0  0
  161.4910  209.5170  151.0630 C   0  0  0  0  0  0  0  0  0  0  0  0
  161.0480  205.9190  150.3590 C   0  0  0  0  0  3  0  0  0  0  0  0
  160.8430  209.3820  156.4010 Cl  0  0  0  0  0  0  0  0  0  0  0  0
  161.7620  207.7230  148.9100 C   0  0  0  0  0  0  0  0  0  0  0  0
  161.9810  206.9890  147.6520 C   0  0  0  0  0  3  0  0  0  0  0  0
  161.2390  210.5580  152.1160 C   0  0  0  0  0  3  0  0  0  0  0  0
  161.0330  208.6820  153.7090 C   0  0  0  0  0  0  0  0  0  0  0  0
  160.8800  208.2520  155.0480 C   0  0  0  0  0  0  0  0  0  0  0  0
  162.1110  211.4230  149.5100 C   0  0  0  0  0  2  0  0  0  0  0  0
  163.4800  212.3040  147.6030 C   0  0  0  0  0  1  0  0  0  0  0  0
  162.1510  211.6910  148.0060 C   0  0  2  0  0  3  0  0  0  0  0  0
  161.4270  213.4890  146.5740 O   0  0  0  0  0  1  0  0  0  0  0  0
  160.9960  212.5870  147.5540 C   0  0  2  0  0  3  0  0  0  0  0  0
  161.1510  214.4530  149.0680 O   0  0  0  0  0  1  0  0  0  0  0  0
  160.3720  213.3430  148.7300 C   0  0  1  0  0  3  0  0  0  0  0  0
  158.9300  213.7760  148.4500 C   0  0  0  0  0  2  0  0  0  0  0  0
  157.9910  213.3880  149.5470 C   0  0  0  0  0  0  0  0  0  0  0  0
  158.3680  213.4400  150.7460 O   0  0  0  0  0  1  0  0  0  0  0  0
  156.6950  212.9970  149.2440 O   0  0  0  0  0  0  0  0  0  0  0  0
  1 14  1  0  0  0  0
  2  3  2  0  0  0  0
  3  7  1  0  0  0  0
  3 19  1  0  0  0  0
  4 11  2  0  0  0  0
  5 14  2  0  0  0  0
  5  2  1  0  0  0  0
  6 17  2  0  0  0  0
  6  9  1  0  0  0  0
  7  4  1  0  0  0  0
  8 13  2  0  0  0  0
  9  1  2  0  0  0  0
 10 19  1  0  0  0  0
 12 16  2  0  0  0  0
 12  8  1  0  0  0  0
 13  2  1  0  0  0  0
 13 18  1  0  0  0  0
 16  5  1  0  0  0  0
 17 16  1  0  0  0  0
 18 10  2  0  0  0  0
 19 20  2  0  0  0  0
 20 11  1  0  0  0  0
 20 15  1  0  0  0  0
 21  8  1  0  0  0  0
 23 22  1  1  0  0  0
 23 21  1  0  0  0  0
 25 24  1  6  0  0  0
 25 23  1  0  0  0  0
 25 27  1  0  0  0  0
 27 26  1  6  0  0  0
 28 27  1  0  0  0  0
 28 29  1  0  0  0  0
 29 30  1  0  0  0  0
 31 29  2  0  0  0  0
M  END
>  <MODEL>
4

>  <REMARK>
 VINA RESULT:      -8.2      3.090      6.436
  Name = 
  6 active torsions:
  status: ('A' for Active; 'I' for Inactive)
    1  A    between atoms: C_1  and  C_24
    2  A    between atoms: C_9  and  C_22
    3  A    between atoms: C_9  and  C_23
    4  A    between atoms: C_15  and  C_23
    5  A    between atoms: C_19  and  C_22
    6  A    between atoms: C_19  and  C_24
                            x       y       z     vdW  Elec       q    Type
                         _______ _______ _______ _____ _____    ______ ____

>  <TORSDO>
F 6

$$$$
=
 OpenBabel11052422423D

 31 34  0  0  1  0  0  0  0  0999 V2000
  161.6800  211.4110  150.4710 C   0  0  0  0  0  3  0  0  0  0  0  0
  161.3180  208.0580  152.3420 C   0  0  0  0  0  0  0  0  0  0  0  0
  160.8850  208.4940  153.5900 C   0  0  0  0  0  0  0  0  0  0  0  0
  160.1000  210.2970  155.0710 C   0  0  0  0  0  3  0  0  0  0  0  0
  161.5420  208.9250  151.1890 C   0  0  0  0  0  0  0  0  0  0  0  0
  162.0540  210.2800  148.2910 C   0  0  0  0  0  3  0  0  0  0  0  0
  160.5890  209.8490  153.8490 C   0  0  0  0  0  2  0  0  0  0  0  0
  161.8260  206.1230  150.9030 C   0  0  0  0  0  0  0  0  0  0  0  0
  161.9130  211.4300  149.1710 C   0  0  0  0  0  3  0  0  0  0  0  0
  160.9090  206.2810  154.5430 C   0  0  0  0  0  3  0  0  0  0  0  0
  159.8770  209.3930  156.0970 C   0  0  0  0  0  3  0  0  0  0  0  0
  161.9570  206.9590  149.8150 C   0  0  0  0  0  3  0  0  0  0  0  0
  161.5240  206.6540  152.1620 C   0  0  0  0  0  0  0  0  0  0  0  0
  161.5010  210.2580  151.3580 C   0  0  0  0  0  3  0  0  0  0  0  0
  159.8330  206.9530  157.2590 Cl  0  0  0  0  0  0  0  0  0  0  0  0
  161.8320  208.3350  149.9240 C   0  0  0  0  0  0  0  0  0  0  0  0
  162.0210  208.9970  148.6220 C   0  0  0  0  0  3  0  0  0  0  0  0
  161.5100  205.6980  153.3210 C   0  0  0  0  0  3  0  0  0  0  0  0
  160.6550  207.5820  154.6710 C   0  0  0  0  0  0  0  0  0  0  0  0
  160.1440  208.0410  155.9070 C   0  0  0  0  0  0  0  0  0  0  0  0
  162.0010  204.6510  150.6820 C   0  0  0  0  0  2  0  0  0  0  0  0
  160.6130  202.9120  151.8370 C   0  0  0  0  0  1  0  0  0  0  0  0
  160.6550  203.9290  150.7100 C   0  0  2  0  0  3  0  0  0  0  0  0
  160.0680  201.8930  149.5640 O   0  0  0  0  0  1  0  0  0  0  0  0
  160.3400  203.2520  149.3750 C   0  0  2  0  0  3  0  0  0  0  0  0
  161.6860  202.2460  147.6500 O   0  0  0  0  0  1  0  0  0  0  0  0
  161.4810  203.4270  148.3680 C   0  0  1  0  0  3  0  0  0  0  0  0
  161.2420  204.5950  147.4070 C   0  0  0  0  0  2  0  0  0  0  0  0
  161.9480  204.4170  146.1020 C   0  0  0  0  0  0  0  0  0  0  0  0
  161.3050  204.0560  145.0820 O   0  0  0  0  0  0  0  0  0  0  0  0
  163.3070  204.6790  146.0070 O   0  0  0  0  0  1  0  0  0  0  0  0
  1 14  1  0  0  0  0
  2  3  2  0  0  0  0
  3  7  1  0  0  0  0
  3 19  1  0  0  0  0
  4 11  2  0  0  0  0
  5 14  2  0  0  0  0
  5  2  1  0  0  0  0
  6 17  2  0  0  0  0
  6  9  1  0  0  0  0
  7  4  1  0  0  0  0
  8 13  2  0  0  0  0
  9  1  2  0  0  0  0
 10 19  1  0  0  0  0
 12 16  2  0  0  0  0
 12  8  1  0  0  0  0
 13  2  1  0  0  0  0
 13 18  1  0  0  0  0
 16  5  1  0  0  0  0
 17 16  1  0  0  0  0
 18 10  2  0  0  0  0
 19 20  2  0  0  0  0
 20 11  1  0  0  0  0
 20 15  1  0  0  0  0
 21 23  1  0  0  0  0
 21  8  1  0  0  0  0
 23 22  1  1  0  0  0
 25 24  1  1  0  0  0
 25 23  1  0  0  0  0
 27 26  1  6  0  0  0
 27 25  1  0  0  0  0
 28 27  1  0  0  0  0
 29 28  1  0  0  0  0
 30 29  2  0  0  0  0
 31 29  1  0  0  0  0
M  END
>  <MODEL>
5

>  <REMARK>
 VINA RESULT:      -8.1      4.135      6.982
  Name = 
  6 active torsions:
  status: ('A' for Active; 'I' for Inactive)
    1  A    between atoms: C_1  and  C_24
    2  A    between atoms: C_9  and  C_22
    3  A    between atoms: C_9  and  C_23
    4  A    between atoms: C_15  and  C_23
    5  A    between atoms: C_19  and  C_22
    6  A    between atoms: C_19  and  C_24
                            x       y       z     vdW  Elec       q    Type
                         _______ _______ _______ _____ _____    ______ ____

>  <TORSDO>
F 6

$$$$
=
 OpenBabel11052422423D

 31 34  0  0  1  0  0  0  0  0999 V2000
  160.4980  202.4360  152.1080 C   0  0  0  0  0  3  0  0  0  0  0  0
  161.1980  205.8960  150.5540 C   0  0  0  0  0  0  0  0  0  0  0  0
  161.1960  206.7030  151.6870 C   0  0  0  0  0  0  0  0  0  0  0  0
  161.1360  206.9500  154.1360 C   0  0  0  0  0  3  0  0  0  0  0  0
  161.0570  204.4430  150.5660 C   0  0  0  0  0  0  0  0  0  0  0  0
  160.9500  201.2610  149.9660 C   0  0  0  0  0  3  0  0  0  0  0  0
  161.0830  206.1670  152.9880 C   0  0  0  0  0  3  0  0  0  0  0  0
  161.5390  205.7760  148.1170 C   0  0  0  0  0  0  0  0  0  0  0  0
  160.5900  201.3420  151.3730 C   0  0  0  0  0  3  0  0  0  0  0  0
  161.4800  208.7380  150.4290 C   0  0  0  0  0  3  0  0  0  0  0  0
  161.3160  208.3200  154.0290 C   0  0  0  0  0  3  0  0  0  0  0  0
  161.4780  204.4010  148.1700 C   0  0  0  0  0  3  0  0  0  0  0  0
  161.3890  206.5300  149.2870 C   0  0  0  0  0  0  0  0  0  0  0  0
  160.7300  203.8290  151.7170 C   0  0  0  0  0  3  0  0  0  0  0  0
  161.6680  210.6590  152.7220 Cl  0  0  0  0  0  0  0  0  0  0  0  0
  161.2350  203.7190  149.3510 C   0  0  0  0  0  0  0  0  0  0  0  0
  161.2130  202.2620  149.1370 C   0  0  0  0  0  3  0  0  0  0  0  0
  161.3520  208.0240  149.1360 C   0  0  0  0  0  2  0  0  0  0  0  0
  161.3710  208.1230  151.6040 C   0  0  0  0  0  0  0  0  0  0  0  0
  161.4400  208.9110  152.7760 C   0  0  0  0  0  0  0  0  0  0  0  0
  161.7860  206.4170  146.7840 C   0  0  0  0  0  2  0  0  0  0  0  0
  163.0910  205.6680  144.7790 C   0  0  0  0  0  1  0  0  0  0  0  0
  161.9100  205.3640  145.6850 C   0  0  2  0  0  3  0  0  0  0  0  0
  159.6920  206.2040  145.2610 O   0  0  0  0  0  1  0  0  0  0  0  0
  160.6280  205.2440  144.8590 C   0  0  2  0  0  3  0  0  0  0  0  0
  159.3330  203.5240  143.7810 O   0  0  0  0  0  1  0  0  0  0  0  0
  160.0200  203.8420  144.9550 C   0  0  1  0  0  3  0  0  0  0  0  0
  161.0680  202.7680  145.2600 C   0  0  0  0  0  2  0  0  0  0  0  0
  160.4580  201.4260  145.5070 C   0  0  0  0  0  0  0  0  0  0  0  0
  159.4220  201.0790  144.8820 O   0  0  0  0  0  0  0  0  0  0  0  0
  161.0510  200.5490  146.4050 O   0  0  0  0  0  1  0  0  0  0  0  0
  2  5  1  0  0  0  0
  2  3  2  0  0  0  0
  3  7  1  0  0  0  0
  5 14  2  0  0  0  0
  6  9  1  0  0  0  0
  7  4  2  0  0  0  0
  8 12  1  0  0  0  0
  8 13  2  0  0  0  0
  9  1  2  0  0  0  0
 10 19  2  0  0  0  0
 11  4  1  0  0  0  0
 12 16  2  0  0  0  0
 13  2  1  0  0  0  0
 14  1  1  0  0  0  0
 15 20  1  0  0  0  0
 16  5  1  0  0  0  0
 17 16  1  0  0  0  0
 17  6  2  0  0  0  0
 18 13  1  0  0  0  0
 18 10  1  0  0  0  0
 19  3  1  0  0  0  0
 19 20  1  0  0  0  0
 20 11  2  0  0  0  0
 21  8  1  0  0  0  0
 23 22  1  6  0  0  0
 23 21  1  0  0  0  0
 25 27  1  0  0  0  0
 25 24  1  1  0  0  0
 25 23  1  0  0  0  0
 27 26  1  6  0  0  0
 27 28  1  0  0  0  0
 28 29  1  0  0  0  0
 29 31  1  0  0  0  0
 30 29  2  0  0  0  0
M  END
>  <MODEL>
6

>  <REMARK>
 VINA RESULT:      -7.8      4.740      8.804
  Name = 
  6 active torsions:
  status: ('A' for Active; 'I' for Inactive)
    1  A    between atoms: C_1  and  C_24
    2  A    between atoms: C_9  and  C_22
    3  A    between atoms: C_9  and  C_23
    4  A    between atoms: C_15  and  C_23
    5  A    between atoms: C_19  and  C_22
    6  A    between atoms: C_19  and  C_24
                            x       y       z     vdW  Elec       q    Type
                         _______ _______ _______ _____ _____    ______ ____

>  <TORSDO>
F 6

$$$$
=
 OpenBabel11052422423D

 31 34  0  0  1  0  0  0  0  0999 V2000
  160.9390  205.1280  153.2220 C   0  0  0  0  0  3  0  0  0  0  0  0
  161.4040  207.0400  149.9040 C   0  0  0  0  0  0  0  0  0  0  0  0
  161.6530  208.3270  150.3700 C   0  0  0  0  0  0  0  0  0  0  0  0
  162.0950  209.8800  152.2300 C   0  0  0  0  0  3  0  0  0  0  0  0
  161.2290  205.8660  150.7550 C   0  0  0  0  0  0  0  0  0  0  0  0
  160.9180  202.9240  152.0750 C   0  0  0  0  0  3  0  0  0  0  0  0
  161.7900  208.6120  151.7450 C   0  0  0  0  0  3  0  0  0  0  0  0
  161.2420  205.5610  147.9410 C   0  0  0  0  0  0  0  0  0  0  0  0
  160.8510  203.8100  153.2270 C   0  0  0  0  0  3  0  0  0  0  0  0
  161.7310  209.2800  148.1590 C   0  0  0  0  0  3  0  0  0  0  0  0
  162.2870  210.9270  151.3430 C   0  0  0  0  0  3  0  0  0  0  0  0
  161.1560  204.4620  148.7680 C   0  0  0  0  0  3  0  0  0  0  0  0
  161.3520  206.8440  148.4890 C   0  0  0  0  0  0  0  0  0  0  0  0
  161.1260  206.0330  152.0850 C   0  0  0  0  0  3  0  0  0  0  0  0
  162.4300  212.0960  148.9100 Cl  0  0  0  0  0  0  0  0  0  0  0  0
  161.1380  204.5780  150.1480 C   0  0  0  0  0  0  0  0  0  0  0  0
  161.0340  203.2620  150.7980 C   0  0  0  0  0  3  0  0  0  0  0  0
  161.3260  208.0000  147.5310 C   0  0  0  0  0  3  0  0  0  0  0  0
  161.8460  209.4300  149.4770 C   0  0  0  0  0  0  0  0  0  0  0  0
  162.1710  210.7130  149.9740 C   0  0  2  0  0  3  0  0  0  0  0  0
  161.2320  205.3270  146.4600 C   0  0  0  0  0  2  0  0  0  0  0  0
  163.3370  204.2730  145.5970 C   0  0  0  0  0  1  0  0  0  0  0  0
  161.9300  204.0140  146.1080 C   0  0  2  0  0  3  0  0  0  0  0  0
  160.2410  204.0220  144.3900 O   0  0  0  0  0  1  0  0  0  0  0  0
  161.1370  203.2010  145.0830 C   0  0  2  0  0  3  0  0  0  0  0  0
  159.7570  201.2530  144.7700 O   0  0  0  0  0  1  0  0  0  0  0  0
  160.3880  202.0370  145.7390 C   0  0  1  0  0  3  0  0  0  0  0  0
  161.3010  201.1690  146.6090 C   0  0  0  0  0  2  0  0  0  0  0  0
  160.8100  201.0520  148.0160 C   0  0  0  0  0  0  0  0  0  0  0  0
  159.6600  201.4640  148.3190 O   0  0  0  0  0  0  0  0  0  0  0  0
  161.6120  200.4620  148.9830 O   0  0  0  0  0  1  0  0  0  0  0  0
  1  9  1  0  0  0  0
  2  3  1  0  0  0  0
  2  5  2  0  0  0  0
  3  7  2  0  0  0  0
  5 14  1  0  0  0  0
  6  9  2  0  0  0  0
  7  4  1  0  0  0  0
  8 13  1  0  0  0  0
  8 12  2  0  0  0  0
 10 19  2  0  0  0  0
 11  4  2  0  0  0  0
 12 16  1  0  0  0  0
 13  2  1  0  0  0  0
 14  1  2  0  0  0  0
 16  5  1  0  0  0  0
 16 17  2  0  0  0  0
 17  6  1  0  0  0  0
 18 10  1  0  0  0  0
 18 13  2  0  0  0  0
 19 20  1  0  0  0  0
 19  3  1  0  0  0  0
 20 15  1  1  0  0  0
 20 11  1  0  0  0  0
 21  8  1  0  0  0  0
 23 22  1  6  0  0  0
 23 21  1  0  0  0  0
 25 24  1  1  0  0  0
 25 27  1  0  0  0  0
 25 23  1  0  0  0  0
 27 26  1  6  0  0  0
 27 28  1  0  0  0  0
 28 29  1  0  0  0  0
 29 30  2  0  0  0  0
 29 31  1  0  0  0  0
M  END
>  <MODEL>
7

>  <REMARK>
 VINA RESULT:      -7.7      4.924      8.743
  Name = 
  6 active torsions:
  status: ('A' for Active; 'I' for Inactive)
    1  A    between atoms: C_1  and  C_24
    2  A    between atoms: C_9  and  C_22
    3  A    between atoms: C_9  and  C_23
    4  A    between atoms: C_15  and  C_23
    5  A    between atoms: C_19  and  C_22
    6  A    between atoms: C_19  and  C_24
                            x       y       z     vdW  Elec       q    Type
                         _______ _______ _______ _____ _____    ______ ____

>  <TORSDO>
F 6

$$$$
=
 OpenBabel11052422423D

 31 34  0  0  1  0  0  0  0  0999 V2000
  161.5170  211.8450  150.5610 C   0  0  0  0  0  3  0  0  0  0  0  0
  161.3140  208.4450  152.3710 C   0  0  0  0  0  0  0  0  0  0  0  0
  160.8550  208.8370  153.6240 C   0  0  0  0  0  0  0  0  0  0  0  0
  159.9750  210.5730  155.1330 C   0  0  0  0  0  3  0  0  0  0  0  0
  161.5000  209.3420  151.2340 C   0  0  0  0  0  0  0  0  0  0  0  0
  161.9570  210.7720  148.3640 C   0  0  0  0  0  3  0  0  0  0  0  0
  160.4900  210.1700  153.9050 C   0  0  0  0  0  2  0  0  0  0  0  0
  161.9240  206.5640  150.9010 C   0  0  0  0  0  0  0  0  0  0  0  0
  161.7550  211.8980  149.2620 C   0  0  0  0  0  3  0  0  0  0  0  0
  160.9840  206.6110  154.5390 C   0  0  0  0  0  3  0  0  0  0  0  0
  159.7930  209.6400  156.1410 C   0  0  0  0  0  3  0  0  0  0  0  0
  162.0180  207.4240  149.8290 C   0  0  0  0  0  3  0  0  0  0  0  0
  161.5900  207.0560  152.1680 C   0  0  0  0  0  0  0  0  0  0  0  0
  161.3920  210.6690  151.4260 C   0  0  0  0  0  3  0  0  0  0  0  0
  159.8640  207.1810  157.2600 Cl  0  0  0  0  0  0  0  0  0  0  0  0
  161.8250  208.7900  149.9610 C   0  0  0  0  0  0  0  0  0  0  0  0
  161.9860  209.4830  148.6720 C   0  0  0  0  0  3  0  0  0  0  0  0
  161.6190  206.0810  153.3100 C   0  0  0  0  0  3  0  0  0  0  0  0
  160.6650  207.8950  154.6880 C   0  0  0  0  0  0  0  0  0  0  0  0
  160.1260  208.3070  155.9290 C   0  0  0  0  0  0  0  0  0  0  0  0
  162.1730  205.1060  150.6550 C   0  0  0  0  0  2  0  0  0  0  0  0
  160.1330  205.5900  149.2800 C   0  0  0  0  0  1  0  0  0  0  0  0
  161.1550  204.5360  149.6690 C   0  0  2  0  0  3  0  0  0  0  0  0
  160.8880  203.0250  151.5260 O   0  0  0  0  0  1  0  0  0  0  0  0
  160.4510  203.2970  150.2250 C   0  0  2  0  0  3  0  0  0  0  0  0
  159.4870  201.3260  149.2310 O   0  0  0  0  0  1  0  0  0  0  0  0
  160.6640  202.0730  149.3290 C   0  0  1  0  0  3  0  0  0  0  0  0
  161.1690  202.4480  147.9340 C   0  0  0  0  0  2  0  0  0  0  0  0
  160.9490  201.3600  146.9320 C   0  0  0  0  0  0  0  0  0  0  0  0
  160.2370  201.5730  145.9170 O   0  0  0  0  0  0  0  0  0  0  0  0
  161.5520  200.1230  147.1070 O   0  0  0  0  0  1  0  0  0  0  0  0
  1 14  1  0  0  0  0
  2  3  2  0  0  0  0
  3  7  1  0  0  0  0
  3 19  1  0  0  0  0
  4 11  2  0  0  0  0
  5 14  2  0  0  0  0
  5  2  1  0  0  0  0
  6 17  2  0  0  0  0
  6  9  1  0  0  0  0
  7  4  1  0  0  0  0
  8 13  2  0  0  0  0
  9  1  2  0  0  0  0
 10 19  1  0  0  0  0
 12 16  2  0  0  0  0
 12  8  1  0  0  0  0
 13  2  1  0  0  0  0
 13 18  1  0  0  0  0
 16  5  1  0  0  0  0
 17 16  1  0  0  0  0
 18 10  2  0  0  0  0
 19 20  2  0  0  0  0
 20 11  1  0  0  0  0
 20 15  1  0  0  0  0
 21  8  1  0  0  0  0
 23 22  1  1  0  0  0
 23 25  1  0  0  0  0
 23 21  1  0  0  0  0
 25 24  1  1  0  0  0
 27 26  1  6  0  0  0
 27 25  1  0  0  0  0
 28 27  1  0  0  0  0
 29 31  1  0  0  0  0
 29 28  1  0  0  0  0
 30 29  2  0  0  0  0
M  END
>  <MODEL>
8

>  <REMARK>
 VINA RESULT:      -7.4      4.004      7.269
  Name = 
  6 active torsions:
  status: ('A' for Active; 'I' for Inactive)
    1  A    between atoms: C_1  and  C_24
    2  A    between atoms: C_9  and  C_22
    3  A    between atoms: C_9  and  C_23
    4  A    between atoms: C_15  and  C_23
    5  A    between atoms: C_19  and  C_22
    6  A    between atoms: C_19  and  C_24
                            x       y       z     vdW  Elec       q    Type
                         _______ _______ _______ _____ _____    ______ ____

>  <TORSDO>
F 6

$$$$
=
 OpenBabel11052422423D

 31 34  0  0  1  0  0  0  0  0999 V2000
  160.8020  207.0950  154.5050 C   0  0  0  0  0  3  0  0  0  0  0  0
  161.4950  207.6810  150.7560 C   0  0  0  0  0  0  0  0  0  0  0  0
  161.3200  206.3980  150.2480 C   0  0  0  0  0  0  0  0  0  0  0  0
  160.6330  204.0530  150.5530 C   0  0  0  0  0  3  0  0  0  0  0  0
  161.2740  208.0630  152.1480 C   0  0  0  0  0  0  0  0  0  0  0  0
  160.8080  209.5300  154.9980 C   0  0  0  0  0  3  0  0  0  0  0  0
  160.8700  205.3300  151.0520 C   0  0  0  0  0  3  0  0  0  0  0  0
  161.9520  210.0480  150.2470 C   0  0  0  0  0  0  0  0  0  0  0  0
  160.6960  208.1190  155.3330 C   0  0  0  0  0  3  0  0  0  0  0  0
  161.9580  207.0280  148.0120 C   0  0  0  0  0  3  0  0  0  0  0  0
  160.8310  203.7930  149.2060 C   0  0  0  0  0  3  0  0  0  0  0  0
  161.6620  210.3900  151.5500 C   0  0  0  0  0  3  0  0  0  0  0  0
  161.8860  208.7100  149.8430 C   0  0  0  0  0  0  0  0  0  0  0  0
  161.0490  207.1020  153.0600 C   0  0  0  0  0  3  0  0  0  0  0  0
  161.4940  204.3950  146.6560 Cl  0  0  0  0  0  0  0  0  0  0  0  0
  161.3360  209.4420  152.5060 C   0  0  0  0  0  0  0  0  0  0  0  0
  161.0780  210.0640  153.8150 C   0  0  0  0  0  3  0  0  0  0  0  0
  162.3260  208.3980  148.4410 C   0  0  0  0  0  3  0  0  0  0  0  0
  161.5250  206.0990  148.8620 C   0  0  0  0  0  0  0  0  0  0  0  0
  161.2680  204.8040  148.3570 C   0  0  2  0  0  3  0  0  0  0  0  0
  162.3150  211.1490  149.2960 C   0  0  0  0  0  2  0  0  0  0  0  0
  161.1160  211.8280  147.2010 C   0  0  0  0  0  1  0  0  0  0  0  0
  161.0640  211.8090  148.7190 C   0  0  2  0  0  3  0  0  0  0  0  0
  160.7180  213.2080  150.6500 O   0  0  0  0  0  1  0  0  0  0  0  0
  160.8640  213.2270  149.2590 C   0  0  2  0  0  3  0  0  0  0  0  0
  159.6910  213.7520  147.2220 O   0  0  0  0  0  1  0  0  0  0  0  0
  159.6600  213.9160  148.6100 C   0  0  1  0  0  3  0  0  0  0  0  0
  158.3260  213.4180  149.1700 C   0  0  0  0  0  2  0  0  0  0  0  0
  157.2860  213.2470  148.1100 C   0  0  0  0  0  0  0  0  0  0  0  0
  156.3190  214.0500  148.0420 O   0  0  0  0  0  1  0  0  0  0  0  0
  157.4010  212.2210  147.1830 O   0  0  0  0  0  0  0  0  0  0  0  0
  1  9  1  0  0  0  0
  2  5  2  0  0  0  0
  3  2  1  0  0  0  0
  3  7  2  0  0  0  0
  4  7  1  0  0  0  0
  5 16  1  0  0  0  0
  5 14  1  0  0  0  0
  6  9  2  0  0  0  0
  8 12  2  0  0  0  0
 10 18  1  0  0  0  0
 10 19  2  0  0  0  0
 11  4  2  0  0  0  0
 12 16  1  0  0  0  0
 13  8  1  0  0  0  0
 13  2  1  0  0  0  0
 14  1  2  0  0  0  0
 16 17  2  0  0  0  0
 17  6  1  0  0  0  0
 18 13  2  0  0  0  0
 19  3  1  0  0  0  0
 20 15  1  1  0  0  0
 20 19  1  0  0  0  0
 20 11  1  0  0  0  0
 21  8  1  0  0  0  0
 23 22  1  6  0  0  0
 23 25  1  0  0  0  0
 23 21  1  0  0  0  0
 25 24  1  1  0  0  0
 27 26  1  6  0  0  0
 27 28  1  0  0  0  0
 27 25  1  0  0  0  0
 29 28  1  0  0  0  0
 30 29  1  0  0  0  0
 31 29  2  0  0  0  0
M  END
>  <MODEL>
9

>  <REMARK>
 VINA RESULT:      -7.1      2.780      5.636
  Name = 
  6 active torsions:
  status: ('A' for Active; 'I' for Inactive)
    1  A    between atoms: C_1  and  C_24
    2  A    between atoms: C_9  and  C_22
    3  A    between atoms: C_9  and  C_23
    4  A    between atoms: C_15  and  C_23
    5  A    between atoms: C_19  and  C_22
    6  A    between atoms: C_19  and  C_24
                            x       y       z     vdW  Elec       q    Type
                         _______ _______ _______ _____ _____    ______ ____

>  <TORSDO>
F 6

$$$$
