=
 OpenBabel11062408463D

 55 59  0  0  1  0  0  0  0  0999 V2000
  161.8650  210.6910  153.0340 C   0  0  0  0  0  2  0  0  0  0  0  0
  161.1190  206.5000  150.3490 C   0  0  0  0  0  3  0  0  0  0  0  0
  162.7980  207.8790  148.6630 O   0  0  0  0  0  0  0  0  0  0  0  0
  161.5020  202.5640  152.3470 O   0  0  0  0  0  0  0  0  0  0  0  0
  161.4440  203.5590  151.5750 C   0  0  0  0  0  0  0  0  0  0  0  0
  162.7900  211.8960  147.0690 C   0  0  0  0  0  3  0  0  0  0  0  0
  162.8830  213.0750  146.1330 C   0  0  0  0  0  2  0  0  0  0  0  0
  162.0530  213.3620  148.9460 C   0  0  2  0  0  3  0  0  0  0  0  0
  161.8160  214.4530  147.9090 C   0  0  0  0  0  2  0  0  0  0  0  0
  161.2980  209.7230  148.5300 C   0  0  0  0  0  2  0  0  0  0  0  0
  162.9380  214.4050  146.8810 C   0  0  0  0  0  2  0  0  0  0  0  0
  160.9220  209.7260  155.1160 C   0  0  0  0  0  3  0  0  0  0  0  0
  162.3150  211.9990  148.3250 C   0  0  0  0  0  0  0  0  0  0  0  0
  161.6370  207.1240  154.3900 C   0  0  0  0  0  0  0  0  0  0  0  0
  162.1550  210.3610  151.6020 C   0  0  0  0  0  3  0  0  0  0  0  0
  161.9230  208.1920  153.5310 C   0  0  0  0  0  3  0  0  0  0  0  0
  160.7800  212.2410  150.7370 C   0  0  0  0  0  0  0  0  0  0  0  0
  160.1490  205.6900  151.1320 C   0  0  0  0  0  2  0  0  0  0  0  0
  160.9230  213.2970  149.9250 C   0  0  0  0  0  3  0  0  0  0  0  0
  160.7530  207.5930  149.7660 N   0  0  0  0  0  0  0  0  0  0  0  0
  161.6720  208.3530  148.9780 C   0  0  0  0  0  0  0  0  0  0  0  0
  160.6350  208.6600  155.9720 C   0  0  0  0  0  3  0  0  0  0  0  0
  160.8560  204.7900  152.0360 N   0  0  0  0  0  0  0  0  0  0  0  0
  161.5560  209.5000  153.8890 C   0  0  0  0  0  0  0  0  0  0  0  0
  162.2120  210.7570  149.1870 C   0  0  1  0  0  3  0  0  0  0  0  0
  161.7060  211.0870  150.5710 C   0  0  0  0  0  0  0  0  0  0  0  0
  160.7210  205.0360  153.4660 C   0  0  0  0  0  2  0  0  0  0  0  0
  161.9690  205.7270  153.9910 C   0  0  0  0  0  2  0  0  0  0  0  0
  160.9890  207.3610  155.6080 C   0  0  0  0  0  3  0  0  0  0  0  0
  159.0750  213.3970  152.1850 C   0  0  0  0  0  2  0  0  0  0  0  0
  157.6620  211.9510  153.6500 C   0  0  2  0  0  3  0  0  0  0  0  0
  158.8710  210.9430  151.6990 C   0  0  0  0  0  2  0  0  0  0  0  0
  158.3660  210.7040  153.1180 C   0  0  0  0  0  2  0  0  0  0  0  0
  158.6050  213.1510  153.6130 C   0  0  0  0  0  2  0  0  0  0  0  0
  159.6620  212.1720  151.6390 N   0  0  0  0  0  0  0  0  0  0  0  0
  157.1660  211.7260  155.0400 C   0  0  0  0  0  0  0  0  0  0  0  0
  156.0160  211.2520  155.2460 O   0  0  0  0  0  0  0  0  0  0  0  0
  158.0150  212.0200  156.1440 N   0  0  0  0  0  1  0  0  0  0  0  0
  162.0750  203.3960  149.8950 S   0  0  0  0  0  0  0  0  0  0  0  0
  160.6420  202.4630  149.2170 C   0  0  2  0  0  0  0  0  0  0  0  0
  159.4170  202.8150  150.0460 C   0  0  0  0  0  1  0  0  0  0  0  0
  160.8420  201.0660  149.2870 O   0  0  0  0  0  0  0  0  0  0  0  0
  162.1220  200.8380  149.0540 O   0  0  0  0  0  1  0  0  0  0  0  0
  160.4020  202.9370  147.7740 C   0  0  0  0  0  2  0  0  0  0  0  0
  160.4440  205.3340  147.8840 O   0  0  0  0  0  1  0  0  0  0  0  0
  161.1590  204.2230  147.4240 C   0  0  2  0  0  3  0  0  0  0  0  0
  161.4600  204.3490  145.9160 C   0  0  1  0  0  0  0  0  0  0  0  0
  160.9930  205.7080  145.4110 C   0  0  0  0  0  1  0  0  0  0  0  0
  162.9370  204.2130  145.6640 C   0  0  0  0  0  3  0  0  0  0  0  0
  163.7590  204.7440  146.3970 O   0  0  0  0  0  0  0  0  0  0  0  0
  160.7270  203.2490  145.1440 C   0  0  0  0  0  2  0  0  0  0  0  0
  161.3520  201.9790  145.3210 O   0  0  0  0  0  0  0  0  0  0  0  0
  160.6350  200.7820  145.4350 C   0  0  0  0  0  0  0  0  0  0  0  0
  159.2550  200.7110  144.8880 C   0  0  0  0  0  1  0  0  0  0  0  0
  161.1500  199.7070  146.0240 C   0  0  0  0  0  2  0  0  0  0  0  0
  1 24  1  0  0  0  0
  2 18  1  0  0  0  0
  3 21  2  0  0  0  0
  5 23  1  0  0  0  0
  5  4  2  0  0  0  0
  6 13  2  0  0  0  0
  7 11  1  0  0  0  0
  7  6  1  0  0  0  0
  8  9  1  6  0  0  0
  8 19  1  0  0  0  0
 10 21  1  0  0  0  0
 11  9  1  0  0  0  0
 12 22  1  0  0  0  0
 13  8  1  0  0  0  0
 13 25  1  0  0  0  0
 14 29  1  0  0  0  0
 15  1  1  0  0  0  0
 16 24  1  0  0  0  0
 16 14  2  0  0  0  0
 17 35  1  0  0  0  0
 18 23  1  0  0  0  0
 19 17  2  0  0  0  0
 20  2  2  0  0  0  0
 21 20  1  0  0  0  0
 23 27  1  0  0  0  0
 24 12  2  0  0  0  0
 25 10  1  6  0  0  0
 25 26  1  0  0  0  0
 26 17  1  0  0  0  0
 26 15  2  0  0  0  0
 27 28  1  0  0  0  0
 28 14  1  0  0  0  0
 29 22  2  0  0  0  0
 30 34  1  0  0  0  0
 31 36  1  1  0  0  0
 32 33  1  0  0  0  0
 33 31  1  0  0  0  0
 34 31  1  0  0  0  0
 35 32  1  0  0  0  0
 35 30  1  0  0  0  0
 36 37  2  0  0  0  0
 36 38  1  0  0  0  0
 39  5  1  0  0  0  0
 40 42  1  0  0  0  0
 40 39  1  0  0  0  0
 40 41  1  1  0  0  0
 43 42  1  0  0  0  0
 44 40  1  0  0  0  0
 46 44  1  0  0  0  0
 46 45  1  6  0  0  0
 47 48  1  6  0  0  0
 47 46  1  0  0  0  0
 49 47  1  0  0  0  0
 49 50  2  0  0  0  0
 51 52  1  0  0  0  0
 51 47  1  0  0  0  0
 52 53  1  0  0  0  0
 53 55  2  0  0  0  0
 54 53  1  0  0  0  0
M  END
>  <MODEL>
1

>  <REMARK>
 VINA RESULT:       0.1      0.000      0.000
  Name = 
  12 active torsions:
  status: ('A' for Active; 'I' for Inactive)
    1  A    between atoms: C_1  and  O_53
    2  A    between atoms: O_6  and  C_20
    3  A    between atoms: C_8  and  S_22
    4  A    between atoms: C_10  and  C_32
    5  A    between atoms: C_11  and  C_29
    6  A    between atoms: C_12  and  C_14
    7  A    between atoms: C_12  and  C_20
    8  A    between atoms: C_14  and  C_29
    9  A    between atoms: C_20  and  S_22
   10  A    between atoms: C_29  and  C_38
   11  A    between atoms: C_33  and  N_52
   12  A    between atoms: C_38  and  O_53
                            x       y       z     vdW  Elec       q    Type
                         _______ _______ _______ _____ _____    ______ ____

>  <TORSDO>
F 12

$$$$
=
 OpenBabel11062408463D

 55 59  0  0  1  0  0  0  0  0999 V2000
  161.9230  210.7030  153.0970 C   0  0  0  0  0  2  0  0  0  0  0  0
  161.0180  206.5270  150.4390 C   0  0  0  0  0  3  0  0  0  0  0  0
  162.7030  207.8560  148.7190 O   0  0  0  0  0  0  0  0  0  0  0  0
  161.3330  202.5870  152.4410 O   0  0  0  0  0  0  0  0  0  0  0  0
  161.2870  203.5820  151.6670 C   0  0  0  0  0  0  0  0  0  0  0  0
  162.7730  211.8690  147.1140 C   0  0  0  0  0  3  0  0  0  0  0  0
  162.8810  213.0420  146.1720 C   0  0  0  0  0  2  0  0  0  0  0  0
  162.1090  213.3580  148.9990 C   0  0  2  0  0  3  0  0  0  0  0  0
  161.8820  214.4530  147.9640 C   0  0  0  0  0  2  0  0  0  0  0  0
  161.2500  209.7390  148.6080 C   0  0  0  0  0  2  0  0  0  0  0  0
  162.9840  214.3720  146.9150 C   0  0  0  0  0  2  0  0  0  0  0  0
  160.9920  209.7680  155.1990 C   0  0  0  0  0  3  0  0  0  0  0  0
  162.3230  211.9870  148.3780 C   0  0  0  0  0  0  0  0  0  0  0  0
  161.6250  207.1460  154.4680 C   0  0  0  0  0  0  0  0  0  0  0  0
  162.1780  210.3620  151.6610 C   0  0  0  0  0  3  0  0  0  0  0  0
  161.9230  208.2040  153.6010 C   0  0  0  0  0  3  0  0  0  0  0  0
  160.8380  212.2750  150.8160 C   0  0  0  0  0  0  0  0  0  0  0  0
  160.0420  205.7450  151.2410 C   0  0  0  0  0  2  0  0  0  0  0  0
  160.9950  213.3250  149.9980 C   0  0  0  0  0  3  0  0  0  0  0  0
  160.6710  207.6270  149.8590 N   0  0  0  0  0  0  0  0  0  0  0  0
  161.5950  208.3610  149.0520 C   0  0  0  0  0  0  0  0  0  0  0  0
  160.6920  208.7130  156.0630 C   0  0  0  0  0  3  0  0  0  0  0  0
  160.7400  204.8290  152.1350 N   0  0  0  0  0  0  0  0  0  0  0  0
  161.5980  209.5220  153.9610 C   0  0  0  0  0  0  0  0  0  0  0  0
  162.2020  210.7500  149.2450 C   0  0  1  0  0  3  0  0  0  0  0  0
  161.7300  211.0970  150.6370 C   0  0  0  0  0  0  0  0  0  0  0  0
  160.6380  205.0810  153.5660 C   0  0  0  0  0  2  0  0  0  0  0  0
  161.9130  205.7400  154.0670 C   0  0  0  0  0  2  0  0  0  0  0  0
  161.0050  207.4040  155.6970 C   0  0  0  0  0  3  0  0  0  0  0  0
  159.2510  213.4710  152.3620 C   0  0  0  0  0  2  0  0  0  0  0  0
  157.7620  212.0530  153.7790 C   0  0  2  0  0  3  0  0  0  0  0  0
  158.8570  211.0690  151.7490 C   0  0  0  0  0  2  0  0  0  0  0  0
  158.3620  210.7900  153.1650 C   0  0  0  0  0  2  0  0  0  0  0  0
  158.7900  213.1810  153.7850 C   0  0  0  0  0  2  0  0  0  0  0  0
  159.7360  212.2390  151.7380 N   0  0  0  0  0  0  0  0  0  0  0  0
  157.2770  211.7890  155.1650 C   0  0  0  0  0  0  0  0  0  0  0  0
  156.0720  211.9920  155.4770 O   0  0  0  0  0  0  0  0  0  0  0  0
  158.1780  211.2690  156.1370 N   0  0  0  0  0  1  0  0  0  0  0  0
  161.8830  203.3970  149.9770 S   0  0  0  0  0  0  0  0  0  0  0  0
  160.8550  201.9350  149.5440 C   0  0  2  0  0  0  0  0  0  0  0  0
  159.6280  201.9410  150.4420 C   0  0  0  0  0  1  0  0  0  0  0  0
  161.5510  200.7220  149.7470 O   0  0  0  0  0  0  0  0  0  0  0  0
  161.6310  200.1130  148.5780 O   0  0  0  0  0  1  0  0  0  0  0  0
  160.3870  202.0920  148.0880 C   0  0  0  0  0  2  0  0  0  0  0  0
  160.5110  204.4410  147.6150 O   0  0  0  0  0  1  0  0  0  0  0  0
  161.1150  203.2120  147.3340 C   0  0  2  0  0  3  0  0  0  0  0  0
  161.1810  202.9650  145.8120 C   0  0  1  0  0  0  0  0  0  0  0  0
  162.5640  203.3350  145.2920 C   0  0  0  0  0  1  0  0  0  0  0  0
  160.9110  201.5180  145.5050 C   0  0  0  0  0  3  0  0  0  0  0  0
  159.8520  201.1600  145.0090 O   0  0  0  0  0  0  0  0  0  0  0  0
  160.1330  203.8230  145.0990 C   0  0  0  0  0  2  0  0  0  0  0  0
  160.6650  204.4300  143.9230 O   0  0  0  0  0  0  0  0  0  0  0  0
  161.0820  205.7650  143.8720 C   0  0  0  0  0  0  0  0  0  0  0  0
  160.9320  206.6160  145.0810 C   0  0  0  0  0  1  0  0  0  0  0  0
  161.6050  206.2980  142.7720 C   0  0  0  0  0  2  0  0  0  0  0  0
  1 24  1  0  0  0  0
  2 18  1  0  0  0  0
  3 21  2  0  0  0  0
  5 23  1  0  0  0  0
  5  4  2  0  0  0  0
  6 13  2  0  0  0  0
  7 11  1  0  0  0  0
  7  6  1  0  0  0  0
  8  9  1  6  0  0  0
  8 19  1  0  0  0  0
 10 21  1  0  0  0  0
 11  9  1  0  0  0  0
 12 22  1  0  0  0  0
 13  8  1  0  0  0  0
 13 25  1  0  0  0  0
 14 29  1  0  0  0  0
 15  1  1  0  0  0  0
 16 24  1  0  0  0  0
 16 14  2  0  0  0  0
 17 35  1  0  0  0  0
 18 23  1  0  0  0  0
 19 17  2  0  0  0  0
 20  2  2  0  0  0  0
 21 20  1  0  0  0  0
 23 27  1  0  0  0  0
 24 12  2  0  0  0  0
 25 10  1  6  0  0  0
 25 26  1  0  0  0  0
 26 17  1  0  0  0  0
 26 15  2  0  0  0  0
 27 28  1  0  0  0  0
 28 14  1  0  0  0  0
 29 22  2  0  0  0  0
 30 34  1  0  0  0  0
 31 34  1  0  0  0  0
 31 36  1  1  0  0  0
 32 33  1  0  0  0  0
 33 31  1  0  0  0  0
 35 32  1  0  0  0  0
 35 30  1  0  0  0  0
 36 37  2  0  0  0  0
 36 38  1  0  0  0  0
 39  5  1  0  0  0  0
 40 42  1  0  0  0  0
 40 39  1  0  0  0  0
 40 41  1  1  0  0  0
 43 42  1  0  0  0  0
 44 40  1  0  0  0  0
 46 45  1  6  0  0  0
 46 44  1  0  0  0  0
 47 48  1  6  0  0  0
 47 46  1  0  0  0  0
 49 47  1  0  0  0  0
 50 49  2  0  0  0  0
 51 47  1  0  0  0  0
 52 51  1  0  0  0  0
 53 52  1  0  0  0  0
 53 54  1  0  0  0  0
 55 53  2  0  0  0  0
M  END
>  <MODEL>
2

>  <REMARK>
 VINA RESULT:       0.7      0.802      1.848
  Name = 
  12 active torsions:
  status: ('A' for Active; 'I' for Inactive)
    1  A    between atoms: C_1  and  O_53
    2  A    between atoms: O_6  and  C_20
    3  A    between atoms: C_8  and  S_22
    4  A    between atoms: C_10  and  C_32
    5  A    between atoms: C_11  and  C_29
    6  A    between atoms: C_12  and  C_14
    7  A    between atoms: C_12  and  C_20
    8  A    between atoms: C_14  and  C_29
    9  A    between atoms: C_20  and  S_22
   10  A    between atoms: C_29  and  C_38
   11  A    between atoms: C_33  and  N_52
   12  A    between atoms: C_38  and  O_53
                            x       y       z     vdW  Elec       q    Type
                         _______ _______ _______ _____ _____    ______ ____

>  <TORSDO>
F 12

$$$$
