=
 OpenBabel11052422583D

 28 32  0  0  1  0  0  0  0  0999 V2000
  161.9370  209.2400  150.3190 C   0  0  0  0  0  0  0  0  0  0  0  0
  161.4580  205.0340  147.5730 C   0  0  0  0  0  3  0  0  0  0  0  0
  160.9960  205.8590  153.5010 O   0  0  0  0  0  0  0  0  0  0  0  0
  160.9820  203.3430  149.2510 C   0  0  0  0  0  0  0  0  0  0  0  0
  161.3300  205.6480  149.9390 C   0  0  0  0  0  0  0  0  0  0  0  0
  161.1070  202.7280  146.9130 C   0  0  0  0  0  0  0  0  0  0  0  0
  161.2600  204.6880  148.9170 C   0  0  0  0  0  0  0  0  0  0  0  0
  160.8520  203.9390  151.5600 N   0  0  0  0  0  0  0  0  0  0  0  0
  160.9060  202.3710  148.2500 C   0  0  0  0  0  3  0  0  0  0  0  0
  161.4560  207.5380  151.9810 C   0  0  0  0  0  0  0  0  0  0  0  0
  161.5960  206.9530  149.6580 N   0  0  0  0  0  2  0  0  0  0  0  0
  160.7810  202.9930  150.5870 C   0  0  0  0  0  3  0  0  0  0  0  0
  161.7760  209.7910  152.6650 C   0  0  0  0  0  3  0  0  0  0  0  0
  161.1830  206.2010  152.3010 C   0  0  0  0  0  0  0  0  0  0  0  0
  161.5180  208.4890  152.9550 N   0  0  0  0  0  0  0  0  0  0  0  0
  161.0320  201.7620  145.9200 O   0  0  0  0  0  1  0  0  0  0  0  0
  161.3820  204.0570  146.5760 C   0  0  0  0  0  3  0  0  0  0  0  0
  161.1180  205.2450  151.2760 C   0  0  0  0  0  0  0  0  0  0  0  0
  161.9860  210.1900  151.3430 C   0  0  0  0  0  3  0  0  0  0  0  0
  161.6640  207.9000  150.6330 C   0  0  0  0  0  0  0  0  0  0  0  0
  162.1430  209.6820  148.9070 C   0  0  0  0  0  2  0  0  0  0  0  0
  161.7620  211.0780  148.7620 N   0  0  0  0  0  0  0  0  0  0  0  0
  162.2410  212.9610  146.4890 C   0  0  1  0  0  3  0  0  0  0  0  0
  163.0050  211.8640  148.6340 C   0  0  0  0  0  2  0  0  0  0  0  0
  160.8770  211.1610  147.5900 C   0  0  0  0  0  2  0  0  0  0  0  0
  160.8540  212.5710  147.0070 C   0  0  0  0  0  2  0  0  0  0  0  0
  162.4410  214.4530  146.6530 C   0  0  0  0  0  1  0  0  0  0  0  0
  163.3710  212.1960  147.1830 C   0  0  0  0  0  2  0  0  0  0  0  0
  1 20  2  0  0  0  0
  1 19  1  0  0  0  0
  2  7  1  0  0  0  0
  4 12  1  0  0  0  0
  5 18  2  0  0  0  0
  6  9  2  0  0  0  0
  7  4  2  0  0  0  0
  7  5  1  0  0  0  0
  9  4  1  0  0  0  0
 10 14  1  0  0  0  0
 10 15  2  0  0  0  0
 11  5  1  0  0  0  0
 11 20  1  0  0  0  0
 12  8  2  0  0  0  0
 13 15  1  0  0  0  0
 14  3  2  0  0  0  0
 16  6  1  0  0  0  0
 17  6  1  0  0  0  0
 17  2  2  0  0  0  0
 18  8  1  0  0  0  0
 18 14  1  0  0  0  0
 19 13  2  0  0  0  0
 20 10  1  0  0  0  0
 21  1  1  0  0  0  0
 22 21  1  0  0  0  0
 23 27  1  1  0  0  0
 23 26  1  0  0  0  0
 23 28  1  0  0  0  0
 24 22  1  0  0  0  0
 25 22  1  0  0  0  0
 26 25  1  0  0  0  0
 28 24  1  0  0  0  0
M  END
>  <MODEL>
1

>  <REMARK>
 VINA RESULT:      -8.9      0.000      0.000
  Name = 
  2 active torsions:
  status: ('A' for Active; 'I' for Inactive)
    1  A    between atoms: C_1  and  C_2
    2  A    between atoms: C_2  and  N_3
                            x       y       z     vdW  Elec       q    Type
                         _______ _______ _______ _____ _____    ______ ____

>  <TORSDO>
F 2

$$$$
=
 OpenBabel11052422583D

 28 32  0  0  1  0  0  0  0  0999 V2000
  161.1030  207.8670  152.3810 C   0  0  0  0  0  0  0  0  0  0  0  0
  161.2490  206.5110  147.5220 C   0  0  0  0  0  3  0  0  0  0  0  0
  161.0610  203.1310  152.4800 O   0  0  0  0  0  0  0  0  0  0  0  0
  161.2290  204.0840  147.6360 C   0  0  0  0  0  0  0  0  0  0  0  0
  161.1740  205.3800  149.6920 C   0  0  0  0  0  0  0  0  0  0  0  0
  161.3030  205.1950  145.4870 C   0  0  0  0  0  0  0  0  0  0  0  0
  161.2180  205.3370  148.2890 C   0  0  0  0  0  0  0  0  0  0  0  0
  161.1520  202.9770  149.7510 N   0  0  0  0  0  0  0  0  0  0  0  0
  161.2710  204.0180  146.2410 C   0  0  0  0  0  3  0  0  0  0  0  0
  161.0800  205.4420  152.4750 C   0  0  0  0  0  0  0  0  0  0  0  0
  161.1630  206.5680  150.3570 N   0  0  0  0  0  2  0  0  0  0  0  0
  161.1950  202.9130  148.3950 C   0  0  0  0  0  3  0  0  0  0  0  0
  161.0080  206.6980  154.4910 C   0  0  0  0  0  3  0  0  0  0  0  0
  161.0930  204.2040  151.8170 C   0  0  0  0  0  0  0  0  0  0  0  0
  161.0270  205.5080  153.8350 N   0  0  0  0  0  0  0  0  0  0  0  0
  161.3450  205.1280  144.1010 O   0  0  0  0  0  1  0  0  0  0  0  0
  161.2920  206.4380  146.1270 C   0  0  0  0  0  3  0  0  0  0  0  0
  161.1400  204.1670  150.4160 C   0  0  0  0  0  0  0  0  0  0  0  0
  161.0430  207.8970  153.7760 C   0  0  0  0  0  3  0  0  0  0  0  0
  161.1170  206.6310  151.7160 C   0  0  0  0  0  0  0  0  0  0  0  0
  161.1190  209.1560  151.6260 C   0  0  0  0  0  2  0  0  0  0  0  0
  160.7740  210.2560  152.5130 N   0  0  0  0  0  0  0  0  0  0  0  0
  158.8120  212.4780  152.1230 C   0  0  1  0  0  3  0  0  0  0  0  0
  161.1270  211.5100  151.8190 C   0  0  0  0  0  2  0  0  0  0  0  0
  159.3420  210.1240  152.8210 C   0  0  0  0  0  2  0  0  0  0  0  0
  158.7400  211.4550  153.2600 C   0  0  0  0  0  2  0  0  0  0  0  0
  158.9800  213.8670  152.7030 C   0  0  0  0  0  1  0  0  0  0  0  0
  159.9360  212.1820  151.1260 C   0  0  0  0  0  2  0  0  0  0  0  0
  1 19  1  0  0  0  0
  2  7  1  0  0  0  0
  4  7  2  0  0  0  0
  4 12  1  0  0  0  0
  5 11  1  0  0  0  0
  5 18  2  0  0  0  0
  6 17  1  0  0  0  0
  6  9  2  0  0  0  0
  7  5  1  0  0  0  0
  8 18  1  0  0  0  0
  9  4  1  0  0  0  0
 10 15  2  0  0  0  0
 11 20  1  0  0  0  0
 12  8  2  0  0  0  0
 14 10  1  0  0  0  0
 14  3  2  0  0  0  0
 15 13  1  0  0  0  0
 16  6  1  0  0  0  0
 17  2  2  0  0  0  0
 18 14  1  0  0  0  0
 19 13  2  0  0  0  0
 20  1  2  0  0  0  0
 20 10  1  0  0  0  0
 21  1  1  0  0  0  0
 21 22  1  0  0  0  0
 22 25  1  0  0  0  0
 23 27  1  1  0  0  0
 23 26  1  0  0  0  0
 24 22  1  0  0  0  0
 25 26  1  0  0  0  0
 28 24  1  0  0  0  0
 28 23  1  0  0  0  0
M  END
>  <MODEL>
2

>  <REMARK>
 VINA RESULT:      -8.1      2.718      3.539
  Name = 
  2 active torsions:
  status: ('A' for Active; 'I' for Inactive)
    1  A    between atoms: C_1  and  C_2
    2  A    between atoms: C_2  and  N_3
                            x       y       z     vdW  Elec       q    Type
                         _______ _______ _______ _____ _____    ______ ____

>  <TORSDO>
F 2

$$$$
=
 OpenBabel11052422583D

 28 32  0  0  1  0  0  0  0  0999 V2000
  161.9300  210.0600  151.2040 C   0  0  0  0  0  0  0  0  0  0  0  0
  162.0300  206.6190  147.5150 C   0  0  0  0  0  3  0  0  0  0  0  0
  160.6450  206.0250  153.3260 O   0  0  0  0  0  0  0  0  0  0  0  0
  161.3680  204.5800  148.6590 C   0  0  0  0  0  0  0  0  0  0  0  0
  161.5220  206.6590  149.9090 C   0  0  0  0  0  0  0  0  0  0  0  0
  161.8690  204.5330  146.2900 C   0  0  0  0  0  0  0  0  0  0  0  0
  161.6440  205.9650  148.6940 C   0  0  0  0  0  0  0  0  0  0  0  0
  160.8690  204.6150  150.9940 N   0  0  0  0  0  0  0  0  0  0  0  0
  161.4820  203.8710  147.4600 C   0  0  0  0  0  3  0  0  0  0  0  0
  161.2670  208.0140  152.3290 C   0  0  0  0  0  0  0  0  0  0  0  0
  161.7790  207.9930  149.9840 N   0  0  0  0  0  2  0  0  0  0  0  0
  160.9810  203.9250  149.8280 C   0  0  0  0  0  3  0  0  0  0  0  0
  161.3960  210.0430  153.5590 C   0  0  0  0  0  3  0  0  0  0  0  0
  160.9990  206.6390  152.2820 C   0  0  0  0  0  0  0  0  0  0  0  0
  161.1460  208.7090  153.4950 N   0  0  0  0  0  0  0  0  0  0  0  0
  161.9810  203.8280  145.1000 O   0  0  0  0  0  1  0  0  0  0  0  0
  162.1420  205.9040  146.3190 C   0  0  0  0  0  3  0  0  0  0  0  0
  161.1250  205.9520  151.0660 C   0  0  0  0  0  0  0  0  0  0  0  0
  161.7890  210.7420  152.4150 C   0  0  0  0  0  3  0  0  0  0  0  0
  161.6630  208.6830  151.1510 C   0  0  0  0  0  0  0  0  0  0  0  0
  162.3310  210.8230  149.9830 C   0  0  0  0  0  2  0  0  0  0  0  0
  161.1490  211.3130  149.2920 N   0  0  0  0  0  0  0  0  0  0  0  0
  160.8610  213.6060  147.3950 C   0  0  1  0  0  3  0  0  0  0  0  0
  160.9090  212.6950  149.7520 C   0  0  0  0  0  2  0  0  0  0  0  0
  161.4180  211.1990  147.8510 C   0  0  0  0  0  2  0  0  0  0  0  0
  160.5410  212.1500  147.0420 C   0  0  0  0  0  2  0  0  0  0  0  0
  159.6060  214.4450  147.2650 C   0  0  0  0  0  1  0  0  0  0  0  0
  161.4580  213.7600  148.7970 C   0  0  0  0  0  2  0  0  0  0  0  0
  1 19  1  0  0  0  0
  2  7  1  0  0  0  0
  4  7  2  0  0  0  0
  4 12  1  0  0  0  0
  5 11  1  0  0  0  0
  5 18  2  0  0  0  0
  6 17  1  0  0  0  0
  6  9  2  0  0  0  0
  7  5  1  0  0  0  0
  8 18  1  0  0  0  0
  9  4  1  0  0  0  0
 10 15  2  0  0  0  0
 11 20  1  0  0  0  0
 12  8  2  0  0  0  0
 14 10  1  0  0  0  0
 14  3  2  0  0  0  0
 15 13  1  0  0  0  0
 16  6  1  0  0  0  0
 17  2  2  0  0  0  0
 18 14  1  0  0  0  0
 19 13  2  0  0  0  0
 20  1  2  0  0  0  0
 20 10  1  0  0  0  0
 21  1  1  0  0  0  0
 22 24  1  0  0  0  0
 22 21  1  0  0  0  0
 23 27  1  1  0  0  0
 23 28  1  0  0  0  0
 25 22  1  0  0  0  0
 26 23  1  0  0  0  0
 26 25  1  0  0  0  0
 28 24  1  0  0  0  0
M  END
>  <MODEL>
3

>  <REMARK>
 VINA RESULT:      -8.1      1.261      1.531
  Name = 
  2 active torsions:
  status: ('A' for Active; 'I' for Inactive)
    1  A    between atoms: C_1  and  C_2
    2  A    between atoms: C_2  and  N_3
                            x       y       z     vdW  Elec       q    Type
                         _______ _______ _______ _____ _____    ______ ____

>  <TORSDO>
F 2

$$$$
=
 OpenBabel11052422583D

 28 32  0  0  1  0  0  0  0  0999 V2000
  161.2670  205.9540  151.6530 C   0  0  0  0  0  0  0  0  0  0  0  0
  161.4160  205.9970  146.6090 C   0  0  0  0  0  3  0  0  0  0  0  0
  160.7810  201.4050  150.4230 O   0  0  0  0  0  0  0  0  0  0  0  0
  161.1660  203.6480  146.0400 C   0  0  0  0  0  0  0  0  0  0  0  0
  161.1780  204.3200  148.3770 C   0  0  0  0  0  0  0  0  0  0  0  0
  161.4010  205.3020  144.2870 C   0  0  0  0  0  0  0  0  0  0  0  0
  161.2550  204.6650  147.0170 C   0  0  0  0  0  0  0  0  0  0  0  0
  160.9300  202.0090  147.7610 N   0  0  0  0  0  0  0  0  0  0  0  0
  161.2390  203.9700  144.6820 C   0  0  0  0  0  3  0  0  0  0  0  0
  161.0150  203.6120  151.0660 C   0  0  0  0  0  0  0  0  0  0  0  0
  161.2590  205.2710  149.3470 N   0  0  0  0  0  2  0  0  0  0  0  0
  161.0030  202.3220  146.4400 C   0  0  0  0  0  3  0  0  0  0  0  0
  161.0060  204.2580  153.3520 C   0  0  0  0  0  3  0  0  0  0  0  0
  160.9300  202.6120  150.0870 C   0  0  0  0  0  0  0  0  0  0  0  0
  160.9320  203.3020  152.3890 N   0  0  0  0  0  0  0  0  0  0  0  0
  161.4730  205.6200  142.9380 O   0  0  0  0  0  1  0  0  0  0  0  0
  161.4880  206.3130  145.2490 C   0  0  0  0  0  3  0  0  0  0  0  0
  161.0110  202.9630  148.7320 C   0  0  0  0  0  0  0  0  0  0  0  0
  161.1710  205.6000  153.0010 C   0  0  0  0  0  3  0  0  0  0  0  0
  161.1830  204.9560  150.6690 C   0  0  0  0  0  0  0  0  0  0  0  0
  161.4230  207.3950  151.2900 C   0  0  0  0  0  2  0  0  0  0  0  0
  161.7280  208.1770  152.4770 N   0  0  0  0  0  0  0  0  0  0  0  0
  160.1910  210.4130  153.7350 C   0  0  1  0  0  3  0  0  0  0  0  0
  161.8850  209.5820  152.0520 C   0  0  0  0  0  2  0  0  0  0  0  0
  160.6270  207.9580  153.4280 C   0  0  0  0  0  2  0  0  0  0  0  0
  160.5280  209.0950  154.4390 C   0  0  0  0  0  2  0  0  0  0  0  0
  160.8310  211.5640  154.4830 C   0  0  0  0  0  1  0  0  0  0  0  0
  160.6260  210.4300  152.2670 C   0  0  0  0  0  2  0  0  0  0  0  0
  1 19  1  0  0  0  0
  2  7  1  0  0  0  0
  4 12  2  0  0  0  0
  4  7  1  0  0  0  0
  5 18  1  0  0  0  0
  5 11  1  0  0  0  0
  6  9  2  0  0  0  0
  6 17  1  0  0  0  0
  7  5  2  0  0  0  0
  8 18  2  0  0  0  0
  9  4  1  0  0  0  0
 10 15  2  0  0  0  0
 11 20  1  0  0  0  0
 12  8  1  0  0  0  0
 14  3  2  0  0  0  0
 14 10  1  0  0  0  0
 15 13  1  0  0  0  0
 16  6  1  0  0  0  0
 17  2  2  0  0  0  0
 18 14  1  0  0  0  0
 19 13  2  0  0  0  0
 20 10  1  0  0  0  0
 20  1  2  0  0  0  0
 21  1  1  0  0  0  0
 21 22  1  0  0  0  0
 22 25  1  0  0  0  0
 23 26  1  0  0  0  0
 23 27  1  1  0  0  0
 24 28  1  0  0  0  0
 24 22  1  0  0  0  0
 25 26  1  0  0  0  0
 28 23  1  0  0  0  0
M  END
>  <MODEL>
4

>  <REMARK>
 VINA RESULT:      -7.9      3.254      4.764
  Name = 
  2 active torsions:
  status: ('A' for Active; 'I' for Inactive)
    1  A    between atoms: C_1  and  C_2
    2  A    between atoms: C_2  and  N_3
                            x       y       z     vdW  Elec       q    Type
                         _______ _______ _______ _____ _____    ______ ____

>  <TORSDO>
F 2

$$$$
=
 OpenBabel11052422583D

 28 32  0  0  1  0  0  0  0  0999 V2000
  161.1240  209.2020  152.8000 C   0  0  0  0  0  0  0  0  0  0  0  0
  161.1820  207.1400  148.1940 C   0  0  0  0  0  3  0  0  0  0  0  0
  161.1630  204.5340  153.6020 O   0  0  0  0  0  0  0  0  0  0  0  0
  161.2040  204.7570  148.6690 C   0  0  0  0  0  0  0  0  0  0  0  0
  161.1750  206.3450  150.5100 C   0  0  0  0  0  0  0  0  0  0  0  0
  161.2100  205.5370  146.3770 C   0  0  0  0  0  0  0  0  0  0  0  0
  161.1870  206.0940  149.1280 C   0  0  0  0  0  0  0  0  0  0  0  0
  161.1940  203.9770  150.9260 N   0  0  0  0  0  0  0  0  0  0  0  0
  161.2150  204.4850  147.2980 C   0  0  0  0  0  3  0  0  0  0  0  0
  161.1430  206.8180  153.2540 C   0  0  0  0  0  0  0  0  0  0  0  0
  161.1590  207.6180  150.9910 N   0  0  0  0  0  2  0  0  0  0  0  0
  161.2070  203.7120  149.5930 C   0  0  0  0  0  3  0  0  0  0  0  0
  161.0960  208.3590  155.0620 C   0  0  0  0  0  3  0  0  0  0  0  0
  161.1620  205.4970  152.7870 C   0  0  0  0  0  0  0  0  0  0  0  0
  161.1210  207.0850  154.5900 N   0  0  0  0  0  0  0  0  0  0  0  0
  161.2220  205.2650  145.0160 O   0  0  0  0  0  1  0  0  0  0  0  0
  161.1930  206.8620  146.8250 C   0  0  0  0  0  3  0  0  0  0  0  0
  161.1770  205.2520  151.4060 C   0  0  0  0  0  0  0  0  0  0  0  0
  161.0950  209.4390  154.1770 C   0  0  0  0  0  3  0  0  0  0  0  0
  161.1430  207.8810  152.3260 C   0  0  0  0  0  0  0  0  0  0  0  0
  161.1020  210.3650  151.8620 C   0  0  0  0  0  2  0  0  0  0  0  0
  160.4460  211.5000  152.4930 N   0  0  0  0  0  0  0  0  0  0  0  0
  157.9790  212.9760  151.6720 C   0  0  1  0  0  3  0  0  0  0  0  0
  160.4780  212.6190  151.5310 C   0  0  0  0  0  2  0  0  0  0  0  0
  159.0910  211.0620  152.8590 C   0  0  0  0  0  2  0  0  0  0  0  0
  158.1420  212.2470  153.0080 C   0  0  0  0  0  2  0  0  0  0  0  0
  157.7520  214.4530  151.9260 C   0  0  0  0  0  1  0  0  0  0  0  0
  159.1760  212.7790  150.7370 C   0  0  0  0  0  2  0  0  0  0  0  0
  1 19  1  0  0  0  0
  2  7  1  0  0  0  0
  4  7  2  0  0  0  0
  4 12  1  0  0  0  0
  5 11  1  0  0  0  0
  5 18  2  0  0  0  0
  6 17  1  0  0  0  0
  6  9  2  0  0  0  0
  7  5  1  0  0  0  0
  8 18  1  0  0  0  0
  9  4  1  0  0  0  0
 10 15  2  0  0  0  0
 11 20  1  0  0  0  0
 12  8  2  0  0  0  0
 14 10  1  0  0  0  0
 14  3  2  0  0  0  0
 15 13  1  0  0  0  0
 16  6  1  0  0  0  0
 17  2  2  0  0  0  0
 18 14  1  0  0  0  0
 19 13  2  0  0  0  0
 20  1  2  0  0  0  0
 20 10  1  0  0  0  0
 21 22  1  0  0  0  0
 21  1  1  0  0  0  0
 22 25  1  0  0  0  0
 23 27  1  1  0  0  0
 23 26  1  0  0  0  0
 24 22  1  0  0  0  0
 25 26  1  0  0  0  0
 28 24  1  0  0  0  0
 28 23  1  0  0  0  0
M  END
>  <MODEL>
5

>  <REMARK>
 VINA RESULT:      -7.9      2.672      3.423
  Name = 
  2 active torsions:
  status: ('A' for Active; 'I' for Inactive)
    1  A    between atoms: C_1  and  C_2
    2  A    between atoms: C_2  and  N_3
                            x       y       z     vdW  Elec       q    Type
                         _______ _______ _______ _____ _____    ______ ____

>  <TORSDO>
F 2

$$$$
=
 OpenBabel11052422583D

 28 32  0  0  1  0  0  0  0  0999 V2000
  160.2000  211.1140  152.6650 C   0  0  0  0  0  0  0  0  0  0  0  0
  160.7310  206.9840  149.8140 C   0  0  0  0  0  3  0  0  0  0  0  0
  161.3530  207.7020  155.7420 O   0  0  0  0  0  0  0  0  0  0  0  0
  161.3220  205.2770  151.4400 C   0  0  0  0  0  0  0  0  0  0  0  0
  160.9230  207.5560  152.1870 C   0  0  0  0  0  0  0  0  0  0  0  0
  161.1350  204.7050  149.0950 C   0  0  0  0  0  0  0  0  0  0  0  0
  160.9900  206.6190  151.1430 C   0  0  0  0  0  0  0  0  0  0  0  0
  161.5070  205.8300  153.7560 N   0  0  0  0  0  0  0  0  0  0  0  0
  161.3930  204.3280  150.4160 C   0  0  0  0  0  3  0  0  0  0  0  0
  160.7880  209.3950  154.2750 C   0  0  0  0  0  0  0  0  0  0  0  0
  160.6060  208.8570  151.9430 N   0  0  0  0  0  2  0  0  0  0  0  0
  161.5770  204.9070  152.7610 C   0  0  0  0  0  3  0  0  0  0  0  0
  160.3810  211.6140  155.0210 C   0  0  0  0  0  3  0  0  0  0  0  0
  161.1200  208.0620  154.5560 C   0  0  0  0  0  0  0  0  0  0  0  0
  160.7070  210.3190  155.2730 N   0  0  0  0  0  0  0  0  0  0  0  0
  161.2060  203.7620  148.0790 O   0  0  0  0  0  1  0  0  0  0  0  0
  160.8040  206.0310  148.7950 C   0  0  0  0  0  3  0  0  0  0  0  0
  161.1880  207.1320  153.5090 C   0  0  0  0  0  0  0  0  0  0  0  0
  160.1200  212.0330  153.7140 C   0  0  0  0  0  3  0  0  0  0  0  0
  160.5320  209.7790  152.9410 C   0  0  0  0  0  0  0  0  0  0  0  0
  159.8980  211.5700  151.2750 C   0  0  0  0  0  2  0  0  0  0  0  0
  161.0430  212.2780  150.7240 N   0  0  0  0  0  0  0  0  0  0  0  0
  162.0100  212.4340  147.8990 C   0  0  1  0  0  3  0  0  0  0  0  0
  161.9480  211.2680  150.1410 C   0  0  0  0  0  2  0  0  0  0  0  0
  160.5180  213.2470  149.7490 C   0  0  0  0  0  2  0  0  0  0  0  0
  161.5820  213.6460  148.7310 C   0  0  0  0  0  2  0  0  0  0  0  0
  163.4670  212.5780  147.5100 C   0  0  0  0  0  1  0  0  0  0  0  0
  161.7860  211.1050  148.6250 C   0  0  0  0  0  2  0  0  0  0  0  0
  1 20  2  0  0  0  0
  1 19  1  0  0  0  0
  2  7  1  0  0  0  0
  4 12  1  0  0  0  0
  5 18  2  0  0  0  0
  6  9  2  0  0  0  0
  7  4  2  0  0  0  0
  7  5  1  0  0  0  0
  9  4  1  0  0  0  0
 10 14  1  0  0  0  0
 10 15  2  0  0  0  0
 11  5  1  0  0  0  0
 11 20  1  0  0  0  0
 12  8  2  0  0  0  0
 13 15  1  0  0  0  0
 14  3  2  0  0  0  0
 16  6  1  0  0  0  0
 17  6  1  0  0  0  0
 17  2  2  0  0  0  0
 18  8  1  0  0  0  0
 18 14  1  0  0  0  0
 19 13  2  0  0  0  0
 20 10  1  0  0  0  0
 21  1  1  0  0  0  0
 22 21  1  0  0  0  0
 23 27  1  1  0  0  0
 23 28  1  0  0  0  0
 23 26  1  0  0  0  0
 24 22  1  0  0  0  0
 25 22  1  0  0  0  0
 26 25  1  0  0  0  0
 28 24  1  0  0  0  0
M  END
>  <MODEL>
6

>  <REMARK>
 VINA RESULT:      -7.8      2.035      2.923
  Name = 
  2 active torsions:
  status: ('A' for Active; 'I' for Inactive)
    1  A    between atoms: C_1  and  C_2
    2  A    between atoms: C_2  and  N_3
                            x       y       z     vdW  Elec       q    Type
                         _______ _______ _______ _____ _____    ______ ____

>  <TORSDO>
F 2

$$$$
=
 OpenBabel11052422583D

 28 32  0  0  1  0  0  0  0  0999 V2000
  160.5540  211.0070  153.6500 C   0  0  0  0  0  0  0  0  0  0  0  0
  160.9850  207.5600  149.9890 C   0  0  0  0  0  3  0  0  0  0  0  0
  160.9420  206.8870  155.9540 O   0  0  0  0  0  0  0  0  0  0  0  0
  161.1830  205.4780  151.2260 C   0  0  0  0  0  0  0  0  0  0  0  0
  160.9420  207.5730  152.4370 C   0  0  0  0  0  0  0  0  0  0  0  0
  161.2270  205.4580  148.8060 C   0  0  0  0  0  0  0  0  0  0  0  0
  161.0360  206.8840  151.2170 C   0  0  0  0  0  0  0  0  0  0  0  0
  161.1380  205.4860  153.6140 N   0  0  0  0  0  0  0  0  0  0  0  0
  161.2780  204.7730  150.0240 C   0  0  0  0  0  3  0  0  0  0  0  0
  160.7490  208.9170  154.8690 C   0  0  0  0  0  0  0  0  0  0  0  0
  160.8000  208.9260  152.4690 N   0  0  0  0  0  2  0  0  0  0  0  0
  161.2320  204.8000  152.4450 C   0  0  0  0  0  3  0  0  0  0  0  0
  160.4950  210.9550  156.0630 C   0  0  0  0  0  3  0  0  0  0  0  0
  160.8980  207.5230  154.8660 C   0  0  0  0  0  0  0  0  0  0  0  0
  160.6460  209.6050  156.0400 N   0  0  0  0  0  0  0  0  0  0  0  0
  161.3210  204.7560  147.6120 O   0  0  0  0  0  1  0  0  0  0  0  0
  161.0800  206.8490  148.7900 C   0  0  0  0  0  3  0  0  0  0  0  0
  160.9950  206.8410  153.6440 C   0  0  0  0  0  0  0  0  0  0  0  0
  160.4440  211.6790  154.8700 C   0  0  0  0  0  3  0  0  0  0  0  0
  160.7030  209.6110  153.6410 C   0  0  0  0  0  0  0  0  0  0  0  0
  160.4760  211.7890  152.3790 C   0  0  0  0  0  2  0  0  0  0  0  0
  159.0890  211.9310  151.9660 N   0  0  0  0  0  0  0  0  0  0  0  0
  157.3450  214.3590  151.9390 C   0  0  1  0  0  3  0  0  0  0  0  0
  158.3180  212.3630  153.1480 C   0  0  0  0  0  2  0  0  0  0  0  0
  159.0710  212.8920  150.8530 C   0  0  0  0  0  2  0  0  0  0  0  0
  157.6970  213.5380  150.6960 C   0  0  0  0  0  2  0  0  0  0  0  0
  155.8460  214.3270  152.1580 C   0  0  0  0  0  1  0  0  0  0  0  0
  158.0730  213.8760  153.1970 C   0  0  0  0  0  2  0  0  0  0  0  0
  1 19  1  0  0  0  0
  2  7  1  0  0  0  0
  4 12  1  0  0  0  0
  5 11  1  0  0  0  0
  5 18  2  0  0  0  0
  6  9  2  0  0  0  0
  7  4  2  0  0  0  0
  7  5  1  0  0  0  0
  8 18  1  0  0  0  0
  9  4  1  0  0  0  0
 10 15  2  0  0  0  0
 11 20  1  0  0  0  0
 12  8  2  0  0  0  0
 14 10  1  0  0  0  0
 14  3  2  0  0  0  0
 15 13  1  0  0  0  0
 16  6  1  0  0  0  0
 17  6  1  0  0  0  0
 17  2  2  0  0  0  0
 18 14  1  0  0  0  0
 19 13  2  0  0  0  0
 20  1  2  0  0  0  0
 20 10  1  0  0  0  0
 21  1  1  0  0  0  0
 22 21  1  0  0  0  0
 22 24  1  0  0  0  0
 23 27  1  1  0  0  0
 23 28  1  0  0  0  0
 24 28  1  0  0  0  0
 25 22  1  0  0  0  0
 26 25  1  0  0  0  0
 26 23  1  0  0  0  0
M  END
>  <MODEL>
7

>  <REMARK>
 VINA RESULT:      -7.7      3.288      4.377
  Name = 
  2 active torsions:
  status: ('A' for Active; 'I' for Inactive)
    1  A    between atoms: C_1  and  C_2
    2  A    between atoms: C_2  and  N_3
                            x       y       z     vdW  Elec       q    Type
                         _______ _______ _______ _____ _____    ______ ____

>  <TORSDO>
F 2

$$$$
=
 OpenBabel11052422583D

 28 32  0  0  1  0  0  0  0  0999 V2000
  161.4120  208.8060  151.8610 C   0  0  0  0  0  0  0  0  0  0  0  0
  160.8190  203.8280  151.2800 C   0  0  0  0  0  3  0  0  0  0  0  0
  162.1520  208.0660  147.2410 O   0  0  0  0  0  0  0  0  0  0  0  0
  161.2060  203.5110  148.9020 C   0  0  0  0  0  0  0  0  0  0  0  0
  161.3450  205.7450  149.8500 C   0  0  0  0  0  0  0  0  0  0  0  0
  160.6870  201.6110  150.3090 C   0  0  0  0  0  0  0  0  0  0  0  0
  161.1220  204.3700  150.0220 C   0  0  0  0  0  0  0  0  0  0  0  0
  161.7230  205.3780  147.5050 N   0  0  0  0  0  0  0  0  0  0  0  0
  160.9890  202.1390  149.0500 C   0  0  0  0  0  3  0  0  0  0  0  0
  161.7990  208.4700  149.4890 C   0  0  0  0  0  0  0  0  0  0  0  0
  161.2720  206.6040  150.9040 N   0  0  0  0  0  2  0  0  0  0  0  0
  161.5100  204.0440  147.6480 C   0  0  0  0  0  3  0  0  0  0  0  0
  161.9560  210.6550  150.4070 C   0  0  0  0  0  3  0  0  0  0  0  0
  161.8780  207.6090  148.3850 C   0  0  0  0  0  0  0  0  0  0  0  0
  162.0220  209.8060  149.3480 N   0  0  0  0  0  0  0  0  0  0  0  0
  160.4710  200.2480  150.4550 O   0  0  0  0  0  1  0  0  0  0  0  0
  160.6030  202.4550  151.4210 C   0  0  0  0  0  3  0  0  0  0  0  0
  161.6510  206.2360  148.5610 C   0  0  0  0  0  0  0  0  0  0  0  0
  161.6530  210.1700  151.6810 C   0  0  0  0  0  3  0  0  0  0  0  0
  161.4890  207.9400  150.7590 C   0  0  0  0  0  0  0  0  0  0  0  0
  161.1090  208.2960  153.2320 C   0  0  0  0  0  2  0  0  0  0  0  0
  161.3520  209.3400  154.2160 N   0  0  0  0  0  0  0  0  0  0  0  0
  159.8280  210.0140  156.6980 C   0  0  1  0  0  3  0  0  0  0  0  0
  160.1810  210.2380  154.2050 C   0  0  0  0  0  2  0  0  0  0  0  0
  161.5820  208.6680  155.5040 C   0  0  0  0  0  2  0  0  0  0  0  0
  161.3030  209.6020  156.6780 C   0  0  0  0  0  2  0  0  0  0  0  0
  159.7030  211.4160  157.2600 C   0  0  0  0  0  1  0  0  0  0  0  0
  159.1700  209.9370  155.3180 C   0  0  0  0  0  2  0  0  0  0  0  0
  1 21  1  0  0  0  0
  2 17  1  0  0  0  0
  3 14  2  0  0  0  0
  4  9  2  0  0  0  0
  4  7  1  0  0  0  0
  5  7  1  0  0  0  0
  5 11  1  0  0  0  0
  6 16  1  0  0  0  0
  6 17  2  0  0  0  0
  7  2  2  0  0  0  0
  8 12  2  0  0  0  0
  8 18  1  0  0  0  0
  9  6  1  0  0  0  0
 10 20  1  0  0  0  0
 12  4  1  0  0  0  0
 13 19  2  0  0  0  0
 14 18  1  0  0  0  0
 14 10  1  0  0  0  0
 15 10  2  0  0  0  0
 15 13  1  0  0  0  0
 18  5  2  0  0  0  0
 19  1  1  0  0  0  0
 20 11  1  0  0  0  0
 20  1  2  0  0  0  0
 21 22  1  0  0  0  0
 22 25  1  0  0  0  0
 23 27  1  6  0  0  0
 24 22  1  0  0  0  0
 24 28  1  0  0  0  0
 25 26  1  0  0  0  0
 26 23  1  0  0  0  0
 28 23  1  0  0  0  0
M  END
>  <MODEL>
8

>  <REMARK>
 VINA RESULT:      -7.5      2.641      5.412
  Name = 
  2 active torsions:
  status: ('A' for Active; 'I' for Inactive)
    1  A    between atoms: C_1  and  C_2
    2  A    between atoms: C_2  and  N_3
                            x       y       z     vdW  Elec       q    Type
                         _______ _______ _______ _____ _____    ______ ____

>  <TORSDO>
F 2

$$$$
=
 OpenBabel11052422583D

 28 32  0  0  1  0  0  0  0  0999 V2000
  161.8370  208.5910  148.9430 C   0  0  0  0  0  0  0  0  0  0  0  0
  161.1810  203.5890  149.0630 C   0  0  0  0  0  3  0  0  0  0  0  0
  161.4510  207.5670  153.5520 O   0  0  0  0  0  0  0  0  0  0  0  0
  160.9940  203.1250  151.4410 C   0  0  0  0  0  0  0  0  0  0  0  0
  161.3330  205.4120  150.6910 C   0  0  0  0  0  0  0  0  0  0  0  0
  160.8430  201.3170  149.8380 C   0  0  0  0  0  0  0  0  0  0  0  0
  161.1720  204.0500  150.3880 C   0  0  0  0  0  0  0  0  0  0  0  0
  161.1380  204.9010  153.0320 N   0  0  0  0  0  0  0  0  0  0  0  0
  160.8300  201.7650  151.1620 C   0  0  0  0  0  3  0  0  0  0  0  0
  161.6440  208.1090  151.3140 C   0  0  0  0  0  0  0  0  0  0  0  0
  161.5070  206.3340  149.7040 N   0  0  0  0  0  2  0  0  0  0  0  0
  160.9810  203.5780  152.7610 C   0  0  0  0  0  3  0  0  0  0  0  0
  161.9560  210.3510  150.5920 C   0  0  0  0  0  3  0  0  0  0  0  0
  161.4690  207.1810  152.3510 C   0  0  0  0  0  0  0  0  0  0  0  0
  161.7920  209.4360  151.5830 N   0  0  0  0  0  0  0  0  0  0  0  0
  160.6800  199.9660  149.5620 O   0  0  0  0  0  1  0  0  0  0  0  0
  161.0170  202.2280  148.7910 C   0  0  0  0  0  3  0  0  0  0  0  0
  161.3110  205.8220  152.0420 C   0  0  0  0  0  0  0  0  0  0  0  0
  161.9790  209.9450  149.2560 C   0  0  0  0  0  3  0  0  0  0  0  0
  161.6610  207.6580  149.9770 C   0  0  0  0  0  0  0  0  0  0  0  0
  161.8420  208.1720  147.5090 C   0  0  0  0  0  2  0  0  0  0  0  0
  161.6630  206.7320  147.4110 N   0  0  0  0  0  0  0  0  0  0  0  0
  161.4440  204.9970  144.9860 C   0  0  1  0  0  3  0  0  0  0  0  0
  160.3790  206.4920  146.7240 C   0  0  0  0  0  2  0  0  0  0  0  0
  162.8340  206.2030  146.6950 C   0  0  0  0  0  2  0  0  0  0  0  0
  162.5330  204.8530  146.0530 C   0  0  0  0  0  2  0  0  0  0  0  0
  160.6230  203.7250  144.9270 C   0  0  0  0  0  1  0  0  0  0  0  0
  160.5320  206.2030  145.2270 C   0  0  0  0  0  2  0  0  0  0  0  0
  1 19  2  0  0  0  0
  1 20  1  0  0  0  0
  2  7  1  0  0  0  0
  4 12  1  0  0  0  0
  5 18  2  0  0  0  0
  6  9  2  0  0  0  0
  7  5  1  0  0  0  0
  7  4  2  0  0  0  0
  9  4  1  0  0  0  0
 10 15  1  0  0  0  0
 10 14  1  0  0  0  0
 11 20  1  0  0  0  0
 11  5  1  0  0  0  0
 12  8  2  0  0  0  0
 13 15  2  0  0  0  0
 14  3  2  0  0  0  0
 16  6  1  0  0  0  0
 17  2  2  0  0  0  0
 17  6  1  0  0  0  0
 18 14  1  0  0  0  0
 18  8  1  0  0  0  0
 19 13  1  0  0  0  0
 20 10  2  0  0  0  0
 21  1  1  0  0  0  0
 22 21  1  0  0  0  0
 23 27  1  1  0  0  0
 23 28  1  0  0  0  0
 23 26  1  0  0  0  0
 24 22  1  0  0  0  0
 25 22  1  0  0  0  0
 26 25  1  0  0  0  0
 28 24  1  0  0  0  0
M  END
>  <MODEL>
9

>  <REMARK>
 VINA RESULT:      -7.5      2.211      4.135
  Name = 
  2 active torsions:
  status: ('A' for Active; 'I' for Inactive)
    1  A    between atoms: C_1  and  C_2
    2  A    between atoms: C_2  and  N_3
                            x       y       z     vdW  Elec       q    Type
                         _______ _______ _______ _____ _____    ______ ____

>  <TORSDO>
F 2

$$$$
