=
 OpenBabel11062408133D

 34 39  0  0  1  0  0  0  0  0999 V2000
  161.2110  208.1370  155.4650 C   0  0  0  0  0  0  0  0  0  0  0  0
  162.2760  210.2020  154.8190 C   0  0  0  0  0  0  0  0  0  0  0  0
  160.7790  208.8820  153.1180 C   0  0  2  0  0  3  0  0  0  0  0  0
  161.4590  209.2870  150.7190 C   0  0  0  0  0  0  0  0  0  0  0  0
  161.6500  208.3370  156.7330 N   0  0  0  0  0  0  0  0  0  0  0  0
  162.6750  210.3580  156.1090 N   0  0  0  0  0  2  0  0  0  0  0  0
  160.6080  211.1620  152.0990 C   0  0  0  0  0  2  0  0  0  0  0  0
  161.4810  209.0930  154.4590 C   0  0  0  0  0  0  0  0  0  0  0  0
  161.3060  212.0540  151.0770 C   0  0  0  0  0  2  0  0  0  0  0  0
  161.8650  210.2410  149.6340 C   0  0  0  0  0  2  0  0  0  0  0  0
  162.3640  209.4430  157.0620 C   0  0  0  0  0  3  0  0  0  0  0  0
  160.7610  207.4140  152.7480 C   0  0  0  0  0  0  0  0  0  0  0  0
  160.5760  206.8480  155.1170 C   0  0  0  0  0  3  0  0  0  0  0  0
  162.6530  211.0470  153.9660 O   0  0  0  0  0  0  0  0  0  0  0  0
  161.4340  207.9790  150.4680 C   0  0  0  0  0  3  0  0  0  0  0  0
  161.0600  206.9900  151.4970 C   0  0  0  0  0  0  0  0  0  0  0  0
  161.1000  211.4900  149.7420 N   0  0  2  0  0  0  0  0  0  0  0  0
  161.1330  209.7980  152.0240 N   0  0  0  0  0  0  0  0  0  0  0  0
  160.3840  206.4920  153.8420 C   0  0  0  0  0  3  0  0  0  0  0  0
  161.0530  203.8610  149.3580 C   0  0  0  0  0  0  0  0  0  0  0  0
  161.3090  202.8670  150.3060 C   0  0  0  0  0  3  0  0  0  0  0  0
  161.1020  205.5570  151.1040 C   0  0  0  0  0  0  0  0  0  0  0  0
  161.4710  203.2100  151.6490 C   0  0  0  0  0  3  0  0  0  0  0  0
  160.9550  205.1990  149.7530 C   0  0  0  0  0  3  0  0  0  0  0  0
  161.3770  204.5480  152.0430 C   0  0  0  0  0  3  0  0  0  0  0  0
  160.9170  203.5270  148.0500 F   0  0  0  0  0  0  0  0  0  0  0  0
  161.5950  212.4400  148.7410 C   0  0  1  0  0  0  0  0  0  0  0  0
  161.0030  213.5820  146.6270 O   0  0  0  0  0  1  0  0  0  0  0  0
  161.1760  213.8760  149.0400 C   0  0  0  0  0  2  0  0  0  0  0  0
  163.3070  212.2730  148.1110 S   0  0  0  0  0  1  0  0  0  0  0  0
  160.5550  213.1270  147.8700 C   0  0  2  0  0  0  0  0  0  0  0  0
  158.3350  213.7430  148.8430 C   0  0  0  0  0  1  0  0  0  0  0  0
  159.0920  212.7230  148.0130 C   0  0  1  0  0  3  0  0  0  0  0  0
  158.5070  212.6340  146.7490 O   0  0  0  0  0  1  0  0  0  0  0  0
  1  5  1  0  0  0  0
  2  6  1  0  0  0  0
  3 12  1  6  0  0  0
  3  8  1  0  0  0  0
  4 18  1  0  0  0  0
  5 11  2  0  0  0  0
  6 11  1  0  0  0  0
  8  2  1  0  0  0  0
  8  1  2  0  0  0  0
  9  7  1  0  0  0  0
 10  4  1  0  0  0  0
 12 19  1  0  0  0  0
 13  1  1  0  0  0  0
 14  2  2  0  0  0  0
 15  4  2  0  0  0  0
 15 16  1  0  0  0  0
 16 12  2  0  0  0  0
 17 10  1  1  0  0  0
 17  9  1  0  0  0  0
 18  7  1  0  0  0  0
 18  3  1  0  0  0  0
 19 13  2  0  0  0  0
 20 24  2  0  0  0  0
 20 21  1  0  0  0  0
 21 23  2  0  0  0  0
 22 16  1  0  0  0  0
 22 25  2  0  0  0  0
 23 25  1  0  0  0  0
 24 22  1  0  0  0  0
 26 20  1  0  0  0  0
 27 30  1  6  0  0  0
 27 29  1  0  0  0  0
 27 17  1  0  0  0  0
 31 28  1  6  0  0  0
 31 33  1  0  0  0  0
 31 27  1  0  0  0  0
 31 29  1  0  0  0  0
 33 32  1  1  0  0  0
 34 33  1  0  0  0  0
M  END
>  <MODEL>
1

>  <REMARK>
 VINA RESULT:      -7.5      0.000      0.000
  Name = 
  3 active torsions:
  status: ('A' for Active; 'I' for Inactive)
    1  A    between atoms: C_3  and  N_29
    2  A    between atoms: C_12  and  C_28
    3  A    between atoms: C_20  and  C_33
                            x       y       z     vdW  Elec       q    Type
                         _______ _______ _______ _____ _____    ______ ____

>  <TORSDO>
F 3

$$$$
=
 OpenBabel11062408133D

 34 39  0  0  1  0  0  0  0  0999 V2000
  161.5470  209.0830  154.5500 C   0  0  0  0  0  0  0  0  0  0  0  0
  160.4840  206.9340  154.2900 C   0  0  0  0  0  0  0  0  0  0  0  0
  162.0010  207.9120  152.3870 C   0  0  2  0  0  3  0  0  0  0  0  0
  161.3440  207.0660  150.1000 C   0  0  0  0  0  0  0  0  0  0  0  0
  161.0950  209.1250  155.8280 N   0  0  0  0  0  0  0  0  0  0  0  0
  160.0720  207.0230  155.5830 N   0  0  0  0  0  2  0  0  0  0  0  0
  162.1770  205.4820  151.8150 C   0  0  0  0  0  2  0  0  0  0  0  0
  161.2850  207.9570  153.7370 C   0  0  0  0  0  0  0  0  0  0  0  0
  161.4870  204.4150  150.9700 C   0  0  0  0  0  2  0  0  0  0  0  0
  160.9470  205.9260  149.2080 C   0  0  0  0  0  2  0  0  0  0  0  0
  160.3750  208.1000  156.3510 C   0  0  0  0  0  3  0  0  0  0  0  0
  162.0260  209.2850  151.7500 C   0  0  0  0  0  0  0  0  0  0  0  0
  162.1890  210.2850  153.9730 C   0  0  0  0  0  3  0  0  0  0  0  0
  160.1130  205.9460  153.6060 O   0  0  0  0  0  0  0  0  0  0  0  0
  161.3750  208.3040  149.6090 C   0  0  0  0  0  3  0  0  0  0  0  0
  161.7410  209.4680  150.4390 C   0  0  0  0  0  0  0  0  0  0  0  0
  161.7080  204.7200  149.5560 N   0  0  2  0  0  0  0  0  0  0  0  0
  161.6550  206.8090  151.4810 N   0  0  0  0  0  0  0  0  0  0  0  0
  162.3940  210.3950  152.6550 C   0  0  0  0  0  3  0  0  0  0  0  0
  162.4030  212.2620  147.9640 C   0  0  0  0  0  0  0  0  0  0  0  0
  161.5630  213.2710  148.4430 C   0  0  0  0  0  3  0  0  0  0  0  0
  161.7060  210.8030  149.7840 C   0  0  0  0  0  0  0  0  0  0  0  0
  160.7870  213.0510  149.5810 C   0  0  0  0  0  3  0  0  0  0  0  0
  162.4700  211.0330  148.6280 C   0  0  0  0  0  3  0  0  0  0  0  0
  160.8530  211.8200  150.2420 C   0  0  0  0  0  3  0  0  0  0  0  0
  163.1390  212.4720  146.8450 F   0  0  0  0  0  0  0  0  0  0  0  0
  161.2210  203.5990  148.7460 C   0  0  1  0  0  0  0  0  0  0  0  0
  160.4300  202.9840  146.4820 O   0  0  0  0  0  1  0  0  0  0  0  0
  162.3420  202.8920  147.9910 C   0  0  0  0  0  2  0  0  0  0  0  0
  159.9540  202.4710  149.4380 S   0  0  0  0  0  1  0  0  0  0  0  0
  161.3310  203.7420  147.2360 C   0  0  2  0  0  0  0  0  0  0  0  0
  163.2220  204.8810  146.0600 C   0  0  0  0  0  1  0  0  0  0  0  0
  161.8380  205.0580  146.6560 C   0  0  1  0  0  3  0  0  0  0  0  0
  160.9630  205.4970  145.6610 O   0  0  0  0  0  1  0  0  0  0  0  0
  1  5  1  0  0  0  0
  2  6  1  0  0  0  0
  3 12  1  6  0  0  0
  3  8  1  0  0  0  0
  4 18  1  0  0  0  0
  5 11  2  0  0  0  0
  6 11  1  0  0  0  0
  8  2  1  0  0  0  0
  8  1  2  0  0  0  0
  9  7  1  0  0  0  0
 10  4  1  0  0  0  0
 12 19  1  0  0  0  0
 13  1  1  0  0  0  0
 14  2  2  0  0  0  0
 15  4  2  0  0  0  0
 15 16  1  0  0  0  0
 16 12  2  0  0  0  0
 17 10  1  6  0  0  0
 17  9  1  0  0  0  0
 18  7  1  0  0  0  0
 18  3  1  0  0  0  0
 19 13  2  0  0  0  0
 20 21  2  0  0  0  0
 20 24  1  0  0  0  0
 21 23  1  0  0  0  0
 22 25  1  0  0  0  0
 22 16  1  0  0  0  0
 23 25  2  0  0  0  0
 24 22  2  0  0  0  0
 26 20  1  0  0  0  0
 27 30  1  1  0  0  0
 27 17  1  0  0  0  0
 29 27  1  0  0  0  0
 31 28  1  6  0  0  0
 31 29  1  0  0  0  0
 31 27  1  0  0  0  0
 33 32  1  6  0  0  0
 33 31  1  0  0  0  0
 34 33  1  0  0  0  0
M  END
>  <MODEL>
2

>  <REMARK>
 VINA RESULT:      -6.0      3.801      6.754
  Name = 
  3 active torsions:
  status: ('A' for Active; 'I' for Inactive)
    1  A    between atoms: C_3  and  N_29
    2  A    between atoms: C_12  and  C_28
    3  A    between atoms: C_20  and  C_33
                            x       y       z     vdW  Elec       q    Type
                         _______ _______ _______ _____ _____    ______ ____

>  <TORSDO>
F 3

$$$$
=
 OpenBabel11062408133D

 34 39  0  0  1  0  0  0  0  0999 V2000
  161.6560  212.2150  148.4000 C   0  0  0  0  0  0  0  0  0  0  0  0
  159.6530  213.5100  148.7510 C   0  0  0  0  0  0  0  0  0  0  0  0
  160.7840  212.2360  150.7440 C   0  0  0  0  0  0  0  0  0  0  0  0
  159.1290  211.5900  152.5390 C   0  0  0  0  0  0  0  0  0  0  0  0
  161.7020  212.6770  147.1260 N   0  0  0  0  0  2  0  0  0  0  0  0
  159.7590  213.9530  147.4700 N   0  0  0  0  0  0  0  0  0  0  0  0
  159.5540  213.9820  152.0480 C   0  0  0  0  0  2  0  0  0  0  0  0
  160.6390  212.6490  149.2790 C   0  0  0  0  0  0  0  0  0  0  0  0
  158.2070  214.2220  152.7230 C   0  0  0  0  0  2  0  0  0  0  0  0
  157.9690  211.9550  153.4200 C   0  0  0  0  0  2  0  0  0  0  0  0
  160.7720  213.5500  146.6620 C   0  0  0  0  0  3  0  0  0  0  0  0
  161.2840  210.8110  150.8490 C   0  0  0  0  0  0  0  0  0  0  0  0
  162.5940  211.1480  148.8140 C   0  0  0  0  0  3  0  0  0  0  0  0
  158.6530  213.8630  149.4290 O   0  0  0  0  0  0  0  0  0  0  0  0
  159.6120  210.3500  152.5710 C   0  0  0  0  0  3  0  0  0  0  0  0
  160.7390  209.9250  151.7170 C   0  0  0  0  0  0  0  0  0  0  0  0
  158.1010  213.3400  153.8870 N   0  0  2  0  0  0  0  0  0  0  0  0
  159.6800  212.5790  151.6510 N   0  0  0  0  0  0  0  0  0  0  0  0
  162.4100  210.4690  149.9520 C   0  0  0  0  0  2  0  0  0  0  0  0
  161.3560  206.4630  153.1310 C   0  0  0  0  0  0  0  0  0  0  0  0
  161.8410  205.7810  152.0120 C   0  0  0  0  0  3  0  0  0  0  0  0
  161.1670  208.5050  151.8190 C   0  0  0  0  0  0  0  0  0  0  0  0
  161.9820  206.4490  150.7950 C   0  0  0  0  0  3  0  0  0  0  0  0
  161.0160  207.8160  153.0340 C   0  0  0  0  0  3  0  0  0  0  0  0
  161.6380  207.8010  150.6990 C   0  0  0  0  0  3  0  0  0  0  0  0
  161.1990  205.8050  154.3070 F   0  0  0  0  0  0  0  0  0  0  0  0
  156.9040  213.7010  154.6510 C   0  0  1  0  0  0  0  0  0  0  0  0
  155.4000  212.9370  156.4630 O   0  0  0  0  0  1  0  0  0  0  0  0
  157.2340  214.4530  155.9360 C   0  0  0  0  0  2  0  0  0  0  0  0
  155.4300  214.3370  153.7680 S   0  0  0  0  0  1  0  0  0  0  0  0
  156.7160  213.0240  156.0000 C   0  0  2  0  0  0  0  0  0  0  0  0
  158.8780  212.5740  157.1750 C   0  0  0  0  0  1  0  0  0  0  0  0
  157.7120  211.9520  156.4290 C   0  0  1  0  0  3  0  0  0  0  0  0
  157.0740  211.0300  157.2610 O   0  0  0  0  0  1  0  0  0  0  0  0
  1 13  2  0  0  0  0
  1  8  1  0  0  0  0
  2  8  1  0  0  0  0
  2 14  2  0  0  0  0
  3 12  1  0  0  0  0
  3 18  1  0  0  0  0
  4 15  2  0  0  0  0
  4 10  1  0  0  0  0
  5  1  1  0  0  0  0
  6  2  1  0  0  0  0
  7  9  1  0  0  0  0
  8  3  2  0  0  0  0
 10 17  1  0  0  0  0
 11  5  1  0  0  0  0
 11  6  2  0  0  0  0
 12 16  2  0  0  0  0
 13 19  1  0  0  0  0
 16 22  1  0  0  0  0
 16 15  1  0  0  0  0
 17  9  1  6  0  0  0
 17 27  1  0  0  0  0
 18  7  1  0  0  0  0
 18  4  1  0  0  0  0
 19 12  1  0  0  0  0
 20 26  1  0  0  0  0
 21 20  2  0  0  0  0
 22 24  2  0  0  0  0
 23 21  1  0  0  0  0
 24 20  1  0  0  0  0
 25 23  2  0  0  0  0
 25 22  1  0  0  0  0
 27 30  1  6  0  0  0
 27 29  1  0  0  0  0
 27 31  1  0  0  0  0
 29 31  1  0  0  0  0
 31 33  1  0  0  0  0
 31 28  1  1  0  0  0
 33 32  1  1  0  0  0
 33 34  1  0  0  0  0
M  END
>  <MODEL>
3

>  <REMARK>
 VINA RESULT:      -5.9      3.872      6.907
  Name = 
  3 active torsions:
  status: ('A' for Active; 'I' for Inactive)
    1  A    between atoms: C_3  and  N_29
    2  A    between atoms: C_12  and  C_28
    3  A    between atoms: C_20  and  C_33
                            x       y       z     vdW  Elec       q    Type
                         _______ _______ _______ _____ _____    ______ ____

>  <TORSDO>
F 3

$$$$
=
 OpenBabel11062408133D

 34 39  0  0  1  0  0  0  0  0999 V2000
  160.9820  207.1580  153.7680 C   0  0  0  0  0  0  0  0  0  0  0  0
  162.0270  209.3310  153.7200 C   0  0  0  0  0  0  0  0  0  0  0  0
  160.8160  208.3850  151.5950 C   0  0  2  0  0  3  0  0  0  0  0  0
  161.7730  209.3080  149.4480 C   0  0  0  0  0  0  0  0  0  0  0  0
  161.2480  207.0870  155.0960 N   0  0  0  0  0  0  0  0  0  0  0  0
  162.2530  209.2110  155.0550 N   0  0  0  0  0  2  0  0  0  0  0  0
  160.6730  210.8270  151.0680 C   0  0  0  0  0  2  0  0  0  0  0  0
  161.3330  208.3120  153.0310 C   0  0  0  0  0  0  0  0  0  0  0  0
  161.4540  211.9300  150.3590 C   0  0  0  0  0  2  0  0  0  0  0  0
  162.2700  210.4800  148.6520 C   0  0  0  0  0  2  0  0  0  0  0  0
  161.8650  208.1080  155.7430 C   0  0  0  0  0  3  0  0  0  0  0  0
  160.9100  207.0310  150.9240 C   0  0  0  0  0  0  0  0  0  0  0  0
  160.4530  205.9640  153.0740 C   0  0  0  0  0  3  0  0  0  0  0  0
  162.4700  210.3460  153.1220 O   0  0  0  0  0  0  0  0  0  0  0  0
  161.8380  208.0850  148.9250 C   0  0  0  0  0  3  0  0  0  0  0  0
  161.3820  206.8910  149.6630 C   0  0  0  0  0  0  0  0  0  0  0  0
  161.4430  211.6630  148.9200 N   0  0  2  0  0  0  0  0  0  0  0  0
  161.2640  209.5200  150.7760 N   0  0  0  0  0  0  0  0  0  0  0  0
  160.4390  205.8890  151.7380 C   0  0  0  0  0  3  0  0  0  0  0  0
  161.2040  203.1650  148.9900 C   0  0  0  0  0  0  0  0  0  0  0  0
  161.6900  203.0880  147.6820 C   0  0  0  0  0  3  0  0  0  0  0  0
  161.5370  205.5770  148.9850 C   0  0  0  0  0  0  0  0  0  0  0  0
  162.0900  204.2480  147.0180 C   0  0  0  0  0  3  0  0  0  0  0  0
  161.1230  204.4020  149.6360 C   0  0  0  0  0  3  0  0  0  0  0  0
  162.0050  205.4850  147.6640 C   0  0  0  0  0  3  0  0  0  0  0  0
  160.7960  202.0380  149.6250 F   0  0  0  0  0  0  0  0  0  0  0  0
  162.0170  212.8140  148.2170 C   0  0  1  0  0  0  0  0  0  0  0  0
  161.7970  214.2110  146.1860 O   0  0  0  0  0  1  0  0  0  0  0  0
  161.3230  214.1240  148.5750 C   0  0  0  0  0  2  0  0  0  0  0  0
  163.8370  212.9510  148.0510 S   0  0  0  0  0  1  0  0  0  0  0  0
  161.1310  213.5100  147.1960 C   0  0  2  0  0  0  0  0  0  0  0  0
  158.7220  214.0230  146.7630 C   0  0  0  0  0  1  0  0  0  0  0  0
  159.7580  212.9220  146.8910 C   0  0  1  0  0  3  0  0  0  0  0  0
  159.8140  212.2030  145.6960 O   0  0  0  0  0  1  0  0  0  0  0  0
  1  5  1  0  0  0  0
  2  6  1  0  0  0  0
  3 12  1  6  0  0  0
  3  8  1  0  0  0  0
  4 18  1  0  0  0  0
  5 11  2  0  0  0  0
  6 11  1  0  0  0  0
  8  2  1  0  0  0  0
  8  1  2  0  0  0  0
  9  7  1  0  0  0  0
 10  4  1  0  0  0  0
 12 19  1  0  0  0  0
 13  1  1  0  0  0  0
 14  2  2  0  0  0  0
 15  4  2  0  0  0  0
 15 16  1  0  0  0  0
 16 12  2  0  0  0  0
 17 10  1  1  0  0  0
 17  9  1  0  0  0  0
 18  7  1  0  0  0  0
 18  3  1  0  0  0  0
 19 13  2  0  0  0  0
 20 26  1  0  0  0  0
 20 24  1  0  0  0  0
 21 20  2  0  0  0  0
 22 24  2  0  0  0  0
 22 16  1  0  0  0  0
 23 25  2  0  0  0  0
 23 21  1  0  0  0  0
 25 22  1  0  0  0  0
 27 30  1  6  0  0  0
 27 29  1  0  0  0  0
 27 17  1  0  0  0  0
 31 28  1  6  0  0  0
 31 27  1  0  0  0  0
 31 29  1  0  0  0  0
 33 32  1  6  0  0  0
 33 31  1  0  0  0  0
 34 33  1  0  0  0  0
M  END
>  <MODEL>
4

>  <REMARK>
 VINA RESULT:      -5.4      1.334      1.908
  Name = 
  3 active torsions:
  status: ('A' for Active; 'I' for Inactive)
    1  A    between atoms: C_3  and  N_29
    2  A    between atoms: C_12  and  C_28
    3  A    between atoms: C_20  and  C_33
                            x       y       z     vdW  Elec       q    Type
                         _______ _______ _______ _____ _____    ______ ____

>  <TORSDO>
F 3

$$$$
=
 OpenBabel11062408133D

 34 39  0  0  1  0  0  0  0  0999 V2000
  161.6920  205.3050  151.1070 C   0  0  0  0  0  0  0  0  0  0  0  0
  161.0370  206.3360  149.0280 C   0  0  0  0  0  0  0  0  0  0  0  0
  162.0100  207.7820  150.9880 C   0  0  2  0  0  3  0  0  0  0  0  0
  161.1690  210.1640  150.9380 C   0  0  0  0  0  0  0  0  0  0  0  0
  161.4520  204.0910  150.5510 N   0  0  0  0  0  0  0  0  0  0  0  0
  160.8290  205.0930  148.5190 N   0  0  0  0  0  2  0  0  0  0  0  0
  162.5580  209.3010  149.0750 C   0  0  0  0  0  2  0  0  0  0  0  0
  161.5260  206.4830  150.3440 C   0  0  0  0  0  0  0  0  0  0  0  0
  161.9610  210.4540  148.2740 C   0  0  0  0  0  2  0  0  0  0  0  0
  160.8620  211.4100  150.1610 C   0  0  0  0  0  2  0  0  0  0  0  0
  161.0380  203.9780  149.2640 C   0  0  0  0  0  3  0  0  0  0  0  0
  161.6650  207.8090  152.4620 C   0  0  0  0  0  0  0  0  0  0  0  0
  161.9880  205.3890  152.5540 C   0  0  0  0  0  3  0  0  0  0  0  0
  160.7600  207.3340  148.3130 O   0  0  0  0  0  0  0  0  0  0  0  0
  160.8800  210.1120  152.2370 C   0  0  0  0  0  3  0  0  0  0  0  0
  161.1430  208.9100  153.0520 C   0  0  0  0  0  0  0  0  0  0  0  0
  161.8880  211.6350  149.1350 N   0  0  2  0  0  0  0  0  0  0  0  0
  161.7430  209.0310  150.2610 N   0  0  0  0  0  0  0  0  0  0  0  0
  161.9530  206.5600  153.2000 C   0  0  0  0  0  3  0  0  0  0  0  0
  160.0810  207.8030  156.5180 C   0  0  0  0  0  0  0  0  0  0  0  0
  160.1180  209.0080  157.2260 C   0  0  0  0  0  3  0  0  0  0  0  0
  160.7450  208.9640  154.4840 C   0  0  0  0  0  0  0  0  0  0  0  0
  160.4760  210.1880  156.5740 C   0  0  0  0  0  3  0  0  0  0  0  0
  160.3980  207.7800  155.1570 C   0  0  0  0  0  3  0  0  0  0  0  0
  160.7960  210.1630  155.2130 C   0  0  0  0  0  3  0  0  0  0  0  0
  159.7540  206.6540  157.1600 F   0  0  0  0  0  0  0  0  0  0  0  0
  161.5020  212.7930  148.3230 C   0  0  1  0  0  0  0  0  0  0  0  0
  159.7020  214.4530  147.9610 O   0  0  0  0  0  1  0  0  0  0  0  0
  161.8960  214.1180  148.9680 C   0  0  0  0  0  2  0  0  0  0  0  0
  161.7470  212.7410  146.5070 S   0  0  0  0  0  1  0  0  0  0  0  0
  160.4320  213.7100  148.8940 C   0  0  2  0  0  0  0  0  0  0  0  0
  160.0610  214.3540  151.2820 C   0  0  0  0  0  1  0  0  0  0  0  0
  159.7590  213.3270  150.2070 C   0  0  1  0  0  3  0  0  0  0  0  0
  158.3780  213.2530  150.0190 O   0  0  0  0  0  1  0  0  0  0  0  0
  1 13  1  0  0  0  0
  2  8  1  0  0  0  0
  3  8  1  6  0  0  0
  3 12  1  0  0  0  0
  4 15  2  0  0  0  0
  5  1  1  0  0  0  0
  6  2  1  0  0  0  0
  6 11  1  0  0  0  0
  7 18  1  0  0  0  0
  8  1  2  0  0  0  0
  9  7  1  0  0  0  0
 10  4  1  0  0  0  0
 11  5  2  0  0  0  0
 12 16  2  0  0  0  0
 12 19  1  0  0  0  0
 13 19  2  0  0  0  0
 14  2  2  0  0  0  0
 15 16  1  0  0  0  0
 16 22  1  0  0  0  0
 17  9  1  6  0  0  0
 17 10  1  0  0  0  0
 18  4  1  0  0  0  0
 18  3  1  0  0  0  0
 20 26  1  0  0  0  0
 20 21  1  0  0  0  0
 22 24  1  0  0  0  0
 22 25  2  0  0  0  0
 23 21  2  0  0  0  0
 24 20  2  0  0  0  0
 25 23  1  0  0  0  0
 27 30  1  6  0  0  0
 27 31  1  0  0  0  0
 27 29  1  0  0  0  0
 27 17  1  0  0  0  0
 31 28  1  6  0  0  0
 31 29  1  0  0  0  0
 31 33  1  0  0  0  0
 33 32  1  1  0  0  0
 34 33  1  0  0  0  0
M  END
>  <MODEL>
5

>  <REMARK>
 VINA RESULT:      -5.3      2.838      5.206
  Name = 
  3 active torsions:
  status: ('A' for Active; 'I' for Inactive)
    1  A    between atoms: C_3  and  N_29
    2  A    between atoms: C_12  and  C_28
    3  A    between atoms: C_20  and  C_33
                            x       y       z     vdW  Elec       q    Type
                         _______ _______ _______ _____ _____    ______ ____

>  <TORSDO>
F 3

$$$$
