=
 OpenBabel11052421513D

 30 33  0  0  1  0  0  0  0  0999 V2000
  160.2470  209.1890  154.4100 C   0  0  1  0  0  3  0  0  0  0  0  0
  161.1440  208.4730  153.4130 C   0  0  1  0  0  3  0  0  0  0  0  0
  161.3140  207.0980  153.8630 N   0  0  0  0  0  2  0  0  0  0  0  0
  160.1130  208.2480  155.5820 C   0  0  0  0  0  2  0  0  0  0  0  0
  161.0810  207.1240  155.2980 C   0  0  0  0  0  2  0  0  0  0  0  0
  161.8540  210.9750  154.0250 O   0  0  0  0  0  1  0  0  0  0  0  0
  160.8300  210.5300  154.8690 C   0  0  1  0  0  3  0  0  0  0  0  0
  159.7530  211.6050  155.0730 C   0  0  1  0  0  3  0  0  0  0  0  0
  155.9930  210.8000  155.0180 C   0  0  0  0  0  1  0  0  0  0  0  0
  158.1970  211.7700  152.7520 S   0  0  0  0  0  0  0  0  0  0  0  0
  158.3930  211.1740  154.4610 C   0  0  2  0  0  3  0  0  0  0  0  0
  156.8210  213.4040  154.8740 S   0  0  0  0  0  0  0  0  0  0  0  0
  157.2080  211.6710  155.2710 C   0  0  1  0  0  3  0  0  0  0  0  0
  158.9420  214.3240  153.4050 C   0  0  0  0  0  1  0  0  0  0  0  0
  157.7160  213.4400  153.2870 C   0  0  1  0  0  3  0  0  0  0  0  0
  160.0490  213.4540  156.6420 C   0  0  0  0  0  1  0  0  0  0  0  0
  159.7030  212.0460  156.4810 N   0  0  0  0  0  0  0  0  0  0  0  0
  160.6400  211.2560  157.2610 C   0  0  0  0  0  1  0  0  0  0  0  0
  160.5060  208.4950  152.0360 C   0  0  0  0  0  2  0  0  0  0  0  0
  161.5720  208.6420  150.9670 C   0  0  1  0  0  3  0  0  0  0  0  0
  162.7210  209.2120  151.5180 O   0  0  0  0  0  1  0  0  0  0  0  0
  161.8960  207.2750  150.3940 C   0  0  0  0  0  2  0  0  0  0  0  0
  160.9310  203.0560  149.7250 C   0  0  0  0  0  0  0  0  0  0  0  0
  161.3150  203.4520  148.3670 C   0  0  0  0  0  3  0  0  0  0  0  0
  160.9390  201.3520  150.1230 Cl  0  0  0  0  0  0  0  0  0  0  0  0
  160.6400  206.6050  149.8650 C   0  0  1  0  0  3  0  0  0  0  0  0
  161.3630  204.8100  147.8940 C   0  0  0  0  0  3  0  0  0  0  0  0
  160.5550  203.9920  150.7520 C   0  0  0  0  0  3  0  0  0  0  0  0
  160.9970  205.6450  148.9050 C   0  0  0  0  0  0  0  0  0  0  0  0
  160.6140  205.2580  150.2570 C   0  0  0  0  0  0  0  0  0  0  0  0
  1  7  1  1  0  0  0
  1  4  1  0  0  0  0
  2 19  1  6  0  0  0
  2  3  1  0  0  0  0
  2  1  1  0  0  0  0
  3  5  1  0  0  0  0
  5  4  1  0  0  0  0
  7  6  1  6  0  0  0
  7  8  1  0  0  0  0
  8 17  1  1  0  0  0
 10 15  1  0  0  0  0
 10 11  1  0  0  0  0
 11  8  1  1  0  0  0
 11 13  1  0  0  0  0
 12 13  1  0  0  0  0
 13  9  1  6  0  0  0
 15 14  1  1  0  0  0
 15 12  1  0  0  0  0
 17 16  1  0  0  0  0
 17 18  1  0  0  0  0
 20 21  1  1  0  0  0
 20 19  1  0  0  0  0
 22 20  1  0  0  0  0
 23 25  1  0  0  0  0
 23 28  1  0  0  0  0
 24 23  2  0  0  0  0
 26 30  1  0  0  0  0
 26 22  1  1  0  0  0
 27 24  1  0  0  0  0
 27 29  2  0  0  0  0
 29 26  1  0  0  0  0
 29 30  1  0  0  0  0
 30 28  2  0  0  0  0
M  END
>  <MODEL>
1

>  <REMARK>
 VINA RESULT:      -7.1      0.000      0.000
  Name = 
  8 active torsions:
  status: ('A' for Active; 'I' for Inactive)
    1  A    between atoms: C_3  and  C_11
    2  A    between atoms: C_3  and  C_19
    3  A    between atoms: N_4  and  C_13
    4  A    between atoms: C_7  and  C_30
    5  A    between atoms: C_8  and  C_13
    6  A    between atoms: C_10  and  C_25
    7  A    between atoms: C_11  and  C_25
    8  A    between atoms: C_13  and  C_30
                            x       y       z     vdW  Elec       q    Type
                         _______ _______ _______ _____ _____    ______ ____

>  <TORSDO>
F 8

$$$$
=
 OpenBabel11052421513D

 30 33  0  0  1  0  0  0  0  0999 V2000
  160.8210  208.1010  152.9550 C   0  0  1  0  0  3  0  0  0  0  0  0
  161.6210  207.6280  151.7510 C   0  0  1  0  0  3  0  0  0  0  0  0
  161.9360  206.2190  151.9440 N   0  0  0  0  0  2  0  0  0  0  0  0
  160.9040  206.9810  153.9620 C   0  0  0  0  0  2  0  0  0  0  0  0
  161.8950  206.0000  153.3810 C   0  0  0  0  0  2  0  0  0  0  0  0
  162.2740  210.0360  152.6930 O   0  0  0  0  0  1  0  0  0  0  0  0
  161.3750  209.3980  153.5560 C   0  0  1  0  0  3  0  0  0  0  0  0
  160.2670  210.3500  154.0280 C   0  0  1  0  0  3  0  0  0  0  0  0
  160.1610  213.4310  156.3280 C   0  0  0  0  0  1  0  0  0  0  0  0
  161.9680  210.6640  156.2290 S   0  0  0  0  0  0  0  0  0  0  0  0
  160.8080  211.4000  155.0350 C   0  0  2  0  0  3  0  0  0  0  0  0
  159.1470  211.0480  157.2120 S   0  0  0  0  0  0  0  0  0  0  0  0
  159.6970  212.0800  155.8180 C   0  0  1  0  0  3  0  0  0  0  0  0
  160.2790  208.5870  156.8070 C   0  0  0  0  0  1  0  0  0  0  0  0
  160.6300  209.9900  157.2610 C   0  0  1  0  0  3  0  0  0  0  0  0
  160.0610  212.1670  152.4070 C   0  0  0  0  0  1  0  0  0  0  0  0
  159.5150  210.9000  152.8830 N   0  0  0  0  0  0  0  0  0  0  0  0
  158.1360  211.1200  153.2800 C   0  0  0  0  0  1  0  0  0  0  0  0
  160.8050  207.8100  150.4850 C   0  0  0  0  0  2  0  0  0  0  0  0
  161.7040  208.2320  149.3390 C   0  0  1  0  0  3  0  0  0  0  0  0
  162.8640  208.8260  149.8400 O   0  0  0  0  0  1  0  0  0  0  0  0
  162.0640  207.0130  148.5110 C   0  0  0  0  0  2  0  0  0  0  0  0
  161.2460  202.7260  148.1420 C   0  0  0  0  0  0  0  0  0  0  0  0
  161.5410  203.0540  146.7440 C   0  0  0  0  0  3  0  0  0  0  0  0
  161.3470  201.0510  148.6370 Cl  0  0  0  0  0  0  0  0  0  0  0  0
  160.8110  206.2630  148.0910 C   0  0  1  0  0  3  0  0  0  0  0  0
  161.5070  204.3830  146.1910 C   0  0  0  0  0  3  0  0  0  0  0  0
  160.8840  203.7060  149.1320 C   0  0  0  0  0  3  0  0  0  0  0  0
  161.1590  205.2620  147.1700 C   0  0  0  0  0  0  0  0  0  0  0  0
  160.8630  204.9410  148.5620 C   0  0  0  0  0  0  0  0  0  0  0  0
  1  7  1  1  0  0  0
  1  4  1  0  0  0  0
  2 19  1  6  0  0  0
  2  3  1  0  0  0  0
  2  1  1  0  0  0  0
  3  5  1  0  0  0  0
  5  4  1  0  0  0  0
  7  6  1  6  0  0  0
  7  8  1  0  0  0  0
  8 17  1  6  0  0  0
 10 15  1  0  0  0  0
 11  8  1  6  0  0  0
 11 13  1  0  0  0  0
 11 10  1  0  0  0  0
 12 15  1  0  0  0  0
 13  9  1  1  0  0  0
 13 12  1  0  0  0  0
 15 14  1  6  0  0  0
 16 17  1  0  0  0  0
 17 18  1  0  0  0  0
 20 21  1  1  0  0  0
 20 19  1  0  0  0  0
 22 20  1  0  0  0  0
 23 25  1  0  0  0  0
 23 28  1  0  0  0  0
 24 23  2  0  0  0  0
 26 22  1  1  0  0  0
 26 30  1  0  0  0  0
 27 24  1  0  0  0  0
 27 29  2  0  0  0  0
 29 26  1  0  0  0  0
 29 30  1  0  0  0  0
 30 28  2  0  0  0  0
M  END
>  <MODEL>
2

>  <REMARK>
 VINA RESULT:      -6.7      1.953      3.103
  Name = 
  8 active torsions:
  status: ('A' for Active; 'I' for Inactive)
    1  A    between atoms: C_3  and  C_11
    2  A    between atoms: C_3  and  C_19
    3  A    between atoms: N_4  and  C_13
    4  A    between atoms: C_7  and  C_30
    5  A    between atoms: C_8  and  C_13
    6  A    between atoms: C_10  and  C_25
    7  A    between atoms: C_11  and  C_25
    8  A    between atoms: C_13  and  C_30
                            x       y       z     vdW  Elec       q    Type
                         _______ _______ _______ _____ _____    ______ ____

>  <TORSDO>
F 8

$$$$
=
 OpenBabel11052421513D

 30 33  0  0  1  0  0  0  0  0999 V2000
  160.2820  209.3750  155.2210 C   0  0  1  0  0  3  0  0  0  0  0  0
  161.2720  208.2880  154.8350 C   0  0  1  0  0  3  0  0  0  0  0  0
  161.2610  207.2730  155.8800 N   0  0  0  0  0  2  0  0  0  0  0  0
  159.8860  209.0750  156.6460 C   0  0  0  0  0  2  0  0  0  0  0  0
  160.7990  207.9520  157.0800 C   0  0  0  0  0  2  0  0  0  0  0  0
  161.7730  210.8990  154.0480 O   0  0  0  0  0  1  0  0  0  0  0  0
  160.8840  210.7810  155.1220 C   0  0  1  0  0  3  0  0  0  0  0  0
  159.8130  211.8820  155.0980 C   0  0  1  0  0  3  0  0  0  0  0  0
  156.0270  211.2090  155.1330 C   0  0  0  0  0  1  0  0  0  0  0  0
  158.3220  211.4660  152.7660 S   0  0  0  0  0  0  0  0  0  0  0  0
  158.4530  211.3450  154.5780 C   0  0  2  0  0  3  0  0  0  0  0  0
  156.9590  213.6520  154.3260 S   0  0  0  0  0  0  0  0  0  0  0  0
  157.2690  212.0770  155.1850 C   0  0  1  0  0  3  0  0  0  0  0  0
  159.1490  214.0770  152.7370 C   0  0  0  0  0  1  0  0  0  0  0  0
  157.8920  213.2320  152.8180 C   0  0  1  0  0  3  0  0  0  0  0  0
  159.8440  214.0470  156.2300 C   0  0  0  0  0  1  0  0  0  0  0  0
  159.7600  212.5990  156.3870 N   0  0  0  0  0  0  0  0  0  0  0  0
  160.8700  212.1670  157.2180 C   0  0  0  0  0  1  0  0  0  0  0  0
  160.8720  207.6720  153.5070 C   0  0  0  0  0  2  0  0  0  0  0  0
  161.7950  206.5180  153.1640 C   0  0  1  0  0  3  0  0  0  0  0  0
  161.1980  205.3100  153.5270 O   0  0  0  0  0  1  0  0  0  0  0  0
  162.0760  206.5300  151.6740 C   0  0  0  0  0  2  0  0  0  0  0  0
  161.0780  203.3760  148.8040 C   0  0  0  0  0  0  0  0  0  0  0  0
  161.4340  204.4600  147.8830 C   0  0  0  0  0  3  0  0  0  0  0  0
  161.0870  201.7360  148.1930 Cl  0  0  0  0  0  0  0  0  0  0  0  0
  160.8050  206.2540  150.8880 C   0  0  1  0  0  3  0  0  0  0  0  0
  161.4780  205.8530  148.2390 C   0  0  0  0  0  3  0  0  0  0  0  0
  160.7270  203.5850  150.1840 C   0  0  0  0  0  3  0  0  0  0  0  0
  161.1380  205.9870  149.5500 C   0  0  0  0  0  0  0  0  0  0  0  0
  160.7820  204.9130  150.4710 C   0  0  0  0  0  0  0  0  0  0  0  0
  1  7  1  1  0  0  0
  1  4  1  0  0  0  0
  2 19  1  6  0  0  0
  2  1  1  0  0  0  0
  2  3  1  0  0  0  0
  3  5  1  0  0  0  0
  4  5  1  0  0  0  0
  7  6  1  6  0  0  0
  8  7  1  0  0  0  0
  8 17  1  1  0  0  0
 10 15  1  0  0  0  0
 10 11  1  0  0  0  0
 11  8  1  1  0  0  0
 11 13  1  0  0  0  0
 12 13  1  0  0  0  0
 13  9  1  6  0  0  0
 15 14  1  1  0  0  0
 15 12  1  0  0  0  0
 16 17  1  0  0  0  0
 17 18  1  0  0  0  0
 20 19  1  0  0  0  0
 20 21  1  6  0  0  0
 22 20  1  0  0  0  0
 23 28  1  0  0  0  0
 24 27  1  0  0  0  0
 24 23  2  0  0  0  0
 25 23  1  0  0  0  0
 26 22  1  1  0  0  0
 27 29  2  0  0  0  0
 28 30  2  0  0  0  0
 29 30  1  0  0  0  0
 29 26  1  0  0  0  0
 30 26  1  0  0  0  0
M  END
>  <MODEL>
3

>  <REMARK>
 VINA RESULT:      -6.4      1.305      1.442
  Name = 
  8 active torsions:
  status: ('A' for Active; 'I' for Inactive)
    1  A    between atoms: C_3  and  C_11
    2  A    between atoms: C_3  and  C_19
    3  A    between atoms: N_4  and  C_13
    4  A    between atoms: C_7  and  C_30
    5  A    between atoms: C_8  and  C_13
    6  A    between atoms: C_10  and  C_25
    7  A    between atoms: C_11  and  C_25
    8  A    between atoms: C_13  and  C_30
                            x       y       z     vdW  Elec       q    Type
                         _______ _______ _______ _____ _____    ______ ____

>  <TORSDO>
F 8

$$$$
=
 OpenBabel11052421513D

 30 33  0  0  1  0  0  0  0  0999 V2000
  161.9240  208.6710  153.0120 C   0  0  1  0  0  3  0  0  0  0  0  0
  161.7080  207.6730  151.8870 C   0  0  1  0  0  3  0  0  0  0  0  0
  162.1520  208.2880  150.6440 N   0  0  0  0  0  2  0  0  0  0  0  0
  162.2740  209.9740  152.3360 C   0  0  0  0  0  2  0  0  0  0  0  0
  162.0600  209.7230  150.8620 C   0  0  0  0  0  2  0  0  0  0  0  0
  160.2960  207.6480  154.5030 O   0  0  0  0  0  1  0  0  0  0  0  0
  160.6810  208.8470  153.8910 C   0  0  1  0  0  3  0  0  0  0  0  0
  160.8340  209.9830  154.9120 C   0  0  1  0  0  3  0  0  0  0  0  0
  158.3930  211.8120  157.2540 C   0  0  0  0  0  1  0  0  0  0  0  0
  158.2570  210.7450  154.1280 S   0  0  0  0  0  0  0  0  0  0  0  0
  159.4590  210.4460  155.4630 C   0  0  2  0  0  3  0  0  0  0  0  0
  159.6200  213.1920  155.2350 S   0  0  0  0  0  0  0  0  0  0  0  0
  159.5620  211.7130  156.2940 C   0  0  1  0  0  3  0  0  0  0  0  0
  160.0200  212.2680  152.6880 C   0  0  0  0  0  1  0  0  0  0  0  0
  158.9430  212.3860  153.7470 C   0  0  1  0  0  3  0  0  0  0  0  0
  161.2600  209.4340  157.2550 C   0  0  0  0  0  1  0  0  0  0  0  0
  161.8440  209.6450  155.9350 N   0  0  0  0  0  0  0  0  0  0  0  0
  162.8050  210.7290  156.0310 C   0  0  0  0  0  1  0  0  0  0  0  0
  162.5050  206.4100  152.1560 C   0  0  0  0  0  2  0  0  0  0  0  0
  161.5720  205.2240  152.3110 C   0  0  1  0  0  3  0  0  0  0  0  0
  160.2450  205.6490  152.2190 O   0  0  0  0  0  1  0  0  0  0  0  0
  161.8670  204.2110  151.2210 C   0  0  0  0  0  2  0  0  0  0  0  0
  161.4940  204.4900  146.8660 C   0  0  0  0  0  0  0  0  0  0  0  0
  161.0410  205.8290  147.2510 C   0  0  0  0  0  3  0  0  0  0  0  0
  162.0210  204.2360  145.2170 Cl  0  0  0  0  0  0  0  0  0  0  0  0
  160.6660  204.0470  150.3050 C   0  0  1  0  0  3  0  0  0  0  0  0
  160.5870  206.1930  148.5670 C   0  0  0  0  0  3  0  0  0  0  0  0
  161.5360  203.3710  147.7720 C   0  0  0  0  0  3  0  0  0  0  0  0
  160.6480  205.0990  149.3750 C   0  0  0  0  0  0  0  0  0  0  0  0
  161.0970  203.7640  148.9980 C   0  0  0  0  0  0  0  0  0  0  0  0
  1  7  1  6  0  0  0
  2 19  1  1  0  0  0
  2  1  1  0  0  0  0
  3  5  1  0  0  0  0
  3  2  1  0  0  0  0
  4  1  1  0  0  0  0
  5  4  1  0  0  0  0
  7  6  1  1  0  0  0
  7  8  1  0  0  0  0
  8 17  1  1  0  0  0
 10 11  1  0  0  0  0
 11  8  1  6  0  0  0
 11 13  1  0  0  0  0
 12 13  1  0  0  0  0
 13  9  1  1  0  0  0
 15 14  1  6  0  0  0
 15 10  1  0  0  0  0
 15 12  1  0  0  0  0
 17 18  1  0  0  0  0
 17 16  1  0  0  0  0
 19 20  1  0  0  0  0
 20 21  1  6  0  0  0
 22 20  1  0  0  0  0
 23 24  2  0  0  0  0
 23 28  1  0  0  0  0
 24 27  1  0  0  0  0
 25 23  1  0  0  0  0
 26 22  1  1  0  0  0
 27 29  2  0  0  0  0
 28 30  2  0  0  0  0
 29 26  1  0  0  0  0
 30 29  1  0  0  0  0
 30 26  1  0  0  0  0
M  END
>  <MODEL>
4

>  <REMARK>
 VINA RESULT:      -6.1      2.256      3.112
  Name = 
  8 active torsions:
  status: ('A' for Active; 'I' for Inactive)
    1  A    between atoms: C_3  and  C_11
    2  A    between atoms: C_3  and  C_19
    3  A    between atoms: N_4  and  C_13
    4  A    between atoms: C_7  and  C_30
    5  A    between atoms: C_8  and  C_13
    6  A    between atoms: C_10  and  C_25
    7  A    between atoms: C_11  and  C_25
    8  A    between atoms: C_13  and  C_30
                            x       y       z     vdW  Elec       q    Type
                         _______ _______ _______ _____ _____    ______ ____

>  <TORSDO>
F 8

$$$$
=
 OpenBabel11052421513D

 30 33  0  0  1  0  0  0  0  0999 V2000
  162.1270  208.6230  150.7550 C   0  0  1  0  0  3  0  0  0  0  0  0
  161.7130  208.6360  149.2930 C   0  0  1  0  0  3  0  0  0  0  0  0
  162.0270  209.9480  148.7450 N   0  0  0  0  0  2  0  0  0  0  0  0
  162.4580  210.0560  151.0950 C   0  0  0  0  0  2  0  0  0  0  0  0
  162.0420  210.8550  149.8820 C   0  0  0  0  0  2  0  0  0  0  0  0
  160.3200  207.0320  151.1050 O   0  0  0  0  0  1  0  0  0  0  0  0
  161.0180  208.1010  151.6770 C   0  0  1  0  0  3  0  0  0  0  0  0
  161.5300  207.7600  153.0830 C   0  0  1  0  0  3  0  0  0  0  0  0
  159.6300  207.2010  156.3790 C   0  0  0  0  0  1  0  0  0  0  0  0
  160.0260  209.7650  154.3290 S   0  0  0  0  0  0  0  0  0  0  0  0
  160.4410  208.0000  154.1620 C   0  0  2  0  0  3  0  0  0  0  0  0
  161.9380  208.6700  156.3820 S   0  0  0  0  0  0  0  0  0  0  0  0
  160.8530  207.4830  155.5290 C   0  0  1  0  0  3  0  0  0  0  0  0
  162.6550  210.5150  154.4890 C   0  0  0  0  0  1  0  0  0  0  0  0
  161.4830  210.1090  155.3600 C   0  0  1  0  0  3  0  0  0  0  0  0
  162.9000  206.1300  151.8840 C   0  0  0  0  0  1  0  0  0  0  0  0
  162.1630  206.4260  153.1080 N   0  0  0  0  0  0  0  0  0  0  0  0
  161.1350  205.4140  153.2750 C   0  0  0  0  0  1  0  0  0  0  0  0
  162.4680  207.5610  148.5330 C   0  0  0  0  0  2  0  0  0  0  0  0
  161.5380  206.8510  147.5670 C   0  0  1  0  0  3  0  0  0  0  0  0
  162.2090  206.5870  146.3710 O   0  0  0  0  0  1  0  0  0  0  0  0
  161.0650  205.5530  148.1920 C   0  0  0  0  0  2  0  0  0  0  0  0
  160.6120  201.7470  146.0730 C   0  0  0  0  0  0  0  0  0  0  0  0
  160.4560  201.2920  147.4580 C   0  0  0  0  0  3  0  0  0  0  0  0
  160.0180  200.7140  144.7910 Cl  0  0  0  0  0  0  0  0  0  0  0  0
  162.0560  204.4340  147.9160 C   0  0  1  0  0  3  0  0  0  0  0  0
  160.8860  202.0310  148.6150 C   0  0  0  0  0  3  0  0  0  0  0  0
  161.2220  202.9990  145.7090 C   0  0  0  0  0  3  0  0  0  0  0  0
  161.4520  203.2000  148.2090 C   0  0  0  0  0  0  0  0  0  0  0  0
  161.6120  203.6580  146.8340 C   0  0  0  0  0  0  0  0  0  0  0  0
  1  4  1  0  0  0  0
  1  7  1  1  0  0  0
  2 19  1  6  0  0  0
  2  1  1  0  0  0  0
  3  2  1  0  0  0  0
  3  5  1  0  0  0  0
  5  4  1  0  0  0  0
  7  6  1  6  0  0  0
  7  8  1  0  0  0  0
  8 17  1  6  0  0  0
 10 15  1  0  0  0  0
 11  8  1  6  0  0  0
 11 10  1  0  0  0  0
 11 13  1  0  0  0  0
 13  9  1  1  0  0  0
 13 12  1  0  0  0  0
 15 14  1  6  0  0  0
 15 12  1  0  0  0  0
 16 17  1  0  0  0  0
 17 18  1  0  0  0  0
 20 21  1  6  0  0  0
 20 22  1  0  0  0  0
 20 19  1  0  0  0  0
 23 24  1  0  0  0  0
 24 27  2  0  0  0  0
 25 23  1  0  0  0  0
 26 22  1  1  0  0  0
 26 29  1  0  0  0  0
 28 23  2  0  0  0  0
 28 30  1  0  0  0  0
 29 27  1  0  0  0  0
 30 26  1  0  0  0  0
 30 29  2  0  0  0  0
M  END
>  <MODEL>
5

>  <REMARK>
 VINA RESULT:      -5.7      3.278      5.087
  Name = 
  8 active torsions:
  status: ('A' for Active; 'I' for Inactive)
    1  A    between atoms: C_3  and  C_11
    2  A    between atoms: C_3  and  C_19
    3  A    between atoms: N_4  and  C_13
    4  A    between atoms: C_7  and  C_30
    5  A    between atoms: C_8  and  C_13
    6  A    between atoms: C_10  and  C_25
    7  A    between atoms: C_11  and  C_25
    8  A    between atoms: C_13  and  C_30
                            x       y       z     vdW  Elec       q    Type
                         _______ _______ _______ _____ _____    ______ ____

>  <TORSDO>
F 8

$$$$
=
 OpenBabel11052421513D

 30 33  0  0  1  0  0  0  0  0999 V2000
  161.7840  208.8960  152.1380 C   0  0  1  0  0  3  0  0  0  0  0  0
  161.2740  208.5330  150.7530 C   0  0  1  0  0  3  0  0  0  0  0  0
  161.7470  209.5430  149.8160 N   0  0  0  0  0  2  0  0  0  0  0  0
  162.3560  210.2870  152.0070 C   0  0  0  0  0  2  0  0  0  0  0  0
  161.9840  210.7360  150.6130 C   0  0  0  0  0  2  0  0  0  0  0  0
  160.4580  207.5890  153.7040 O   0  0  0  0  0  1  0  0  0  0  0  0
  160.6770  208.8750  153.1970 C   0  0  1  0  0  3  0  0  0  0  0  0
  160.9120  209.8960  154.3200 C   0  0  1  0  0  3  0  0  0  0  0  0
  158.7410  211.1690  157.2270 C   0  0  0  0  0  1  0  0  0  0  0  0
  158.2520  210.7010  153.9900 S   0  0  0  0  0  0  0  0  0  0  0  0
  159.6060  210.2000  155.1000 C   0  0  2  0  0  3  0  0  0  0  0  0
  159.7030  212.9440  155.3800 S   0  0  0  0  0  0  0  0  0  0  0  0
  159.7900  211.2920  156.1390 C   0  0  1  0  0  3  0  0  0  0  0  0
  159.8130  212.5270  152.6750 C   0  0  0  0  0  1  0  0  0  0  0  0
  158.8660  212.4070  153.8530 C   0  0  1  0  0  3  0  0  0  0  0  0
  161.6800  208.8670  156.3990 C   0  0  0  0  0  1  0  0  0  0  0  0
  162.0710  209.5130  155.1500 N   0  0  0  0  0  0  0  0  0  0  0  0
  162.8380  210.7030  155.4750 C   0  0  0  0  0  1  0  0  0  0  0  0
  161.7970  207.1660  150.3520 C   0  0  0  0  0  2  0  0  0  0  0  0
  161.5070  206.9020  148.8860 C   0  0  1  0  0  3  0  0  0  0  0  0
  162.6930  206.9510  148.1520 O   0  0  0  0  0  1  0  0  0  0  0  0
  160.8660  205.5350  148.7420 C   0  0  0  0  0  2  0  0  0  0  0  0
  160.6120  201.9300  146.2700 C   0  0  0  0  0  0  0  0  0  0  0  0
  160.4550  201.3410  147.6020 C   0  0  0  0  0  3  0  0  0  0  0  0
  160.0830  200.9980  144.8860 Cl  0  0  0  0  0  0  0  0  0  0  0  0
  161.9080  204.4910  148.3820 C   0  0  1  0  0  3  0  0  0  0  0  0
  160.8350  201.9860  148.8310 C   0  0  0  0  0  3  0  0  0  0  0  0
  161.1710  203.2360  146.0350 C   0  0  0  0  0  3  0  0  0  0  0  0
  161.3560  203.2110  148.5470 C   0  0  0  0  0  0  0  0  0  0  0  0
  161.5150  203.8020  147.2230 C   0  0  0  0  0  0  0  0  0  0  0  0
  1  7  1  1  0  0  0
  2 19  1  6  0  0  0
  2  1  1  0  0  0  0
  3  5  1  0  0  0  0
  3  2  1  0  0  0  0
  4  1  1  0  0  0  0
  5  4  1  0  0  0  0
  7  6  1  1  0  0  0
  7  8  1  0  0  0  0
  8 17  1  1  0  0  0
 10 11  1  0  0  0  0
 11  8  1  6  0  0  0
 11 13  1  0  0  0  0
 12 13  1  0  0  0  0
 13  9  1  1  0  0  0
 15 14  1  6  0  0  0
 15 10  1  0  0  0  0
 15 12  1  0  0  0  0
 17 18  1  0  0  0  0
 17 16  1  0  0  0  0
 20 21  1  6  0  0  0
 20 19  1  0  0  0  0
 22 20  1  0  0  0  0
 23 24  1  0  0  0  0
 24 27  2  0  0  0  0
 25 23  1  0  0  0  0
 26 29  1  0  0  0  0
 26 22  1  1  0  0  0
 28 23  2  0  0  0  0
 28 30  1  0  0  0  0
 29 27  1  0  0  0  0
 30 26  1  0  0  0  0
 30 29  2  0  0  0  0
M  END
>  <MODEL>
6

>  <REMARK>
 VINA RESULT:      -5.5      2.286      3.414
  Name = 
  8 active torsions:
  status: ('A' for Active; 'I' for Inactive)
    1  A    between atoms: C_3  and  C_11
    2  A    between atoms: C_3  and  C_19
    3  A    between atoms: N_4  and  C_13
    4  A    between atoms: C_7  and  C_30
    5  A    between atoms: C_8  and  C_13
    6  A    between atoms: C_10  and  C_25
    7  A    between atoms: C_11  and  C_25
    8  A    between atoms: C_13  and  C_30
                            x       y       z     vdW  Elec       q    Type
                         _______ _______ _______ _____ _____    ______ ____

>  <TORSDO>
F 8

$$$$
=
 OpenBabel11052421513D

 30 33  0  0  1  0  0  0  0  0999 V2000
  161.6710  205.4490  150.3960 C   0  0  1  0  0  3  0  0  0  0  0  0
  161.4880  206.8190  151.0300 C   0  0  1  0  0  3  0  0  0  0  0  0
  161.7160  206.6880  152.4620 N   0  0  0  0  0  2  0  0  0  0  0  0
  161.7660  204.4790  151.5470 C   0  0  0  0  0  2  0  0  0  0  0  0
  161.4450  205.2950  152.7780 C   0  0  0  0  0  2  0  0  0  0  0  0
  159.7420  206.1780  149.1050 O   0  0  0  0  0  1  0  0  0  0  0  0
  160.5090  205.0670  149.4730 C   0  0  1  0  0  3  0  0  0  0  0  0
  160.9650  204.2600  148.2500 C   0  0  1  0  0  3  0  0  0  0  0  0
  164.1800  204.3600  146.1420 C   0  0  0  0  0  1  0  0  0  0  0  0
  161.9060  206.5930  147.0230 S   0  0  0  0  0  0  0  0  0  0  0  0
  162.2180  204.8900  147.5850 C   0  0  2  0  0  3  0  0  0  0  0  0
  161.7440  204.4640  144.8990 S   0  0  0  0  0  0  0  0  0  0  0  0
  162.7110  204.0850  146.3940 C   0  0  1  0  0  3  0  0  0  0  0  0
  159.5770  205.9020  145.7580 C   0  0  0  0  0  1  0  0  0  0  0  0
  161.0660  206.0430  145.5070 C   0  0  1  0  0  3  0  0  0  0  0  0
  160.8220  201.9660  147.4190 C   0  0  0  0  0  1  0  0  0  0  0  0
  161.0740  202.8230  148.5720 N   0  0  0  0  0  0  0  0  0  0  0  0
  160.1070  202.4920  149.6040 C   0  0  0  0  0  1  0  0  0  0  0  0
  162.4780  207.8020  150.4320 C   0  0  0  0  0  2  0  0  0  0  0  0
  161.9300  209.2140  150.5170 C   0  0  1  0  0  3  0  0  0  0  0  0
  162.6170  209.9300  151.4990 O   0  0  0  0  0  1  0  0  0  0  0  0
  162.0940  209.8940  149.1710 C   0  0  0  0  0  2  0  0  0  0  0  0
  161.2920  212.9530  146.1410 C   0  0  0  0  0  0  0  0  0  0  0  0
  162.7300  213.1530  146.3360 C   0  0  0  0  0  3  0  0  0  0  0  0
  160.5620  213.5700  144.6750 Cl  0  0  0  0  0  0  0  0  0  0  0  0
  161.8490  211.3890  149.2950 C   0  0  1  0  0  3  0  0  0  0  0  0
  163.4710  212.6980  147.4830 C   0  0  0  0  0  3  0  0  0  0  0  0
  160.4460  212.2700  147.0850 C   0  0  0  0  0  3  0  0  0  0  0  0
  162.6220  212.0640  148.3360 C   0  0  0  0  0  0  0  0  0  0  0  0
  161.1900  211.8620  148.1490 C   0  0  0  0  0  0  0  0  0  0  0  0
  1  7  1  6  0  0  0
  1  2  1  0  0  0  0
  1  4  1  0  0  0  0
  2 19  1  6  0  0  0
  2  3  1  0  0  0  0
  3  5  1  0  0  0  0
  4  5  1  0  0  0  0
  7  6  1  6  0  0  0
  8 17  1  1  0  0  0
  8  7  1  0  0  0  0
 10 11  1  0  0  0  0
 11  8  1  6  0  0  0
 12 15  1  0  0  0  0
 12 13  1  0  0  0  0
 13  9  1  6  0  0  0
 13 11  1  0  0  0  0
 15 14  1  1  0  0  0
 15 10  1  0  0  0  0
 16 17  1  0  0  0  0
 17 18  1  0  0  0  0
 19 20  1  0  0  0  0
 20 21  1  1  0  0  0
 22 20  1  0  0  0  0
 23 24  2  0  0  0  0
 23 28  1  0  0  0  0
 24 27  1  0  0  0  0
 25 23  1  0  0  0  0
 26 22  1  6  0  0  0
 27 29  2  0  0  0  0
 28 30  2  0  0  0  0
 29 26  1  0  0  0  0
 30 29  1  0  0  0  0
 30 26  1  0  0  0  0
M  END
>  <MODEL>
7

>  <REMARK>
 VINA RESULT:      -5.1      5.449      9.061
  Name = 
  8 active torsions:
  status: ('A' for Active; 'I' for Inactive)
    1  A    between atoms: C_3  and  C_11
    2  A    between atoms: C_3  and  C_19
    3  A    between atoms: N_4  and  C_13
    4  A    between atoms: C_7  and  C_30
    5  A    between atoms: C_8  and  C_13
    6  A    between atoms: C_10  and  C_25
    7  A    between atoms: C_11  and  C_25
    8  A    between atoms: C_13  and  C_30
                            x       y       z     vdW  Elec       q    Type
                         _______ _______ _______ _____ _____    ______ ____

>  <TORSDO>
F 8

$$$$
=
 OpenBabel11052421513D

 30 33  0  0  1  0  0  0  0  0999 V2000
  160.8220  208.1410  153.0770 C   0  0  1  0  0  3  0  0  0  0  0  0
  161.7910  207.3790  152.1880 C   0  0  1  0  0  3  0  0  0  0  0  0
  162.0200  206.0700  152.7840 N   0  0  0  0  0  2  0  0  0  0  0  0
  160.6980  207.3200  154.3380 C   0  0  0  0  0  2  0  0  0  0  0  0
  161.7360  206.2300  154.2020 C   0  0  0  0  0  2  0  0  0  0  0  0
  161.9790  210.1470  152.3310 O   0  0  0  0  0  1  0  0  0  0  0  0
  161.3150  209.5540  153.4100 C   0  0  1  0  0  3  0  0  0  0  0  0
  160.1990  210.4550  153.9570 C   0  0  1  0  0  3  0  0  0  0  0  0
  160.1270  213.5600  156.2260 C   0  0  0  0  0  1  0  0  0  0  0  0
  161.9180  210.7820  156.1420 S   0  0  0  0  0  0  0  0  0  0  0  0
  160.7530  211.5130  154.9490 C   0  0  2  0  0  3  0  0  0  0  0  0
  159.1080  211.1920  157.1420 S   0  0  0  0  0  0  0  0  0  0  0  0
  159.6520  212.2070  155.7330 C   0  0  1  0  0  3  0  0  0  0  0  0
  160.2220  208.7200  156.7540 C   0  0  0  0  0  1  0  0  0  0  0  0
  160.5850  210.1260  157.1900 C   0  0  1  0  0  3  0  0  0  0  0  0
  159.8760  212.2470  152.3270 C   0  0  0  0  0  1  0  0  0  0  0  0
  159.3650  210.9900  152.8620 N   0  0  0  0  0  0  0  0  0  0  0  0
  158.0190  211.2220  153.3590 C   0  0  0  0  0  1  0  0  0  0  0  0
  161.2020  207.2210  150.7980 C   0  0  0  0  0  2  0  0  0  0  0  0
  161.1780  205.7570  150.4020 C   0  0  1  0  0  3  0  0  0  0  0  0
  160.2120  205.0800  151.1480 O   0  0  0  0  0  1  0  0  0  0  0  0
  160.8610  205.6460  148.9230 C   0  0  0  0  0  2  0  0  0  0  0  0
  161.5780  205.1490  144.6310 C   0  0  0  0  0  0  0  0  0  0  0  0
  161.1310  203.7970  144.9760 C   0  0  0  0  0  3  0  0  0  0  0  0
  161.5130  205.6380  142.9520 Cl  0  0  0  0  0  0  0  0  0  0  0  0
  162.0490  205.0800  148.1630 C   0  0  1  0  0  3  0  0  0  0  0  0
  161.1190  203.2550  146.3090 C   0  0  0  0  0  3  0  0  0  0  0  0
  162.0630  206.1000  145.5970 C   0  0  0  0  0  3  0  0  0  0  0  0
  161.5860  204.1960  147.1750 C   0  0  0  0  0  0  0  0  0  0  0  0
  162.0340  205.5420  146.8370 C   0  0  0  0  0  0  0  0  0  0  0  0
  1  7  1  1  0  0  0
  1  4  1  0  0  0  0
  2 19  1  6  0  0  0
  2  3  1  0  0  0  0
  2  1  1  0  0  0  0
  3  5  1  0  0  0  0
  5  4  1  0  0  0  0
  7  6  1  6  0  0  0
  7  8  1  0  0  0  0
  8 17  1  6  0  0  0
 10 15  1  0  0  0  0
 11  8  1  1  0  0  0
 11 13  1  0  0  0  0
 11 10  1  0  0  0  0
 12 15  1  0  0  0  0
 13  9  1  1  0  0  0
 13 12  1  0  0  0  0
 15 14  1  6  0  0  0
 16 17  1  0  0  0  0
 17 18  1  0  0  0  0
 20 19  1  0  0  0  0
 20 21  1  1  0  0  0
 22 20  1  0  0  0  0
 23 24  2  0  0  0  0
 23 28  1  0  0  0  0
 24 27  1  0  0  0  0
 25 23  1  0  0  0  0
 26 22  1  1  0  0  0
 27 29  2  0  0  0  0
 28 30  2  0  0  0  0
 29 26  1  0  0  0  0
 30 29  1  0  0  0  0
 30 26  1  0  0  0  0
M  END
>  <MODEL>
8

>  <REMARK>
 VINA RESULT:      -5.0      2.666      3.909
  Name = 
  8 active torsions:
  status: ('A' for Active; 'I' for Inactive)
    1  A    between atoms: C_3  and  C_11
    2  A    between atoms: C_3  and  C_19
    3  A    between atoms: N_4  and  C_13
    4  A    between atoms: C_7  and  C_30
    5  A    between atoms: C_8  and  C_13
    6  A    between atoms: C_10  and  C_25
    7  A    between atoms: C_11  and  C_25
    8  A    between atoms: C_13  and  C_30
                            x       y       z     vdW  Elec       q    Type
                         _______ _______ _______ _____ _____    ______ ____

>  <TORSDO>
F 8

$$$$
=
 OpenBabel11052421513D

 30 33  0  0  1  0  0  0  0  0999 V2000
  161.6230  204.9920  150.5070 C   0  0  1  0  0  3  0  0  0  0  0  0
  161.5620  206.3300  151.2280 C   0  0  1  0  0  3  0  0  0  0  0  0
  161.6660  206.0770  152.6580 N   0  0  0  0  0  2  0  0  0  0  0  0
  161.5130  203.9440  151.5870 C   0  0  0  0  0  2  0  0  0  0  0  0
  161.2030  204.7120  152.8510 C   0  0  0  0  0  2  0  0  0  0  0  0
  159.8610  206.0360  149.1930 O   0  0  0  0  0  1  0  0  0  0  0  0
  160.4940  204.8220  149.4840 C   0  0  1  0  0  3  0  0  0  0  0  0
  160.9540  204.1000  148.2100 C   0  0  1  0  0  3  0  0  0  0  0  0
  164.2050  204.3230  146.1680 C   0  0  0  0  0  1  0  0  0  0  0  0
  161.8910  206.4930  147.1000 S   0  0  0  0  0  0  0  0  0  0  0  0
  162.2110  204.7710  147.5950 C   0  0  2  0  0  3  0  0  0  0  0  0
  161.7910  204.4540  144.8860 S   0  0  0  0  0  0  0  0  0  0  0  0
  162.7340  204.0220  146.3810 C   0  0  1  0  0  3  0  0  0  0  0  0
  159.5930  205.8320  145.7640 C   0  0  0  0  0  1  0  0  0  0  0  0
  161.0840  205.9980  145.5470 C   0  0  1  0  0  3  0  0  0  0  0  0
  160.8290  201.8710  147.2180 C   0  0  0  0  0  1  0  0  0  0  0  0
  161.0570  202.6440  148.4330 N   0  0  0  0  0  0  0  0  0  0  0  0
  160.0690  202.2430  149.4190 C   0  0  0  0  0  1  0  0  0  0  0  0
  162.7060  207.2160  150.7710 C   0  0  0  0  0  2  0  0  0  0  0  0
  162.2450  208.6570  150.6720 C   0  0  1  0  0  3  0  0  0  0  0  0
  161.7460  208.9080  149.3920 O   0  0  0  0  0  1  0  0  0  0  0  0
  161.1650  208.9080  151.7060 C   0  0  0  0  0  2  0  0  0  0  0  0
  158.8530  211.0680  154.7350 C   0  0  0  0  0  0  0  0  0  0  0  0
  158.6190  211.9270  153.5700 C   0  0  0  0  0  3  0  0  0  0  0  0
  157.7510  211.1930  156.0880 Cl  0  0  0  0  0  0  0  0  0  0  0  0
  161.5090  210.1200  152.5550 C   0  0  1  0  0  3  0  0  0  0  0  0
  159.4320  211.9330  152.3830 C   0  0  0  0  0  3  0  0  0  0  0  0
  159.9350  210.1230  154.8240 C   0  0  0  0  0  3  0  0  0  0  0  0
  160.4350  211.0240  152.5270 C   0  0  0  0  0  0  0  0  0  0  0  0
  160.6730  210.1680  153.6830 C   0  0  0  0  0  0  0  0  0  0  0  0
  1  7  1  6  0  0  0
  1  2  1  0  0  0  0
  1  4  1  0  0  0  0
  2 19  1  6  0  0  0
  2  3  1  0  0  0  0
  3  5  1  0  0  0  0
  4  5  1  0  0  0  0
  7  6  1  6  0  0  0
  8 17  1  1  0  0  0
  8  7  1  0  0  0  0
 10 11  1  0  0  0  0
 11  8  1  6  0  0  0
 12 15  1  0  0  0  0
 12 13  1  0  0  0  0
 13  9  1  6  0  0  0
 13 11  1  0  0  0  0
 15 14  1  1  0  0  0
 15 10  1  0  0  0  0
 16 17  1  0  0  0  0
 17 18  1  0  0  0  0
 20 21  1  6  0  0  0
 20 19  1  0  0  0  0
 20 22  1  0  0  0  0
 23 28  1  0  0  0  0
 23 25  1  0  0  0  0
 24 23  2  0  0  0  0
 26 22  1  6  0  0  0
 26 30  1  0  0  0  0
 27 29  2  0  0  0  0
 27 24  1  0  0  0  0
 29 26  1  0  0  0  0
 29 30  1  0  0  0  0
 30 28  2  0  0  0  0
M  END
>  <MODEL>
9

>  <REMARK>
 VINA RESULT:      -4.9      4.123      8.978
  Name = 
  8 active torsions:
  status: ('A' for Active; 'I' for Inactive)
    1  A    between atoms: C_3  and  C_11
    2  A    between atoms: C_3  and  C_19
    3  A    between atoms: N_4  and  C_13
    4  A    between atoms: C_7  and  C_30
    5  A    between atoms: C_8  and  C_13
    6  A    between atoms: C_10  and  C_25
    7  A    between atoms: C_11  and  C_25
    8  A    between atoms: C_13  and  C_30
                            x       y       z     vdW  Elec       q    Type
                         _______ _______ _______ _____ _____    ______ ____

>  <TORSDO>
F 8

$$$$
