=
 OpenBabel11062409273D

 34 38  0  0  1  0  0  0  0  0999 V2000
  161.5430  207.8110  150.3330 C   0  0  1  0  0  3  0  0  0  0  0  0
  161.1640  204.1920  149.5900 C   0  0  0  0  0  3  0  0  0  0  0  0
  161.0400  205.3560  151.5520 C   0  0  0  0  0  3  0  0  0  0  0  0
  161.9620  210.3050  150.5630 C   0  0  0  0  0  0  0  0  0  0  0  0
  161.7460  209.1470  149.6380 C   0  0  0  0  0  3  0  0  0  0  0  0
  161.4290  208.8880  152.4840 C   0  0  0  0  0  0  0  0  0  0  0  0
  161.2230  208.8800  153.8590 O   0  0  0  0  0  1  0  0  0  0  0  0
  161.7650  210.1810  151.8720 C   0  0  0  0  0  3  0  0  0  0  0  0
  161.0860  206.5010  152.3340 C   0  0  0  0  0  0  0  0  0  0  0  0
  161.3480  207.7550  151.7410 C   0  0  0  0  0  0  0  0  0  0  0  0
  160.8740  206.3580  153.7020 O   0  0  0  0  0  1  0  0  0  0  0  0
  161.3070  203.7660  148.1960 C   0  0  0  0  0  3  0  0  0  0  0  0
  161.5530  204.4830  147.1020 C   0  0  0  0  0  0  0  0  0  0  0  0
  161.7410  205.9360  147.0880 C   0  0  0  0  0  3  0  0  0  0  0  0
  161.2410  205.3880  150.1750 C   0  0  0  0  0  0  0  0  0  0  0  0
  161.7160  206.8070  148.0890 C   0  0  0  0  0  3  0  0  0  0  0  0
  161.4940  206.6300  149.5420 C   0  0  0  0  0  0  0  0  0  0  0  0
  161.6450  203.7770  145.8030 C   0  0  0  0  0  0  0  0  0  0  0  0
  160.9020  202.5060  145.5470 C   0  0  0  0  0  1  0  0  0  0  0  0
  162.3630  204.2450  144.8790 O   0  0  0  0  0  0  0  0  0  0  0  0
  162.2790  211.6530  149.9720 C   0  0  0  0  0  2  0  0  0  0  0  0
  162.5540  212.6600  146.3690 C   0  0  0  0  0  2  0  0  0  0  0  0
  160.5170  212.3190  148.4730 C   0  0  0  0  0  2  0  0  0  0  0  0
  159.3360  213.1290  144.4110 C   0  0  0  0  0  0  0  0  0  0  0  0
  160.6950  213.0580  144.7440 C   0  0  0  0  0  3  0  0  0  0  0  0
  161.0910  212.7870  146.0570 C   0  0  0  0  0  0  0  0  0  0  0  0
  158.7590  212.6370  146.7180 C   0  0  0  0  0  3  0  0  0  0  0  0
  160.1150  212.5530  147.0450 C   0  0  0  0  0  0  0  0  0  0  0  0
  158.3710  212.9180  145.4060 C   0  0  0  0  0  3  0  0  0  0  0  0
  161.8870  211.8040  148.5630 N   0  0  0  0  0  0  0  0  0  0  0  0
  162.8060  212.7140  147.8740 C   0  0  0  0  0  2  0  0  0  0  0  0
  158.9300  213.4210  143.0260 C   0  0  0  0  0  0  0  0  0  0  0  0
  159.3860  212.7370  142.0700 O   0  0  0  0  0  0  0  0  0  0  0  0
  158.0400  214.4530  142.7590 O   0  0  0  0  0  1  0  0  0  0  0  0
  1  5  1  6  0  0  0
  1 10  1  0  0  0  0
  2 15  1  0  0  0  0
  3  9  1  0  0  0  0
  4  8  1  0  0  0  0
  5  4  2  0  0  0  0
  6  7  1  0  0  0  0
  8  6  2  0  0  0  0
  9 11  1  0  0  0  0
 10  9  2  0  0  0  0
 10  6  1  0  0  0  0
 12  2  2  0  0  0  0
 13 12  1  0  0  0  0
 14 13  2  0  0  0  0
 14 16  1  0  0  0  0
 15  3  2  0  0  0  0
 16 17  2  0  0  0  0
 17 15  1  0  0  0  0
 17  1  1  0  0  0  0
 18 13  1  0  0  0  0
 19 18  1  0  0  0  0
 20 18  2  0  0  0  0
 21  4  1  0  0  0  0
 22 31  1  0  0  0  0
 23 30  1  0  0  0  0
 24 25  2  0  0  0  0
 24 29  1  0  0  0  0
 25 26  1  0  0  0  0
 26 22  1  0  0  0  0
 26 28  2  0  0  0  0
 27 28  1  0  0  0  0
 28 23  1  0  0  0  0
 29 27  2  0  0  0  0
 30 21  1  0  0  0  0
 31 30  1  0  0  0  0
 32 24  1  0  0  0  0
 33 32  2  0  0  0  0
 34 32  1  0  0  0  0
M  END
>  <MODEL>
1

>  <REMARK>
 VINA RESULT:      -9.5      0.000      0.000
  Name = 
  4 active torsions:
  status: ('A' for Active; 'I' for Inactive)
    1  A    between atoms: C_3  and  C_25
    2  A    between atoms: C_7  and  C_11
    3  A    between atoms: C_8  and  C_18
    4  A    between atoms: C_18  and  N_30
                            x       y       z     vdW  Elec       q    Type
                         _______ _______ _______ _____ _____    ______ ____

>  <TORSDO>
F 4

$$$$
=
 OpenBabel11062409273D

 34 38  0  0  1  0  0  0  0  0999 V2000
  160.8980  209.2780  152.7810 C   0  0  1  0  0  3  0  0  0  0  0  0
  160.5730  212.6120  151.1780 C   0  0  0  0  0  3  0  0  0  0  0  0
  159.9200  211.8490  153.2300 C   0  0  0  0  0  3  0  0  0  0  0  0
  161.1540  206.8810  153.5790 C   0  0  0  0  0  0  0  0  0  0  0  0
  161.5030  207.9050  152.5430 C   0  0  0  0  0  3  0  0  0  0  0  0
  160.1070  208.6110  154.9550 C   0  0  0  0  0  0  0  0  0  0  0  0
  159.5080  208.8680  156.1830 O   0  0  0  0  0  1  0  0  0  0  0  0
  160.5500  207.2310  154.7110 C   0  0  0  0  0  3  0  0  0  0  0  0
  159.7780  210.8890  154.2230 C   0  0  0  0  0  0  0  0  0  0  0  0
  160.2570  209.5780  154.0150 C   0  0  0  0  0  0  0  0  0  0  0  0
  159.1490  211.2700  155.4030 O   0  0  0  0  0  1  0  0  0  0  0  0
  161.1090  212.7710  149.8240 C   0  0  0  0  0  3  0  0  0  0  0  0
  161.7250  211.8910  149.0380 C   0  0  0  0  0  0  0  0  0  0  0  0
  161.9990  210.5000  149.4070 C   0  0  0  0  0  3  0  0  0  0  0  0
  160.5310  211.5720  152.0100 C   0  0  0  0  0  0  0  0  0  0  0  0
  161.7150  209.8440  150.5260 C   0  0  0  0  0  3  0  0  0  0  0  0
  161.0360  210.2700  151.7700 C   0  0  0  0  0  0  0  0  0  0  0  0
  162.1680  212.3350  147.6960 C   0  0  0  0  0  0  0  0  0  0  0  0
  161.1900  212.6350  146.6080 C   0  0  0  0  0  1  0  0  0  0  0  0
  163.3970  212.4670  147.4490 O   0  0  0  0  0  0  0  0  0  0  0  0
  161.6160  205.4630  153.3780 C   0  0  0  0  0  2  0  0  0  0  0  0
  161.2150  205.6750  149.6550 C   0  0  0  0  0  2  0  0  0  0  0  0
  161.1520  203.6820  151.8260 C   0  0  0  0  0  2  0  0  0  0  0  0
  160.9780  202.4230  147.7100 C   0  0  0  0  0  0  0  0  0  0  0  0
  161.0330  203.7880  148.0240 C   0  0  0  0  0  3  0  0  0  0  0  0
  161.0980  204.2090  149.3550 C   0  0  0  0  0  0  0  0  0  0  0  0
  161.0720  201.8910  150.0790 C   0  0  0  0  0  3  0  0  0  0  0  0
  161.1410  203.2520  150.3880 C   0  0  0  0  0  0  0  0  0  0  0  0
  160.9970  201.4780  148.7460 C   0  0  0  0  0  3  0  0  0  0  0  0
  161.6840  205.0410  151.9710 N   0  0  0  0  0  0  0  0  0  0  0  0
  160.9250  205.9650  151.1250 C   0  0  0  0  0  2  0  0  0  0  0  0
  160.9030  201.9920  146.3050 C   0  0  0  0  0  0  0  0  0  0  0  0
  160.8020  200.7680  146.0170 O   0  0  0  0  0  1  0  0  0  0  0  0
  160.9420  202.9290  145.2810 O   0  0  0  0  0  0  0  0  0  0  0  0
  1  5  1  1  0  0  0
  1 10  1  0  0  0  0
  2 15  1  0  0  0  0
  3  9  1  0  0  0  0
  4  8  1  0  0  0  0
  5  4  2  0  0  0  0
  6  7  1  0  0  0  0
  8  6  2  0  0  0  0
  9 11  1  0  0  0  0
 10  9  2  0  0  0  0
 10  6  1  0  0  0  0
 12  2  2  0  0  0  0
 13 14  2  0  0  0  0
 13 12  1  0  0  0  0
 14 16  1  0  0  0  0
 15  3  2  0  0  0  0
 16 17  2  0  0  0  0
 17 15  1  0  0  0  0
 17  1  1  0  0  0  0
 18 13  1  0  0  0  0
 19 18  1  0  0  0  0
 20 18  2  0  0  0  0
 21  4  1  0  0  0  0
 22 31  1  0  0  0  0
 23 30  1  0  0  0  0
 24 25  2  0  0  0  0
 24 29  1  0  0  0  0
 25 26  1  0  0  0  0
 26 22  1  0  0  0  0
 26 28  2  0  0  0  0
 27 28  1  0  0  0  0
 28 23  1  0  0  0  0
 29 27  2  0  0  0  0
 30 21  1  0  0  0  0
 31 30  1  0  0  0  0
 32 24  1  0  0  0  0
 33 32  1  0  0  0  0
 34 32  2  0  0  0  0
M  END
>  <MODEL>
2

>  <REMARK>
 VINA RESULT:      -9.3      2.793      8.076
  Name = 
  4 active torsions:
  status: ('A' for Active; 'I' for Inactive)
    1  A    between atoms: C_3  and  C_25
    2  A    between atoms: C_7  and  C_11
    3  A    between atoms: C_8  and  C_18
    4  A    between atoms: C_18  and  N_30
                            x       y       z     vdW  Elec       q    Type
                         _______ _______ _______ _____ _____    ______ ____

>  <TORSDO>
F 4

$$$$
=
 OpenBabel11062409273D

 34 38  0  0  1  0  0  0  0  0999 V2000
  161.1950  206.5470  150.8170 C   0  0  1  0  0  3  0  0  0  0  0  0
  161.2360  203.6470  148.4980 C   0  0  0  0  0  3  0  0  0  0  0  0
  161.1800  203.7610  150.7790 C   0  0  0  0  0  3  0  0  0  0  0  0
  161.2890  208.7000  152.1600 C   0  0  0  0  0  0  0  0  0  0  0  0
  161.1300  208.0650  150.8130 C   0  0  0  0  0  3  0  0  0  0  0  0
  161.1840  206.5020  153.2250 C   0  0  0  0  0  0  0  0  0  0  0  0
  161.1410  205.8390  154.4460 O   0  0  0  0  0  1  0  0  0  0  0  0
  161.2650  207.9680  153.2690 C   0  0  0  0  0  3  0  0  0  0  0  0
  161.1590  204.4190  152.0000 C   0  0  0  0  0  0  0  0  0  0  0  0
  161.1750  205.8300  152.0460 C   0  0  0  0  0  0  0  0  0  0  0  0
  161.1280  203.6410  153.1530 O   0  0  0  0  0  1  0  0  0  0  0  0
  161.2740  203.9270  147.0610 C   0  0  0  0  0  3  0  0  0  0  0  0
  161.2900  205.0890  146.4140 C   0  0  0  0  0  0  0  0  0  0  0  0
  161.2730  206.4010  147.0680 C   0  0  0  0  0  3  0  0  0  0  0  0
  161.2150  204.4440  149.5670 C   0  0  0  0  0  0  0  0  0  0  0  0
  161.2440  206.7090  148.3590 C   0  0  0  0  0  3  0  0  0  0  0  0
  161.2190  205.8610  149.5720 C   0  0  0  0  0  0  0  0  0  0  0  0
  161.3280  205.0720  144.9340 C   0  0  0  0  0  0  0  0  0  0  0  0
  160.4000  204.2160  144.1360 C   0  0  0  0  0  1  0  0  0  0  0  0
  162.1570  205.7920  144.3150 O   0  0  0  0  0  0  0  0  0  0  0  0
  161.3460  210.2020  152.2480 C   0  0  0  0  0  2  0  0  0  0  0  0
  158.5810  212.7310  152.0810 C   0  0  0  0  0  2  0  0  0  0  0  0
  159.8760  210.9210  154.0130 C   0  0  0  0  0  2  0  0  0  0  0  0
  156.3010  213.0640  155.0980 C   0  0  0  0  0  0  0  0  0  0  0  0
  156.8720  213.2500  153.8320 C   0  0  0  0  0  3  0  0  0  0  0  0
  158.0270  212.5540  153.4650 C   0  0  0  0  0  0  0  0  0  0  0  0
  158.0430  211.4580  155.6320 C   0  0  0  0  0  3  0  0  0  0  0  0
  158.6030  211.6350  154.3640 C   0  0  0  0  0  0  0  0  0  0  0  0
  156.8940  212.1650  155.9950 C   0  0  0  0  0  3  0  0  0  0  0  0
  160.0590  210.8410  152.5610 N   0  0  0  0  0  0  0  0  0  0  0  0
  160.0020  212.1840  151.9780 C   0  0  0  0  0  2  0  0  0  0  0  0
  155.0870  213.8070  155.4760 C   0  0  0  0  0  0  0  0  0  0  0  0
  154.7240  213.8640  156.6810 O   0  0  0  0  0  1  0  0  0  0  0  0
  154.3310  214.4530  154.5060 O   0  0  0  0  0  0  0  0  0  0  0  0
  1  5  1  6  0  0  0
  1 10  1  0  0  0  0
  2 15  1  0  0  0  0
  3  9  1  0  0  0  0
  4 21  1  0  0  0  0
  4  8  1  0  0  0  0
  5  4  2  0  0  0  0
  6  8  2  0  0  0  0
  6  7  1  0  0  0  0
  9 10  2  0  0  0  0
  9 11  1  0  0  0  0
 10  6  1  0  0  0  0
 12  2  2  0  0  0  0
 13 12  1  0  0  0  0
 13 14  2  0  0  0  0
 14 16  1  0  0  0  0
 15 17  1  0  0  0  0
 15  3  2  0  0  0  0
 16 17  2  0  0  0  0
 17  1  1  0  0  0  0
 18 13  1  0  0  0  0
 19 18  1  0  0  0  0
 20 18  2  0  0  0  0
 21 30  1  0  0  0  0
 22 26  1  0  0  0  0
 23 28  1  0  0  0  0
 24 32  1  0  0  0  0
 24 29  1  0  0  0  0
 25 24  2  0  0  0  0
 26 25  1  0  0  0  0
 26 28  2  0  0  0  0
 27 29  2  0  0  0  0
 28 27  1  0  0  0  0
 30 23  1  0  0  0  0
 31 22  1  0  0  0  0
 31 30  1  0  0  0  0
 32 33  1  0  0  0  0
 34 32  2  0  0  0  0
M  END
>  <MODEL>
3

>  <REMARK>
 VINA RESULT:      -9.2      4.209      6.185
  Name = 
  4 active torsions:
  status: ('A' for Active; 'I' for Inactive)
    1  A    between atoms: C_3  and  C_25
    2  A    between atoms: C_7  and  C_11
    3  A    between atoms: C_8  and  C_18
    4  A    between atoms: C_18  and  N_30
                            x       y       z     vdW  Elec       q    Type
                         _______ _______ _______ _____ _____    ______ ____

>  <TORSDO>
F 4

$$$$
=
 OpenBabel11062409273D

 34 38  0  0  1  0  0  0  0  0999 V2000
  161.5720  207.2090  150.8670 C   0  0  1  0  0  3  0  0  0  0  0  0
  161.2980  205.0700  147.8440 C   0  0  0  0  0  3  0  0  0  0  0  0
  161.6930  207.3070  148.0850 C   0  0  0  0  0  3  0  0  0  0  0  0
  161.5960  208.4420  153.0870 C   0  0  0  0  0  0  0  0  0  0  0  0
  161.5750  207.1200  152.3840 C   0  0  0  0  0  3  0  0  0  0  0  0
  161.9490  209.5860  150.9550 C   0  0  0  0  0  0  0  0  0  0  0  0
  162.2030  210.8180  150.3620 O   0  0  0  0  0  1  0  0  0  0  0  0
  161.8170  209.5690  152.4180 C   0  0  0  0  0  3  0  0  0  0  0  0
  161.8730  208.4760  148.8100 C   0  0  0  0  0  0  0  0  0  0  0  0
  161.8070  208.4540  150.2200 C   0  0  0  0  0  0  0  0  0  0  0  0
  162.1080  209.6480  148.0980 O   0  0  0  0  0  1  0  0  0  0  0  0
  161.0320  203.6430  148.0430 C   0  0  0  0  0  3  0  0  0  0  0  0
  160.8720  202.9500  149.1680 C   0  0  0  0  0  0  0  0  0  0  0  0
  160.9340  203.5270  150.5130 C   0  0  0  0  0  3  0  0  0  0  0  0
  161.4490  206.0820  148.6990 C   0  0  0  0  0  0  0  0  0  0  0  0
  161.1460  204.7820  150.8920 C   0  0  0  0  0  3  0  0  0  0  0  0
  161.3880  206.0170  150.1130 C   0  0  0  0  0  0  0  0  0  0  0  0
  160.6110  201.4960  149.0680 C   0  0  0  0  0  0  0  0  0  0  0  0
  161.3790  200.6250  148.1280 C   0  0  0  0  0  1  0  0  0  0  0  0
  159.7230  200.9630  149.7860 O   0  0  0  0  0  0  0  0  0  0  0  0
  161.4920  208.4640  154.5890 C   0  0  0  0  0  2  0  0  0  0  0  0
  159.2820  210.2790  157.0160 C   0  0  0  0  0  2  0  0  0  0  0  0
  159.6780  209.9720  154.1110 C   0  0  0  0  0  2  0  0  0  0  0  0
  156.9110  212.9010  155.6320 C   0  0  0  0  0  0  0  0  0  0  0  0
  157.6050  212.0670  156.5180 C   0  0  0  0  0  3  0  0  0  0  0  0
  158.5120  211.1180  156.0370 C   0  0  0  0  0  0  0  0  0  0  0  0
  158.0510  211.8440  153.7660 C   0  0  0  0  0  3  0  0  0  0  0  0
  158.7520  211.0220  154.6530 C   0  0  0  0  0  0  0  0  0  0  0  0
  157.1390  212.7830  154.2540 C   0  0  0  0  0  3  0  0  0  0  0  0
  160.6480  209.5420  155.1230 N   0  0  0  0  0  0  0  0  0  0  0  0
  159.9430  209.0890  156.3250 C   0  0  0  0  0  2  0  0  0  0  0  0
  155.9530  213.8920  156.1490 C   0  0  0  0  0  0  0  0  0  0  0  0
  156.1530  214.4530  157.2600 O   0  0  0  0  0  1  0  0  0  0  0  0
  154.8200  214.2210  155.4160 O   0  0  0  0  0  0  0  0  0  0  0  0
  1  5  1  1  0  0  0
  2 12  2  0  0  0  0
  2 15  1  0  0  0  0
  3 15  2  0  0  0  0
  3  9  1  0  0  0  0
  4 21  1  0  0  0  0
  5  4  2  0  0  0  0
  6  8  2  0  0  0  0
  7  6  1  0  0  0  0
  8  4  1  0  0  0  0
  9 10  2  0  0  0  0
 10  1  1  0  0  0  0
 10  6  1  0  0  0  0
 11  9  1  0  0  0  0
 12 13  1  0  0  0  0
 13 14  2  0  0  0  0
 14 16  1  0  0  0  0
 15 17  1  0  0  0  0
 17  1  1  0  0  0  0
 17 16  2  0  0  0  0
 18 13  1  0  0  0  0
 18 20  2  0  0  0  0
 19 18  1  0  0  0  0
 21 30  1  0  0  0  0
 23 28  1  0  0  0  0
 23 30  1  0  0  0  0
 24 32  1  0  0  0  0
 24 25  1  0  0  0  0
 26 25  2  0  0  0  0
 26 22  1  0  0  0  0
 27 29  1  0  0  0  0
 27 28  2  0  0  0  0
 28 26  1  0  0  0  0
 29 24  2  0  0  0  0
 30 31  1  0  0  0  0
 31 22  1  0  0  0  0
 32 33  1  0  0  0  0
 34 32  2  0  0  0  0
M  END
>  <MODEL>
4

>  <REMARK>
 VINA RESULT:      -9.1      4.292      7.191
  Name = 
  4 active torsions:
  status: ('A' for Active; 'I' for Inactive)
    1  A    between atoms: C_3  and  C_25
    2  A    between atoms: C_7  and  C_11
    3  A    between atoms: C_8  and  C_18
    4  A    between atoms: C_18  and  N_30
                            x       y       z     vdW  Elec       q    Type
                         _______ _______ _______ _____ _____    ______ ____

>  <TORSDO>
F 4

$$$$
=
 OpenBabel11062409273D

 34 38  0  0  0  0  0  0  0  0999 V2000
  160.4980  209.0510  153.1010 C   0  0  0  0  0  0  0  0  0  0  0  0
  158.5910  210.6040  155.8830 C   0  0  0  0  0  3  0  0  0  0  0  0
  159.8200  208.6810  155.7790 C   0  0  0  0  0  3  0  0  0  0  0  0
  161.6180  208.1640  151.0020 C   0  0  0  0  0  0  0  0  0  0  0  0
  160.9150  209.3090  151.6630 C   0  0  0  0  0  2  0  0  0  0  0  0
  161.7150  206.9740  153.1360 C   0  0  0  0  0  0  0  0  0  0  0  0
  162.2100  205.8430  153.7770 O   0  0  0  0  0  1  0  0  0  0  0  0
  162.0240  207.1120  151.7050 C   0  0  0  0  0  3  0  0  0  0  0  0
  160.6150  207.7350  155.1470 C   0  0  0  0  0  0  0  0  0  0  0  0
  160.9640  207.8960  153.7890 C   0  0  0  0  0  0  0  0  0  0  0  0
  161.0360  206.6410  155.8960 O   0  0  0  0  0  1  0  0  0  0  0  0
  157.9000  211.8670  155.6120 C   0  0  0  0  0  3  0  0  0  0  0  0
  157.8390  212.5870  154.4950 C   0  0  0  0  0  0  0  0  0  0  0  0
  158.5000  212.2250  153.2380 C   0  0  0  0  0  3  0  0  0  0  0  0
  159.3420  209.8100  155.1200 C   0  0  0  0  0  0  0  0  0  0  0  0
  159.2520  211.1710  152.9440 C   0  0  0  0  0  3  0  0  0  0  0  0
  159.6820  210.0120  153.7590 C   0  0  0  0  0  0  0  0  0  0  0  0
  157.0540  213.8430  154.5080 C   0  0  0  0  0  0  0  0  0  0  0  0
  156.4770  214.4200  153.2570 C   0  0  0  0  0  1  0  0  0  0  0  0
  156.8580  214.4530  155.5930 O   0  0  0  0  0  0  0  0  0  0  0  0
  161.9770  208.2810  149.5440 C   0  0  0  0  0  2  0  0  0  0  0  0
  162.0430  205.9000  146.6470 C   0  0  0  0  0  2  0  0  0  0  0  0
  161.1630  206.0180  149.4580 C   0  0  0  0  0  2  0  0  0  0  0  0
  161.0420  202.2950  147.2940 C   0  0  0  0  0  0  0  0  0  0  0  0
  161.4720  203.4650  146.6520 C   0  0  0  0  0  3  0  0  0  0  0  0
  161.5230  204.6770  147.3460 C   0  0  0  0  0  0  0  0  0  0  0  0
  160.7290  203.5540  149.3470 C   0  0  0  0  0  3  0  0  0  0  0  0
  161.1700  204.7160  148.7090 C   0  0  0  0  0  0  0  0  0  0  0  0
  160.6710  202.3480  148.6450 C   0  0  0  0  0  3  0  0  0  0  0  0
  162.0600  206.9960  148.8350 N   0  0  0  0  0  0  0  0  0  0  0  0
  161.7040  207.1690  147.4240 C   0  0  0  0  0  2  0  0  0  0  0  0
  160.9860  201.0250  146.5520 C   0  0  0  0  0  0  0  0  0  0  0  0
  160.4460  200.9740  145.4140 O   0  0  0  0  0  0  0  0  0  0  0  0
  161.5300  199.8690  147.0990 O   0  0  0  0  0  1  0  0  0  0  0  0
  1 17  2  0  0  0  0
  1 10  1  0  0  0  0
  4  5  1  0  0  0  0
  4  8  2  0  0  0  0
  5  1  1  0  0  0  0
  6  7  1  0  0  0  0
  6 10  2  0  0  0  0
  8  6  1  0  0  0  0
  9  3  2  0  0  0  0
  9 11  1  0  0  0  0
 10  9  1  0  0  0  0
 12  2  1  0  0  0  0
 13 18  1  0  0  0  0
 13 12  2  0  0  0  0
 14 13  1  0  0  0  0
 15  3  1  0  0  0  0
 15  2  2  0  0  0  0
 16 14  2  0  0  0  0
 16 17  1  0  0  0  0
 17 15  1  0  0  0  0
 18 20  2  0  0  0  0
 19 18  1  0  0  0  0
 21  4  1  0  0  0  0
 22 26  1  0  0  0  0
 22 31  1  0  0  0  0
 24 29  1  0  0  0  0
 25 24  2  0  0  0  0
 25 26  1  0  0  0  0
 26 28  2  0  0  0  0
 28 27  1  0  0  0  0
 28 23  1  0  0  0  0
 29 27  2  0  0  0  0
 30 23  1  0  0  0  0
 30 21  1  0  0  0  0
 31 30  1  0  0  0  0
 32 34  1  0  0  0  0
 32 24  1  0  0  0  0
 33 32  2  0  0  0  0
M  END
>  <MODEL>
5

>  <REMARK>
 VINA RESULT:      -8.9      4.775      8.794
  Name = 
  4 active torsions:
  status: ('A' for Active; 'I' for Inactive)
    1  A    between atoms: C_3  and  C_25
    2  A    between atoms: C_7  and  C_11
    3  A    between atoms: C_8  and  C_18
    4  A    between atoms: C_18  and  N_30
                            x       y       z     vdW  Elec       q    Type
                         _______ _______ _______ _____ _____    ______ ____

>  <TORSDO>
F 4

$$$$
=
 OpenBabel11062409273D

 34 38  0  0  1  0  0  0  0  0999 V2000
  160.6340  210.0850  152.7590 C   0  0  1  0  0  3  0  0  0  0  0  0
  160.0540  213.4360  151.2680 C   0  0  0  0  0  3  0  0  0  0  0  0
  159.5130  212.5750  153.3130 C   0  0  0  0  0  3  0  0  0  0  0  0
  161.0620  207.6870  153.4780 C   0  0  0  0  0  0  0  0  0  0  0  0
  161.3150  208.7590  152.4630 C   0  0  0  0  0  3  0  0  0  0  0  0
  159.9530  209.3080  154.9340 C   0  0  0  0  0  0  0  0  0  0  0  0
  159.3770  209.4930  156.1860 O   0  0  0  0  0  1  0  0  0  0  0  0
  160.4730  207.9660  154.6360 C   0  0  0  0  0  3  0  0  0  0  0  0
  159.4610  211.5810  154.2810 C   0  0  0  0  0  0  0  0  0  0  0  0
  160.0140  210.3090  154.0200 C   0  0  0  0  0  0  0  0  0  0  0  0
  158.8460  211.8890  155.4900 O   0  0  0  0  0  1  0  0  0  0  0  0
  160.5370  213.6660  149.9040 C   0  0  0  0  0  3  0  0  0  0  0  0
  161.1810  212.8490  149.0740 C   0  0  0  0  0  0  0  0  0  0  0  0
  161.5520  211.4680  149.3930 C   0  0  0  0  0  3  0  0  0  0  0  0
  160.1020  212.3720  152.0690 C   0  0  0  0  0  0  0  0  0  0  0  0
  161.3440  210.7640  150.4990 C   0  0  0  0  0  3  0  0  0  0  0  0
  160.6790  211.1110  151.7750 C   0  0  0  0  0  0  0  0  0  0  0  0
  161.5550  213.3570  147.7340 C   0  0  0  0  0  0  0  0  0  0  0  0
  162.6310  214.3770  147.5550 C   0  0  0  0  0  1  0  0  0  0  0  0
  160.9600  212.9290  146.7090 O   0  0  0  0  0  0  0  0  0  0  0  0
  161.6040  206.3070  153.2200 C   0  0  0  0  0  2  0  0  0  0  0  0
  161.0610  203.7330  150.5460 C   0  0  0  0  0  2  0  0  0  0  0  0
  161.9970  206.5110  150.8540 C   0  0  0  0  0  2  0  0  0  0  0  0
  161.4080  204.8360  146.9300 C   0  0  0  0  0  0  0  0  0  0  0  0
  161.1850  204.0490  148.0680 C   0  0  0  0  0  3  0  0  0  0  0  0
  161.3640  204.5840  149.3470 C   0  0  0  0  0  0  0  0  0  0  0  0
  161.9780  206.7160  148.3590 C   0  0  0  0  0  3  0  0  0  0  0  0
  161.7420  205.9330  149.4930 C   0  0  0  0  0  0  0  0  0  0  0  0
  161.8060  206.1710  147.0840 C   0  0  0  0  0  3  0  0  0  0  0  0
  161.2800  205.7650  151.8930 N   0  0  0  0  0  0  0  0  0  0  0  0
  161.6370  204.3460  151.8210 C   0  0  0  0  0  2  0  0  0  0  0  0
  161.2220  204.2600  145.5880 C   0  0  0  0  0  0  0  0  0  0  0  0
  161.2230  203.0110  145.4230 O   0  0  0  0  0  1  0  0  0  0  0  0
  161.0420  205.0900  144.4880 O   0  0  0  0  0  0  0  0  0  0  0  0
  1  5  1  1  0  0  0
  1 10  1  0  0  0  0
  2 15  1  0  0  0  0
  3  9  1  0  0  0  0
  4  8  1  0  0  0  0
  5  4  2  0  0  0  0
  6  7  1  0  0  0  0
  8  6  2  0  0  0  0
  9 11  1  0  0  0  0
 10  9  2  0  0  0  0
 10  6  1  0  0  0  0
 12  2  2  0  0  0  0
 13 14  2  0  0  0  0
 13 12  1  0  0  0  0
 14 16  1  0  0  0  0
 15  3  2  0  0  0  0
 16 17  2  0  0  0  0
 17 15  1  0  0  0  0
 17  1  1  0  0  0  0
 18 13  1  0  0  0  0
 19 18  1  0  0  0  0
 20 18  2  0  0  0  0
 21  4  1  0  0  0  0
 22 31  1  0  0  0  0
 23 30  1  0  0  0  0
 24 29  2  0  0  0  0
 24 25  1  0  0  0  0
 25 26  2  0  0  0  0
 26 28  1  0  0  0  0
 26 22  1  0  0  0  0
 27 28  2  0  0  0  0
 28 23  1  0  0  0  0
 29 27  1  0  0  0  0
 30 21  1  0  0  0  0
 31 30  1  0  0  0  0
 32 24  1  0  0  0  0
 33 32  1  0  0  0  0
 34 32  2  0  0  0  0
M  END
>  <MODEL>
6

>  <REMARK>
 VINA RESULT:      -8.9      2.661      7.605
  Name = 
  4 active torsions:
  status: ('A' for Active; 'I' for Inactive)
    1  A    between atoms: C_3  and  C_25
    2  A    between atoms: C_7  and  C_11
    3  A    between atoms: C_8  and  C_18
    4  A    between atoms: C_18  and  N_30
                            x       y       z     vdW  Elec       q    Type
                         _______ _______ _______ _____ _____    ______ ____

>  <TORSDO>
F 4

$$$$
=
 OpenBabel11062409273D

 34 38  0  0  1  0  0  0  0  0999 V2000
  160.7820  208.8200  152.6720 C   0  0  1  0  0  3  0  0  0  0  0  0
  161.3180  205.1490  152.5190 C   0  0  0  0  0  3  0  0  0  0  0  0
  161.2200  206.5920  154.2870 C   0  0  0  0  0  3  0  0  0  0  0  0
  160.5110  211.3370  152.4710 C   0  0  0  0  0  0  0  0  0  0  0  0
  160.4720  210.0090  151.7790 C   0  0  0  0  0  3  0  0  0  0  0  0
  160.7520  210.2190  154.6320 C   0  0  0  0  0  0  0  0  0  0  0  0
  160.8050  210.4190  156.0070 O   0  0  0  0  0  1  0  0  0  0  0  0
  160.5940  211.4170  153.7950 C   0  0  0  0  0  3  0  0  0  0  0  0
  161.0790  207.8390  154.8810 C   0  0  0  0  0  0  0  0  0  0  0  0
  160.8650  208.9840  154.0830 C   0  0  0  0  0  0  0  0  0  0  0  0
  161.1630  207.9070  156.2680 O   0  0  0  0  0  1  0  0  0  0  0  0
  161.3250  204.5180  151.1970 C   0  0  0  0  0  3  0  0  0  0  0  0
  161.1590  205.0540  149.9910 C   0  0  0  0  0  0  0  0  0  0  0  0
  160.9230  206.4780  149.7430 C   0  0  0  0  0  3  0  0  0  0  0  0
  161.1560  206.4140  152.9080 C   0  0  0  0  0  0  0  0  0  0  0  0
  160.8300  207.4880  150.6000 C   0  0  0  0  0  3  0  0  0  0  0  0
  160.9300  207.5380  152.0760 C   0  0  0  0  0  0  0  0  0  0  0  0
  161.2150  204.1620  148.8100 C   0  0  0  0  0  0  0  0  0  0  0  0
  160.8310  202.7210  148.8970 C   0  0  0  0  0  1  0  0  0  0  0  0
  161.5940  204.6140  147.6960 O   0  0  0  0  0  0  0  0  0  0  0  0
  160.3230  212.5850  151.6500 C   0  0  0  0  0  2  0  0  0  0  0  0
  161.5950  211.9690  148.1760 C   0  0  0  0  0  2  0  0  0  0  0  0
  159.3780  213.3280  149.5640 C   0  0  0  0  0  2  0  0  0  0  0  0
  159.3790  212.9970  145.2700 C   0  0  0  0  0  0  0  0  0  0  0  0
  160.4520  212.4850  146.0120 C   0  0  0  0  0  3  0  0  0  0  0  0
  160.4590  212.5790  147.4060 C   0  0  0  0  0  0  0  0  0  0  0  0
  158.3000  213.6880  147.3330 C   0  0  0  0  0  3  0  0  0  0  0  0
  159.3650  213.1640  148.0720 C   0  0  0  0  0  0  0  0  0  0  0  0
  158.3050  213.5990  145.9390 C   0  0  0  0  0  3  0  0  0  0  0  0
  160.2730  212.3550  150.1990 N   0  0  0  0  0  0  0  0  0  0  0  0
  161.6150  212.4630  149.6200 C   0  0  0  0  0  2  0  0  0  0  0  0
  159.3850  212.8980  143.8010 C   0  0  0  0  0  0  0  0  0  0  0  0
  158.8170  213.7780  143.0990 O   0  0  0  0  0  0  0  0  0  0  0  0
  160.0180  211.8330  143.1730 O   0  0  0  0  0  1  0  0  0  0  0  0
  1  5  1  1  0  0  0
  1 10  1  0  0  0  0
  2 15  1  0  0  0  0
  3  9  1  0  0  0  0
  4  8  1  0  0  0  0
  5  4  2  0  0  0  0
  6  7  1  0  0  0  0
  8  6  2  0  0  0  0
  9 11  1  0  0  0  0
 10  6  1  0  0  0  0
 10  9  2  0  0  0  0
 12  2  2  0  0  0  0
 13 12  1  0  0  0  0
 14 13  2  0  0  0  0
 14 16  1  0  0  0  0
 15  3  2  0  0  0  0
 16 17  2  0  0  0  0
 17  1  1  0  0  0  0
 17 15  1  0  0  0  0
 18 19  1  0  0  0  0
 18 13  1  0  0  0  0
 20 18  2  0  0  0  0
 21  4  1  0  0  0  0
 22 31  1  0  0  0  0
 23 30  1  0  0  0  0
 24 29  2  0  0  0  0
 24 25  1  0  0  0  0
 25 26  2  0  0  0  0
 26 28  1  0  0  0  0
 26 22  1  0  0  0  0
 27 28  2  0  0  0  0
 28 23  1  0  0  0  0
 29 27  1  0  0  0  0
 30 21  1  0  0  0  0
 31 30  1  0  0  0  0
 32 24  1  0  0  0  0
 33 32  2  0  0  0  0
 34 32  1  0  0  0  0
M  END
>  <MODEL>
7

>  <REMARK>
 VINA RESULT:      -8.8      1.694      2.507
  Name = 
  4 active torsions:
  status: ('A' for Active; 'I' for Inactive)
    1  A    between atoms: C_3  and  C_25
    2  A    between atoms: C_7  and  C_11
    3  A    between atoms: C_8  and  C_18
    4  A    between atoms: C_18  and  N_30
                            x       y       z     vdW  Elec       q    Type
                         _______ _______ _______ _____ _____    ______ ____

>  <TORSDO>
F 4

$$$$
=
 OpenBabel11062409273D

 34 38  0  0  1  0  0  0  0  0999 V2000
  159.9570  211.5490  152.2010 C   0  0  1  0  0  3  0  0  0  0  0  0
  159.2260  214.1940  149.7000 C   0  0  0  0  0  3  0  0  0  0  0  0
  158.3010  213.7420  151.7390 C   0  0  0  0  0  3  0  0  0  0  0  0
  160.5890  209.5760  153.6690 C   0  0  0  0  0  0  0  0  0  0  0  0
  160.9180  210.4020  152.4640 C   0  0  0  0  0  3  0  0  0  0  0  0
  158.8500  211.1720  154.3060 C   0  0  0  0  0  0  0  0  0  0  0  0
  157.9260  211.5030  155.2920 O   0  0  0  0  0  1  0  0  0  0  0  0
  159.6620  209.9690  154.5370 C   0  0  0  0  0  3  0  0  0  0  0  0
  158.1620  213.0280  152.9210 C   0  0  0  0  0  0  0  0  0  0  0  0
  158.9820  211.9080  153.1740 C   0  0  0  0  0  0  0  0  0  0  0  0
  157.1910  213.4540  153.8220 O   0  0  0  0  0  1  0  0  0  0  0  0
  160.0190  214.2030  148.4680 C   0  0  0  0  0  3  0  0  0  0  0  0
  161.0020  213.3960  148.0770 C   0  0  0  0  0  0  0  0  0  0  0  0
  161.5100  212.2680  148.8610 C   0  0  0  0  0  3  0  0  0  0  0  0
  159.2380  213.3980  150.7690 C   0  0  0  0  0  0  0  0  0  0  0  0
  161.1320  211.8200  150.0530 C   0  0  0  0  0  3  0  0  0  0  0  0
  160.0890  212.2880  150.9930 C   0  0  0  0  0  0  0  0  0  0  0  0
  161.6350  213.6450  146.7610 C   0  0  0  0  0  0  0  0  0  0  0  0
  160.9540  214.4500  145.7030 C   0  0  0  0  0  1  0  0  0  0  0  0
  162.7760  213.1720  146.5100 O   0  0  0  0  0  0  0  0  0  0  0  0
  161.4180  208.3520  153.9550 C   0  0  0  0  0  2  0  0  0  0  0  0
  160.9990  204.7280  153.0820 C   0  0  0  0  0  2  0  0  0  0  0  0
  161.5770  207.3140  151.7890 C   0  0  0  0  0  2  0  0  0  0  0  0
  160.8860  203.7940  149.4040 C   0  0  0  0  0  0  0  0  0  0  0  0
  160.8680  203.7070  150.8020 C   0  0  0  0  0  3  0  0  0  0  0  0
  161.0820  204.8440  151.5870 C   0  0  0  0  0  0  0  0  0  0  0  0
  161.3190  206.1780  149.5730 C   0  0  0  0  0  3  0  0  0  0  0  0
  161.2870  206.0920  150.9670 C   0  0  0  0  0  0  0  0  0  0  0  0
  161.1130  205.0360  148.7940 C   0  0  0  0  0  3  0  0  0  0  0  0
  161.0570  207.1740  153.1530 N   0  0  0  0  0  0  0  0  0  0  0  0
  161.5940  205.9560  153.7660 C   0  0  0  0  0  2  0  0  0  0  0  0
  160.6650  202.5900  148.5870 C   0  0  0  0  0  0  0  0  0  0  0  0
  161.2920  202.4280  147.5050 O   0  0  0  0  0  0  0  0  0  0  0  0
  159.7630  201.6180  149.0010 O   0  0  0  0  0  1  0  0  0  0  0  0
  1  5  1  1  0  0  0
  1 10  1  0  0  0  0
  2 15  1  0  0  0  0
  3  9  1  0  0  0  0
  4 21  1  0  0  0  0
  4  8  1  0  0  0  0
  5  4  2  0  0  0  0
  6  8  2  0  0  0  0
  6  7  1  0  0  0  0
  9 10  2  0  0  0  0
  9 11  1  0  0  0  0
 10  6  1  0  0  0  0
 12  2  2  0  0  0  0
 13 12  1  0  0  0  0
 13 14  2  0  0  0  0
 14 16  1  0  0  0  0
 15 17  1  0  0  0  0
 15  3  2  0  0  0  0
 16 17  2  0  0  0  0
 17  1  1  0  0  0  0
 18 13  1  0  0  0  0
 19 18  1  0  0  0  0
 20 18  2  0  0  0  0
 22 31  1  0  0  0  0
 23 30  1  0  0  0  0
 24 25  1  0  0  0  0
 25 26  2  0  0  0  0
 26 22  1  0  0  0  0
 27 28  2  0  0  0  0
 28 26  1  0  0  0  0
 28 23  1  0  0  0  0
 29 24  2  0  0  0  0
 29 27  1  0  0  0  0
 30 31  1  0  0  0  0
 30 21  1  0  0  0  0
 32 34  1  0  0  0  0
 32 24  1  0  0  0  0
 33 32  2  0  0  0  0
M  END
>  <MODEL>
8

>  <REMARK>
 VINA RESULT:      -8.5      3.003      8.452
  Name = 
  4 active torsions:
  status: ('A' for Active; 'I' for Inactive)
    1  A    between atoms: C_3  and  C_25
    2  A    between atoms: C_7  and  C_11
    3  A    between atoms: C_8  and  C_18
    4  A    between atoms: C_18  and  N_30
                            x       y       z     vdW  Elec       q    Type
                         _______ _______ _______ _____ _____    ______ ____

>  <TORSDO>
F 4

$$$$
=
 OpenBabel11062409273D

 34 38  0  0  1  0  0  0  0  0999 V2000
  159.7440  211.0220  152.7530 C   0  0  0  0  0  0  0  0  0  0  0  0
  157.5940  213.9220  153.6200 C   0  0  0  0  0  3  0  0  0  0  0  0
  159.1210  213.6160  151.9490 C   0  0  0  0  0  3  0  0  0  0  0  0
  161.1730  208.9420  152.4630 C   0  0  0  0  0  0  0  0  0  0  0  0
  160.0160  209.5840  153.1640 C   0  0  0  0  0  3  0  0  0  0  0  0
  161.3560  210.8700  150.9700 C   0  0  0  0  0  0  0  0  0  0  0  0
  162.0130  211.3750  149.8530 O   0  0  0  0  0  1  0  0  0  0  0  0
  161.7520  209.5280  151.4200 C   0  0  0  0  0  3  0  0  0  0  0  0
  160.0710  212.8980  151.2360 C   0  0  0  0  0  0  0  0  0  0  0  0
  160.4110  211.5850  151.6290 C   0  0  2  0  0  3  0  0  0  0  0  0
  160.6660  213.5220  150.1430 O   0  0  0  0  0  1  0  0  0  0  0  0
  156.7070  213.7880  154.7780 C   0  0  0  0  0  3  0  0  0  0  0  0
  156.5270  212.7610  155.6050 C   0  0  0  0  0  0  0  0  0  0  0  0
  157.2330  211.4820  155.5030 C   0  0  0  0  0  3  0  0  0  0  0  0
  158.4690  213.0870  153.0590 C   0  0  0  0  0  0  0  0  0  0  0  0
  158.1510  211.0820  154.6310 C   0  0  0  0  0  3  0  0  0  0  0  0
  158.7740  211.7680  153.4770 C   0  0  0  0  0  0  0  0  0  0  0  0
  155.5480  212.9080  156.7070 C   0  0  0  0  0  0  0  0  0  0  0  0
  155.1090  214.2510  157.1920 C   0  0  0  0  0  1  0  0  0  0  0  0
  155.0630  211.8850  157.2610 O   0  0  0  0  0  0  0  0  0  0  0  0
  161.5900  207.5560  152.8770 C   0  0  0  0  0  2  0  0  0  0  0  0
  161.1280  206.1760  149.4200 C   0  0  0  0  0  2  0  0  0  0  0  0
  161.2110  205.2700  152.2240 C   0  0  0  0  0  2  0  0  0  0  0  0
  161.0560  202.4020  149.0140 C   0  0  0  0  0  0  0  0  0  0  0  0
  161.0350  203.7740  148.7290 C   0  0  0  0  0  3  0  0  0  0  0  0
  161.0930  204.7150  149.7620 C   0  0  0  0  0  0  0  0  0  0  0  0
  161.2130  202.9120  151.3840 C   0  0  0  0  0  3  0  0  0  0  0  0
  161.2060  204.2790  151.0960 C   0  0  0  0  0  0  0  0  0  0  0  0
  161.1450  201.9780  150.3470 C   0  0  0  0  0  3  0  0  0  0  0  0
  161.6640  206.5890  151.7720 N   0  0  0  0  0  0  0  0  0  0  0  0
  160.8400  207.0390  150.6470 C   0  0  0  0  0  2  0  0  0  0  0  0
  160.9880  201.4210  147.9190 C   0  0  0  0  0  0  0  0  0  0  0  0
  160.4870  201.7380  146.8070 O   0  0  0  0  0  0  0  0  0  0  0  0
  161.4780  200.1330  148.1010 O   0  0  0  0  0  1  0  0  0  0  0  0
  1  5  1  0  0  0  0
  1 17  2  0  0  0  0
  2 12  1  0  0  0  0
  3 15  1  0  0  0  0
  4 21  1  0  0  0  0
  4  5  2  0  0  0  0
  6  8  2  0  0  0  0
  7  6  1  0  0  0  0
  8  4  1  0  0  0  0
  9 10  1  0  0  0  0
  9  3  2  0  0  0  0
 10  6  1  1  0  0  0
 10  1  1  0  0  0  0
 11  9  1  0  0  0  0
 12 13  2  0  0  0  0
 13 18  1  0  0  0  0
 14 13  1  0  0  0  0
 15 17  1  0  0  0  0
 15  2  2  0  0  0  0
 16 14  2  0  0  0  0
 17 16  1  0  0  0  0
 18 19  1  0  0  0  0
 18 20  2  0  0  0  0
 22 26  1  0  0  0  0
 22 31  1  0  0  0  0
 24 29  1  0  0  0  0
 25 24  2  0  0  0  0
 25 26  1  0  0  0  0
 26 28  2  0  0  0  0
 28 27  1  0  0  0  0
 28 23  1  0  0  0  0
 29 27  2  0  0  0  0
 30 23  1  0  0  0  0
 30 21  1  0  0  0  0
 31 30  1  0  0  0  0
 32 34  1  0  0  0  0
 32 24  1  0  0  0  0
 33 32  2  0  0  0  0
M  END
>  <MODEL>
9

>  <REMARK>
 VINA RESULT:      -8.4      4.317      9.881
  Name = 
  4 active torsions:
  status: ('A' for Active; 'I' for Inactive)
    1  A    between atoms: C_3  and  C_25
    2  A    between atoms: C_7  and  C_11
    3  A    between atoms: C_8  and  C_18
    4  A    between atoms: C_18  and  N_30
                            x       y       z     vdW  Elec       q    Type
                         _______ _______ _______ _____ _____    ______ ____

>  <TORSDO>
F 4

$$$$
