=
 OpenBabel11062407543D

 34 39  0  0  1  0  0  0  0  0999 V2000
  160.5710  208.6500  154.7190 C   0  0  0  0  0  0  0  0  0  0  0  0
  162.4210  210.2220  154.2030 C   0  0  0  0  0  0  0  0  0  0  0  0
  161.4490  208.7330  152.3360 C   0  0  0  0  0  0  0  0  0  0  0  0
  161.8690  208.6740  149.9780 N   0  0  0  0  0  0  0  0  0  0  0  0
  161.3290  210.2050  156.4070 C   0  0  0  0  0  3  0  0  0  0  0  0
  162.4130  210.6150  155.4850 C   0  0  0  0  0  3  0  0  0  0  0  0
  161.8680  210.8370  151.0000 C   0  0  0  0  0  2  0  0  0  0  0  0
  161.2230  209.4820  153.6360 C   0  0  1  0  0  3  0  0  0  0  0  0
  162.1320  209.5730  148.8790 C   0  0  0  0  0  2  0  0  0  0  0  0
  160.4580  209.2510  156.0550 C   0  0  0  0  0  3  0  0  0  0  0  0
  161.1500  207.2710  152.2510 C   0  0  0  0  0  0  0  0  0  0  0  0
  160.2590  207.3660  154.5440 C   0  0  0  0  0  3  0  0  0  0  0  0
  163.5050  210.5610  153.4020 O   0  0  0  0  0  1  0  0  0  0  0  0
  161.7270  207.2550  149.8790 C   0  0  0  0  0  3  0  0  0  0  0  0
  161.3940  206.5380  150.9630 C   0  0  0  0  0  0  0  0  0  0  0  0
  162.1670  210.9800  149.5020 C   0  0  1  0  0  3  0  0  0  0  0  0
  161.7350  209.3740  151.1940 C   0  0  0  0  0  0  0  0  0  0  0  0
  160.5500  206.6670  153.2830 C   0  0  0  0  0  3  0  0  0  0  0  0
  160.8320  203.0740  149.4980 C   0  0  0  0  0  0  0  0  0  0  0  0
  161.0290  202.2640  150.6190 C   0  0  0  0  0  3  0  0  0  0  0  0
  161.2840  205.0580  150.8360 C   0  0  0  0  0  0  0  0  0  0  0  0
  161.3470  202.8420  151.8490 C   0  0  0  0  0  3  0  0  0  0  0  0
  160.9550  204.4610  149.6070 C   0  0  0  0  0  3  0  0  0  0  0  0
  161.4710  204.2310  151.9570 C   0  0  0  0  0  3  0  0  0  0  0  0
  160.5190  202.5140  148.3050 F   0  0  0  0  0  0  0  0  0  0  0  0
  161.0210  211.9220  147.5470 C   0  0  0  0  0  3  0  0  0  0  0  0
  161.1400  211.8560  148.8710 C   0  0  0  0  0  3  0  0  0  0  0  0
  161.5300  213.0910  145.0010 O   0  0  0  0  0  1  0  0  0  0  0  0
  160.0200  212.7700  146.8770 C   0  0  0  0  0  0  0  0  0  0  0  0
  160.3080  213.3290  145.6200 C   0  0  0  0  0  0  0  0  0  0  0  0
  158.1280  214.3870  145.5810 C   0  0  0  0  0  3  0  0  0  0  0  0
  157.8330  213.8350  146.8290 C   0  0  0  0  0  3  0  0  0  0  0  0
  158.7750  213.0300  147.4750 C   0  0  0  0  0  3  0  0  0  0  0  0
  159.3620  214.1350  144.9770 C   0  0  0  0  0  3  0  0  0  0  0  0
  1 10  1  0  0  0  0
  2  6  2  0  0  0  0
  4 17  1  0  0  0  0
  6  5  1  0  0  0  0
  7 17  1  0  0  0  0
  8  3  1  6  0  0  0
  8  2  1  0  0  0  0
  8  1  1  0  0  0  0
  9 16  1  0  0  0  0
  9  4  1  0  0  0  0
 10  5  2  0  0  0  0
 11  3  1  0  0  0  0
 11 18  2  0  0  0  0
 12  1  2  0  0  0  0
 13  2  1  0  0  0  0
 14  4  1  0  0  0  0
 14 15  2  0  0  0  0
 15 11  1  0  0  0  0
 16 27  1  6  0  0  0
 16  7  1  0  0  0  0
 17  3  2  0  0  0  0
 18 12  1  0  0  0  0
 19 23  2  0  0  0  0
 19 20  1  0  0  0  0
 20 22  2  0  0  0  0
 21 15  1  0  0  0  0
 21 24  2  0  0  0  0
 22 24  1  0  0  0  0
 23 21  1  0  0  0  0
 25 19  1  0  0  0  0
 26 27  2  0  0  0  0
 28 30  1  0  0  0  0
 29 33  1  0  0  0  0
 29 26  1  0  0  0  0
 30 29  2  0  0  0  0
 31 32  1  0  0  0  0
 32 33  2  0  0  0  0
 34 31  2  0  0  0  0
 34 30  1  0  0  0  0
M  END
>  <MODEL>
1

>  <REMARK>
 VINA RESULT:      -9.0      0.000      0.000
  Name = 
  3 active torsions:
  status: ('A' for Active; 'I' for Inactive)
    1  A    between atoms: C_3  and  C_13
    2  A    between atoms: C_12  and  C_28
    3  A    between atoms: C_17  and  C_29
                            x       y       z     vdW  Elec       q    Type
                         _______ _______ _______ _____ _____    ______ ____

>  <TORSDO>
F 3

$$$$
=
 OpenBabel11062407543D

 34 39  0  0  1  0  0  0  0  0999 V2000
  160.4950  213.2050  149.2840 C   0  0  0  0  0  0  0  0  0  0  0  0
  162.6260  212.4510  148.2590 C   0  0  0  0  0  0  0  0  0  0  0  0
  161.4810  210.9920  150.0510 C   0  0  0  0  0  0  0  0  0  0  0  0
  161.9900  208.7980  150.8680 N   0  0  0  0  0  0  0  0  0  0  0  0
  161.4490  214.4530  147.4480 C   0  0  0  0  0  3  0  0  0  0  0  0
  162.6320  213.5640  147.5110 C   0  0  0  0  0  3  0  0  0  0  0  0
  162.3440  209.1670  148.5310 C   0  0  0  0  0  2  0  0  0  0  0  0
  161.3380  212.0010  148.9260 C   0  0  0  0  0  0  0  0  0  0  0  0
  162.4660  207.5220  150.3880 C   0  0  0  0  0  2  0  0  0  0  0  0
  160.4340  214.3000  148.3070 C   0  0  0  0  0  2  0  0  0  0  0  0
  160.9200  211.2930  151.4030 C   0  0  0  0  0  0  0  0  0  0  0  0
  159.9570  213.3680  150.4930 C   0  0  0  0  0  3  0  0  0  0  0  0
  163.7890  211.6970  148.3540 O   0  0  0  0  0  1  0  0  0  0  0  0
  161.5930  209.0890  152.2100 C   0  0  0  0  0  3  0  0  0  0  0  0
  161.0830  210.2930  152.5120 C   0  0  0  0  0  0  0  0  0  0  0  0
  162.7340  207.7250  148.8860 C   0  0  1  0  0  3  0  0  0  0  0  0
  161.9330  209.7500  149.8300 C   0  0  0  0  0  0  0  0  0  0  0  0
  160.1720  212.3880  151.5700 C   0  0  0  0  0  3  0  0  0  0  0  0
  159.0100  210.9530  155.6310 C   0  0  0  0  0  0  0  0  0  0  0  0
  160.0070  211.1620  156.5870 C   0  0  0  0  0  3  0  0  0  0  0  0
  160.7060  210.5760  153.9250 C   0  0  0  0  0  0  0  0  0  0  0  0
  161.3510  211.0860  156.2190 C   0  0  0  0  0  3  0  0  0  0  0  0
  159.3580  210.6660  154.3090 C   0  0  0  0  0  3  0  0  0  0  0  0
  161.6980  210.7980  154.8960 C   0  0  0  0  0  3  0  0  0  0  0  0
  157.7050  211.0300  155.9860 F   0  0  0  0  0  0  0  0  0  0  0  0
  162.4980  205.8850  147.2790 C   0  0  0  0  0  3  0  0  0  0  0  0
  161.9160  206.7760  148.0780 C   0  0  0  0  0  3  0  0  0  0  0  0
  161.9930  203.2340  148.1880 O   0  0  0  0  0  1  0  0  0  0  0  0
  161.7340  204.9260  146.4630 C   0  0  0  0  0  0  0  0  0  0  0  0
  161.5040  203.6260  146.9460 C   0  0  0  0  0  0  0  0  0  0  0  0
  160.2790  203.0820  144.9270 C   0  0  0  0  0  3  0  0  0  0  0  0
  160.5020  204.3710  144.4400 C   0  0  0  0  0  3  0  0  0  0  0  0
  161.2260  205.2900  145.2040 C   0  0  0  0  0  3  0  0  0  0  0  0
  160.7790  202.7100  146.1770 C   0  0  0  0  0  3  0  0  0  0  0  0
  1 12  2  0  0  0  0
  2 13  1  0  0  0  0
  2  8  2  0  0  0  0
  3 11  1  0  0  0  0
  4 14  1  0  0  0  0
  5  6  2  0  0  0  0
  5 10  1  0  0  0  0
  6  2  1  0  0  0  0
  7 16  1  0  0  0  0
  7 17  1  0  0  0  0
  8  1  1  0  0  0  0
  8  3  1  0  0  0  0
  9  4  1  0  0  0  0
 10  1  1  0  0  0  0
 11 18  2  0  0  0  0
 11 15  1  0  0  0  0
 12 18  1  0  0  0  0
 14 15  2  0  0  0  0
 15 21  1  0  0  0  0
 16 27  1  6  0  0  0
 16  9  1  0  0  0  0
 17  3  2  0  0  0  0
 17  4  1  0  0  0  0
 19 25  1  0  0  0  0
 19 20  1  0  0  0  0
 21 23  1  0  0  0  0
 21 24  2  0  0  0  0
 22 20  2  0  0  0  0
 23 19  2  0  0  0  0
 24 22  1  0  0  0  0
 26 27  2  0  0  0  0
 29 30  1  0  0  0  0
 29 26  1  0  0  0  0
 30 28  1  0  0  0  0
 31 34  1  0  0  0  0
 32 31  2  0  0  0  0
 32 33  1  0  0  0  0
 33 29  2  0  0  0  0
 34 30  2  0  0  0  0
M  END
>  <MODEL>
2

>  <REMARK>
 VINA RESULT:      -7.8      3.469      7.572
  Name = 
  3 active torsions:
  status: ('A' for Active; 'I' for Inactive)
    1  A    between atoms: C_3  and  C_13
    2  A    between atoms: C_12  and  C_28
    3  A    between atoms: C_17  and  C_29
                            x       y       z     vdW  Elec       q    Type
                         _______ _______ _______ _____ _____    ______ ____

>  <TORSDO>
F 3

$$$$
=
 OpenBabel11062407543D

 34 39  0  0  1  0  0  0  0  0999 V2000
  160.4530  213.0610  149.1430 C   0  0  0  0  0  0  0  0  0  0  0  0
  162.5560  212.2970  148.0670 C   0  0  0  0  0  0  0  0  0  0  0  0
  161.4940  210.8880  149.9470 C   0  0  0  0  0  0  0  0  0  0  0  0
  162.0600  208.7280  150.8190 N   0  0  0  0  0  0  0  0  0  0  0  0
  161.3250  214.2570  147.2330 C   0  0  0  0  0  3  0  0  0  0  0  0
  162.5200  213.3840  147.2830 C   0  0  0  0  0  3  0  0  0  0  0  0
  162.3250  209.0210  148.4600 C   0  0  0  0  0  2  0  0  0  0  0  0
  161.2980  211.8550  148.7950 C   0  0  0  0  0  0  0  0  0  0  0  0
  162.5350  207.4420  150.3660 C   0  0  0  0  0  2  0  0  0  0  0  0
  160.3430  214.1210  148.1320 C   0  0  0  0  0  2  0  0  0  0  0  0
  160.9780  211.2270  151.3080 C   0  0  0  0  0  0  0  0  0  0  0  0
  159.9570  213.2590  150.3640 C   0  0  0  0  0  3  0  0  0  0  0  0
  163.7310  211.5600  148.1460 O   0  0  0  0  0  1  0  0  0  0  0  0
  161.7070  209.0600  152.1640 C   0  0  0  0  0  3  0  0  0  0  0  0
  161.1930  210.2680  152.4440 C   0  0  0  0  0  0  0  0  0  0  0  0
  162.7460  207.5970  148.8490 C   0  0  1  0  0  3  0  0  0  0  0  0
  161.9540  209.6430  149.7520 C   0  0  0  0  0  0  0  0  0  0  0  0
  160.2220  212.3190  151.4650 C   0  0  0  0  0  3  0  0  0  0  0  0
  161.5610  211.0530  156.1470 C   0  0  0  0  0  0  0  0  0  0  0  0
  160.2250  211.1610  156.5400 C   0  0  0  0  0  3  0  0  0  0  0  0
  160.8630  210.5950  153.8590 C   0  0  0  0  0  0  0  0  0  0  0  0
  159.2060  210.9820  155.6030 C   0  0  0  0  0  3  0  0  0  0  0  0
  161.8770  210.7680  154.8160 C   0  0  0  0  0  3  0  0  0  0  0  0
  159.5230  210.6980  154.2720 C   0  0  0  0  0  3  0  0  0  0  0  0
  162.5510  211.2220  157.0560 F   0  0  0  0  0  0  0  0  0  0  0  0
  162.4610  205.7930  147.2100 C   0  0  0  0  0  3  0  0  0  0  0  0
  161.9120  206.6120  148.1030 C   0  0  0  0  0  3  0  0  0  0  0  0
  160.9270  206.5410  144.9300 O   0  0  0  0  0  1  0  0  0  0  0  0
  161.6800  204.8010  146.4500 C   0  0  0  0  0  0  0  0  0  0  0  0
  160.9350  205.2090  145.3290 C   0  0  0  0  0  0  0  0  0  0  0  0
  160.1860  202.9290  144.9860 C   0  0  0  0  0  3  0  0  0  0  0  0
  160.9240  202.5160  146.0970 C   0  0  0  0  0  3  0  0  0  0  0  0
  161.6680  203.4480  146.8270 C   0  0  0  0  0  3  0  0  0  0  0  0
  160.1920  204.2720  144.6030 C   0  0  0  0  0  3  0  0  0  0  0  0
  1 12  2  0  0  0  0
  2 13  1  0  0  0  0
  2  8  2  0  0  0  0
  3 11  1  0  0  0  0
  4 14  1  0  0  0  0
  5  6  2  0  0  0  0
  5 10  1  0  0  0  0
  6  2  1  0  0  0  0
  7 16  1  0  0  0  0
  7 17  1  0  0  0  0
  8  1  1  0  0  0  0
  8  3  1  0  0  0  0
  9  4  1  0  0  0  0
 10  1  1  0  0  0  0
 11 18  2  0  0  0  0
 11 15  1  0  0  0  0
 12 18  1  0  0  0  0
 14 15  2  0  0  0  0
 15 21  1  0  0  0  0
 16 27  1  6  0  0  0
 16  9  1  0  0  0  0
 17  3  2  0  0  0  0
 17  4  1  0  0  0  0
 19 20  1  0  0  0  0
 19 25  1  0  0  0  0
 21 24  2  0  0  0  0
 21 23  1  0  0  0  0
 22 20  2  0  0  0  0
 23 19  2  0  0  0  0
 24 22  1  0  0  0  0
 26 27  2  0  0  0  0
 28 30  1  0  0  0  0
 29 33  1  0  0  0  0
 29 26  1  0  0  0  0
 30 29  2  0  0  0  0
 31 32  1  0  0  0  0
 32 33  2  0  0  0  0
 34 31  2  0  0  0  0
 34 30  1  0  0  0  0
M  END
>  <MODEL>
3

>  <REMARK>
 VINA RESULT:      -7.5      3.332      7.523
  Name = 
  3 active torsions:
  status: ('A' for Active; 'I' for Inactive)
    1  A    between atoms: C_3  and  C_13
    2  A    between atoms: C_12  and  C_28
    3  A    between atoms: C_17  and  C_29
                            x       y       z     vdW  Elec       q    Type
                         _______ _______ _______ _____ _____    ______ ____

>  <TORSDO>
F 3

$$$$
=
 OpenBabel11062407543D

 34 39  0  0  1  0  0  0  0  0999 V2000
  160.7980  206.1580  149.5810 C   0  0  0  0  0  0  0  0  0  0  0  0
  161.9610  205.7330  151.7320 C   0  0  0  0  0  0  0  0  0  0  0  0
  161.3210  208.1430  151.0770 C   0  0  0  0  0  0  0  0  0  0  0  0
  161.4630  210.2050  152.2910 N   0  0  0  0  0  0  0  0  0  0  0  0
  161.1950  203.8860  150.3010 C   0  0  0  0  0  3  0  0  0  0  0  0
  161.9730  204.4250  151.4400 C   0  0  0  0  0  3  0  0  0  0  0  0
  160.8740  208.2650  153.5620 C   0  0  0  0  0  2  0  0  0  0  0  0
  161.0140  206.6600  150.9920 C   0  0  0  0  0  0  0  0  0  0  0  0
  161.2910  210.7130  153.6310 C   0  0  0  0  0  2  0  0  0  0  0  0
  160.6490  204.7080  149.3970 C   0  0  0  0  0  2  0  0  0  0  0  0
  161.5080  208.9440  149.8290 C   0  0  0  0  0  0  0  0  0  0  0  0
  160.9030  206.9520  148.5150 C   0  0  0  0  0  3  0  0  0  0  0  0
  162.7760  206.2020  152.7560 O   0  0  0  0  0  1  0  0  0  0  0  0
  161.7820  210.9860  151.1380 C   0  0  0  0  0  3  0  0  0  0  0  0
  161.8290  210.4080  149.9280 C   0  0  0  0  0  0  0  0  0  0  0  0
  160.9370  209.4860  154.4910 C   0  0  1  0  0  3  0  0  0  0  0  0
  161.2490  208.8120  152.2370 C   0  0  0  0  0  0  0  0  0  0  0  0
  161.2600  208.3730  148.6450 C   0  0  0  0  0  3  0  0  0  0  0  0
  161.5500  212.5750  146.8150 C   0  0  0  0  0  0  0  0  0  0  0  0
  162.8950  212.7750  146.4960 C   0  0  0  0  0  3  0  0  0  0  0  0
  162.1930  211.2420  148.7500 C   0  0  0  0  0  0  0  0  0  0  0  0
  163.8920  212.2100  147.2930 C   0  0  0  0  0  3  0  0  0  0  0  0
  161.2020  211.8110  147.9320 C   0  0  0  0  0  3  0  0  0  0  0  0
  163.5430  211.4460  148.4110 C   0  0  0  0  0  3  0  0  0  0  0  0
  160.5820  213.1200  146.0400 F   0  0  0  0  0  0  0  0  0  0  0  0
  158.9170  210.7950  154.9710 C   0  0  0  0  0  3  0  0  0  0  0  0
  159.6140  209.6760  155.1510 C   0  0  0  0  0  3  0  0  0  0  0  0
  158.6090  212.6330  157.1230 O   0  0  0  0  0  1  0  0  0  0  0  0
  157.6060  211.0290  155.5990 C   0  0  0  0  0  0  0  0  0  0  0  0
  157.4930  211.9450  156.6600 C   0  0  0  0  0  0  0  0  0  0  0  0
  155.1170  211.4920  156.8110 C   0  0  0  0  0  3  0  0  0  0  0  0
  155.2200  210.5810  155.7580 C   0  0  0  0  0  3  0  0  0  0  0  0
  156.4590  210.3500  155.1540 C   0  0  0  0  0  3  0  0  0  0  0  0
  156.2510  212.1720  157.2610 C   0  0  0  0  0  3  0  0  0  0  0  0
  1  8  1  0  0  0  0
  2 13  1  0  0  0  0
  3 17  2  0  0  0  0
  4  9  1  0  0  0  0
  5  6  2  0  0  0  0
  6  2  1  0  0  0  0
  7 16  1  0  0  0  0
  8  3  1  0  0  0  0
  8  2  2  0  0  0  0
  9 16  1  0  0  0  0
 10  1  1  0  0  0  0
 10  5  1  0  0  0  0
 11 15  1  0  0  0  0
 11  3  1  0  0  0  0
 12 18  1  0  0  0  0
 12  1  2  0  0  0  0
 14  4  1  0  0  0  0
 15 14  2  0  0  0  0
 16 27  1  6  0  0  0
 17  4  1  0  0  0  0
 17  7  1  0  0  0  0
 18 11  2  0  0  0  0
 19 23  1  0  0  0  0
 20 19  2  0  0  0  0
 20 22  1  0  0  0  0
 21 15  1  0  0  0  0
 22 24  2  0  0  0  0
 23 21  2  0  0  0  0
 24 21  1  0  0  0  0
 25 19  1  0  0  0  0
 26 27  2  0  0  0  0
 26 29  1  0  0  0  0
 29 30  1  0  0  0  0
 30 28  1  0  0  0  0
 30 34  2  0  0  0  0
 31 34  1  0  0  0  0
 32 31  2  0  0  0  0
 33 29  2  0  0  0  0
 33 32  1  0  0  0  0
M  END
>  <MODEL>
4

>  <REMARK>
 VINA RESULT:      -7.3      3.298      7.783
  Name = 
  3 active torsions:
  status: ('A' for Active; 'I' for Inactive)
    1  A    between atoms: C_3  and  C_13
    2  A    between atoms: C_12  and  C_28
    3  A    between atoms: C_17  and  C_29
                            x       y       z     vdW  Elec       q    Type
                         _______ _______ _______ _____ _____    ______ ____

>  <TORSDO>
F 3

$$$$
=
 OpenBabel11062407543D

 34 39  0  0  1  0  0  0  0  0999 V2000
  159.7560  213.6610  148.1820 C   0  0  0  0  0  0  0  0  0  0  0  0
  162.1590  213.0400  148.1150 C   0  0  0  0  0  0  0  0  0  0  0  0
  160.6600  212.1560  150.0180 C   0  0  0  0  0  0  0  0  0  0  0  0
  161.0940  210.5860  151.7760 N   0  0  0  0  0  0  0  0  0  0  0  0
  161.1070  214.2990  146.2830 C   0  0  0  0  0  3  0  0  0  0  0  0
  162.2900  213.7660  146.9960 C   0  0  0  0  0  3  0  0  0  0  0  0
  162.1090  210.1160  149.6620 C   0  0  0  0  0  2  0  0  0  0  0  0
  160.7760  212.6150  148.5760 C   0  0  0  0  0  0  0  0  0  0  0  0
  161.8080  209.3530  152.0060 C   0  0  0  0  0  2  0  0  0  0  0  0
  159.8970  214.2710  146.8520 C   0  0  0  0  0  2  0  0  0  0  0  0
  159.6880  212.8170  150.9400 C   0  0  0  0  0  0  0  0  0  0  0  0
  158.8630  214.1490  149.0420 C   0  0  0  0  0  3  0  0  0  0  0  0
  163.3010  212.6370  148.7960 O   0  0  0  0  0  1  0  0  0  0  0  0
  160.2800  211.2690  152.7320 C   0  0  0  0  0  3  0  0  0  0  0  0
  159.5950  212.3640  152.3690 C   0  0  0  0  0  0  0  0  0  0  0  0
  162.5030  209.0280  150.6710 C   0  0  1  0  0  3  0  0  0  0  0  0
  161.2700  211.0440  150.4550 C   0  0  0  0  0  0  0  0  0  0  0  0
  158.8260  213.7130  150.4460 C   0  0  0  0  0  3  0  0  0  0  0  0
  156.6910  214.1070  154.0990 C   0  0  0  0  0  0  0  0  0  0  0  0
  157.2650  214.4510  155.3250 C   0  0  0  0  0  3  0  0  0  0  0  0
  158.7800  213.0710  153.3960 C   0  0  0  0  0  0  0  0  0  0  0  0
  158.5940  214.1150  155.5910 C   0  0  0  0  0  3  0  0  0  0  0  0
  157.4440  213.4250  153.1400 C   0  0  0  0  0  3  0  0  0  0  0  0
  159.3470  213.4310  154.6310 C   0  0  0  0  0  3  0  0  0  0  0  0
  155.4030  214.4370  153.8380 F   0  0  0  0  0  0  0  0  0  0  0  0
  161.8770  206.6780  150.9980 C   0  0  0  0  0  3  0  0  0  0  0  0
  162.0620  207.6980  150.1640 C   0  0  0  0  0  3  0  0  0  0  0  0
  161.2720  204.6050  152.8540 O   0  0  0  0  0  1  0  0  0  0  0  0
  161.4410  205.3460  150.5460 C   0  0  0  0  0  0  0  0  0  0  0  0
  161.1500  204.3480  151.4930 C   0  0  0  0  0  0  0  0  0  0  0  0
  160.6060  202.8010  149.7080 C   0  0  0  0  0  3  0  0  0  0  0  0
  160.8920  203.7860  148.7620 C   0  0  0  0  0  3  0  0  0  0  0  0
  161.3070  205.0540  149.1780 C   0  0  0  0  0  3  0  0  0  0  0  0
  160.7350  203.0810  151.0710 C   0  0  0  0  0  3  0  0  0  0  0  0
  1  8  1  0  0  0  0
  1 12  2  0  0  0  0
  2  8  2  0  0  0  0
  2 13  1  0  0  0  0
  3 17  2  0  0  0  0
  3 11  1  0  0  0  0
  4  9  1  0  0  0  0
  4 14  1  0  0  0  0
  5 10  1  0  0  0  0
  5  6  2  0  0  0  0
  6  2  1  0  0  0  0
  7 17  1  0  0  0  0
  7 16  1  0  0  0  0
  8  3  1  0  0  0  0
 10  1  1  0  0  0  0
 11 15  1  0  0  0  0
 12 18  1  0  0  0  0
 15 14  2  0  0  0  0
 15 21  1  0  0  0  0
 16 27  1  6  0  0  0
 16  9  1  0  0  0  0
 17  4  1  0  0  0  0
 18 11  2  0  0  0  0
 19 20  1  0  0  0  0
 20 22  2  0  0  0  0
 21 24  2  0  0  0  0
 23 21  1  0  0  0  0
 23 19  2  0  0  0  0
 24 22  1  0  0  0  0
 25 19  1  0  0  0  0
 27 26  2  0  0  0  0
 29 26  1  0  0  0  0
 29 30  1  0  0  0  0
 30 28  1  0  0  0  0
 31 34  1  0  0  0  0
 32 33  1  0  0  0  0
 32 31  2  0  0  0  0
 33 29  2  0  0  0  0
 34 30  2  0  0  0  0
M  END
>  <MODEL>
5

>  <REMARK>
 VINA RESULT:      -7.2      3.799      8.792
  Name = 
  3 active torsions:
  status: ('A' for Active; 'I' for Inactive)
    1  A    between atoms: C_3  and  C_13
    2  A    between atoms: C_12  and  C_28
    3  A    between atoms: C_17  and  C_29
                            x       y       z     vdW  Elec       q    Type
                         _______ _______ _______ _____ _____    ______ ____

>  <TORSDO>
F 3

$$$$
