=
 OpenBabel11062407583D

 34 39  0  0  1  0  0  0  0  0999 V2000
  160.9570  204.1370  149.1270 C   0  0  0  0  0  0  0  0  0  0  0  0
  161.2440  204.3720  151.5450 C   0  0  0  0  0  0  0  0  0  0  0  0
  160.9590  206.3300  150.1200 C   0  0  0  0  0  0  0  0  0  0  0  0
  161.0360  208.5820  151.4210 C   0  0  2  0  0  3  0  0  0  0  0  0
  161.2430  202.1740  150.5200 C   0  0  0  0  0  3  0  0  0  0  0  0
  161.3390  202.9820  151.6620 C   0  0  0  0  0  3  0  0  0  0  0  0
  161.2290  206.5720  152.5700 C   0  0  0  0  0  0  0  0  0  0  0  0
  161.0540  204.9430  150.2680 C   0  0  0  0  0  0  0  0  0  0  0  0
  161.1850  208.8950  152.8580 N   0  0  0  0  0  2  0  0  0  0  0  0
  161.0520  202.7480  149.2550 C   0  0  0  0  0  3  0  0  0  0  0  0
  160.6790  206.0710  147.7890 C   0  0  0  0  0  3  0  0  0  0  0  0
  160.7720  204.7150  147.9110 N   0  0  0  0  0  0  0  0  0  0  0  0
  161.3340  205.2470  152.7390 C   0  0  0  0  0  3  0  0  0  0  0  0
  161.2960  207.6260  153.6010 C   0  0  1  0  0  3  0  0  0  0  0  0
  161.0720  207.1410  151.2960 N   0  0  0  0  0  0  0  0  0  0  0  0
  160.7730  206.8710  148.8860 N   0  0  0  0  0  0  0  0  0  0  0  0
  160.1330  207.5160  154.5740 C   0  0  0  0  0  2  0  0  0  0  0  0
  160.6410  207.4150  155.9990 C   0  0  0  0  0  2  0  0  0  0  0  0
  161.4630  208.6410  156.3290 C   0  0  0  0  0  2  0  0  0  0  0  0
  160.5940  209.8030  156.3940 N   0  0  0  0  0  2  0  0  0  0  0  0
  162.6800  210.5670  155.6340 O   0  0  0  0  0  1  0  0  0  0  0  0
  161.3620  210.9460  155.9120 C   0  0  1  0  0  3  0  0  0  0  0  0
  160.7510  211.5570  154.7950 O   0  0  0  0  0  0  0  0  0  0  0  0
  158.7650  211.4530  153.4810 C   0  0  0  0  0  1  0  0  0  0  0  0
  159.3660  211.3390  154.8650 C   0  0  0  0  0  2  0  0  0  0  0  0
  162.1870  209.2000  150.6410 C   0  0  0  0  0  2  0  0  0  0  0  0
  160.4600  212.7030  147.8610 C   0  0  0  0  0  3  0  0  0  0  0  0
  161.2920  211.6870  147.5190 C   0  0  0  0  0  3  0  0  0  0  0  0
  161.0940  211.3790  150.3920 C   0  0  1  0  0  3  0  0  0  0  0  0
  162.0270  210.8850  148.4600 N   0  0  0  0  0  2  0  0  0  0  0  0
  160.7390  212.8250  150.5000 C   0  0  0  0  0  2  0  0  0  0  0  0
  162.3690  211.4850  149.6740 N   0  0  2  0  0  0  0  0  0  0  0  0
  162.2700  210.6970  150.9170 C   0  0  2  0  0  3  0  0  0  0  0  0
  159.9310  213.1490  149.2300 C   0  0  0  0  0  2  0  0  0  0  0  0
  1 10  2  0  0  0  0
  1  8  1  0  0  0  0
  2  6  1  0  0  0  0
  2 13  1  0  0  0  0
  3  8  1  0  0  0  0
  3 15  1  0  0  0  0
  4 26  1  6  0  0  0
  4  9  1  0  0  0  0
  5  6  2  0  0  0  0
  7 13  2  0  0  0  0
  7 14  1  0  0  0  0
  8  2  2  0  0  0  0
  9 14  1  0  0  0  0
 10  5  1  0  0  0  0
 11 12  2  0  0  0  0
 11 16  1  0  0  0  0
 12  1  1  0  0  0  0
 14 17  1  1  0  0  0
 15  4  1  0  0  0  0
 15  7  1  0  0  0  0
 16  3  2  0  0  0  0
 17 18  1  0  0  0  0
 18 19  1  0  0  0  0
 19 20  1  0  0  0  0
 22 21  1  6  0  0  0
 22 20  1  0  0  0  0
 23 25  1  0  0  0  0
 23 22  1  0  0  0  0
 24 25  1  0  0  0  0
 27 34  1  0  0  0  0
 28 27  2  0  0  0  0
 28 30  1  0  0  0  0
 29 31  1  1  0  0  0
 29 33  1  0  0  0  0
 32 30  1  6  0  0  0
 32 29  1  0  0  0  0
 32 33  1  0  0  0  0
 33 26  1  6  0  0  0
 34 31  1  0  0  0  0
M  END
>  <MODEL>
1

>  <REMARK>
 VINA RESULT:      -7.2      0.000      0.000
  Name = 
  9 active torsions:
  status: ('A' for Active; 'I' for Inactive)
    1  A    between atoms: C_3  and  C_13
    2  A    between atoms: C_3  and  C_17
    3  A    between atoms: C_5  and  C_26
    4  A    between atoms: C_13  and  N_33
    5  A    between atoms: C_14  and  O_20
    6  A    between atoms: C_17  and  C_29
    7  A    between atoms: O_20  and  C_34
    8  A    between atoms: C_26  and  C_28
    9  A    between atoms: N_33  and  C_34
                            x       y       z     vdW  Elec       q    Type
                         _______ _______ _______ _____ _____    ______ ____

>  <TORSDO>
F 9

$$$$
=
 OpenBabel11062407583D

 34 39  0  0  1  0  0  0  0  0999 V2000
  161.3030  204.7800  150.8140 C   0  0  0  0  0  0  0  0  0  0  0  0
  161.3270  206.4530  149.0290 C   0  0  0  0  0  0  0  0  0  0  0  0
  161.5060  207.1130  151.3690 C   0  0  0  0  0  0  0  0  0  0  0  0
  161.6750  209.6870  151.7110 C   0  0  2  0  0  3  0  0  0  0  0  0
  161.1180  204.0960  148.4950 C   0  0  0  0  0  3  0  0  0  0  0  0
  161.1950  205.4340  148.0810 C   0  0  0  0  0  3  0  0  0  0  0  0
  161.5510  208.8090  149.5650 C   0  0  0  0  0  0  0  0  0  0  0  0
  161.3780  206.1160  150.3980 C   0  0  0  0  0  0  0  0  0  0  0  0
  161.7180  210.8160  150.7580 N   0  0  0  0  0  2  0  0  0  0  0  0
  161.1720  203.7680  149.8580 C   0  0  0  0  0  3  0  0  0  0  0  0
  161.4840  205.4750  153.0700 C   0  0  0  0  0  3  0  0  0  0  0  0
  161.3560  204.4860  152.1400 N   0  0  0  0  0  0  0  0  0  0  0  0
  161.4180  207.8730  148.6140 C   0  0  0  0  0  3  0  0  0  0  0  0
  161.6520  210.2710  149.3890 C   0  0  1  0  0  3  0  0  0  0  0  0
  161.5700  208.4750  150.9280 N   0  0  0  0  0  0  0  0  0  0  0  0
  161.5570  206.7790  152.6860 N   0  0  0  0  0  0  0  0  0  0  0  0
  162.9220  210.6480  148.6430 C   0  0  0  0  0  2  0  0  0  0  0  0
  162.8620  212.0930  148.1890 C   0  0  0  0  0  2  0  0  0  0  0  0
  161.5190  212.3630  147.5460 C   0  0  0  0  0  2  0  0  0  0  0  0
  161.6530  213.4420  146.5820 N   0  0  0  0  0  2  0  0  0  0  0  0
  161.4770  212.7280  144.3520 O   0  0  0  0  0  1  0  0  0  0  0  0
  160.7520  213.1460  145.4730 C   0  0  1  0  0  3  0  0  0  0  0  0
  159.7660  212.2010  145.8360 O   0  0  0  0  0  0  0  0  0  0  0  0
  157.4370  212.5130  146.2370 C   0  0  0  0  0  1  0  0  0  0  0  0
  158.5560  212.5550  145.2180 C   0  0  0  0  0  2  0  0  0  0  0  0
  160.4600  209.8280  152.6160 C   0  0  0  0  0  2  0  0  0  0  0  0
  161.5380  208.6820  157.1450 C   0  0  0  0  0  3  0  0  0  0  0  0
  160.4760  208.2800  156.4030 C   0  0  0  0  0  3  0  0  0  0  0  0
  161.7290  210.2360  154.6720 C   0  0  1  0  0  3  0  0  0  0  0  0
  160.0420  208.9190  155.1900 N   0  0  0  0  0  2  0  0  0  0  0  0
  162.3440  210.8720  155.8750 C   0  0  0  0  0  2  0  0  0  0  0  0
  160.3140  210.2830  155.0570 N   0  0  2  0  0  0  0  0  0  0  0  0
  160.7540  210.8040  153.7500 C   0  0  2  0  0  3  0  0  0  0  0  0
  162.6310  209.7170  156.8520 C   0  0  0  0  0  2  0  0  0  0  0  0
  1 12  1  0  0  0  0
  2  8  1  0  0  0  0
  3 16  2  0  0  0  0
  4 26  1  1  0  0  0
  5 10  2  0  0  0  0
  6  5  1  0  0  0  0
  6  2  2  0  0  0  0
  7 15  1  0  0  0  0
  8  1  2  0  0  0  0
  8  3  1  0  0  0  0
  9  4  1  0  0  0  0
 10  1  1  0  0  0  0
 12 11  2  0  0  0  0
 13  2  1  0  0  0  0
 13  7  2  0  0  0  0
 14 17  1  6  0  0  0
 14  7  1  0  0  0  0
 14  9  1  0  0  0  0
 15  3  1  0  0  0  0
 15  4  1  0  0  0  0
 16 11  1  0  0  0  0
 18 17  1  0  0  0  0
 19 18  1  0  0  0  0
 20 19  1  0  0  0  0
 22 21  1  6  0  0  0
 22 23  1  0  0  0  0
 22 20  1  0  0  0  0
 25 23  1  0  0  0  0
 25 24  1  0  0  0  0
 28 27  2  0  0  0  0
 29 32  1  0  0  0  0
 29 31  1  1  0  0  0
 30 28  1  0  0  0  0
 31 34  1  0  0  0  0
 32 30  1  6  0  0  0
 33 26  1  6  0  0  0
 33 29  1  0  0  0  0
 33 32  1  0  0  0  0
 34 27  1  0  0  0  0
M  END
>  <MODEL>
2

>  <REMARK>
 VINA RESULT:      -6.9      2.918      6.504
  Name = 
  9 active torsions:
  status: ('A' for Active; 'I' for Inactive)
    1  A    between atoms: C_3  and  C_13
    2  A    between atoms: C_3  and  C_17
    3  A    between atoms: C_5  and  C_26
    4  A    between atoms: C_13  and  N_33
    5  A    between atoms: C_14  and  O_20
    6  A    between atoms: C_17  and  C_29
    7  A    between atoms: O_20  and  C_34
    8  A    between atoms: C_26  and  C_28
    9  A    between atoms: N_33  and  C_34
                            x       y       z     vdW  Elec       q    Type
                         _______ _______ _______ _____ _____    ______ ____

>  <TORSDO>
F 9

$$$$
=
 OpenBabel11062407583D

 34 39  0  0  1  0  0  0  0  0999 V2000
  161.2650  204.8250  150.9300 C   0  0  0  0  0  0  0  0  0  0  0  0
  161.3070  206.4750  149.1240 C   0  0  0  0  0  0  0  0  0  0  0  0
  161.4820  207.1650  151.4550 C   0  0  0  0  0  0  0  0  0  0  0  0
  161.6680  209.7420  151.7650 C   0  0  2  0  0  3  0  0  0  0  0  0
  161.0840  204.1130  148.6200 C   0  0  0  0  0  3  0  0  0  0  0  0
  161.1720  205.4440  148.1890 C   0  0  0  0  0  3  0  0  0  0  0  0
  161.5460  208.8370  149.6290 C   0  0  0  0  0  0  0  0  0  0  0  0
  161.3510  206.1550  150.4970 C   0  0  0  0  0  0  0  0  0  0  0  0
  161.7220  210.8570  150.7970 N   0  0  0  0  0  2  0  0  0  0  0  0
  161.1310  203.8030  149.9870 C   0  0  0  0  0  3  0  0  0  0  0  0
  161.4420  205.5490  153.1780 C   0  0  0  0  0  3  0  0  0  0  0  0
  161.3110  204.5480  152.2600 N   0  0  0  0  0  0  0  0  0  0  0  0
  161.4100  207.8890  148.6910 C   0  0  0  0  0  3  0  0  0  0  0  0
  161.6580  210.2950  149.4360 C   0  0  1  0  0  3  0  0  0  0  0  0
  161.5580  208.5200  150.9970 N   0  0  0  0  0  0  0  0  0  0  0  0
  161.5260  206.8470  152.7770 N   0  0  0  0  0  0  0  0  0  0  0  0
  162.9340  210.6540  148.6890 C   0  0  0  0  0  2  0  0  0  0  0  0
  162.8390  212.0550  148.1180 C   0  0  0  0  0  2  0  0  0  0  0  0
  161.4630  212.2630  147.5220 C   0  0  0  0  0  2  0  0  0  0  0  0
  161.3690  213.6100  146.9840 N   0  0  0  0  0  2  0  0  0  0  0  0
  159.9160  213.8880  145.1600 O   0  0  0  0  0  1  0  0  0  0  0  0
  161.2020  213.4870  145.5400 C   0  0  1  0  0  3  0  0  0  0  0  0
  162.1970  214.1990  144.8340 O   0  0  0  0  0  0  0  0  0  0  0  0
  162.4580  212.6440  143.0470 C   0  0  0  0  0  1  0  0  0  0  0  0
  163.0910  213.2770  144.2670 C   0  0  0  0  0  2  0  0  0  0  0  0
  160.4510  209.9030  152.6640 C   0  0  0  0  0  2  0  0  0  0  0  0
  161.4590  208.5960  157.1640 C   0  0  0  0  0  3  0  0  0  0  0  0
  160.3890  208.2510  156.4050 C   0  0  0  0  0  3  0  0  0  0  0  0
  161.7180  210.2100  154.7380 C   0  0  1  0  0  3  0  0  0  0  0  0
  159.9850  208.9380  155.2080 N   0  0  0  0  0  2  0  0  0  0  0  0
  162.3460  210.7920  155.9610 C   0  0  0  0  0  2  0  0  0  0  0  0
  160.3040  210.2940  155.1160 N   0  0  2  0  0  0  0  0  0  0  0  0
  160.7700  210.8360  153.8250 C   0  0  2  0  0  3  0  0  0  0  0  0
  162.5890  209.6020  156.9070 C   0  0  0  0  0  2  0  0  0  0  0  0
  1 12  1  0  0  0  0
  2  8  1  0  0  0  0
  3 16  2  0  0  0  0
  4 26  1  1  0  0  0
  5 10  2  0  0  0  0
  6  5  1  0  0  0  0
  6  2  2  0  0  0  0
  7 15  1  0  0  0  0
  8  1  2  0  0  0  0
  8  3  1  0  0  0  0
  9  4  1  0  0  0  0
 10  1  1  0  0  0  0
 12 11  2  0  0  0  0
 13  2  1  0  0  0  0
 13  7  2  0  0  0  0
 14 17  1  6  0  0  0
 14  7  1  0  0  0  0
 14  9  1  0  0  0  0
 15  3  1  0  0  0  0
 15  4  1  0  0  0  0
 16 11  1  0  0  0  0
 18 17  1  0  0  0  0
 19 18  1  0  0  0  0
 20 19  1  0  0  0  0
 22 21  1  6  0  0  0
 22 20  1  0  0  0  0
 23 22  1  0  0  0  0
 24 25  1  0  0  0  0
 25 23  1  0  0  0  0
 28 27  2  0  0  0  0
 29 32  1  0  0  0  0
 29 31  1  1  0  0  0
 30 28  1  0  0  0  0
 31 34  1  0  0  0  0
 32 30  1  6  0  0  0
 33 26  1  6  0  0  0
 33 29  1  0  0  0  0
 33 32  1  0  0  0  0
 34 27  1  0  0  0  0
M  END
>  <MODEL>
3

>  <REMARK>
 VINA RESULT:      -6.9      3.092      6.781
  Name = 
  9 active torsions:
  status: ('A' for Active; 'I' for Inactive)
    1  A    between atoms: C_3  and  C_13
    2  A    between atoms: C_3  and  C_17
    3  A    between atoms: C_5  and  C_26
    4  A    between atoms: C_13  and  N_33
    5  A    between atoms: C_14  and  O_20
    6  A    between atoms: C_17  and  C_29
    7  A    between atoms: O_20  and  C_34
    8  A    between atoms: C_26  and  C_28
    9  A    between atoms: N_33  and  C_34
                            x       y       z     vdW  Elec       q    Type
                         _______ _______ _______ _____ _____    ______ ____

>  <TORSDO>
F 9

$$$$
=
 OpenBabel11062407583D

 34 39  0  0  1  0  0  0  0  0999 V2000
  160.8110  213.0960  150.1140 C   0  0  0  0  0  0  0  0  0  0  0  0
  159.9880  211.6720  151.9260 C   0  0  0  0  0  0  0  0  0  0  0  0
  161.5570  210.8110  150.2690 C   0  0  0  0  0  0  0  0  0  0  0  0
  162.1790  208.3110  150.6290 C   0  0  2  0  0  3  0  0  0  0  0  0
  159.2480  213.9750  151.7450 C   0  0  0  0  0  3  0  0  0  0  0  0
  159.2210  212.7380  152.4060 C   0  0  0  0  0  3  0  0  0  0  0  0
  160.7430  209.3730  152.1140 C   0  0  0  0  0  0  0  0  0  0  0  0
  160.7820  211.8600  150.7740 C   0  0  0  0  0  0  0  0  0  0  0  0
  161.7900  207.3290  151.6630 N   0  0  0  0  0  2  0  0  0  0  0  0
  160.0410  214.1550  150.6020 C   0  0  0  0  0  3  0  0  0  0  0  0
  162.3360  212.2110  148.5330 C   0  0  0  0  0  3  0  0  0  0  0  0
  161.5860  213.2460  149.0080 N   0  0  0  0  0  0  0  0  0  0  0  0
  159.9820  210.3580  152.6120 C   0  0  0  0  0  3  0  0  0  0  0  0
  160.8870  207.9940  152.6200 C   0  0  1  0  0  3  0  0  0  0  0  0
  161.5070  209.5510  150.9490 N   0  0  0  0  0  0  0  0  0  0  0  0
  162.3200  211.0020  149.1610 N   0  0  0  0  0  0  0  0  0  0  0  0
  161.5270  207.9800  153.9990 C   0  0  0  0  0  2  0  0  0  0  0  0
  160.6930  207.1590  154.9630 C   0  0  0  0  0  2  0  0  0  0  0  0
  160.0450  208.0780  155.9770 C   0  0  0  0  0  2  0  0  0  0  0  0
  160.9840  209.1200  156.3550 N   0  0  0  0  0  2  0  0  0  0  0  0
  160.9220  211.3930  155.7680 O   0  0  0  0  0  1  0  0  0  0  0  0
  160.2360  210.3690  156.4320 C   0  0  1  0  0  3  0  0  0  0  0  0
  158.9190  210.2240  155.9410 O   0  0  0  0  0  0  0  0  0  0  0  0
  157.0060  211.3810  155.1160 C   0  0  0  0  0  1  0  0  0  0  0  0
  158.3440  211.4980  155.8130 C   0  0  0  0  0  2  0  0  0  0  0  0
  161.7340  207.8160  149.2610 C   0  0  0  0  0  2  0  0  0  0  0  0
  161.5690  203.9190  146.4740 C   0  0  0  0  0  3  0  0  0  0  0  0
  161.5230  205.2240  146.1040 C   0  0  0  0  0  3  0  0  0  0  0  0
  161.4210  205.4010  148.9930 C   0  0  1  0  0  3  0  0  0  0  0  0
  161.2400  206.3140  146.9980 N   0  0  0  0  0  2  0  0  0  0  0  0
  160.8710  204.0130  149.0350 C   0  0  0  0  0  2  0  0  0  0  0  0
  160.4380  206.0340  148.1070 N   0  0  2  0  0  0  0  0  0  0  0  0
  160.7760  206.6400  149.4080 C   0  0  2  0  0  3  0  0  0  0  0  0
  161.5360  203.2690  147.8630 C   0  0  0  0  0  2  0  0  0  0  0  0
  1 10  2  0  0  0  0
  1  8  1  0  0  0  0
  2  6  1  0  0  0  0
  2 13  1  0  0  0  0
  3  8  1  0  0  0  0
  3 15  1  0  0  0  0
  4 26  1  6  0  0  0
  4 15  1  0  0  0  0
  4  9  1  0  0  0  0
  5  6  2  0  0  0  0
  7 13  2  0  0  0  0
  7 14  1  0  0  0  0
  8  2  2  0  0  0  0
  9 14  1  0  0  0  0
 10  5  1  0  0  0  0
 11 12  2  0  0  0  0
 11 16  1  0  0  0  0
 12  1  1  0  0  0  0
 14 17  1  1  0  0  0
 15  7  1  0  0  0  0
 16  3  2  0  0  0  0
 17 18  1  0  0  0  0
 18 19  1  0  0  0  0
 19 20  1  0  0  0  0
 20 22  1  0  0  0  0
 22 21  1  6  0  0  0
 23 22  1  0  0  0  0
 24 25  1  0  0  0  0
 25 23  1  0  0  0  0
 27 34  1  0  0  0  0
 28 27  2  0  0  0  0
 28 30  1  0  0  0  0
 29 31  1  1  0  0  0
 29 33  1  0  0  0  0
 32 30  1  6  0  0  0
 32 29  1  0  0  0  0
 32 33  1  0  0  0  0
 33 26  1  6  0  0  0
 34 31  1  0  0  0  0
M  END
>  <MODEL>
4

>  <REMARK>
 VINA RESULT:      -6.8      1.516      5.997
  Name = 
  9 active torsions:
  status: ('A' for Active; 'I' for Inactive)
    1  A    between atoms: C_3  and  C_13
    2  A    between atoms: C_3  and  C_17
    3  A    between atoms: C_5  and  C_26
    4  A    between atoms: C_13  and  N_33
    5  A    between atoms: C_14  and  O_20
    6  A    between atoms: C_17  and  C_29
    7  A    between atoms: O_20  and  C_34
    8  A    between atoms: C_26  and  C_28
    9  A    between atoms: N_33  and  C_34
                            x       y       z     vdW  Elec       q    Type
                         _______ _______ _______ _____ _____    ______ ____

>  <TORSDO>
F 9

$$$$
=
 OpenBabel11062407583D

 34 39  0  0  1  0  0  0  0  0999 V2000
  161.3410  204.7960  150.7950 C   0  0  0  0  0  0  0  0  0  0  0  0
  161.3440  206.4470  148.9900 C   0  0  0  0  0  0  0  0  0  0  0  0
  161.5540  207.1360  151.3190 C   0  0  0  0  0  0  0  0  0  0  0  0
  161.7300  209.7140  151.6280 C   0  0  2  0  0  3  0  0  0  0  0  0
  161.1260  204.0850  148.4880 C   0  0  0  0  0  3  0  0  0  0  0  0
  161.1990  205.4170  148.0560 C   0  0  0  0  0  3  0  0  0  0  0  0
  161.5780  208.8100  149.4940 C   0  0  0  0  0  0  0  0  0  0  0  0
  161.4130  206.1270  150.3620 C   0  0  0  0  0  0  0  0  0  0  0  0
  161.7620  210.8310  150.6610 N   0  0  0  0  0  2  0  0  0  0  0  0
  161.1970  203.7730  149.8540 C   0  0  0  0  0  3  0  0  0  0  0  0
  161.5520  205.5180  153.0400 C   0  0  0  0  0  3  0  0  0  0  0  0
  161.4110  204.5180  152.1240 N   0  0  0  0  0  0  0  0  0  0  0  0
  161.4320  207.8630  148.5570 C   0  0  0  0  0  3  0  0  0  0  0  0
  161.6780  210.2700  149.3000 C   0  0  1  0  0  3  0  0  0  0  0  0
  161.6140  208.4930  150.8620 N   0  0  0  0  0  0  0  0  0  0  0  0
  161.6220  206.8180  152.6390 N   0  0  0  0  0  0  0  0  0  0  0  0
  162.9390  210.6360  148.5330 C   0  0  0  0  0  2  0  0  0  0  0  0
  162.8450  212.0520  148.0020 C   0  0  0  0  0  2  0  0  0  0  0  0
  161.4510  212.2970  147.4650 C   0  0  0  0  0  2  0  0  0  0  0  0
  161.3780  213.6330  146.9000 N   0  0  0  0  0  2  0  0  0  0  0  0
  159.8220  213.9460  145.1690 O   0  0  0  0  0  1  0  0  0  0  0  0
  161.1080  213.4850  145.4740 C   0  0  1  0  0  3  0  0  0  0  0  0
  162.0890  214.1250  144.6840 O   0  0  0  0  0  0  0  0  0  0  0  0
  162.3240  212.5800  142.8850 C   0  0  0  0  0  1  0  0  0  0  0  0
  162.9400  213.1470  144.1460 C   0  0  0  0  0  2  0  0  0  0  0  0
  160.5280  209.8670  152.5470 C   0  0  0  0  0  2  0  0  0  0  0  0
  157.4170  211.7430  155.6760 C   0  0  0  0  0  3  0  0  0  0  0  0
  157.3820  211.7890  154.3210 C   0  0  0  0  0  3  0  0  0  0  0  0
  159.9560  210.5620  154.8260 C   0  0  1  0  0  3  0  0  0  0  0  0
  158.5040  211.5050  153.4670 N   0  0  0  0  0  2  0  0  0  0  0  0
  159.9690  211.1990  156.1760 C   0  0  0  0  0  2  0  0  0  0  0  0
  159.7760  211.7510  153.9870 N   0  0  2  0  0  0  0  0  0  0  0  0
  160.8630  210.7940  153.7100 C   0  0  2  0  0  3  0  0  0  0  0  0
  158.5000  211.2280  156.6340 C   0  0  0  0  0  2  0  0  0  0  0  0
  1 12  1  0  0  0  0
  2  8  1  0  0  0  0
  3 16  2  0  0  0  0
  4 26  1  1  0  0  0
  5 10  2  0  0  0  0
  6  5  1  0  0  0  0
  6  2  2  0  0  0  0
  7 15  1  0  0  0  0
  8  1  2  0  0  0  0
  8  3  1  0  0  0  0
  9  4  1  0  0  0  0
 10  1  1  0  0  0  0
 12 11  2  0  0  0  0
 13  2  1  0  0  0  0
 13  7  2  0  0  0  0
 14 17  1  6  0  0  0
 14  7  1  0  0  0  0
 14  9  1  0  0  0  0
 15  3  1  0  0  0  0
 15  4  1  0  0  0  0
 16 11  1  0  0  0  0
 18 17  1  0  0  0  0
 19 18  1  0  0  0  0
 20 19  1  0  0  0  0
 22 21  1  1  0  0  0
 22 20  1  0  0  0  0
 23 22  1  0  0  0  0
 24 25  1  0  0  0  0
 25 23  1  0  0  0  0
 27 34  1  0  0  0  0
 28 27  2  0  0  0  0
 29 31  1  1  0  0  0
 30 28  1  0  0  0  0
 31 34  1  0  0  0  0
 32 30  1  6  0  0  0
 32 29  1  0  0  0  0
 33 26  1  6  0  0  0
 33 32  1  0  0  0  0
 33 29  1  0  0  0  0
M  END
>  <MODEL>
5

>  <REMARK>
 VINA RESULT:      -6.5      3.224      6.576
  Name = 
  9 active torsions:
  status: ('A' for Active; 'I' for Inactive)
    1  A    between atoms: C_3  and  C_13
    2  A    between atoms: C_3  and  C_17
    3  A    between atoms: C_5  and  C_26
    4  A    between atoms: C_13  and  N_33
    5  A    between atoms: C_14  and  O_20
    6  A    between atoms: C_17  and  C_29
    7  A    between atoms: O_20  and  C_34
    8  A    between atoms: C_26  and  C_28
    9  A    between atoms: N_33  and  C_34
                            x       y       z     vdW  Elec       q    Type
                         _______ _______ _______ _____ _____    ______ ____

>  <TORSDO>
F 9

$$$$
=
 OpenBabel11062407583D

 34 39  0  0  1  0  0  0  0  0999 V2000
  161.3570  204.7340  150.5830 C   0  0  0  0  0  0  0  0  0  0  0  0
  161.3620  206.3990  148.7890 C   0  0  0  0  0  0  0  0  0  0  0  0
  161.5860  207.0690  151.1230 C   0  0  0  0  0  0  0  0  0  0  0  0
  161.7800  209.6430  151.4490 C   0  0  2  0  0  3  0  0  0  0  0  0
  161.1270  204.0410  148.2710 C   0  0  0  0  0  3  0  0  0  0  0  0
  161.2070  205.3760  147.8490 C   0  0  0  0  0  3  0  0  0  0  0  0
  161.6120  208.7560  149.3090 C   0  0  0  0  0  0  0  0  0  0  0  0
  161.4350  206.0680  150.1590 C   0  0  0  0  0  0  0  0  0  0  0  0
  161.8140  210.7670  150.4900 N   0  0  0  0  0  2  0  0  0  0  0  0
  161.2030  203.7190  149.6340 C   0  0  0  0  0  3  0  0  0  0  0  0
  161.5820  205.4390  152.8320 C   0  0  0  0  0  3  0  0  0  0  0  0
  161.4320  204.4460  151.9090 N   0  0  0  0  0  0  0  0  0  0  0  0
  161.4560  207.8170  148.3660 C   0  0  0  0  0  3  0  0  0  0  0  0
  161.7200  210.2160  149.1250 C   0  0  1  0  0  3  0  0  0  0  0  0
  161.6530  208.4290  150.6740 N   0  0  0  0  0  0  0  0  0  0  0  0
  161.6580  206.7410  152.4400 N   0  0  0  0  0  0  0  0  0  0  0  0
  162.9800  210.5800  148.3550 C   0  0  0  0  0  2  0  0  0  0  0  0
  163.0880  212.0840  148.1950 C   0  0  0  0  0  2  0  0  0  0  0  0
  161.9040  212.5920  147.4020 C   0  0  0  0  0  2  0  0  0  0  0  0
  161.3110  213.7260  148.0910 N   0  0  0  0  0  2  0  0  0  0  0  0
  159.6690  213.6900  149.7700 O   0  0  0  0  0  1  0  0  0  0  0  0
  159.9440  213.3540  148.4400 C   0  0  1  0  0  3  0  0  0  0  0  0
  159.0030  213.9250  147.5550 O   0  0  0  0  0  0  0  0  0  0  0  0
  157.4520  212.5790  146.3440 C   0  0  0  0  0  1  0  0  0  0  0  0
  157.7930  213.2220  147.6710 C   0  0  0  0  0  2  0  0  0  0  0  0
  160.5820  209.7970  152.3750 C   0  0  0  0  0  2  0  0  0  0  0  0
  157.5120  211.6460  155.5600 C   0  0  0  0  0  3  0  0  0  0  0  0
  157.4700  211.7200  154.2060 C   0  0  0  0  0  3  0  0  0  0  0  0
  160.0310  210.4510  154.6710 C   0  0  1  0  0  3  0  0  0  0  0  0
  158.5840  211.4400  153.3400 N   0  0  0  0  0  2  0  0  0  0  0  0
  160.0600  211.0600  156.0340 C   0  0  0  0  0  2  0  0  0  0  0  0
  159.8620  211.6600  153.8580 N   0  0  2  0  0  0  0  0  0  0  0  0
  160.9360  210.6950  153.5540 C   0  0  2  0  0  3  0  0  0  0  0  0
  158.5930  211.0980  156.5010 C   0  0  0  0  0  2  0  0  0  0  0  0
  1 12  1  0  0  0  0
  2  8  1  0  0  0  0
  3 16  2  0  0  0  0
  4 26  1  1  0  0  0
  5 10  2  0  0  0  0
  6  5  1  0  0  0  0
  6  2  2  0  0  0  0
  7 15  1  0  0  0  0
  8  1  2  0  0  0  0
  8  3  1  0  0  0  0
  9  4  1  0  0  0  0
 10  1  1  0  0  0  0
 12 11  2  0  0  0  0
 13  2  1  0  0  0  0
 13  7  2  0  0  0  0
 14 17  1  6  0  0  0
 14  7  1  0  0  0  0
 14  9  1  0  0  0  0
 15  3  1  0  0  0  0
 15  4  1  0  0  0  0
 16 11  1  0  0  0  0
 18 17  1  0  0  0  0
 19 20  1  0  0  0  0
 19 18  1  0  0  0  0
 20 22  1  0  0  0  0
 22 21  1  1  0  0  0
 23 25  1  0  0  0  0
 23 22  1  0  0  0  0
 24 25  1  0  0  0  0
 27 34  1  0  0  0  0
 28 27  2  0  0  0  0
 29 31  1  1  0  0  0
 30 28  1  0  0  0  0
 31 34  1  0  0  0  0
 32 30  1  6  0  0  0
 32 29  1  0  0  0  0
 33 26  1  6  0  0  0
 33 32  1  0  0  0  0
 33 29  1  0  0  0  0
M  END
>  <MODEL>
6

>  <REMARK>
 VINA RESULT:      -6.5      2.447      5.732
  Name = 
  9 active torsions:
  status: ('A' for Active; 'I' for Inactive)
    1  A    between atoms: C_3  and  C_13
    2  A    between atoms: C_3  and  C_17
    3  A    between atoms: C_5  and  C_26
    4  A    between atoms: C_13  and  N_33
    5  A    between atoms: C_14  and  O_20
    6  A    between atoms: C_17  and  C_29
    7  A    between atoms: O_20  and  C_34
    8  A    between atoms: C_26  and  C_28
    9  A    between atoms: N_33  and  C_34
                            x       y       z     vdW  Elec       q    Type
                         _______ _______ _______ _____ _____    ______ ____

>  <TORSDO>
F 9

$$$$
=
 OpenBabel11062407583D

 34 39  0  0  1  0  0  0  0  0999 V2000
  161.2530  210.9120  150.8330 C   0  0  0  0  0  0  0  0  0  0  0  0
  161.9170  208.6500  150.1760 C   0  0  0  0  0  0  0  0  0  0  0  0
  160.9670  209.0880  152.3780 C   0  0  0  0  0  0  0  0  0  0  0  0
  160.7950  206.9670  153.8760 C   0  0  2  0  0  3  0  0  0  0  0  0
  162.2000  210.5040  148.6380 C   0  0  0  0  0  3  0  0  0  0  0  0
  162.3260  209.1380  148.9320 C   0  0  0  0  0  3  0  0  0  0  0  0
  161.6180  206.7940  151.7110 C   0  0  0  0  0  0  0  0  0  0  0  0
  161.3810  209.5470  151.1250 C   0  0  0  0  0  0  0  0  0  0  0  0
  161.1310  205.5490  153.6320 N   0  0  0  0  0  2  0  0  0  0  0  0
  161.6650  211.3900  149.5850 C   0  0  0  0  0  3  0  0  0  0  0  0
  160.3320  211.2820  152.9820 C   0  0  0  0  0  3  0  0  0  0  0  0
  160.7330  211.7510  151.7660 N   0  0  0  0  0  0  0  0  0  0  0  0
  162.0330  207.2090  150.5060 C   0  0  0  0  0  3  0  0  0  0  0  0
  161.6440  205.4220  152.2560 C   0  0  1  0  0  3  0  0  0  0  0  0
  161.1150  207.6920  152.6660 N   0  0  0  0  0  0  0  0  0  0  0  0
  160.4500  209.9600  153.2850 N   0  0  0  0  0  0  0  0  0  0  0  0
  160.7260  204.5010  151.4670 C   0  0  0  0  0  2  0  0  0  0  0  0
  161.5370  203.4850  150.6870 C   0  0  0  0  0  2  0  0  0  0  0  0
  160.8060  203.1290  149.4110 C   0  0  0  0  0  2  0  0  0  0  0  0
  161.0160  204.1740  148.4250 N   0  0  0  0  0  2  0  0  0  0  0  0
  161.2040  202.3620  146.9440 O   0  0  0  0  0  1  0  0  0  0  0  0
  161.7690  203.5840  147.3230 C   0  0  1  0  0  3  0  0  0  0  0  0
  161.8780  204.4690  146.2280 O   0  0  0  0  0  0  0  0  0  0  0  0
  160.4130  206.1910  145.4730 C   0  0  0  0  0  1  0  0  0  0  0  0
  161.3120  205.7020  146.5880 C   0  0  0  0  0  2  0  0  0  0  0  0
  161.6260  207.4980  155.0350 C   0  0  0  0  0  2  0  0  0  0  0  0
  161.3150  211.7420  157.2430 C   0  0  0  0  0  3  0  0  0  0  0  0
  162.4240  211.0020  156.9890 C   0  0  0  0  0  3  0  0  0  0  0  0
  160.2960  209.2260  156.1510 C   0  0  1  0  0  3  0  0  0  0  0  0
  162.4090  209.6090  156.6340 N   0  0  0  0  0  2  0  0  0  0  0  0
  159.3630  209.9490  157.0650 C   0  0  0  0  0  2  0  0  0  0  0  0
  161.3400  208.8440  157.1070 N   0  0  2  0  0  0  0  0  0  0  0  0
  160.7300  207.8360  156.2190 C   0  0  2  0  0  3  0  0  0  0  0  0
  159.8280  211.4170  157.0540 C   0  0  0  0  0  2  0  0  0  0  0  0
  1  8  2  0  0  0  0
  1 12  1  0  0  0  0
  2 13  1  0  0  0  0
  2  8  1  0  0  0  0
  3 15  1  0  0  0  0
  3 16  2  0  0  0  0
  4 26  1  1  0  0  0
  5  6  1  0  0  0  0
  5 10  2  0  0  0  0
  6  2  2  0  0  0  0
  7 14  1  0  0  0  0
  7 15  1  0  0  0  0
  8  3  1  0  0  0  0
  9  4  1  0  0  0  0
 10  1  1  0  0  0  0
 11 16  1  0  0  0  0
 12 11  2  0  0  0  0
 13  7  2  0  0  0  0
 14 17  1  6  0  0  0
 14  9  1  0  0  0  0
 15  4  1  0  0  0  0
 18 17  1  0  0  0  0
 19 18  1  0  0  0  0
 20 19  1  0  0  0  0
 22 21  1  6  0  0  0
 22 20  1  0  0  0  0
 23 25  1  0  0  0  0
 23 22  1  0  0  0  0
 24 25  1  0  0  0  0
 28 27  2  0  0  0  0
 29 33  1  0  0  0  0
 29 31  1  1  0  0  0
 29 32  1  0  0  0  0
 30 28  1  0  0  0  0
 32 30  1  6  0  0  0
 33 26  1  6  0  0  0
 33 32  1  0  0  0  0
 34 31  1  0  0  0  0
 34 27  1  0  0  0  0
M  END
>  <MODEL>
7

>  <REMARK>
 VINA RESULT:      -6.4      3.181      7.379
  Name = 
  9 active torsions:
  status: ('A' for Active; 'I' for Inactive)
    1  A    between atoms: C_3  and  C_13
    2  A    between atoms: C_3  and  C_17
    3  A    between atoms: C_5  and  C_26
    4  A    between atoms: C_13  and  N_33
    5  A    between atoms: C_14  and  O_20
    6  A    between atoms: C_17  and  C_29
    7  A    between atoms: O_20  and  C_34
    8  A    between atoms: C_26  and  C_28
    9  A    between atoms: N_33  and  C_34
                            x       y       z     vdW  Elec       q    Type
                         _______ _______ _______ _____ _____    ______ ____

>  <TORSDO>
F 9

$$$$
=
 OpenBabel11062407583D

 34 39  0  0  1  0  0  0  0  0999 V2000
  160.8030  208.7010  156.2540 C   0  0  0  0  0  0  0  0  0  0  0  0
  161.9130  210.1400  154.6160 C   0  0  0  0  0  0  0  0  0  0  0  0
  160.9040  208.0240  153.9460 C   0  0  0  0  0  0  0  0  0  0  0  0
  161.1790  207.4990  151.4120 C   0  0  2  0  0  3  0  0  0  0  0  0
  161.8030  210.7980  156.9480 C   0  0  0  0  0  3  0  0  0  0  0  0
  162.2080  211.0560  155.6300 C   0  0  0  0  0  3  0  0  0  0  0  0
  162.0090  209.4860  152.2810 C   0  0  0  0  0  0  0  0  0  0  0  0
  161.2100  208.9600  154.9380 C   0  0  0  0  0  0  0  0  0  0  0  0
  161.7970  208.2530  150.3020 N   0  0  0  0  0  2  0  0  0  0  0  0
  161.1020  209.6240  157.2600 C   0  0  0  0  0  3  0  0  0  0  0  0
  159.8350  206.6580  155.5500 C   0  0  0  0  0  3  0  0  0  0  0  0
  160.1250  207.5560  156.5340 N   0  0  0  0  0  0  0  0  0  0  0  0
  162.3240  210.3950  153.2140 C   0  0  0  0  0  3  0  0  0  0  0  0
  162.3190  209.5240  150.8380 C   0  0  1  0  0  3  0  0  0  0  0  0
  161.3370  208.2980  152.6080 N   0  0  0  0  0  0  0  0  0  0  0  0
  160.2230  206.8910  154.2650 N   0  0  0  0  0  0  0  0  0  0  0  0
  161.6060  210.6800  150.1540 C   0  0  0  0  0  2  0  0  0  0  0  0
  161.9600  210.7250  148.6810 C   0  0  0  0  0  2  0  0  0  0  0  0
  161.9130  212.1580  148.1950 C   0  0  0  0  0  2  0  0  0  0  0  0
  160.9640  212.2660  147.1000 N   0  0  0  0  0  2  0  0  0  0  0  0
  160.4120  214.4530  147.7510 O   0  0  0  0  0  1  0  0  0  0  0  0
  160.9150  213.6700  146.7070 C   0  0  1  0  0  3  0  0  0  0  0  0
  162.1740  214.1370  146.2680 O   0  0  0  0  0  0  0  0  0  0  0  0
  163.3200  213.3270  144.3410 C   0  0  0  0  0  1  0  0  0  0  0  0
  162.1770  214.1700  144.8650 C   0  0  0  0  0  2  0  0  0  0  0  0
  161.8890  206.1630  151.5820 C   0  0  0  0  0  2  0  0  0  0  0  0
  161.2130  202.8140  148.2190 C   0  0  0  0  0  3  0  0  0  0  0  0
  161.2170  204.1640  148.0770 C   0  0  0  0  0  3  0  0  0  0  0  0
  161.3980  203.8480  150.9500 C   0  0  1  0  0  3  0  0  0  0  0  0
  161.0890  205.0970  149.1640 N   0  0  0  0  0  2  0  0  0  0  0  0
  160.7670  202.5010  150.8190 C   0  0  0  0  0  2  0  0  0  0  0  0
  160.3790  204.6690  150.2880 N   0  0  2  0  0  0  0  0  0  0  0  0
  160.8750  205.0260  151.6300 C   0  0  2  0  0  3  0  0  0  0  0  0
  161.2690  201.9380  149.4770 C   0  0  0  0  0  2  0  0  0  0  0  0
  1 12  1  0  0  0  0
  1 10  2  0  0  0  0
  2  8  2  0  0  0  0
  2  6  1  0  0  0  0
  3 16  2  0  0  0  0
  3  8  1  0  0  0  0
  4 26  1  1  0  0  0
  4 15  1  0  0  0  0
  5 10  1  0  0  0  0
  6  5  2  0  0  0  0
  7 15  1  0  0  0  0
  7 13  2  0  0  0  0
  8  1  1  0  0  0  0
  9 14  1  0  0  0  0
  9  4  1  0  0  0  0
 11 12  2  0  0  0  0
 13  2  1  0  0  0  0
 14 17  1  6  0  0  0
 14  7  1  0  0  0  0
 15  3  1  0  0  0  0
 16 11  1  0  0  0  0
 18 17  1  0  0  0  0
 19 18  1  0  0  0  0
 20 19  1  0  0  0  0
 22 20  1  0  0  0  0
 22 21  1  1  0  0  0
 23 22  1  0  0  0  0
 24 25  1  0  0  0  0
 25 23  1  0  0  0  0
 27 34  1  0  0  0  0
 28 27  2  0  0  0  0
 28 30  1  0  0  0  0
 29 31  1  1  0  0  0
 29 33  1  0  0  0  0
 32 30  1  6  0  0  0
 32 29  1  0  0  0  0
 32 33  1  0  0  0  0
 33 26  1  6  0  0  0
 34 31  1  0  0  0  0
M  END
>  <MODEL>
8

>  <REMARK>
 VINA RESULT:      -6.1      2.612      7.746
  Name = 
  9 active torsions:
  status: ('A' for Active; 'I' for Inactive)
    1  A    between atoms: C_3  and  C_13
    2  A    between atoms: C_3  and  C_17
    3  A    between atoms: C_5  and  C_26
    4  A    between atoms: C_13  and  N_33
    5  A    between atoms: C_14  and  O_20
    6  A    between atoms: C_17  and  C_29
    7  A    between atoms: O_20  and  C_34
    8  A    between atoms: C_26  and  C_28
    9  A    between atoms: N_33  and  C_34
                            x       y       z     vdW  Elec       q    Type
                         _______ _______ _______ _____ _____    ______ ____

>  <TORSDO>
F 9

$$$$
=
 OpenBabel11062407583D

 34 39  0  0  1  0  0  0  0  0999 V2000
  160.8040  208.7950  156.2870 C   0  0  0  0  0  0  0  0  0  0  0  0
  161.8980  210.1940  154.6040 C   0  0  0  0  0  0  0  0  0  0  0  0
  160.9360  208.0350  154.0060 C   0  0  0  0  0  0  0  0  0  0  0  0
  161.2390  207.4220  151.4960 C   0  0  2  0  0  3  0  0  0  0  0  0
  161.7580  210.9360  156.9080 C   0  0  0  0  0  3  0  0  0  0  0  0
  162.1670  211.1530  155.5850 C   0  0  0  0  0  3  0  0  0  0  0  0
  162.0230  209.4560  152.2950 C   0  0  0  0  0  0  0  0  0  0  0  0
  161.2150  209.0130  154.9650 C   0  0  0  0  0  0  0  0  0  0  0  0
  161.8500  208.1460  150.3630 N   0  0  0  0  0  2  0  0  0  0  0  0
  161.0780  209.7610  157.2600 C   0  0  0  0  0  3  0  0  0  0  0  0
  159.8820  206.7090  155.6530 C   0  0  0  0  0  3  0  0  0  0  0  0
  160.1470  207.6490  156.6050 N   0  0  0  0  0  0  0  0  0  0  0  0
  162.3140  210.4050  153.1960 C   0  0  0  0  0  3  0  0  0  0  0  0
  162.3430  209.4460  150.8540 C   0  0  1  0  0  3  0  0  0  0  0  0
  161.3720  208.2670  152.6620 N   0  0  0  0  0  0  0  0  0  0  0  0
  160.2750  206.9020  154.3630 N   0  0  0  0  0  0  0  0  0  0  0  0
  161.6130  210.5620  150.1230 C   0  0  0  0  0  2  0  0  0  0  0  0
  162.2550  210.8220  148.7740 C   0  0  0  0  0  2  0  0  0  0  0  0
  161.9080  212.2210  148.3120 C   0  0  0  0  0  2  0  0  0  0  0  0
  160.8120  212.1580  147.3600 N   0  0  0  0  0  2  0  0  0  0  0  0
  160.3330  214.3180  146.5740 O   0  0  0  0  0  1  0  0  0  0  0  0
  160.0100  213.3620  147.5430 C   0  0  1  0  0  3  0  0  0  0  0  0
  158.6270  213.0760  147.5490 O   0  0  0  0  0  0  0  0  0  0  0  0
  156.9540  213.1350  149.2460 C   0  0  0  0  0  1  0  0  0  0  0  0
  157.9980  213.9180  148.4800 C   0  0  0  0  0  2  0  0  0  0  0  0
  161.9740  206.1080  151.7200 C   0  0  0  0  0  2  0  0  0  0  0  0
  161.2160  202.5660  148.5790 C   0  0  0  0  0  3  0  0  0  0  0  0
  161.1950  203.9050  148.3620 C   0  0  0  0  0  3  0  0  0  0  0  0
  161.4910  203.7550  151.2390 C   0  0  1  0  0  3  0  0  0  0  0  0
  161.0960  204.8970  149.3990 N   0  0  0  0  0  2  0  0  0  0  0  0
  160.8750  202.3950  151.2080 C   0  0  0  0  0  2  0  0  0  0  0  0
  160.4360  204.5250  150.5720 N   0  0  2  0  0  0  0  0  0  0  0  0
  160.9790  204.9640  151.8720 C   0  0  2  0  0  3  0  0  0  0  0  0
  161.3330  201.7630  149.8810 C   0  0  0  0  0  2  0  0  0  0  0  0
  1 12  1  0  0  0  0
  1 10  2  0  0  0  0
  2  8  2  0  0  0  0
  2  6  1  0  0  0  0
  3 16  2  0  0  0  0
  3  8  1  0  0  0  0
  4 26  1  1  0  0  0
  4 15  1  0  0  0  0
  5 10  1  0  0  0  0
  6  5  2  0  0  0  0
  7 15  1  0  0  0  0
  7 13  2  0  0  0  0
  8  1  1  0  0  0  0
  9 14  1  0  0  0  0
  9  4  1  0  0  0  0
 11 12  2  0  0  0  0
 13  2  1  0  0  0  0
 14 17  1  6  0  0  0
 14  7  1  0  0  0  0
 15  3  1  0  0  0  0
 16 11  1  0  0  0  0
 18 17  1  0  0  0  0
 19 18  1  0  0  0  0
 20 22  1  0  0  0  0
 20 19  1  0  0  0  0
 22 21  1  6  0  0  0
 22 23  1  0  0  0  0
 23 25  1  0  0  0  0
 25 24  1  0  0  0  0
 27 34  1  0  0  0  0
 28 27  2  0  0  0  0
 28 30  1  0  0  0  0
 29 31  1  1  0  0  0
 29 33  1  0  0  0  0
 32 30  1  6  0  0  0
 32 29  1  0  0  0  0
 32 33  1  0  0  0  0
 33 26  1  6  0  0  0
 34 31  1  0  0  0  0
M  END
>  <MODEL>
9

>  <REMARK>
 VINA RESULT:      -6.1      2.602      7.480
  Name = 
  9 active torsions:
  status: ('A' for Active; 'I' for Inactive)
    1  A    between atoms: C_3  and  C_13
    2  A    between atoms: C_3  and  C_17
    3  A    between atoms: C_5  and  C_26
    4  A    between atoms: C_13  and  N_33
    5  A    between atoms: C_14  and  O_20
    6  A    between atoms: C_17  and  C_29
    7  A    between atoms: O_20  and  C_34
    8  A    between atoms: C_26  and  C_28
    9  A    between atoms: N_33  and  C_34
                            x       y       z     vdW  Elec       q    Type
                         _______ _______ _______ _____ _____    ______ ____

>  <TORSDO>
F 9

$$$$
