=
 OpenBabel11052421503D

 30 32  0  0  1  0  0  0  0  0999 V2000
  159.5840  212.6330  152.3270 C   0  0  0  0  0  2  0  0  0  0  0  0
  158.6310  213.0570  151.2910 C   0  0  2  0  0  3  0  0  0  0  0  0
  159.4870  211.2570  152.6360 C   0  0  0  0  0  2  0  0  0  0  0  0
  158.8090  213.4830  147.8990 O   0  0  0  0  0  0  0  0  0  0  0  0
  162.2620  209.0590  148.3930 O   0  0  0  0  0  0  0  0  0  0  0  0
  159.0710  212.6760  149.8410 C   0  0  2  0  0  3  0  0  0  0  0  0
  160.2200  213.3770  148.1470 C   0  0  2  0  0  0  0  0  0  0  0  0
  160.2230  213.4120  149.5530 O   0  0  0  0  0  0  0  0  0  0  0  0
  158.2480  212.6690  148.7460 O   0  0  0  0  0  0  0  0  0  0  0  0
  162.2110  210.0360  149.1480 C   0  0  0  0  0  0  0  0  0  0  0  0
  162.0670  209.7400  150.5240 N   0  0  0  0  0  2  0  0  0  0  0  0
  160.8190  214.4530  147.6450 O   0  0  0  0  0  1  0  0  0  0  0  0
  161.2300  209.6110  152.9940 C   0  0  2  0  0  3  0  0  0  0  0  0
  160.8010  212.0040  147.6850 C   0  0  0  0  0  2  0  0  0  0  0  0
  160.2560  210.5120  153.6750 C   0  0  1  0  0  3  0  0  0  0  0  0
  162.2780  208.3890  151.1880 C   0  0  1  0  0  3  0  0  0  0  0  0
  160.1860  208.5130  152.6310 C   0  0  0  0  0  2  0  0  0  0  0  0
  162.4080  211.7600  148.5330 S   0  0  0  0  0  0  0  0  0  0  0  0
  161.6150  208.2180  152.5590 C   0  0  2  0  0  3  0  0  0  0  0  0
  161.0810  211.1440  154.8040 C   0  0  0  0  0  0  0  0  0  0  0  0
  160.4870  212.0730  155.4480 C   0  0  0  0  0  2  0  0  0  0  0  0
  161.8820  209.0420  156.2130 O   0  0  0  0  0  1  0  0  0  0  0  0
  162.1260  210.2610  155.4840 C   0  0  0  0  0  0  0  0  0  0  0  0
  163.2410  210.7940  155.7050 O   0  0  0  0  0  0  0  0  0  0  0  0
  158.1990  214.4470  151.5590 C   0  0  0  0  0  2  0  0  0  0  0  0
  156.9310  214.2500  152.1800 O   0  0  0  0  0  1  0  0  0  0  0  0
  162.1290  207.2280  150.4180 O   0  0  0  0  0  0  0  0  0  0  0  0
  161.7260  206.2090  151.2940 C   0  0  0  0  0  2  0  0  0  0  0  0
  160.9460  205.2300  150.5680 C   0  0  0  0  0  3  0  0  0  0  0  0
  160.8210  205.3890  149.3810 O   0  0  0  0  0  0  0  0  0  0  0  0
  1  3  1  0  0  0  0
  2 25  1  6  0  0  0
  2  1  1  0  0  0  0
  3 15  1  0  0  0  0
  4  7  1  0  0  0  0
  4  9  1  0  0  0  0
  5 10  2  0  0  0  0
  6  9  1  6  0  0  0
  6  2  1  0  0  0  0
  7 12  1  6  0  0  0
  7  8  1  0  0  0  0
  8  6  1  0  0  0  0
 10 11  1  0  0  0  0
 11 16  1  0  0  0  0
 13 17  1  6  0  0  0
 13 15  1  0  0  0  0
 14  7  1  0  0  0  0
 14 18  1  0  0  0  0
 15 20  1  1  0  0  0
 16 27  1  6  0  0  0
 16 19  1  0  0  0  0
 18 10  1  0  0  0  0
 19 17  1  6  0  0  0
 19 13  1  0  0  0  0
 20 21  2  0  0  0  0
 20 23  1  0  0  0  0
 23 24  2  0  0  0  0
 23 22  1  0  0  0  0
 25 26  1  0  0  0  0
 27 28  1  0  0  0  0
 29 28  1  0  0  0  0
 30 29  2  0  0  0  0
M  END
>  <MODEL>
1

>  <REMARK>
 VINA RESULT:      -5.1      0.000      0.000
  Name = 
  6 active torsions:
  status: ('A' for Active; 'I' for Inactive)
    1  A    between atoms: C_2  and  C_20
    2  A    between atoms: C_2  and  C_22
    3  A    between atoms: C_3  and  C_10
    4  A    between atoms: C_4  and  C_27
    5  A    between atoms: C_10  and  O_25
    6  A    between atoms: C_23  and  O_25
                            x       y       z     vdW  Elec       q    Type
                         _______ _______ _______ _____ _____    ______ ____

>  <TORSDO>
F 6

$$$$
=
 OpenBabel11052421503D

 30 32  0  0  1  0  0  0  0  0999 V2000
  158.8490  212.1220  152.0720 C   0  0  0  0  0  2  0  0  0  0  0  0
  159.6920  211.6850  153.1940 C   0  0  2  0  0  3  0  0  0  0  0  0
  159.4230  213.1800  151.3310 C   0  0  0  0  0  2  0  0  0  0  0  0
  161.9910  209.1880  153.6370 O   0  0  0  0  0  0  0  0  0  0  0  0
  163.0710  210.4060  148.2440 O   0  0  0  0  0  0  0  0  0  0  0  0
  160.8830  210.7700  152.7650 C   0  0  2  0  0  3  0  0  0  0  0  0
  161.4310  208.7080  152.4040 C   0  0  2  0  0  0  0  0  0  0  0  0
  160.3350  209.5800  152.2790 O   0  0  0  0  0  0  0  0  0  0  0  0
  161.9750  210.4860  153.5410 O   0  0  0  0  0  0  0  0  0  0  0  0
  161.9550  210.3340  148.7690 C   0  0  0  0  0  0  0  0  0  0  0  0
  161.1140  211.4550  148.5770 N   0  0  0  0  0  2  0  0  0  0  0  0
  161.0230  207.4560  152.5840 O   0  0  0  0  0  1  0  0  0  0  0  0
  159.5520  213.5170  148.9340 C   0  0  2  0  0  3  0  0  0  0  0  0
  162.3870  208.9390  151.1910 C   0  0  0  0  0  2  0  0  0  0  0  0
  158.8160  213.9010  150.1730 C   0  0  1  0  0  3  0  0  0  0  0  0
  161.3080  212.5720  147.5640 C   0  0  1  0  0  3  0  0  0  0  0  0
  160.7710  214.4530  149.1910 C   0  0  0  0  0  2  0  0  0  0  0  0
  161.3860  208.8250  149.6590 S   0  0  0  0  0  0  0  0  0  0  0  0
  160.5580  213.8740  147.8670 C   0  0  2  0  0  3  0  0  0  0  0  0
  157.3430  213.8360  149.7500 C   0  0  0  0  0  0  0  0  0  0  0  0
  157.0670  212.9220  148.9030 C   0  0  0  0  0  2  0  0  0  0  0  0
  156.4900  214.4420  152.1890 O   0  0  0  0  0  1  0  0  0  0  0  0
  156.3030  214.3070  150.7670 C   0  0  0  0  0  0  0  0  0  0  0  0
  155.1060  214.2660  150.3930 O   0  0  0  0  0  0  0  0  0  0  0  0
  158.8290  211.2480  154.3150 C   0  0  0  0  0  2  0  0  0  0  0  0
  157.5360  211.6480  153.8690 O   0  0  0  0  0  1  0  0  0  0  0  0
  162.6010  212.8430  147.0990 O   0  0  0  0  0  0  0  0  0  0  0  0
  162.4710  213.7710  146.0550 C   0  0  0  0  0  2  0  0  0  0  0  0
  162.5940  213.0880  144.7840 C   0  0  0  0  0  3  0  0  0  0  0  0
  163.5410  213.3650  144.0950 O   0  0  0  0  0  0  0  0  0  0  0  0
  1  2  1  0  0  0  0
  2 25  1  1  0  0  0
  3  1  1  0  0  0  0
  5 10  2  0  0  0  0
  6  8  1  1  0  0  0
  6  2  1  0  0  0  0
  6  9  1  0  0  0  0
  7 12  1  1  0  0  0
  7  4  1  0  0  0  0
  8  7  1  0  0  0  0
  9  4  1  0  0  0  0
 10 18  1  0  0  0  0
 11 10  1  0  0  0  0
 13 17  1  1  0  0  0
 13 15  1  0  0  0  0
 14  7  1  0  0  0  0
 15 20  1  6  0  0  0
 15  3  1  0  0  0  0
 16 27  1  1  0  0  0
 16 19  1  0  0  0  0
 16 11  1  0  0  0  0
 18 14  1  0  0  0  0
 19 13  1  0  0  0  0
 19 17  1  1  0  0  0
 20 23  1  0  0  0  0
 21 20  2  0  0  0  0
 23 22  1  0  0  0  0
 24 23  2  0  0  0  0
 26 25  1  0  0  0  0
 28 27  1  0  0  0  0
 29 28  1  0  0  0  0
 30 29  2  0  0  0  0
M  END
>  <MODEL>
2

>  <REMARK>
 VINA RESULT:      -5.0      2.291      6.369
  Name = 
  6 active torsions:
  status: ('A' for Active; 'I' for Inactive)
    1  A    between atoms: C_2  and  C_20
    2  A    between atoms: C_2  and  C_22
    3  A    between atoms: C_3  and  C_10
    4  A    between atoms: C_4  and  C_27
    5  A    between atoms: C_10  and  O_25
    6  A    between atoms: C_23  and  O_25
                            x       y       z     vdW  Elec       q    Type
                         _______ _______ _______ _____ _____    ______ ____

>  <TORSDO>
F 6

$$$$
=
 OpenBabel11052421503D

 30 32  0  0  1  0  0  0  0  0999 V2000
  161.6860  210.3390  149.8970 C   0  0  0  0  0  2  0  0  0  0  0  0
  162.2480  211.5080  149.2060 C   0  0  2  0  0  3  0  0  0  0  0  0
  161.8360  210.4030  151.3010 C   0  0  0  0  0  2  0  0  0  0  0  0
  160.9530  214.4520  148.0330 O   0  0  0  0  0  0  0  0  0  0  0  0
  157.7250  213.8550  152.6120 O   0  0  0  0  0  0  0  0  0  0  0  0
  161.3330  212.7730  149.2700 C   0  0  2  0  0  3  0  0  0  0  0  0
  159.7050  213.7770  148.2590 C   0  0  2  0  0  0  0  0  0  0  0  0
  160.1760  212.4820  148.5420 O   0  0  0  0  0  0  0  0  0  0  0  0
  161.7390  214.0510  148.9910 O   0  0  0  0  0  0  0  0  0  0  0  0
  158.0590  212.9590  151.8290 C   0  0  0  0  0  0  0  0  0  0  0  0
  158.6480  211.8170  152.4220 N   0  0  0  0  0  2  0  0  0  0  0  0
  159.0070  213.7900  147.1260 O   0  0  0  0  0  1  0  0  0  0  0  0
  160.2620  209.8690  153.0660 C   0  0  2  0  0  3  0  0  0  0  0  0
  158.9580  214.3190  149.5180 C   0  0  0  0  0  2  0  0  0  0  0  0
  161.4380  209.3660  152.2970 C   0  0  1  0  0  3  0  0  0  0  0  0
  158.6280  211.4480  153.8960 C   0  0  1  0  0  3  0  0  0  0  0  0
  161.0870  210.8010  154.0030 C   0  0  0  0  0  2  0  0  0  0  0  0
  157.7230  213.0600  150.0220 S   0  0  0  0  0  0  0  0  0  0  0  0
  159.7080  210.4550  154.3410 C   0  0  2  0  0  3  0  0  0  0  0  0
  161.0620  207.9130  151.9770 C   0  0  0  0  0  0  0  0  0  0  0  0
  161.2370  207.5700  150.7590 C   0  0  0  0  0  2  0  0  0  0  0  0
  160.7970  207.0790  154.4820 O   0  0  0  0  0  1  0  0  0  0  0  0
  161.1880  206.8930  153.1070 C   0  0  0  0  0  0  0  0  0  0  0  0
  161.9800  205.9410  152.9080 O   0  0  0  0  0  0  0  0  0  0  0  0
  162.7900  211.0890  147.8940 C   0  0  0  0  0  2  0  0  0  0  0  0
  163.5600  212.2270  147.5130 O   0  0  0  0  0  1  0  0  0  0  0  0
  158.4720  212.4670  154.8440 O   0  0  0  0  0  0  0  0  0  0  0  0
  157.6100  211.9710  155.8340 C   0  0  0  0  0  2  0  0  0  0  0  0
  156.2640  211.8990  155.3090 C   0  0  0  0  0  3  0  0  0  0  0  0
  155.5580  211.0090  155.7080 O   0  0  0  0  0  0  0  0  0  0  0  0
  1  3  1  0  0  0  0
  2 25  1  6  0  0  0
  2  6  1  0  0  0  0
  2  1  1  0  0  0  0
  3 15  1  0  0  0  0
  4  7  1  0  0  0  0
  4  9  1  0  0  0  0
  6  8  1  6  0  0  0
  7 12  1  6  0  0  0
  7  8  1  0  0  0  0
  7 14  1  0  0  0  0
  9  6  1  0  0  0  0
 10 11  1  0  0  0  0
 10  5  2  0  0  0  0
 11 16  1  0  0  0  0
 13 17  1  6  0  0  0
 13 19  1  0  0  0  0
 14 18  1  0  0  0  0
 15 20  1  6  0  0  0
 15 13  1  0  0  0  0
 16 19  1  0  0  0  0
 16 27  1  1  0  0  0
 18 10  1  0  0  0  0
 19 17  1  6  0  0  0
 20 23  1  0  0  0  0
 21 20  2  0  0  0  0
 23 22  1  0  0  0  0
 24 23  2  0  0  0  0
 26 25  1  0  0  0  0
 27 28  1  0  0  0  0
 29 30  2  0  0  0  0
 29 28  1  0  0  0  0
M  END
>  <MODEL>
3

>  <REMARK>
 VINA RESULT:      -4.7      2.388      5.283
  Name = 
  6 active torsions:
  status: ('A' for Active; 'I' for Inactive)
    1  A    between atoms: C_2  and  C_20
    2  A    between atoms: C_2  and  C_22
    3  A    between atoms: C_3  and  C_10
    4  A    between atoms: C_4  and  C_27
    5  A    between atoms: C_10  and  O_25
    6  A    between atoms: C_23  and  O_25
                            x       y       z     vdW  Elec       q    Type
                         _______ _______ _______ _____ _____    ______ ____

>  <TORSDO>
F 6

$$$$
=
 OpenBabel11052421503D

 30 32  0  0  1  0  0  0  0  0999 V2000
  162.2580  209.6200  148.3580 C   0  0  0  0  0  2  0  0  0  0  0  0
  161.7530  208.2460  148.4820 C   0  0  2  0  0  3  0  0  0  0  0  0
  161.2290  210.5730  148.1830 C   0  0  0  0  0  2  0  0  0  0  0  0
  161.0090  206.1930  151.1180 O   0  0  0  0  0  0  0  0  0  0  0  0
  159.4320  211.1050  153.3810 O   0  0  0  0  0  0  0  0  0  0  0  0
  161.1740  207.9160  149.8950 C   0  0  2  0  0  3  0  0  0  0  0  0
  161.7260  207.1940  151.8590 C   0  0  2  0  0  0  0  0  0  0  0  0
  162.2400  207.9600  150.7980 O   0  0  0  0  0  0  0  0  0  0  0  0
  160.3740  206.8430  150.1860 O   0  0  0  0  0  0  0  0  0  0  0  0
  160.4390  210.9060  152.6930 C   0  0  0  0  0  0  0  0  0  0  0  0
  160.6070  211.7730  151.5870 N   0  0  0  0  0  2  0  0  0  0  0  0
  162.7060  206.5990  152.5340 O   0  0  0  0  0  1  0  0  0  0  0  0
  160.9340  212.7570  149.1920 C   0  0  2  0  0  3  0  0  0  0  0  0
  160.7750  208.0970  152.7060 C   0  0  0  0  0  2  0  0  0  0  0  0
  161.3880  212.0410  147.9650 C   0  0  1  0  0  3  0  0  0  0  0  0
  159.8760  213.0830  151.3430 C   0  0  1  0  0  3  0  0  0  0  0  0
  159.4130  212.6300  148.8820 C   0  0  0  0  0  2  0  0  0  0  0  0
  161.6890  209.6280  153.1340 S   0  0  0  0  0  0  0  0  0  0  0  0
  159.8780  213.5770  149.8920 C   0  0  2  0  0  3  0  0  0  0  0  0
  162.6950  212.7550  147.5950 C   0  0  0  0  0  0  0  0  0  0  0  0
  163.7500  212.2370  148.0940 C   0  0  0  0  0  2  0  0  0  0  0  0
  161.7840  214.4530  145.7700 O   0  0  0  0  0  1  0  0  0  0  0  0
  162.7360  213.4850  146.2530 C   0  0  0  0  0  0  0  0  0  0  0  0
  163.4660  212.9760  145.3680 O   0  0  0  0  0  0  0  0  0  0  0  0
  162.7260  207.3080  147.8770 C   0  0  0  0  0  2  0  0  0  0  0  0
  161.8860  206.4910  147.0660 O   0  0  0  0  0  1  0  0  0  0  0  0
  158.6170  213.2720  151.9280 O   0  0  0  0  0  0  0  0  0  0  0  0
  158.6930  214.4530  152.6800 C   0  0  0  0  0  2  0  0  0  0  0  0
  157.8920  214.3140  153.8780 C   0  0  0  0  0  3  0  0  0  0  0  0
  157.0330  213.4700  153.8760 O   0  0  0  0  0  0  0  0  0  0  0  0
  1  2  1  0  0  0  0
  2 25  1  1  0  0  0
  2  6  1  0  0  0  0
  3  1  1  0  0  0  0
  4  7  1  0  0  0  0
  6  9  1  6  0  0  0
  6  8  1  0  0  0  0
  7 12  1  1  0  0  0
  7 14  1  0  0  0  0
  8  7  1  0  0  0  0
  9  4  1  0  0  0  0
 10 18  1  0  0  0  0
 10  5  2  0  0  0  0
 11 10  1  0  0  0  0
 13 17  1  1  0  0  0
 13 19  1  0  0  0  0
 14 18  1  0  0  0  0
 15 20  1  1  0  0  0
 15  3  1  0  0  0  0
 15 13  1  0  0  0  0
 16 11  1  0  0  0  0
 16 27  1  6  0  0  0
 19 17  1  6  0  0  0
 19 16  1  0  0  0  0
 20 21  2  0  0  0  0
 22 23  1  0  0  0  0
 23 20  1  0  0  0  0
 24 23  2  0  0  0  0
 26 25  1  0  0  0  0
 27 28  1  0  0  0  0
 28 29  1  0  0  0  0
 30 29  2  0  0  0  0
M  END
>  <MODEL>
4

>  <REMARK>
 VINA RESULT:      -4.0      2.397      7.515
  Name = 
  6 active torsions:
  status: ('A' for Active; 'I' for Inactive)
    1  A    between atoms: C_2  and  C_20
    2  A    between atoms: C_2  and  C_22
    3  A    between atoms: C_3  and  C_10
    4  A    between atoms: C_4  and  C_27
    5  A    between atoms: C_10  and  O_25
    6  A    between atoms: C_23  and  O_25
                            x       y       z     vdW  Elec       q    Type
                         _______ _______ _______ _____ _____    ______ ____

>  <TORSDO>
F 6

$$$$
=
 OpenBabel11052421503D

 30 32  0  0  1  0  0  0  0  0999 V2000
  160.6270  210.9500  152.2880 C   0  0  0  0  0  2  0  0  0  0  0  0
  160.6640  209.6220  152.9150 C   0  0  2  0  0  3  0  0  0  0  0  0
  159.3140  211.4500  152.1310 C   0  0  0  0  0  2  0  0  0  0  0  0
  161.1090  208.4920  156.1160 O   0  0  0  0  0  0  0  0  0  0  0  0
  158.2740  213.2240  157.2600 O   0  0  0  0  0  0  0  0  0  0  0  0
  160.4650  209.6540  154.4650 C   0  0  2  0  0  3  0  0  0  0  0  0
  161.5330  209.8470  156.3370 C   0  0  2  0  0  0  0  0  0  0  0  0
  161.5740  210.3090  155.0090 O   0  0  0  0  0  0  0  0  0  0  0  0
  160.1500  208.5690  155.2390 O   0  0  0  0  0  0  0  0  0  0  0  0
  159.1670  213.0910  156.4160 C   0  0  0  0  0  0  0  0  0  0  0  0
  158.8450  213.5290  155.1100 N   0  0  0  0  0  2  0  0  0  0  0  0
  162.7510  209.8280  156.8690 O   0  0  0  0  0  1  0  0  0  0  0  0
  158.4280  213.6690  152.5360 C   0  0  2  0  0  3  0  0  0  0  0  0
  160.4680  210.6800  157.1180 C   0  0  0  0  0  2  0  0  0  0  0  0
  158.9100  212.7310  151.4810 C   0  0  1  0  0  3  0  0  0  0  0  0
  157.6700  214.4080  154.7120 C   0  0  1  0  0  3  0  0  0  0  0  0
  157.0210  213.0170  152.6820 C   0  0  0  0  0  2  0  0  0  0  0  0
  160.8390  212.4560  156.8510 S   0  0  0  0  0  0  0  0  0  0  0  0
  157.2730  214.3470  153.2320 C   0  0  2  0  0  3  0  0  0  0  0  0
  159.8060  213.6100  150.6000 C   0  0  0  0  0  0  0  0  0  0  0  0
  160.5290  214.4490  151.2370 C   0  0  0  0  0  2  0  0  0  0  0  0
  161.6360  212.8320  148.8430 O   0  0  0  0  0  1  0  0  0  0  0  0
  160.2730  213.0210  149.2700 C   0  0  0  0  0  0  0  0  0  0  0  0
  159.4220  212.9950  148.3480 O   0  0  0  0  0  0  0  0  0  0  0  0
  161.7980  208.8490  152.3610 C   0  0  0  0  0  2  0  0  0  0  0  0
  162.2690  209.7100  151.3280 O   0  0  0  0  0  1  0  0  0  0  0  0
  156.5330  214.4240  155.5290 O   0  0  0  0  0  0  0  0  0  0  0  0
  155.6480  213.4660  155.0120 C   0  0  0  0  0  2  0  0  0  0  0  0
  155.5360  212.3630  155.9430 C   0  0  0  0  0  3  0  0  0  0  0  0
  155.7580  211.2570  155.5230 O   0  0  0  0  0  0  0  0  0  0  0  0
  1  2  1  0  0  0  0
  2 25  1  1  0  0  0
  2  6  1  0  0  0  0
  3  1  1  0  0  0  0
  4  7  1  0  0  0  0
  6  8  1  1  0  0  0
  6  9  1  0  0  0  0
  7 12  1  1  0  0  0
  7 14  1  0  0  0  0
  8  7  1  0  0  0  0
  9  4  1  0  0  0  0
 10 18  1  0  0  0  0
 10  5  2  0  0  0  0
 11 10  1  0  0  0  0
 13 17  1  1  0  0  0
 13 19  1  0  0  0  0
 15 20  1  1  0  0  0
 15  3  1  0  0  0  0
 15 13  1  0  0  0  0
 16 11  1  0  0  0  0
 16 27  1  1  0  0  0
 18 14  1  0  0  0  0
 19 17  1  1  0  0  0
 19 16  1  0  0  0  0
 20 21  2  0  0  0  0
 22 23  1  0  0  0  0
 23 20  1  0  0  0  0
 24 23  2  0  0  0  0
 26 25  1  0  0  0  0
 28 27  1  0  0  0  0
 28 29  1  0  0  0  0
 30 29  2  0  0  0  0
M  END
>  <MODEL>
5

>  <REMARK>
 VINA RESULT:      -3.5      3.094      7.721
  Name = 
  6 active torsions:
  status: ('A' for Active; 'I' for Inactive)
    1  A    between atoms: C_2  and  C_20
    2  A    between atoms: C_2  and  C_22
    3  A    between atoms: C_3  and  C_10
    4  A    between atoms: C_4  and  C_27
    5  A    between atoms: C_10  and  O_25
    6  A    between atoms: C_23  and  O_25
                            x       y       z     vdW  Elec       q    Type
                         _______ _______ _______ _____ _____    ______ ____

>  <TORSDO>
F 6

$$$$
=
 OpenBabel11052421503D

 30 32  0  0  1  0  0  0  0  0999 V2000
  160.7400  207.6700  153.4460 C   0  0  0  0  0  2  0  0  0  0  0  0
  161.4670  206.4010  153.5840 C   0  0  2  0  0  3  0  0  0  0  0  0
  161.5800  208.7520  153.0980 C   0  0  0  0  0  2  0  0  0  0  0  0
  162.0660  203.7430  151.5100 O   0  0  0  0  0  0  0  0  0  0  0  0
  162.1930  207.8710  147.6780 O   0  0  0  0  0  0  0  0  0  0  0  0
  161.8120  205.7250  152.2180 C   0  0  2  0  0  3  0  0  0  0  0  0
  161.0390  204.3660  150.7220 C   0  0  2  0  0  0  0  0  0  0  0  0
  160.6030  205.3520  151.6250 O   0  0  0  0  0  0  0  0  0  0  0  0
  162.7330  204.7250  152.0460 O   0  0  0  0  0  0  0  0  0  0  0  0
  161.3970  207.7690  148.6180 C   0  0  0  0  0  0  0  0  0  0  0  0
  161.2830  208.9070  149.4510 N   0  0  0  0  0  2  0  0  0  0  0  0
  160.0800  203.4730  150.4950 O   0  0  0  0  0  1  0  0  0  0  0  0
  161.2450  210.5350  151.4910 C   0  0  2  0  0  3  0  0  0  0  0  0
  161.6140  205.0760  149.4550 C   0  0  0  0  0  2  0  0  0  0  0  0
  161.1860  210.1830  152.9390 C   0  0  1  0  0  3  0  0  0  0  0  0
  161.7810  210.3100  149.1430 C   0  0  1  0  0  3  0  0  0  0  0  0
  162.7940  210.7040  151.4440 C   0  0  0  0  0  2  0  0  0  0  0  0
  160.3560  206.2700  148.8610 S   0  0  0  0  0  0  0  0  0  0  0  0
  161.9660  211.2250  150.3580 C   0  0  2  0  0  3  0  0  0  0  0  0
  159.8640  210.8050  153.4060 C   0  0  0  0  0  0  0  0  0  0  0  0
  158.9860  210.9510  152.4910 C   0  0  0  0  0  2  0  0  0  0  0  0
  158.1320  210.7090  155.4150 O   0  0  0  0  0  0  0  0  0  0  0  0
  159.4530  210.5650  154.8590 C   0  0  0  0  0  0  0  0  0  0  0  0
  160.3830  210.5550  155.7020 O   0  0  0  0  0  1  0  0  0  0  0  0
  160.8310  205.5820  154.6400 C   0  0  0  0  0  2  0  0  0  0  0  0
  160.3000  206.5780  155.5100 O   0  0  0  0  0  1  0  0  0  0  0  0
  162.8410  210.4660  148.2400 O   0  0  0  0  0  0  0  0  0  0  0  0
  162.9280  211.8360  147.9490 C   0  0  0  0  0  2  0  0  0  0  0  0
  161.7360  212.2540  147.2420 C   0  0  0  0  0  3  0  0  0  0  0  0
  161.8810  212.9530  146.2730 O   0  0  0  0  0  0  0  0  0  0  0  0
  1  2  1  0  0  0  0
  2 25  1  1  0  0  0
  3  1  1  0  0  0  0
  4  9  1  0  0  0  0
  5 10  2  0  0  0  0
  6  8  1  1  0  0  0
  6  2  1  0  0  0  0
  7 12  1  6  0  0  0
  7  4  1  0  0  0  0
  7  8  1  0  0  0  0
  9  6  1  0  0  0  0
 10 18  1  0  0  0  0
 10 11  1  0  0  0  0
 13 17  1  6  0  0  0
 13 15  1  0  0  0  0
 14  7  1  0  0  0  0
 15  3  1  0  0  0  0
 15 20  1  6  0  0  0
 16 27  1  1  0  0  0
 16 11  1  0  0  0  0
 16 19  1  0  0  0  0
 18 14  1  0  0  0  0
 19 17  1  1  0  0  0
 19 13  1  0  0  0  0
 20 23  1  0  0  0  0
 21 20  2  0  0  0  0
 23 22  2  0  0  0  0
 23 24  1  0  0  0  0
 25 26  1  0  0  0  0
 28 27  1  0  0  0  0
 29 28  1  0  0  0  0
 30 29  2  0  0  0  0
M  END
>  <MODEL>
6

>  <REMARK>
 VINA RESULT:      -3.3      2.592      6.345
  Name = 
  6 active torsions:
  status: ('A' for Active; 'I' for Inactive)
    1  A    between atoms: C_2  and  C_20
    2  A    between atoms: C_2  and  C_22
    3  A    between atoms: C_3  and  C_10
    4  A    between atoms: C_4  and  C_27
    5  A    between atoms: C_10  and  O_25
    6  A    between atoms: C_23  and  O_25
                            x       y       z     vdW  Elec       q    Type
                         _______ _______ _______ _____ _____    ______ ____

>  <TORSDO>
F 6

$$$$
=
 OpenBabel11052421503D

 30 32  0  0  1  0  0  0  0  0999 V2000
  161.6010  207.1250  148.6990 C   0  0  0  0  0  2  0  0  0  0  0  0
  162.3600  207.5150  149.8960 C   0  0  2  0  0  3  0  0  0  0  0  0
  162.2680  206.1570  147.9140 C   0  0  0  0  0  2  0  0  0  0  0  0
  162.3310  206.5400  153.1770 O   0  0  0  0  0  0  0  0  0  0  0  0
  161.1700  201.5700  150.7930 O   0  0  0  0  0  0  0  0  0  0  0  0
  162.2730  206.4760  151.0600 C   0  0  2  0  0  3  0  0  0  0  0  0
  161.0970  205.9160  152.7880 C   0  0  2  0  0  0  0  0  0  0  0  0
  160.9460  206.4590  151.4990 O   0  0  0  0  0  0  0  0  0  0  0  0
  163.1130  206.4360  152.1410 O   0  0  0  0  0  0  0  0  0  0  0  0
  160.7110  202.6670  150.4580 C   0  0  0  0  0  0  0  0  0  0  0  0
  160.8420  202.9950  149.0880 N   0  0  0  0  0  2  0  0  0  0  0  0
  160.1330  206.3440  153.5980 O   0  0  0  0  0  1  0  0  0  0  0  0
  161.4120  204.1680  146.8260 C   0  0  2  0  0  3  0  0  0  0  0  0
  161.2320  204.3660  152.6590 C   0  0  0  0  0  2  0  0  0  0  0  0
  161.8160  205.5870  146.6110 C   0  0  1  0  0  3  0  0  0  0  0  0
  161.1900  202.0400  147.9570 C   0  0  1  0  0  3  0  0  0  0  0  0
  162.8640  203.6030  146.8470 C   0  0  0  0  0  2  0  0  0  0  0  0
  159.8280  203.7630  151.6460 S   0  0  0  0  0  0  0  0  0  0  0  0
  161.7280  202.6990  146.6820 C   0  0  2  0  0  3  0  0  0  0  0  0
  160.6940  206.1500  145.7290 C   0  0  0  0  0  0  0  0  0  0  0  0
  160.4550  207.3940  145.8920 C   0  0  0  0  0  2  0  0  0  0  0  0
  159.7380  204.2550  144.1360 O   0  0  0  0  0  1  0  0  0  0  0  0
  160.4650  205.4760  144.3770 C   0  0  0  0  0  0  0  0  0  0  0  0
  161.2300  205.8270  143.4460 O   0  0  0  0  0  0  0  0  0  0  0  0
  162.1020  208.9410  150.1970 C   0  0  0  0  0  2  0  0  0  0  0  0
  161.9570  209.4990  148.8940 O   0  0  0  0  0  1  0  0  0  0  0  0
  161.9110  200.8770  148.2550 O   0  0  0  0  0  0  0  0  0  0  0  0
  161.2060  199.8060  147.6850 C   0  0  0  0  0  2  0  0  0  0  0  0
  161.5810  199.6680  146.2930 C   0  0  0  0  0  3  0  0  0  0  0  0
  161.2050  198.6840  145.7110 O   0  0  0  0  0  0  0  0  0  0  0  0
  1  2  1  0  0  0  0
  2 25  1  1  0  0  0
  2  6  1  0  0  0  0
  3  1  1  0  0  0  0
  6  8  1  1  0  0  0
  6  9  1  0  0  0  0
  7  4  1  0  0  0  0
  7 12  1  1  0  0  0
  8  7  1  0  0  0  0
  9  4  1  0  0  0  0
 10  5  2  0  0  0  0
 10 18  1  0  0  0  0
 11 10  1  0  0  0  0
 13 17  1  1  0  0  0
 14  7  1  0  0  0  0
 15 20  1  1  0  0  0
 15 13  1  0  0  0  0
 15  3  1  0  0  0  0
 16 27  1  1  0  0  0
 16 11  1  0  0  0  0
 18 14  1  0  0  0  0
 19 13  1  0  0  0  0
 19 17  1  1  0  0  0
 19 16  1  0  0  0  0
 20 21  2  0  0  0  0
 22 23  1  0  0  0  0
 23 20  1  0  0  0  0
 24 23  2  0  0  0  0
 26 25  1  0  0  0  0
 28 27  1  0  0  0  0
 29 28  1  0  0  0  0
 30 29  2  0  0  0  0
M  END
>  <MODEL>
7

>  <REMARK>
 VINA RESULT:      -2.8      4.710      8.738
  Name = 
  6 active torsions:
  status: ('A' for Active; 'I' for Inactive)
    1  A    between atoms: C_2  and  C_20
    2  A    between atoms: C_2  and  C_22
    3  A    between atoms: C_3  and  C_10
    4  A    between atoms: C_4  and  C_27
    5  A    between atoms: C_10  and  O_25
    6  A    between atoms: C_23  and  O_25
                            x       y       z     vdW  Elec       q    Type
                         _______ _______ _______ _____ _____    ______ ____

>  <TORSDO>
F 6

$$$$
