=
 OpenBabel11062410563D

 32 37  0  0  1  0  0  0  0  0999 V2000
  159.9370  209.2890  156.1100 C   0  0  0  0  0  0  0  0  0  0  0  0
  161.4040  206.5380  152.1000 C   0  0  0  0  0  0  0  0  0  0  0  0
  162.2690  210.6930  150.1430 C   0  0  0  0  0  1  0  0  0  0  0  0
  161.8490  209.0230  148.2240 N   0  0  0  0  0  0  0  0  0  0  0  0
  161.1010  204.1900  151.4130 C   0  0  0  0  0  0  0  0  0  0  0  0
  161.0100  203.2530  150.3690 C   0  0  0  0  0  0  0  0  0  0  0  0
  160.8200  207.2730  154.3700 C   0  0  0  0  0  0  0  0  0  0  0  0
  161.1470  208.9700  152.6950 C   0  0  0  0  0  3  0  0  0  0  0  0
  160.8450  201.4070  148.2610 C   0  0  0  0  0  3  0  0  0  0  0  0
  160.2990  209.6130  154.7980 C   0  0  0  0  0  3  0  0  0  0  0  0
  161.8750  209.3570  149.6170 C   0  0  0  0  0  0  0  0  0  0  0  0
  161.8180  207.9760  151.7870 C   0  0  2  0  0  3  0  0  0  0  0  0
  161.6320  208.2750  150.3420 C   0  0  0  0  0  0  0  0  0  0  0  0
  161.3880  205.9390  149.7360 C   0  0  0  0  0  0  0  0  0  0  0  0
  160.7350  200.9690  149.5830 C   0  0  0  0  0  3  0  0  0  0  0  0
  160.0450  207.9700  156.5600 C   0  0  0  0  0  3  0  0  0  0  0  0
  160.7600  208.6210  153.9280 C   0  0  0  0  0  0  0  0  0  0  0  0
  160.8170  201.8870  150.6330 C   0  0  0  0  0  3  0  0  0  0  0  0
  160.4760  206.9640  155.6900 C   0  0  0  0  0  3  0  0  0  0  0  0
  161.6370  207.7730  148.0870 N   0  0  0  0  0  0  0  0  0  0  0  0
  161.5090  207.2220  149.3900 C   0  0  0  0  0  0  0  0  0  0  0  0
  161.2980  204.9990  148.7590 N   0  0  0  0  0  2  0  0  0  0  0  0
  161.1140  206.2730  153.5280 C   0  0  0  0  0  3  0  0  0  0  0  0
  161.0150  203.7810  152.6040 O   0  0  0  0  0  0  0  0  0  0  0  0
  161.0370  202.7640  147.9860 C   0  0  0  0  0  3  0  0  0  0  0  0
  161.3090  205.5710  151.1200 C   0  0  0  0  0  0  0  0  0  0  0  0
  161.1200  203.6860  149.0340 C   0  0  0  0  0  0  0  0  0  0  0  0
  159.4840  210.3580  157.0400 C   0  0  0  0  0  2  0  0  0  0  0  0
  157.9160  212.0800  156.0810 C   0  0  0  0  0  0  0  0  0  0  0  0
  159.2360  211.5840  156.2990 N   0  0  0  0  0  2  0  0  0  0  0  0
  157.7290  213.2840  155.3480 N   0  0  0  0  0  1  0  0  0  0  0  0
  156.9160  211.4630  156.5320 O   0  0  0  0  0  0  0  0  0  0  0  0
  1 16  1  0  0  0  0
  1 28  1  0  0  0  0
  2 23  1  0  0  0  0
  4 11  1  0  0  0  0
  5 24  2  0  0  0  0
  6 18  1  0  0  0  0
  6  5  1  0  0  0  0
  7 19  1  0  0  0  0
  8 17  2  0  0  0  0
  9 15  1  0  0  0  0
 10  1  2  0  0  0  0
 11  3  1  0  0  0  0
 11 13  2  0  0  0  0
 12  2  1  0  0  0  0
 12  8  1  1  0  0  0
 13 12  1  0  0  0  0
 14 26  1  0  0  0  0
 15 18  2  0  0  0  0
 17  7  1  0  0  0  0
 17 10  1  0  0  0  0
 19 16  2  0  0  0  0
 20  4  2  0  0  0  0
 20 21  1  0  0  0  0
 21 14  2  0  0  0  0
 21 13  1  0  0  0  0
 22 27  1  0  0  0  0
 22 14  1  0  0  0  0
 23  7  2  0  0  0  0
 25  9  2  0  0  0  0
 25 27  1  0  0  0  0
 26  5  1  0  0  0  0
 26  2  2  0  0  0  0
 27  6  2  0  0  0  0
 29 30  1  0  0  0  0
 29 32  2  0  0  0  0
 30 28  1  0  0  0  0
 31 29  1  0  0  0  0
M  END
>  <MODEL>
1

>  <REMARK>
 VINA RESULT:     -12.1      0.000      0.000
  Name = 
  2 active torsions:
  status: ('A' for Active; 'I' for Inactive)
    1  A    between atoms: C_2  and  C_24
    2  A    between atoms: N_10  and  C_24
                            x       y       z     vdW  Elec       q    Type
                         _______ _______ _______ _____ _____    ______ ____

>  <TORSDO>
F 2

$$$$
=
 OpenBabel11062410563D

 32 37  0  0  0  0  0  0  0  0999 V2000
  161.2020  202.1160  149.4210 C   0  0  0  0  0  0  0  0  0  0  0  0
  160.9190  206.6160  151.7590 C   0  0  0  0  0  0  0  0  0  0  0  0
  161.3190  208.3680  147.4450 C   0  0  0  0  0  1  0  0  0  0  0  0
  162.1810  210.1670  149.0770 N   0  0  0  0  0  0  0  0  0  0  0  0
  161.1540  207.3660  154.0950 C   0  0  0  0  0  0  0  0  0  0  0  0
  161.4920  208.3950  154.9910 C   0  0  0  0  0  0  0  0  0  0  0  0
  160.7490  204.2270  151.2120 C   0  0  0  0  0  0  0  0  0  0  0  0
  161.2460  205.7520  149.4180 C   0  0  0  0  0  2  0  0  0  0  0  0
  162.1630  210.4760  156.7520 C   0  0  0  0  0  3  0  0  0  0  0  0
  161.3690  203.4360  148.9940 C   0  0  0  0  0  3  0  0  0  0  0  0
  161.7060  208.8440  148.8010 C   0  0  0  0  0  0  0  0  0  0  0  0
  160.8230  206.9210  150.2640 C   0  0  0  0  0  0  0  0  0  0  0  0
  161.5420  208.1810  149.9360 C   0  0  0  0  0  0  0  0  0  0  0  0
  161.6960  208.8740  152.2560 C   0  0  0  0  0  0  0  0  0  0  0  0
  161.7440  209.2420  157.2560 C   0  0  0  0  0  3  0  0  0  0  0  0
  160.7800  201.8510  150.7290 C   0  0  0  0  0  3  0  0  0  0  0  0
  161.1270  204.4980  149.8710 C   0  0  0  0  0  0  0  0  0  0  0  0
  161.4100  208.2050  156.3810 C   0  0  0  0  0  3  0  0  0  0  0  0
  160.5640  202.9030  151.6230 C   0  0  0  0  0  3  0  0  0  0  0  0
  162.2720  210.3350  150.3370 N   0  0  0  0  0  0  0  0  0  0  0  0
  161.8620  209.1230  150.9550 C   0  0  0  0  0  0  0  0  0  0  0  0
  162.0080  209.8410  153.1570 N   0  0  0  0  0  2  0  0  0  0  0  0
  160.6510  205.2050  152.1220 C   0  0  0  0  0  3  0  0  0  0  0  0
  160.7630  206.2600  154.5620 O   0  0  0  0  0  0  0  0  0  0  0  0
  162.2480  210.6750  155.3720 C   0  0  0  0  0  3  0  0  0  0  0  0
  161.2340  207.5870  152.6880 C   0  0  0  0  0  0  0  0  0  0  0  0
  161.9150  209.6420  154.4920 C   0  0  0  0  0  0  0  0  0  0  0  0
  161.4240  200.9930  148.4710 C   0  0  0  0  0  2  0  0  0  0  0  0
  160.8450  200.3930  146.0940 C   0  0  0  0  0  0  0  0  0  0  0  0
  160.7530  201.2740  147.2120 N   0  0  0  0  0  2  0  0  0  0  0  0
  160.1700  200.7160  144.8850 N   0  0  0  0  0  1  0  0  0  0  0  0
  161.5190  199.3320  146.1670 O   0  0  0  0  0  0  0  0  0  0  0  0
  1 16  1  0  0  0  0
  2 23  2  0  0  0  0
  2 26  1  0  0  0  0
  3 11  1  0  0  0  0
  4 20  1  0  0  0  0
  5 24  2  0  0  0  0
  5  6  1  0  0  0  0
  6 18  1  0  0  0  0
  7 19  1  0  0  0  0
  7 23  1  0  0  0  0
  8 17  1  0  0  0  0
  8 12  1  0  0  0  0
  9 15  1  0  0  0  0
 10  1  2  0  0  0  0
 10 17  1  0  0  0  0
 11  4  2  0  0  0  0
 11 13  1  0  0  0  0
 12  2  1  0  0  0  0
 13 12  2  0  0  0  0
 13 21  1  0  0  0  0
 14 26  2  0  0  0  0
 14 22  1  0  0  0  0
 16 19  2  0  0  0  0
 17  7  2  0  0  0  0
 18 15  2  0  0  0  0
 20 21  2  0  0  0  0
 21 14  1  0  0  0  0
 22 27  1  0  0  0  0
 25  9  2  0  0  0  0
 26  5  1  0  0  0  0
 27  6  2  0  0  0  0
 27 25  1  0  0  0  0
 28  1  1  0  0  0  0
 29 32  2  0  0  0  0
 29 30  1  0  0  0  0
 30 28  1  0  0  0  0
 31 29  1  0  0  0  0
M  END
>  <MODEL>
2

>  <REMARK>
 VINA RESULT:      -9.6      2.494      8.340
  Name = 
  2 active torsions:
  status: ('A' for Active; 'I' for Inactive)
    1  A    between atoms: C_2  and  C_24
    2  A    between atoms: N_10  and  C_24
                            x       y       z     vdW  Elec       q    Type
                         _______ _______ _______ _____ _____    ______ ____

>  <TORSDO>
F 2

$$$$
