=
 OpenBabel11062407553D

 34 39  0  0  1  0  0  0  0  0999 V2000
  160.9100  207.3980  153.5640 C   0  0  0  0  0  0  0  0  0  0  0  0
  161.9340  209.6020  153.5550 C   0  0  0  0  0  0  0  0  0  0  0  0
  161.5850  208.3200  151.4050 C   0  0  0  0  0  0  0  0  0  0  0  0
  161.9740  209.1550  149.1550 C   0  0  0  0  0  0  0  0  0  0  0  0
  161.0460  208.6770  155.6120 C   0  0  0  0  0  3  0  0  0  0  0  0
  161.6970  209.7000  154.9280 C   0  0  0  0  0  3  0  0  0  0  0  0
  161.7560  210.7650  150.7570 N   0  0  0  0  0  2  0  0  0  0  0  0
  161.4710  208.4750  152.8230 C   0  0  0  0  0  0  0  0  0  0  0  0
  162.1090  210.4290  148.4080 C   0  0  0  0  0  2  0  0  0  0  0  0
  160.6750  207.5210  154.9350 C   0  0  0  0  0  3  0  0  0  0  0  0
  161.3650  207.0270  150.8320 C   0  0  0  0  0  0  0  0  0  0  0  0
  160.6310  206.2180  152.9640 N   0  0  0  0  0  0  0  0  0  0  0  0
  162.7530  210.5350  153.0160 F   0  0  0  0  0  0  0  0  0  0  0  0
  161.8540  207.8900  148.6050 C   0  0  0  0  0  3  0  0  0  0  0  0
  161.5600  206.8000  149.4360 C   0  0  0  0  0  0  0  0  0  0  0  0
  161.9590  211.4950  149.5100 C   0  0  1  0  0  3  0  0  0  0  0  0
  161.8310  209.3770  150.4960 C   0  0  0  0  0  0  0  0  0  0  0  0
  160.8660  206.0080  151.6490 C   0  0  0  0  0  3  0  0  0  0  0  0
  160.9280  203.0820  148.9450 C   0  0  0  0  0  0  0  0  0  0  0  0
  161.2720  202.9210  147.6010 C   0  0  0  0  0  3  0  0  0  0  0  0
  161.4350  205.4590  148.8030 C   0  0  0  0  0  0  0  0  0  0  0  0
  161.7060  204.0210  146.8570 C   0  0  0  0  0  3  0  0  0  0  0  0
  161.0130  204.3430  149.5430 C   0  0  0  0  0  3  0  0  0  0  0  0
  161.7910  205.2810  147.4550 C   0  0  0  0  0  3  0  0  0  0  0  0
  160.5120  202.0160  149.6700 F   0  0  0  0  0  0  0  0  0  0  0  0
  160.7510  212.3740  149.2370 C   0  0  0  0  0  2  0  0  0  0  0  0
  161.0540  213.3540  148.1160 C   0  0  0  0  0  2  0  0  0  0  0  0
  160.9190  212.5830  145.4380 O   0  0  0  0  0  1  0  0  0  0  0  0
  159.8640  213.5550  147.3020 N   0  0  0  0  0  0  0  0  0  0  0  0
  159.8200  212.4830  146.2960 C   0  0  1  0  0  3  0  0  0  0  0  0
  157.3200  212.5150  146.3650 C   0  0  0  0  0  2  0  0  0  0  0  0
  157.4130  213.5760  147.4520 C   0  0  0  0  0  2  0  0  0  0  0  0
  158.7250  213.4000  148.2100 C   0  0  0  0  0  2  0  0  0  0  0  0
  158.5430  212.5900  145.4610 C   0  0  0  0  0  2  0  0  0  0  0  0
  1 10  2  0  0  0  0
  2  6  1  0  0  0  0
  3  8  1  0  0  0  0
  4 17  1  0  0  0  0
  6  5  2  0  0  0  0
  8  2  2  0  0  0  0
  8  1  1  0  0  0  0
  9  4  1  0  0  0  0
  9 16  1  0  0  0  0
 10  5  1  0  0  0  0
 11  3  1  0  0  0  0
 11 18  1  0  0  0  0
 12  1  1  0  0  0  0
 13  2  1  0  0  0  0
 14  4  2  0  0  0  0
 14 15  1  0  0  0  0
 15 11  2  0  0  0  0
 16 26  1  6  0  0  0
 16  7  1  0  0  0  0
 17  7  1  0  0  0  0
 17  3  2  0  0  0  0
 18 12  2  0  0  0  0
 19 23  1  0  0  0  0
 19 25  1  0  0  0  0
 20 19  2  0  0  0  0
 21 15  1  0  0  0  0
 21 23  2  0  0  0  0
 22 24  2  0  0  0  0
 22 20  1  0  0  0  0
 24 21  1  0  0  0  0
 27 26  1  0  0  0  0
 29 27  1  0  0  0  0
 29 33  1  0  0  0  0
 30 28  1  6  0  0  0
 30 29  1  0  0  0  0
 31 32  1  0  0  0  0
 32 33  1  0  0  0  0
 34 30  1  0  0  0  0
 34 31  1  0  0  0  0
M  END
>  <MODEL>
1

>  <REMARK>
 VINA RESULT:      -9.8      0.000      0.000
  Name = 
  4 active torsions:
  status: ('A' for Active; 'I' for Inactive)
    1  A    between atoms: C_3  and  N_13
    2  A    between atoms: C_3  and  C_17
    3  A    between atoms: C_12  and  C_28
    4  A    between atoms: C_17  and  C_29
                            x       y       z     vdW  Elec       q    Type
                         _______ _______ _______ _____ _____    ______ ____

>  <TORSDO>
F 4

$$$$
=
 OpenBabel11062407553D

 34 39  0  0  1  0  0  0  0  0999 V2000
  160.4330  212.6630  150.8710 C   0  0  0  0  0  0  0  0  0  0  0  0
  161.7610  212.0670  148.9250 C   0  0  0  0  0  0  0  0  0  0  0  0
  161.4280  210.4330  150.8240 C   0  0  0  0  0  0  0  0  0  0  0  0
  162.1390  208.1080  150.8580 C   0  0  0  0  0  0  0  0  0  0  0  0
  160.5640  214.1740  148.9870 C   0  0  0  0  0  3  0  0  0  0  0  0
  161.4160  213.2860  148.3370 C   0  0  0  0  0  3  0  0  0  0  0  0
  162.0100  209.0460  148.7820 N   0  0  0  0  0  2  0  0  0  0  0  0
  161.2080  211.6910  150.1800 C   0  0  0  0  0  0  0  0  0  0  0  0
  162.5250  207.0090  149.9410 C   0  0  0  0  0  2  0  0  0  0  0  0
  160.0920  213.8720  150.2600 C   0  0  0  0  0  3  0  0  0  0  0  0
  161.0770  210.2930  152.2040 C   0  0  0  0  0  0  0  0  0  0  0  0
  160.0410  212.4520  152.1490 N   0  0  0  0  0  0  0  0  0  0  0  0
  162.7520  211.3680  148.3260 F   0  0  0  0  0  0  0  0  0  0  0  0
  161.8880  207.9930  152.2160 C   0  0  0  0  0  3  0  0  0  0  0  0
  161.3650  209.0890  152.9160 C   0  0  0  0  0  0  0  0  0  0  0  0
  162.4310  207.6670  148.5520 C   0  0  1  0  0  3  0  0  0  0  0  0
  161.9070  209.2690  150.1760 C   0  0  0  0  0  0  0  0  0  0  0  0
  160.3630  211.3230  152.8220 C   0  0  0  0  0  3  0  0  0  0  0  0
  160.0520  207.7340  156.2180 C   0  0  0  0  0  0  0  0  0  0  0  0
  160.5720  208.6640  157.1220 C   0  0  0  0  0  3  0  0  0  0  0  0
  161.1050  208.9210  154.3720 C   0  0  0  0  0  0  0  0  0  0  0  0
  161.3500  209.7270  156.6570 C   0  0  0  0  0  3  0  0  0  0  0  0
  160.3140  207.8650  154.8510 C   0  0  0  0  0  3  0  0  0  0  0  0
  161.6110  209.8570  155.2910 C   0  0  0  0  0  3  0  0  0  0  0  0
  159.2930  206.7060  156.6670 F   0  0  0  0  0  0  0  0  0  0  0  0
  161.3920  206.9590  147.6990 C   0  0  0  0  0  2  0  0  0  0  0  0
  162.0570  205.9100  146.8220 C   0  0  0  0  0  2  0  0  0  0  0  0
  161.1980  204.7420  144.4380 O   0  0  0  0  0  1  0  0  0  0  0  0
  161.2380  204.7070  146.7900 N   0  0  0  0  0  0  0  0  0  0  0  0
  161.5560  203.9780  145.5530 C   0  0  1  0  0  3  0  0  0  0  0  0
  161.1300  201.8060  146.7170 C   0  0  0  0  0  2  0  0  0  0  0  0
  160.8730  202.5970  147.9920 C   0  0  0  0  0  2  0  0  0  0  0  0
  161.6620  203.9010  147.9370 C   0  0  0  0  0  2  0  0  0  0  0  0
  160.7880  202.6570  145.5020 C   0  0  0  0  0  2  0  0  0  0  0  0
  1 12  1  0  0  0  0
  2  8  1  0  0  0  0
  3 11  1  0  0  0  0
  4 14  2  0  0  0  0
  5 10  2  0  0  0  0
  6  2  2  0  0  0  0
  6  5  1  0  0  0  0
  7 17  1  0  0  0  0
  8  3  1  0  0  0  0
  8  1  2  0  0  0  0
  9  4  1  0  0  0  0
 10  1  1  0  0  0  0
 11 18  1  0  0  0  0
 11 15  2  0  0  0  0
 12 18  2  0  0  0  0
 13  2  1  0  0  0  0
 14 15  1  0  0  0  0
 15 21  1  0  0  0  0
 16 26  1  6  0  0  0
 16  7  1  0  0  0  0
 16  9  1  0  0  0  0
 17  3  2  0  0  0  0
 17  4  1  0  0  0  0
 19 25  1  0  0  0  0
 19 20  1  0  0  0  0
 21 23  1  0  0  0  0
 21 24  2  0  0  0  0
 22 20  2  0  0  0  0
 23 19  2  0  0  0  0
 24 22  1  0  0  0  0
 27 26  1  0  0  0  0
 29 27  1  0  0  0  0
 29 33  1  0  0  0  0
 30 28  1  6  0  0  0
 30 29  1  0  0  0  0
 31 32  1  0  0  0  0
 33 32  1  0  0  0  0
 34 30  1  0  0  0  0
 34 31  1  0  0  0  0
M  END
>  <MODEL>
2

>  <REMARK>
 VINA RESULT:      -9.7      3.019      7.268
  Name = 
  4 active torsions:
  status: ('A' for Active; 'I' for Inactive)
    1  A    between atoms: C_3  and  N_13
    2  A    between atoms: C_3  and  C_17
    3  A    between atoms: C_12  and  C_28
    4  A    between atoms: C_17  and  C_29
                            x       y       z     vdW  Elec       q    Type
                         _______ _______ _______ _____ _____    ______ ____

>  <TORSDO>
F 4

$$$$
=
 OpenBabel11062407553D

 34 39  0  0  1  0  0  0  0  0999 V2000
  160.8030  208.0080  154.2310 C   0  0  0  0  0  0  0  0  0  0  0  0
  161.9880  209.9970  153.4940 C   0  0  0  0  0  0  0  0  0  0  0  0
  161.5960  208.0570  151.9220 C   0  0  0  0  0  0  0  0  0  0  0  0
  162.1010  208.0110  149.5440 C   0  0  0  0  0  0  0  0  0  0  0  0
  160.9840  209.9220  155.6990 C   0  0  0  0  0  3  0  0  0  0  0  0
  161.7260  210.5910  154.7300 C   0  0  0  0  0  3  0  0  0  0  0  0
  161.9650  210.0960  150.4600 N   0  0  0  0  0  2  0  0  0  0  0  0
  161.4600  208.7130  153.1860 C   0  0  0  0  0  0  0  0  0  0  0  0
  162.3480  208.9240  148.4020 C   0  0  0  0  0  2  0  0  0  0  0  0
  160.5440  208.6250  155.4570 C   0  0  0  0  0  3  0  0  0  0  0  0
  161.2940  206.6610  151.8330 C   0  0  0  0  0  0  0  0  0  0  0  0
  160.4500  206.7100  154.0740 N   0  0  0  0  0  0  0  0  0  0  0  0
  162.8870  210.6250  152.7010 F   0  0  0  0  0  0  0  0  0  0  0  0
  161.9000  206.6430  149.4710 C   0  0  0  0  0  3  0  0  0  0  0  0
  161.5060  205.9400  150.6190 C   0  0  0  0  0  0  0  0  0  0  0  0
  162.2520  210.3200  149.0470 C   0  0  1  0  0  3  0  0  0  0  0  0
  161.9420  208.7040  150.7110 C   0  0  0  0  0  0  0  0  0  0  0  0
  160.7010  206.0320  152.9310 C   0  0  0  0  0  3  0  0  0  0  0  0
  160.7130  202.5150  149.1690 C   0  0  0  0  0  0  0  0  0  0  0  0
  160.8380  201.7040  150.3000 C   0  0  0  0  0  3  0  0  0  0  0  0
  161.2960  204.4720  150.4950 C   0  0  0  0  0  0  0  0  0  0  0  0
  161.1820  202.2710  151.5290 C   0  0  0  0  0  3  0  0  0  0  0  0
  160.9360  203.8910  149.2680 C   0  0  0  0  0  3  0  0  0  0  0  0
  161.4060  203.6470  151.6270 C   0  0  0  0  0  3  0  0  0  0  0  0
  160.3730  201.9680  147.9780 F   0  0  0  0  0  0  0  0  0  0  0  0
  161.1190  211.1160  148.4220 C   0  0  0  0  0  2  0  0  0  0  0  0
  161.1750  212.5630  148.8830 C   0  0  0  0  0  2  0  0  0  0  0  0
  163.1570  214.2230  147.8330 O   0  0  0  0  0  1  0  0  0  0  0  0
  160.9370  213.4490  147.7530 N   0  0  0  0  0  0  0  0  0  0  0  0
  162.2050  213.5990  147.0220 C   0  0  1  0  0  3  0  0  0  0  0  0
  160.9440  213.8200  144.8730 C   0  0  0  0  0  2  0  0  0  0  0  0
  159.6610  213.5960  145.6600 C   0  0  0  0  0  2  0  0  0  0  0  0
  159.9740  212.7560  146.8950 C   0  0  0  0  0  2  0  0  0  0  0  0
  161.9990  214.4530  145.7710 C   0  0  0  0  0  2  0  0  0  0  0  0
  1 10  2  0  0  0  0
  2  6  1  0  0  0  0
  3  8  1  0  0  0  0
  4 17  1  0  0  0  0
  6  5  2  0  0  0  0
  7 17  1  0  0  0  0
  8  2  2  0  0  0  0
  8  1  1  0  0  0  0
  9 16  1  0  0  0  0
  9  4  1  0  0  0  0
 10  5  1  0  0  0  0
 11  3  1  0  0  0  0
 11 18  1  0  0  0  0
 12  1  1  0  0  0  0
 13  2  1  0  0  0  0
 14  4  2  0  0  0  0
 14 15  1  0  0  0  0
 15 11  2  0  0  0  0
 16 26  1  6  0  0  0
 16  7  1  0  0  0  0
 17  3  2  0  0  0  0
 18 12  2  0  0  0  0
 19 23  2  0  0  0  0
 19 20  1  0  0  0  0
 20 22  2  0  0  0  0
 21 15  1  0  0  0  0
 21 24  2  0  0  0  0
 22 24  1  0  0  0  0
 23 21  1  0  0  0  0
 25 19  1  0  0  0  0
 26 27  1  0  0  0  0
 29 27  1  0  0  0  0
 30 29  1  0  0  0  0
 30 28  1  1  0  0  0
 31 32  1  0  0  0  0
 31 34  1  0  0  0  0
 32 33  1  0  0  0  0
 33 29  1  0  0  0  0
 34 30  1  0  0  0  0
M  END
>  <MODEL>
3

>  <REMARK>
 VINA RESULT:      -9.6      1.438      2.122
  Name = 
  4 active torsions:
  status: ('A' for Active; 'I' for Inactive)
    1  A    between atoms: C_3  and  N_13
    2  A    between atoms: C_3  and  C_17
    3  A    between atoms: C_12  and  C_28
    4  A    between atoms: C_17  and  C_29
                            x       y       z     vdW  Elec       q    Type
                         _______ _______ _______ _____ _____    ______ ____

>  <TORSDO>
F 4

$$$$
=
 OpenBabel11062407553D

 34 39  0  0  1  0  0  0  0  0999 V2000
  160.4360  213.0980  149.8810 C   0  0  0  0  0  0  0  0  0  0  0  0
  161.9690  211.8150  148.5000 C   0  0  0  0  0  0  0  0  0  0  0  0
  161.2650  210.9830  150.7800 C   0  0  0  0  0  0  0  0  0  0  0  0
  161.7940  208.8150  151.7440 C   0  0  0  0  0  0  0  0  0  0  0  0
  160.9290  213.8250  147.6280 C   0  0  0  0  0  3  0  0  0  0  0  0
  161.7950  212.7460  147.4730 C   0  0  0  0  0  3  0  0  0  0  0  0
  162.0160  208.9420  149.4770 N   0  0  0  0  0  2  0  0  0  0  0  0
  161.2250  211.9280  149.7070 C   0  0  0  0  0  0  0  0  0  0  0  0
  162.2200  207.4520  151.3460 C   0  0  0  0  0  2  0  0  0  0  0  0
  160.2690  214.0110  148.8380 C   0  0  0  0  0  3  0  0  0  0  0  0
  160.7210  211.3580  152.0490 C   0  0  0  0  0  0  0  0  0  0  0  0
  159.8600  213.3700  151.0760 N   0  0  0  0  0  0  0  0  0  0  0  0
  162.9790  210.9280  148.3460 F   0  0  0  0  0  0  0  0  0  0  0  0
  161.3540  209.2030  152.9980 C   0  0  0  0  0  3  0  0  0  0  0  0
  160.8210  210.4880  153.1770 C   0  0  0  0  0  0  0  0  0  0  0  0
  162.3630  207.5660  149.8160 C   0  0  1  0  0  3  0  0  0  0  0  0
  161.7420  209.6550  150.6670 C   0  0  0  0  0  0  0  0  0  0  0  0
  160.0060  212.5550  152.1450 C   0  0  0  0  0  3  0  0  0  0  0  0
  158.5610  211.3320  156.1160 C   0  0  0  0  0  0  0  0  0  0  0  0
  159.4990  211.6370  157.1040 C   0  0  0  0  0  3  0  0  0  0  0  0
  160.3550  210.8620  154.5400 C   0  0  0  0  0  0  0  0  0  0  0  0
  160.8640  211.5650  156.8150 C   0  0  0  0  0  3  0  0  0  0  0  0
  158.9870  210.9520  154.8400 C   0  0  0  0  0  3  0  0  0  0  0  0
  161.2890  211.1830  155.5400 C   0  0  0  0  0  3  0  0  0  0  0  0
  157.2370  211.4080  156.3930 F   0  0  0  0  0  0  0  0  0  0  0  0
  161.4010  206.6170  149.1210 C   0  0  0  0  0  2  0  0  0  0  0  0
  160.8100  205.6390  150.1230 C   0  0  0  0  0  2  0  0  0  0  0  0
  160.8210  203.5980  152.0260 O   0  0  0  0  0  1  0  0  0  0  0  0
  161.2710  204.2900  149.8240 N   0  0  0  0  0  0  0  0  0  0  0  0
  160.5250  203.3580  150.6820 C   0  0  1  0  0  3  0  0  0  0  0  0
  160.6240  201.6200  148.8860 C   0  0  0  0  0  2  0  0  0  0  0  0
  161.3360  202.6390  148.0080 C   0  0  0  0  0  2  0  0  0  0  0  0
  160.9100  204.0430  148.4270 C   0  0  0  0  0  2  0  0  0  0  0  0
  160.9050  201.9140  150.3530 C   0  0  0  0  0  2  0  0  0  0  0  0
  1 12  1  0  0  0  0
  2  8  1  0  0  0  0
  3 11  1  0  0  0  0
  4 14  2  0  0  0  0
  5 10  2  0  0  0  0
  6  5  1  0  0  0  0
  6  2  2  0  0  0  0
  7 16  1  0  0  0  0
  7 17  1  0  0  0  0
  8  1  2  0  0  0  0
  8  3  1  0  0  0  0
  9  4  1  0  0  0  0
 10  1  1  0  0  0  0
 11 18  1  0  0  0  0
 11 15  2  0  0  0  0
 12 18  2  0  0  0  0
 13  2  1  0  0  0  0
 14 15  1  0  0  0  0
 15 21  1  0  0  0  0
 16 26  1  6  0  0  0
 16  9  1  0  0  0  0
 17  3  2  0  0  0  0
 17  4  1  0  0  0  0
 19 25  1  0  0  0  0
 19 20  1  0  0  0  0
 21 23  1  0  0  0  0
 21 24  2  0  0  0  0
 22 20  2  0  0  0  0
 23 19  2  0  0  0  0
 24 22  1  0  0  0  0
 26 27  1  0  0  0  0
 29 27  1  0  0  0  0
 29 30  1  0  0  0  0
 30 28  1  1  0  0  0
 31 34  1  0  0  0  0
 32 33  1  0  0  0  0
 32 31  1  0  0  0  0
 33 29  1  0  0  0  0
 34 30  1  0  0  0  0
M  END
>  <MODEL>
4

>  <REMARK>
 VINA RESULT:      -9.2      3.243      8.292
  Name = 
  4 active torsions:
  status: ('A' for Active; 'I' for Inactive)
    1  A    between atoms: C_3  and  N_13
    2  A    between atoms: C_3  and  C_17
    3  A    between atoms: C_12  and  C_28
    4  A    between atoms: C_17  and  C_29
                            x       y       z     vdW  Elec       q    Type
                         _______ _______ _______ _____ _____    ______ ____

>  <TORSDO>
F 4

$$$$
=
 OpenBabel11062407553D

 34 39  0  0  1  0  0  0  0  0999 V2000
  160.9030  207.1440  153.1410 C   0  0  0  0  0  0  0  0  0  0  0  0
  161.8570  209.3710  153.3250 C   0  0  0  0  0  0  0  0  0  0  0  0
  161.6050  208.2450  151.0770 C   0  0  0  0  0  0  0  0  0  0  0  0
  162.0270  209.2590  148.9080 C   0  0  0  0  0  0  0  0  0  0  0  0
  160.9450  208.2680  155.2820 C   0  0  0  0  0  3  0  0  0  0  0  0
  161.5810  209.3580  154.6950 C   0  0  0  0  0  3  0  0  0  0  0  0
  161.7160  210.7360  150.6180 N   0  0  0  0  0  2  0  0  0  0  0  0
  161.4490  208.2890  152.4980 C   0  0  0  0  0  0  0  0  0  0  0  0
  162.1410  210.5880  148.2620 C   0  0  0  0  0  2  0  0  0  0  0  0
  160.6270  207.1560  154.5100 C   0  0  0  0  0  3  0  0  0  0  0  0
  161.4410  206.9930  150.4030 C   0  0  0  0  0  0  0  0  0  0  0  0
  160.6760  206.0040  152.4460 N   0  0  0  0  0  0  0  0  0  0  0  0
  162.6610  210.3650  152.8810 F   0  0  0  0  0  0  0  0  0  0  0  0
  161.9610  208.0360  148.2610 C   0  0  0  0  0  3  0  0  0  0  0  0
  161.6790  206.8780  149.0000 C   0  0  0  0  0  0  0  0  0  0  0  0
  161.9290  211.5630  149.4350 C   0  0  1  0  0  3  0  0  0  0  0  0
  161.8420  209.3740  150.2570 C   0  0  0  0  0  0  0  0  0  0  0  0
  160.9520  205.9010  151.1260 C   0  0  0  0  0  3  0  0  0  0  0  0
  161.1760  203.1910  148.2150 C   0  0  0  0  0  0  0  0  0  0  0  0
  161.5610  203.1420  146.8730 C   0  0  0  0  0  3  0  0  0  0  0  0
  161.6130  205.5850  148.2650 C   0  0  0  0  0  0  0  0  0  0  0  0
  161.9810  204.3070  146.2260 C   0  0  0  0  0  3  0  0  0  0  0  0
  161.2060  204.4050  148.9070 C   0  0  0  0  0  3  0  0  0  0  0  0
  162.0100  205.5200  146.9180 C   0  0  0  0  0  3  0  0  0  0  0  0
  160.7740  202.0620  148.8450 F   0  0  0  0  0  0  0  0  0  0  0  0
  160.7010  212.4250  149.1940 C   0  0  0  0  0  2  0  0  0  0  0  0
  160.4560  213.3380  150.3840 C   0  0  0  0  0  2  0  0  0  0  0  0
  159.9100  212.4590  152.9750 O   0  0  0  0  0  1  0  0  0  0  0  0
  159.1000  213.1490  150.8780 N   0  0  0  0  0  0  0  0  0  0  0  0
  159.1080  213.4020  152.3260 C   0  0  1  0  0  3  0  0  0  0  0  0
  156.7760  214.2950  152.1870 C   0  0  0  0  0  2  0  0  0  0  0  0
  156.8350  214.0790  150.6820 C   0  0  0  0  0  2  0  0  0  0  0  0
  158.2870  214.1750  150.2210 C   0  0  0  0  0  2  0  0  0  0  0  0
  157.6900  213.3020  152.8900 C   0  0  0  0  0  2  0  0  0  0  0  0
  1 10  2  0  0  0  0
  2  6  1  0  0  0  0
  3  8  1  0  0  0  0
  4 17  1  0  0  0  0
  6  5  2  0  0  0  0
  8  1  1  0  0  0  0
  8  2  2  0  0  0  0
  9  4  1  0  0  0  0
  9 16  1  0  0  0  0
 10  5  1  0  0  0  0
 11  3  1  0  0  0  0
 11 18  1  0  0  0  0
 12  1  1  0  0  0  0
 13  2  1  0  0  0  0
 14  4  2  0  0  0  0
 14 15  1  0  0  0  0
 15 11  2  0  0  0  0
 16 26  1  6  0  0  0
 16  7  1  0  0  0  0
 17  7  1  0  0  0  0
 17  3  2  0  0  0  0
 18 12  2  0  0  0  0
 19 25  1  0  0  0  0
 19 23  1  0  0  0  0
 20 19  2  0  0  0  0
 21 23  2  0  0  0  0
 21 15  1  0  0  0  0
 22 20  1  0  0  0  0
 22 24  2  0  0  0  0
 24 21  1  0  0  0  0
 26 27  1  0  0  0  0
 27 29  1  0  0  0  0
 29 30  1  0  0  0  0
 30 34  1  0  0  0  0
 30 28  1  1  0  0  0
 31 34  1  0  0  0  0
 32 31  1  0  0  0  0
 33 32  1  0  0  0  0
 33 29  1  0  0  0  0
M  END
>  <MODEL>
5

>  <REMARK>
 VINA RESULT:      -9.1      2.108      2.606
  Name = 
  4 active torsions:
  status: ('A' for Active; 'I' for Inactive)
    1  A    between atoms: C_3  and  N_13
    2  A    between atoms: C_3  and  C_17
    3  A    between atoms: C_12  and  C_28
    4  A    between atoms: C_17  and  C_29
                            x       y       z     vdW  Elec       q    Type
                         _______ _______ _______ _____ _____    ______ ____

>  <TORSDO>
F 4

$$$$
=
 OpenBabel11062407553D

 34 39  0  0  1  0  0  0  0  0999 V2000
  160.9450  206.5330  152.3130 C   0  0  0  0  0  0  0  0  0  0  0  0
  161.7290  208.6930  153.1030 C   0  0  0  0  0  0  0  0  0  0  0  0
  161.6270  208.1700  150.6330 C   0  0  0  0  0  0  0  0  0  0  0  0
  162.0390  209.7330  148.8160 C   0  0  0  0  0  0  0  0  0  0  0  0
  160.8410  207.0690  154.6690 C   0  0  0  0  0  3  0  0  0  0  0  0
  161.4140  208.3110  154.4090 C   0  0  0  0  0  3  0  0  0  0  0  0
  161.5710  210.6980  150.8300 N   0  0  0  0  0  2  0  0  0  0  0  0
  161.4250  207.8370  152.0090 C   0  0  0  0  0  0  0  0  0  0  0  0
  162.0760  211.1880  148.5360 C   0  0  0  0  0  2  0  0  0  0  0  0
  160.6280  206.1760  153.6250 C   0  0  0  0  0  3  0  0  0  0  0  0
  161.5740  207.1270  149.6550 C   0  0  0  0  0  0  0  0  0  0  0  0
  160.8220  205.6000  151.3400 N   0  0  0  0  0  0  0  0  0  0  0  0
  162.4710  209.8160  152.9660 F   0  0  0  0  0  0  0  0  0  0  0  0
  162.0810  208.7160  147.8770 C   0  0  0  0  0  3  0  0  0  0  0  0
  161.8620  207.3910  148.2820 C   0  0  0  0  0  0  0  0  0  0  0  0
  161.7590  211.8130  149.9080 C   0  0  1  0  0  3  0  0  0  0  0  0
  161.8050  209.4850  150.1400 C   0  0  0  0  0  0  0  0  0  0  0  0
  161.1440  205.8570  150.0520 C   0  0  0  0  0  3  0  0  0  0  0  0
  160.8930  205.1280  145.3840 C   0  0  0  0  0  0  0  0  0  0  0  0
  161.9970  204.2740  145.3230 C   0  0  0  0  0  3  0  0  0  0  0  0
  161.9110  206.3300  147.2400 C   0  0  0  0  0  0  0  0  0  0  0  0
  163.0540  204.4370  146.2200 C   0  0  0  0  0  3  0  0  0  0  0  0
  160.8490  206.1470  146.3400 C   0  0  0  0  0  3  0  0  0  0  0  0
  163.0100  205.4560  147.1750 C   0  0  0  0  0  3  0  0  0  0  0  0
  159.8640  204.9670  144.5180 F   0  0  0  0  0  0  0  0  0  0  0  0
  160.4800  212.6300  149.8360 C   0  0  0  0  0  2  0  0  0  0  0  0
  160.6540  213.8010  148.8830 C   0  0  0  0  0  2  0  0  0  0  0  0
  160.8090  213.4740  146.1160 O   0  0  0  0  0  1  0  0  0  0  0  0
  159.4900  213.9060  148.0150 N   0  0  0  0  0  0  0  0  0  0  0  0
  159.7100  213.0280  146.8560 C   0  0  1  0  0  3  0  0  0  0  0  0
  157.2530  212.5770  146.7260 C   0  0  0  0  0  2  0  0  0  0  0  0
  157.0790  213.4410  147.9670 C   0  0  0  0  0  2  0  0  0  0  0  0
  158.3610  213.3910  148.7930 C   0  0  0  0  0  2  0  0  0  0  0  0
  158.4810  213.0310  145.9470 C   0  0  0  0  0  2  0  0  0  0  0  0
  1 10  2  0  0  0  0
  2  6  1  0  0  0  0
  3  8  1  0  0  0  0
  4 17  2  0  0  0  0
  6  5  2  0  0  0  0
  8  1  1  0  0  0  0
  8  2  2  0  0  0  0
  9  4  1  0  0  0  0
  9 16  1  0  0  0  0
 10  5  1  0  0  0  0
 11 18  1  0  0  0  0
 11  3  2  0  0  0  0
 12  1  1  0  0  0  0
 13  2  1  0  0  0  0
 14 15  2  0  0  0  0
 14  4  1  0  0  0  0
 15 11  1  0  0  0  0
 16 26  1  6  0  0  0
 16  7  1  0  0  0  0
 17  3  1  0  0  0  0
 17  7  1  0  0  0  0
 18 12  2  0  0  0  0
 19 23  1  0  0  0  0
 20 19  2  0  0  0  0
 20 22  1  0  0  0  0
 21 15  1  0  0  0  0
 22 24  2  0  0  0  0
 23 21  2  0  0  0  0
 24 21  1  0  0  0  0
 25 19  1  0  0  0  0
 27 26  1  0  0  0  0
 29 33  1  0  0  0  0
 29 27  1  0  0  0  0
 30 28  1  6  0  0  0
 30 29  1  0  0  0  0
 31 32  1  0  0  0  0
 32 33  1  0  0  0  0
 34 31  1  0  0  0  0
 34 30  1  0  0  0  0
M  END
>  <MODEL>
6

>  <REMARK>
 VINA RESULT:      -8.6      1.542      1.826
  Name = 
  4 active torsions:
  status: ('A' for Active; 'I' for Inactive)
    1  A    between atoms: C_3  and  N_13
    2  A    between atoms: C_3  and  C_17
    3  A    between atoms: C_12  and  C_28
    4  A    between atoms: C_17  and  C_29
                            x       y       z     vdW  Elec       q    Type
                         _______ _______ _______ _____ _____    ______ ____

>  <TORSDO>
F 4

$$$$
=
 OpenBabel11062407553D

 34 39  0  0  1  0  0  0  0  0999 V2000
  161.3130  206.1770  149.2540 C   0  0  0  0  0  0  0  0  0  0  0  0
  161.7850  205.5890  151.5640 C   0  0  0  0  0  0  0  0  0  0  0  0
  161.6810  208.0060  150.8310 C   0  0  0  0  0  0  0  0  0  0  0  0
  161.7900  209.9530  152.2830 C   0  0  0  0  0  0  0  0  0  0  0  0
  161.2060  203.8660  149.9600 C   0  0  0  0  0  3  0  0  0  0  0  0
  161.5750  204.2450  151.2470 C   0  0  0  0  0  3  0  0  0  0  0  0
  161.2480  207.9990  153.3290 N   0  0  0  0  0  2  0  0  0  0  0  0
  161.5780  206.6000  150.5850 C   0  0  0  0  0  0  0  0  0  0  0  0
  161.5960  210.3440  153.6990 C   0  0  0  0  0  2  0  0  0  0  0  0
  161.0980  204.8280  148.9620 C   0  0  0  0  0  3  0  0  0  0  0  0
  161.7560  208.8970  149.7140 C   0  0  0  0  0  0  0  0  0  0  0  0
  161.3010  207.0690  148.2360 N   0  0  0  0  0  0  0  0  0  0  0  0
  162.3420  205.8450  152.7700 F   0  0  0  0  0  0  0  0  0  0  0  0
  161.9560  210.8130  151.2100 C   0  0  0  0  0  3  0  0  0  0  0  0
  161.9550  210.2980  149.9050 C   0  0  0  0  0  0  0  0  0  0  0  0
  161.2330  209.0110  154.3810 C   0  0  1  0  0  3  0  0  0  0  0  0
  161.6410  208.6050  152.1130 C   0  0  0  0  0  0  0  0  0  0  0  0
  161.5380  208.3860  148.4320 C   0  0  0  0  0  3  0  0  0  0  0  0
  161.2130  212.5800  146.9550 C   0  0  0  0  0  0  0  0  0  0  0  0
  162.4960  213.0180  146.6190 C   0  0  0  0  0  3  0  0  0  0  0  0
  162.1310  211.2580  148.7810 C   0  0  0  0  0  0  0  0  0  0  0  0
  163.5990  212.5740  147.3530 C   0  0  0  0  0  3  0  0  0  0  0  0
  161.0330  211.7010  148.0270 C   0  0  0  0  0  3  0  0  0  0  0  0
  163.4180  211.6970  148.4250 C   0  0  0  0  0  3  0  0  0  0  0  0
  160.1440  213.0050  146.2400 F   0  0  0  0  0  0  0  0  0  0  0  0
  159.8420  209.0870  154.9880 C   0  0  0  0  0  2  0  0  0  0  0  0
  159.9130  209.6500  156.3980 C   0  0  0  0  0  2  0  0  0  0  0  0
  160.9700  212.0840  157.2610 O   0  0  0  0  0  1  0  0  0  0  0  0
  159.1150  210.8650  156.4830 N   0  0  0  0  0  0  0  0  0  0  0  0
  160.0100  212.0090  156.2490 C   0  0  1  0  0  3  0  0  0  0  0  0
  158.1330  213.2600  155.1680 C   0  0  0  0  0  2  0  0  0  0  0  0
  157.2610  212.0290  155.3700 C   0  0  0  0  0  2  0  0  0  0  0  0
  158.1480  210.7880  155.3860 C   0  0  0  0  0  2  0  0  0  0  0  0
  159.2120  213.3140  156.2410 C   0  0  0  0  0  2  0  0  0  0  0  0
  1  8  1  0  0  0  0
  2 13  1  0  0  0  0
  3 17  1  0  0  0  0
  4  9  1  0  0  0  0
  5  6  2  0  0  0  0
  6  2  1  0  0  0  0
  7 16  1  0  0  0  0
  8  3  1  0  0  0  0
  8  2  2  0  0  0  0
  9 16  1  0  0  0  0
 10  1  2  0  0  0  0
 10  5  1  0  0  0  0
 11 15  1  0  0  0  0
 11  3  2  0  0  0  0
 12 18  2  0  0  0  0
 12  1  1  0  0  0  0
 14  4  1  0  0  0  0
 15 14  2  0  0  0  0
 16 26  1  6  0  0  0
 17  4  2  0  0  0  0
 17  7  1  0  0  0  0
 18 11  1  0  0  0  0
 19 23  1  0  0  0  0
 20 19  2  0  0  0  0
 20 22  1  0  0  0  0
 21 15  1  0  0  0  0
 22 24  2  0  0  0  0
 23 21  2  0  0  0  0
 24 21  1  0  0  0  0
 25 19  1  0  0  0  0
 26 27  1  0  0  0  0
 27 29  1  0  0  0  0
 30 29  1  0  0  0  0
 30 28  1  1  0  0  0
 31 32  1  0  0  0  0
 31 34  1  0  0  0  0
 32 33  1  0  0  0  0
 33 29  1  0  0  0  0
 34 30  1  0  0  0  0
M  END
>  <MODEL>
7

>  <REMARK>
 VINA RESULT:      -8.6      3.497      7.062
  Name = 
  4 active torsions:
  status: ('A' for Active; 'I' for Inactive)
    1  A    between atoms: C_3  and  N_13
    2  A    between atoms: C_3  and  C_17
    3  A    between atoms: C_12  and  C_28
    4  A    between atoms: C_17  and  C_29
                            x       y       z     vdW  Elec       q    Type
                         _______ _______ _______ _____ _____    ______ ____

>  <TORSDO>
F 4

$$$$
=
 OpenBabel11062407553D

 34 39  0  0  1  0  0  0  0  0999 V2000
  160.3660  212.6430  150.2160 C   0  0  0  0  0  0  0  0  0  0  0  0
  162.0470  211.0730  149.4300 C   0  0  0  0  0  0  0  0  0  0  0  0
  160.8890  210.7360  151.6510 C   0  0  0  0  0  0  0  0  0  0  0  0
  161.1020  208.7970  153.1020 C   0  0  0  0  0  0  0  0  0  0  0  0
  161.3070  212.8870  148.0010 C   0  0  0  0  0  3  0  0  0  0  0  0
  162.1210  211.7800  148.2280 C   0  0  0  0  0  3  0  0  0  0  0  0
  161.7420  208.4570  150.9380 N   0  0  0  0  0  2  0  0  0  0  0  0
  161.1030  211.4450  150.4270 C   0  0  0  0  0  0  0  0  0  0  0  0
  161.5110  207.3720  153.0650 C   0  0  0  0  0  2  0  0  0  0  0  0
  160.4490  213.3290  149.0030 C   0  0  0  0  0  3  0  0  0  0  0  0
  160.1450  211.3720  152.6950 C   0  0  0  0  0  0  0  0  0  0  0  0
  159.5990  213.1640  151.2020 N   0  0  0  0  0  0  0  0  0  0  0  0
  163.0130  210.1510  149.6480 F   0  0  0  0  0  0  0  0  0  0  0  0
  160.4630  209.4400  154.1490 C   0  0  0  0  0  3  0  0  0  0  0  0
  159.9850  210.7460  153.9680 C   0  0  0  0  0  0  0  0  0  0  0  0
  161.9380  207.1710  151.6000 C   0  0  1  0  0  3  0  0  0  0  0  0
  161.2980  209.4030  151.8930 C   0  0  0  0  0  0  0  0  0  0  0  0
  159.4970  212.5790  152.4170 C   0  0  0  0  0  3  0  0  0  0  0  0
  157.2770  211.9210  156.3660 C   0  0  0  0  0  0  0  0  0  0  0  0
  158.0190  212.6970  157.2580 C   0  0  0  0  0  3  0  0  0  0  0  0
  159.3000  211.3990  155.1180 C   0  0  0  0  0  0  0  0  0  0  0  0
  159.3980  212.8350  157.0810 C   0  0  0  0  0  3  0  0  0  0  0  0
  157.9130  211.2800  155.2990 C   0  0  0  0  0  3  0  0  0  0  0  0
  160.0340  212.1930  156.0160 C   0  0  0  0  0  3  0  0  0  0  0  0
  155.9390  211.7920  156.5320 F   0  0  0  0  0  0  0  0  0  0  0  0
  161.0640  206.1220  150.9320 C   0  0  0  0  0  2  0  0  0  0  0  0
  160.3630  206.7150  149.7210 C   0  0  0  0  0  2  0  0  0  0  0  0
  161.4760  207.7790  147.3940 O   0  0  0  0  0  1  0  0  0  0  0  0
  160.6430  205.9040  148.5440 N   0  0  0  0  0  0  0  0  0  0  0  0
  161.7960  206.4980  147.8520 C   0  0  1  0  0  3  0  0  0  0  0  0
  162.5240  204.2240  147.1050 C   0  0  0  0  0  2  0  0  0  0  0  0
  161.3550  203.6470  147.8900 C   0  0  0  0  0  2  0  0  0  0  0  0
  161.0220  204.5820  149.0490 C   0  0  0  0  0  2  0  0  0  0  0  0
  162.1940  205.6390  146.6500 C   0  0  0  0  0  2  0  0  0  0  0  0
  1  8  2  0  0  0  0
  1 12  1  0  0  0  0
  2 13  1  0  0  0  0
  2  8  1  0  0  0  0
  3 17  2  0  0  0  0
  3 11  1  0  0  0  0
  4 14  2  0  0  0  0
  5  6  1  0  0  0  0
  5 10  2  0  0  0  0
  6  2  2  0  0  0  0
  7 16  1  0  0  0  0
  7 17  1  0  0  0  0
  8  3  1  0  0  0  0
  9  4  1  0  0  0  0
 10  1  1  0  0  0  0
 11 15  2  0  0  0  0
 12 18  2  0  0  0  0
 15 14  1  0  0  0  0
 15 21  1  0  0  0  0
 16 26  1  6  0  0  0
 16  9  1  0  0  0  0
 17  4  1  0  0  0  0
 18 11  1  0  0  0  0
 19 25  1  0  0  0  0
 19 20  1  0  0  0  0
 21 23  1  0  0  0  0
 21 24  2  0  0  0  0
 22 20  2  0  0  0  0
 23 19  2  0  0  0  0
 24 22  1  0  0  0  0
 27 26  1  0  0  0  0
 29 33  1  0  0  0  0
 29 27  1  0  0  0  0
 30 28  1  6  0  0  0
 30 29  1  0  0  0  0
 31 32  1  0  0  0  0
 32 33  1  0  0  0  0
 34 31  1  0  0  0  0
 34 30  1  0  0  0  0
M  END
>  <MODEL>
8

>  <REMARK>
 VINA RESULT:      -8.1      2.916      7.910
  Name = 
  4 active torsions:
  status: ('A' for Active; 'I' for Inactive)
    1  A    between atoms: C_3  and  N_13
    2  A    between atoms: C_3  and  C_17
    3  A    between atoms: C_12  and  C_28
    4  A    between atoms: C_17  and  C_29
                            x       y       z     vdW  Elec       q    Type
                         _______ _______ _______ _____ _____    ______ ____

>  <TORSDO>
F 4

$$$$
=
 OpenBabel11062407553D

 34 39  0  0  1  0  0  0  0  0999 V2000
  162.0090  208.8520  149.2560 C   0  0  0  0  0  0  0  0  0  0  0  0
  161.0240  210.0790  151.1080 C   0  0  0  0  0  0  0  0  0  0  0  0
  161.2200  207.5600  151.1740 C   0  0  0  0  0  0  0  0  0  0  0  0
  160.7090  206.1290  153.0720 C   0  0  0  0  0  0  0  0  0  0  0  0
  162.0200  211.2700  149.2460 C   0  0  0  0  0  3  0  0  0  0  0  0
  161.3460  211.2760  150.4640 C   0  0  0  0  0  3  0  0  0  0  0  0
  161.0520  208.3260  153.5850 N   0  0  0  0  0  2  0  0  0  0  0  0
  161.4230  208.8330  150.5520 C   0  0  0  0  0  0  0  0  0  0  0  0
  160.5510  206.1850  154.5450 C   0  0  0  0  0  2  0  0  0  0  0  0
  162.3300  210.0600  148.6340 C   0  0  0  0  0  3  0  0  0  0  0  0
  161.3830  206.3750  150.3890 C   0  0  0  0  0  0  0  0  0  0  0  0
  162.2320  207.6990  148.5820 N   0  0  0  0  0  0  0  0  0  0  0  0
  160.1900  210.1710  152.1690 F   0  0  0  0  0  0  0  0  0  0  0  0
  160.7740  204.9840  152.2970 C   0  0  0  0  0  3  0  0  0  0  0  0
  161.0990  205.0870  150.9360 C   0  0  0  0  0  0  0  0  0  0  0  0
  160.7860  207.6730  154.8630 C   0  0  1  0  0  3  0  0  0  0  0  0
  160.9370  207.3710  152.5480 C   0  0  0  0  0  0  0  0  0  0  0  0
  161.9140  206.4910  149.1010 C   0  0  0  0  0  3  0  0  0  0  0  0
  161.2060  202.6730  148.0000 C   0  0  0  0  0  0  0  0  0  0  0  0
  161.2140  201.4410  148.6600 C   0  0  0  0  0  3  0  0  0  0  0  0
  161.1630  203.8300  150.1410 C   0  0  0  0  0  0  0  0  0  0  0  0
  161.1870  201.3970  150.0560 C   0  0  0  0  0  3  0  0  0  0  0  0
  161.1760  203.8600  148.7380 C   0  0  0  0  0  3  0  0  0  0  0  0
  161.1580  202.5850  150.7920 C   0  0  0  0  0  3  0  0  0  0  0  0
  161.2250  202.7160  146.6470 F   0  0  0  0  0  0  0  0  0  0  0  0
  161.9900  207.8380  155.7740 C   0  0  0  0  0  2  0  0  0  0  0  0
  161.5400  208.1560  157.1910 C   0  0  0  0  0  2  0  0  0  0  0  0
  163.2820  210.3360  157.1980 O   0  0  0  0  0  1  0  0  0  0  0  0
  161.0720  209.5330  157.2600 N   0  0  0  0  0  0  0  0  0  0  0  0
  162.0450  210.3760  156.5490 C   0  0  1  0  0  3  0  0  0  0  0  0
  160.2010  211.9110  155.8390 C   0  0  0  0  0  2  0  0  0  0  0  0
  159.2220  210.9740  156.5320 C   0  0  0  0  0  2  0  0  0  0  0  0
  159.8000  209.5620  156.5350 C   0  0  0  0  0  2  0  0  0  0  0  0
  161.5630  211.8280  156.5140 C   0  0  0  0  0  2  0  0  0  0  0  0
  1  8  1  0  0  0  0
  2 13  1  0  0  0  0
  3 17  1  0  0  0  0
  4  9  1  0  0  0  0
  5  6  1  0  0  0  0
  6  2  2  0  0  0  0
  7 16  1  0  0  0  0
  8  2  1  0  0  0  0
  8  3  2  0  0  0  0
  9 16  1  0  0  0  0
 10  5  2  0  0  0  0
 10  1  1  0  0  0  0
 11 15  1  0  0  0  0
 11  3  1  0  0  0  0
 12 18  1  0  0  0  0
 12  1  2  0  0  0  0
 14  4  1  0  0  0  0
 15 14  2  0  0  0  0
 16 26  1  1  0  0  0
 17  4  2  0  0  0  0
 17  7  1  0  0  0  0
 18 11  2  0  0  0  0
 19 20  2  0  0  0  0
 19 23  1  0  0  0  0
 20 22  1  0  0  0  0
 21 24  1  0  0  0  0
 21 15  1  0  0  0  0
 22 24  2  0  0  0  0
 23 21  2  0  0  0  0
 25 19  1  0  0  0  0
 26 27  1  0  0  0  0
 27 29  1  0  0  0  0
 30 28  1  1  0  0  0
 30 29  1  0  0  0  0
 31 34  1  0  0  0  0
 31 32  1  0  0  0  0
 32 33  1  0  0  0  0
 33 29  1  0  0  0  0
 34 30  1  0  0  0  0
M  END
>  <MODEL>
9

>  <REMARK>
 VINA RESULT:      -8.0      3.378      6.404
  Name = 
  4 active torsions:
  status: ('A' for Active; 'I' for Inactive)
    1  A    between atoms: C_3  and  N_13
    2  A    between atoms: C_3  and  C_17
    3  A    between atoms: C_12  and  C_28
    4  A    between atoms: C_17  and  C_29
                            x       y       z     vdW  Elec       q    Type
                         _______ _______ _______ _____ _____    ______ ____

>  <TORSDO>
F 4

$$$$
