=
 OpenBabel11052422003D

 30 34  0  0  1  0  0  0  0  0999 V2000
  161.7660  209.7130  151.4370 C   0  0  0  0  0  0  0  0  0  0  0  0
  162.3570  207.4830  150.2500 C   0  0  1  0  0  3  0  0  0  0  0  0
  160.7340  206.4120  154.3010 C   0  0  0  0  0  3  0  0  0  0  0  0
  161.3910  210.0420  152.6680 C   0  0  0  0  0  0  0  0  0  0  0  0
  161.3260  210.6580  150.5380 C   0  0  0  0  0  3  0  0  0  0  0  0
  160.6900  211.1840  152.7010 N   0  0  0  0  0  0  0  0  0  0  0  0
  160.2850  207.4490  155.0250 C   0  0  0  0  0  0  0  0  0  0  0  0
  160.6680  211.5690  151.3870 C   0  0  0  0  0  0  0  0  0  0  0  0
  161.1430  206.5980  149.9500 C   0  0  0  0  0  2  0  0  0  0  0  0
  162.7030  208.2210  149.1170 O   0  0  0  0  0  1  0  0  0  0  0  0
  161.8270  206.5470  153.2690 C   0  0  1  0  0  3  0  0  0  0  0  0
  161.6700  205.4740  152.1830 C   0  0  0  0  0  2  0  0  0  0  0  0
  162.1330  208.3820  151.4300 C   0  0  0  0  0  0  0  0  0  0  0  0
  161.4220  208.9940  153.5090 N   0  0  0  0  0  0  0  0  0  0  0  0
  159.2930  207.2310  155.9730 O   0  0  0  0  0  1  0  0  0  0  0  0
  160.8320  208.8450  154.8390 C   0  0  2  0  0  3  0  0  0  0  0  0
  160.5880  205.8390  151.1640 C   0  0  0  0  0  2  0  0  0  0  0  0
  161.8850  207.9650  152.7520 C   0  0  0  0  0  0  0  0  0  0  0  0
  161.4120  213.1780  149.0830 O   0  0  0  0  0  0  0  0  0  0  0  0
  159.9910  212.7290  150.8890 N   0  0  0  0  0  2  0  0  0  0  0  0
  159.4100  214.4520  149.1460 C   0  0  0  0  0  1  0  0  0  0  0  0
  160.3270  213.4120  149.6780 C   0  0  0  0  0  0  0  0  0  0  0  0
  162.4440  210.4380  155.9490 N   0  0  0  0  0  2  0  0  0  0  0  0
  161.8420  209.1440  155.9040 C   0  0  0  0  0  0  0  0  0  0  0  0
  162.1240  208.2770  156.7760 O   0  0  0  0  0  0  0  0  0  0  0  0
  163.4070  210.8140  156.9730 C   0  0  0  0  0  2  0  0  0  0  0  0
  164.5090  211.4080  156.3830 F   0  0  0  0  0  0  0  0  0  0  0  0
  158.6220  211.3870  154.0000 C   0  0  0  0  0  2  0  0  0  0  0  0
  158.9470  212.7390  153.4170 C   0  0  0  0  0  2  0  0  0  0  0  0
  160.0750  211.8210  153.8650 C   0  0  0  0  0  3  0  0  0  0  0  0
  1  4  2  0  0  0  0
  2 10  1  6  0  0  0
  2 13  1  0  0  0  0
  3  7  2  0  0  0  0
  4  6  1  0  0  0  0
  4 14  1  0  0  0  0
  5  8  2  0  0  0  0
  5  1  1  0  0  0  0
  6 30  1  0  0  0  0
  7 15  1  0  0  0  0
  8  6  1  0  0  0  0
  9  2  1  0  0  0  0
  9 17  1  0  0  0  0
 11 12  1  6  0  0  0
 11  3  1  0  0  0  0
 13  1  1  0  0  0  0
 13 18  2  0  0  0  0
 14 16  1  0  0  0  0
 16  7  1  0  0  0  0
 16 24  1  1  0  0  0
 17 12  1  0  0  0  0
 18 11  1  0  0  0  0
 18 14  1  0  0  0  0
 19 22  2  0  0  0  0
 20  8  1  0  0  0  0
 21 22  1  0  0  0  0
 22 20  1  0  0  0  0
 23 26  1  0  0  0  0
 24 23  1  0  0  0  0
 24 25  2  0  0  0  0
 27 26  1  0  0  0  0
 29 30  1  0  0  0  0
 29 28  1  0  0  0  0
 30 28  1  0  0  0  0
M  END
>  <MODEL>
1

>  <REMARK>
 VINA RESULT:      -6.7      0.000      0.000
  Name = 
  4 active torsions:
  status: ('A' for Active; 'I' for Inactive)
    1  A    between atoms: N_7  and  C_16
    2  A    between atoms: N_8  and  C_30
    3  A    between atoms: N_9  and  C_12
    4  A    between atoms: C_10  and  C_25
                            x       y       z     vdW  Elec       q    Type
                         _______ _______ _______ _____ _____    ______ ____

>  <TORSDO>
F 4

$$$$
=
 OpenBabel11052422003D

 30 34  0  0  1  0  0  0  0  0999 V2000
  159.0600  211.6290  152.9900 C   0  0  0  0  0  0  0  0  0  0  0  0
  157.5410  212.7490  154.7700 C   0  0  1  0  0  3  0  0  0  0  0  0
  160.4630  210.1600  156.9940 C   0  0  0  0  0  3  0  0  0  0  0  0
  159.9890  210.6810  153.0210 C   0  0  0  0  0  0  0  0  0  0  0  0
  159.2690  212.4620  151.9130 C   0  0  0  0  0  3  0  0  0  0  0  0
  160.8690  210.7920  152.0170 N   0  0  0  0  0  0  0  0  0  0  0  0
  161.3960  209.5700  156.2300 C   0  0  0  0  0  0  0  0  0  0  0  0
  160.4100  211.8820  151.3260 C   0  0  0  0  0  0  0  0  0  0  0  0
  158.2810  213.7210  155.6940 C   0  0  0  0  0  2  0  0  0  0  0  0
  156.9160  213.4530  153.7390 O   0  0  0  0  0  1  0  0  0  0  0  0
  159.0930  210.5250  156.4770 C   0  0  1  0  0  3  0  0  0  0  0  0
  158.5290  211.7170  157.2600 C   0  0  0  0  0  2  0  0  0  0  0  0
  158.4420  211.6820  154.2230 C   0  0  0  0  0  0  0  0  0  0  0  0
  160.0900  210.1060  154.2320 N   0  0  0  0  0  0  0  0  0  0  0  0
  162.6230  209.2450  156.7930 O   0  0  0  0  0  1  0  0  0  0  0  0
  161.1450  209.2490  154.7740 C   0  0  2  0  0  3  0  0  0  0  0  0
  159.1200  213.0490  156.7910 C   0  0  0  0  0  2  0  0  0  0  0  0
  159.1340  210.7160  154.9790 C   0  0  0  0  0  0  0  0  0  0  0  0
  159.1550  213.4390  149.2170 O   0  0  0  0  0  0  0  0  0  0  0  0
  161.0460  212.4420  150.1710 N   0  0  0  0  0  2  0  0  0  0  0  0
  161.2270  214.0090  148.2070 C   0  0  0  0  0  1  0  0  0  0  0  0
  160.4080  213.3050  149.2260 C   0  0  0  0  0  0  0  0  0  0  0  0
  161.4900  207.0010  153.6800 N   0  0  0  0  0  2  0  0  0  0  0  0
  160.7820  207.8030  154.6260 C   0  0  0  0  0  0  0  0  0  0  0  0
  159.8920  207.2920  155.3580 O   0  0  0  0  0  0  0  0  0  0  0  0
  161.2190  205.5830  153.5020 C   0  0  0  0  0  2  0  0  0  0  0  0
  160.8450  205.3390  152.1940 F   0  0  0  0  0  0  0  0  0  0  0  0
  162.2730  209.8020  150.2680 C   0  0  0  0  0  2  0  0  0  0  0  0
  161.6380  208.6830  151.0530 C   0  0  0  0  0  2  0  0  0  0  0  0
  162.0480  209.9630  151.7650 C   0  0  0  0  0  3  0  0  0  0  0  0
  1  4  2  0  0  0  0
  1 13  1  0  0  0  0
  2 10  1  6  0  0  0
  2  9  1  0  0  0  0
  4 14  1  0  0  0  0
  5  1  1  0  0  0  0
  6  4  1  0  0  0  0
  7 15  1  0  0  0  0
  7  3  2  0  0  0  0
  8  5  2  0  0  0  0
  8  6  1  0  0  0  0
  9 17  1  0  0  0  0
 11  3  1  1  0  0  0
 11 12  1  0  0  0  0
 13  2  1  0  0  0  0
 13 18  2  0  0  0  0
 14 16  1  0  0  0  0
 14 18  1  0  0  0  0
 16 24  1  1  0  0  0
 16  7  1  0  0  0  0
 17 12  1  0  0  0  0
 18 11  1  0  0  0  0
 19 22  2  0  0  0  0
 20  8  1  0  0  0  0
 21 22  1  0  0  0  0
 22 20  1  0  0  0  0
 23 24  1  0  0  0  0
 24 25  2  0  0  0  0
 26 23  1  0  0  0  0
 27 26  1  0  0  0  0
 28 29  1  0  0  0  0
 28 30  1  0  0  0  0
 29 30  1  0  0  0  0
 30  6  1  0  0  0  0
M  END
>  <MODEL>
2

>  <REMARK>
 VINA RESULT:      -5.6      2.490      5.134
  Name = 
  4 active torsions:
  status: ('A' for Active; 'I' for Inactive)
    1  A    between atoms: N_7  and  C_16
    2  A    between atoms: N_8  and  C_30
    3  A    between atoms: N_9  and  C_12
    4  A    between atoms: C_10  and  C_25
                            x       y       z     vdW  Elec       q    Type
                         _______ _______ _______ _____ _____    ______ ____

>  <TORSDO>
F 4

$$$$
=
 OpenBabel11052422003D

 30 34  0  0  1  0  0  0  0  0999 V2000
  160.6170  211.0680  154.1230 C   0  0  0  0  0  0  0  0  0  0  0  0
  159.3860  212.3410  156.0190 C   0  0  1  0  0  3  0  0  0  0  0  0
  157.5720  213.7060  152.1420 C   0  0  0  0  0  3  0  0  0  0  0  0
  160.6210  211.1480  152.7980 C   0  0  0  0  0  0  0  0  0  0  0  0
  160.9810  209.8010  154.5230 C   0  0  0  0  0  3  0  0  0  0  0  0
  160.9660  209.9900  152.2160 N   0  0  0  0  0  0  0  0  0  0  0  0
  158.0280  213.0750  151.0480 C   0  0  0  0  0  0  0  0  0  0  0  0
  161.2050  209.1680  153.2850 C   0  0  0  0  0  0  0  0  0  0  0  0
  157.9030  211.9800  156.1470 C   0  0  0  0  0  2  0  0  0  0  0  0
  160.1360  211.6130  156.9440 O   0  0  0  0  0  1  0  0  0  0  0  0
  158.4030  213.8850  153.3890 C   0  0  1  0  0  3  0  0  0  0  0  0
  157.4960  213.9900  154.6220 C   0  0  0  0  0  2  0  0  0  0  0  0
  159.9060  212.1380  154.6260 C   0  0  0  0  0  0  0  0  0  0  0  0
  159.9010  212.1880  152.3460 N   0  0  0  0  0  0  0  0  0  0  0  0
  157.2050  212.9770  149.9330 O   0  0  0  0  0  1  0  0  0  0  0  0
  159.4120  212.4720  150.9970 C   0  0  2  0  0  3  0  0  0  0  0  0
  156.9940  212.6210  155.0880 C   0  0  0  0  0  2  0  0  0  0  0  0
  159.4590  212.8090  153.4710 C   0  0  0  0  0  0  0  0  0  0  0  0
  160.0850  206.9500  154.7940 O   0  0  0  0  0  0  0  0  0  0  0  0
  161.5680  207.7860  153.1860 N   0  0  0  0  0  2  0  0  0  0  0  0
  161.2140  205.3120  153.4990 C   0  0  0  0  0  1  0  0  0  0  0  0
  160.9000  206.7170  153.8620 C   0  0  0  0  0  0  0  0  0  0  0  0
  160.7270  213.0990  148.9350 N   0  0  0  0  0  2  0  0  0  0  0  0
  160.3460  213.3980  150.2790 C   0  0  0  0  0  0  0  0  0  0  0  0
  160.7550  214.4500  150.8400 O   0  0  0  0  0  0  0  0  0  0  0  0
  161.6020  213.9660  148.1610 C   0  0  0  0  0  2  0  0  0  0  0  0
  162.9010  213.4970  148.2260 F   0  0  0  0  0  0  0  0  0  0  0  0
  162.2530  208.8470  150.4710 C   0  0  0  0  0  2  0  0  0  0  0  0
  162.2690  210.3250  150.1770 C   0  0  0  0  0  2  0  0  0  0  0  0
  161.0270  209.6920  150.7850 C   0  0  0  0  0  3  0  0  0  0  0  0
  1  5  1  0  0  0  0
  1 13  1  0  0  0  0
  2  9  1  0  0  0  0
  2 10  1  1  0  0  0
  4  1  2  0  0  0  0
  6  4  1  0  0  0  0
  6  8  1  0  0  0  0
  7  3  2  0  0  0  0
  8  5  2  0  0  0  0
 11  3  1  6  0  0  0
 11 18  1  0  0  0  0
 11 12  1  0  0  0  0
 12 17  1  0  0  0  0
 13  2  1  0  0  0  0
 14  4  1  0  0  0  0
 14 18  1  0  0  0  0
 15  7  1  0  0  0  0
 16 24  1  1  0  0  0
 16  7  1  0  0  0  0
 16 14  1  0  0  0  0
 17  9  1  0  0  0  0
 18 13  2  0  0  0  0
 20  8  1  0  0  0  0
 20 22  1  0  0  0  0
 21 22  1  0  0  0  0
 22 19  2  0  0  0  0
 23 24  1  0  0  0  0
 24 25  2  0  0  0  0
 26 27  1  0  0  0  0
 26 23  1  0  0  0  0
 28 30  1  0  0  0  0
 29 28  1  0  0  0  0
 29 30  1  0  0  0  0
 30  6  1  0  0  0  0
M  END
>  <MODEL>
3

>  <REMARK>
 VINA RESULT:      -5.1      2.619      7.060
  Name = 
  4 active torsions:
  status: ('A' for Active; 'I' for Inactive)
    1  A    between atoms: N_7  and  C_16
    2  A    between atoms: N_8  and  C_30
    3  A    between atoms: N_9  and  C_12
    4  A    between atoms: C_10  and  C_25
                            x       y       z     vdW  Elec       q    Type
                         _______ _______ _______ _____ _____    ______ ____

>  <TORSDO>
F 4

$$$$
=
 OpenBabel11052422003D

 30 34  0  0  1  0  0  0  0  0999 V2000
  160.7330  205.5820  150.5850 C   0  0  0  0  0  0  0  0  0  0  0  0
  160.1620  203.1350  151.2290 C   0  0  1  0  0  3  0  0  0  0  0  0
  162.3810  202.9690  147.3260 C   0  0  0  0  0  3  0  0  0  0  0  0
  161.2410  206.1660  149.5060 C   0  0  0  0  0  0  0  0  0  0  0  0
  160.9780  206.3500  151.7000 C   0  0  0  0  0  3  0  0  0  0  0  0
  161.8510  207.3250  149.7920 N   0  0  0  0  0  0  0  0  0  0  0  0
  162.8410  204.1500  146.8830 C   0  0  0  0  0  0  0  0  0  0  0  0
  161.6710  207.4430  151.1440 C   0  0  0  0  0  0  0  0  0  0  0  0
  161.3900  202.2680  151.5280 C   0  0  0  0  0  2  0  0  0  0  0  0
  159.6160  203.6150  152.4210 O   0  0  0  0  0  1  0  0  0  0  0  0
  161.1540  202.8440  148.1960 C   0  0  1  0  0  3  0  0  0  0  0  0
  161.2480  201.5850  149.0690 C   0  0  0  0  0  2  0  0  0  0  0  0
  160.4710  204.2600  150.2860 C   0  0  0  0  0  0  0  0  0  0  0  0
  161.4000  205.3060  148.4860 N   0  0  0  0  0  0  0  0  0  0  0  0
  163.9630  204.1740  146.0650 O   0  0  0  0  0  1  0  0  0  0  0  0
  162.1700  205.4530  147.2500 C   0  0  2  0  0  3  0  0  0  0  0  0
  162.1560  201.7930  150.2840 C   0  0  0  0  0  2  0  0  0  0  0  0
  160.9220  204.1260  148.9590 C   0  0  0  0  0  0  0  0  0  0  0  0
  160.1590  209.6030  152.3670 O   0  0  0  0  0  0  0  0  0  0  0  0
  162.1870  208.5120  151.9450 N   0  0  0  0  0  2  0  0  0  0  0  0
  162.0190  210.3920  153.6130 C   0  0  0  0  0  1  0  0  0  0  0  0
  161.3860  209.4800  152.6270 C   0  0  0  0  0  0  0  0  0  0  0  0
  161.6810  205.6400  144.7810 N   0  0  0  0  0  2  0  0  0  0  0  0
  161.2890  205.9080  146.1270 C   0  0  0  0  0  0  0  0  0  0  0  0
  160.1920  206.4820  146.3710 O   0  0  0  0  0  0  0  0  0  0  0  0
  160.8630  206.0190  143.6400 C   0  0  0  0  0  2  0  0  0  0  0  0
  161.6370  206.0320  142.4940 F   0  0  0  0  0  0  0  0  0  0  0  0
  162.2210  209.6650  149.1600 C   0  0  0  0  0  2  0  0  0  0  0  0
  161.5690  208.9600  147.9980 C   0  0  0  0  0  2  0  0  0  0  0  0
  162.5640  208.2100  148.8700 C   0  0  0  0  0  3  0  0  0  0  0  0
  1  5  1  0  0  0  0
  2  9  1  0  0  0  0
  2 10  1  1  0  0  0
  4  6  1  0  0  0  0
  4  1  2  0  0  0  0
  6  8  1  0  0  0  0
  7 16  1  0  0  0  0
  7  3  2  0  0  0  0
  8  5  2  0  0  0  0
  8 20  1  0  0  0  0
 11  3  1  1  0  0  0
 11 18  1  0  0  0  0
 11 12  1  0  0  0  0
 12 17  1  0  0  0  0
 13  1  1  0  0  0  0
 13  2  1  0  0  0  0
 14 18  1  0  0  0  0
 14  4  1  0  0  0  0
 15  7  1  0  0  0  0
 16 24  1  6  0  0  0
 16 14  1  0  0  0  0
 17  9  1  0  0  0  0
 18 13  2  0  0  0  0
 19 22  2  0  0  0  0
 20 22  1  0  0  0  0
 22 21  1  0  0  0  0
 23 24  1  0  0  0  0
 24 25  2  0  0  0  0
 26 23  1  0  0  0  0
 27 26  1  0  0  0  0
 29 30  1  0  0  0  0
 29 28  1  0  0  0  0
 30 28  1  0  0  0  0
 30  6  1  0  0  0  0
M  END
>  <MODEL>
4

>  <REMARK>
 VINA RESULT:      -5.1      4.743      7.691
  Name = 
  4 active torsions:
  status: ('A' for Active; 'I' for Inactive)
    1  A    between atoms: N_7  and  C_16
    2  A    between atoms: N_8  and  C_30
    3  A    between atoms: N_9  and  C_12
    4  A    between atoms: C_10  and  C_25
                            x       y       z     vdW  Elec       q    Type
                         _______ _______ _______ _____ _____    ______ ____

>  <TORSDO>
F 4

$$$$
=
 OpenBabel11052422003D

 30 34  0  0  1  0  0  0  0  0999 V2000
  161.5170  207.5140  153.8520 C   0  0  0  0  0  0  0  0  0  0  0  0
  161.4860  208.5700  156.2220 C   0  0  1  0  0  3  0  0  0  0  0  0
  160.0830  211.7410  153.3640 C   0  0  0  0  0  3  0  0  0  0  0  0
  161.3470  207.9820  152.6210 C   0  0  0  0  0  0  0  0  0  0  0  0
  161.2050  206.1730  153.8960 C   0  0  0  0  0  3  0  0  0  0  0  0
  160.9200  207.0400  151.7700 N   0  0  0  0  0  0  0  0  0  0  0  0
  159.9460  211.3380  152.0910 C   0  0  0  0  0  0  0  0  0  0  0  0
  160.8510  205.9220  152.5570 C   0  0  0  0  0  0  0  0  0  0  0  0
  160.0840  208.9350  156.7200 C   0  0  0  0  0  2  0  0  0  0  0  0
  161.8680  207.3300  156.7380 O   0  0  0  0  0  1  0  0  0  0  0  0
  161.0700  211.1140  154.3180 C   0  0  1  0  0  3  0  0  0  0  0  0
  160.5750  211.2540  155.7640 C   0  0  0  0  0  2  0  0  0  0  0  0
  161.5820  208.5810  154.7240 C   0  0  0  0  0  0  0  0  0  0  0  0
  161.2340  209.3210  152.5960 N   0  0  0  0  0  0  0  0  0  0  0  0
  159.0300  211.9860  151.2730 O   0  0  0  0  0  1  0  0  0  0  0  0
  160.7620  210.1990  151.5250 C   0  0  2  0  0  3  0  0  0  0  0  0
  159.5020  210.2180  156.1090 C   0  0  0  0  0  2  0  0  0  0  0  0
  161.3830  209.7000  153.8920 C   0  0  0  0  0  0  0  0  0  0  0  0
  162.4890  203.7050  151.6350 O   0  0  0  0  0  0  0  0  0  0  0  0
  160.3950  204.6390  152.1120 N   0  0  0  0  0  2  0  0  0  0  0  0
  160.6590  202.1940  151.5660 C   0  0  0  0  0  1  0  0  0  0  0  0
  161.2490  203.5390  151.7860 C   0  0  0  0  0  0  0  0  0  0  0  0
  161.6680  211.3430  149.4660 N   0  0  0  0  0  2  0  0  0  0  0  0
  161.9150  210.7410  150.7360 C   0  0  0  0  0  0  0  0  0  0  0  0
  163.0830  210.7030  151.2090 O   0  0  0  0  0  0  0  0  0  0  0  0
  162.7300  211.9220  148.6570 C   0  0  0  0  0  2  0  0  0  0  0  0
  162.4550  213.2540  148.4080 F   0  0  0  0  0  0  0  0  0  0  0  0
  161.2240  206.1030  149.5250 C   0  0  0  0  0  2  0  0  0  0  0  0
  161.8360  207.4810  149.5480 C   0  0  0  0  0  2  0  0  0  0  0  0
  160.5780  207.2030  150.3560 C   0  0  0  0  0  3  0  0  0  0  0  0
  1  5  1  0  0  0  0
  1 13  1  0  0  0  0
  2  9  1  0  0  0  0
  2 10  1  6  0  0  0
  4  1  2  0  0  0  0
  6  8  1  0  0  0  0
  6  4  1  0  0  0  0
  7  3  2  0  0  0  0
  8  5  2  0  0  0  0
 11  3  1  6  0  0  0
 11 12  1  0  0  0  0
 12 17  1  0  0  0  0
 13  2  1  0  0  0  0
 14  4  1  0  0  0  0
 14 18  1  0  0  0  0
 15  7  1  0  0  0  0
 16 24  1  1  0  0  0
 16  7  1  0  0  0  0
 16 14  1  0  0  0  0
 17  9  1  0  0  0  0
 18 11  1  0  0  0  0
 18 13  2  0  0  0  0
 19 22  2  0  0  0  0
 20  8  1  0  0  0  0
 21 22  1  0  0  0  0
 22 20  1  0  0  0  0
 23 24  1  0  0  0  0
 24 25  2  0  0  0  0
 26 23  1  0  0  0  0
 27 26  1  0  0  0  0
 28 29  1  0  0  0  0
 28 30  1  0  0  0  0
 29 30  1  0  0  0  0
 30  6  1  0  0  0  0
M  END
>  <MODEL>
5

>  <REMARK>
 VINA RESULT:      -4.8      2.631      6.601
  Name = 
  4 active torsions:
  status: ('A' for Active; 'I' for Inactive)
    1  A    between atoms: N_7  and  C_16
    2  A    between atoms: N_8  and  C_30
    3  A    between atoms: N_9  and  C_12
    4  A    between atoms: C_10  and  C_25
                            x       y       z     vdW  Elec       q    Type
                         _______ _______ _______ _____ _____    ______ ____

>  <TORSDO>
F 4

$$$$
=
 OpenBabel11052422003D

 30 34  0  0  1  0  0  0  0  0999 V2000
  161.6080  210.2970  151.5520 C   0  0  0  0  0  0  0  0  0  0  0  0
  160.4400  211.8840  153.2390 C   0  0  1  0  0  3  0  0  0  0  0  0
  159.3730  213.3440  149.1260 C   0  0  0  0  0  3  0  0  0  0  0  0
  161.7770  210.3000  150.2350 C   0  0  0  0  0  0  0  0  0  0  0  0
  161.6730  209.0100  152.0360 C   0  0  0  0  0  3  0  0  0  0  0  0
  161.9560  209.0680  149.7400 N   0  0  0  0  0  0  0  0  0  0  0  0
  159.8200  212.5780  148.1180 C   0  0  0  0  0  0  0  0  0  0  0  0
  161.9090  208.2770  150.8570 C   0  0  0  0  0  0  0  0  0  0  0  0
  158.9100  211.8160  153.1980 C   0  0  0  0  0  2  0  0  0  0  0  0
  160.9260  211.0820  154.2730 O   0  0  0  0  0  1  0  0  0  0  0  0
  160.0770  213.4340  150.4580 C   0  0  1  0  0  3  0  0  0  0  0  0
  159.0730  213.7770  151.5670 C   0  0  0  0  0  2  0  0  0  0  0  0
  161.0650  211.5090  151.9280 C   0  0  0  0  0  0  0  0  0  0  0  0
  161.3270  211.4300  149.6640 N   0  0  0  0  0  0  0  0  0  0  0  0
  159.1250  212.5730  146.9150 O   0  0  0  0  0  1  0  0  0  0  0  0
  161.0590  211.7240  148.2560 C   0  0  2  0  0  3  0  0  0  0  0  0
  158.2680  212.5550  152.0150 C   0  0  0  0  0  2  0  0  0  0  0  0
  160.8890  212.1850  150.7050 C   0  0  0  0  0  0  0  0  0  0  0  0
  160.8840  206.4410  152.8630 O   0  0  0  0  0  0  0  0  0  0  0  0
  162.0070  206.8480  150.8490 N   0  0  0  0  0  2  0  0  0  0  0  0
  161.3560  204.5180  151.5520 C   0  0  0  0  0  1  0  0  0  0  0  0
  161.3780  205.9830  151.7980 C   0  0  0  0  0  0  0  0  0  0  0  0
  162.0870  212.9740  146.3200 N   0  0  0  0  0  2  0  0  0  0  0  0
  162.2290  212.4160  147.6260 C   0  0  0  0  0  0  0  0  0  0  0  0
  163.3110  212.5410  148.2610 O   0  0  0  0  0  0  0  0  0  0  0  0
  163.1660  213.6900  145.6560 C   0  0  0  0  0  2  0  0  0  0  0  0
  163.6230  212.9530  144.5790 F   0  0  0  0  0  0  0  0  0  0  0  0
  161.2320  207.4910  148.0080 C   0  0  0  0  0  2  0  0  0  0  0  0
  162.7050  207.2820  148.2500 C   0  0  0  0  0  2  0  0  0  0  0  0
  162.1200  208.6830  148.3370 C   0  0  0  0  0  3  0  0  0  0  0  0
  1 13  1  0  0  0  0
  1  5  1  0  0  0  0
  2 10  1  1  0  0  0
  4  1  2  0  0  0  0
  6  4  1  0  0  0  0
  6  8  1  0  0  0  0
  7 16  1  0  0  0  0
  7  3  2  0  0  0  0
  8  5  2  0  0  0  0
  9  2  1  0  0  0  0
 11  3  1  6  0  0  0
 11 18  1  0  0  0  0
 11 12  1  0  0  0  0
 12 17  1  0  0  0  0
 13  2  1  0  0  0  0
 14  4  1  0  0  0  0
 14 18  1  0  0  0  0
 15  7  1  0  0  0  0
 16 24  1  1  0  0  0
 16 14  1  0  0  0  0
 17  9  1  0  0  0  0
 18 13  2  0  0  0  0
 20  8  1  0  0  0  0
 20 22  1  0  0  0  0
 21 22  1  0  0  0  0
 22 19  2  0  0  0  0
 23 24  1  0  0  0  0
 24 25  2  0  0  0  0
 26 23  1  0  0  0  0
 27 26  1  0  0  0  0
 28 29  1  0  0  0  0
 28 30  1  0  0  0  0
 29 30  1  0  0  0  0
 30  6  1  0  0  0  0
M  END
>  <MODEL>
6

>  <REMARK>
 VINA RESULT:      -4.8      3.401      7.519
  Name = 
  4 active torsions:
  status: ('A' for Active; 'I' for Inactive)
    1  A    between atoms: N_7  and  C_16
    2  A    between atoms: N_8  and  C_30
    3  A    between atoms: N_9  and  C_12
    4  A    between atoms: C_10  and  C_25
                            x       y       z     vdW  Elec       q    Type
                         _______ _______ _______ _____ _____    ______ ____

>  <TORSDO>
F 4

$$$$
=
 OpenBabel11052422003D

 30 34  0  0  1  0  0  0  0  0999 V2000
  161.1780  210.4340  153.2680 C   0  0  0  0  0  0  0  0  0  0  0  0
  160.1770  211.3180  155.4910 C   0  0  1  0  0  3  0  0  0  0  0  0
  157.9340  213.3340  152.1610 C   0  0  0  0  0  3  0  0  0  0  0  0
  161.0310  210.7540  151.9870 C   0  0  0  0  0  0  0  0  0  0  0  0
  161.5820  209.1230  153.3850 C   0  0  0  0  0  3  0  0  0  0  0  0
  161.3030  209.7290  151.1690 N   0  0  0  0  0  0  0  0  0  0  0  0
  158.2600  212.9220  150.9250 C   0  0  0  0  0  0  0  0  0  0  0  0
  161.6600  208.7300  152.0350 C   0  0  0  0  0  0  0  0  0  0  0  0
  158.7160  210.9130  155.7190 C   0  0  0  0  0  2  0  0  0  0  0  0
  161.0250  210.4470  156.1770 O   0  0  0  0  0  1  0  0  0  0  0  0
  158.9030  213.2980  153.3170 C   0  0  1  0  0  3  0  0  0  0  0  0
  158.1440  213.1600  154.6430 C   0  0  0  0  0  2  0  0  0  0  0  0
  160.5330  211.3820  154.0350 C   0  0  0  0  0  0  0  0  0  0  0  0
  160.2670  211.8470  151.8190 N   0  0  0  0  0  0  0  0  0  0  0  0
  157.3150  213.0140  149.9120 O   0  0  0  0  0  1  0  0  0  0  0  0
  159.6280  212.3630  150.6080 C   0  0  2  0  0  3  0  0  0  0  0  0
  157.6940  211.7200  154.9040 C   0  0  0  0  0  2  0  0  0  0  0  0
  159.9580  212.2440  153.0810 C   0  0  0  0  0  0  0  0  0  0  0  0
  160.7790  206.2560  153.2810 O   0  0  0  0  0  0  0  0  0  0  0  0
  162.0050  207.3960  151.6440 N   0  0  0  0  0  2  0  0  0  0  0  0
  161.7030  204.8960  151.5680 C   0  0  0  0  0  1  0  0  0  0  0  0
  161.4460  206.2090  152.2130 C   0  0  0  0  0  0  0  0  0  0  0  0
  160.8710  213.2680  148.6080 N   0  0  0  0  0  2  0  0  0  0  0  0
  160.4760  213.4210  149.9710 C   0  0  0  0  0  0  0  0  0  0  0  0
  160.8000  214.4530  150.6190 O   0  0  0  0  0  0  0  0  0  0  0  0
  161.6660  214.2680  147.9090 C   0  0  0  0  0  2  0  0  0  0  0  0
  163.0060  214.0840  148.1970 F   0  0  0  0  0  0  0  0  0  0  0  0
  162.3280  208.8680  149.1150 C   0  0  0  0  0  2  0  0  0  0  0  0
  162.4120  210.3730  149.0890 C   0  0  0  0  0  2  0  0  0  0  0  0
  161.1990  209.6980  149.7090 C   0  0  0  0  0  3  0  0  0  0  0  0
  1  5  1  0  0  0  0
  1 13  1  0  0  0  0
  2  9  1  0  0  0  0
  2 10  1  1  0  0  0
  4  1  2  0  0  0  0
  6  4  1  0  0  0  0
  6  8  1  0  0  0  0
  7  3  2  0  0  0  0
  8  5  2  0  0  0  0
 11  3  1  6  0  0  0
 11 12  1  0  0  0  0
 12 17  1  0  0  0  0
 13  2  1  0  0  0  0
 14  4  1  0  0  0  0
 14 18  1  0  0  0  0
 15  7  1  0  0  0  0
 16 24  1  1  0  0  0
 16  7  1  0  0  0  0
 16 14  1  0  0  0  0
 17  9  1  0  0  0  0
 18 11  1  0  0  0  0
 18 13  2  0  0  0  0
 20  8  1  0  0  0  0
 20 22  1  0  0  0  0
 21 22  1  0  0  0  0
 22 19  2  0  0  0  0
 23 24  1  0  0  0  0
 24 25  2  0  0  0  0
 26 27  1  0  0  0  0
 26 23  1  0  0  0  0
 28 30  1  0  0  0  0
 29 28  1  0  0  0  0
 29 30  1  0  0  0  0
 30  6  1  0  0  0  0
M  END
>  <MODEL>
7

>  <REMARK>
 VINA RESULT:      -4.4      2.671      6.798
  Name = 
  4 active torsions:
  status: ('A' for Active; 'I' for Inactive)
    1  A    between atoms: N_7  and  C_16
    2  A    between atoms: N_8  and  C_30
    3  A    between atoms: N_9  and  C_12
    4  A    between atoms: C_10  and  C_25
                            x       y       z     vdW  Elec       q    Type
                         _______ _______ _______ _____ _____    ______ ____

>  <TORSDO>
F 4

$$$$
=
 OpenBabel11052422003D

 30 34  0  0  1  0  0  0  0  0999 V2000
  161.8880  205.3090  147.7430 C   0  0  0  0  0  0  0  0  0  0  0  0
  162.0450  204.6450  145.2400 C   0  0  1  0  0  3  0  0  0  0  0  0
  159.6900  201.4190  147.2990 C   0  0  0  0  0  3  0  0  0  0  0  0
  161.4510  204.7050  148.8410 C   0  0  0  0  0  0  0  0  0  0  0  0
  161.8230  206.6760  147.8960 C   0  0  0  0  0  3  0  0  0  0  0  0
  161.0650  205.5740  149.7850 N   0  0  0  0  0  0  0  0  0  0  0  0
  159.4280  201.6470  148.5950 C   0  0  0  0  0  0  0  0  0  0  0  0
  161.3130  206.7890  149.2030 C   0  0  0  0  0  0  0  0  0  0  0  0
  160.6960  204.6380  144.5130 C   0  0  0  0  0  2  0  0  0  0  0  0
  162.7110  205.8480  145.0000 O   0  0  0  0  0  1  0  0  0  0  0  0
  160.9070  201.9760  146.6000 C   0  0  1  0  0  3  0  0  0  0  0  0
  160.6250  202.1530  145.1020 C   0  0  0  0  0  2  0  0  0  0  0  0
  161.9040  204.3910  146.7120 C   0  0  0  0  0  0  0  0  0  0  0  0
  161.1070  203.4250  148.6170 N   0  0  0  0  0  0  0  0  0  0  0  0
  158.2980  201.0750  149.1660 O   0  0  0  0  0  1  0  0  0  0  0  0
  160.3300  202.5070  149.4500 C   0  0  2  0  0  3  0  0  0  0  0  0
  159.8140  203.4170  144.8120 C   0  0  0  0  0  2  0  0  0  0  0  0
  161.3880  203.2220  147.3030 C   0  0  0  0  0  0  0  0  0  0  0  0
  163.0070  208.2940  151.0230 O   0  0  0  0  0  0  0  0  0  0  0  0
  161.0220  208.0560  149.8050 N   0  0  0  0  0  2  0  0  0  0  0  0
  161.6090  210.2120  150.9680 C   0  0  0  0  0  1  0  0  0  0  0  0
  161.9410  208.8130  150.5970 C   0  0  0  0  0  0  0  0  0  0  0  0
  161.7500  202.1400  151.5040 N   0  0  0  0  0  2  0  0  0  0  0  0
  161.2350  201.6390  150.2700 C   0  0  0  0  0  0  0  0  0  0  0  0
  161.5030  200.4650  149.8950 O   0  0  0  0  0  0  0  0  0  0  0  0
  162.6070  201.3460  152.3710 C   0  0  0  0  0  2  0  0  0  0  0  0
  163.9320  201.6720  152.1450 F   0  0  0  0  0  0  0  0  0  0  0  0
  160.9660  206.2790  152.1300 C   0  0  0  0  0  2  0  0  0  0  0  0
  161.5860  204.9060  152.0760 C   0  0  0  0  0  2  0  0  0  0  0  0
  160.4850  205.2740  151.0940 C   0  0  0  0  0  3  0  0  0  0  0  0
  1  5  1  0  0  0  0
  1  4  2  0  0  0  0
  2 10  1  1  0  0  0
  2 13  1  0  0  0  0
  3  7  2  0  0  0  0
  4  6  1  0  0  0  0
  5  8  2  0  0  0  0
  6 30  1  0  0  0  0
  7 15  1  0  0  0  0
  7 16  1  0  0  0  0
  8  6  1  0  0  0  0
  8 20  1  0  0  0  0
  9 17  1  0  0  0  0
  9  2  1  0  0  0  0
 11 12  1  6  0  0  0
 11  3  1  0  0  0  0
 11 18  1  0  0  0  0
 13 18  2  0  0  0  0
 13  1  1  0  0  0  0
 14  4  1  0  0  0  0
 14 16  1  0  0  0  0
 16 24  1  6  0  0  0
 17 12  1  0  0  0  0
 18 14  1  0  0  0  0
 20 22  1  0  0  0  0
 22 21  1  0  0  0  0
 22 19  2  0  0  0  0
 23 26  1  0  0  0  0
 24 23  1  0  0  0  0
 25 24  2  0  0  0  0
 27 26  1  0  0  0  0
 29 28  1  0  0  0  0
 30 29  1  0  0  0  0
 30 28  1  0  0  0  0
M  END
>  <MODEL>
8

>  <REMARK>
 VINA RESULT:      -4.2      5.033      7.427
  Name = 
  4 active torsions:
  status: ('A' for Active; 'I' for Inactive)
    1  A    between atoms: N_7  and  C_16
    2  A    between atoms: N_8  and  C_30
    3  A    between atoms: N_9  and  C_12
    4  A    between atoms: C_10  and  C_25
                            x       y       z     vdW  Elec       q    Type
                         _______ _______ _______ _____ _____    ______ ____

>  <TORSDO>
F 4

$$$$
=
 OpenBabel11052422003D

 30 34  0  0  1  0  0  0  0  0999 V2000
  161.8020  204.7580  148.5170 C   0  0  0  0  0  0  0  0  0  0  0  0
  162.2160  206.3620  146.5200 C   0  0  1  0  0  3  0  0  0  0  0  0
  160.0660  202.7720  144.8830 C   0  0  0  0  0  3  0  0  0  0  0  0
  161.3500  203.5150  148.6350 C   0  0  0  0  0  0  0  0  0  0  0  0
  161.5810  205.4560  149.6830 C   0  0  0  0  0  3  0  0  0  0  0  0
  160.8040  203.2810  149.8360 N   0  0  0  0  0  0  0  0  0  0  0  0
  159.6840  201.8700  145.8020 C   0  0  0  0  0  0  0  0  0  0  0  0
  160.9650  204.4760  150.4850 C   0  0  0  0  0  0  0  0  0  0  0  0
  160.9340  206.9340  145.9070 C   0  0  0  0  0  2  0  0  0  0  0  0
  162.7670  207.2780  147.4180 O   0  0  0  0  0  1  0  0  0  0  0  0
  161.2660  203.6680  145.0660 C   0  0  1  0  0  3  0  0  0  0  0  0
  161.0810  204.9720  144.2780 C   0  0  0  0  0  2  0  0  0  0  0  0
  161.9910  205.0320  147.1770 C   0  0  0  0  0  0  0  0  0  0  0  0
  161.1600  202.9250  147.4420 N   0  0  0  0  0  0  0  0  0  0  0  0
  158.5810  201.0670  145.5420 O   0  0  0  0  0  1  0  0  0  0  0  0
  160.4240  201.7060  147.1090 C   0  0  2  0  0  3  0  0  0  0  0  0
  160.1650  205.9600  145.0030 C   0  0  0  0  0  2  0  0  0  0  0  0
  161.5590  203.8550  146.5360 C   0  0  0  0  0  0  0  0  0  0  0  0
  162.4190  205.8290  152.6080 O   0  0  0  0  0  0  0  0  0  0  0  0
  160.4980  204.7540  151.8100 N   0  0  0  0  0  2  0  0  0  0  0  0
  160.5200  205.9480  154.0290 C   0  0  0  0  0  1  0  0  0  0  0  0
  161.2060  205.5320  152.7790 C   0  0  0  0  0  0  0  0  0  0  0  0
  161.1450  199.5510  146.0110 N   0  0  0  0  0  2  0  0  0  0  0  0
  161.3510  200.5320  147.0270 C   0  0  0  0  0  0  0  0  0  0  0  0
  162.3280  200.4360  147.8180 O   0  0  0  0  0  0  0  0  0  0  0  0
  162.0220  198.4020  145.8450 C   0  0  0  0  0  2  0  0  0  0  0  0
  161.9560  197.9480  144.5410 F   0  0  0  0  0  0  0  0  0  0  0  0
  160.6440  201.7000  151.7020 C   0  0  0  0  0  2  0  0  0  0  0  0
  161.2080  200.9680  150.5110 C   0  0  0  0  0  2  0  0  0  0  0  0
  160.1610  202.0520  150.3020 C   0  0  0  0  0  3  0  0  0  0  0  0
  1  4  2  0  0  0  0
  1  5  1  0  0  0  0
  2 13  1  0  0  0  0
  2 10  1  1  0  0  0
  3 11  1  0  0  0  0
  3  7  2  0  0  0  0
  4  6  1  0  0  0  0
  5  8  2  0  0  0  0
  6 30  1  0  0  0  0
  6  8  1  0  0  0  0
  7 16  1  0  0  0  0
  8 20  1  0  0  0  0
  9  2  1  0  0  0  0
 11 12  1  1  0  0  0
 11 18  1  0  0  0  0
 12 17  1  0  0  0  0
 13  1  1  0  0  0  0
 14  4  1  0  0  0  0
 15  7  1  0  0  0  0
 16 24  1  6  0  0  0
 16 14  1  0  0  0  0
 17  9  1  0  0  0  0
 18 13  2  0  0  0  0
 18 14  1  0  0  0  0
 19 22  2  0  0  0  0
 20 22  1  0  0  0  0
 22 21  1  0  0  0  0
 23 24  1  0  0  0  0
 24 25  2  0  0  0  0
 26 23  1  0  0  0  0
 27 26  1  0  0  0  0
 29 28  1  0  0  0  0
 30 29  1  0  0  0  0
 30 28  1  0  0  0  0
M  END
>  <MODEL>
9

>  <REMARK>
 VINA RESULT:      -4.0      6.469      9.793
  Name = 
  4 active torsions:
  status: ('A' for Active; 'I' for Inactive)
    1  A    between atoms: N_7  and  C_16
    2  A    between atoms: N_8  and  C_30
    3  A    between atoms: N_9  and  C_12
    4  A    between atoms: C_10  and  C_25
                            x       y       z     vdW  Elec       q    Type
                         _______ _______ _______ _____ _____    ______ ____

>  <TORSDO>
F 4

$$$$
