=
 OpenBabel11052422083D

 25 28  0  0  1  0  0  0  0  0999 V2000
  161.3350  209.2940  153.0130 C   0  0  2  0  0  3  0  0  0  0  0  0
  161.3240  208.2530  151.9540 C   0  0  0  0  0  0  0  0  0  0  0  0
  161.1970  207.1080  153.9410 N   0  0  0  0  0  0  0  0  0  0  0  0
  161.1720  205.8900  151.7240 C   0  0  0  0  0  0  0  0  0  0  0  0
  161.0490  204.3910  152.3640 S   0  0  0  0  0  0  0  0  0  0  0  0
  161.3700  208.4150  150.6090 N   0  0  0  0  0  0  0  0  0  0  0  0
  161.2770  208.3740  154.2280 C   0  0  0  0  0  0  0  0  0  0  0  0
  161.2200  206.0580  150.3710 N   0  0  0  0  0  2  0  0  0  0  0  0
  161.3260  207.3050  149.8130 C   0  0  0  0  0  0  0  0  0  0  0  0
  161.2230  207.0240  152.5270 C   0  0  0  0  0  0  0  0  0  0  0  0
  160.1050  210.2060  152.8560 C   0  0  2  0  0  3  0  0  0  0  0  0
  157.9570  212.4620  154.4650 O   0  0  0  0  0  1  0  0  0  0  0  0
  160.4250  211.4700  152.0880 C   0  0  0  0  0  2  0  0  0  0  0  0
  159.4820  212.5150  152.6380 C   0  0  0  0  0  2  0  0  0  0  0  0
  159.2550  212.1290  154.0850 C   0  0  2  0  0  3  0  0  0  0  0  0
  159.4510  210.6280  154.1670 C   0  0  0  0  0  2  0  0  0  0  0  0
  161.3350  208.8050  155.5520 O   0  0  0  0  0  0  0  0  0  0  0  0
  161.9950  208.1060  156.4830 O   0  0  0  0  0  1  0  0  0  0  0  0
  161.3460  207.4540  148.3330 C   0  0  0  0  0  2  0  0  0  0  0  0
  160.8390  206.1820  147.6810 C   0  0  2  0  0  3  0  0  0  0  0  0
  161.9000  205.6010  146.8610 C   0  0  2  0  0  3  0  0  0  0  0  0
  160.8120  206.3610  146.2240 N   0  0  0  0  0  2  0  0  0  0  0  0
  161.6700  204.1330  146.6710 C   0  0  0  0  0  0  0  0  0  0  0  0
  161.3850  203.2520  147.8410 C   0  0  0  0  0  1  0  0  0  0  0  0
  161.7560  203.6400  145.5570 O   0  0  0  0  0  0  0  0  0  0  0  0
  1  2  1  6  0  0  0
  1  7  1  0  0  0  0
  2 10  2  0  0  0  0
  3  7  2  0  0  0  0
  4  5  2  0  0  0  0
  4 10  1  0  0  0  0
  6  2  1  0  0  0  0
  7 17  1  0  0  0  0
  8  4  1  0  0  0  0
  9  8  1  0  0  0  0
  9  6  2  0  0  0  0
 10  3  1  0  0  0  0
 11 13  1  1  0  0  0
 11  1  1  0  0  0  0
 11 16  1  0  0  0  0
 13 14  1  0  0  0  0
 14 15  1  0  0  0  0
 15 16  1  0  0  0  0
 15 12  1  6  0  0  0
 17 18  1  0  0  0  0
 19  9  1  0  0  0  0
 20 19  1  1  0  0  0
 21 23  1  6  0  0  0
 21 20  1  0  0  0  0
 22 21  1  0  0  0  0
 22 20  1  0  0  0  0
 23 24  1  0  0  0  0
 25 23  2  0  0  0  0
M  END
>  <MODEL>
1

>  <REMARK>
 VINA RESULT:      -7.5      0.000      0.000
  Name = 
  5 active torsions:
  status: ('A' for Active; 'I' for Inactive)
    1  A    between atoms: C_1  and  C_5
    2  A    between atoms: C_2  and  C_21
    3  A    between atoms: O_4  and  C_18
    4  A    between atoms: C_6  and  C_15
    5  A    between atoms: C_6  and  C_23
                            x       y       z     vdW  Elec       q    Type
                         _______ _______ _______ _____ _____    ______ ____

>  <TORSDO>
F 5

$$$$
=
 OpenBabel11052422083D

 25 28  0  0  1  0  0  0  0  0999 V2000
  160.4870  209.3530  153.8130 C   0  0  2  0  0  3  0  0  0  0  0  0
  160.8260  208.2380  152.8930 C   0  0  0  0  0  0  0  0  0  0  0  0
  161.1420  210.1590  151.6740 N   0  0  0  0  0  0  0  0  0  0  0  0
  161.6040  207.8830  150.6720 C   0  0  0  0  0  0  0  0  0  0  0  0
  162.0800  208.4410  149.2110 S   0  0  0  0  0  0  0  0  0  0  0  0
  160.8110  206.9050  153.1370 N   0  0  0  0  0  0  0  0  0  0  0  0
  160.7190  210.5130  152.8510 C   0  0  0  0  0  0  0  0  0  0  0  0
  161.5850  206.5410  150.9220 N   0  0  0  0  0  2  0  0  0  0  0  0
  161.1870  206.0510  152.1380 C   0  0  0  0  0  0  0  0  0  0  0  0
  161.2140  208.7440  151.6920 C   0  0  0  0  0  0  0  0  0  0  0  0
  161.4420  209.3360  155.0200 C   0  0  2  0  0  3  0  0  0  0  0  0
  163.7960  211.1650  156.8660 O   0  0  0  0  0  1  0  0  0  0  0  0
  160.7050  209.4670  156.3350 C   0  0  0  0  0  2  0  0  0  0  0  0
  161.6690  210.1720  157.2600 C   0  0  0  0  0  2  0  0  0  0  0  0
  162.4990  211.0690  156.3670 C   0  0  2  0  0  3  0  0  0  0  0  0
  162.5190  210.4160  154.9980 C   0  0  0  0  0  2  0  0  0  0  0  0
  160.4790  211.8530  153.1520 O   0  0  0  0  0  0  0  0  0  0  0  0
  159.4710  212.2150  153.9550 O   0  0  0  0  0  1  0  0  0  0  0  0
  161.2080  204.5850  152.3870 C   0  0  0  0  0  2  0  0  0  0  0  0
  161.6640  203.8570  151.1380 C   0  0  2  0  0  3  0  0  0  0  0  0
  160.5090  203.2500  150.4800 C   0  0  2  0  0  3  0  0  0  0  0  0
  161.4120  202.4190  151.2940 N   0  0  0  0  0  2  0  0  0  0  0  0
  160.7910  203.0290  149.0250 C   0  0  0  0  0  0  0  0  0  0  0  0
  161.4100  204.1060  148.2010 C   0  0  0  0  0  1  0  0  0  0  0  0
  160.4760  201.9740  148.4960 O   0  0  0  0  0  0  0  0  0  0  0  0
  1  7  1  6  0  0  0
  1 11  1  0  0  0  0
  2  6  1  0  0  0  0
  2  1  1  0  0  0  0
  3 10  1  0  0  0  0
  3  7  2  0  0  0  0
  4  8  1  0  0  0  0
  4 10  1  0  0  0  0
  5  4  2  0  0  0  0
  7 17  1  0  0  0  0
  8  9  1  0  0  0  0
  9 19  1  0  0  0  0
  9  6  2  0  0  0  0
 10  2  2  0  0  0  0
 11 16  1  6  0  0  0
 11 13  1  0  0  0  0
 13 14  1  0  0  0  0
 15 12  1  1  0  0  0
 15 14  1  0  0  0  0
 16 15  1  0  0  0  0
 17 18  1  0  0  0  0
 20 22  1  0  0  0  0
 20 19  1  1  0  0  0
 21 23  1  6  0  0  0
 21 20  1  0  0  0  0
 21 22  1  0  0  0  0
 24 23  1  0  0  0  0
 25 23  2  0  0  0  0
M  END
>  <MODEL>
2

>  <REMARK>
 VINA RESULT:      -7.4      2.415      3.888
  Name = 
  5 active torsions:
  status: ('A' for Active; 'I' for Inactive)
    1  A    between atoms: C_1  and  C_5
    2  A    between atoms: C_2  and  C_21
    3  A    between atoms: O_4  and  C_18
    4  A    between atoms: C_6  and  C_15
    5  A    between atoms: C_6  and  C_23
                            x       y       z     vdW  Elec       q    Type
                         _______ _______ _______ _____ _____    ______ ____

>  <TORSDO>
F 5

$$$$
=
 OpenBabel11052422083D

 25 28  0  0  1  0  0  0  0  0999 V2000
  162.3840  208.4780  149.9130 C   0  0  2  0  0  3  0  0  0  0  0  0
  161.9070  207.7950  151.1420 C   0  0  0  0  0  0  0  0  0  0  0  0
  161.5610  210.0360  151.5090 N   0  0  0  0  0  0  0  0  0  0  0  0
  160.9020  208.3100  153.2370 C   0  0  0  0  0  0  0  0  0  0  0  0
  160.3120  209.3820  154.3210 S   0  0  0  0  0  0  0  0  0  0  0  0
  161.8850  206.4690  151.4200 N   0  0  0  0  0  0  0  0  0  0  0  0
  162.1130  209.9170  150.3380 C   0  0  0  0  0  0  0  0  0  0  0  0
  160.8840  206.9740  153.5120 N   0  0  0  0  0  2  0  0  0  0  0  0
  161.3760  206.0580  152.6190 C   0  0  0  0  0  0  0  0  0  0  0  0
  161.4270  208.7200  152.0160 C   0  0  0  0  0  0  0  0  0  0  0  0
  161.5520  208.0110  148.7050 C   0  0  2  0  0  3  0  0  0  0  0  0
  161.5480  206.1020  145.7640 O   0  0  0  0  0  1  0  0  0  0  0  0
  160.5440  206.9470  149.0810 C   0  0  0  0  0  2  0  0  0  0  0  0
  160.3850  206.0980  147.8410 C   0  0  0  0  0  2  0  0  0  0  0  0
  161.7280  206.1490  147.1450 C   0  0  2  0  0  3  0  0  0  0  0  0
  162.3680  207.4660  147.5380 C   0  0  0  0  0  2  0  0  0  0  0  0
  162.4410  211.0410  149.5830 O   0  0  0  0  0  0  0  0  0  0  0  0
  161.9650  211.2110  148.3450 O   0  0  0  0  0  1  0  0  0  0  0  0
  161.3130  204.6060  152.9380 C   0  0  0  0  0  2  0  0  0  0  0  0
  161.7020  203.7930  151.7190 C   0  0  2  0  0  3  0  0  0  0  0  0
  160.5180  203.1290  151.1790 C   0  0  2  0  0  3  0  0  0  0  0  0
  161.4800  202.3680  151.9940 N   0  0  0  0  0  2  0  0  0  0  0  0
  160.7140  202.8050  149.7300 C   0  0  0  0  0  0  0  0  0  0  0  0
  159.9670  201.6790  149.0980 C   0  0  0  0  0  1  0  0  0  0  0  0
  161.5200  203.4370  149.0650 O   0  0  0  0  0  0  0  0  0  0  0  0
  1  7  1  1  0  0  0
  1  2  1  0  0  0  0
  2  6  1  0  0  0  0
  2 10  2  0  0  0  0
  3 10  1  0  0  0  0
  4  8  1  0  0  0  0
  4  5  2  0  0  0  0
  6  9  2  0  0  0  0
  7  3  2  0  0  0  0
  9 19  1  0  0  0  0
  9  8  1  0  0  0  0
 10  4  1  0  0  0  0
 11 16  1  6  0  0  0
 11 13  1  0  0  0  0
 11  1  1  0  0  0  0
 14 13  1  0  0  0  0
 15 12  1  6  0  0  0
 15 16  1  0  0  0  0
 15 14  1  0  0  0  0
 17  7  1  0  0  0  0
 18 17  1  0  0  0  0
 20 22  1  0  0  0  0
 20 19  1  1  0  0  0
 21 23  1  6  0  0  0
 21 20  1  0  0  0  0
 21 22  1  0  0  0  0
 24 23  1  0  0  0  0
 25 23  2  0  0  0  0
M  END
>  <MODEL>
3

>  <REMARK>
 VINA RESULT:      -7.2      3.384      5.614
  Name = 
  5 active torsions:
  status: ('A' for Active; 'I' for Inactive)
    1  A    between atoms: C_1  and  C_5
    2  A    between atoms: C_2  and  C_21
    3  A    between atoms: O_4  and  C_18
    4  A    between atoms: C_6  and  C_15
    5  A    between atoms: C_6  and  C_23
                            x       y       z     vdW  Elec       q    Type
                         _______ _______ _______ _____ _____    ______ ____

>  <TORSDO>
F 5

$$$$
=
 OpenBabel11052422083D

 25 28  0  0  1  0  0  0  0  0999 V2000
  161.8490  206.8820  152.0150 C   0  0  2  0  0  3  0  0  0  0  0  0
  161.8370  207.6780  150.7620 C   0  0  0  0  0  0  0  0  0  0  0  0
  161.1820  205.5630  150.1520 N   0  0  0  0  0  0  0  0  0  0  0  0
  161.3210  207.4310  148.4530 C   0  0  0  0  0  0  0  0  0  0  0  0
  160.8350  206.5290  147.1790 S   0  0  0  0  0  0  0  0  0  0  0  0
  162.1370  208.9890  150.5900 N   0  0  0  0  0  0  0  0  0  0  0  0
  161.4290  205.5380  151.4280 C   0  0  0  0  0  0  0  0  0  0  0  0
  161.6250  208.7510  148.2840 N   0  0  0  0  0  2  0  0  0  0  0  0
  162.0360  209.5250  149.3370 C   0  0  0  0  0  0  0  0  0  0  0  0
  161.4310  206.8920  149.7300 C   0  0  0  0  0  0  0  0  0  0  0  0
  160.8390  207.4740  153.0150 C   0  0  2  0  0  3  0  0  0  0  0  0
  159.7770  207.5320  156.3560 O   0  0  0  0  0  1  0  0  0  0  0  0
  161.1600  208.9090  153.3700 C   0  0  0  0  0  2  0  0  0  0  0  0
  160.6580  209.0880  154.7840 C   0  0  0  0  0  2  0  0  0  0  0  0
  160.8050  207.7300  155.4370 C   0  0  2  0  0  3  0  0  0  0  0  0
  160.7090  206.7040  154.3240 C   0  0  0  0  0  2  0  0  0  0  0  0
  161.3370  204.3510  152.1530 O   0  0  0  0  0  0  0  0  0  0  0  0
  161.5770  203.1660  151.5790 O   0  0  0  0  0  1  0  0  0  0  0  0
  162.3310  210.9670  149.1240 C   0  0  0  0  0  2  0  0  0  0  0  0
  161.3010  211.5710  148.1900 C   0  0  2  0  0  3  0  0  0  0  0  0
  161.8730  212.7380  147.5230 C   0  0  2  0  0  3  0  0  0  0  0  0
  160.9510  212.9180  148.6570 N   0  0  0  0  0  2  0  0  0  0  0  0
  161.1550  213.0130  146.2380 C   0  0  0  0  0  0  0  0  0  0  0  0
  159.9690  212.1980  145.8430 C   0  0  0  0  0  1  0  0  0  0  0  0
  161.5630  213.8820  145.4840 O   0  0  0  0  0  0  0  0  0  0  0  0
  1  2  1  6  0  0  0
  1 11  1  0  0  0  0
  3  7  2  0  0  0  0
  4 10  1  0  0  0  0
  5  4  2  0  0  0  0
  6  2  1  0  0  0  0
  7  1  1  0  0  0  0
  7 17  1  0  0  0  0
  8  4  1  0  0  0  0
  8  9  1  0  0  0  0
  9  6  2  0  0  0  0
 10  3  1  0  0  0  0
 10  2  2  0  0  0  0
 11 13  1  1  0  0  0
 11 16  1  0  0  0  0
 13 14  1  0  0  0  0
 14 15  1  0  0  0  0
 15 12  1  1  0  0  0
 16 15  1  0  0  0  0
 18 17  1  0  0  0  0
 19  9  1  0  0  0  0
 20 22  1  0  0  0  0
 20 19  1  1  0  0  0
 21 23  1  6  0  0  0
 21 20  1  0  0  0  0
 21 22  1  0  0  0  0
 24 23  1  0  0  0  0
 25 23  2  0  0  0  0
M  END
>  <MODEL>
4

>  <REMARK>
 VINA RESULT:      -6.9      3.823      5.340
  Name = 
  5 active torsions:
  status: ('A' for Active; 'I' for Inactive)
    1  A    between atoms: C_1  and  C_5
    2  A    between atoms: C_2  and  C_21
    3  A    between atoms: O_4  and  C_18
    4  A    between atoms: C_6  and  C_15
    5  A    between atoms: C_6  and  C_23
                            x       y       z     vdW  Elec       q    Type
                         _______ _______ _______ _____ _____    ______ ____

>  <TORSDO>
F 5

$$$$
=
 OpenBabel11052422083D

 25 28  0  0  1  0  0  0  0  0999 V2000
  161.9910  206.1420  150.3830 C   0  0  2  0  0  3  0  0  0  0  0  0
  161.5350  206.9260  151.5590 C   0  0  0  0  0  0  0  0  0  0  0  0
  161.6760  208.4340  149.8310 N   0  0  0  0  0  0  0  0  0  0  0  0
  160.8970  209.1460  152.1300 C   0  0  0  0  0  0  0  0  0  0  0  0
  160.6550  210.7150  151.7410 S   0  0  0  0  0  0  0  0  0  0  0  0
  161.2880  206.4950  152.8200 N   0  0  0  0  0  0  0  0  0  0  0  0
  162.0550  207.2790  149.3690 C   0  0  0  0  0  0  0  0  0  0  0  0
  160.6520  208.7070  153.3980 N   0  0  0  0  0  2  0  0  0  0  0  0
  160.8500  207.3970  153.7470 C   0  0  0  0  0  0  0  0  0  0  0  0
  161.3480  208.2230  151.1930 C   0  0  0  0  0  0  0  0  0  0  0  0
  160.9500  205.0590  150.0480 C   0  0  2  0  0  3  0  0  0  0  0  0
  160.2610  202.2150  148.1160 O   0  0  0  0  0  1  0  0  0  0  0  0
  160.8350  204.0180  151.1400 C   0  0  0  0  0  2  0  0  0  0  0  0
  160.4460  202.7420  150.4300 C   0  0  0  0  0  2  0  0  0  0  0  0
  161.0780  202.8370  149.0580 C   0  0  2  0  0  3  0  0  0  0  0  0
  161.2010  204.3150  148.7410 C   0  0  0  0  0  2  0  0  0  0  0  0
  162.5070  207.1470  148.0570 O   0  0  0  0  0  0  0  0  0  0  0  0
  161.6530  206.9760  147.0410 O   0  0  0  0  0  1  0  0  0  0  0  0
  160.5430  206.9460  155.1320 C   0  0  0  0  0  2  0  0  0  0  0  0
  160.5280  208.1370  156.0700 C   0  0  2  0  0  3  0  0  0  0  0  0
  161.8800  208.6770  156.1920 C   0  0  2  0  0  3  0  0  0  0  0  0
  161.3290  207.8270  157.2610 N   0  0  0  0  0  2  0  0  0  0  0  0
  161.8340  210.1140  156.6130 C   0  0  0  0  0  0  0  0  0  0  0  0
  163.0650  210.7980  157.1050 C   0  0  0  0  0  1  0  0  0  0  0  0
  160.7760  210.7230  156.5940 O   0  0  0  0  0  0  0  0  0  0  0  0
  1  7  1  6  0  0  0
  1  2  1  0  0  0  0
  2  6  1  0  0  0  0
  3 10  1  0  0  0  0
  4  8  1  0  0  0  0
  5  4  2  0  0  0  0
  6  9  2  0  0  0  0
  7  3  2  0  0  0  0
  8  9  1  0  0  0  0
  9 19  1  0  0  0  0
 10  2  2  0  0  0  0
 10  4  1  0  0  0  0
 11 16  1  6  0  0  0
 11  1  1  0  0  0  0
 11 13  1  0  0  0  0
 14 13  1  0  0  0  0
 15 12  1  6  0  0  0
 15 14  1  0  0  0  0
 16 15  1  0  0  0  0
 17  7  1  0  0  0  0
 18 17  1  0  0  0  0
 20 19  1  6  0  0  0
 20 21  1  0  0  0  0
 20 22  1  0  0  0  0
 21 23  1  1  0  0  0
 21 22  1  0  0  0  0
 23 24  1  0  0  0  0
 25 23  2  0  0  0  0
M  END
>  <MODEL>
5

>  <REMARK>
 VINA RESULT:      -6.9      2.657      8.090
  Name = 
  5 active torsions:
  status: ('A' for Active; 'I' for Inactive)
    1  A    between atoms: C_1  and  C_5
    2  A    between atoms: C_2  and  C_21
    3  A    between atoms: O_4  and  C_18
    4  A    between atoms: C_6  and  C_15
    5  A    between atoms: C_6  and  C_23
                            x       y       z     vdW  Elec       q    Type
                         _______ _______ _______ _____ _____    ______ ____

>  <TORSDO>
F 5

$$$$
=
 OpenBabel11052422083D

 25 28  0  0  1  0  0  0  0  0999 V2000
  162.1100  207.1880  151.2940 C   0  0  2  0  0  3  0  0  0  0  0  0
  161.8410  206.3510  150.0980 C   0  0  0  0  0  0  0  0  0  0  0  0
  161.3240  205.0280  151.9030 N   0  0  0  0  0  0  0  0  0  0  0  0
  161.0300  204.1860  149.5360 C   0  0  0  0  0  0  0  0  0  0  0  0
  160.4640  202.7110  149.9570 S   0  0  0  0  0  0  0  0  0  0  0  0
  161.9780  206.6760  148.7900 N   0  0  0  0  0  0  0  0  0  0  0  0
  161.7500  206.1650  152.3670 C   0  0  0  0  0  0  0  0  0  0  0  0
  161.1720  204.5170  148.2200 N   0  0  0  0  0  2  0  0  0  0  0  0
  161.6470  205.7460  147.8450 C   0  0  0  0  0  0  0  0  0  0  0  0
  161.3740  205.1350  150.4920 C   0  0  0  0  0  0  0  0  0  0  0  0
  161.1970  208.4270  151.2760 C   0  0  2  0  0  3  0  0  0  0  0  0
  159.4430  210.7530  153.2280 O   0  0  0  0  0  1  0  0  0  0  0  0
  161.9530  209.6900  150.9260 C   0  0  0  0  0  2  0  0  0  0  0  0
  161.2250  210.8000  151.6490 C   0  0  0  0  0  2  0  0  0  0  0  0
  160.6620  210.1610  152.9010 C   0  0  2  0  0  3  0  0  0  0  0  0
  160.4540  208.6930  152.5800 C   0  0  0  0  0  2  0  0  0  0  0  0
  161.8830  206.3750  153.7380 O   0  0  0  0  0  0  0  0  0  0  0  0
  160.8280  206.2980  154.5590 O   0  0  0  0  0  1  0  0  0  0  0  0
  161.7600  206.0850  146.4010 C   0  0  0  0  0  2  0  0  0  0  0  0
  160.7600  205.2740  145.6010 C   0  0  2  0  0  3  0  0  0  0  0  0
  161.3840  204.0280  145.1620 C   0  0  2  0  0  3  0  0  0  0  0  0
  161.2330  205.1470  144.2170 N   0  0  0  0  0  2  0  0  0  0  0  0
  160.3430  202.9880  144.8860 C   0  0  0  0  0  0  0  0  0  0  0  0
  160.4560  201.6260  145.4840 C   0  0  0  0  0  1  0  0  0  0  0  0
  159.4130  203.2380  144.1350 O   0  0  0  0  0  0  0  0  0  0  0  0
  1  2  1  6  0  0  0
  1  7  1  0  0  0  0
  2 10  2  0  0  0  0
  3  7  2  0  0  0  0
  4  5  2  0  0  0  0
  4 10  1  0  0  0  0
  6  2  1  0  0  0  0
  7 17  1  0  0  0  0
  8  4  1  0  0  0  0
  9  8  1  0  0  0  0
  9  6  2  0  0  0  0
 10  3  1  0  0  0  0
 11 13  1  1  0  0  0
 11  1  1  0  0  0  0
 11 16  1  0  0  0  0
 13 14  1  0  0  0  0
 14 15  1  0  0  0  0
 15 12  1  6  0  0  0
 16 15  1  0  0  0  0
 17 18  1  0  0  0  0
 19  9  1  0  0  0  0
 20 19  1  1  0  0  0
 21 23  1  6  0  0  0
 21 20  1  0  0  0  0
 22 21  1  0  0  0  0
 22 20  1  0  0  0  0
 23 24  1  0  0  0  0
 25 23  2  0  0  0  0
M  END
>  <MODEL>
6

>  <REMARK>
 VINA RESULT:      -6.9      2.017      2.697
  Name = 
  5 active torsions:
  status: ('A' for Active; 'I' for Inactive)
    1  A    between atoms: C_1  and  C_5
    2  A    between atoms: C_2  and  C_21
    3  A    between atoms: O_4  and  C_18
    4  A    between atoms: C_6  and  C_15
    5  A    between atoms: C_6  and  C_23
                            x       y       z     vdW  Elec       q    Type
                         _______ _______ _______ _____ _____    ______ ____

>  <TORSDO>
F 5

$$$$
=
 OpenBabel11052422083D

 25 28  0  0  1  0  0  0  0  0999 V2000
  160.6440  205.3550  149.0770 C   0  0  2  0  0  3  0  0  0  0  0  0
  160.9400  206.3730  150.1160 C   0  0  0  0  0  0  0  0  0  0  0  0
  160.8800  204.3630  151.2250 N   0  0  0  0  0  0  0  0  0  0  0  0
  161.3930  206.5180  152.4480 C   0  0  0  0  0  0  0  0  0  0  0  0
  161.5820  205.8290  153.9180 S   0  0  0  0  0  0  0  0  0  0  0  0
  161.0890  207.7130  149.9700 N   0  0  0  0  0  0  0  0  0  0  0  0
  160.6130  204.1230  149.9760 C   0  0  0  0  0  0  0  0  0  0  0  0
  161.5400  207.8660  152.2950 N   0  0  0  0  0  2  0  0  0  0  0  0
  161.3840  208.4640  151.0730 C   0  0  0  0  0  0  0  0  0  0  0  0
  161.0870  205.7610  151.3210 C   0  0  0  0  0  0  0  0  0  0  0  0
  161.7720  205.3410  148.0300 C   0  0  2  0  0  3  0  0  0  0  0  0
  163.1100  203.6780  145.2480 O   0  0  0  0  0  1  0  0  0  0  0  0
  161.5810  206.4030  146.9690 C   0  0  0  0  0  2  0  0  0  0  0  0
  162.2100  205.8310  145.7200 C   0  0  0  0  0  2  0  0  0  0  0  0
  162.0250  204.3320  145.8270 C   0  0  2  0  0  3  0  0  0  0  0  0
  161.9570  204.0110  147.3080 C   0  0  0  0  0  2  0  0  0  0  0  0
  160.2970  202.8360  149.5450 O   0  0  0  0  0  0  0  0  0  0  0  0
  160.8310  201.7570  150.1290 O   0  0  0  0  0  1  0  0  0  0  0  0
  161.5810  209.9320  150.9370 C   0  0  0  0  0  2  0  0  0  0  0  0
  161.3280  210.6110  152.2690 C   0  0  2  0  0  3  0  0  0  0  0  0
  159.9080  210.5180  152.6000 C   0  0  2  0  0  3  0  0  0  0  0  0
  160.4570  211.7750  152.0630 N   0  0  0  0  0  2  0  0  0  0  0  0
  159.7040  210.6450  154.0780 C   0  0  0  0  0  0  0  0  0  0  0  0
  160.7590  210.1910  155.0300 C   0  0  0  0  0  1  0  0  0  0  0  0
  158.6520  211.0850  154.5140 O   0  0  0  0  0  0  0  0  0  0  0  0
  1  7  1  1  0  0  0
  1  2  1  0  0  0  0
  2 10  2  0  0  0  0
  3 10  1  0  0  0  0
  4  5  2  0  0  0  0
  6  2  1  0  0  0  0
  6  9  2  0  0  0  0
  7  3  2  0  0  0  0
  8  4  1  0  0  0  0
  9  8  1  0  0  0  0
 10  4  1  0  0  0  0
 11 13  1  6  0  0  0
 11  1  1  0  0  0  0
 14 15  1  0  0  0  0
 14 13  1  0  0  0  0
 15 12  1  1  0  0  0
 15 16  1  0  0  0  0
 16 11  1  0  0  0  0
 17  7  1  0  0  0  0
 17 18  1  0  0  0  0
 19  9  1  0  0  0  0
 20 19  1  6  0  0  0
 20 21  1  0  0  0  0
 21 23  1  1  0  0  0
 22 20  1  0  0  0  0
 22 21  1  0  0  0  0
 23 25  2  0  0  0  0
 23 24  1  0  0  0  0
M  END
>  <MODEL>
7

>  <REMARK>
 VINA RESULT:      -6.8      1.996      7.524
  Name = 
  5 active torsions:
  status: ('A' for Active; 'I' for Inactive)
    1  A    between atoms: C_1  and  C_5
    2  A    between atoms: C_2  and  C_21
    3  A    between atoms: O_4  and  C_18
    4  A    between atoms: C_6  and  C_15
    5  A    between atoms: C_6  and  C_23
                            x       y       z     vdW  Elec       q    Type
                         _______ _______ _______ _____ _____    ______ ____

>  <TORSDO>
F 5

$$$$
=
 OpenBabel11052422083D

 25 28  0  0  1  0  0  0  0  0999 V2000
  162.3640  206.8440  149.8280 C   0  0  2  0  0  3  0  0  0  0  0  0
  162.1050  208.2010  150.3710 C   0  0  0  0  0  0  0  0  0  0  0  0
  162.1920  208.4580  148.0900 N   0  0  0  0  0  0  0  0  0  0  0  0
  161.7250  210.4240  149.6110 C   0  0  0  0  0  0  0  0  0  0  0  0
  161.5810  211.5260  148.4130 S   0  0  0  0  0  0  0  0  0  0  0  0
  161.9560  208.5820  151.6630 N   0  0  0  0  0  0  0  0  0  0  0  0
  162.4190  207.2040  148.3470 C   0  0  0  0  0  0  0  0  0  0  0  0
  161.5780  210.8020  150.9140 N   0  0  0  0  0  2  0  0  0  0  0  0
  161.6980  209.8960  151.9340 C   0  0  0  0  0  0  0  0  0  0  0  0
  161.9930  209.0860  149.3440 C   0  0  0  0  0  0  0  0  0  0  0  0
  161.2040  205.9050  150.2040 C   0  0  2  0  0  3  0  0  0  0  0  0
  159.8300  202.7040  149.8010 O   0  0  0  0  0  1  0  0  0  0  0  0
  161.3240  205.3840  151.6200 C   0  0  0  0  0  2  0  0  0  0  0  0
  160.6740  204.0210  151.5960 C   0  0  0  0  0  2  0  0  0  0  0  0
  160.9120  203.4870  150.1990 C   0  0  2  0  0  3  0  0  0  0  0  0
  161.0390  204.6950  149.2910 C   0  0  0  0  0  2  0  0  0  0  0  0
  162.7160  206.3050  147.3240 O   0  0  0  0  0  0  0  0  0  0  0  0
  161.9340  206.1980  146.2440 O   0  0  0  0  0  1  0  0  0  0  0  0
  161.5010  210.3360  153.3420 C   0  0  0  0  0  2  0  0  0  0  0  0
  161.5880  209.1420  154.2720 C   0  0  2  0  0  3  0  0  0  0  0  0
  160.5070  209.2110  155.2530 C   0  0  2  0  0  3  0  0  0  0  0  0
  161.8730  209.6080  155.6350 N   0  0  0  0  0  2  0  0  0  0  0  0
  160.2050  207.8480  155.7970 C   0  0  0  0  0  0  0  0  0  0  0  0
  160.4580  206.6300  154.9720 C   0  0  0  0  0  1  0  0  0  0  0  0
  159.7110  207.7290  156.9070 O   0  0  0  0  0  0  0  0  0  0  0  0
  1  7  1  6  0  0  0
  1 11  1  0  0  0  0
  1  2  1  0  0  0  0
  2  6  1  0  0  0  0
  3  7  2  0  0  0  0
  3 10  1  0  0  0  0
  4  8  1  0  0  0  0
  5  4  2  0  0  0  0
  6  9  2  0  0  0  0
  8  9  1  0  0  0  0
  9 19  1  0  0  0  0
 10  4  1  0  0  0  0
 10  2  2  0  0  0  0
 11 16  1  6  0  0  0
 11 13  1  0  0  0  0
 14 13  1  0  0  0  0
 15 12  1  6  0  0  0
 15 14  1  0  0  0  0
 16 15  1  0  0  0  0
 17  7  1  0  0  0  0
 18 17  1  0  0  0  0
 20 19  1  6  0  0  0
 20 21  1  0  0  0  0
 20 22  1  0  0  0  0
 21 22  1  0  0  0  0
 21 23  1  1  0  0  0
 23 25  2  0  0  0  0
 24 23  1  0  0  0  0
M  END
>  <MODEL>
8

>  <REMARK>
 VINA RESULT:      -6.7      2.863      7.536
  Name = 
  5 active torsions:
  status: ('A' for Active; 'I' for Inactive)
    1  A    between atoms: C_1  and  C_5
    2  A    between atoms: C_2  and  C_21
    3  A    between atoms: O_4  and  C_18
    4  A    between atoms: C_6  and  C_15
    5  A    between atoms: C_6  and  C_23
                            x       y       z     vdW  Elec       q    Type
                         _______ _______ _______ _____ _____    ______ ____

>  <TORSDO>
F 5

$$$$
=
 OpenBabel11052422083D

 25 28  0  0  1  0  0  0  0  0999 V2000
  162.3390  206.4510  149.4320 C   0  0  2  0  0  3  0  0  0  0  0  0
  162.1880  207.7500  150.1340 C   0  0  0  0  0  0  0  0  0  0  0  0
  162.1860  208.2580  147.8940 N   0  0  0  0  0  0  0  0  0  0  0  0
  161.9110  210.0620  149.6460 C   0  0  0  0  0  0  0  0  0  0  0  0
  161.7780  211.2990  148.5850 S   0  0  0  0  0  0  0  0  0  0  0  0
  162.1230  207.9890  151.4670 N   0  0  0  0  0  0  0  0  0  0  0  0
  162.3470  206.9720  147.9990 C   0  0  0  0  0  0  0  0  0  0  0  0
  161.8470  210.2980  150.9880 N   0  0  0  0  0  2  0  0  0  0  0  0
  161.9590  209.2760  151.8940 C   0  0  0  0  0  0  0  0  0  0  0  0
  162.0840  208.7500  149.2190 C   0  0  0  0  0  0  0  0  0  0  0  0
  161.1420  205.5410  149.7630 C   0  0  2  0  0  3  0  0  0  0  0  0
  159.7950  202.3170  149.4670 O   0  0  0  0  0  1  0  0  0  0  0  0
  161.1230  205.1270  151.2180 C   0  0  0  0  0  2  0  0  0  0  0  0
  160.4700  203.7650  151.2330 C   0  0  0  0  0  2  0  0  0  0  0  0
  160.8380  203.1290  149.9090 C   0  0  2  0  0  3  0  0  0  0  0  0
  161.0590  204.2660  148.9310 C   0  0  0  0  0  2  0  0  0  0  0  0
  162.5420  206.1800  146.8680 O   0  0  0  0  0  0  0  0  0  0  0  0
  161.5810  206.0340  145.9490 O   0  0  0  0  0  1  0  0  0  0  0  0
  161.8550  209.5650  153.3500 C   0  0  0  0  0  2  0  0  0  0  0  0
  160.4670  210.0810  153.6750 C   0  0  2  0  0  3  0  0  0  0  0  0
  160.5750  211.2760  154.5090 C   0  0  2  0  0  3  0  0  0  0  0  0
  160.2370  209.9800  155.1210 N   0  0  0  0  0  2  0  0  0  0  0  0
  159.3410  212.1160  154.3850 C   0  0  0  0  0  0  0  0  0  0  0  0
  158.4530  211.9870  153.1930 C   0  0  0  0  0  1  0  0  0  0  0  0
  159.0750  212.9420  155.2450 O   0  0  0  0  0  0  0  0  0  0  0  0
  1  7  1  6  0  0  0
  1 11  1  0  0  0  0
  1  2  1  0  0  0  0
  2  6  1  0  0  0  0
  3  7  2  0  0  0  0
  3 10  1  0  0  0  0
  4  8  1  0  0  0  0
  5  4  2  0  0  0  0
  6  9  2  0  0  0  0
  8  9  1  0  0  0  0
  9 19  1  0  0  0  0
 10  4  1  0  0  0  0
 10  2  2  0  0  0  0
 11 16  1  6  0  0  0
 11 13  1  0  0  0  0
 13 14  1  0  0  0  0
 15 12  1  6  0  0  0
 15 14  1  0  0  0  0
 16 15  1  0  0  0  0
 17  7  1  0  0  0  0
 18 17  1  0  0  0  0
 20 19  1  1  0  0  0
 20 21  1  0  0  0  0
 20 22  1  0  0  0  0
 21 23  1  6  0  0  0
 21 22  1  0  0  0  0
 23 25  2  0  0  0  0
 24 23  1  0  0  0  0
M  END
>  <MODEL>
9

>  <REMARK>
 VINA RESULT:      -6.7      2.723      7.966
  Name = 
  5 active torsions:
  status: ('A' for Active; 'I' for Inactive)
    1  A    between atoms: C_1  and  C_5
    2  A    between atoms: C_2  and  C_21
    3  A    between atoms: O_4  and  C_18
    4  A    between atoms: C_6  and  C_15
    5  A    between atoms: C_6  and  C_23
                            x       y       z     vdW  Elec       q    Type
                         _______ _______ _______ _____ _____    ______ ____

>  <TORSDO>
F 5

$$$$
