=
 OpenBabel11062408303D

 32 36  0  0  1  0  0  0  0  0999 V2000
  161.3290  206.3320  150.9940 C   0  0  0  0  0  3  0  0  0  0  0  0
  161.2420  204.9410  151.1490 C   0  0  0  0  0  0  0  0  0  0  0  0
  161.3220  207.1700  152.1110 C   0  0  0  0  0  0  0  0  0  0  0  0
  161.2200  206.6160  153.4000 C   0  0  0  0  0  0  0  0  0  0  0  0
  161.1350  205.2280  153.5530 C   0  0  0  0  0  3  0  0  0  0  0  0
  161.1440  204.3940  152.4320 C   0  0  0  0  0  3  0  0  0  0  0  0
  161.4240  208.5800  151.9240 N   0  0  0  0  0  0  0  0  0  0  0  0
  162.1670  209.8750  151.9680 C   0  0  1  0  0  3  0  0  0  0  0  0
  158.2650  211.4670  154.0650 C   0  0  0  0  0  2  0  0  0  0  0  0
  160.8240  209.9160  151.6210 C   0  0  2  0  0  3  0  0  0  0  0  0
  160.6150  211.1540  154.9910 C   0  0  0  0  0  2  0  0  0  0  0  0
  161.0670  211.1630  153.6080 N   0  0  1  0  0  0  0  0  0  0  0  0
  162.2660  210.3810  153.4070 C   0  0  0  0  0  2  0  0  0  0  0  0
  160.1050  210.3980  152.8560 C   0  0  1  0  0  3  0  0  0  0  0  0
  159.3200  211.9810  155.0690 C   0  0  0  0  0  2  0  0  0  0  0  0
  158.8540  211.2310  152.6650 C   0  0  0  0  0  2  0  0  0  0  0  0
  161.2860  204.0220  149.9660 C   0  0  1  0  0  3  0  0  0  0  0  0
  160.3900  202.8180  150.1890 C   0  0  0  0  0  1  0  0  0  0  0  0
  160.8910  204.7290  148.6750 C   0  0  0  0  0  2  0  0  0  0  0  0
  161.4820  204.8930  146.1290 C   0  0  2  0  0  0  0  0  0  0  0  0
  160.4360  201.6900  145.2250 O   0  0  0  0  0  0  0  0  0  0  0  0
  160.4260  205.9900  146.1510 C   0  0  0  0  0  1  0  0  0  0  0  0
  161.0760  202.7740  147.2070 N   0  0  0  0  0  2  0  0  0  0  0  0
  161.0960  203.9130  145.1750 O   0  0  0  0  0  0  0  0  0  0  0  0
  161.6000  204.1060  147.4740 C   0  0  2  0  0  3  0  0  0  0  0  0
  160.8420  202.7230  145.8170 C   0  0  0  0  0  0  0  0  0  0  0  0
  162.8220  205.5070  145.7400 C   0  0  0  0  0  2  0  0  0  0  0  0
  163.8810  204.7060  146.1690 O   0  0  0  0  0  1  0  0  0  0  0  0
  161.2390  207.4760  154.6190 C   0  0  0  0  0  2  0  0  0  0  0  0
  159.6900  207.2730  155.5440 S   0  0  0  0  0  0  0  0  0  0  0  0
  160.5520  207.3910  157.1340 C   0  0  0  0  0  2  0  0  0  0  0  0
  161.7690  208.2780  156.9840 C   0  0  0  0  0  1  0  0  0  0  0  0
  1  2  2  0  0  0  0
  1  3  1  0  0  0  0
  2  6  1  0  0  0  0
  3  4  2  0  0  0  0
  4  5  1  0  0  0  0
  4 29  1  0  0  0  0
  6  5  2  0  0  0  0
  7  8  1  0  0  0  0
  7  3  1  0  0  0  0
  8 13  1  1  0  0  0
  9 15  1  0  0  0  0
 10  7  1  1  0  0  0
 10  8  1  0  0  0  0
 10 14  1  0  0  0  0
 11 15  1  0  0  0  0
 12 13  1  1  0  0  0
 12 11  1  0  0  0  0
 14 16  1  6  0  0  0
 14 12  1  0  0  0  0
 16  9  1  0  0  0  0
 17 18  1  1  0  0  0
 17  2  1  0  0  0  0
 19 17  1  0  0  0  0
 20 22  1  1  0  0  0
 20 25  1  0  0  0  0
 21 26  2  0  0  0  0
 23 25  1  0  0  0  0
 24 26  1  0  0  0  0
 24 20  1  0  0  0  0
 25 19  1  1  0  0  0
 26 23  1  0  0  0  0
 27 20  1  0  0  0  0
 27 28  1  0  0  0  0
 29 30  1  0  0  0  0
 30 31  1  0  0  0  0
 32 31  1  0  0  0  0
M  END
>  <MODEL>
1

>  <REMARK>
 VINA RESULT:      -8.8      0.000      0.000
  Name = 
  8 active torsions:
  status: ('A' for Active; 'I' for Inactive)
    1  A    between atoms: N_2  and  C_5
    2  A    between atoms: C_3  and  C_22
    3  A    between atoms: C_4  and  C_24
    4  A    between atoms: C_13  and  S_29
    5  A    between atoms: C_14  and  C_18
    6  A    between atoms: C_16  and  C_20
    7  A    between atoms: C_16  and  C_24
    8  A    between atoms: C_18  and  S_29
                            x       y       z     vdW  Elec       q    Type
                         _______ _______ _______ _____ _____    ______ ____

>  <TORSDO>
F 8

$$$$
=
 OpenBabel11062408303D

 32 36  0  0  1  0  0  0  0  0999 V2000
  161.1720  205.8540  152.7830 C   0  0  0  0  0  3  0  0  0  0  0  0
  161.3460  205.6910  151.4010 C   0  0  0  0  0  0  0  0  0  0  0  0
  160.9970  207.1280  153.3280 C   0  0  0  0  0  0  0  0  0  0  0  0
  161.0030  208.2560  152.4860 C   0  0  0  0  0  0  0  0  0  0  0  0
  161.1750  208.0900  151.1080 C   0  0  0  0  0  3  0  0  0  0  0  0
  161.3480  206.8130  150.5670 C   0  0  0  0  0  3  0  0  0  0  0  0
  160.8090  207.2630  154.7350 N   0  0  0  0  0  0  0  0  0  0  0  0
  159.9560  207.3640  155.9570 C   0  0  1  0  0  3  0  0  0  0  0  0
  162.7840  210.9740  157.0210 C   0  0  0  0  0  2  0  0  0  0  0  0
  161.3270  207.5120  156.1150 C   0  0  2  0  0  3  0  0  0  0  0  0
  160.3100  210.9470  156.4270 C   0  0  0  0  0  2  0  0  0  0  0  0
  160.3270  209.5390  156.7900 N   0  0  1  0  0  0  0  0  0  0  0  0
  159.3470  208.7630  156.0640 C   0  0  0  0  0  2  0  0  0  0  0  0
  161.5560  208.9950  156.2690 C   0  0  1  0  0  3  0  0  0  0  0  0
  161.4150  211.6550  157.2300 C   0  0  0  0  0  2  0  0  0  0  0  0
  162.7050  209.4450  157.1490 C   0  0  0  0  0  2  0  0  0  0  0  0
  161.4970  204.3300  150.7910 C   0  0  1  0  0  3  0  0  0  0  0  0
  161.1130  203.2510  151.7870 C   0  0  0  0  0  1  0  0  0  0  0  0
  160.6710  204.1780  149.5190 C   0  0  0  0  0  2  0  0  0  0  0  0
  161.6300  204.4770  147.1000 C   0  0  2  0  0  0  0  0  0  0  0  0
  160.5800  201.4030  145.8260 O   0  0  0  0  0  0  0  0  0  0  0  0
  160.6330  205.6270  147.0540 C   0  0  0  0  0  1  0  0  0  0  0  0
  160.9760  202.3170  147.9520 N   0  0  0  0  0  2  0  0  0  0  0  0
  161.3410  203.5850  146.0320 O   0  0  0  0  0  0  0  0  0  0  0  0
  161.5170  203.5970  148.3870 C   0  0  2  0  0  3  0  0  0  0  0  0
  160.9430  202.3710  146.5430 C   0  0  0  0  0  0  0  0  0  0  0  0
  163.0390  205.0400  146.9500 C   0  0  0  0  0  2  0  0  0  0  0  0
  163.6000  204.6590  145.7310 O   0  0  0  0  0  1  0  0  0  0  0  0
  160.7900  209.6300  153.0270 C   0  0  0  0  0  2  0  0  0  0  0  0
  161.1610  210.8630  151.7480 S   0  0  0  0  0  0  0  0  0  0  0  0
  160.0310  212.0680  152.4940 C   0  0  0  0  0  2  0  0  0  0  0  0
  158.7590  211.3690  152.9210 C   0  0  0  0  0  1  0  0  0  0  0  0
  1  3  1  0  0  0  0
  2  1  2  0  0  0  0
  3  7  1  0  0  0  0
  4 29  1  0  0  0  0
  4  3  2  0  0  0  0
  5  4  1  0  0  0  0
  6  5  2  0  0  0  0
  6  2  1  0  0  0  0
  7  8  1  0  0  0  0
  8 13  1  6  0  0  0
  8 10  1  0  0  0  0
  9 16  1  0  0  0  0
  9 15  1  0  0  0  0
 10  7  1  6  0  0  0
 10 14  1  0  0  0  0
 11 12  1  0  0  0  0
 11 15  1  0  0  0  0
 12 13  1  6  0  0  0
 14 12  1  0  0  0  0
 14 16  1  1  0  0  0
 17  2  1  0  0  0  0
 17 18  1  1  0  0  0
 19 17  1  0  0  0  0
 20 22  1  1  0  0  0
 20 25  1  0  0  0  0
 21 26  2  0  0  0  0
 23 25  1  0  0  0  0
 24 26  1  0  0  0  0
 24 20  1  0  0  0  0
 25 19  1  1  0  0  0
 26 23  1  0  0  0  0
 27 20  1  0  0  0  0
 28 27  1  0  0  0  0
 30 31  1  0  0  0  0
 30 29  1  0  0  0  0
 31 32  1  0  0  0  0
M  END
>  <MODEL>
2

>  <REMARK>
 VINA RESULT:      -8.6      1.761      3.312
  Name = 
  8 active torsions:
  status: ('A' for Active; 'I' for Inactive)
    1  A    between atoms: N_2  and  C_5
    2  A    between atoms: C_3  and  C_22
    3  A    between atoms: C_4  and  C_24
    4  A    between atoms: C_13  and  S_29
    5  A    between atoms: C_14  and  C_18
    6  A    between atoms: C_16  and  C_20
    7  A    between atoms: C_16  and  C_24
    8  A    between atoms: C_18  and  S_29
                            x       y       z     vdW  Elec       q    Type
                         _______ _______ _______ _____ _____    ______ ____

>  <TORSDO>
F 8

$$$$
=
 OpenBabel11062408303D

 32 36  0  0  1  0  0  0  0  0999 V2000
  161.1180  208.5450  151.3320 C   0  0  0  0  0  3  0  0  0  0  0  0
  161.1430  207.3530  150.5950 C   0  0  0  0  0  0  0  0  0  0  0  0
  161.1540  208.5140  152.7280 C   0  0  0  0  0  0  0  0  0  0  0  0
  161.2070  207.2780  153.3990 C   0  0  0  0  0  0  0  0  0  0  0  0
  161.2330  206.0900  152.6610 C   0  0  0  0  0  3  0  0  0  0  0  0
  161.1990  206.1270  151.2640 C   0  0  0  0  0  3  0  0  0  0  0  0
  161.1400  209.7420  153.4530 N   0  0  0  0  0  0  0  0  0  0  0  0
  161.0490  210.5400  154.7120 C   0  0  1  0  0  3  0  0  0  0  0  0
  157.9970  213.1430  152.2480 C   0  0  0  0  0  2  0  0  0  0  0  0
  161.1100  211.2360  153.5120 C   0  0  2  0  0  3  0  0  0  0  0  0
  157.6180  211.6420  154.2680 C   0  0  0  0  0  2  0  0  0  0  0  0
  159.0450  211.7680  154.5200 N   0  0  1  0  0  0  0  0  0  0  0  0
  159.5980  210.6120  155.1890 C   0  0  0  0  0  2  0  0  0  0  0  0
  159.6970  211.6870  153.2370 C   0  0  1  0  0  3  0  0  0  0  0  0
  157.1580  212.9060  153.5220 C   0  0  0  0  0  2  0  0  0  0  0  0
  159.5050  212.9990  152.5040 C   0  0  0  0  0  2  0  0  0  0  0  0
  161.1450  207.3650  149.0960 C   0  0  1  0  0  3  0  0  0  0  0  0
  162.5650  207.4020  148.5620 C   0  0  0  0  0  1  0  0  0  0  0  0
  160.4040  206.1680  148.5120 C   0  0  0  0  0  2  0  0  0  0  0  0
  161.3660  204.9870  146.3810 C   0  0  2  0  0  0  0  0  0  0  0  0
  160.9910  201.7000  147.4890 O   0  0  0  0  0  0  0  0  0  0  0  0
  160.1620  205.6380  145.7120 C   0  0  0  0  0  1  0  0  0  0  0  0
  161.1260  203.8250  148.4800 N   0  0  0  0  0  2  0  0  0  0  0  0
  161.2960  203.5830  146.1700 O   0  0  0  0  0  0  0  0  0  0  0  0
  161.3870  205.1490  147.9350 C   0  0  2  0  0  3  0  0  0  0  0  0
  161.1300  202.9450  147.3770 C   0  0  0  0  0  0  0  0  0  0  0  0
  162.6390  205.5510  145.7600 C   0  0  0  0  0  2  0  0  0  0  0  0
  163.7520  204.7970  146.1350 O   0  0  0  0  0  1  0  0  0  0  0  0
  161.2750  207.2040  154.8870 C   0  0  0  0  0  2  0  0  0  0  0  0
  159.6070  207.0020  155.5750 S   0  0  0  0  0  0  0  0  0  0  0  0
  160.1960  207.3140  157.2600 C   0  0  0  0  0  2  0  0  0  0  0  0
  161.5220  208.0420  157.2040 C   0  0  0  0  0  1  0  0  0  0  0  0
  1  3  1  0  0  0  0
  2  6  1  0  0  0  0
  2  1  2  0  0  0  0
  3  4  2  0  0  0  0
  3  7  1  0  0  0  0
  4 29  1  0  0  0  0
  5  4  1  0  0  0  0
  6  5  2  0  0  0  0
  7  8  1  0  0  0  0
  8 13  1  6  0  0  0
  9 16  1  0  0  0  0
  9 15  1  0  0  0  0
 10  7  1  6  0  0  0
 10  8  1  0  0  0  0
 12 11  1  6  0  0  0
 12 13  1  0  0  0  0
 14 16  1  1  0  0  0
 14 10  1  0  0  0  0
 14 12  1  0  0  0  0
 15 11  1  0  0  0  0
 17 18  1  6  0  0  0
 17  2  1  0  0  0  0
 19 17  1  0  0  0  0
 20 22  1  6  0  0  0
 20 25  1  0  0  0  0
 24 20  1  0  0  0  0
 24 26  1  0  0  0  0
 25 23  1  0  0  0  0
 25 19  1  6  0  0  0
 26 21  2  0  0  0  0
 26 23  1  0  0  0  0
 27 28  1  0  0  0  0
 27 20  1  0  0  0  0
 29 30  1  0  0  0  0
 30 31  1  0  0  0  0
 32 31  1  0  0  0  0
M  END
>  <MODEL>
3

>  <REMARK>
 VINA RESULT:      -7.8      1.373      2.093
  Name = 
  8 active torsions:
  status: ('A' for Active; 'I' for Inactive)
    1  A    between atoms: N_2  and  C_5
    2  A    between atoms: C_3  and  C_22
    3  A    between atoms: C_4  and  C_24
    4  A    between atoms: C_13  and  S_29
    5  A    between atoms: C_14  and  C_18
    6  A    between atoms: C_16  and  C_20
    7  A    between atoms: C_16  and  C_24
    8  A    between atoms: C_18  and  S_29
                            x       y       z     vdW  Elec       q    Type
                         _______ _______ _______ _____ _____    ______ ____

>  <TORSDO>
F 8

$$$$
=
 OpenBabel11062408303D

 32 36  0  0  1  0  0  0  0  0999 V2000
  161.2160  207.6210  151.3420 C   0  0  0  0  0  3  0  0  0  0  0  0
  161.6760  206.8530  150.2630 C   0  0  0  0  0  0  0  0  0  0  0  0
  161.3050  209.0140  151.3080 C   0  0  0  0  0  0  0  0  0  0  0  0
  161.8670  209.6520  150.1860 C   0  0  0  0  0  0  0  0  0  0  0  0
  162.3240  208.8840  149.1100 C   0  0  0  0  0  3  0  0  0  0  0  0
  162.2300  207.4900  149.1480 C   0  0  0  0  0  3  0  0  0  0  0  0
  160.8180  209.7710  152.4150 N   0  0  0  0  0  0  0  0  0  0  0  0
  160.8730  210.9240  153.3620 C   0  0  1  0  0  3  0  0  0  0  0  0
  160.2080  207.6160  156.6430 C   0  0  0  0  0  2  0  0  0  0  0  0
  159.9040  209.9560  153.5830 C   0  0  2  0  0  3  0  0  0  0  0  0
  162.2310  209.0910  156.1860 C   0  0  0  0  0  2  0  0  0  0  0  0
  161.3190  209.9700  155.4720 N   0  0  1  0  0  0  0  0  0  0  0  0
  161.9670  210.7010  154.4060 C   0  0  0  0  0  2  0  0  0  0  0  0
  160.4280  209.1190  154.7240 C   0  0  1  0  0  3  0  0  0  0  0  0
  161.4210  208.3450  157.2610 C   0  0  0  0  0  2  0  0  0  0  0  0
  159.4170  208.5090  155.6750 C   0  0  0  0  0  2  0  0  0  0  0  0
  161.5540  205.3590  150.2630 C   0  0  1  0  0  3  0  0  0  0  0  0
  160.9560  204.8700  151.5690 C   0  0  0  0  0  1  0  0  0  0  0  0
  160.7200  204.8530  149.0910 C   0  0  0  0  0  2  0  0  0  0  0  0
  161.6830  204.5420  146.6750 C   0  0  2  0  0  0  0  0  0  0  0  0
  160.6530  201.2410  146.2100 O   0  0  0  0  0  0  0  0  0  0  0  0
  160.6790  205.6380  146.3420 C   0  0  0  0  0  1  0  0  0  0  0  0
  161.0400  202.6610  148.0400 N   0  0  0  0  0  2  0  0  0  0  0  0
  161.4010  203.4090  145.8640 O   0  0  0  0  0  0  0  0  0  0  0  0
  161.5720  204.0120  148.1410 C   0  0  2  0  0  3  0  0  0  0  0  0
  161.0090  202.3600  146.6620 C   0  0  0  0  0  0  0  0  0  0  0  0
  163.0880  205.0580  146.3890 C   0  0  0  0  0  2  0  0  0  0  0  0
  163.6840  204.3340  145.3560 O   0  0  0  0  0  1  0  0  0  0  0  0
  161.9530  211.1380  150.1000 C   0  0  0  0  0  2  0  0  0  0  0  0
  162.1260  211.6490  148.3670 S   0  0  0  0  0  0  0  0  0  0  0  0
  161.2530  213.2080  148.6740 C   0  0  0  0  0  2  0  0  0  0  0  0
  160.4600  213.0960  149.9580 C   0  0  0  0  0  1  0  0  0  0  0  0
  2  1  2  0  0  0  0
  3  1  1  0  0  0  0
  3  7  1  0  0  0  0
  4  3  2  0  0  0  0
  5  6  2  0  0  0  0
  5  4  1  0  0  0  0
  6  2  1  0  0  0  0
  7  8  1  0  0  0  0
  8 10  1  0  0  0  0
  8 13  1  1  0  0  0
  9 15  1  0  0  0  0
 10  7  1  6  0  0  0
 10 14  1  0  0  0  0
 11 15  1  0  0  0  0
 12 13  1  6  0  0  0
 12 11  1  0  0  0  0
 14 12  1  0  0  0  0
 14 16  1  1  0  0  0
 16  9  1  0  0  0  0
 17  2  1  0  0  0  0
 17 18  1  1  0  0  0
 19 17  1  0  0  0  0
 20 22  1  6  0  0  0
 20 25  1  0  0  0  0
 21 26  2  0  0  0  0
 23 25  1  0  0  0  0
 24 26  1  0  0  0  0
 24 20  1  0  0  0  0
 25 19  1  1  0  0  0
 26 23  1  0  0  0  0
 27 20  1  0  0  0  0
 28 27  1  0  0  0  0
 29  4  1  0  0  0  0
 30 31  1  0  0  0  0
 30 29  1  0  0  0  0
 31 32  1  0  0  0  0
M  END
>  <MODEL>
4

>  <REMARK>
 VINA RESULT:      -7.8      2.259      3.906
  Name = 
  8 active torsions:
  status: ('A' for Active; 'I' for Inactive)
    1  A    between atoms: N_2  and  C_5
    2  A    between atoms: C_3  and  C_22
    3  A    between atoms: C_4  and  C_24
    4  A    between atoms: C_13  and  S_29
    5  A    between atoms: C_14  and  C_18
    6  A    between atoms: C_16  and  C_20
    7  A    between atoms: C_16  and  C_24
    8  A    between atoms: C_18  and  S_29
                            x       y       z     vdW  Elec       q    Type
                         _______ _______ _______ _____ _____    ______ ____

>  <TORSDO>
F 8

$$$$
=
 OpenBabel11062408303D

 32 36  0  0  1  0  0  0  0  0999 V2000
  161.6370  207.4480  151.6400 C   0  0  0  0  0  3  0  0  0  0  0  0
  161.6940  206.7240  150.4410 C   0  0  0  0  0  0  0  0  0  0  0  0
  161.7340  208.8410  151.6320 C   0  0  0  0  0  0  0  0  0  0  0  0
  161.8950  209.5230  150.4120 C   0  0  0  0  0  0  0  0  0  0  0  0
  161.9490  208.8000  149.2160 C   0  0  0  0  0  3  0  0  0  0  0  0
  161.8510  207.4060  149.2300 C   0  0  0  0  0  3  0  0  0  0  0  0
  161.6610  209.5520  152.8660 N   0  0  0  0  0  0  0  0  0  0  0  0
  161.5810  209.6200  154.3560 C   0  0  1  0  0  3  0  0  0  0  0  0
  158.1670  212.7540  153.5290 C   0  0  0  0  0  2  0  0  0  0  0  0
  161.5070  210.8140  153.6520 C   0  0  2  0  0  3  0  0  0  0  0  0
  158.0470  210.4290  154.5560 C   0  0  0  0  0  2  0  0  0  0  0  0
  159.4710  210.5660  154.8190 N   0  0  1  0  0  0  0  0  0  0  0  0
  160.1630  209.2970  154.8260 C   0  0  0  0  0  2  0  0  0  0  0  0
  160.0460  211.1900  153.6530 C   0  0  1  0  0  3  0  0  0  0  0  0
  157.4340  211.8390  154.5330 C   0  0  0  0  0  2  0  0  0  0  0  0
  159.6960  212.6640  153.6610 C   0  0  0  0  0  2  0  0  0  0  0  0
  161.5530  205.2320  150.4240 C   0  0  1  0  0  3  0  0  0  0  0  0
  160.9450  204.7370  151.7230 C   0  0  0  0  0  1  0  0  0  0  0  0
  160.7180  204.7490  149.2440 C   0  0  0  0  0  2  0  0  0  0  0  0
  161.6510  204.5720  146.8030 C   0  0  2  0  0  0  0  0  0  0  0  0
  160.7210  201.2610  146.2130 O   0  0  0  0  0  0  0  0  0  0  0  0
  160.6070  205.6470  146.5320 C   0  0  0  0  0  1  0  0  0  0  0  0
  161.0910  202.6150  148.0960 N   0  0  0  0  0  2  0  0  0  0  0  0
  161.3930  203.4660  145.9490 O   0  0  0  0  0  0  0  0  0  0  0  0
  161.5810  203.9770  148.2470 C   0  0  2  0  0  3  0  0  0  0  0  0
  161.0480  202.3710  146.7070 C   0  0  0  0  0  0  0  0  0  0  0  0
  163.0340  205.1460  146.5190 C   0  0  0  0  0  2  0  0  0  0  0  0
  163.7410  204.3280  145.6360 O   0  0  0  0  0  1  0  0  0  0  0  0
  161.9730  211.0120  150.3590 C   0  0  0  0  0  2  0  0  0  0  0  0
  162.1220  211.5630  148.6360 S   0  0  0  0  0  0  0  0  0  0  0  0
  161.3350  213.1520  149.0100 C   0  0  0  0  0  2  0  0  0  0  0  0
  160.2940  212.9560  150.0920 C   0  0  0  0  0  1  0  0  0  0  0  0
  2  1  2  0  0  0  0
  3  1  1  0  0  0  0
  3  7  1  0  0  0  0
  4  3  2  0  0  0  0
  5  6  2  0  0  0  0
  5  4  1  0  0  0  0
  6  2  1  0  0  0  0
  7  8  1  0  0  0  0
  8 13  1  6  0  0  0
  9 16  1  0  0  0  0
  9 15  1  0  0  0  0
 10  7  1  6  0  0  0
 10 14  1  0  0  0  0
 10  8  1  0  0  0  0
 12 11  1  6  0  0  0
 12 13  1  0  0  0  0
 14 16  1  1  0  0  0
 14 12  1  0  0  0  0
 15 11  1  0  0  0  0
 17  2  1  0  0  0  0
 17 18  1  1  0  0  0
 19 17  1  0  0  0  0
 20 22  1  6  0  0  0
 20 25  1  0  0  0  0
 21 26  2  0  0  0  0
 23 25  1  0  0  0  0
 24 26  1  0  0  0  0
 24 20  1  0  0  0  0
 25 19  1  1  0  0  0
 26 23  1  0  0  0  0
 27 20  1  0  0  0  0
 28 27  1  0  0  0  0
 29  4  1  0  0  0  0
 30 31  1  0  0  0  0
 30 29  1  0  0  0  0
 31 32  1  0  0  0  0
M  END
>  <MODEL>
5

>  <REMARK>
 VINA RESULT:      -7.3      2.180      3.588
  Name = 
  8 active torsions:
  status: ('A' for Active; 'I' for Inactive)
    1  A    between atoms: N_2  and  C_5
    2  A    between atoms: C_3  and  C_22
    3  A    between atoms: C_4  and  C_24
    4  A    between atoms: C_13  and  S_29
    5  A    between atoms: C_14  and  C_18
    6  A    between atoms: C_16  and  C_20
    7  A    between atoms: C_16  and  C_24
    8  A    between atoms: C_18  and  S_29
                            x       y       z     vdW  Elec       q    Type
                         _______ _______ _______ _____ _____    ______ ____

>  <TORSDO>
F 8

$$$$
=
 OpenBabel11062408303D

 32 36  0  0  1  0  0  0  0  0999 V2000
  162.0000  207.3660  149.4380 C   0  0  0  0  0  3  0  0  0  0  0  0
  161.6330  207.6700  150.7570 C   0  0  0  0  0  0  0  0  0  0  0  0
  161.7860  206.0870  148.9210 C   0  0  0  0  0  0  0  0  0  0  0  0
  161.2050  205.0930  149.7310 C   0  0  0  0  0  0  0  0  0  0  0  0
  160.8380  205.3990  151.0460 C   0  0  0  0  0  3  0  0  0  0  0  0
  161.0520  206.6820  151.5580 C   0  0  0  0  0  3  0  0  0  0  0  0
  162.1570  205.8100  147.5720 N   0  0  0  0  0  0  0  0  0  0  0  0
  162.3300  206.1890  146.1380 C   0  0  1  0  0  3  0  0  0  0  0  0
  160.1900  202.0770  145.3150 C   0  0  0  0  0  2  0  0  0  0  0  0
  162.5870  204.8710  146.4910 C   0  0  2  0  0  3  0  0  0  0  0  0
  159.3950  204.4560  144.8850 C   0  0  0  0  0  2  0  0  0  0  0  0
  160.7960  204.8440  144.9550 N   0  0  1  0  0  0  0  0  0  0  0  0
  160.9770  206.1990  145.4260 C   0  0  0  0  0  2  0  0  0  0  0  0
  161.3760  204.0920  146.0390 C   0  0  1  0  0  3  0  0  0  0  0  0
  159.3350  202.9930  144.4130 C   0  0  0  0  0  2  0  0  0  0  0  0
  161.5860  202.6610  145.5880 C   0  0  0  0  0  2  0  0  0  0  0  0
  161.8180  209.0470  151.3190 C   0  0  1  0  0  3  0  0  0  0  0  0
  161.9560  210.0670  150.2030 C   0  0  0  0  0  1  0  0  0  0  0  0
  160.6750  209.4460  152.2460 C   0  0  0  0  0  2  0  0  0  0  0  0
  160.9520  210.6180  154.5720 C   0  0  2  0  0  0  0  0  0  0  0  0
  158.9380  213.3900  153.9110 O   0  0  0  0  0  0  0  0  0  0  0  0
  160.2580  209.3590  155.0730 C   0  0  0  0  0  1  0  0  0  0  0  0
  160.1110  211.7980  152.6440 N   0  0  0  0  0  2  0  0  0  0  0  0
  160.1840  211.7460  154.9710 O   0  0  0  0  0  0  0  0  0  0  0  0
  161.0180  210.7220  153.0140 C   0  0  2  0  0  3  0  0  0  0  0  0
  159.6920  212.3850  153.8570 C   0  0  0  0  0  0  0  0  0  0  0  0
  162.3470  210.6880  155.1800 C   0  0  0  0  0  2  0  0  0  0  0  0
  162.4110  209.9540  156.3650 O   0  0  0  0  0  1  0  0  0  0  0  0
  160.9340  203.7240  149.2060 C   0  0  0  0  0  2  0  0  0  0  0  0
  160.7820  202.5510  150.5830 S   0  0  0  0  0  0  0  0  0  0  0  0
  160.1190  201.2620  149.4950 C   0  0  0  0  0  2  0  0  0  0  0  0
  161.2080  200.7850  148.5580 C   0  0  0  0  0  1  0  0  0  0  0  0
  1  2  1  0  0  0  0
  2 17  1  0  0  0  0
  2  6  2  0  0  0  0
  3  1  2  0  0  0  0
  3  4  1  0  0  0  0
  4  5  2  0  0  0  0
  5  6  1  0  0  0  0
  7  3  1  0  0  0  0
  8 13  1  6  0  0  0
  8 10  1  0  0  0  0
  8  7  1  0  0  0  0
  9 16  1  0  0  0  0
 10  7  1  1  0  0  0
 12 11  1  1  0  0  0
 12 13  1  0  0  0  0
 12 14  1  0  0  0  0
 14 16  1  6  0  0  0
 14 10  1  0  0  0  0
 15 11  1  0  0  0  0
 15  9  1  0  0  0  0
 17 18  1  6  0  0  0
 17 19  1  0  0  0  0
 20 24  1  0  0  0  0
 20 22  1  1  0  0  0
 20 27  1  0  0  0  0
 23 25  1  0  0  0  0
 23 26  1  0  0  0  0
 25 19  1  6  0  0  0
 25 20  1  0  0  0  0
 26 21  2  0  0  0  0
 26 24  1  0  0  0  0
 27 28  1  0  0  0  0
 29  4  1  0  0  0  0
 29 30  1  0  0  0  0
 31 30  1  0  0  0  0
 32 31  1  0  0  0  0
M  END
>  <MODEL>
6

>  <REMARK>
 VINA RESULT:      -7.1      4.392      9.195
  Name = 
  8 active torsions:
  status: ('A' for Active; 'I' for Inactive)
    1  A    between atoms: N_2  and  C_5
    2  A    between atoms: C_3  and  C_22
    3  A    between atoms: C_4  and  C_24
    4  A    between atoms: C_13  and  S_29
    5  A    between atoms: C_14  and  C_18
    6  A    between atoms: C_16  and  C_20
    7  A    between atoms: C_16  and  C_24
    8  A    between atoms: C_18  and  S_29
                            x       y       z     vdW  Elec       q    Type
                         _______ _______ _______ _____ _____    ______ ____

>  <TORSDO>
F 8

$$$$
=
 OpenBabel11062408303D

 32 36  0  0  1  0  0  0  0  0999 V2000
  161.2970  207.1090  151.6850 C   0  0  0  0  0  3  0  0  0  0  0  0
  160.9630  206.5880  152.9420 C   0  0  0  0  0  0  0  0  0  0  0  0
  161.4950  206.2570  150.5960 C   0  0  0  0  0  0  0  0  0  0  0  0
  161.3650  204.8660  150.7630 C   0  0  0  0  0  0  0  0  0  0  0  0
  161.0300  204.3480  152.0190 C   0  0  0  0  0  3  0  0  0  0  0  0
  160.8310  205.2050  153.1050 C   0  0  0  0  0  3  0  0  0  0  0  0
  161.8210  206.8170  149.3250 N   0  0  0  0  0  0  0  0  0  0  0  0
  161.5600  207.7210  148.1660 C   0  0  1  0  0  3  0  0  0  0  0  0
  162.5750  203.9050  145.6030 C   0  0  0  0  0  2  0  0  0  0  0  0
  162.6510  206.8680  148.0820 C   0  0  2  0  0  3  0  0  0  0  0  0
  160.3770  205.1560  145.8840 C   0  0  0  0  0  2  0  0  0  0  0  0
  161.1770  206.2840  146.3350 N   0  0  1  0  0  0  0  0  0  0  0  0
  160.4710  207.1320  147.2690 C   0  0  0  0  0  2  0  0  0  0  0  0
  162.2120  205.7420  147.1790 C   0  0  1  0  0  3  0  0  0  0  0  0
  161.2450  204.3130  144.9340 C   0  0  0  0  0  2  0  0  0  0  0  0
  163.2640  205.0850  146.3080 C   0  0  0  0  0  2  0  0  0  0  0  0
  160.7080  207.4860  154.1150 C   0  0  1  0  0  3  0  0  0  0  0  0
  161.4100  206.9620  155.3540 C   0  0  0  0  0  1  0  0  0  0  0  0
  161.1420  208.9210  153.8420 C   0  0  0  0  0  2  0  0  0  0  0  0
  159.8480  211.1900  153.6410 C   0  0  2  0  0  0  0  0  0  0  0  0
  160.8390  212.5360  156.7030 O   0  0  0  0  0  0  0  0  0  0  0  0
  160.7820  211.3960  152.4560 C   0  0  0  0  0  1  0  0  0  0  0  0
  160.7010  210.3940  155.7520 N   0  0  0  0  0  2  0  0  0  0  0  0
  160.0240  212.2700  154.5480 O   0  0  0  0  0  0  0  0  0  0  0  0
  160.1730  209.9140  154.4830 C   0  0  2  0  0  3  0  0  0  0  0  0
  160.5380  211.7960  155.7320 C   0  0  0  0  0  0  0  0  0  0  0  0
  158.4110  211.1560  153.1350 C   0  0  0  0  0  2  0  0  0  0  0  0
  157.5180  211.5050  154.1500 O   0  0  0  0  0  1  0  0  0  0  0  0
  161.5400  203.9270  149.6180 C   0  0  0  0  0  2  0  0  0  0  0  0
  160.5570  202.4250  149.8930 S   0  0  0  0  0  0  0  0  0  0  0  0
  160.7420  201.9130  148.1640 C   0  0  0  0  0  2  0  0  0  0  0  0
  161.4450  200.5750  148.1070 C   0  0  0  0  0  1  0  0  0  0  0  0
  1  2  1  0  0  0  0
  2  6  2  0  0  0  0
  2 17  1  0  0  0  0
  3  4  1  0  0  0  0
  3  1  2  0  0  0  0
  4  5  2  0  0  0  0
  5  6  1  0  0  0  0
  7  3  1  0  0  0  0
  8 13  1  6  0  0  0
  8  7  1  0  0  0  0
  9 16  1  0  0  0  0
 10  8  1  0  0  0  0
 10  7  1  1  0  0  0
 12 11  1  1  0  0  0
 12 14  1  0  0  0  0
 12 13  1  0  0  0  0
 14 16  1  6  0  0  0
 14 10  1  0  0  0  0
 15  9  1  0  0  0  0
 15 11  1  0  0  0  0
 17 18  1  1  0  0  0
 19 17  1  0  0  0  0
 20 22  1  6  0  0  0
 20 25  1  0  0  0  0
 20 24  1  0  0  0  0
 24 26  1  0  0  0  0
 25 19  1  6  0  0  0
 25 23  1  0  0  0  0
 26 23  1  0  0  0  0
 26 21  2  0  0  0  0
 27 20  1  0  0  0  0
 27 28  1  0  0  0  0
 29 30  1  0  0  0  0
 29  4  1  0  0  0  0
 31 30  1  0  0  0  0
 32 31  1  0  0  0  0
M  END
>  <MODEL>
7

>  <REMARK>
 VINA RESULT:      -7.1      4.375      8.814
  Name = 
  8 active torsions:
  status: ('A' for Active; 'I' for Inactive)
    1  A    between atoms: N_2  and  C_5
    2  A    between atoms: C_3  and  C_22
    3  A    between atoms: C_4  and  C_24
    4  A    between atoms: C_13  and  S_29
    5  A    between atoms: C_14  and  C_18
    6  A    between atoms: C_16  and  C_20
    7  A    between atoms: C_16  and  C_24
    8  A    between atoms: C_18  and  S_29
                            x       y       z     vdW  Elec       q    Type
                         _______ _______ _______ _____ _____    ______ ____

>  <TORSDO>
F 8

$$$$
=
 OpenBabel11062408303D

 32 36  0  0  1  0  0  0  0  0999 V2000
  160.6440  209.2550  152.2520 C   0  0  0  0  0  3  0  0  0  0  0  0
  161.0910  207.9610  151.9490 C   0  0  0  0  0  0  0  0  0  0  0  0
  160.3470  209.6110  153.5700 C   0  0  0  0  0  0  0  0  0  0  0  0
  160.4900  208.6630  154.5990 C   0  0  0  0  0  0  0  0  0  0  0  0
  160.9380  207.3730  154.2950 C   0  0  0  0  0  3  0  0  0  0  0  0
  161.2360  207.0220  152.9760 C   0  0  0  0  0  3  0  0  0  0  0  0
  159.9060  210.9380  153.8500 N   0  0  0  0  0  0  0  0  0  0  0  0
  160.0660  212.2870  154.4710 C   0  0  1  0  0  3  0  0  0  0  0  0
  155.6260  211.6100  155.8810 C   0  0  0  0  0  2  0  0  0  0  0  0
  158.8700  212.0150  153.8210 C   0  0  2  0  0  3  0  0  0  0  0  0
  157.7750  211.7550  157.2370 C   0  0  0  0  0  2  0  0  0  0  0  0
  158.3530  212.4300  156.0850 N   0  0  1  0  0  0  0  0  0  0  0  0
  159.7780  212.2170  155.9710 C   0  0  0  0  0  2  0  0  0  0  0  0
  157.8720  211.7350  154.9170 C   0  0  1  0  0  3  0  0  0  0  0  0
  156.2600  212.0220  157.2270 C   0  0  0  0  0  2  0  0  0  0  0  0
  156.4280  212.1230  154.6740 C   0  0  0  0  0  2  0  0  0  0  0  0
  161.4530  207.5700  150.5480 C   0  0  1  0  0  3  0  0  0  0  0  0
  162.9260  207.2160  150.4540 C   0  0  0  0  0  1  0  0  0  0  0  0
  160.6080  206.4080  150.0420 C   0  0  0  0  0  2  0  0  0  0  0  0
  161.4010  205.3610  147.7750 C   0  0  2  0  0  0  0  0  0  0  0  0
  160.7630  202.0270  148.5820 O   0  0  0  0  0  0  0  0  0  0  0  0
  160.2420  206.1750  147.2150 C   0  0  0  0  0  1  0  0  0  0  0  0
  161.1150  204.0250  149.7640 N   0  0  0  0  0  2  0  0  0  0  0  0
  161.2000  203.9950  147.4360 O   0  0  0  0  0  0  0  0  0  0  0  0
  161.4780  205.3680  149.3370 C   0  0  2  0  0  3  0  0  0  0  0  0
  161.0100  203.2600  148.5830 C   0  0  0  0  0  0  0  0  0  0  0  0
  162.7020  205.8690  147.1650 C   0  0  0  0  0  2  0  0  0  0  0  0
  162.9930  205.1940  145.9790 O   0  0  0  0  0  1  0  0  0  0  0  0
  160.2100  209.0130  156.0220 C   0  0  0  0  0  2  0  0  0  0  0  0
  161.6320  208.5690  157.0600 S   0  0  0  0  0  0  0  0  0  0  0  0
  162.1080  210.3060  157.2610 C   0  0  0  0  0  2  0  0  0  0  0  0
  163.0940  210.6860  156.1780 C   0  0  0  0  0  1  0  0  0  0  0  0
  1  3  1  0  0  0  0
  2  1  2  0  0  0  0
  2  6  1  0  0  0  0
  3  7  1  0  0  0  0
  3  4  2  0  0  0  0
  4 29  1  0  0  0  0
  5  4  1  0  0  0  0
  6  5  2  0  0  0  0
  7  8  1  0  0  0  0
  8 13  1  1  0  0  0
  9 15  1  0  0  0  0
 10  7  1  6  0  0  0
 10  8  1  0  0  0  0
 10 14  1  0  0  0  0
 12 13  1  1  0  0  0
 12 11  1  0  0  0  0
 14 16  1  6  0  0  0
 14 12  1  0  0  0  0
 15 11  1  0  0  0  0
 16  9  1  0  0  0  0
 17 18  1  1  0  0  0
 17  2  1  0  0  0  0
 19 17  1  0  0  0  0
 20 22  1  6  0  0  0
 20 25  1  0  0  0  0
 21 26  2  0  0  0  0
 24 20  1  0  0  0  0
 24 26  1  0  0  0  0
 25 23  1  0  0  0  0
 25 19  1  1  0  0  0
 26 23  1  0  0  0  0
 27 20  1  0  0  0  0
 28 27  1  0  0  0  0
 29 30  1  0  0  0  0
 30 31  1  0  0  0  0
 32 31  1  0  0  0  0
M  END
>  <MODEL>
8

>  <REMARK>
 VINA RESULT:      -7.0      1.982      3.066
  Name = 
  8 active torsions:
  status: ('A' for Active; 'I' for Inactive)
    1  A    between atoms: N_2  and  C_5
    2  A    between atoms: C_3  and  C_22
    3  A    between atoms: C_4  and  C_24
    4  A    between atoms: C_13  and  S_29
    5  A    between atoms: C_14  and  C_18
    6  A    between atoms: C_16  and  C_20
    7  A    between atoms: C_16  and  C_24
    8  A    between atoms: C_18  and  S_29
                            x       y       z     vdW  Elec       q    Type
                         _______ _______ _______ _____ _____    ______ ____

>  <TORSDO>
F 8

$$$$
=
 OpenBabel11062408303D

 32 36  0  0  1  0  0  0  0  0999 V2000
  161.9450  207.3940  149.8080 C   0  0  0  0  0  3  0  0  0  0  0  0
  161.5730  207.5790  151.1460 C   0  0  0  0  0  0  0  0  0  0  0  0
  161.7630  206.1560  149.1880 C   0  0  0  0  0  0  0  0  0  0  0  0
  161.2080  205.0850  149.9130 C   0  0  0  0  0  0  0  0  0  0  0  0
  160.8360  205.2730  151.2490 C   0  0  0  0  0  3  0  0  0  0  0  0
  161.0190  206.5150  151.8640 C   0  0  0  0  0  3  0  0  0  0  0  0
  162.1390  205.9990  147.8210 N   0  0  0  0  0  0  0  0  0  0  0  0
  162.2630  206.4850  146.4140 C   0  0  1  0  0  3  0  0  0  0  0  0
  160.4520  202.2760  145.3330 C   0  0  0  0  0  2  0  0  0  0  0  0
  162.6290  205.1720  146.6760 C   0  0  2  0  0  3  0  0  0  0  0  0
  159.4630  204.6060  145.0690 C   0  0  0  0  0  2  0  0  0  0  0  0
  160.8280  205.1000  145.1550 N   0  0  1  0  0  0  0  0  0  0  0  0
  160.9050  206.4320  145.7140 C   0  0  0  0  0  2  0  0  0  0  0  0
  161.4800  204.3280  146.1820 C   0  0  1  0  0  3  0  0  0  0  0  0
  159.5150  203.1770  144.5010 C   0  0  0  0  0  2  0  0  0  0  0  0
  161.7990  202.9520  145.6350 C   0  0  0  0  0  2  0  0  0  0  0  0
  161.7240  208.9100  151.8190 C   0  0  1  0  0  3  0  0  0  0  0  0
  162.3300  209.9260  150.8680 C   0  0  0  0  0  1  0  0  0  0  0  0
  160.3980  209.4330  152.3590 C   0  0  0  0  0  2  0  0  0  0  0  0
  160.0140  211.0510  154.3830 C   0  0  2  0  0  0  0  0  0  0  0  0
  163.1730  210.7130  155.8250 O   0  0  0  0  0  0  0  0  0  0  0  0
  159.8610  212.0880  153.2770 C   0  0  0  0  0  1  0  0  0  0  0  0
  161.8370  209.4730  154.3430 N   0  0  0  0  0  2  0  0  0  0  0  0
  161.0560  211.4700  155.2540 O   0  0  0  0  0  0  0  0  0  0  0  0
  160.4720  209.6480  153.8700 C   0  0  2  0  0  3  0  0  0  0  0  0
  162.0950  210.5710  155.1920 C   0  0  0  0  0  0  0  0  0  0  0  0
  158.6990  210.9470  155.1460 C   0  0  0  0  0  2  0  0  0  0  0  0
  157.6350  211.4120  154.3710 O   0  0  0  0  0  1  0  0  0  0  0  0
  160.9710  203.7570  149.2780 C   0  0  0  0  0  2  0  0  0  0  0  0
  160.8280  202.4760  150.5560 S   0  0  0  0  0  0  0  0  0  0  0  0
  160.1170  201.2930  149.3800 C   0  0  0  0  0  2  0  0  0  0  0  0
  161.2090  200.7630  148.4770 C   0  0  0  0  0  1  0  0  0  0  0  0
  1  2  1  0  0  0  0
  2 17  1  0  0  0  0
  2  6  2  0  0  0  0
  3  1  2  0  0  0  0
  3  4  1  0  0  0  0
  4  5  2  0  0  0  0
  5  6  1  0  0  0  0
  7  3  1  0  0  0  0
  8 13  1  6  0  0  0
  8 10  1  0  0  0  0
  8  7  1  0  0  0  0
  9 16  1  0  0  0  0
 10  7  1  1  0  0  0
 12 11  1  1  0  0  0
 12 13  1  0  0  0  0
 12 14  1  0  0  0  0
 14 16  1  6  0  0  0
 14 10  1  0  0  0  0
 15 11  1  0  0  0  0
 15  9  1  0  0  0  0
 17 18  1  6  0  0  0
 17 19  1  0  0  0  0
 20 22  1  6  0  0  0
 20 27  1  0  0  0  0
 20 24  1  0  0  0  0
 23 26  1  0  0  0  0
 25 19  1  6  0  0  0
 25 23  1  0  0  0  0
 25 20  1  0  0  0  0
 26 24  1  0  0  0  0
 26 21  2  0  0  0  0
 28 27  1  0  0  0  0
 29  4  1  0  0  0  0
 29 30  1  0  0  0  0
 31 30  1  0  0  0  0
 32 31  1  0  0  0  0
M  END
>  <MODEL>
9

>  <REMARK>
 VINA RESULT:      -7.0      4.331      9.105
  Name = 
  8 active torsions:
  status: ('A' for Active; 'I' for Inactive)
    1  A    between atoms: N_2  and  C_5
    2  A    between atoms: C_3  and  C_22
    3  A    between atoms: C_4  and  C_24
    4  A    between atoms: C_13  and  S_29
    5  A    between atoms: C_14  and  C_18
    6  A    between atoms: C_16  and  C_20
    7  A    between atoms: C_16  and  C_24
    8  A    between atoms: C_18  and  S_29
                            x       y       z     vdW  Elec       q    Type
                         _______ _______ _______ _____ _____    ______ ____

>  <TORSDO>
F 8

$$$$
