=
 OpenBabel11062408113D

 34 38  0  0  1  0  0  0  0  0999 V2000
  162.2490  210.9550  149.1790 C   0  0  0  0  0  0  0  0  0  0  0  0
  160.4530  212.0220  150.4850 C   0  0  0  0  0  0  0  0  0  0  0  0
  161.4580  209.7730  151.2860 C   0  0  0  0  0  0  0  0  0  0  0  0
  161.1920  208.3960  153.3030 C   0  0  0  0  0  0  0  0  0  0  0  0
  162.3650  212.1440  148.3900 N   0  0  0  0  0  2  0  0  0  0  0  0
  160.4740  213.0380  149.6110 C   0  0  0  0  0  3  0  0  0  0  0  0
  161.4710  210.9120  153.4780 C   0  0  0  0  0  3  0  0  0  0  0  0
  161.6520  211.0930  150.5610 C   0  0  0  0  0  0  0  0  0  0  0  0
  161.6050  210.8160  154.8030 C   0  0  0  0  0  3  0  0  0  0  0  0
  160.9540  208.3590  154.7830 C   0  0  0  0  0  2  0  0  0  0  0  0
  161.5510  213.1400  148.5970 C   0  0  0  0  0  3  0  0  0  0  0  0
  161.5770  208.5030  150.5300 C   0  0  0  0  0  0  0  0  0  0  0  0
  162.4440  209.7670  148.6060 C   0  0  0  0  0  3  0  0  0  0  0  0
  159.0960  211.9160  151.5950 Cl  0  0  0  0  0  0  0  0  0  0  0  0
  161.1370  207.2920  152.6210 N   0  0  0  0  0  0  0  0  0  0  0  0
  161.2960  207.2630  151.2190 N   0  0  0  0  0  0  0  0  0  0  0  0
  161.7420  209.4760  155.4810 C   0  0  2  0  0  3  0  0  0  0  0  0
  161.3660  209.7060  152.6280 C   0  0  0  0  0  0  0  0  0  0  0  0
  162.0960  208.5150  149.2950 C   0  0  0  0  0  3  0  0  0  0  0  0
  160.9060  203.5750  150.6670 C   0  0  0  0  0  0  0  0  0  0  0  0
  160.7950  203.5130  149.2760 C   0  0  0  0  0  3  0  0  0  0  0  0
  161.1510  205.9940  150.5480 C   0  0  0  0  0  0  0  0  0  0  0  0
  160.8530  204.6830  148.5170 C   0  0  0  0  0  3  0  0  0  0  0  0
  161.0780  204.8110  151.2990 C   0  0  0  0  0  3  0  0  0  0  0  0
  161.0260  205.9170  149.1500 C   0  0  0  0  0  3  0  0  0  0  0  0
  160.8430  202.4410  151.4040 F   0  0  0  0  0  0  0  0  0  0  0  0
  161.4420  209.5540  156.9120 N   0  0  0  0  0  2  0  0  0  0  0  0
  160.9550  210.8860  157.2610 C   0  0  0  0  0  2  0  0  0  0  0  0
  158.9470  209.7140  156.7140 O   0  0  0  0  0  1  0  0  0  0  0  0
  159.4340  210.9010  157.2610 C   0  0  2  0  0  3  0  0  0  0  0  0
  158.8710  212.1080  156.5090 C   0  0  0  0  0  2  0  0  0  0  0  0
  156.5120  212.1140  156.8830 O   0  0  0  0  0  0  0  0  0  0  0  0
  157.4550  211.9090  156.0740 C   0  0  0  0  0  0  0  0  0  0  0  0
  157.1690  211.5110  154.7380 N   0  0  0  0  0  1  0  0  0  0  0  0
  1  8  1  0  0  0  0
  2  8  2  0  0  0  0
  2 14  1  0  0  0  0
  3 18  2  0  0  0  0
  4 10  1  0  0  0  0
  5 11  1  0  0  0  0
  5  1  1  0  0  0  0
  6  2  1  0  0  0  0
  7  9  2  0  0  0  0
  8  3  1  0  0  0  0
  9 17  1  0  0  0  0
 10 17  1  0  0  0  0
 11  6  2  0  0  0  0
 12 16  1  0  0  0  0
 12  3  1  0  0  0  0
 13  1  2  0  0  0  0
 13 19  1  0  0  0  0
 15  4  2  0  0  0  0
 16 15  1  0  0  0  0
 17 27  1  1  0  0  0
 18  4  1  0  0  0  0
 18  7  1  0  0  0  0
 19 12  2  0  0  0  0
 20 24  1  0  0  0  0
 20 26  1  0  0  0  0
 21 20  2  0  0  0  0
 22 16  1  0  0  0  0
 22 24  2  0  0  0  0
 23 25  2  0  0  0  0
 23 21  1  0  0  0  0
 25 22  1  0  0  0  0
 27 28  1  0  0  0  0
 28 30  1  0  0  0  0
 30 29  1  6  0  0  0
 31 30  1  0  0  0  0
 33 31  1  0  0  0  0
 33 32  2  0  0  0  0
 34 33  1  0  0  0  0
M  END
>  <MODEL>
1

>  <REMARK>
 VINA RESULT:      -6.8      0.000      0.000
  Name = 
  6 active torsions:
  status: ('A' for Active; 'I' for Inactive)
    1  A    between atoms: N_3  and  C_13
    2  A    between atoms: N_3  and  C_29
    3  A    between atoms: C_12  and  N_28
    4  A    between atoms: C_13  and  C_33
    5  A    between atoms: C_20  and  C_22
    6  A    between atoms: C_22  and  C_33
                            x       y       z     vdW  Elec       q    Type
                         _______ _______ _______ _____ _____    ______ ____

>  <TORSDO>
F 6

$$$$
=
 OpenBabel11062408113D

 34 38  0  0  1  0  0  0  0  0999 V2000
  161.7890  205.4130  152.2760 C   0  0  0  0  0  0  0  0  0  0  0  0
  160.6640  205.6670  150.0980 C   0  0  0  0  0  0  0  0  0  0  0  0
  161.3650  207.7740  151.4310 C   0  0  0  0  0  0  0  0  0  0  0  0
  161.3720  210.1840  150.9520 C   0  0  0  0  0  0  0  0  0  0  0  0
  161.9300  204.0110  152.0260 N   0  0  0  0  0  0  0  0  0  0  0  0
  160.6570  204.3300  149.9910 C   0  0  0  0  0  3  0  0  0  0  0  0
  162.1960  208.5150  149.2260 C   0  0  0  0  0  3  0  0  0  0  0  0
  161.6240  206.3200  151.0770 C   0  0  1  0  0  3  0  0  0  0  0  0
  162.6570  209.5120  148.4670 C   0  0  0  0  0  3  0  0  0  0  0  0
  161.5360  211.2650  149.9270 C   0  0  0  0  0  2  0  0  0  0  0  0
  161.4220  203.4920  150.9450 C   0  0  0  0  0  3  0  0  0  0  0  0
  161.0160  208.1330  152.8270 C   0  0  0  0  0  0  0  0  0  0  0  0
  161.5760  205.8400  153.5220 C   0  0  0  0  0  3  0  0  0  0  0  0
  159.6610  206.5880  148.9900 Cl  0  0  0  0  0  0  0  0  0  0  0  0
  160.9130  210.4850  152.1290 N   0  0  0  0  0  0  0  0  0  0  0  0
  160.6820  209.5090  153.1210 N   0  0  0  0  0  0  0  0  0  0  0  0
  162.6940  210.9320  148.9750 C   0  0  2  0  0  3  0  0  0  0  0  0
  161.6240  208.7730  150.5650 C   0  0  0  0  0  0  0  0  0  0  0  0
  161.1770  207.2280  153.8020 C   0  0  0  0  0  3  0  0  0  0  0  0
  158.3270  211.0770  155.5800 C   0  0  0  0  0  0  0  0  0  0  0  0
  158.9200  210.7270  156.7950 C   0  0  0  0  0  3  0  0  0  0  0  0
  160.1070  209.9380  154.3730 C   0  0  0  0  0  0  0  0  0  0  0  0
  160.0990  209.9790  156.8070 C   0  0  0  0  0  3  0  0  0  0  0  0
  158.9160  210.6800  154.3750 C   0  0  0  0  0  3  0  0  0  0  0  0
  160.6860  209.5820  155.6030 C   0  0  0  0  0  3  0  0  0  0  0  0
  157.1800  211.7970  155.5680 F   0  0  0  0  0  0  0  0  0  0  0  0
  162.8090  211.9010  147.8830 N   0  0  0  0  0  2  0  0  0  0  0  0
  161.7400  212.8930  147.9640 C   0  0  0  0  0  2  0  0  0  0  0  0
  160.2320  212.1240  146.2780 O   0  0  0  0  0  1  0  0  0  0  0  0
  161.1470  213.1320  146.5840 C   0  0  2  0  0  3  0  0  0  0  0  0
  162.2250  213.2240  145.5030 C   0  0  0  0  0  2  0  0  0  0  0  0
  162.0410  212.4140  143.2640 O   0  0  0  0  0  0  0  0  0  0  0  0
  161.6560  213.2520  144.1210 C   0  0  0  0  0  0  0  0  0  0  0  0
  160.6600  214.2090  143.7790 N   0  0  0  0  0  1  0  0  0  0  0  0
  1 13  2  0  0  0  0
  3 12  1  0  0  0  0
  4 15  2  0  0  0  0
  5  1  1  0  0  0  0
  6  2  2  0  0  0  0
  6 11  1  0  0  0  0
  7 18  1  0  0  0  0
  8  2  1  1  0  0  0
  8  3  1  0  0  0  0
  8  1  1  0  0  0  0
  9 17  1  0  0  0  0
  9  7  2  0  0  0  0
 10  4  1  0  0  0  0
 11  5  2  0  0  0  0
 12 16  1  0  0  0  0
 12 19  2  0  0  0  0
 13 19  1  0  0  0  0
 14  2  1  0  0  0  0
 15 16  1  0  0  0  0
 16 22  1  0  0  0  0
 17 27  1  6  0  0  0
 17 10  1  0  0  0  0
 18  4  1  0  0  0  0
 18  3  2  0  0  0  0
 20 21  1  0  0  0  0
 21 23  2  0  0  0  0
 22 24  1  0  0  0  0
 22 25  2  0  0  0  0
 24 20  2  0  0  0  0
 25 23  1  0  0  0  0
 26 20  1  0  0  0  0
 27 28  1  0  0  0  0
 30 29  1  6  0  0  0
 30 28  1  0  0  0  0
 31 30  1  0  0  0  0
 32 33  2  0  0  0  0
 33 31  1  0  0  0  0
 34 33  1  0  0  0  0
M  END
>  <MODEL>
2

>  <REMARK>
 VINA RESULT:      -6.7      4.162      8.162
  Name = 
  6 active torsions:
  status: ('A' for Active; 'I' for Inactive)
    1  A    between atoms: N_3  and  C_13
    2  A    between atoms: N_3  and  C_29
    3  A    between atoms: C_12  and  N_28
    4  A    between atoms: C_13  and  C_33
    5  A    between atoms: C_20  and  C_22
    6  A    between atoms: C_22  and  C_33
                            x       y       z     vdW  Elec       q    Type
                         _______ _______ _______ _____ _____    ______ ____

>  <TORSDO>
F 6

$$$$
=
 OpenBabel11062408113D

 34 38  0  0  1  0  0  0  0  0999 V2000
  161.8250  205.4130  152.2460 C   0  0  0  0  0  0  0  0  0  0  0  0
  160.6730  205.6640  150.0830 C   0  0  0  0  0  0  0  0  0  0  0  0
  161.3800  207.7730  151.4100 C   0  0  0  0  0  0  0  0  0  0  0  0
  161.3710  210.1830  150.9350 C   0  0  0  0  0  0  0  0  0  0  0  0
  161.9700  204.0120  151.9920 N   0  0  0  0  0  0  0  0  0  0  0  0
  160.6710  204.3280  149.9740 C   0  0  0  0  0  3  0  0  0  0  0  0
  162.1810  208.5210  149.1960 C   0  0  0  0  0  3  0  0  0  0  0  0
  161.6420  206.3200  151.0510 C   0  0  1  0  0  3  0  0  0  0  0  0
  162.6270  209.5210  148.4330 C   0  0  0  0  0  3  0  0  0  0  0  0
  161.5170  211.2670  149.9100 C   0  0  0  0  0  2  0  0  0  0  0  0
  161.4510  203.4920  150.9170 C   0  0  0  0  0  3  0  0  0  0  0  0
  161.0470  208.1280  152.8110 C   0  0  0  0  0  0  0  0  0  0  0  0
  161.6260  205.8360  153.4950 C   0  0  0  0  0  3  0  0  0  0  0  0
  159.6520  206.5830  148.9890 Cl  0  0  0  0  0  0  0  0  0  0  0  0
  160.9250  210.4800  152.1190 N   0  0  0  0  0  0  0  0  0  0  0  0
  160.7110  209.5020  153.1110 N   0  0  0  0  0  0  0  0  0  0  0  0
  162.6640  210.9400  148.9430 C   0  0  2  0  0  3  0  0  0  0  0  0
  161.6240  208.7740  150.5430 C   0  0  0  0  0  0  0  0  0  0  0  0
  161.2240  207.2220  153.7820 C   0  0  0  0  0  3  0  0  0  0  0  0
  158.3920  211.0780  155.6010 C   0  0  0  0  0  0  0  0  0  0  0  0
  158.9880  210.7080  156.8080 C   0  0  0  0  0  3  0  0  0  0  0  0
  160.1490  209.9260  154.3710 C   0  0  0  0  0  0  0  0  0  0  0  0
  160.1560  209.9430  156.8060 C   0  0  0  0  0  3  0  0  0  0  0  0
  158.9680  210.6840  154.3880 C   0  0  0  0  0  3  0  0  0  0  0  0
  160.7310  209.5500  155.5940 C   0  0  0  0  0  3  0  0  0  0  0  0
  157.2560  211.8140  155.6030 F   0  0  0  0  0  0  0  0  0  0  0  0
  162.7610  211.9120  147.8520 N   0  0  0  0  0  2  0  0  0  0  0  0
  161.7100  212.9190  147.9680 C   0  0  0  0  0  2  0  0  0  0  0  0
  161.4050  212.9550  145.5990 O   0  0  0  0  0  1  0  0  0  0  0  0
  160.7320  212.7860  146.8090 C   0  0  2  0  0  3  0  0  0  0  0  0
  159.5710  213.7750  146.9210 C   0  0  0  0  0  2  0  0  0  0  0  0
  158.3950  213.4660  148.9770 O   0  0  0  0  0  0  0  0  0  0  0  0
  158.4370  213.2450  147.7380 C   0  0  0  0  0  0  0  0  0  0  0  0
  157.3910  212.5110  147.1130 N   0  0  0  0  0  1  0  0  0  0  0  0
  1 13  2  0  0  0  0
  3 12  1  0  0  0  0
  4 15  2  0  0  0  0
  5  1  1  0  0  0  0
  6  2  2  0  0  0  0
  6 11  1  0  0  0  0
  7 18  1  0  0  0  0
  8  2  1  1  0  0  0
  8  3  1  0  0  0  0
  8  1  1  0  0  0  0
  9 17  1  0  0  0  0
  9  7  2  0  0  0  0
 10  4  1  0  0  0  0
 11  5  2  0  0  0  0
 12 16  1  0  0  0  0
 12 19  2  0  0  0  0
 13 19  1  0  0  0  0
 14  2  1  0  0  0  0
 15 16  1  0  0  0  0
 16 22  1  0  0  0  0
 17 27  1  6  0  0  0
 17 10  1  0  0  0  0
 18  4  1  0  0  0  0
 18  3  2  0  0  0  0
 20 26  1  0  0  0  0
 20 21  1  0  0  0  0
 22 24  1  0  0  0  0
 22 25  2  0  0  0  0
 23 21  2  0  0  0  0
 24 20  2  0  0  0  0
 25 23  1  0  0  0  0
 27 28  1  0  0  0  0
 30 29  1  6  0  0  0
 30 31  1  0  0  0  0
 30 28  1  0  0  0  0
 31 33  1  0  0  0  0
 33 32  2  0  0  0  0
 34 33  1  0  0  0  0
M  END
>  <MODEL>
3

>  <REMARK>
 VINA RESULT:      -6.7      3.699      7.520
  Name = 
  6 active torsions:
  status: ('A' for Active; 'I' for Inactive)
    1  A    between atoms: N_3  and  C_13
    2  A    between atoms: N_3  and  C_29
    3  A    between atoms: C_12  and  N_28
    4  A    between atoms: C_13  and  C_33
    5  A    between atoms: C_20  and  C_22
    6  A    between atoms: C_22  and  C_33
                            x       y       z     vdW  Elec       q    Type
                         _______ _______ _______ _____ _____    ______ ____

>  <TORSDO>
F 6

$$$$
=
 OpenBabel11062408113D

 34 38  0  0  1  0  0  0  0  0999 V2000
  160.4410  208.8810  154.9790 C   0  0  0  0  0  0  0  0  0  0  0  0
  162.4550  210.2300  154.5340 C   0  0  0  0  0  0  0  0  0  0  0  0
  161.3240  208.9370  152.5950 C   0  0  0  0  0  0  0  0  0  0  0  0
  161.6580  208.8550  150.1620 C   0  0  0  0  0  0  0  0  0  0  0  0
  160.3620  209.4540  156.2880 N   0  0  0  0  0  0  0  0  0  0  0  0
  162.4440  210.5990  155.8220 C   0  0  0  0  0  3  0  0  0  0  0  0
  161.6420  211.0740  151.3950 C   0  0  0  0  0  3  0  0  0  0  0  0
  161.1850  209.6640  153.9210 C   0  0  1  0  0  3  0  0  0  0  0  0
  161.6340  211.7310  150.2330 C   0  0  0  0  0  3  0  0  0  0  0  0
  162.0400  209.5950  148.9160 C   0  0  0  0  0  2  0  0  0  0  0  0
  161.2850  210.2800  156.6890 C   0  0  0  0  0  3  0  0  0  0  0  0
  161.0070  207.4910  152.5210 C   0  0  0  0  0  0  0  0  0  0  0  0
  160.0760  207.6110  154.7950 C   0  0  0  0  0  3  0  0  0  0  0  0
  163.9000  210.5590  153.5930 Cl  0  0  0  0  0  0  0  0  0  0  0  0
  161.5370  207.5620  150.1240 N   0  0  0  0  0  0  0  0  0  0  0  0
  161.2350  206.7990  151.2710 N   0  0  0  0  0  0  0  0  0  0  0  0
  161.4370  211.0070  148.9250 C   0  0  2  0  0  3  0  0  0  0  0  0
  161.5440  209.5990  151.4420 C   0  0  0  0  0  0  0  0  0  0  0  0
  160.3700  206.9010  153.5410 C   0  0  0  0  0  3  0  0  0  0  0  0
  160.9350  203.3980  149.7220 C   0  0  0  0  0  0  0  0  0  0  0  0
  161.1630  202.5700  150.8240 C   0  0  0  0  0  3  0  0  0  0  0  0
  161.1880  205.3630  151.1360 C   0  0  0  0  0  0  0  0  0  0  0  0
  161.4110  203.1290  152.0790 C   0  0  0  0  0  3  0  0  0  0  0  0
  160.9530  204.7880  149.8780 C   0  0  0  0  0  3  0  0  0  0  0  0
  161.4280  204.5180  152.2330 C   0  0  0  0  0  3  0  0  0  0  0  0
  160.7010  202.8570  148.5040 F   0  0  0  0  0  0  0  0  0  0  0  0
  161.8870  211.8080  147.7840 N   0  0  0  0  0  2  0  0  0  0  0  0
  161.4560  213.1960  147.9320 C   0  0  0  0  0  2  0  0  0  0  0  0
  160.1580  214.2890  146.2500 O   0  0  0  0  0  1  0  0  0  0  0  0
  160.0800  213.3830  147.3090 C   0  0  2  0  0  3  0  0  0  0  0  0
  159.0430  213.8440  148.3340 C   0  0  0  0  0  2  0  0  0  0  0  0
  157.5070  212.4280  147.1760 O   0  0  0  0  0  0  0  0  0  0  0  0
  157.7380  213.1270  148.1970 C   0  0  0  0  0  0  0  0  0  0  0  0
  156.7650  213.2140  149.2310 N   0  0  0  0  0  1  0  0  0  0  0  0
  1  5  1  0  0  0  0
  2  6  2  0  0  0  0
  4 18  1  0  0  0  0
  5 11  2  0  0  0  0
  6 11  1  0  0  0  0
  7 18  1  0  0  0  0
  8  3  1  6  0  0  0
  8  2  1  0  0  0  0
  8  1  1  0  0  0  0
  9  7  2  0  0  0  0
 10 17  1  0  0  0  0
 10  4  1  0  0  0  0
 12  3  1  0  0  0  0
 12 19  2  0  0  0  0
 13  1  2  0  0  0  0
 14  2  1  0  0  0  0
 15  4  2  0  0  0  0
 15 16  1  0  0  0  0
 16 12  1  0  0  0  0
 17 27  1  6  0  0  0
 17  9  1  0  0  0  0
 18  3  2  0  0  0  0
 19 13  1  0  0  0  0
 20 24  2  0  0  0  0
 20 21  1  0  0  0  0
 21 23  2  0  0  0  0
 22 16  1  0  0  0  0
 22 25  2  0  0  0  0
 23 25  1  0  0  0  0
 24 22  1  0  0  0  0
 26 20  1  0  0  0  0
 27 28  1  0  0  0  0
 30 29  1  6  0  0  0
 30 28  1  0  0  0  0
 30 31  1  0  0  0  0
 32 33  2  0  0  0  0
 33 31  1  0  0  0  0
 33 34  1  0  0  0  0
M  END
>  <MODEL>
4

>  <REMARK>
 VINA RESULT:      -6.4      3.167      6.024
  Name = 
  6 active torsions:
  status: ('A' for Active; 'I' for Inactive)
    1  A    between atoms: N_3  and  C_13
    2  A    between atoms: N_3  and  C_29
    3  A    between atoms: C_12  and  N_28
    4  A    between atoms: C_13  and  C_33
    5  A    between atoms: C_20  and  C_22
    6  A    between atoms: C_22  and  C_33
                            x       y       z     vdW  Elec       q    Type
                         _______ _______ _______ _____ _____    ______ ____

>  <TORSDO>
F 6

$$$$
=
 OpenBabel11062408113D

 34 38  0  0  1  0  0  0  0  0999 V2000
  160.4790  208.8840  154.9780 C   0  0  0  0  0  0  0  0  0  0  0  0
  162.4860  210.2390  154.5230 C   0  0  0  0  0  0  0  0  0  0  0  0
  161.3480  208.9450  152.5890 C   0  0  0  0  0  0  0  0  0  0  0  0
  161.6690  208.8660  150.1540 C   0  0  0  0  0  0  0  0  0  0  0  0
  160.4060  209.4560  156.2880 N   0  0  0  0  0  0  0  0  0  0  0  0
  162.4820  210.6080  155.8120 C   0  0  0  0  0  3  0  0  0  0  0  0
  161.6530  211.0840  151.3900 C   0  0  0  0  0  3  0  0  0  0  0  0
  161.2150  209.6700  153.9170 C   0  0  1  0  0  3  0  0  0  0  0  0
  161.6360  211.7420  150.2290 C   0  0  0  0  0  3  0  0  0  0  0  0
  162.0410  209.6090  148.9070 C   0  0  0  0  0  2  0  0  0  0  0  0
  161.3290  210.2840  156.6850 C   0  0  0  0  0  3  0  0  0  0  0  0
  161.0350  207.4980  152.5150 C   0  0  0  0  0  0  0  0  0  0  0  0
  160.1170  207.6140  154.7950 C   0  0  0  0  0  3  0  0  0  0  0  0
  163.9260  210.5740  153.5740 Cl  0  0  0  0  0  0  0  0  0  0  0  0
  161.5510  207.5730  150.1160 N   0  0  0  0  0  0  0  0  0  0  0  0
  161.2580  206.8080  151.2640 N   0  0  0  0  0  0  0  0  0  0  0  0
  161.4350  211.0190  148.9200 C   0  0  2  0  0  3  0  0  0  0  0  0
  161.5600  209.6080  151.4350 C   0  0  0  0  0  0  0  0  0  0  0  0
  160.4050  206.9050  153.5390 C   0  0  0  0  0  3  0  0  0  0  0  0
  160.9470  203.4080  149.7160 C   0  0  0  0  0  0  0  0  0  0  0  0
  161.1960  202.5790  150.8120 C   0  0  0  0  0  3  0  0  0  0  0  0
  161.2150  205.3720  151.1280 C   0  0  0  0  0  0  0  0  0  0  0  0
  161.4610  203.1380  152.0640 C   0  0  0  0  0  3  0  0  0  0  0  0
  160.9620  204.7980  149.8730 C   0  0  0  0  0  3  0  0  0  0  0  0
  161.4750  204.5270  152.2200 C   0  0  0  0  0  3  0  0  0  0  0  0
  160.6960  202.8670  148.5000 F   0  0  0  0  0  0  0  0  0  0  0  0
  161.8750  211.8220  147.7780 N   0  0  0  0  0  2  0  0  0  0  0  0
  161.3560  213.1840  147.8800 C   0  0  0  0  0  2  0  0  0  0  0  0
  158.9710  213.1940  147.7540 O   0  0  0  0  0  1  0  0  0  0  0  0
  160.1300  213.3420  146.9920 C   0  0  2  0  0  3  0  0  0  0  0  0
  160.1350  212.3540  145.8250 C   0  0  0  0  0  2  0  0  0  0  0  0
  159.7730  213.4690  143.7440 O   0  0  0  0  0  0  0  0  0  0  0  0
  160.6050  212.9720  144.5470 C   0  0  0  0  0  0  0  0  0  0  0  0
  161.9950  213.0210  144.2490 N   0  0  0  0  0  1  0  0  0  0  0  0
  1  5  1  0  0  0  0
  2  6  2  0  0  0  0
  4 18  1  0  0  0  0
  5 11  2  0  0  0  0
  6 11  1  0  0  0  0
  7 18  1  0  0  0  0
  8  3  1  6  0  0  0
  8  2  1  0  0  0  0
  8  1  1  0  0  0  0
  9  7  2  0  0  0  0
 10 17  1  0  0  0  0
 10  4  1  0  0  0  0
 12  3  1  0  0  0  0
 12 19  2  0  0  0  0
 13  1  2  0  0  0  0
 14  2  1  0  0  0  0
 15  4  2  0  0  0  0
 15 16  1  0  0  0  0
 16 12  1  0  0  0  0
 17 27  1  6  0  0  0
 17  9  1  0  0  0  0
 18  3  2  0  0  0  0
 19 13  1  0  0  0  0
 20 24  2  0  0  0  0
 20 21  1  0  0  0  0
 21 23  2  0  0  0  0
 22 16  1  0  0  0  0
 22 25  2  0  0  0  0
 23 25  1  0  0  0  0
 24 22  1  0  0  0  0
 26 20  1  0  0  0  0
 27 28  1  0  0  0  0
 30 29  1  1  0  0  0
 30 28  1  0  0  0  0
 31 30  1  0  0  0  0
 32 33  2  0  0  0  0
 33 31  1  0  0  0  0
 34 33  1  0  0  0  0
M  END
>  <MODEL>
5

>  <REMARK>
 VINA RESULT:      -6.2      3.377      6.685
  Name = 
  6 active torsions:
  status: ('A' for Active; 'I' for Inactive)
    1  A    between atoms: N_3  and  C_13
    2  A    between atoms: N_3  and  C_29
    3  A    between atoms: C_12  and  N_28
    4  A    between atoms: C_13  and  C_33
    5  A    between atoms: C_20  and  C_22
    6  A    between atoms: C_22  and  C_33
                            x       y       z     vdW  Elec       q    Type
                         _______ _______ _______ _____ _____    ______ ____

>  <TORSDO>
F 6

$$$$
=
 OpenBabel11062408113D

 34 38  0  0  1  0  0  0  0  0999 V2000
  158.0050  213.6180  155.5740 C   0  0  0  0  0  0  0  0  0  0  0  0
  156.8510  211.4510  155.7820 C   0  0  0  0  0  0  0  0  0  0  0  0
  158.8610  211.6810  154.1660 C   0  0  0  0  0  0  0  0  0  0  0  0
  160.1580  210.1010  152.8030 C   0  0  0  0  0  0  0  0  0  0  0  0
  157.2700  214.1040  156.7010 N   0  0  0  0  0  0  0  0  0  0  0  0
  156.0610  212.0060  156.7120 C   0  0  0  0  0  3  0  0  0  0  0  0
  159.5440  209.5450  155.2030 C   0  0  0  0  0  3  0  0  0  0  0  0
  158.1710  212.1210  155.4450 C   0  0  1  0  0  3  0  0  0  0  0  0
  160.3430  208.4770  155.1700 C   0  0  0  0  0  3  0  0  0  0  0  0
  160.7190  208.7180  152.6680 C   0  0  0  0  0  2  0  0  0  0  0  0
  156.3680  213.3480  157.2600 C   0  0  0  0  0  3  0  0  0  0  0  0
  159.0440  212.6580  153.0650 C   0  0  0  0  0  0  0  0  0  0  0  0
  158.3080  214.4530  154.5790 C   0  0  0  0  0  3  0  0  0  0  0  0
  156.3720  209.9000  155.1120 Cl  0  0  0  0  0  0  0  0  0  0  0  0
  160.1800  210.9010  151.7800 N   0  0  0  0  0  0  0  0  0  0  0  0
  159.6190  212.1940  151.8220 N   0  0  0  0  0  0  0  0  0  0  0  0
  161.2780  208.2310  154.0120 C   0  0  2  0  0  3  0  0  0  0  0  0
  159.4810  210.4890  154.0660 C   0  0  0  0  0  0  0  0  0  0  0  0
  158.8350  213.9610  153.2960 C   0  0  0  0  0  3  0  0  0  0  0  0
  160.8610  213.8640  148.7030 C   0  0  0  0  0  0  0  0  0  0  0  0
  159.6880  214.4390  148.2100 C   0  0  0  0  0  3  0  0  0  0  0  0
  159.6360  212.9790  150.6110 C   0  0  0  0  0  0  0  0  0  0  0  0
  158.4870  214.2830  148.9050 C   0  0  0  0  0  3  0  0  0  0  0  0
  160.8330  213.1330  149.8960 C   0  0  0  0  0  3  0  0  0  0  0  0
  158.4600  213.5530  150.0960 C   0  0  0  0  0  3  0  0  0  0  0  0
  162.0250  214.0100  148.0260 F   0  0  0  0  0  0  0  0  0  0  0  0
  161.7250  206.8380  153.9550 N   0  0  0  0  0  2  0  0  0  0  0  0
  160.8970  206.0730  153.0260 C   0  0  0  0  0  2  0  0  0  0  0  0
  162.7550  206.3340  151.5470 O   0  0  0  0  0  1  0  0  0  0  0  0
  161.7700  205.4340  151.9560 C   0  0  2  0  0  3  0  0  0  0  0  0
  160.9510  204.9530  150.7580 C   0  0  0  0  0  2  0  0  0  0  0  0
  160.9400  202.7460  151.6730 O   0  0  0  0  0  0  0  0  0  0  0  0
  160.9230  203.4630  150.6380 C   0  0  0  0  0  0  0  0  0  0  0  0
  160.8530  202.8520  149.3550 N   0  0  0  0  0  1  0  0  0  0  0  0
  1  5  1  0  0  0  0
  2  6  2  0  0  0  0
  4 18  1  0  0  0  0
  5 11  2  0  0  0  0
  6 11  1  0  0  0  0
  8  3  1  6  0  0  0
  8  1  1  0  0  0  0
  8  2  1  0  0  0  0
  9  7  2  0  0  0  0
 10  4  1  0  0  0  0
 10 17  1  0  0  0  0
 12 19  2  0  0  0  0
 12  3  1  0  0  0  0
 13  1  2  0  0  0  0
 14  2  1  0  0  0  0
 15 16  1  0  0  0  0
 15  4  2  0  0  0  0
 16 12  1  0  0  0  0
 17 27  1  6  0  0  0
 17  9  1  0  0  0  0
 18  3  2  0  0  0  0
 18  7  1  0  0  0  0
 19 13  1  0  0  0  0
 20 24  1  0  0  0  0
 21 20  2  0  0  0  0
 21 23  1  0  0  0  0
 22 16  1  0  0  0  0
 23 25  2  0  0  0  0
 24 22  2  0  0  0  0
 25 22  1  0  0  0  0
 26 20  1  0  0  0  0
 28 27  1  0  0  0  0
 30 29  1  6  0  0  0
 30 28  1  0  0  0  0
 31 30  1  0  0  0  0
 33 31  1  0  0  0  0
 33 32  2  0  0  0  0
 34 33  1  0  0  0  0
M  END
>  <MODEL>
6

>  <REMARK>
 VINA RESULT:      -6.2      3.733      7.646
  Name = 
  6 active torsions:
  status: ('A' for Active; 'I' for Inactive)
    1  A    between atoms: N_3  and  C_13
    2  A    between atoms: N_3  and  C_29
    3  A    between atoms: C_12  and  N_28
    4  A    between atoms: C_13  and  C_33
    5  A    between atoms: C_20  and  C_22
    6  A    between atoms: C_22  and  C_33
                            x       y       z     vdW  Elec       q    Type
                         _______ _______ _______ _____ _____    ______ ____

>  <TORSDO>
F 6

$$$$
=
 OpenBabel11062408113D

 34 38  0  0  1  0  0  0  0  0999 V2000
  159.8340  209.0400  138.1310 C   0  0  0  0  0  0  0  0  0  0  0  0
  161.7630  210.5690  138.0260 C   0  0  0  0  0  0  0  0  0  0  0  0
  159.7150  211.1890  139.4850 C   0  0  0  0  0  0  0  0  0  0  0  0
  159.2340  212.9830  141.0930 C   0  0  0  0  0  0  0  0  0  0  0  0
  160.6000  208.0460  137.4430 N   0  0  0  0  0  2  0  0  0  0  0  0
  162.3750  209.6800  137.2310 C   0  0  0  0  0  3  0  0  0  0  0  0
  161.4570  211.7590  141.1420 C   0  0  0  0  0  3  0  0  0  0  0  0
  160.5960  210.1090  138.8810 C   0  0  0  0  0  0  0  0  0  0  0  0
  161.7690  212.3510  142.2970 C   0  0  0  0  0  3  0  0  0  0  0  0
  159.7630  213.9060  142.1490 C   0  0  0  0  0  2  0  0  0  0  0  0
  161.8040  208.3260  137.0340 C   0  0  0  0  0  3  0  0  0  0  0  0
  158.2930  211.2830  139.0750 C   0  0  0  0  0  0  0  0  0  0  0  0
  158.5230  209.1310  137.9040 C   0  0  0  0  0  3  0  0  0  0  0  0
  162.4470  212.1830  138.1370 Cl  0  0  0  0  0  0  0  0  0  0  0  0
  158.0370  213.1710  140.6240 N   0  0  0  0  0  0  0  0  0  0  0  0
  157.4990  212.3760  139.5910 N   0  0  0  0  0  0  0  0  0  0  0  0
  160.7550  213.1670  143.0590 C   0  0  2  0  0  3  0  0  0  0  0  0
  160.1290  211.9470  140.5190 C   0  0  0  0  0  0  0  0  0  0  0  0
  157.7380  210.2800  138.3820 C   0  0  0  0  0  3  0  0  0  0  0  0
  153.7690  212.4410  139.2130 C   0  0  0  0  0  0  0  0  0  0  0  0
  153.6090  213.3900  138.2010 C   0  0  0  0  0  3  0  0  0  0  0  0
  156.1860  212.7090  139.0940 C   0  0  0  0  0  0  0  0  0  0  0  0
  154.7280  214.0060  137.6380 C   0  0  0  0  0  3  0  0  0  0  0  0
  155.0520  212.1060  139.6600 C   0  0  0  0  0  3  0  0  0  0  0  0
  156.0090  213.6710  138.0850 C   0  0  0  0  0  3  0  0  0  0  0  0
  152.6840  211.8470  139.7640 F   0  0  0  0  0  0  0  0  0  0  0  0
  161.3900  214.0620  144.0280 N   0  0  0  0  0  2  0  0  0  0  0  0
  162.2740  213.3110  144.9160 C   0  0  0  0  0  2  0  0  0  0  0  0
  160.5200  213.8880  146.4310 O   0  0  0  0  0  1  0  0  0  0  0  0
  161.5480  212.9710  146.2090 C   0  0  2  0  0  3  0  0  0  0  0  0
  162.4970  212.9290  147.4070 C   0  0  0  0  0  2  0  0  0  0  0  0
  161.2010  212.5970  149.3860 O   0  0  0  0  0  0  0  0  0  0  0  0
  161.9730  212.0920  148.5290 C   0  0  0  0  0  0  0  0  0  0  0  0
  162.3260  210.7160  148.6170 N   0  0  0  0  0  1  0  0  0  0  0  0
  1  8  1  0  0  0  0
  2 14  1  0  0  0  0
  2  8  2  0  0  0  0
  3 18  2  0  0  0  0
  4 10  1  0  0  0  0
  5  1  1  0  0  0  0
  6  2  1  0  0  0  0
  7  9  2  0  0  0  0
  8  3  1  0  0  0  0
  9 17  1  0  0  0  0
 10 17  1  0  0  0  0
 11  6  2  0  0  0  0
 11  5  1  0  0  0  0
 12  3  1  0  0  0  0
 12 16  1  0  0  0  0
 13  1  2  0  0  0  0
 13 19  1  0  0  0  0
 15  4  2  0  0  0  0
 16 15  1  0  0  0  0
 17 27  1  6  0  0  0
 18  4  1  0  0  0  0
 18  7  1  0  0  0  0
 19 12  2  0  0  0  0
 20 24  1  0  0  0  0
 20 26  1  0  0  0  0
 21 20  2  0  0  0  0
 22 16  1  0  0  0  0
 22 24  2  0  0  0  0
 23 25  2  0  0  0  0
 23 21  1  0  0  0  0
 25 22  1  0  0  0  0
 27 28  1  0  0  0  0
 28 30  1  0  0  0  0
 30 29  1  1  0  0  0
 30 31  1  0  0  0  0
 31 33  1  0  0  0  0
 33 34  1  0  0  0  0
 33 32  2  0  0  0  0
M  END
>  <MODEL>
7

>  <REMARK>
 VINA RESULT:      -5.9      9.805     12.874
  Name = 
  6 active torsions:
  status: ('A' for Active; 'I' for Inactive)
    1  A    between atoms: N_3  and  C_13
    2  A    between atoms: N_3  and  C_29
    3  A    between atoms: C_12  and  N_28
    4  A    between atoms: C_13  and  C_33
    5  A    between atoms: C_20  and  C_22
    6  A    between atoms: C_22  and  C_33
                            x       y       z     vdW  Elec       q    Type
                         _______ _______ _______ _____ _____    ______ ____

>  <TORSDO>
F 6

$$$$
=
 OpenBabel11062408113D

 34 38  0  0  1  0  0  0  0  0999 V2000
  160.4780  207.5040  155.0260 C   0  0  0  0  0  0  0  0  0  0  0  0
  161.9410  209.4200  155.5360 C   0  0  0  0  0  0  0  0  0  0  0  0
  160.9060  209.1930  153.1730 C   0  0  0  0  0  0  0  0  0  0  0  0
  160.8440  210.6290  151.1810 C   0  0  0  0  0  0  0  0  0  0  0  0
  160.4610  207.1630  156.4160 N   0  0  0  0  0  0  0  0  0  0  0  0
  162.0410  208.9590  156.7910 C   0  0  0  0  0  3  0  0  0  0  0  0
  160.4220  211.5940  153.4900 C   0  0  0  0  0  3  0  0  0  0  0  0
  160.7930  208.9380  154.6660 C   0  0  1  0  0  3  0  0  0  0  0  0
  160.0420  212.7530  152.9470 C   0  0  0  0  0  3  0  0  0  0  0  0
  160.7960  212.0230  150.6320 C   0  0  0  0  0  2  0  0  0  0  0  0
  161.1740  207.8520  157.2600 C   0  0  0  0  0  3  0  0  0  0  0  0
  160.9910  208.0410  152.2430 C   0  0  0  0  0  0  0  0  0  0  0  0
  160.4510  206.5340  154.1120 C   0  0  0  0  0  3  0  0  0  0  0  0
  163.0650  210.6690  155.0240 Cl  0  0  0  0  0  0  0  0  0  0  0  0
  161.0780  209.6350  150.3780 N   0  0  0  0  0  0  0  0  0  0  0  0
  161.1920  208.3060  150.8360 N   0  0  0  0  0  0  0  0  0  0  0  0
  159.8390  212.8930  151.4590 C   0  0  2  0  0  3  0  0  0  0  0  0
  160.7420  210.4220  152.6470 C   0  0  0  0  0  0  0  0  0  0  0  0
  160.7180  206.8080  152.6910 C   0  0  0  0  0  3  0  0  0  0  0  0
  161.3500  204.9720  149.1290 C   0  0  0  0  0  0  0  0  0  0  0  0
  162.0780  205.2830  147.9780 C   0  0  0  0  0  3  0  0  0  0  0  0
  161.5200  207.2830  149.8720 C   0  0  0  0  0  0  0  0  0  0  0  0
  162.5220  206.5890  147.7650 C   0  0  0  0  0  3  0  0  0  0  0  0
  161.0680  205.9690  150.0680 C   0  0  0  0  0  3  0  0  0  0  0  0
  162.2410  207.5850  148.7040 C   0  0  0  0  0  3  0  0  0  0  0  0
  160.9130  203.7070  149.3340 F   0  0  0  0  0  0  0  0  0  0  0  0
  159.8560  214.2940  151.0340 N   0  0  0  0  0  2  0  0  0  0  0  0
  160.6710  214.4530  149.8320 C   0  0  0  0  0  2  0  0  0  0  0  0
  158.4660  214.1480  148.9630 O   0  0  0  0  0  1  0  0  0  0  0  0
  159.7870  214.4050  148.5940 C   0  0  2  0  0  3  0  0  0  0  0  0
  160.2730  213.3680  147.5810 C   0  0  0  0  0  2  0  0  0  0  0  0
  159.0760  214.4070  145.7940 O   0  0  0  0  0  0  0  0  0  0  0  0
  160.1320  213.8320  146.1670 C   0  0  0  0  0  0  0  0  0  0  0  0
  161.2000  213.6460  145.2450 N   0  0  0  0  0  1  0  0  0  0  0  0
  1  5  1  0  0  0  0
  2  6  2  0  0  0  0
  4 18  1  0  0  0  0
  5 11  2  0  0  0  0
  6 11  1  0  0  0  0
  8  3  1  6  0  0  0
  8  1  1  0  0  0  0
  8  2  1  0  0  0  0
  9  7  2  0  0  0  0
 10  4  1  0  0  0  0
 10 17  1  0  0  0  0
 12 19  2  0  0  0  0
 12  3  1  0  0  0  0
 13  1  2  0  0  0  0
 14  2  1  0  0  0  0
 15 16  1  0  0  0  0
 15  4  2  0  0  0  0
 16 12  1  0  0  0  0
 17 27  1  6  0  0  0
 17  9  1  0  0  0  0
 18  3  2  0  0  0  0
 18  7  1  0  0  0  0
 19 13  1  0  0  0  0
 20 26  1  0  0  0  0
 20 24  1  0  0  0  0
 21 20  2  0  0  0  0
 22 24  2  0  0  0  0
 22 16  1  0  0  0  0
 23 21  1  0  0  0  0
 23 25  2  0  0  0  0
 25 22  1  0  0  0  0
 28 27  1  0  0  0  0
 30 29  1  1  0  0  0
 30 28  1  0  0  0  0
 31 30  1  0  0  0  0
 32 33  2  0  0  0  0
 33 31  1  0  0  0  0
 34 33  1  0  0  0  0
M  END
>  <MODEL>
8

>  <REMARK>
 VINA RESULT:      -5.6      3.182      6.260
  Name = 
  6 active torsions:
  status: ('A' for Active; 'I' for Inactive)
    1  A    between atoms: N_3  and  C_13
    2  A    between atoms: N_3  and  C_29
    3  A    between atoms: C_12  and  N_28
    4  A    between atoms: C_13  and  C_33
    5  A    between atoms: C_20  and  C_22
    6  A    between atoms: C_22  and  C_33
                            x       y       z     vdW  Elec       q    Type
                         _______ _______ _______ _____ _____    ______ ____

>  <TORSDO>
F 6

$$$$
=
 OpenBabel11062408113D

 34 38  0  0  1  0  0  0  0  0999 V2000
  161.8860  204.5120  151.1060 C   0  0  0  0  0  0  0  0  0  0  0  0
  160.4790  205.3640  149.2710 C   0  0  0  0  0  0  0  0  0  0  0  0
  161.4710  207.0180  150.9990 C   0  0  0  0  0  0  0  0  0  0  0  0
  161.5370  209.4670  151.1900 C   0  0  0  0  0  0  0  0  0  0  0  0
  161.9170  203.2300  150.4700 N   0  0  0  0  0  0  0  0  0  0  0  0
  160.3870  204.1080  148.8110 C   0  0  0  0  0  3  0  0  0  0  0  0
  162.0190  208.3250  148.9750 C   0  0  0  0  0  3  0  0  0  0  0  0
  161.6010  205.7130  150.2330 C   0  0  1  0  0  3  0  0  0  0  0  0
  162.4190  209.4850  148.4520 C   0  0  0  0  0  3  0  0  0  0  0  0
  161.6110  210.7850  150.4810 C   0  0  0  0  0  2  0  0  0  0  0  0
  161.2340  203.0320  149.3790 C   0  0  0  0  0  3  0  0  0  0  0  0
  161.3430  206.9860  152.4760 C   0  0  0  0  0  0  0  0  0  0  0  0
  161.8750  204.5840  152.4370 C   0  0  0  0  0  3  0  0  0  0  0  0
  159.3790  206.5650  148.6160 Cl  0  0  0  0  0  0  0  0  0  0  0  0
  161.2660  209.4400  152.4600 N   0  0  0  0  0  0  0  0  0  0  0  0
  161.1270  208.2330  153.1760 N   0  0  0  0  0  0  0  0  0  0  0  0
  162.6020  210.7110  149.3110 C   0  0  2  0  0  3  0  0  0  0  0  0
  161.6570  208.2130  150.4050 C   0  0  0  0  0  0  0  0  0  0  0  0
  161.5930  205.8470  153.1370 C   0  0  0  0  0  3  0  0  0  0  0  0
  160.2560  209.6580  156.5320 C   0  0  0  0  0  0  0  0  0  0  0  0
  159.9720  208.5010  157.2610 C   0  0  0  0  0  3  0  0  0  0  0  0
  160.7590  208.3100  154.5690 C   0  0  0  0  0  0  0  0  0  0  0  0
  160.0720  207.2490  156.6500 C   0  0  0  0  0  3  0  0  0  0  0  0
  160.6430  209.5630  155.1920 C   0  0  0  0  0  3  0  0  0  0  0  0
  160.4590  207.1550  155.3110 C   0  0  0  0  0  3  0  0  0  0  0  0
  160.1530  210.8730  157.1220 F   0  0  0  0  0  0  0  0  0  0  0  0
  162.6120  211.9410  148.5150 N   0  0  0  0  0  2  0  0  0  0  0  0
  161.5700  211.8970  147.4930 C   0  0  0  0  0  2  0  0  0  0  0  0
  160.3960  213.5890  148.7040 O   0  0  0  0  0  1  0  0  0  0  0  0
  160.8450  213.2330  147.4320 C   0  0  2  0  0  3  0  0  0  0  0  0
  159.6810  213.2100  146.4400 C   0  0  0  0  0  2  0  0  0  0  0  0
  161.0430  213.9290  144.6130 O   0  0  0  0  0  0  0  0  0  0  0  0
  160.1370  213.1530  145.0170 C   0  0  0  0  0  0  0  0  0  0  0  0
  159.5640  212.2060  144.1220 N   0  0  0  0  0  1  0  0  0  0  0  0
  1 13  2  0  0  0  0
  3 12  1  0  0  0  0
  4 15  2  0  0  0  0
  5  1  1  0  0  0  0
  6  2  2  0  0  0  0
  6 11  1  0  0  0  0
  7 18  1  0  0  0  0
  8  2  1  1  0  0  0
  8  3  1  0  0  0  0
  8  1  1  0  0  0  0
  9  7  2  0  0  0  0
  9 17  1  0  0  0  0
 10  4  1  0  0  0  0
 11  5  2  0  0  0  0
 12 19  2  0  0  0  0
 12 16  1  0  0  0  0
 13 19  1  0  0  0  0
 14  2  1  0  0  0  0
 15 16  1  0  0  0  0
 16 22  1  0  0  0  0
 17 27  1  6  0  0  0
 17 10  1  0  0  0  0
 18  3  2  0  0  0  0
 18  4  1  0  0  0  0
 20 26  1  0  0  0  0
 20 21  1  0  0  0  0
 22 24  1  0  0  0  0
 22 25  2  0  0  0  0
 23 21  2  0  0  0  0
 24 20  2  0  0  0  0
 25 23  1  0  0  0  0
 28 27  1  0  0  0  0
 30 28  1  0  0  0  0
 30 29  1  1  0  0  0
 31 30  1  0  0  0  0
 32 33  2  0  0  0  0
 33 31  1  0  0  0  0
 34 33  1  0  0  0  0
M  END
>  <MODEL>
9

>  <REMARK>
 VINA RESULT:      -5.5      3.836      7.643
  Name = 
  6 active torsions:
  status: ('A' for Active; 'I' for Inactive)
    1  A    between atoms: N_3  and  C_13
    2  A    between atoms: N_3  and  C_29
    3  A    between atoms: C_12  and  N_28
    4  A    between atoms: C_13  and  C_33
    5  A    between atoms: C_20  and  C_22
    6  A    between atoms: C_22  and  C_33
                            x       y       z     vdW  Elec       q    Type
                         _______ _______ _______ _____ _____    ______ ____

>  <TORSDO>
F 6

$$$$
