=
 OpenBabel11052421493D

 30 32  0  0  1  0  0  0  0  0999 V2000
  161.7360  208.5970  152.6320 C   0  0  0  0  0  0  0  0  0  0  0  0
  161.1750  208.2620  153.8670 C   0  0  0  0  0  3  0  0  0  0  0  0
  162.2400  209.9880  152.4350 C   0  0  0  0  0  1  0  0  0  0  0  0
  161.3490  206.3150  151.8540 C   0  0  0  0  0  0  0  0  0  0  0  0
  160.7030  206.9710  154.1010 C   0  0  0  0  0  3  0  0  0  0  0  0
  161.8210  207.6290  151.6080 C   0  0  0  0  0  0  0  0  0  0  0  0
  160.7950  206.0040  153.1000 C   0  0  0  0  0  3  0  0  0  0  0  0
  160.8800  202.4990  149.4430 C   0  0  0  0  0  3  0  0  0  0  0  0
  161.6190  203.4420  148.5430 C   0  0  0  0  0  2  0  0  0  0  0  0
  160.7990  202.6890  150.7680 C   0  0  0  0  0  3  0  0  0  0  0  0
  160.4050  205.3750  149.7310 C   0  0  0  0  0  2  0  0  0  0  0  0
  161.4710  203.8160  151.5200 C   0  0  0  0  0  2  0  0  0  0  0  0
  160.8820  204.7820  148.3980 C   0  0  1  0  0  3  0  0  0  0  0  0
  161.4380  205.2050  150.8480 C   0  0  2  0  0  3  0  0  0  0  0  0
  161.7620  205.7830  147.6700 C   0  0  0  0  0  2  0  0  0  0  0  0
  162.3060  205.7000  145.2600 C   0  0  0  0  0  2  0  0  0  0  0  0
  161.2280  206.0400  146.2720 C   0  0  0  0  0  3  0  0  0  0  0  0
  161.1720  204.7290  145.5130 C   0  0  0  0  0  2  0  0  0  0  0  0
  162.4230  207.9970  150.2820 C   0  0  0  0  0  2  0  0  0  0  0  0
  161.4670  208.7550  149.4930 N   0  0  0  0  0  2  0  0  0  0  0  0
  162.2300  209.7480  148.7560 C   0  0  0  0  0  2  0  0  0  0  0  0
  161.4980  211.0830  148.7440 C   0  0  1  0  0  3  0  0  0  0  0  0
  161.4430  211.5850  150.0310 F   0  0  0  0  0  0  0  0  0  0  0  0
  162.1660  212.0760  147.8420 C   0  0  0  0  0  0  0  0  0  0  0  0
  163.3850  212.1670  147.8110 O   0  0  0  0  0  0  0  0  0  0  0  0
  161.3290  212.9680  146.9830 C   0  0  0  0  0  2  0  0  0  0  0  0
  159.9850  212.2370  144.9820 C   0  0  0  0  0  1  0  0  0  0  0  0
  160.0710  212.2540  146.5010 C   0  0  2  0  0  3  0  0  0  0  0  0
  157.5720  212.6410  146.2810 C   0  0  0  0  0  1  0  0  0  0  0  0
  158.8210  212.8730  147.1190 C   0  0  0  0  0  2  0  0  0  0  0  0
  1  2  1  0  0  0  0
  2  5  2  0  0  0  0
  3  1  1  0  0  0  0
  4  7  2  0  0  0  0
  6  4  1  0  0  0  0
  6  1  2  0  0  0  0
  7  5  1  0  0  0  0
  8 10  2  0  0  0  0
  9  8  1  0  0  0  0
 10 12  1  0  0  0  0
 11 14  1  0  0  0  0
 13 15  1  1  0  0  0
 13  9  1  0  0  0  0
 13 11  1  0  0  0  0
 14 12  1  0  0  0  0
 14  4  1  1  0  0  0
 16 18  1  0  0  0  0
 16 17  1  0  0  0  0
 17 15  1  0  0  0  0
 18 17  1  0  0  0  0
 19  6  1  0  0  0  0
 20 19  1  0  0  0  0
 21 20  1  0  0  0  0
 22 21  1  0  0  0  0
 22 23  1  1  0  0  0
 24 22  1  0  0  0  0
 25 24  2  0  0  0  0
 26 24  1  0  0  0  0
 28 27  1  6  0  0  0
 28 26  1  0  0  0  0
 28 30  1  0  0  0  0
 29 30  1  0  0  0  0
M  END
>  <MODEL>
1

>  <REMARK>
 VINA RESULT:      -7.9      0.000      0.000
  Name = 
  11 active torsions:
  status: ('A' for Active; 'I' for Inactive)
    1  A    between atoms: C_1  and  N_4
    2  A    between atoms: C_1  and  C_27
    3  A    between atoms: N_4  and  C_5
    4  A    between atoms: C_5  and  C_22
    5  A    between atoms: C_8  and  C_12
    6  A    between atoms: C_8  and  C_27
    7  A    between atoms: C_9  and  C_12
    8  A    between atoms: C_9  and  C_21
    9  A    between atoms: C_15  and  C_16
   10  A    between atoms: C_16  and  C_25
   11  A    between atoms: C_19  and  C_29
                            x       y       z     vdW  Elec       q    Type
                         _______ _______ _______ _____ _____    ______ ____

>  <TORSDO>
F 11

$$$$
=
 OpenBabel11052421493D

 30 32  0  0  1  0  0  0  0  0999 V2000
  160.9250  204.5680  150.4660 C   0  0  0  0  0  0  0  0  0  0  0  0
  161.1290  203.7960  151.6120 C   0  0  0  0  0  3  0  0  0  0  0  0
  160.7400  203.8670  149.1620 C   0  0  0  0  0  1  0  0  0  0  0  0
  161.0510  206.5930  151.8250 C   0  0  0  0  0  0  0  0  0  0  0  0
  161.2940  204.4060  152.8550 C   0  0  0  0  0  3  0  0  0  0  0  0
  160.8930  205.9760  150.5580 C   0  0  0  0  0  0  0  0  0  0  0  0
  161.2500  205.7970  152.9590 C   0  0  0  0  0  3  0  0  0  0  0  0
  161.1560  210.8270  153.4560 C   0  0  0  0  0  3  0  0  0  0  0  0
  161.0900  210.9820  151.9670 C   0  0  0  0  0  2  0  0  0  0  0  0
  160.8300  209.6810  154.0720 C   0  0  0  0  0  3  0  0  0  0  0  0
  162.3400  208.7420  151.7730 C   0  0  0  0  0  2  0  0  0  0  0  0
  160.3110  208.4440  153.3730 C   0  0  0  0  0  2  0  0  0  0  0  0
  162.1960  210.1820  151.2640 C   0  0  1  0  0  3  0  0  0  0  0  0
  160.9860  208.0770  152.0340 C   0  0  2  0  0  3  0  0  0  0  0  0
  161.9630  210.1810  149.7630 C   0  0  0  0  0  2  0  0  0  0  0  0
  162.8380  211.9010  148.2190 C   0  0  0  0  0  2  0  0  0  0  0  0
  161.7710  211.5980  149.2540 C   0  0  0  0  0  3  0  0  0  0  0  0
  161.4320  211.5540  147.7770 C   0  0  0  0  0  2  0  0  0  0  0  0
  160.6770  206.8000  149.3220 C   0  0  0  0  0  2  0  0  0  0  0  0
  161.9170  206.9140  148.5750 N   0  0  0  0  0  2  0  0  0  0  0  0
  161.5500  207.0660  147.1770 C   0  0  0  0  0  2  0  0  0  0  0  0
  162.2380  206.0070  146.3250 C   0  0  1  0  0  3  0  0  0  0  0  0
  162.8170  205.0620  147.1520 F   0  0  0  0  0  0  0  0  0  0  0  0
  161.2800  205.3400  145.3860 C   0  0  0  0  0  0  0  0  0  0  0  0
  160.2880  205.9310  144.9850 O   0  0  0  0  0  0  0  0  0  0  0  0
  161.5400  203.9340  144.9490 C   0  0  0  0  0  2  0  0  0  0  0  0
  161.4000  202.0500  146.6140 C   0  0  0  0  0  1  0  0  0  0  0  0
  160.6220  202.9510  145.6660 C   0  0  2  0  0  3  0  0  0  0  0  0
  159.9550  200.6320  144.8780 C   0  0  0  0  0  1  0  0  0  0  0  0
  159.8100  202.1320  144.6660 C   0  0  0  0  0  2  0  0  0  0  0  0
  1  6  2  0  0  0  0
  1  2  1  0  0  0  0
  2  5  2  0  0  0  0
  3  1  1  0  0  0  0
  4  7  2  0  0  0  0
  5  7  1  0  0  0  0
  6  4  1  0  0  0  0
  8 10  2  0  0  0  0
  9  8  1  0  0  0  0
 11 14  1  0  0  0  0
 12 10  1  0  0  0  0
 13 15  1  6  0  0  0
 13 11  1  0  0  0  0
 13  9  1  0  0  0  0
 14  4  1  1  0  0  0
 14 12  1  0  0  0  0
 16 17  1  0  0  0  0
 17 15  1  0  0  0  0
 18 16  1  0  0  0  0
 18 17  1  0  0  0  0
 19  6  1  0  0  0  0
 20 19  1  0  0  0  0
 21 20  1  0  0  0  0
 22 23  1  1  0  0  0
 22 21  1  0  0  0  0
 24 22  1  0  0  0  0
 25 24  2  0  0  0  0
 26 24  1  0  0  0  0
 26 28  1  0  0  0  0
 28 27  1  6  0  0  0
 30 29  1  0  0  0  0
 30 28  1  0  0  0  0
M  END
>  <MODEL>
2

>  <REMARK>
 VINA RESULT:      -7.6      2.481      6.713
  Name = 
  11 active torsions:
  status: ('A' for Active; 'I' for Inactive)
    1  A    between atoms: C_1  and  N_4
    2  A    between atoms: C_1  and  C_27
    3  A    between atoms: N_4  and  C_5
    4  A    between atoms: C_5  and  C_22
    5  A    between atoms: C_8  and  C_12
    6  A    between atoms: C_8  and  C_27
    7  A    between atoms: C_9  and  C_12
    8  A    between atoms: C_9  and  C_21
    9  A    between atoms: C_15  and  C_16
   10  A    between atoms: C_16  and  C_25
   11  A    between atoms: C_19  and  C_29
                            x       y       z     vdW  Elec       q    Type
                         _______ _______ _______ _____ _____    ______ ____

>  <TORSDO>
F 11

$$$$
=
 OpenBabel11052421493D

 30 32  0  0  1  0  0  0  0  0999 V2000
  160.8190  202.6650  150.9870 C   0  0  0  0  0  0  0  0  0  0  0  0
  160.6190  201.3250  150.6430 C   0  0  0  0  0  3  0  0  0  0  0  0
  160.7300  203.0480  152.4260 C   0  0  0  0  0  1  0  0  0  0  0  0
  161.2000  203.1970  148.6350 C   0  0  0  0  0  0  0  0  0  0  0  0
  160.7050  200.9180  149.3120 C   0  0  0  0  0  3  0  0  0  0  0  0
  161.1030  203.6180  149.9850 C   0  0  0  0  0  0  0  0  0  0  0  0
  160.9990  201.8500  148.3160 C   0  0  0  0  0  3  0  0  0  0  0  0
  161.4580  205.4620  144.7100 C   0  0  0  0  0  3  0  0  0  0  0  0
  162.2360  206.2870  145.6900 C   0  0  0  0  0  2  0  0  0  0  0  0
  161.1580  204.1740  144.9370 C   0  0  0  0  0  3  0  0  0  0  0  0
  160.6830  205.3890  147.5340 C   0  0  0  0  0  2  0  0  0  0  0  0
  161.6000  203.3870  146.1500 C   0  0  0  0  0  2  0  0  0  0  0  0
  161.4100  206.6050  146.9450 C   0  0  1  0  0  3  0  0  0  0  0  0
  161.5430  204.1230  147.5050 C   0  0  2  0  0  3  0  0  0  0  0  0
  162.2950  207.2420  148.0020 C   0  0  0  0  0  2  0  0  0  0  0  0
  162.4470  208.9760  149.7570 C   0  0  0  0  0  2  0  0  0  0  0  0
  161.5000  208.2340  148.8320 C   0  0  0  0  0  3  0  0  0  0  0  0
  161.9500  209.6410  148.4900 C   0  0  0  0  0  2  0  0  0  0  0  0
  161.3140  205.0560  150.3620 C   0  0  0  0  0  2  0  0  0  0  0  0
  162.3240  205.1560  151.4020 N   0  0  0  0  0  2  0  0  0  0  0  0
  162.2780  206.5220  151.8960 C   0  0  0  0  0  2  0  0  0  0  0  0
  161.0060  206.7580  152.6980 C   0  0  1  0  0  3  0  0  0  0  0  0
  161.0420  205.9900  153.8480 F   0  0  0  0  0  0  0  0  0  0  0  0
  160.8360  208.2020  153.0600 C   0  0  0  0  0  0  0  0  0  0  0  0
  160.3350  208.9870  152.2680 O   0  0  0  0  0  0  0  0  0  0  0  0
  161.2970  208.6840  154.3980 C   0  0  0  0  0  2  0  0  0  0  0  0
  159.8070  210.5010  155.3030 C   0  0  0  0  0  1  0  0  0  0  0  0
  160.1170  209.0120  155.3060 C   0  0  2  0  0  3  0  0  0  0  0  0
  160.0430  207.0190  156.8780 C   0  0  0  0  0  1  0  0  0  0  0  0
  160.3600  208.5000  156.7240 C   0  0  0  0  0  2  0  0  0  0  0  0
  1  3  1  0  0  0  0
  2  1  1  0  0  0  0
  4  6  1  0  0  0  0
  5  2  2  0  0  0  0
  6 19  1  0  0  0  0
  6  1  2  0  0  0  0
  7  4  2  0  0  0  0
  7  5  1  0  0  0  0
  8 10  2  0  0  0  0
  8  9  1  0  0  0  0
  9 13  1  0  0  0  0
 10 12  1  0  0  0  0
 12 14  1  0  0  0  0
 13 11  1  0  0  0  0
 13 15  1  1  0  0  0
 14 11  1  0  0  0  0
 14  4  1  1  0  0  0
 15 17  1  0  0  0  0
 17 16  1  0  0  0  0
 18 17  1  0  0  0  0
 18 16  1  0  0  0  0
 19 20  1  0  0  0  0
 20 21  1  0  0  0  0
 21 22  1  0  0  0  0
 22 24  1  0  0  0  0
 22 23  1  1  0  0  0
 24 26  1  0  0  0  0
 25 24  2  0  0  0  0
 26 28  1  0  0  0  0
 28 27  1  1  0  0  0
 28 30  1  0  0  0  0
 30 29  1  0  0  0  0
M  END
>  <MODEL>
3

>  <REMARK>
 VINA RESULT:      -7.5      2.834      6.450
  Name = 
  11 active torsions:
  status: ('A' for Active; 'I' for Inactive)
    1  A    between atoms: C_1  and  N_4
    2  A    between atoms: C_1  and  C_27
    3  A    between atoms: N_4  and  C_5
    4  A    between atoms: C_5  and  C_22
    5  A    between atoms: C_8  and  C_12
    6  A    between atoms: C_8  and  C_27
    7  A    between atoms: C_9  and  C_12
    8  A    between atoms: C_9  and  C_21
    9  A    between atoms: C_15  and  C_16
   10  A    between atoms: C_16  and  C_25
   11  A    between atoms: C_19  and  C_29
                            x       y       z     vdW  Elec       q    Type
                         _______ _______ _______ _____ _____    ______ ____

>  <TORSDO>
F 11

$$$$
=
 OpenBabel11052421493D

 30 32  0  0  1  0  0  0  0  0999 V2000
  162.0070  209.1370  151.4470 C   0  0  0  0  0  0  0  0  0  0  0  0
  162.0440  209.7760  150.2050 C   0  0  0  0  0  3  0  0  0  0  0  0
  162.0580  209.9780  152.6790 C   0  0  0  0  0  1  0  0  0  0  0  0
  161.8510  206.9790  150.3170 C   0  0  0  0  0  0  0  0  0  0  0  0
  161.9870  209.0320  149.0270 C   0  0  0  0  0  3  0  0  0  0  0  0
  161.9200  207.7300  151.5170 C   0  0  0  0  0  0  0  0  0  0  0  0
  161.8860  207.6410  149.0850 C   0  0  0  0  0  3  0  0  0  0  0  0
  160.7000  202.6410  150.9960 C   0  0  0  0  0  3  0  0  0  0  0  0
  161.4580  202.6480  149.7030 C   0  0  0  0  0  2  0  0  0  0  0  0
  160.7680  203.6550  151.8710 C   0  0  0  0  0  3  0  0  0  0  0  0
  160.6040  205.0440  149.3240 C   0  0  0  0  0  2  0  0  0  0  0  0
  161.6380  204.8810  151.7050 C   0  0  0  0  0  2  0  0  0  0  0  0
  160.8780  203.6650  148.7100 C   0  0  1  0  0  3  0  0  0  0  0  0
  161.7100  205.4850  150.2860 C   0  0  2  0  0  3  0  0  0  0  0  0
  161.7990  203.8040  147.5110 C   0  0  0  0  0  2  0  0  0  0  0  0
  162.5290  205.3990  145.7700 C   0  0  0  0  0  2  0  0  0  0  0  0
  161.3630  204.9670  146.6390 C   0  0  0  0  0  3  0  0  0  0  0  0
  161.4230  204.5470  145.1830 C   0  0  0  0  0  2  0  0  0  0  0  0
  161.8840  207.0510  152.8560 C   0  0  0  0  0  2  0  0  0  0  0  0
  160.6250  207.3300  153.5240 N   0  0  0  0  0  2  0  0  0  0  0  0
  160.7960  206.9460  154.9140 C   0  0  0  0  0  2  0  0  0  0  0  0
  159.8370  207.7220  155.8070 C   0  0  1  0  0  3  0  0  0  0  0  0
  159.7000  207.0620  157.0140 F   0  0  0  0  0  0  0  0  0  0  0  0
  160.3120  209.1230  156.0470 C   0  0  0  0  0  0  0  0  0  0  0  0
  161.5020  209.3590  156.1970 O   0  0  0  0  0  0  0  0  0  0  0  0
  159.3160  210.2350  156.1150 C   0  0  0  0  0  2  0  0  0  0  0  0
  159.9920  212.6160  155.6500 C   0  0  0  0  0  1  0  0  0  0  0  0
  159.5790  211.2840  155.0410 C   0  0  2  0  0  3  0  0  0  0  0  0
  158.7510  211.5350  152.6550 C   0  0  0  0  0  1  0  0  0  0  0  0
  158.3690  211.4450  154.1250 C   0  0  0  0  0  2  0  0  0  0  0  0
  1  6  1  0  0  0  0
  1  3  1  0  0  0  0
  2  1  2  0  0  0  0
  4  6  2  0  0  0  0
  5  7  2  0  0  0  0
  5  2  1  0  0  0  0
  6 19  1  0  0  0  0
  7  4  1  0  0  0  0
  8 10  2  0  0  0  0
  9  8  1  0  0  0  0
 11 14  1  0  0  0  0
 12 10  1  0  0  0  0
 13 15  1  6  0  0  0
 13 11  1  0  0  0  0
 13  9  1  0  0  0  0
 14  4  1  1  0  0  0
 14 12  1  0  0  0  0
 16 17  1  0  0  0  0
 17 15  1  0  0  0  0
 18 16  1  0  0  0  0
 18 17  1  0  0  0  0
 19 20  1  0  0  0  0
 20 21  1  0  0  0  0
 21 22  1  0  0  0  0
 22 24  1  0  0  0  0
 22 23  1  1  0  0  0
 24 26  1  0  0  0  0
 24 25  2  0  0  0  0
 28 27  1  1  0  0  0
 28 26  1  0  0  0  0
 29 30  1  0  0  0  0
 30 28  1  0  0  0  0
M  END
>  <MODEL>
4

>  <REMARK>
 VINA RESULT:      -7.4      3.398      5.287
  Name = 
  11 active torsions:
  status: ('A' for Active; 'I' for Inactive)
    1  A    between atoms: C_1  and  N_4
    2  A    between atoms: C_1  and  C_27
    3  A    between atoms: N_4  and  C_5
    4  A    between atoms: C_5  and  C_22
    5  A    between atoms: C_8  and  C_12
    6  A    between atoms: C_8  and  C_27
    7  A    between atoms: C_9  and  C_12
    8  A    between atoms: C_9  and  C_21
    9  A    between atoms: C_15  and  C_16
   10  A    between atoms: C_16  and  C_25
   11  A    between atoms: C_19  and  C_29
                            x       y       z     vdW  Elec       q    Type
                         _______ _______ _______ _____ _____    ______ ____

>  <TORSDO>
F 11

$$$$
=
 OpenBabel11052421493D

 30 32  0  0  1  0  0  0  0  0999 V2000
  161.0060  207.8260  154.2090 C   0  0  0  0  0  0  0  0  0  0  0  0
  160.8600  207.9580  155.5920 C   0  0  0  0  0  3  0  0  0  0  0  0
  161.6740  206.6020  153.6800 C   0  0  0  0  0  1  0  0  0  0  0  0
  159.8750  209.9680  153.9000 C   0  0  0  0  0  0  0  0  0  0  0  0
  160.2300  209.0790  156.1320 C   0  0  0  0  0  3  0  0  0  0  0  0
  160.5240  208.8350  153.3470 C   0  0  0  0  0  0  0  0  0  0  0  0
  159.7370  210.0750  155.2880 C   0  0  0  0  0  3  0  0  0  0  0  0
  157.8530  213.7200  152.3400 C   0  0  0  0  0  3  0  0  0  0  0  0
  158.5830  213.1490  151.1610 C   0  0  0  0  0  2  0  0  0  0  0  0
  157.5820  212.9940  153.4340 C   0  0  0  0  0  3  0  0  0  0  0  0
  160.3030  212.1860  152.8130 C   0  0  0  0  0  2  0  0  0  0  0  0
  157.9130  211.5280  153.6000 C   0  0  0  0  0  2  0  0  0  0  0  0
  160.0640  212.9010  151.4770 C   0  0  1  0  0  3  0  0  0  0  0  0
  159.2880  211.0700  153.0670 C   0  0  2  0  0  3  0  0  0  0  0  0
  160.7130  212.1210  150.3470 C   0  0  0  0  0  2  0  0  0  0  0  0
  162.2500  212.5000  148.4490 C   0  0  0  0  0  2  0  0  0  0  0  0
  161.0390  213.0420  149.1840 C   0  0  0  0  0  3  0  0  0  0  0  0
  160.8620  212.2810  147.8850 C   0  0  0  0  0  2  0  0  0  0  0  0
  160.6870  208.6880  151.8620 C   0  0  0  0  0  2  0  0  0  0  0  0
  162.0340  209.0630  151.4690 N   0  0  0  0  0  2  0  0  0  0  0  0
  162.4740  208.0770  150.4950 C   0  0  0  0  0  2  0  0  0  0  0  0
  161.7470  208.2730  149.1710 C   0  0  1  0  0  3  0  0  0  0  0  0
  162.4350  209.1950  148.4050 F   0  0  0  0  0  0  0  0  0  0  0  0
  161.6120  206.9860  148.4160 C   0  0  0  0  0  0  0  0  0  0  0  0
  162.3390  206.7450  147.4620 O   0  0  0  0  0  0  0  0  0  0  0  0
  160.5700  205.9970  148.8290 C   0  0  0  0  0  2  0  0  0  0  0  0
  161.1250  203.5780  148.4020 C   0  0  0  0  0  1  0  0  0  0  0  0
  161.2010  204.7290  149.3940 C   0  0  2  0  0  3  0  0  0  0  0  0
  161.5050  203.5490  151.6200 C   0  0  0  0  0  1  0  0  0  0  0  0
  160.5670  204.3520  150.7300 C   0  0  0  0  0  2  0  0  0  0  0  0
  1  2  1  0  0  0  0
  2  5  2  0  0  0  0
  3  1  1  0  0  0  0
  4  7  2  0  0  0  0
  6  4  1  0  0  0  0
  6  1  2  0  0  0  0
  7  5  1  0  0  0  0
  8 10  2  0  0  0  0
  9 13  1  0  0  0  0
  9  8  1  0  0  0  0
 10 12  1  0  0  0  0
 11 14  1  0  0  0  0
 13 15  1  6  0  0  0
 13 11  1  0  0  0  0
 14 12  1  0  0  0  0
 14  4  1  1  0  0  0
 16 17  1  0  0  0  0
 17 15  1  0  0  0  0
 18 16  1  0  0  0  0
 18 17  1  0  0  0  0
 19  6  1  0  0  0  0
 20 19  1  0  0  0  0
 21 20  1  0  0  0  0
 22 23  1  6  0  0  0
 22 21  1  0  0  0  0
 24 26  1  0  0  0  0
 24 22  1  0  0  0  0
 25 24  2  0  0  0  0
 26 28  1  0  0  0  0
 28 27  1  6  0  0  0
 28 30  1  0  0  0  0
 30 29  1  0  0  0  0
M  END
>  <MODEL>
5

>  <REMARK>
 VINA RESULT:      -7.4      2.702      6.941
  Name = 
  11 active torsions:
  status: ('A' for Active; 'I' for Inactive)
    1  A    between atoms: C_1  and  N_4
    2  A    between atoms: C_1  and  C_27
    3  A    between atoms: N_4  and  C_5
    4  A    between atoms: C_5  and  C_22
    5  A    between atoms: C_8  and  C_12
    6  A    between atoms: C_8  and  C_27
    7  A    between atoms: C_9  and  C_12
    8  A    between atoms: C_9  and  C_21
    9  A    between atoms: C_15  and  C_16
   10  A    between atoms: C_16  and  C_25
   11  A    between atoms: C_19  and  C_29
                            x       y       z     vdW  Elec       q    Type
                         _______ _______ _______ _____ _____    ______ ____

>  <TORSDO>
F 11

$$$$
=
 OpenBabel11052421493D

 30 32  0  0  1  0  0  0  0  0999 V2000
  161.1500  205.1900  152.1350 C   0  0  0  0  0  0  0  0  0  0  0  0
  161.2040  203.8450  152.5130 C   0  0  0  0  0  3  0  0  0  0  0  0
  161.2660  206.2310  153.1980 C   0  0  0  0  0  1  0  0  0  0  0  0
  160.9090  204.5100  149.8030 C   0  0  0  0  0  0  0  0  0  0  0  0
  161.1120  202.8380  151.5530 C   0  0  0  0  0  3  0  0  0  0  0  0
  160.9920  205.5370  150.7760 C   0  0  0  0  0  0  0  0  0  0  0  0
  160.9700  203.1710  150.2050 C   0  0  0  0  0  3  0  0  0  0  0  0
  161.1140  206.1910  145.5920 C   0  0  0  0  0  3  0  0  0  0  0  0
  160.6470  204.7760  145.4270 C   0  0  0  0  0  2  0  0  0  0  0  0
  161.0490  206.8330  146.7670 C   0  0  0  0  0  3  0  0  0  0  0  0
  161.9700  204.1920  147.5540 C   0  0  0  0  0  2  0  0  0  0  0  0
  160.4610  206.2550  148.0350 C   0  0  0  0  0  2  0  0  0  0  0  0
  161.5870  203.7830  146.1250 C   0  0  1  0  0  3  0  0  0  0  0  0
  160.7880  204.7760  148.3310 C   0  0  2  0  0  3  0  0  0  0  0  0
  160.9690  202.3960  146.1300 C   0  0  0  0  0  2  0  0  0  0  0  0
  160.4710  200.9100  148.0410 C   0  0  0  0  0  2  0  0  0  0  0  0
  161.5830  201.5450  147.2270 C   0  0  0  0  0  3  0  0  0  0  0  0
  161.2070  200.0940  146.9980 C   0  0  0  0  0  2  0  0  0  0  0  0
  160.9300  206.9830  150.3780 C   0  0  0  0  0  2  0  0  0  0  0  0
  162.2470  207.5870  150.4870 N   0  0  0  0  0  2  0  0  0  0  0  0
  162.0430  209.0250  150.5270 C   0  0  0  0  0  2  0  0  0  0  0  0
  162.2110  209.5500  151.9470 C   0  0  1  0  0  3  0  0  0  0  0  0
  163.3530  210.3260  152.0150 F   0  0  0  0  0  0  0  0  0  0  0  0
  161.0260  210.3540  152.3870 C   0  0  0  0  0  0  0  0  0  0  0  0
  160.6820  211.3480  151.7640 O   0  0  0  0  0  0  0  0  0  0  0  0
  160.2670  209.9370  153.6060 C   0  0  0  0  0  2  0  0  0  0  0  0
  160.4650  208.7590  155.8230 C   0  0  0  0  0  1  0  0  0  0  0  0
  161.2080  209.5060  154.7250 C   0  0  2  0  0  3  0  0  0  0  0  0
  162.5270  210.4430  156.6810 C   0  0  0  0  0  1  0  0  0  0  0  0
  161.9720  210.7010  155.2880 C   0  0  0  0  0  2  0  0  0  0  0  0
  1  2  1  0  0  0  0
  1  3  1  0  0  0  0
  4  7  2  0  0  0  0
  4  6  1  0  0  0  0
  5  2  2  0  0  0  0
  6  1  2  0  0  0  0
  7  5  1  0  0  0  0
  8 10  2  0  0  0  0
  9  8  1  0  0  0  0
  9 13  1  0  0  0  0
 10 12  1  0  0  0  0
 11 14  1  0  0  0  0
 12 14  1  0  0  0  0
 13 15  1  1  0  0  0
 13 11  1  0  0  0  0
 14  4  1  1  0  0  0
 15 17  1  0  0  0  0
 17 16  1  0  0  0  0
 18 17  1  0  0  0  0
 18 16  1  0  0  0  0
 19 20  1  0  0  0  0
 19  6  1  0  0  0  0
 20 21  1  0  0  0  0
 21 22  1  0  0  0  0
 22 23  1  6  0  0  0
 22 24  1  0  0  0  0
 24 26  1  0  0  0  0
 25 24  2  0  0  0  0
 26 28  1  0  0  0  0
 28 30  1  0  0  0  0
 28 27  1  1  0  0  0
 30 29  1  0  0  0  0
M  END
>  <MODEL>
6

>  <REMARK>
 VINA RESULT:      -7.2      2.950      5.391
  Name = 
  11 active torsions:
  status: ('A' for Active; 'I' for Inactive)
    1  A    between atoms: C_1  and  N_4
    2  A    between atoms: C_1  and  C_27
    3  A    between atoms: N_4  and  C_5
    4  A    between atoms: C_5  and  C_22
    5  A    between atoms: C_8  and  C_12
    6  A    between atoms: C_8  and  C_27
    7  A    between atoms: C_9  and  C_12
    8  A    between atoms: C_9  and  C_21
    9  A    between atoms: C_15  and  C_16
   10  A    between atoms: C_16  and  C_25
   11  A    between atoms: C_19  and  C_29
                            x       y       z     vdW  Elec       q    Type
                         _______ _______ _______ _____ _____    ______ ____

>  <TORSDO>
F 11

$$$$
=
 OpenBabel11052421493D

 30 32  0  0  1  0  0  0  0  0999 V2000
  161.2510  206.4350  151.5760 C   0  0  0  0  0  0  0  0  0  0  0  0
  161.3050  205.2430  152.3030 C   0  0  0  0  0  3  0  0  0  0  0  0
  161.3900  207.7240  152.3140 C   0  0  0  0  0  1  0  0  0  0  0  0
  160.9700  205.1490  149.5190 C   0  0  0  0  0  0  0  0  0  0  0  0
  161.1930  204.0140  151.6550 C   0  0  0  0  0  3  0  0  0  0  0  0
  161.0730  206.4010  150.1760 C   0  0  0  0  0  0  0  0  0  0  0  0
  161.0310  203.9700  150.2690 C   0  0  0  0  0  3  0  0  0  0  0  0
  161.0820  205.6440  145.0090 C   0  0  0  0  0  3  0  0  0  0  0  0
  160.6600  204.2240  145.2370 C   0  0  0  0  0  2  0  0  0  0  0  0
  161.0080  206.5760  145.9700 C   0  0  0  0  0  3  0  0  0  0  0  0
  162.0200  204.2700  147.4190 C   0  0  0  0  0  2  0  0  0  0  0  0
  160.4510  206.3430  147.3560 C   0  0  0  0  0  2  0  0  0  0  0  0
  161.6370  203.4820  146.1590 C   0  0  1  0  0  3  0  0  0  0  0  0
  160.8270  205.0070  148.0320 C   0  0  2  0  0  3  0  0  0  0  0  0
  161.0640  202.1300  146.5460 C   0  0  0  0  0  2  0  0  0  0  0  0
  160.4480  200.9830  148.6470 C   0  0  0  0  0  2  0  0  0  0  0  0
  161.5590  201.7170  147.9200 C   0  0  0  0  0  3  0  0  0  0  0  0
  161.5770  200.2030  148.0060 C   0  0  0  0  0  2  0  0  0  0  0  0
  161.0130  207.6860  149.4010 C   0  0  0  0  0  2  0  0  0  0  0  0
  162.3370  208.2750  149.3060 N   0  0  0  0  0  2  0  0  0  0  0  0
  162.1730  209.5700  148.6680 C   0  0  0  0  0  2  0  0  0  0  0  0
  161.7970  210.6290  149.6960 C   0  0  1  0  0  3  0  0  0  0  0  0
  162.7710  210.6780  150.6770 F   0  0  0  0  0  0  0  0  0  0  0  0
  161.6410  211.9810  149.0700 C   0  0  0  0  0  0  0  0  0  0  0  0
  161.0090  212.8600  149.6360 O   0  0  0  0  0  0  0  0  0  0  0  0
  162.2570  212.2470  147.7340 C   0  0  0  0  0  2  0  0  0  0  0  0
  160.3770  212.3690  146.0620 C   0  0  0  0  0  1  0  0  0  0  0  0
  161.3780  213.1620  146.8890 C   0  0  2  0  0  3  0  0  0  0  0  0
  162.8920  213.3280  144.8580 C   0  0  0  0  0  1  0  0  0  0  0  0
  162.2270  214.0730  146.0060 C   0  0  0  0  0  2  0  0  0  0  0  0
  1  2  1  0  0  0  0
  1  3  1  0  0  0  0
  4  6  1  0  0  0  0
  4  7  2  0  0  0  0
  5  2  2  0  0  0  0
  6  1  2  0  0  0  0
  7  5  1  0  0  0  0
  8  9  1  0  0  0  0
  8 10  2  0  0  0  0
  9 13  1  0  0  0  0
 10 12  1  0  0  0  0
 11 14  1  0  0  0  0
 12 14  1  0  0  0  0
 13 15  1  1  0  0  0
 13 11  1  0  0  0  0
 14  4  1  1  0  0  0
 15 17  1  0  0  0  0
 17 18  1  0  0  0  0
 17 16  1  0  0  0  0
 18 16  1  0  0  0  0
 19  6  1  0  0  0  0
 20 19  1  0  0  0  0
 21 20  1  0  0  0  0
 21 22  1  0  0  0  0
 22 23  1  1  0  0  0
 24 25  2  0  0  0  0
 24 22  1  0  0  0  0
 26 24  1  0  0  0  0
 28 27  1  6  0  0  0
 28 26  1  0  0  0  0
 29 30  1  0  0  0  0
 30 28  1  0  0  0  0
M  END
>  <MODEL>
7

>  <REMARK>
 VINA RESULT:      -7.1      1.460      3.476
  Name = 
  11 active torsions:
  status: ('A' for Active; 'I' for Inactive)
    1  A    between atoms: C_1  and  N_4
    2  A    between atoms: C_1  and  C_27
    3  A    between atoms: N_4  and  C_5
    4  A    between atoms: C_5  and  C_22
    5  A    between atoms: C_8  and  C_12
    6  A    between atoms: C_8  and  C_27
    7  A    between atoms: C_9  and  C_12
    8  A    between atoms: C_9  and  C_21
    9  A    between atoms: C_15  and  C_16
   10  A    between atoms: C_16  and  C_25
   11  A    between atoms: C_19  and  C_29
                            x       y       z     vdW  Elec       q    Type
                         _______ _______ _______ _____ _____    ______ ____

>  <TORSDO>
F 11

$$$$
=
 OpenBabel11052421493D

 30 32  0  0  1  0  0  0  0  0999 V2000
  161.3590  206.2180  150.6970 C   0  0  0  0  0  0  0  0  0  0  0  0
  161.5220  204.8730  151.0430 C   0  0  0  0  0  3  0  0  0  0  0  0
  161.4720  206.5980  149.2590 C   0  0  0  0  0  1  0  0  0  0  0  0
  160.9700  206.7600  153.0460 C   0  0  0  0  0  0  0  0  0  0  0  0
  161.4120  204.4680  152.3720 C   0  0  0  0  0  3  0  0  0  0  0  0
  161.0910  207.1770  151.6960 C   0  0  0  0  0  0  0  0  0  0  0  0
  161.1340  205.4070  153.3660 C   0  0  0  0  0  3  0  0  0  0  0  0
  160.3240  208.7740  157.0610 C   0  0  0  0  0  3  0  0  0  0  0  0
  160.2210  209.8750  156.0500 C   0  0  0  0  0  2  0  0  0  0  0  0
  160.2140  207.4800  156.7260 C   0  0  0  0  0  3  0  0  0  0  0  0
  161.8510  208.5420  154.5730 C   0  0  0  0  0  2  0  0  0  0  0  0
  159.9200  206.9730  155.3310 C   0  0  0  0  0  2  0  0  0  0  0  0
  161.4470  209.9140  155.1270 C   0  0  1  0  0  3  0  0  0  0  0  0
  160.6410  207.6940  154.1730 C   0  0  2  0  0  3  0  0  0  0  0  0
  161.2080  210.8850  153.9850 C   0  0  0  0  0  2  0  0  0  0  0  0
  159.6540  212.5280  152.9860 C   0  0  0  0  0  2  0  0  0  0  0  0
  159.8460  211.5430  154.1230 C   0  0  0  0  0  3  0  0  0  0  0  0
  158.9900  211.1680  152.9290 C   0  0  0  0  0  2  0  0  0  0  0  0
  160.9210  208.6200  151.3180 C   0  0  0  0  0  2  0  0  0  0  0  0
  162.1960  209.1840  150.9120 N   0  0  0  0  0  2  0  0  0  0  0  0
  161.9400  210.5620  150.5270 C   0  0  0  0  0  2  0  0  0  0  0  0
  162.2740  210.7770  149.0570 C   0  0  1  0  0  3  0  0  0  0  0  0
  161.6310  209.8180  148.2970 F   0  0  0  0  0  0  0  0  0  0  0  0
  161.8750  212.1440  148.5910 C   0  0  0  0  0  0  0  0  0  0  0  0
  161.1960  212.8710  149.3020 O   0  0  0  0  0  0  0  0  0  0  0  0
  162.3030  212.6130  147.2380 C   0  0  0  0  0  2  0  0  0  0  0  0
  160.0500  212.2730  146.1650 C   0  0  0  0  0  1  0  0  0  0  0  0
  161.1520  213.2720  146.4870 C   0  0  2  0  0  3  0  0  0  0  0  0
  162.9220  213.3480  144.6700 C   0  0  0  0  0  1  0  0  0  0  0  0
  161.6500  213.9720  145.2260 C   0  0  0  0  0  2  0  0  0  0  0  0
  1  2  2  0  0  0  0
  1  6  1  0  0  0  0
  2  5  1  0  0  0  0
  3  1  1  0  0  0  0
  4  7  1  0  0  0  0
  5  7  2  0  0  0  0
  6  4  2  0  0  0  0
  9  8  1  0  0  0  0
 10  8  2  0  0  0  0
 11 13  1  0  0  0  0
 12 10  1  0  0  0  0
 13 15  1  6  0  0  0
 13  9  1  0  0  0  0
 14  4  1  6  0  0  0
 14 11  1  0  0  0  0
 14 12  1  0  0  0  0
 15 17  1  0  0  0  0
 16 17  1  0  0  0  0
 18 16  1  0  0  0  0
 18 17  1  0  0  0  0
 19  6  1  0  0  0  0
 20 19  1  0  0  0  0
 21 20  1  0  0  0  0
 22 23  1  6  0  0  0
 22 21  1  0  0  0  0
 24 22  1  0  0  0  0
 24 25  2  0  0  0  0
 26 24  1  0  0  0  0
 28 27  1  6  0  0  0
 28 26  1  0  0  0  0
 29 30  1  0  0  0  0
 30 28  1  0  0  0  0
M  END
>  <MODEL>
8

>  <REMARK>
 VINA RESULT:      -6.8      2.014      5.544
  Name = 
  11 active torsions:
  status: ('A' for Active; 'I' for Inactive)
    1  A    between atoms: C_1  and  N_4
    2  A    between atoms: C_1  and  C_27
    3  A    between atoms: N_4  and  C_5
    4  A    between atoms: C_5  and  C_22
    5  A    between atoms: C_8  and  C_12
    6  A    between atoms: C_8  and  C_27
    7  A    between atoms: C_9  and  C_12
    8  A    between atoms: C_9  and  C_21
    9  A    between atoms: C_15  and  C_16
   10  A    between atoms: C_16  and  C_25
   11  A    between atoms: C_19  and  C_29
                            x       y       z     vdW  Elec       q    Type
                         _______ _______ _______ _____ _____    ______ ____

>  <TORSDO>
F 11

$$$$
=
 OpenBabel11052421493D

 30 32  0  0  1  0  0  0  0  0999 V2000
  161.3760  211.5840  149.7630 C   0  0  0  0  0  0  0  0  0  0  0  0
  160.6580  212.7260  150.1280 C   0  0  0  0  0  3  0  0  0  0  0  0
  161.9140  211.4980  148.3750 C   0  0  0  0  0  1  0  0  0  0  0  0
  161.0670  210.6900  152.0140 C   0  0  0  0  0  0  0  0  0  0  0  0
  160.1460  212.8570  151.4180 C   0  0  0  0  0  3  0  0  0  0  0  0
  161.5800  210.5480  150.7000 C   0  0  0  0  0  0  0  0  0  0  0  0
  160.3550  211.8450  152.3560 C   0  0  0  0  0  3  0  0  0  0  0  0
  161.0770  208.2720  155.8550 C   0  0  0  0  0  3  0  0  0  0  0  0
  161.5900  207.3360  154.8020 C   0  0  0  0  0  2  0  0  0  0  0  0
  161.0520  209.6010  155.6810 C   0  0  0  0  0  3  0  0  0  0  0  0
  160.1550  208.6210  153.0970 C   0  0  0  0  0  2  0  0  0  0  0  0
  161.5760  210.3210  154.4590 C   0  0  0  0  0  2  0  0  0  0  0  0
  160.6350  207.2540  153.6030 C   0  0  1  0  0  3  0  0  0  0  0  0
  161.2720  209.6680  153.0940 C   0  0  2  0  0  3  0  0  0  0  0  0
  161.2890  206.4820  152.4700 C   0  0  0  0  0  2  0  0  0  0  0  0
  160.4460  204.3320  151.5900 C   0  0  0  0  0  2  0  0  0  0  0  0
  161.2050  204.9880  152.7280 C   0  0  0  0  0  3  0  0  0  0  0  0
  161.9580  204.2530  151.6360 C   0  0  0  0  0  2  0  0  0  0  0  0
  162.3500  209.3220  150.3010 C   0  0  0  0  0  2  0  0  0  0  0  0
  161.4400  208.2950  149.8260 N   0  0  0  0  0  2  0  0  0  0  0  0
  162.1300  207.5870  148.7600 C   0  0  0  0  0  2  0  0  0  0  0  0
  161.5170  206.2080  148.5500 C   0  0  1  0  0  3  0  0  0  0  0  0
  160.2130  206.2130  149.0100 F   0  0  0  0  0  0  0  0  0  0  0  0
  161.5440  205.8030  147.1080 C   0  0  0  0  0  0  0  0  0  0  0  0
  160.8120  206.3480  146.2940 O   0  0  0  0  0  0  0  0  0  0  0  0
  162.4680  204.7130  146.6680 C   0  0  0  0  0  2  0  0  0  0  0  0
  160.9390  203.2780  145.2730 C   0  0  0  0  0  1  0  0  0  0  0  0
  161.7410  203.3770  146.5620 C   0  0  2  0  0  3  0  0  0  0  0  0
  161.2010  201.8470  148.5150 C   0  0  0  0  0  1  0  0  0  0  0  0
  160.8580  203.1370  147.7840 C   0  0  0  0  0  2  0  0  0  0  0  0
  1  2  2  0  0  0  0
  1  6  1  0  0  0  0
  2  5  1  0  0  0  0
  3  1  1  0  0  0  0
  4  7  1  0  0  0  0
  5  7  2  0  0  0  0
  6  4  2  0  0  0  0
  9  8  1  0  0  0  0
 10  8  2  0  0  0  0
 11 13  1  0  0  0  0
 12 10  1  0  0  0  0
 13 15  1  6  0  0  0
 13  9  1  0  0  0  0
 14  4  1  6  0  0  0
 14 11  1  0  0  0  0
 14 12  1  0  0  0  0
 15 17  1  0  0  0  0
 16 18  1  0  0  0  0
 16 17  1  0  0  0  0
 18 17  1  0  0  0  0
 19  6  1  0  0  0  0
 20 19  1  0  0  0  0
 21 20  1  0  0  0  0
 22 21  1  0  0  0  0
 22 23  1  6  0  0  0
 24 22  1  0  0  0  0
 25 24  2  0  0  0  0
 26 24  1  0  0  0  0
 28 27  1  6  0  0  0
 28 26  1  0  0  0  0
 28 30  1  0  0  0  0
 30 29  1  0  0  0  0
M  END
>  <MODEL>
9

>  <REMARK>
 VINA RESULT:      -6.7      2.405      6.506
  Name = 
  11 active torsions:
  status: ('A' for Active; 'I' for Inactive)
    1  A    between atoms: C_1  and  N_4
    2  A    between atoms: C_1  and  C_27
    3  A    between atoms: N_4  and  C_5
    4  A    between atoms: C_5  and  C_22
    5  A    between atoms: C_8  and  C_12
    6  A    between atoms: C_8  and  C_27
    7  A    between atoms: C_9  and  C_12
    8  A    between atoms: C_9  and  C_21
    9  A    between atoms: C_15  and  C_16
   10  A    between atoms: C_16  and  C_25
   11  A    between atoms: C_19  and  C_29
                            x       y       z     vdW  Elec       q    Type
                         _______ _______ _______ _____ _____    ______ ____

>  <TORSDO>
F 11

$$$$
