=
 OpenBabel11062408493D

 55 59  0  0  1  0  0  0  0  0999 V2000
  163.0120  211.8670  148.1630 C   0  0  0  0  0  2  0  0  0  0  0  0
  160.5940  213.2700  148.2920 C   0  0  2  0  0  3  0  0  0  0  0  0
  160.7900  211.9880  149.1080 C   0  0  0  0  0  2  0  0  0  0  0  0
  162.6620  213.1350  147.3830 C   0  0  0  0  0  2  0  0  0  0  0  0
  161.7850  211.1220  148.4630 N   0  0  0  0  0  0  0  0  0  0  0  0
  161.8220  213.9480  148.1630 O   0  0  0  0  0  0  0  0  0  0  0  0
  159.6020  214.1540  149.0260 C   0  0  0  0  0  2  0  0  0  0  0  0
  158.3770  213.3720  149.4610 C   0  0  2  0  0  3  0  0  0  0  0  0
  157.2950  213.5750  148.4160 C   0  0  0  0  0  1  0  0  0  0  0  0
  157.9030  213.8930  150.8110 C   0  0  0  0  0  2  0  0  0  0  0  0
  158.9210  213.6360  151.9200 C   0  0  0  0  0  2  0  0  0  0  0  0
  158.3290  212.8800  153.1120 C   0  0  2  0  0  3  0  0  0  0  0  0
  156.2900  214.1390  152.8270 O   0  0  0  0  0  1  0  0  0  0  0  0
  157.1970  213.6740  153.7790 C   0  0  1  0  0  3  0  0  0  0  0  0
  156.4430  212.8110  154.7770 C   0  0  0  0  0  1  0  0  0  0  0  0
  159.4370  212.6140  154.1290 C   0  0  0  0  0  2  0  0  0  0  0  0
  160.0960  210.2590  153.7580 C   0  0  2  0  0  3  0  0  0  0  0  0
  158.8790  211.1070  156.9160 O   0  0  0  0  0  1  0  0  0  0  0  0
  159.3970  211.2300  154.6270 N   0  0  0  0  0  0  0  0  0  0  0  0
  160.3900  206.9500  155.1730 C   0  0  0  0  0  3  0  0  0  0  0  0
  160.8710  212.0400  156.3130 O   0  0  0  0  0  1  0  0  0  0  0  0
  159.9310  211.0520  155.9960 C   0  0  0  0  0  0  0  0  0  0  0  0
  159.9400  207.3590  156.5170 C   0  0  0  0  0  3  0  0  0  0  0  0
  160.0010  208.6380  156.9060 C   0  0  0  0  0  3  0  0  0  0  0  0
  160.6670  209.2600  154.6320 N   0  0  0  0  0  0  0  0  0  0  0  0
  160.6330  209.6900  156.0210 C   0  0  1  0  0  3  0  0  0  0  0  0
  160.7140  207.8750  154.2680 C   0  0  0  0  0  3  0  0  0  0  0  0
  161.1930  210.8520  152.8550 C   0  0  0  0  0  2  0  0  0  0  0  0
  162.4410  210.3080  153.1640 O   0  0  0  0  0  1  0  0  0  0  0  0
  162.1020  209.9790  149.3310 C   0  0  0  0  0  2  0  0  0  0  0  0
  162.2100  208.6630  148.6040 C   0  0  0  0  0  3  0  0  0  0  0  0
  162.5050  207.5800  149.2450 N   0  0  0  0  0  0  0  0  0  0  0  0
  162.5830  206.3790  148.5680 O   0  0  0  0  0  0  0  0  0  0  0  0
  161.7490  204.1810  148.1700 C   0  0  0  0  0  2  0  0  0  0  0  0
  160.5430  204.6950  150.2490 C   0  0  1  0  0  3  0  0  0  0  0  0
  161.4070  205.6580  148.1790 C   0  0  1  0  0  0  0  0  0  0  0  0
  160.2950  205.7860  149.2200 C   0  0  0  0  0  2  0  0  0  0  0  0
  161.3000  203.6030  149.5000 C   0  0  0  0  0  2  0  0  0  0  0  0
  161.3590  205.2120  151.3500 N   0  0  0  0  0  0  0  0  0  0  0  0
  161.0610  204.4900  152.4580 O   0  0  0  0  0  1  0  0  0  0  0  0
  160.9450  206.4780  151.6020 O   0  0  0  0  0  1  0  0  0  0  0  0
  160.9740  206.0200  146.8820 O   0  0  0  0  0  0  0  0  0  0  0  0
  162.0850  206.0850  146.0220 C   0  0  0  0  0  2  0  0  0  0  0  0
  161.8810  205.1900  144.7980 C   0  0  1  0  0  3  0  0  0  0  0  0
  160.0260  203.4950  144.8520 C   0  0  0  0  0  1  0  0  0  0  0  0
  160.3960  204.9300  144.5110 C   0  0  0  0  0  3  0  0  0  0  0  0
  159.4980  205.8570  145.3140 C   0  0  0  0  0  1  0  0  0  0  0  0
  162.5600  205.8090  143.5780 C   0  0  0  0  0  2  0  0  0  0  0  0
  161.6010  205.8690  142.3990 C   0  0  0  0  0  2  0  0  0  0  0  0
  162.0170  206.9560  141.4210 C   0  0  0  0  0  2  0  0  0  0  0  0
  162.4180  206.3560  140.0850 C   0  0  0  0  0  2  0  0  0  0  0  0
  161.8470  207.1740  138.9420 C   0  0  0  0  0  2  0  0  0  0  0  0
  161.8220  209.4940  138.1090 C   0  0  0  0  0  2  0  0  0  0  0  0
  161.7270  208.6270  139.3470 C   0  0  0  0  0  3  0  0  0  0  0  0
  160.4720  209.2110  138.7280 C   0  0  0  0  0  2  0  0  0  0  0  0
  1  5  1  0  0  0  0
  2  7  1  1  0  0  0
  2  3  1  0  0  0  0
  4  1  1  0  0  0  0
  4  6  1  0  0  0  0
  5  3  1  0  0  0  0
  5 30  1  0  0  0  0
  6  2  1  0  0  0  0
  7  8  1  0  0  0  0
  8  9  1  6  0  0  0
  8 10  1  0  0  0  0
 10 11  1  0  0  0  0
 12 11  1  6  0  0  0
 12 14  1  0  0  0  0
 12 16  1  0  0  0  0
 13 14  1  0  0  0  0
 14 15  1  1  0  0  0
 16 19  1  0  0  0  0
 17 28  1  1  0  0  0
 17 19  1  0  0  0  0
 17 25  1  0  0  0  0
 19 22  1  0  0  0  0
 20 23  1  0  0  0  0
 22 26  1  0  0  0  0
 22 21  1  0  0  0  0
 22 18  1  0  0  0  0
 23 24  2  0  0  0  0
 25 26  1  0  0  0  0
 26 24  1  1  0  0  0
 27 25  1  0  0  0  0
 27 20  2  0  0  0  0
 28 29  1  0  0  0  0
 31 32  2  0  0  0  0
 31 30  1  0  0  0  0
 33 32  1  0  0  0  0
 34 36  1  0  0  0  0
 34 38  1  0  0  0  0
 35 39  1  1  0  0  0
 36 42  1  6  0  0  0
 36 33  1  0  0  0  0
 36 37  1  0  0  0  0
 37 35  1  0  0  0  0
 38 35  1  0  0  0  0
 39 41  1  0  0  0  0
 39 40  1  0  0  0  0
 43 42  1  0  0  0  0
 44 48  1  6  0  0  0
 44 43  1  0  0  0  0
 46 44  1  0  0  0  0
 46 45  1  0  0  0  0
 46 47  1  0  0  0  0
 49 48  1  0  0  0  0
 50 49  1  0  0  0  0
 51 50  1  0  0  0  0
 52 54  1  0  0  0  0
 52 51  1  0  0  0  0
 53 55  1  0  0  0  0
 53 54  1  0  0  0  0
 55 54  1  0  0  0  0
M  END
>  <MODEL>
1

>  <REMARK>
 VINA RESULT:      -5.0      0.000      0.000
  Name = 
  24 active torsions:
  status: ('A' for Active; 'I' for Inactive)
    1  A    between atoms: C_1  and  C_21
    2  A    between atoms: C_2  and  C_28
    3  A    between atoms: C_2  and  N_44
    4  A    between atoms: C_4  and  C_19
    5  A    between atoms: C_4  and  C_37
    6  A    between atoms: N_6  and  C_46
    7  A    between atoms: C_8  and  C_22
    8  A    between atoms: C_8  and  C_35
    9  A    between atoms: N_10  and  C_32
   10  A    between atoms: C_15  and  C_17
   11  A    between atoms: C_16  and  C_17
   12  A    between atoms: C_16  and  C_26
   13  A    between atoms: C_17  and  C_36
   14  A    between atoms: C_20  and  C_22
   15  A    between atoms: C_22  and  C_46
   16  A    between atoms: C_26  and  C_45
   17  A    between atoms: C_27  and  C_54
   18  A    between atoms: N_33  and  O_49
   19  A    between atoms: C_34  and  O_49
   20  A    between atoms: C_34  and  O_52
   21  A    between atoms: C_35  and  C_43
   22  A    between atoms: C_36  and  O_52
   23  A    between atoms: C_37  and  C_45
   24  A    between atoms: C_43  and  C_54
                            x       y       z     vdW  Elec       q    Type
                         _______ _______ _______ _____ _____    ______ ____

>  <TORSDO>
F 24

$$$$
=
 OpenBabel11062408493D

 55 59  0  0  1  0  0  0  0  0999 V2000
  161.9510  205.7630  146.5340 C   0  0  0  0  0  2  0  0  0  0  0  0
  161.5640  204.8020  149.1320 C   0  0  2  0  0  3  0  0  0  0  0  0
  160.8240  206.0540  148.6520 C   0  0  0  0  0  2  0  0  0  0  0  0
  162.6440  204.5530  147.1590 C   0  0  0  0  0  2  0  0  0  0  0  0
  161.5850  206.7170  147.5860 N   0  0  0  0  0  0  0  0  0  0  0  0
  161.7640  203.9190  148.0530 O   0  0  0  0  0  0  0  0  0  0  0  0
  160.7140  204.1240  150.1920 C   0  0  0  0  0  2  0  0  0  0  0  0
  161.4840  203.9370  151.4860 C   0  0  2  0  0  3  0  0  0  0  0  0
  161.5920  202.4480  151.7580 C   0  0  0  0  0  1  0  0  0  0  0  0
  160.7320  204.6220  152.6200 C   0  0  0  0  0  2  0  0  0  0  0  0
  161.6080  205.6170  153.3770 C   0  0  0  0  0  2  0  0  0  0  0  0
  161.1770  207.0710  153.1700 C   0  0  2  0  0  3  0  0  0  0  0  0
  162.8640  206.8400  151.4600 O   0  0  0  0  0  1  0  0  0  0  0  0
  161.9660  207.7400  152.0360 C   0  0  1  0  0  3  0  0  0  0  0  0
  161.0320  208.2450  150.9490 C   0  0  0  0  0  1  0  0  0  0  0  0
  161.3970  207.8420  154.4700 C   0  0  0  0  0  2  0  0  0  0  0  0
  159.6760  209.0350  155.7870 C   0  0  2  0  0  3  0  0  0  0  0  0
  161.1810  210.7730  153.1640 O   0  0  0  0  0  1  0  0  0  0  0  0
  160.5090  209.0110  154.5660 N   0  0  0  0  0  0  0  0  0  0  0  0
  157.8220  212.0970  156.2570 C   0  0  0  0  0  3  0  0  0  0  0  0
  162.5270  210.2240  154.9200 O   0  0  0  0  0  1  0  0  0  0  0  0
  161.2000  210.3180  154.4860 C   0  0  0  0  0  0  0  0  0  0  0  0
  158.5300  212.8260  155.1870 C   0  0  0  0  0  3  0  0  0  0  0  0
  159.7300  212.4220  154.7550 C   0  0  0  0  0  3  0  0  0  0  0  0
  159.5230  210.4240  156.1560 N   0  0  0  0  0  0  0  0  0  0  0  0
  160.4500  211.2700  155.4230 C   0  0  1  0  0  3  0  0  0  0  0  0
  158.2970  210.9300  156.6970 C   0  0  0  0  0  3  0  0  0  0  0  0
  160.2310  208.2350  156.9800 C   0  0  0  0  0  2  0  0  0  0  0  0
  161.5720  207.9020  156.7770 O   0  0  0  0  0  1  0  0  0  0  0  0
  160.7970  207.8140  147.0050 C   0  0  0  0  0  2  0  0  0  0  0  0
  161.1950  209.1840  147.4880 C   0  0  0  0  0  3  0  0  0  0  0  0
  160.7130  210.2450  146.9290 N   0  0  0  0  0  0  0  0  0  0  0  0
  161.0740  211.4930  147.3940 O   0  0  0  0  0  0  0  0  0  0  0  0
  159.0870  212.8040  147.2540 C   0  0  0  0  0  2  0  0  0  0  0  0
  160.4440  214.2850  148.6710 C   0  0  1  0  0  3  0  0  0  0  0  0
  160.5370  212.6930  146.8230 C   0  0  1  0  0  0  0  0  0  0  0  0
  161.2030  213.9420  147.4000 C   0  0  0  0  0  2  0  0  0  0  0  0
  159.0430  213.7170  148.4670 C   0  0  0  0  0  2  0  0  0  0  0  0
  161.0810  213.6540  149.8290 N   0  0  0  0  0  0  0  0  0  0  0  0
  161.9520  212.7250  149.3640 O   0  0  0  0  0  1  0  0  0  0  0  0
  160.1210  212.9710  150.4980 O   0  0  0  0  0  1  0  0  0  0  0  0
  160.5770  212.6660  145.4100 O   0  0  0  0  0  0  0  0  0  0  0  0
  161.0310  213.9100  144.9340 C   0  0  0  0  0  2  0  0  0  0  0  0
  161.1530  213.9010  143.4090 C   0  0  1  0  0  3  0  0  0  0  0  0
  163.1230  214.4380  141.9440 C   0  0  0  0  0  1  0  0  0  0  0  0
  162.5430  213.4480  142.9410 C   0  0  0  0  0  3  0  0  0  0  0  0
  163.5120  213.3190  144.1050 C   0  0  0  0  0  1  0  0  0  0  0  0
  160.0690  213.0120  142.8030 C   0  0  0  0  0  2  0  0  0  0  0  0
  159.7790  213.4190  141.3660 C   0  0  0  0  0  2  0  0  0  0  0  0
  160.5930  212.5810  140.3940 C   0  0  0  0  0  2  0  0  0  0  0  0
  160.1720  211.1230  140.4530 C   0  0  0  0  0  2  0  0  0  0  0  0
  161.0240  210.2860  139.5170 C   0  0  0  0  0  2  0  0  0  0  0  0
  158.8380  210.0040  138.4120 C   0  0  0  0  0  2  0  0  0  0  0  0
  160.1530  209.3260  138.7350 C   0  0  0  0  0  3  0  0  0  0  0  0
  159.9090  209.8950  137.3510 C   0  0  0  0  0  2  0  0  0  0  0  0
  1  4  1  0  0  0  0
  1  5  1  0  0  0  0
  2  7  1  1  0  0  0
  3  2  1  0  0  0  0
  4  6  1  0  0  0  0
  5  3  1  0  0  0  0
  6  2  1  0  0  0  0
  7  8  1  0  0  0  0
  8  9  1  1  0  0  0
  8 10  1  0  0  0  0
 10 11  1  0  0  0  0
 12 11  1  1  0  0  0
 12 16  1  0  0  0  0
 13 14  1  0  0  0  0
 14 15  1  6  0  0  0
 14 12  1  0  0  0  0
 16 19  1  0  0  0  0
 17 25  1  0  0  0  0
 17 28  1  1  0  0  0
 18 22  1  0  0  0  0
 19 17  1  0  0  0  0
 20 27  2  0  0  0  0
 22 19  1  0  0  0  0
 22 21  1  0  0  0  0
 22 26  1  0  0  0  0
 23 20  1  0  0  0  0
 24 23  2  0  0  0  0
 25 27  1  0  0  0  0
 26 24  1  6  0  0  0
 26 25  1  0  0  0  0
 29 28  1  0  0  0  0
 30 31  1  0  0  0  0
 30  5  1  0  0  0  0
 32 33  1  0  0  0  0
 32 31  2  0  0  0  0
 34 38  1  0  0  0  0
 35 39  1  1  0  0  0
 36 42  1  6  0  0  0
 36 34  1  0  0  0  0
 36 33  1  0  0  0  0
 36 37  1  0  0  0  0
 37 35  1  0  0  0  0
 38 35  1  0  0  0  0
 39 41  1  0  0  0  0
 40 39  1  0  0  0  0
 43 42  1  0  0  0  0
 44 48  1  6  0  0  0
 44 43  1  0  0  0  0
 45 46  1  0  0  0  0
 46 44  1  0  0  0  0
 46 47  1  0  0  0  0
 49 48  1  0  0  0  0
 50 51  1  0  0  0  0
 50 49  1  0  0  0  0
 52 51  1  0  0  0  0
 53 54  1  0  0  0  0
 54 52  1  0  0  0  0
 55 53  1  0  0  0  0
 55 54  1  0  0  0  0
M  END
>  <MODEL>
2

>  <REMARK>
 VINA RESULT:      -3.6      2.449      7.025
  Name = 
  24 active torsions:
  status: ('A' for Active; 'I' for Inactive)
    1  A    between atoms: C_1  and  C_21
    2  A    between atoms: C_2  and  C_28
    3  A    between atoms: C_2  and  N_44
    4  A    between atoms: C_4  and  C_19
    5  A    between atoms: C_4  and  C_37
    6  A    between atoms: N_6  and  C_46
    7  A    between atoms: C_8  and  C_22
    8  A    between atoms: C_8  and  C_35
    9  A    between atoms: N_10  and  C_32
   10  A    between atoms: C_15  and  C_17
   11  A    between atoms: C_16  and  C_17
   12  A    between atoms: C_16  and  C_26
   13  A    between atoms: C_17  and  C_36
   14  A    between atoms: C_20  and  C_22
   15  A    between atoms: C_22  and  C_46
   16  A    between atoms: C_26  and  C_45
   17  A    between atoms: C_27  and  C_54
   18  A    between atoms: N_33  and  O_49
   19  A    between atoms: C_34  and  O_49
   20  A    between atoms: C_34  and  O_52
   21  A    between atoms: C_35  and  C_43
   22  A    between atoms: C_36  and  O_52
   23  A    between atoms: C_37  and  C_45
   24  A    between atoms: C_43  and  C_54
                            x       y       z     vdW  Elec       q    Type
                         _______ _______ _______ _____ _____    ______ ____

>  <TORSDO>
F 24

$$$$
=
 OpenBabel11062408493D

 55 59  0  0  1  0  0  0  0  0999 V2000
  162.9460  211.2210  148.4060 C   0  0  0  0  0  2  0  0  0  0  0  0
  160.8290  213.0250  148.7050 C   0  0  2  0  0  3  0  0  0  0  0  0
  160.9610  211.8240  149.6460 C   0  0  0  0  0  2  0  0  0  0  0  0
  162.6680  212.4380  147.5250 C   0  0  0  0  0  2  0  0  0  0  0  0
  161.6880  210.7350  148.9830 N   0  0  0  0  0  0  0  0  0  0  0  0
  162.1060  213.4630  148.3050 O   0  0  0  0  0  0  0  0  0  0  0  0
  160.1210  214.1410  149.4530 C   0  0  0  0  0  2  0  0  0  0  0  0
  158.7240  213.7280  149.8750 C   0  0  2  0  0  3  0  0  0  0  0  0
  157.7550  214.1730  148.7950 C   0  0  0  0  0  1  0  0  0  0  0  0
  158.3790  214.4020  151.1970 C   0  0  0  0  0  2  0  0  0  0  0  0
  159.2710  213.9240  152.3400 C   0  0  0  0  0  2  0  0  0  0  0  0
  158.5610  212.9490  153.2840 C   0  0  2  0  0  3  0  0  0  0  0  0
  156.3430  213.7580  152.7860 O   0  0  0  0  0  1  0  0  0  0  0  0
  157.2500  213.5390  153.8230 C   0  0  1  0  0  3  0  0  0  0  0  0
  156.6070  212.6000  154.8310 C   0  0  0  0  0  1  0  0  0  0  0  0
  159.4930  212.6220  154.4500 C   0  0  0  0  0  2  0  0  0  0  0  0
  160.1470  210.3040  153.8850 C   0  0  2  0  0  3  0  0  0  0  0  0
  158.8300  210.8720  157.0660 O   0  0  0  0  0  1  0  0  0  0  0  0
  159.4260  211.1990  154.8160 N   0  0  0  0  0  0  0  0  0  0  0  0
  160.3680  206.8770  154.9980 C   0  0  0  0  0  3  0  0  0  0  0  0
  160.8480  211.8350  156.6170 O   0  0  0  0  0  1  0  0  0  0  0  0
  159.9120  210.8910  156.1800 C   0  0  0  0  0  0  0  0  0  0  0  0
  159.8760  207.1660  156.3590 C   0  0  0  0  0  3  0  0  0  0  0  0
  159.9330  208.4030  156.8650 C   0  0  0  0  0  3  0  0  0  0  0  0
  160.6810  209.2240  154.6820 N   0  0  0  0  0  0  0  0  0  0  0  0
  160.6020  209.5250  156.1020 C   0  0  1  0  0  3  0  0  0  0  0  0
  160.7290  207.8780  154.1930 C   0  0  0  0  0  3  0  0  0  0  0  0
  161.2780  210.9660  153.0770 C   0  0  0  0  0  2  0  0  0  0  0  0
  162.5280  210.5260  153.5160 O   0  0  0  0  0  1  0  0  0  0  0  0
  161.9680  209.6540  149.9390 C   0  0  0  0  0  2  0  0  0  0  0  0
  162.0270  208.2810  149.3200 C   0  0  0  0  0  3  0  0  0  0  0  0
  162.4450  207.2680  150.0050 N   0  0  0  0  0  0  0  0  0  0  0  0
  162.4770  206.0140  149.4290 O   0  0  0  0  0  0  0  0  0  0  0  0
  161.7260  204.1160  148.1960 C   0  0  0  0  0  2  0  0  0  0  0  0
  160.5390  203.7140  150.3110 C   0  0  1  0  0  3  0  0  0  0  0  0
  161.3240  205.4530  148.7880 C   0  0  1  0  0  0  0  0  0  0  0  0
  160.2280  205.1100  149.7960 C   0  0  0  0  0  2  0  0  0  0  0  0
  161.3270  203.0400  149.1910 C   0  0  0  0  0  2  0  0  0  0  0  0
  161.3530  203.7910  151.5260 N   0  0  0  0  0  0  0  0  0  0  0  0
  162.0320  202.6240  151.6420 O   0  0  0  0  0  1  0  0  0  0  0  0
  160.5030  203.8410  152.5810 O   0  0  0  0  0  1  0  0  0  0  0  0
  160.8530  206.2760  147.7400 O   0  0  0  0  0  0  0  0  0  0  0  0
  161.7030  206.1460  146.6270 C   0  0  0  0  0  2  0  0  0  0  0  0
  160.9180  205.7220  145.3850 C   0  0  1  0  0  3  0  0  0  0  0  0
  161.4350  206.0110  142.9420 C   0  0  0  0  0  1  0  0  0  0  0  0
  161.8400  205.3090  144.2290 C   0  0  0  0  0  3  0  0  0  0  0  0
  163.2920  205.6480  144.5220 C   0  0  0  0  0  1  0  0  0  0  0  0
  159.9590  204.5860  145.7340 C   0  0  0  0  0  2  0  0  0  0  0  0
  160.4780  203.2580  145.2030 C   0  0  0  0  0  2  0  0  0  0  0  0
  159.3260  202.3200  144.8800 C   0  0  0  0  0  2  0  0  0  0  0  0
  159.5110  200.9790  145.5690 C   0  0  0  0  0  2  0  0  0  0  0  0
  160.8800  200.4050  145.2560 C   0  0  0  0  0  2  0  0  0  0  0  0
  160.7700  197.9540  145.0240 C   0  0  0  0  0  2  0  0  0  0  0  0
  161.0730  199.0900  145.9780 C   0  0  0  0  0  3  0  0  0  0  0  0
  162.2050  198.3250  145.3190 C   0  0  0  0  0  2  0  0  0  0  0  0
  1  5  1  0  0  0  0
  2  7  1  1  0  0  0
  2  3  1  0  0  0  0
  4  6  1  0  0  0  0
  4  1  1  0  0  0  0
  5  3  1  0  0  0  0
  5 30  1  0  0  0  0
  6  2  1  0  0  0  0
  7  8  1  0  0  0  0
  8  9  1  6  0  0  0
  8 10  1  0  0  0  0
 10 11  1  0  0  0  0
 12 11  1  6  0  0  0
 12 14  1  0  0  0  0
 12 16  1  0  0  0  0
 13 14  1  0  0  0  0
 14 15  1  1  0  0  0
 16 19  1  0  0  0  0
 17 28  1  1  0  0  0
 17 25  1  0  0  0  0
 17 19  1  0  0  0  0
 19 22  1  0  0  0  0
 20 23  1  0  0  0  0
 22 21  1  0  0  0  0
 22 18  1  0  0  0  0
 23 24  2  0  0  0  0
 25 26  1  0  0  0  0
 26 22  1  0  0  0  0
 26 24  1  1  0  0  0
 27 25  1  0  0  0  0
 27 20  2  0  0  0  0
 28 29  1  0  0  0  0
 31 30  1  0  0  0  0
 31 32  2  0  0  0  0
 33 32  1  0  0  0  0
 34 36  1  0  0  0  0
 34 38  1  0  0  0  0
 35 39  1  1  0  0  0
 36 42  1  6  0  0  0
 36 33  1  0  0  0  0
 36 37  1  0  0  0  0
 37 35  1  0  0  0  0
 38 35  1  0  0  0  0
 39 40  1  0  0  0  0
 39 41  1  0  0  0  0
 43 42  1  0  0  0  0
 44 48  1  1  0  0  0
 44 43  1  0  0  0  0
 45 46  1  0  0  0  0
 46 47  1  0  0  0  0
 46 44  1  0  0  0  0
 49 48  1  0  0  0  0
 50 49  1  0  0  0  0
 50 51  1  0  0  0  0
 52 51  1  0  0  0  0
 52 54  1  0  0  0  0
 53 55  1  0  0  0  0
 53 54  1  0  0  0  0
 55 54  1  0  0  0  0
M  END
>  <MODEL>
3

>  <REMARK>
 VINA RESULT:      -3.6      1.613      3.730
  Name = 
  24 active torsions:
  status: ('A' for Active; 'I' for Inactive)
    1  A    between atoms: C_1  and  C_21
    2  A    between atoms: C_2  and  C_28
    3  A    between atoms: C_2  and  N_44
    4  A    between atoms: C_4  and  C_19
    5  A    between atoms: C_4  and  C_37
    6  A    between atoms: N_6  and  C_46
    7  A    between atoms: C_8  and  C_22
    8  A    between atoms: C_8  and  C_35
    9  A    between atoms: N_10  and  C_32
   10  A    between atoms: C_15  and  C_17
   11  A    between atoms: C_16  and  C_17
   12  A    between atoms: C_16  and  C_26
   13  A    between atoms: C_17  and  C_36
   14  A    between atoms: C_20  and  C_22
   15  A    between atoms: C_22  and  C_46
   16  A    between atoms: C_26  and  C_45
   17  A    between atoms: C_27  and  C_54
   18  A    between atoms: N_33  and  O_49
   19  A    between atoms: C_34  and  O_49
   20  A    between atoms: C_34  and  O_52
   21  A    between atoms: C_35  and  C_43
   22  A    between atoms: C_36  and  O_52
   23  A    between atoms: C_37  and  C_45
   24  A    between atoms: C_43  and  C_54
                            x       y       z     vdW  Elec       q    Type
                         _______ _______ _______ _____ _____    ______ ____

>  <TORSDO>
F 24

$$$$
=
 OpenBabel11062408493D

 55 59  0  0  1  0  0  0  0  0999 V2000
  161.7060  204.6140  147.9040 C   0  0  0  0  0  2  0  0  0  0  0  0
  161.7780  205.2650  145.1830 C   0  0  2  0  0  3  0  0  0  0  0  0
  161.7900  206.3700  146.2450 C   0  0  0  0  0  2  0  0  0  0  0  0
  161.6650  203.6250  146.7390 C   0  0  0  0  0  2  0  0  0  0  0  0
  161.1440  205.8990  147.4760 N   0  0  0  0  0  0  0  0  0  0  0  0
  162.4370  204.1210  145.6750 O   0  0  0  0  0  0  0  0  0  0  0  0
  162.5030  205.7790  143.9530 C   0  0  0  0  0  2  0  0  0  0  0  0
  161.5300  206.1650  142.8550 C   0  0  2  0  0  3  0  0  0  0  0  0
  160.4890  205.0660  142.7410 C   0  0  0  0  0  1  0  0  0  0  0  0
  162.2870  206.3060  141.5400 C   0  0  0  0  0  2  0  0  0  0  0  0
  161.9760  207.6230  140.8330 C   0  0  0  0  0  2  0  0  0  0  0  0
  161.6280  207.4390  139.3540 C   0  0  2  0  0  3  0  0  0  0  0  0
  162.3830  205.1760  138.9880 O   0  0  0  0  0  1  0  0  0  0  0  0
  162.6260  206.5070  138.6500 C   0  0  1  0  0  3  0  0  0  0  0  0
  162.5240  206.6430  137.1400 C   0  0  0  0  0  1  0  0  0  0  0  0
  161.6350  208.8050  138.6700 C   0  0  0  0  0  2  0  0  0  0  0  0
  161.7780  211.0060  139.7900 C   0  0  2  0  0  3  0  0  0  0  0  0
  158.6100  209.5910  139.4300 O   0  0  0  0  0  1  0  0  0  0  0  0
  160.9480  209.8220  139.4810 N   0  0  0  0  0  0  0  0  0  0  0  0
  159.9840  213.6950  141.3960 C   0  0  0  0  0  3  0  0  0  0  0  0
  159.6720  210.2010  137.5060 O   0  0  0  0  0  1  0  0  0  0  0  0
  159.6790  210.3190  138.9010 C   0  0  0  0  0  0  0  0  0  0  0  0
  158.6530  213.1020  141.1620 C   0  0  0  0  0  3  0  0  0  0  0  0
  158.4650  212.1850  140.2060 C   0  0  0  0  0  3  0  0  0  0  0  0
  160.8830  212.1400  139.8230 N   0  0  0  0  0  0  0  0  0  0  0  0
  159.5850  211.8060  139.2620 C   0  0  1  0  0  3  0  0  0  0  0  0
  161.0520  213.2070  140.7630 C   0  0  0  0  0  3  0  0  0  0  0  0
  162.9310  211.2770  138.8070 C   0  0  0  0  0  2  0  0  0  0  0  0
  164.0900  211.6530  139.4890 O   0  0  0  0  0  1  0  0  0  0  0  0
  161.3100  206.8910  148.5480 C   0  0  0  0  0  2  0  0  0  0  0  0
  161.9110  208.1970  148.0950 C   0  0  0  0  0  3  0  0  0  0  0  0
  161.5850  209.3070  148.6720 N   0  0  0  0  0  0  0  0  0  0  0  0
  162.1570  210.4920  148.2570 O   0  0  0  0  0  0  0  0  0  0  0  0
  162.8750  212.7520  148.5090 C   0  0  0  0  0  2  0  0  0  0  0  0
  160.9950  213.1000  146.9630 C   0  0  1  0  0  3  0  0  0  0  0  0
  161.7860  211.7490  148.8370 C   0  0  1  0  0  0  0  0  0  0  0  0
  160.5290  212.3240  148.1840 C   0  0  0  0  0  2  0  0  0  0  0  0
  162.4260  213.5250  147.2810 C   0  0  0  0  0  2  0  0  0  0  0  0
  160.9760  212.2400  145.7770 N   0  0  0  0  0  0  0  0  0  0  0  0
  161.5190  212.9400  144.7510 O   0  0  0  0  0  1  0  0  0  0  0  0
  159.6770  212.0330  145.4480 O   0  0  0  0  0  1  0  0  0  0  0  0
  161.6710  211.6660  150.2440 O   0  0  0  0  0  0  0  0  0  0  0  0
  160.4620  212.2620  150.6470 C   0  0  0  0  0  2  0  0  0  0  0  0
  160.3120  212.2160  152.1690 C   0  0  1  0  0  3  0  0  0  0  0  0
  158.3330  213.6400  151.5560 C   0  0  0  0  0  1  0  0  0  0  0  0
  158.9570  212.7670  152.6340 C   0  0  0  0  0  3  0  0  0  0  0  0
  157.9810  211.6490  152.9660 C   0  0  0  0  0  1  0  0  0  0  0  0
  160.5080  210.7880  152.6720 C   0  0  0  0  0  2  0  0  0  0  0  0
  161.3070  210.7770  153.9670 C   0  0  0  0  0  2  0  0  0  0  0  0
  161.1690  209.4380  154.6730 C   0  0  0  0  0  2  0  0  0  0  0  0
  160.8570  208.3320  153.6790 C   0  0  0  0  0  2  0  0  0  0  0  0
  161.3310  206.9920  154.2080 C   0  0  0  0  0  2  0  0  0  0  0  0
  160.9970  206.5980  151.7980 C   0  0  0  0  0  2  0  0  0  0  0  0
  161.1850  205.9270  153.1430 C   0  0  0  0  0  3  0  0  0  0  0  0
  162.3480  206.0340  152.1750 C   0  0  0  0  0  2  0  0  0  0  0  0
  2  7  1  6  0  0  0
  2  6  1  0  0  0  0
  2  3  1  0  0  0  0
  3  5  1  0  0  0  0
  4  1  1  0  0  0  0
  5  1  1  0  0  0  0
  5 30  1  0  0  0  0
  6  4  1  0  0  0  0
  8  9  1  6  0  0  0
  8  7  1  0  0  0  0
 10  8  1  0  0  0  0
 11 10  1  0  0  0  0
 12 16  1  6  0  0  0
 12 11  1  0  0  0  0
 14 15  1  6  0  0  0
 14 13  1  0  0  0  0
 14 12  1  0  0  0  0
 16 19  1  0  0  0  0
 17 28  1  6  0  0  0
 17 25  1  0  0  0  0
 19 17  1  0  0  0  0
 21 22  1  0  0  0  0
 22 26  1  0  0  0  0
 22 18  1  0  0  0  0
 22 19  1  0  0  0  0
 23 20  1  0  0  0  0
 24 23  2  0  0  0  0
 25 27  1  0  0  0  0
 26 25  1  0  0  0  0
 26 24  1  1  0  0  0
 27 20  2  0  0  0  0
 28 29  1  0  0  0  0
 31 30  1  0  0  0  0
 31 32  2  0  0  0  0
 33 32  1  0  0  0  0
 34 36  1  0  0  0  0
 35 39  1  6  0  0  0
 35 38  1  0  0  0  0
 35 37  1  0  0  0  0
 36 33  1  6  0  0  0
 36 42  1  0  0  0  0
 37 36  1  0  0  0  0
 38 34  1  0  0  0  0
 40 39  1  0  0  0  0
 41 39  1  0  0  0  0
 42 43  1  0  0  0  0
 44 43  1  6  0  0  0
 44 46  1  0  0  0  0
 44 48  1  0  0  0  0
 45 46  1  0  0  0  0
 46 47  1  0  0  0  0
 48 49  1  0  0  0  0
 49 50  1  0  0  0  0
 51 52  1  0  0  0  0
 51 50  1  0  0  0  0
 53 55  1  0  0  0  0
 53 54  1  0  0  0  0
 54 52  1  0  0  0  0
 55 54  1  0  0  0  0
M  END
>  <MODEL>
4

>  <REMARK>
 VINA RESULT:      -3.3      3.643     12.476
  Name = 
  24 active torsions:
  status: ('A' for Active; 'I' for Inactive)
    1  A    between atoms: C_1  and  C_21
    2  A    between atoms: C_2  and  C_28
    3  A    between atoms: C_2  and  N_44
    4  A    between atoms: C_4  and  C_19
    5  A    between atoms: C_4  and  C_37
    6  A    between atoms: N_6  and  C_46
    7  A    between atoms: C_8  and  C_22
    8  A    between atoms: C_8  and  C_35
    9  A    between atoms: N_10  and  C_32
   10  A    between atoms: C_15  and  C_17
   11  A    between atoms: C_16  and  C_17
   12  A    between atoms: C_16  and  C_26
   13  A    between atoms: C_17  and  C_36
   14  A    between atoms: C_20  and  C_22
   15  A    between atoms: C_22  and  C_46
   16  A    between atoms: C_26  and  C_45
   17  A    between atoms: C_27  and  C_54
   18  A    between atoms: N_33  and  O_49
   19  A    between atoms: C_34  and  O_49
   20  A    between atoms: C_34  and  O_52
   21  A    between atoms: C_35  and  C_43
   22  A    between atoms: C_36  and  O_52
   23  A    between atoms: C_37  and  C_45
   24  A    between atoms: C_43  and  C_54
                            x       y       z     vdW  Elec       q    Type
                         _______ _______ _______ _____ _____    ______ ____

>  <TORSDO>
F 24

$$$$
=
 OpenBabel11062408493D

 55 59  0  0  1  0  0  0  0  0999 V2000
  161.9590  205.0860  148.0740 C   0  0  0  0  0  2  0  0  0  0  0  0
  161.8390  205.2890  145.2860 C   0  0  2  0  0  3  0  0  0  0  0  0
  161.9550  206.5490  146.1500 C   0  0  0  0  0  2  0  0  0  0  0  0
  161.8080  203.9250  147.0920 C   0  0  0  0  0  2  0  0  0  0  0  0
  161.3950  206.3040  147.4840 N   0  0  0  0  0  0  0  0  0  0  0  0
  162.5080  204.2170  145.9090 O   0  0  0  0  0  0  0  0  0  0  0  0
  162.4790  205.5740  143.9400 C   0  0  0  0  0  2  0  0  0  0  0  0
  161.4450  205.9810  142.9070 C   0  0  2  0  0  3  0  0  0  0  0  0
  160.2670  205.0310  143.0220 C   0  0  0  0  0  1  0  0  0  0  0  0
  162.0600  205.8850  141.5170 C   0  0  0  0  0  2  0  0  0  0  0  0
  162.5290  207.2420  140.9970 C   0  0  0  0  0  2  0  0  0  0  0  0
  161.5290  207.8920  140.0370 C   0  0  2  0  0  3  0  0  0  0  0  0
  160.5200  207.7260  137.8510 O   0  0  0  0  0  1  0  0  0  0  0  0
  161.4540  207.1370  138.7020 C   0  0  1  0  0  3  0  0  0  0  0  0
  162.8040  207.1360  138.0030 C   0  0  0  0  0  1  0  0  0  0  0  0
  161.9520  209.3370  139.7850 C   0  0  0  0  0  2  0  0  0  0  0  0
  161.5590  211.4390  141.0290 C   0  0  2  0  0  3  0  0  0  0  0  0
  158.8700  210.0920  139.2600 O   0  0  0  0  0  1  0  0  0  0  0  0
  160.9640  210.2930  140.3080 N   0  0  0  0  0  0  0  0  0  0  0  0
  159.1910  214.0090  141.9340 C   0  0  0  0  0  3  0  0  0  0  0  0
  160.6270  210.8440  138.0160 O   0  0  0  0  0  1  0  0  0  0  0  0
  160.0450  210.8490  139.2890 C   0  0  0  0  0  0  0  0  0  0  0  0
  158.0970  213.4510  141.1170 C   0  0  0  0  0  3  0  0  0  0  0  0
  158.3500  212.6170  140.1030 C   0  0  0  0  0  3  0  0  0  0  0  0
  160.7060  212.5770  140.7700 N   0  0  0  0  0  0  0  0  0  0  0  0
  159.7720  212.3030  139.6910 C   0  0  1  0  0  3  0  0  0  0  0  0
  160.4380  213.5620  141.7740 C   0  0  0  0  0  3  0  0  0  0  0  0
  163.0110  211.7760  140.6460 C   0  0  0  0  0  2  0  0  0  0  0  0
  163.0500  212.7460  139.6420 O   0  0  0  0  0  1  0  0  0  0  0  0
  161.6630  207.4490  148.3660 C   0  0  0  0  0  2  0  0  0  0  0  0
  160.9820  207.3700  149.7080 C   0  0  0  0  0  3  0  0  0  0  0  0
  161.1290  208.3140  150.5780 N   0  0  0  0  0  0  0  0  0  0  0  0
  160.4840  208.2350  151.7960 O   0  0  0  0  0  0  0  0  0  0  0  0
  160.2530  207.8090  154.1310 C   0  0  0  0  0  2  0  0  0  0  0  0
  161.6280  205.8700  153.5050 C   0  0  1  0  0  3  0  0  0  0  0  0
  161.2100  208.2280  153.0310 C   0  0  1  0  0  0  0  0  0  0  0  0
  162.2970  207.1540  153.0420 C   0  0  0  0  0  2  0  0  0  0  0  0
  160.4440  206.3190  154.3550 C   0  0  0  0  0  2  0  0  0  0  0  0
  161.1580  205.0990  152.3510 N   0  0  0  0  0  0  0  0  0  0  0  0
  160.7250  203.8980  152.8070 O   0  0  0  0  0  1  0  0  0  0  0  0
  162.2350  204.8400  151.5700 O   0  0  0  0  0  1  0  0  0  0  0  0
  161.7160  209.5090  153.3510 O   0  0  0  0  0  0  0  0  0  0  0  0
  161.1530  209.9420  154.5650 C   0  0  0  0  0  2  0  0  0  0  0  0
  159.8900  210.7680  154.3170 C   0  0  1  0  0  3  0  0  0  0  0  0
  157.9470  210.8890  155.9070 C   0  0  0  0  0  1  0  0  0  0  0  0
  159.3470  211.3990  155.6070 C   0  0  0  0  0  3  0  0  0  0  0  0
  160.2350  211.0870  156.8000 C   0  0  0  0  0  1  0  0  0  0  0  0
  160.1640  211.8450  153.2700 C   0  0  0  0  0  2  0  0  0  0  0  0
  158.9220  212.6870  153.0220 C   0  0  0  0  0  2  0  0  0  0  0  0
  158.7720  213.0050  151.5440 C   0  0  0  0  0  2  0  0  0  0  0  0
  160.1310  213.1920  150.8910 C   0  0  0  0  0  2  0  0  0  0  0  0
  160.1450  214.4490  150.0410 C   0  0  0  0  0  2  0  0  0  0  0  0
  160.9510  212.7970  148.3990 C   0  0  0  0  0  2  0  0  0  0  0  0
  161.0220  214.2480  148.8250 C   0  0  0  0  0  3  0  0  0  0  0  0
  160.1530  213.8400  147.6510 C   0  0  0  0  0  2  0  0  0  0  0  0
  2  7  1  6  0  0  0
  2  6  1  0  0  0  0
  2  3  1  0  0  0  0
  3  5  1  0  0  0  0
  4  1  1  0  0  0  0
  5  1  1  0  0  0  0
  5 30  1  0  0  0  0
  6  4  1  0  0  0  0
  8  9  1  6  0  0  0
  8  7  1  0  0  0  0
 10  8  1  0  0  0  0
 11 10  1  0  0  0  0
 12 16  1  6  0  0  0
 12 11  1  0  0  0  0
 13 14  1  0  0  0  0
 14 15  1  6  0  0  0
 14 12  1  0  0  0  0
 16 19  1  0  0  0  0
 17 28  1  6  0  0  0
 18 22  1  0  0  0  0
 19 17  1  0  0  0  0
 21 22  1  0  0  0  0
 22 26  1  0  0  0  0
 22 19  1  0  0  0  0
 23 20  1  0  0  0  0
 24 23  2  0  0  0  0
 25 17  1  0  0  0  0
 25 27  1  0  0  0  0
 26 24  1  1  0  0  0
 26 25  1  0  0  0  0
 27 20  2  0  0  0  0
 29 28  1  0  0  0  0
 30 31  1  0  0  0  0
 31 32  2  0  0  0  0
 32 33  1  0  0  0  0
 34 38  1  0  0  0  0
 35 39  1  6  0  0  0
 35 38  1  0  0  0  0
 36 33  1  6  0  0  0
 36 37  1  0  0  0  0
 36 42  1  0  0  0  0
 36 34  1  0  0  0  0
 37 35  1  0  0  0  0
 39 40  1  0  0  0  0
 41 39  1  0  0  0  0
 42 43  1  0  0  0  0
 44 48  1  6  0  0  0
 44 43  1  0  0  0  0
 44 46  1  0  0  0  0
 46 45  1  0  0  0  0
 46 47  1  0  0  0  0
 49 48  1  0  0  0  0
 50 49  1  0  0  0  0
 51 50  1  0  0  0  0
 52 51  1  0  0  0  0
 53 54  1  0  0  0  0
 54 52  1  0  0  0  0
 55 53  1  0  0  0  0
 55 54  1  0  0  0  0
M  END
>  <MODEL>
5

>  <REMARK>
 VINA RESULT:      -3.2      3.546     11.764
  Name = 
  24 active torsions:
  status: ('A' for Active; 'I' for Inactive)
    1  A    between atoms: C_1  and  C_21
    2  A    between atoms: C_2  and  C_28
    3  A    between atoms: C_2  and  N_44
    4  A    between atoms: C_4  and  C_19
    5  A    between atoms: C_4  and  C_37
    6  A    between atoms: N_6  and  C_46
    7  A    between atoms: C_8  and  C_22
    8  A    between atoms: C_8  and  C_35
    9  A    between atoms: N_10  and  C_32
   10  A    between atoms: C_15  and  C_17
   11  A    between atoms: C_16  and  C_17
   12  A    between atoms: C_16  and  C_26
   13  A    between atoms: C_17  and  C_36
   14  A    between atoms: C_20  and  C_22
   15  A    between atoms: C_22  and  C_46
   16  A    between atoms: C_26  and  C_45
   17  A    between atoms: C_27  and  C_54
   18  A    between atoms: N_33  and  O_49
   19  A    between atoms: C_34  and  O_49
   20  A    between atoms: C_34  and  O_52
   21  A    between atoms: C_35  and  C_43
   22  A    between atoms: C_36  and  O_52
   23  A    between atoms: C_37  and  C_45
   24  A    between atoms: C_43  and  C_54
                            x       y       z     vdW  Elec       q    Type
                         _______ _______ _______ _____ _____    ______ ____

>  <TORSDO>
F 24

$$$$
=
 OpenBabel11062408493D

 55 59  0  0  1  0  0  0  0  0999 V2000
  159.5160  209.2310  155.7340 C   0  0  0  0  0  2  0  0  0  0  0  0
  159.5300  211.8950  154.8810 C   0  0  2  0  0  3  0  0  0  0  0  0
  160.5420  210.8960  154.3140 C   0  0  0  0  0  2  0  0  0  0  0  0
  158.5940  210.3420  156.2350 C   0  0  0  0  0  2  0  0  0  0  0  0
  160.7820  209.8130  155.2750 N   0  0  0  0  0  0  0  0  0  0  0  0
  158.3230  211.2350  155.1850 O   0  0  0  0  0  0  0  0  0  0  0  0
  159.2750  212.9620  153.8320 C   0  0  0  0  0  2  0  0  0  0  0  0
  158.7630  212.3580  152.5380 C   0  0  2  0  0  3  0  0  0  0  0  0
  159.2120  210.9100  152.4850 C   0  0  0  0  0  1  0  0  0  0  0  0
  159.3440  213.1290  151.3600 C   0  0  0  0  0  2  0  0  0  0  0  0
  158.5790  214.4210  151.0810 C   0  0  0  0  0  2  0  0  0  0  0  0
  157.9440  214.4500  149.6880 C   0  0  2  0  0  3  0  0  0  0  0  0
  156.0030  213.1300  149.1270 O   0  0  0  0  0  1  0  0  0  0  0  0
  156.4170  214.3020  149.7600 C   0  0  1  0  0  3  0  0  0  0  0  0
  155.9430  214.2590  151.2040 C   0  0  0  0  0  1  0  0  0  0  0  0
  158.5300  213.3140  148.8530 C   0  0  0  0  0  2  0  0  0  0  0  0
  160.4790  213.6730  147.3730 C   0  0  2  0  0  3  0  0  0  0  0  0
  157.3080  213.9220  145.9400 O   0  0  0  0  0  1  0  0  0  0  0  0
  159.0160  213.7920  147.5490 N   0  0  0  0  0  0  0  0  0  0  0  0
  161.6350  214.4240  144.0370 C   0  0  0  0  0  3  0  0  0  0  0  0
  157.9210  211.8580  146.6930 O   0  0  0  0  0  1  0  0  0  0  0  0
  158.3820  213.1420  146.3790 C   0  0  0  0  0  0  0  0  0  0  0  0
  160.2820  214.4500  143.4490 C   0  0  0  0  0  3  0  0  0  0  0  0
  159.2550  213.8430  144.0540 C   0  0  0  0  0  3  0  0  0  0  0  0
  160.7040  213.3850  145.9750 N   0  0  0  0  0  0  0  0  0  0  0  0
  159.4680  213.0180  145.3050 C   0  0  1  0  0  3  0  0  0  0  0  0
  161.8200  213.9310  145.2620 C   0  0  0  0  0  3  0  0  0  0  0  0
  161.1630  212.6030  148.2430 C   0  0  0  0  0  2  0  0  0  0  0  0
  162.5470  212.6160  148.0550 O   0  0  0  0  0  1  0  0  0  0  0  0
  161.6140  208.7660  154.6660 C   0  0  0  0  0  2  0  0  0  0  0  0
  161.4530  208.6390  153.1730 C   0  0  0  0  0  3  0  0  0  0  0  0
  160.8090  207.6410  152.6620 N   0  0  0  0  0  0  0  0  0  0  0  0
  160.6560  207.5480  151.2940 O   0  0  0  0  0  0  0  0  0  0  0  0
  160.4890  206.1970  149.3360 C   0  0  0  0  0  2  0  0  0  0  0  0
  162.2190  207.7740  148.5870 C   0  0  1  0  0  3  0  0  0  0  0  0
  161.3570  206.5640  150.5240 C   0  0  1  0  0  0  0  0  0  0  0  0
  162.6320  207.1350  149.9030 C   0  0  0  0  0  2  0  0  0  0  0  0
  160.9620  207.0250  148.1550 C   0  0  0  0  0  2  0  0  0  0  0  0
  161.9180  209.1940  148.7850 N   0  0  0  0  0  0  0  0  0  0  0  0
  162.7510  209.9070  147.9870 O   0  0  0  0  0  1  0  0  0  0  0  0
  162.2570  209.5060  150.0600 O   0  0  0  0  0  1  0  0  0  0  0  0
  161.6030  205.3890  151.2720 O   0  0  0  0  0  0  0  0  0  0  0  0
  162.3250  204.4770  150.4800 C   0  0  0  0  0  2  0  0  0  0  0  0
  161.5350  203.1840  150.2770 C   0  0  1  0  0  3  0  0  0  0  0  0
  159.7760  203.5530  152.0350 C   0  0  0  0  0  1  0  0  0  0  0  0
  160.9260  202.6640  151.5860 C   0  0  0  0  0  3  0  0  0  0  0  0
  160.4010  201.2450  151.4370 C   0  0  0  0  0  1  0  0  0  0  0  0
  160.4440  203.3960  149.2290 C   0  0  0  0  0  2  0  0  0  0  0  0
  160.5190  202.3290  148.1480 C   0  0  0  0  0  2  0  0  0  0  0  0
  161.9630  202.0490  147.7660 C   0  0  0  0  0  2  0  0  0  0  0  0
  162.4070  202.9540  146.6290 C   0  0  0  0  0  2  0  0  0  0  0  0
  161.2880  203.1250  145.6180 C   0  0  0  0  0  2  0  0  0  0  0  0
  162.2070  205.4040  145.4320 C   0  0  0  0  0  2  0  0  0  0  0  0
  160.9320  204.5880  145.4740 C   0  0  0  0  0  3  0  0  0  0  0  0
  161.4660  205.0990  144.1500 C   0  0  0  0  0  2  0  0  0  0  0  0
  1  4  1  0  0  0  0
  2  7  1  6  0  0  0
  2  6  1  0  0  0  0
  3  2  1  0  0  0  0
  3  5  1  0  0  0  0
  5  1  1  0  0  0  0
  6  4  1  0  0  0  0
  8  9  1  6  0  0  0
  8  7  1  0  0  0  0
 10  8  1  0  0  0  0
 11 10  1  0  0  0  0
 12 16  1  6  0  0  0
 12 14  1  0  0  0  0
 12 11  1  0  0  0  0
 13 14  1  0  0  0  0
 14 15  1  1  0  0  0
 17 19  1  0  0  0  0
 17 28  1  1  0  0  0
 18 22  1  0  0  0  0
 19 16  1  0  0  0  0
 20 27  2  0  0  0  0
 22 21  1  0  0  0  0
 22 19  1  0  0  0  0
 23 20  1  0  0  0  0
 23 24  2  0  0  0  0
 25 17  1  0  0  0  0
 26 24  1  6  0  0  0
 26 25  1  0  0  0  0
 26 22  1  0  0  0  0
 27 25  1  0  0  0  0
 29 28  1  0  0  0  0
 30  5  1  0  0  0  0
 31 30  1  0  0  0  0
 32 31  2  0  0  0  0
 33 32  1  0  0  0  0
 34 36  1  0  0  0  0
 35 39  1  1  0  0  0
 35 37  1  0  0  0  0
 36 42  1  1  0  0  0
 36 33  1  0  0  0  0
 37 36  1  0  0  0  0
 38 35  1  0  0  0  0
 38 34  1  0  0  0  0
 39 41  1  0  0  0  0
 40 39  1  0  0  0  0
 43 42  1  0  0  0  0
 44 48  1  6  0  0  0
 44 43  1  0  0  0  0
 44 46  1  0  0  0  0
 46 45  1  0  0  0  0
 47 46  1  0  0  0  0
 49 48  1  0  0  0  0
 50 49  1  0  0  0  0
 51 50  1  0  0  0  0
 52 51  1  0  0  0  0
 53 54  1  0  0  0  0
 54 52  1  0  0  0  0
 55 53  1  0  0  0  0
 55 54  1  0  0  0  0
M  END
>  <MODEL>
6

>  <REMARK>
 VINA RESULT:      -2.9      2.599      7.213
  Name = 
  24 active torsions:
  status: ('A' for Active; 'I' for Inactive)
    1  A    between atoms: C_1  and  C_21
    2  A    between atoms: C_2  and  C_28
    3  A    between atoms: C_2  and  N_44
    4  A    between atoms: C_4  and  C_19
    5  A    between atoms: C_4  and  C_37
    6  A    between atoms: N_6  and  C_46
    7  A    between atoms: C_8  and  C_22
    8  A    between atoms: C_8  and  C_35
    9  A    between atoms: N_10  and  C_32
   10  A    between atoms: C_15  and  C_17
   11  A    between atoms: C_16  and  C_17
   12  A    between atoms: C_16  and  C_26
   13  A    between atoms: C_17  and  C_36
   14  A    between atoms: C_20  and  C_22
   15  A    between atoms: C_22  and  C_46
   16  A    between atoms: C_26  and  C_45
   17  A    between atoms: C_27  and  C_54
   18  A    between atoms: N_33  and  O_49
   19  A    between atoms: C_34  and  O_49
   20  A    between atoms: C_34  and  O_52
   21  A    between atoms: C_35  and  C_43
   22  A    between atoms: C_36  and  O_52
   23  A    between atoms: C_37  and  C_45
   24  A    between atoms: C_43  and  C_54
                            x       y       z     vdW  Elec       q    Type
                         _______ _______ _______ _____ _____    ______ ____

>  <TORSDO>
F 24

$$$$
=
 OpenBabel11062408493D

 55 59  0  0  1  0  0  0  0  0999 V2000
  160.9910  204.4860  149.7670 C   0  0  0  0  0  2  0  0  0  0  0  0
  161.5160  205.0780  152.4500 C   0  0  2  0  0  3  0  0  0  0  0  0
  161.0860  206.1860  151.4830 C   0  0  0  0  0  2  0  0  0  0  0  0
  161.4590  203.4960  150.8330 C   0  0  0  0  0  2  0  0  0  0  0  0
  161.4600  205.8330  150.1080 N   0  0  0  0  0  0  0  0  0  0  0  0
  160.9180  203.8590  152.0780 O   0  0  0  0  0  0  0  0  0  0  0  0
  161.0590  205.4620  153.8460 C   0  0  0  0  0  2  0  0  0  0  0  0
  160.7800  206.9500  153.9500 C   0  0  2  0  0  3  0  0  0  0  0  0
  161.9020  207.6890  153.2450 C   0  0  0  0  0  1  0  0  0  0  0  0
  160.7340  207.3500  155.4190 C   0  0  0  0  0  2  0  0  0  0  0  0
  159.6700  208.4100  155.6970 C   0  0  0  0  0  2  0  0  0  0  0  0
  160.2510  209.8200  155.8250 C   0  0  2  0  0  3  0  0  0  0  0  0
  162.2850  208.7720  156.5910 O   0  0  0  0  0  1  0  0  0  0  0  0
  161.4350  209.8570  156.8020 C   0  0  1  0  0  3  0  0  0  0  0  0
  162.2400  211.1350  156.6320 C   0  0  0  0  0  1  0  0  0  0  0  0
  159.1550  210.7650  156.3140 C   0  0  0  0  0  2  0  0  0  0  0  0
  157.0700  211.7870  155.4600 C   0  0  2  0  0  3  0  0  0  0  0  0
  160.0030  212.3850  153.6680 O   0  0  0  0  0  1  0  0  0  0  0  0
  158.4840  211.4450  155.1950 N   0  0  0  0  0  0  0  0  0  0  0  0
  155.5400  213.8370  152.9130 C   0  0  0  0  0  3  0  0  0  0  0  0
  159.8970  213.2750  155.7650 O   0  0  0  0  0  1  0  0  0  0  0  0
  159.1530  212.6840  154.7370 C   0  0  0  0  0  0  0  0  0  0  0  0
  156.8100  214.1290  152.2210 C   0  0  0  0  0  3  0  0  0  0  0  0
  157.9840  214.0000  152.8500 C   0  0  0  0  0  3  0  0  0  0  0  0
  156.8090  213.0280  154.7670 N   0  0  0  0  0  0  0  0  0  0  0  0
  158.0430  213.6550  154.3220 C   0  0  1  0  0  3  0  0  0  0  0  0
  155.5530  213.2850  154.1280 C   0  0  0  0  0  3  0  0  0  0  0  0
  156.6940  211.9290  156.9460 C   0  0  0  0  0  2  0  0  0  0  0  0
  155.3940  211.4720  157.1770 O   0  0  0  0  0  1  0  0  0  0  0  0
  160.8960  206.8070  149.1620 C   0  0  0  0  0  2  0  0  0  0  0  0
  160.4550  206.2100  147.8500 C   0  0  0  0  0  3  0  0  0  0  0  0
  160.7830  206.7670  146.7310 N   0  0  0  0  0  0  0  0  0  0  0  0
  160.3870  206.1990  145.5370 O   0  0  0  0  0  0  0  0  0  0  0  0
  162.7040  205.7330  145.2190 C   0  0  0  0  0  2  0  0  0  0  0  0
  161.8190  203.4410  145.1290 C   0  0  1  0  0  3  0  0  0  0  0  0
  161.3390  205.7650  144.5580 C   0  0  1  0  0  0  0  0  0  0  0  0
  161.0890  204.3200  144.1270 C   0  0  0  0  0  2  0  0  0  0  0  0
  162.9580  204.3030  145.6640 C   0  0  0  0  0  2  0  0  0  0  0  0
  160.9180  203.0600  146.2200 N   0  0  0  0  0  0  0  0  0  0  0  0
  161.6650  202.4650  147.1820 O   0  0  0  0  0  1  0  0  0  0  0  0
  160.0850  202.1030  145.7430 O   0  0  0  0  0  1  0  0  0  0  0  0
  161.4020  206.6510  143.4570 O   0  0  0  0  0  0  0  0  0  0  0  0
  161.5300  205.9090  142.2700 C   0  0  0  0  0  2  0  0  0  0  0  0
  162.0940  206.7740  141.1420 C   0  0  1  0  0  3  0  0  0  0  0  0
  161.9640  206.9110  138.6350 C   0  0  0  0  0  1  0  0  0  0  0  0
  162.2220  205.9980  139.8240 C   0  0  0  0  0  3  0  0  0  0  0  0
  163.6050  205.3870  139.6650 C   0  0  0  0  0  1  0  0  0  0  0  0
  161.2240  208.0150  140.9480 C   0  0  0  0  0  2  0  0  0  0  0  0
  162.0850  209.2450  140.7030 C   0  0  0  0  0  2  0  0  0  0  0  0
  161.8880  209.7670  139.2900 C   0  0  0  0  0  2  0  0  0  0  0  0
  161.9640  211.2840  139.2590 C   0  0  0  0  0  2  0  0  0  0  0  0
  163.3030  211.7380  138.7080 C   0  0  0  0  0  2  0  0  0  0  0  0
  165.0600  213.4640  138.8140 C   0  0  0  0  0  2  0  0  0  0  0  0
  163.8140  212.9290  139.4890 C   0  0  0  0  0  3  0  0  0  0  0  0
  163.7360  214.1640  138.6130 C   0  0  0  0  0  2  0  0  0  0  0  0
  1  5  1  0  0  0  0
  1  4  1  0  0  0  0
  2  7  1  1  0  0  0
  3  2  1  0  0  0  0
  4  6  1  0  0  0  0
  5  3  1  0  0  0  0
  6  2  1  0  0  0  0
  7  8  1  0  0  0  0
  8  9  1  6  0  0  0
  8 10  1  0  0  0  0
 10 11  1  0  0  0  0
 12 11  1  1  0  0  0
 12 16  1  0  0  0  0
 12 14  1  0  0  0  0
 13 14  1  0  0  0  0
 14 15  1  6  0  0  0
 17 28  1  1  0  0  0
 18 22  1  0  0  0  0
 19 17  1  0  0  0  0
 19 16  1  0  0  0  0
 20 27  2  0  0  0  0
 22 19  1  0  0  0  0
 22 21  1  0  0  0  0
 23 24  2  0  0  0  0
 23 20  1  0  0  0  0
 25 17  1  0  0  0  0
 26 24  1  6  0  0  0
 26 22  1  0  0  0  0
 26 25  1  0  0  0  0
 27 25  1  0  0  0  0
 28 29  1  0  0  0  0
 30  5  1  0  0  0  0
 31 30  1  0  0  0  0
 32 31  2  0  0  0  0
 33 32  1  0  0  0  0
 34 38  1  0  0  0  0
 35 38  1  0  0  0  0
 35 39  1  1  0  0  0
 36 42  1  6  0  0  0
 36 34  1  0  0  0  0
 36 33  1  0  0  0  0
 37 36  1  0  0  0  0
 37 35  1  0  0  0  0
 39 40  1  0  0  0  0
 41 39  1  0  0  0  0
 43 42  1  0  0  0  0
 44 48  1  6  0  0  0
 44 43  1  0  0  0  0
 45 46  1  0  0  0  0
 46 44  1  0  0  0  0
 47 46  1  0  0  0  0
 49 48  1  0  0  0  0
 50 49  1  0  0  0  0
 51 50  1  0  0  0  0
 52 51  1  0  0  0  0
 52 54  1  0  0  0  0
 53 54  1  0  0  0  0
 55 53  1  0  0  0  0
 55 54  1  0  0  0  0
M  END
>  <MODEL>
7

>  <REMARK>
 VINA RESULT:      -2.7      2.647      6.109
  Name = 
  24 active torsions:
  status: ('A' for Active; 'I' for Inactive)
    1  A    between atoms: C_1  and  C_21
    2  A    between atoms: C_2  and  C_28
    3  A    between atoms: C_2  and  N_44
    4  A    between atoms: C_4  and  C_19
    5  A    between atoms: C_4  and  C_37
    6  A    between atoms: N_6  and  C_46
    7  A    between atoms: C_8  and  C_22
    8  A    between atoms: C_8  and  C_35
    9  A    between atoms: N_10  and  C_32
   10  A    between atoms: C_15  and  C_17
   11  A    between atoms: C_16  and  C_17
   12  A    between atoms: C_16  and  C_26
   13  A    between atoms: C_17  and  C_36
   14  A    between atoms: C_20  and  C_22
   15  A    between atoms: C_22  and  C_46
   16  A    between atoms: C_26  and  C_45
   17  A    between atoms: C_27  and  C_54
   18  A    between atoms: N_33  and  O_49
   19  A    between atoms: C_34  and  O_49
   20  A    between atoms: C_34  and  O_52
   21  A    between atoms: C_35  and  C_43
   22  A    between atoms: C_36  and  O_52
   23  A    between atoms: C_37  and  C_45
   24  A    between atoms: C_43  and  C_54
                            x       y       z     vdW  Elec       q    Type
                         _______ _______ _______ _____ _____    ______ ____

>  <TORSDO>
F 24

$$$$
=
 OpenBabel11062408493D

 55 59  0  0  1  0  0  0  0  0999 V2000
  162.1060  208.3230  156.1370 C   0  0  0  0  0  2  0  0  0  0  0  0
  160.1670  210.3360  156.0080 C   0  0  2  0  0  3  0  0  0  0  0  0
  159.9080  208.9690  155.3650 C   0  0  0  0  0  2  0  0  0  0  0  0
  162.2370  209.7380  156.6990 C   0  0  0  0  0  2  0  0  0  0  0  0
  161.1780  208.3300  155.0000 N   0  0  0  0  0  0  0  0  0  0  0  0
  160.9820  210.1830  157.1460 O   0  0  0  0  0  0  0  0  0  0  0  0
  158.8310  210.9300  156.4160 C   0  0  0  0  0  2  0  0  0  0  0  0
  158.6760  212.3510  155.9070 C   0  0  2  0  0  3  0  0  0  0  0  0
  157.2160  212.7430  156.0440 C   0  0  0  0  0  1  0  0  0  0  0  0
  159.0970  212.4080  154.4440 C   0  0  0  0  0  2  0  0  0  0  0  0
  159.2210  211.0190  153.8230 C   0  0  0  0  0  2  0  0  0  0  0  0
  159.7000  211.0550  152.3690 C   0  0  2  0  0  3  0  0  0  0  0  0
  161.5890  210.5890  150.9420 O   0  0  0  0  0  1  0  0  0  0  0  0
  161.0400  210.3270  152.1970 C   0  0  1  0  0  3  0  0  0  0  0  0
  162.0370  210.7670  153.2570 C   0  0  0  0  0  1  0  0  0  0  0  0
  159.8490  212.5120  151.9340 C   0  0  0  0  0  2  0  0  0  0  0  0
  157.9380  213.4100  150.6460 C   0  0  2  0  0  3  0  0  0  0  0  0
  160.8480  212.6490  148.8790 O   0  0  0  0  0  1  0  0  0  0  0  0
  159.2580  212.7450  150.6070 N   0  0  0  0  0  0  0  0  0  0  0  0
  156.6750  214.3870  147.4080 C   0  0  0  0  0  3  0  0  0  0  0  0
  160.9900  214.3630  150.3760 O   0  0  0  0  0  1  0  0  0  0  0  0
  160.1110  213.5250  149.6810 C   0  0  0  0  0  0  0  0  0  0  0  0
  157.9450  214.1230  146.7050 C   0  0  0  0  0  3  0  0  0  0  0  0
  159.1050  214.0750  147.3690 C   0  0  0  0  0  3  0  0  0  0  0  0
  157.8650  214.2530  149.4740 N   0  0  0  0  0  0  0  0  0  0  0  0
  159.1680  214.3990  148.8460 C   0  0  1  0  0  3  0  0  0  0  0  0
  156.6460  214.4230  148.7420 C   0  0  0  0  0  3  0  0  0  0  0  0
  157.6570  214.2460  151.9090 C   0  0  0  0  0  2  0  0  0  0  0  0
  156.3980  213.9480  152.4340 O   0  0  0  0  0  1  0  0  0  0  0  0
  160.9430  206.9520  154.5470 C   0  0  0  0  0  2  0  0  0  0  0  0
  160.4040  206.8460  153.1430 C   0  0  0  0  0  3  0  0  0  0  0  0
  161.0150  207.4190  152.1580 N   0  0  0  0  0  0  0  0  0  0  0  0
  160.5190  207.2980  150.8760 O   0  0  0  0  0  0  0  0  0  0  0  0
  162.6430  206.3850  150.2910 C   0  0  0  0  0  2  0  0  0  0  0  0
  161.4720  204.3120  150.9030 C   0  0  1  0  0  3  0  0  0  0  0  0
  161.1880  206.5120  149.8820 C   0  0  1  0  0  0  0  0  0  0  0  0
  160.6720  205.0730  149.8580 C   0  0  0  0  0  2  0  0  0  0  0  0
  162.7970  205.0590  151.0150 C   0  0  0  0  0  2  0  0  0  0  0  0
  160.7710  204.3290  152.1890 N   0  0  0  0  0  0  0  0  0  0  0  0
  161.7080  204.3670  153.1680 O   0  0  0  0  0  1  0  0  0  0  0  0
  160.1350  203.1390  152.3200 O   0  0  0  0  0  1  0  0  0  0  0  0
  161.1380  207.1220  148.6080 O   0  0  0  0  0  0  0  0  0  0  0  0
  162.1170  206.5460  147.7780 C   0  0  0  0  0  2  0  0  0  0  0  0
  161.4720  205.8200  146.5960 C   0  0  1  0  0  3  0  0  0  0  0  0
  163.4680  204.6330  145.6340 C   0  0  0  0  0  1  0  0  0  0  0  0
  162.4220  205.7110  145.3950 C   0  0  0  0  0  3  0  0  0  0  0  0
  161.6720  205.3720  144.1160 C   0  0  0  0  0  1  0  0  0  0  0  0
  160.9950  204.4350  147.0270 C   0  0  0  0  0  2  0  0  0  0  0  0
  160.6210  203.5920  145.8180 C   0  0  0  0  0  2  0  0  0  0  0  0
  159.8470  202.3550  146.2430 C   0  0  0  0  0  2  0  0  0  0  0  0
  160.7000  201.1070  146.0950 C   0  0  0  0  0  2  0  0  0  0  0  0
  161.2360  200.6660  147.4450 C   0  0  0  0  0  2  0  0  0  0  0  0
  159.7780  201.3340  149.3170 C   0  0  0  0  0  2  0  0  0  0  0  0
  160.9780  201.7350  148.4840 C   0  0  0  0  0  3  0  0  0  0  0  0
  161.1740  201.1390  149.8650 C   0  0  0  0  0  2  0  0  0  0  0  0
  1  4  1  0  0  0  0
  2  7  1  1  0  0  0
  2  6  1  0  0  0  0
  3  2  1  0  0  0  0
  4  6  1  0  0  0  0
  5  3  1  0  0  0  0
  5  1  1  0  0  0  0
  8  9  1  6  0  0  0
  8  7  1  0  0  0  0
 10  8  1  0  0  0  0
 11 10  1  0  0  0  0
 12 16  1  1  0  0  0
 12 11  1  0  0  0  0
 13 14  1  0  0  0  0
 14 12  1  0  0  0  0
 14 15  1  1  0  0  0
 17 28  1  1  0  0  0
 18 22  1  0  0  0  0
 19 17  1  0  0  0  0
 19 16  1  0  0  0  0
 20 27  2  0  0  0  0
 22 21  1  0  0  0  0
 22 19  1  0  0  0  0
 23 24  2  0  0  0  0
 23 20  1  0  0  0  0
 25 17  1  0  0  0  0
 26 24  1  6  0  0  0
 26 25  1  0  0  0  0
 26 22  1  0  0  0  0
 27 25  1  0  0  0  0
 28 29  1  0  0  0  0
 30  5  1  0  0  0  0
 31 30  1  0  0  0  0
 32 31  2  0  0  0  0
 33 32  1  0  0  0  0
 34 38  1  0  0  0  0
 35 38  1  0  0  0  0
 35 39  1  1  0  0  0
 36 42  1  6  0  0  0
 36 34  1  0  0  0  0
 36 33  1  0  0  0  0
 37 36  1  0  0  0  0
 37 35  1  0  0  0  0
 39 41  1  0  0  0  0
 39 40  1  0  0  0  0
 43 42  1  0  0  0  0
 44 48  1  1  0  0  0
 44 43  1  0  0  0  0
 46 45  1  0  0  0  0
 46 44  1  0  0  0  0
 47 46  1  0  0  0  0
 49 50  1  0  0  0  0
 49 48  1  0  0  0  0
 51 50  1  0  0  0  0
 51 52  1  0  0  0  0
 52 54  1  0  0  0  0
 53 55  1  0  0  0  0
 54 53  1  0  0  0  0
 54 55  1  0  0  0  0
M  END
>  <MODEL>
8

>  <REMARK>
 VINA RESULT:      -2.6      2.520      6.870
  Name = 
  24 active torsions:
  status: ('A' for Active; 'I' for Inactive)
    1  A    between atoms: C_1  and  C_21
    2  A    between atoms: C_2  and  C_28
    3  A    between atoms: C_2  and  N_44
    4  A    between atoms: C_4  and  C_19
    5  A    between atoms: C_4  and  C_37
    6  A    between atoms: N_6  and  C_46
    7  A    between atoms: C_8  and  C_22
    8  A    between atoms: C_8  and  C_35
    9  A    between atoms: N_10  and  C_32
   10  A    between atoms: C_15  and  C_17
   11  A    between atoms: C_16  and  C_17
   12  A    between atoms: C_16  and  C_26
   13  A    between atoms: C_17  and  C_36
   14  A    between atoms: C_20  and  C_22
   15  A    between atoms: C_22  and  C_46
   16  A    between atoms: C_26  and  C_45
   17  A    between atoms: C_27  and  C_54
   18  A    between atoms: N_33  and  O_49
   19  A    between atoms: C_34  and  O_49
   20  A    between atoms: C_34  and  O_52
   21  A    between atoms: C_35  and  C_43
   22  A    between atoms: C_36  and  O_52
   23  A    between atoms: C_37  and  C_45
   24  A    between atoms: C_43  and  C_54
                            x       y       z     vdW  Elec       q    Type
                         _______ _______ _______ _____ _____    ______ ____

>  <TORSDO>
F 24

$$$$
=
 OpenBabel11062408493D

 55 59  0  0  1  0  0  0  0  0999 V2000
  159.3410  201.0460  147.9190 C   0  0  0  0  0  2  0  0  0  0  0  0
  160.8470  202.3880  149.8580 C   0  0  2  0  0  3  0  0  0  0  0  0
  161.3420  202.3100  148.4100 C   0  0  0  0  0  2  0  0  0  0  0  0
  158.9920  201.1750  149.4010 C   0  0  0  0  0  2  0  0  0  0  0  0
  160.7960  201.1180  147.7490 N   0  0  0  0  0  0  0  0  0  0  0  0
  159.4390  202.4170  149.8820 O   0  0  0  0  0  0  0  0  0  0  0  0
  161.3920  203.6610  150.4800 C   0  0  0  0  0  2  0  0  0  0  0  0
  161.3400  203.6060  151.9950 C   0  0  2  0  0  3  0  0  0  0  0  0
  160.6000  202.3430  152.3940 C   0  0  0  0  0  1  0  0  0  0  0  0
  160.6010  204.8310  152.5160 C   0  0  0  0  0  2  0  0  0  0  0  0
  161.5430  205.8400  153.1690 C   0  0  0  0  0  2  0  0  0  0  0  0
  161.2110  207.2900  152.8050 C   0  0  2  0  0  3  0  0  0  0  0  0
  163.0530  206.8560  151.3080 O   0  0  0  0  0  1  0  0  0  0  0  0
  162.0680  207.7890  151.6330 C   0  0  1  0  0  3  0  0  0  0  0  0
  161.2130  208.0310  150.4000 C   0  0  0  0  0  1  0  0  0  0  0  0
  161.4510  208.1740  154.0280 C   0  0  0  0  0  2  0  0  0  0  0  0
  159.8260  209.3400  155.4830 C   0  0  2  0  0  3  0  0  0  0  0  0
  160.6060  210.8340  152.4280 O   0  0  0  0  0  1  0  0  0  0  0  0
  160.4360  209.2330  154.1400 N   0  0  0  0  0  0  0  0  0  0  0  0
  157.6650  212.2010  155.9030 C   0  0  0  0  0  3  0  0  0  0  0  0
  162.2940  210.7120  153.9570 O   0  0  0  0  0  1  0  0  0  0  0  0
  160.9130  210.5850  153.7690 C   0  0  0  0  0  0  0  0  0  0  0  0
  158.0720  212.8410  154.6370 C   0  0  0  0  0  3  0  0  0  0  0  0
  159.2270  212.5200  154.0430 C   0  0  0  0  0  3  0  0  0  0  0  0
  159.5430  210.7410  155.6970 N   0  0  0  0  0  0  0  0  0  0  0  0
  160.2040  211.5720  154.7030 C   0  0  1  0  0  3  0  0  0  0  0  0
  158.3670  211.1760  156.3890 C   0  0  0  0  0  3  0  0  0  0  0  0
  160.6820  208.7970  156.6410 C   0  0  0  0  0  2  0  0  0  0  0  0
  160.0980  207.6590  157.2020 O   0  0  0  0  0  1  0  0  0  0  0  0
  161.1270  201.1350  146.3170 C   0  0  0  0  0  2  0  0  0  0  0  0
  160.5250  202.2890  145.5570 C   0  0  0  0  0  3  0  0  0  0  0  0
  161.2820  203.1700  144.9900 N   0  0  0  0  0  0  0  0  0  0  0  0
  160.7160  204.2110  144.2830 O   0  0  0  0  0  0  0  0  0  0  0  0
  160.4210  206.5750  144.4020 C   0  0  0  0  0  2  0  0  0  0  0  0
  161.8710  206.2530  146.3610 C   0  0  1  0  0  3  0  0  0  0  0  0
  161.4010  205.4570  144.1020 C   0  0  1  0  0  0  0  0  0  0  0  0
  162.5180  205.6420  145.1290 C   0  0  0  0  0  2  0  0  0  0  0  0
  160.6470  207.0020  145.8410 C   0  0  0  0  0  2  0  0  0  0  0  0
  161.4610  205.2010  147.2940 N   0  0  0  0  0  0  0  0  0  0  0  0
  160.4920  205.7120  148.0910 O   0  0  0  0  0  1  0  0  0  0  0  0
  162.5180  204.9410  148.1020 O   0  0  0  0  0  1  0  0  0  0  0  0
  161.8600  205.6160  142.7740 O   0  0  0  0  0  0  0  0  0  0  0  0
  161.2080  206.7150  142.1850 C   0  0  0  0  0  2  0  0  0  0  0  0
  162.0450  207.3010  141.0470 C   0  0  1  0  0  3  0  0  0  0  0  0
  161.5630  207.2940  138.5800 C   0  0  0  0  0  1  0  0  0  0  0  0
  161.9730  206.4460  139.7740 C   0  0  0  0  0  3  0  0  0  0  0  0
  163.3100  205.7950  139.4600 C   0  0  0  0  0  1  0  0  0  0  0  0
  161.6000  208.7330  140.7540 C   0  0  0  0  0  2  0  0  0  0  0  0
  162.6900  209.4960  140.0160 C   0  0  0  0  0  2  0  0  0  0  0  0
  162.6450  210.9730  140.3680 C   0  0  0  0  0  2  0  0  0  0  0  0
  161.2190  211.4230  140.6340 C   0  0  0  0  0  2  0  0  0  0  0  0
  161.2030  212.6020  141.5890 C   0  0  0  0  0  2  0  0  0  0  0  0
  162.6900  213.3170  143.4200 C   0  0  0  0  0  2  0  0  0  0  0  0
  161.7930  212.2030  142.9240 C   0  0  0  0  0  3  0  0  0  0  0  0
  161.2980  213.1610  143.9900 C   0  0  0  0  0  2  0  0  0  0  0  0
  1  4  1  0  0  0  0
  2  6  1  0  0  0  0
  2  7  1  6  0  0  0
  3  2  1  0  0  0  0
  4  6  1  0  0  0  0
  5  1  1  0  0  0  0
  5  3  1  0  0  0  0
  7  8  1  0  0  0  0
  8  9  1  6  0  0  0
  8 10  1  0  0  0  0
 10 11  1  0  0  0  0
 12 11  1  1  0  0  0
 12 16  1  0  0  0  0
 13 14  1  0  0  0  0
 14 15  1  6  0  0  0
 14 12  1  0  0  0  0
 16 19  1  0  0  0  0
 17 25  1  0  0  0  0
 17 28  1  1  0  0  0
 18 22  1  0  0  0  0
 19 17  1  0  0  0  0
 20 27  2  0  0  0  0
 22 21  1  0  0  0  0
 22 19  1  0  0  0  0
 22 26  1  0  0  0  0
 23 20  1  0  0  0  0
 24 23  2  0  0  0  0
 25 27  1  0  0  0  0
 26 24  1  6  0  0  0
 26 25  1  0  0  0  0
 28 29  1  0  0  0  0
 30  5  1  0  0  0  0
 31 30  1  0  0  0  0
 32 31  2  0  0  0  0
 33 32  1  0  0  0  0
 34 38  1  0  0  0  0
 35 39  1  1  0  0  0
 36 42  1  6  0  0  0
 36 33  1  0  0  0  0
 36 34  1  0  0  0  0
 36 37  1  0  0  0  0
 37 35  1  0  0  0  0
 38 35  1  0  0  0  0
 39 40  1  0  0  0  0
 39 41  1  0  0  0  0
 43 42  1  0  0  0  0
 44 48  1  6  0  0  0
 44 43  1  0  0  0  0
 45 46  1  0  0  0  0
 46 44  1  0  0  0  0
 47 46  1  0  0  0  0
 49 50  1  0  0  0  0
 49 48  1  0  0  0  0
 50 51  1  0  0  0  0
 51 52  1  0  0  0  0
 52 54  1  0  0  0  0
 53 55  1  0  0  0  0
 54 53  1  0  0  0  0
 54 55  1  0  0  0  0
M  END
>  <MODEL>
9

>  <REMARK>
 VINA RESULT:      -2.3      2.746      6.860
  Name = 
  24 active torsions:
  status: ('A' for Active; 'I' for Inactive)
    1  A    between atoms: C_1  and  C_21
    2  A    between atoms: C_2  and  C_28
    3  A    between atoms: C_2  and  N_44
    4  A    between atoms: C_4  and  C_19
    5  A    between atoms: C_4  and  C_37
    6  A    between atoms: N_6  and  C_46
    7  A    between atoms: C_8  and  C_22
    8  A    between atoms: C_8  and  C_35
    9  A    between atoms: N_10  and  C_32
   10  A    between atoms: C_15  and  C_17
   11  A    between atoms: C_16  and  C_17
   12  A    between atoms: C_16  and  C_26
   13  A    between atoms: C_17  and  C_36
   14  A    between atoms: C_20  and  C_22
   15  A    between atoms: C_22  and  C_46
   16  A    between atoms: C_26  and  C_45
   17  A    between atoms: C_27  and  C_54
   18  A    between atoms: N_33  and  O_49
   19  A    between atoms: C_34  and  O_49
   20  A    between atoms: C_34  and  O_52
   21  A    between atoms: C_35  and  C_43
   22  A    between atoms: C_36  and  O_52
   23  A    between atoms: C_37  and  C_45
   24  A    between atoms: C_43  and  C_54
                            x       y       z     vdW  Elec       q    Type
                         _______ _______ _______ _____ _____    ______ ____

>  <TORSDO>
F 24

$$$$
