=
 OpenBabel11052422533D

 28 31  0  0  1  0  0  0  0  0999 V2000
  160.5580  203.6300  147.9100 C   0  0  1  0  0  3  0  0  0  0  0  0
  160.8890  200.8780  150.9970 O   0  0  0  0  0  0  0  0  0  0  0  0
  161.8550  205.8550  150.7460 C   0  0  2  0  0  3  0  0  0  0  0  0
  161.0480  203.1520  150.3160 C   0  0  0  0  0  0  0  0  0  0  0  0
  161.1410  205.4060  149.5880 O   0  0  0  0  0  0  0  0  0  0  0  0
  160.5250  201.2630  148.6990 C   0  0  0  0  0  3  0  0  0  0  0  0
  161.3230  203.6350  151.6830 C   0  0  0  0  0  3  0  0  0  0  0  0
  160.8210  201.7180  150.0610 C   0  0  0  0  0  0  0  0  0  0  0  0
  161.6570  204.9070  151.9010 C   0  0  0  0  0  3  0  0  0  0  0  0
  160.4140  202.1410  147.7010 C   0  0  0  0  0  3  0  0  0  0  0  0
  160.9430  204.0450  149.3150 C   0  0  0  0  0  0  0  0  0  0  0  0
  161.5640  207.4820  152.6290 C   0  0  0  0  0  2  0  0  0  0  0  0
  162.3990  209.6880  151.0500 C   0  0  0  0  0  2  0  0  0  0  0  0
  160.3870  209.7300  152.6070 C   0  0  0  0  0  0  0  0  0  0  0  0
  161.4640  207.2890  151.1170 C   0  0  1  0  0  3  0  0  0  0  0  0
  161.9520  208.4430  149.0590 O   0  0  0  0  0  1  0  0  0  0  0  0
  160.9940  210.2180  151.3160 C   0  0  0  0  0  2  0  0  0  0  0  0
  162.3610  208.3080  150.3870 C   0  0  1  0  0  3  0  0  0  0  0  0
  159.4220  210.5650  153.2330 N   0  0  0  0  0  1  0  0  0  0  0  0
  160.5940  208.5120  153.1290 C   0  0  0  0  0  3  0  0  0  0  0  0
  161.4690  204.2350  146.8820 C   0  0  0  0  0  0  0  0  0  0  0  0
  162.8320  204.3270  147.1690 C   0  0  0  0  0  3  0  0  0  0  0  0
  161.8970  205.2340  144.7200 C   0  0  0  0  0  0  0  0  0  0  0  0
  163.7000  204.8730  146.2220 C   0  0  0  0  0  3  0  0  0  0  0  0
  159.6720  204.6110  145.3330 F   0  0  0  0  0  0  0  0  0  0  0  0
  160.9920  204.6930  145.6410 C   0  0  0  0  0  0  0  0  0  0  0  0
  161.3400  205.8140  143.1610 Cl  0  0  0  0  0  0  0  0  0  0  0  0
  163.2190  205.3120  145.0280 N   0  0  0  0  0  0  0  0  0  0  0  0
  1 21  1  6  0  0  0
  1 11  1  0  0  0  0
  3 15  1  0  0  0  0
  3  9  1  1  0  0  0
  4  7  1  0  0  0  0
  5  3  1  0  0  0  0
  6  8  1  0  0  0  0
  7  9  2  0  0  0  0
  8  4  1  0  0  0  0
  8  2  2  0  0  0  0
 10  1  1  0  0  0  0
 10  6  2  0  0  0  0
 11  5  1  0  0  0  0
 11  4  2  0  0  0  0
 12 20  1  0  0  0  0
 13 17  1  0  0  0  0
 14 20  2  0  0  0  0
 14 19  1  0  0  0  0
 15 12  1  1  0  0  0
 17 14  1  0  0  0  0
 18 16  1  6  0  0  0
 18 13  1  0  0  0  0
 18 15  1  0  0  0  0
 21 22  1  0  0  0  0
 23 28  2  0  0  0  0
 23 26  1  0  0  0  0
 24 22  2  0  0  0  0
 25 26  1  0  0  0  0
 26 21  2  0  0  0  0
 27 23  1  0  0  0  0
 28 24  1  0  0  0  0
M  END
>  <MODEL>
1

>  <REMARK>
 VINA RESULT:      -7.5      0.000      0.000
  Name = 
  2 active torsions:
  status: ('A' for Active; 'I' for Inactive)
    1  A    between atoms: C_1  and  C_2
    2  A    between atoms: C_10  and  C_13
                            x       y       z     vdW  Elec       q    Type
                         _______ _______ _______ _____ _____    ______ ____

>  <TORSDO>
F 2

$$$$
=
 OpenBabel11052422533D

 28 31  0  0  1  0  0  0  0  0999 V2000
  160.6540  206.4190  148.6570 C   0  0  1  0  0  3  0  0  0  0  0  0
  161.2750  206.8840  152.7320 O   0  0  0  0  0  0  0  0  0  0  0  0
  162.3310  209.8610  148.7600 C   0  0  2  0  0  3  0  0  0  0  0  0
  161.4110  207.8510  150.5630 C   0  0  0  0  0  0  0  0  0  0  0  0
  161.4750  208.7770  148.3820 O   0  0  0  0  0  0  0  0  0  0  0  0
  160.6540  205.4590  150.9590 C   0  0  0  0  0  3  0  0  0  0  0  0
  161.8570  209.1600  151.0770 C   0  0  0  0  0  3  0  0  0  0  0  0
  161.1190  206.7430  151.4900 C   0  0  0  0  0  0  0  0  0  0  0  0
  162.2470  210.1240  150.2420 C   0  0  0  0  0  3  0  0  0  0  0  0
  160.4490  205.3010  149.6510 C   0  0  0  0  0  3  0  0  0  0  0  0
  161.2120  207.7010  149.2410 C   0  0  0  0  0  0  0  0  0  0  0  0
  160.6620  211.6840  148.3490 C   0  0  0  0  0  2  0  0  0  0  0  0
  162.6740  213.6090  147.8000 C   0  0  0  0  0  2  0  0  0  0  0  0
  160.5570  213.3260  146.4170 C   0  0  0  0  0  0  0  0  0  0  0  0
  162.0230  211.1210  147.9440 C   0  0  1  0  0  3  0  0  0  0  0  0
  164.2460  211.8580  147.3820 O   0  0  0  0  0  1  0  0  0  0  0  0
  162.0240  213.6760  146.4230 C   0  0  0  0  0  2  0  0  0  0  0  0
  163.1210  212.1840  148.1410 C   0  0  1  0  0  3  0  0  0  0  0  0
  159.7500  213.9050  145.4000 N   0  0  0  0  0  1  0  0  0  0  0  0
  159.9930  212.4090  147.2170 C   0  0  0  0  0  3  0  0  0  0  0  0
  161.4530  205.9520  147.4760 C   0  0  0  0  0  0  0  0  0  0  0  0
  162.7240  205.4180  147.6970 C   0  0  0  0  0  3  0  0  0  0  0  0
  161.7440  205.5580  145.1050 C   0  0  0  0  0  0  0  0  0  0  0  0
  163.4790  204.9660  146.6140 C   0  0  0  0  0  3  0  0  0  0  0  0
  159.7190  206.5340  145.9180 F   0  0  0  0  0  0  0  0  0  0  0  0
  160.9530  206.0240  146.1630 C   0  0  0  0  0  0  0  0  0  0  0  0
  161.1550  205.6290  143.4540 Cl  0  0  0  0  0  0  0  0  0  0  0  0
  162.9780  205.0440  145.3520 N   0  0  0  0  0  0  0  0  0  0  0  0
  1 21  1  6  0  0  0
  1 11  1  0  0  0  0
  1 10  1  0  0  0  0
  3  9  1  1  0  0  0
  4  7  1  0  0  0  0
  4  8  1  0  0  0  0
  5  3  1  0  0  0  0
  5 11  1  0  0  0  0
  6  8  1  0  0  0  0
  8  2  2  0  0  0  0
  9  7  2  0  0  0  0
 10  6  2  0  0  0  0
 11  4  2  0  0  0  0
 13 18  1  0  0  0  0
 14 17  1  0  0  0  0
 14 20  2  0  0  0  0
 15 18  1  0  0  0  0
 15 12  1  1  0  0  0
 15  3  1  0  0  0  0
 17 13  1  0  0  0  0
 18 16  1  6  0  0  0
 19 14  1  0  0  0  0
 20 12  1  0  0  0  0
 21 22  1  0  0  0  0
 23 28  2  0  0  0  0
 23 26  1  0  0  0  0
 24 22  2  0  0  0  0
 25 26  1  0  0  0  0
 26 21  2  0  0  0  0
 27 23  1  0  0  0  0
 28 24  1  0  0  0  0
M  END
>  <MODEL>
2

>  <REMARK>
 VINA RESULT:      -7.4      3.246      4.603
  Name = 
  2 active torsions:
  status: ('A' for Active; 'I' for Inactive)
    1  A    between atoms: C_1  and  C_2
    2  A    between atoms: C_10  and  C_13
                            x       y       z     vdW  Elec       q    Type
                         _______ _______ _______ _____ _____    ______ ____

>  <TORSDO>
F 2

$$$$
=
 OpenBabel11052422533D

 28 31  0  0  1  0  0  0  0  0999 V2000
  161.2010  210.2910  154.4770 C   0  0  1  0  0  3  0  0  0  0  0  0
  161.3550  207.1430  157.1760 O   0  0  0  0  0  0  0  0  0  0  0  0
  160.6900  207.2950  152.1460 C   0  0  2  0  0  3  0  0  0  0  0  0
  161.2060  207.8250  154.9020 C   0  0  0  0  0  0  0  0  0  0  0  0
  161.1090  208.5680  152.6520 O   0  0  0  0  0  0  0  0  0  0  0  0
  161.2460  209.4740  156.8350 C   0  0  0  0  0  3  0  0  0  0  0  0
  161.2620  206.4430  154.3900 C   0  0  0  0  0  3  0  0  0  0  0  0
  161.2780  208.0920  156.3500 C   0  0  0  0  0  0  0  0  0  0  0  0
  161.0670  206.1870  153.0960 C   0  0  0  0  0  3  0  0  0  0  0  0
  161.1980  210.4920  155.9740 C   0  0  0  0  0  3  0  0  0  0  0  0
  161.1540  208.8460  154.0260 C   0  0  0  0  0  0  0  0  0  0  0  0
  160.2650  206.1990  149.9330 C   0  0  0  0  0  2  0  0  0  0  0  0
  161.5820  208.2580  148.4910 C   0  0  0  0  0  2  0  0  0  0  0  0
  161.9000  205.7740  148.0400 C   0  0  0  0  0  0  0  0  0  0  0  0
  161.2460  207.0480  150.7400 C   0  0  1  0  0  3  0  0  0  0  0  0
  162.7060  208.9470  150.4850 O   0  0  0  0  0  1  0  0  0  0  0  0
  162.5290  207.1440  148.0600 C   0  0  0  0  0  2  0  0  0  0  0  0
  161.5190  208.3810  150.0170 C   0  0  1  0  0  3  0  0  0  0  0  0
  162.4390  204.8190  147.1350 N   0  0  0  0  0  1  0  0  0  0  0  0
  160.9630  205.3580  148.9050 C   0  0  0  0  0  3  0  0  0  0  0  0
  160.1340  211.1150  153.8190 C   0  0  0  0  0  0  0  0  0  0  0  0
  160.4560  211.8200  152.6570 C   0  0  0  0  0  3  0  0  0  0  0  0
  157.8720  211.9590  153.6580 C   0  0  0  0  0  0  0  0  0  0  0  0
  159.4750  212.5820  152.0210 C   0  0  0  0  0  3  0  0  0  0  0  0
  158.4820  210.5040  155.4530 F   0  0  0  0  0  0  0  0  0  0  0  0
  158.8250  211.1830  154.3280 C   0  0  0  0  0  0  0  0  0  0  0  0
  156.2280  212.0680  154.2610 Cl  0  0  0  0  0  0  0  0  0  0  0  0
  158.2150  212.6350  152.5290 N   0  0  0  0  0  0  0  0  0  0  0  0
  1 21  1  6  0  0  0
  1 10  1  0  0  0  0
  3  5  1  0  0  0  0
  3  9  1  1  0  0  0
  4  8  1  0  0  0  0
  5 11  1  0  0  0  0
  7  4  1  0  0  0  0
  8  6  1  0  0  0  0
  8  2  2  0  0  0  0
  9  7  2  0  0  0  0
 10  6  2  0  0  0  0
 11  1  1  0  0  0  0
 11  4  2  0  0  0  0
 13 18  1  0  0  0  0
 14 17  1  0  0  0  0
 14 20  2  0  0  0  0
 15 12  1  6  0  0  0
 15  3  1  0  0  0  0
 17 13  1  0  0  0  0
 18 16  1  1  0  0  0
 18 15  1  0  0  0  0
 19 14  1  0  0  0  0
 20 12  1  0  0  0  0
 21 26  1  0  0  0  0
 22 21  2  0  0  0  0
 23 27  1  0  0  0  0
 23 26  2  0  0  0  0
 24 28  2  0  0  0  0
 24 22  1  0  0  0  0
 26 25  1  0  0  0  0
 28 23  1  0  0  0  0
M  END
>  <MODEL>
3

>  <REMARK>
 VINA RESULT:      -7.3      4.385      8.169
  Name = 
  2 active torsions:
  status: ('A' for Active; 'I' for Inactive)
    1  A    between atoms: C_1  and  C_2
    2  A    between atoms: C_10  and  C_13
                            x       y       z     vdW  Elec       q    Type
                         _______ _______ _______ _____ _____    ______ ____

>  <TORSDO>
F 2

$$$$
=
 OpenBabel11052422533D

 28 31  0  0  1  0  0  0  0  0999 V2000
  160.3500  204.3080  149.2460 C   0  0  1  0  0  3  0  0  0  0  0  0
  161.5390  201.9380  152.4370 O   0  0  0  0  0  0  0  0  0  0  0  0
  161.7190  206.9500  151.6590 C   0  0  2  0  0  3  0  0  0  0  0  0
  161.2600  204.1360  151.5700 C   0  0  0  0  0  0  0  0  0  0  0  0
  160.9130  206.3010  150.6690 O   0  0  0  0  0  0  0  0  0  0  0  0
  160.7820  202.0460  150.2060 C   0  0  0  0  0  3  0  0  0  0  0  0
  161.6630  204.7820  152.8340 C   0  0  0  0  0  3  0  0  0  0  0  0
  161.2090  202.6660  151.4630 C   0  0  0  0  0  0  0  0  0  0  0  0
  161.8370  206.1020  152.8990 C   0  0  0  0  0  3  0  0  0  0  0  0
  160.3960  202.8010  149.1760 C   0  0  0  0  0  3  0  0  0  0  0  0
  160.8770  204.9050  150.5350 C   0  0  0  0  0  0  0  0  0  0  0  0
  161.0750  208.5320  153.4920 C   0  0  0  0  0  2  0  0  0  0  0  0
  161.9440  210.8090  152.0380 C   0  0  0  0  0  2  0  0  0  0  0  0
  159.7520  210.6920  153.3250 C   0  0  0  0  0  0  0  0  0  0  0  0
  161.1820  208.3490  151.9790 C   0  0  1  0  0  3  0  0  0  0  0  0
  161.8450  209.5570  150.0030 O   0  0  0  0  0  1  0  0  0  0  0  0
  160.4830  211.2360  152.1230 C   0  0  0  0  0  2  0  0  0  0  0  0
  162.0900  209.4370  151.3720 C   0  0  1  0  0  3  0  0  0  0  0  0
  158.6590  211.4500  153.8240 N   0  0  0  0  0  1  0  0  0  0  0  0
  159.9770  209.4860  153.8660 C   0  0  0  0  0  3  0  0  0  0  0  0
  160.9990  204.9260  148.0420 C   0  0  0  0  0  0  0  0  0  0  0  0
  160.5730  206.1890  147.6280 C   0  0  0  0  0  3  0  0  0  0  0  0
  162.6000  204.9130  146.2270 C   0  0  0  0  0  0  0  0  0  0  0  0
  161.1720  206.7880  146.5180 C   0  0  0  0  0  3  0  0  0  0  0  0
  162.4640  203.0490  147.7170 F   0  0  0  0  0  0  0  0  0  0  0  0
  162.0270  204.2770  147.3340 C   0  0  0  0  0  0  0  0  0  0  0  0
  163.8850  204.1370  145.3200 Cl  0  0  0  0  0  0  0  0  0  0  0  0
  162.1640  206.1440  145.8470 N   0  0  0  0  0  0  0  0  0  0  0  0
  1 21  1  6  0  0  0
  1 11  1  0  0  0  0
  3 15  1  0  0  0  0
  3  9  1  1  0  0  0
  4  7  1  0  0  0  0
  5  3  1  0  0  0  0
  6  8  1  0  0  0  0
  7  9  2  0  0  0  0
  8  4  1  0  0  0  0
  8  2  2  0  0  0  0
 10  1  1  0  0  0  0
 10  6  2  0  0  0  0
 11  5  1  0  0  0  0
 11  4  2  0  0  0  0
 12 20  1  0  0  0  0
 13 17  1  0  0  0  0
 14 19  1  0  0  0  0
 14 20  2  0  0  0  0
 15 12  1  1  0  0  0
 17 14  1  0  0  0  0
 18 16  1  6  0  0  0
 18 15  1  0  0  0  0
 18 13  1  0  0  0  0
 22 21  1  0  0  0  0
 23 26  1  0  0  0  0
 24 22  2  0  0  0  0
 26 25  1  0  0  0  0
 26 21  2  0  0  0  0
 27 23  1  0  0  0  0
 28 23  2  0  0  0  0
 28 24  1  0  0  0  0
M  END
>  <MODEL>
4

>  <REMARK>
 VINA RESULT:      -7.1      1.627      1.957
  Name = 
  2 active torsions:
  status: ('A' for Active; 'I' for Inactive)
    1  A    between atoms: C_1  and  C_2
    2  A    between atoms: C_10  and  C_13
                            x       y       z     vdW  Elec       q    Type
                         _______ _______ _______ _____ _____    ______ ____

>  <TORSDO>
F 2

$$$$
=
 OpenBabel11052422533D

 28 31  0  0  1  0  0  0  0  0999 V2000
  161.5670  209.9130  153.6030 C   0  0  1  0  0  3  0  0  0  0  0  0
  161.2070  206.9230  156.4570 O   0  0  0  0  0  0  0  0  0  0  0  0
  160.6780  206.9020  151.4090 C   0  0  2  0  0  3  0  0  0  0  0  0
  161.2060  207.4980  154.1490 C   0  0  0  0  0  0  0  0  0  0  0  0
  161.2660  208.1270  151.8630 O   0  0  0  0  0  0  0  0  0  0  0  0
  161.4430  209.2240  155.9980 C   0  0  0  0  0  3  0  0  0  0  0  0
  161.0720  206.0970  153.7070 C   0  0  0  0  0  3  0  0  0  0  0  0
  161.2850  207.8280  155.5830 C   0  0  0  0  0  0  0  0  0  0  0  0
  160.8700  205.8030  152.4230 C   0  0  0  0  0  3  0  0  0  0  0  0
  161.5620  210.1920  155.0870 C   0  0  0  0  0  3  0  0  0  0  0  0
  161.3210  208.4680  153.2220 C   0  0  0  0  0  0  0  0  0  0  0  0
  160.3950  205.3550  149.4580 C   0  0  0  0  0  2  0  0  0  0  0  0
  161.2410  207.3160  147.5890 C   0  0  0  0  0  2  0  0  0  0  0  0
  162.0150  204.8920  147.5600 C   0  0  0  0  0  0  0  0  0  0  0  0
  161.2220  206.5040  150.0330 C   0  0  1  0  0  3  0  0  0  0  0  0
  162.2800  208.5570  149.3480 O   0  0  0  0  0  1  0  0  0  0  0  0
  162.3690  206.3330  147.2950 C   0  0  0  0  0  2  0  0  0  0  0  0
  161.2080  207.7070  149.0690 C   0  0  1  0  0  3  0  0  0  0  0  0
  162.6960  203.9010  146.8030 N   0  0  0  0  0  1  0  0  0  0  0  0
  161.2060  204.4790  148.5480 C   0  0  0  0  0  3  0  0  0  0  0  0
  160.6450  210.8460  152.8750 C   0  0  0  0  0  0  0  0  0  0  0  0
  159.4310  211.1870  153.4730 C   0  0  0  0  0  3  0  0  0  0  0  0
  160.0770  212.2680  151.0000 C   0  0  0  0  0  0  0  0  0  0  0  0
  158.5640  212.0640  152.8190 C   0  0  0  0  0  3  0  0  0  0  0  0
  162.1520  211.0810  151.0180 F   0  0  0  0  0  0  0  0  0  0  0  0
  160.9750  211.3920  151.6220 C   0  0  0  0  0  0  0  0  0  0  0  0
  160.4540  212.9710  149.4380 Cl  0  0  0  0  0  0  0  0  0  0  0  0
  158.9010  212.5810  151.6080 N   0  0  0  0  0  0  0  0  0  0  0  0
  1 21  1  6  0  0  0
  1 10  1  0  0  0  0
  3  5  1  0  0  0  0
  3  9  1  1  0  0  0
  4  8  1  0  0  0  0
  5 11  1  0  0  0  0
  7  4  1  0  0  0  0
  8  6  1  0  0  0  0
  8  2  2  0  0  0  0
  9  7  2  0  0  0  0
 10  6  2  0  0  0  0
 11  1  1  0  0  0  0
 11  4  2  0  0  0  0
 13 18  1  0  0  0  0
 14 20  2  0  0  0  0
 15 12  1  6  0  0  0
 15  3  1  0  0  0  0
 17 14  1  0  0  0  0
 17 13  1  0  0  0  0
 18 16  1  1  0  0  0
 18 15  1  0  0  0  0
 19 14  1  0  0  0  0
 20 12  1  0  0  0  0
 21 22  1  0  0  0  0
 23 28  2  0  0  0  0
 23 26  1  0  0  0  0
 24 22  2  0  0  0  0
 25 26  1  0  0  0  0
 26 21  2  0  0  0  0
 27 23  1  0  0  0  0
 28 24  1  0  0  0  0
M  END
>  <MODEL>
5

>  <REMARK>
 VINA RESULT:      -6.9      3.416      7.465
  Name = 
  2 active torsions:
  status: ('A' for Active; 'I' for Inactive)
    1  A    between atoms: C_1  and  C_2
    2  A    between atoms: C_10  and  C_13
                            x       y       z     vdW  Elec       q    Type
                         _______ _______ _______ _____ _____    ______ ____

>  <TORSDO>
F 2

$$$$
=
 OpenBabel11052422533D

 28 31  0  0  1  0  0  0  0  0999 V2000
  160.1320  209.5240  153.0060 C   0  0  1  0  0  3  0  0  0  0  0  0
  161.7270  211.5900  149.7810 O   0  0  0  0  0  0  0  0  0  0  0  0
  161.8580  206.6890  151.0940 C   0  0  2  0  0  3  0  0  0  0  0  0
  161.3560  209.4850  150.8240 C   0  0  0  0  0  0  0  0  0  0  0  0
  160.9130  207.4130  151.8890 O   0  0  0  0  0  0  0  0  0  0  0  0
  160.6660  211.6880  151.8850 C   0  0  0  0  0  3  0  0  0  0  0  0
  161.9400  208.7250  149.7030 C   0  0  0  0  0  3  0  0  0  0  0  0
  161.2720  210.9550  150.7700 C   0  0  0  0  0  0  0  0  0  0  0  0
  162.1380  207.4100  149.8000 C   0  0  0  0  0  3  0  0  0  0  0  0
  160.1490  211.0310  152.9240 C   0  0  0  0  0  3  0  0  0  0  0  0
  160.8410  208.8140  151.8710 C   0  0  0  0  0  0  0  0  0  0  0  0
  161.9220  204.7490  149.5080 C   0  0  0  0  0  2  0  0  0  0  0  0
  161.8830  202.8390  151.6070 C   0  0  0  0  0  2  0  0  0  0  0  0
  160.4700  202.6670  149.4980 C   0  0  0  0  0  0  0  0  0  0  0  0
  161.3880  205.2510  150.8490 C   0  0  1  0  0  3  0  0  0  0  0  0
  161.0350  204.4950  153.1090 O   0  0  0  0  0  1  0  0  0  0  0  0
  160.5670  202.3960  150.9780 C   0  0  0  0  0  2  0  0  0  0  0  0
  161.8510  204.3220  151.9890 C   0  0  1  0  0  3  0  0  0  0  0  0
  159.6330  201.8140  148.7290 N   0  0  0  0  0  1  0  0  0  0  0  0
  161.0100  203.7320  148.8860 C   0  0  0  0  0  3  0  0  0  0  0  0
  160.6130  209.0490  154.3460 C   0  0  0  0  0  0  0  0  0  0  0  0
  160.0830  207.8660  154.8650 C   0  0  0  0  0  3  0  0  0  0  0  0
  162.0030  209.2470  156.3180 C   0  0  0  0  0  0  0  0  0  0  0  0
  160.5250  207.3990  156.1040 C   0  0  0  0  0  3  0  0  0  0  0  0
  162.1230  210.9010  154.5970 F   0  0  0  0  0  0  0  0  0  0  0  0
  161.5860  209.7500  155.0790 C   0  0  0  0  0  0  0  0  0  0  0  0
  163.2160  210.0920  157.2610 Cl  0  0  0  0  0  0  0  0  0  0  0  0
  161.4670  208.0920  156.7980 N   0  0  0  0  0  0  0  0  0  0  0  0
  1 21  1  1  0  0  0
  2  8  2  0  0  0  0
  3  9  1  6  0  0  0
  3  5  1  0  0  0  0
  4 11  2  0  0  0  0
  6 10  2  0  0  0  0
  7  9  2  0  0  0  0
  7  4  1  0  0  0  0
  8  4  1  0  0  0  0
  8  6  1  0  0  0  0
 10  1  1  0  0  0  0
 11  5  1  0  0  0  0
 11  1  1  0  0  0  0
 13 18  1  0  0  0  0
 14 17  1  0  0  0  0
 15 12  1  6  0  0  0
 15  3  1  0  0  0  0
 15 18  1  0  0  0  0
 17 13  1  0  0  0  0
 18 16  1  1  0  0  0
 19 14  1  0  0  0  0
 20 14  2  0  0  0  0
 20 12  1  0  0  0  0
 21 22  2  0  0  0  0
 21 26  1  0  0  0  0
 22 24  1  0  0  0  0
 23 28  1  0  0  0  0
 23 27  1  0  0  0  0
 24 28  2  0  0  0  0
 25 26  1  0  0  0  0
 26 23  2  0  0  0  0
M  END
>  <MODEL>
6

>  <REMARK>
 VINA RESULT:      -6.9      4.340      8.514
  Name = 
  2 active torsions:
  status: ('A' for Active; 'I' for Inactive)
    1  A    between atoms: C_1  and  C_2
    2  A    between atoms: C_10  and  C_13
                            x       y       z     vdW  Elec       q    Type
                         _______ _______ _______ _____ _____    ______ ____

>  <TORSDO>
F 2

$$$$
=
 OpenBabel11052422533D

 28 31  0  0  1  0  0  0  0  0999 V2000
  160.5580  207.4050  152.5430 C   0  0  1  0  0  3  0  0  0  0  0  0
  161.9070  208.0770  156.4080 O   0  0  0  0  0  0  0  0  0  0  0  0
  160.4790  211.2310  152.6970 C   0  0  2  0  0  3  0  0  0  0  0  0
  161.0440  209.0110  154.3980 C   0  0  0  0  0  0  0  0  0  0  0  0
  160.1360  209.8760  152.3870 O   0  0  0  0  0  0  0  0  0  0  0  0
  161.5670  206.5380  154.6540 C   0  0  0  0  0  3  0  0  0  0  0  0
  160.9690  210.3740  154.9590 C   0  0  0  0  0  3  0  0  0  0  0  0
  161.5240  207.8880  155.2230 C   0  0  0  0  0  0  0  0  0  0  0  0
  160.6610  211.4140  154.1830 C   0  0  0  0  0  3  0  0  0  0  0  0
  161.1330  206.3130  153.4130 C   0  0  0  0  0  3  0  0  0  0  0  0
  160.6080  208.7950  153.1440 C   0  0  0  0  0  0  0  0  0  0  0  0
  158.8050  213.0070  153.2650 C   0  0  0  0  0  2  0  0  0  0  0  0
  159.3050  214.4530  150.8750 C   0  0  0  0  0  2  0  0  0  0  0  0
  156.9800  213.9860  151.7980 C   0  0  0  0  0  0  0  0  0  0  0  0
  159.4440  212.2090  152.1310 C   0  0  1  0  0  3  0  0  0  0  0  0
  160.2740  212.5030  149.8880 O   0  0  0  0  0  1  0  0  0  0  0  0
  157.8380  214.1660  150.5710 C   0  0  0  0  0  2  0  0  0  0  0  0
  160.0930  213.1610  151.1070 C   0  0  1  0  0  3  0  0  0  0  0  0
  155.6010  214.3100  151.6850 N   0  0  0  0  0  1  0  0  0  0  0  0
  157.3990  213.4190  152.9390 C   0  0  0  0  0  3  0  0  0  0  0  0
  161.1550  207.3710  151.1670 C   0  0  0  0  0  0  0  0  0  0  0  0
  161.9460  208.4460  150.7560 C   0  0  0  0  0  3  0  0  0  0  0  0
  161.5510  206.3110  149.0280 C   0  0  0  0  0  0  0  0  0  0  0  0
  162.5230  208.4290  149.4850 C   0  0  0  0  0  3  0  0  0  0  0  0
  160.1940  205.2260  150.6690 F   0  0  0  0  0  0  0  0  0  0  0  0
  160.9540  206.2870  150.2940 C   0  0  0  0  0  0  0  0  0  0  0  0
  161.3250  204.9770  147.9110 Cl  0  0  0  0  0  0  0  0  0  0  0  0
  162.3160  207.3720  148.6550 N   0  0  0  0  0  0  0  0  0  0  0  0
  1 21  1  6  0  0  0
  1 11  1  0  0  0  0
  1 10  1  0  0  0  0
  3  9  1  1  0  0  0
  4  7  1  0  0  0  0
  4  8  1  0  0  0  0
  5  3  1  0  0  0  0
  5 11  1  0  0  0  0
  6  8  1  0  0  0  0
  8  2  2  0  0  0  0
  9  7  2  0  0  0  0
 10  6  2  0  0  0  0
 11  4  2  0  0  0  0
 13 18  1  0  0  0  0
 14 20  2  0  0  0  0
 15  3  1  0  0  0  0
 15 12  1  1  0  0  0
 17 13  1  0  0  0  0
 17 14  1  0  0  0  0
 18 16  1  6  0  0  0
 18 15  1  0  0  0  0
 19 14  1  0  0  0  0
 20 12  1  0  0  0  0
 22 21  1  0  0  0  0
 23 26  1  0  0  0  0
 24 22  2  0  0  0  0
 26 25  1  0  0  0  0
 26 21  2  0  0  0  0
 27 23  1  0  0  0  0
 28 23  2  0  0  0  0
 28 24  1  0  0  0  0
M  END
>  <MODEL>
7

>  <REMARK>
 VINA RESULT:      -6.9      3.832      6.047
  Name = 
  2 active torsions:
  status: ('A' for Active; 'I' for Inactive)
    1  A    between atoms: C_1  and  C_2
    2  A    between atoms: C_10  and  C_13
                            x       y       z     vdW  Elec       q    Type
                         _______ _______ _______ _____ _____    ______ ____

>  <TORSDO>
F 2

$$$$
=
 OpenBabel11052422533D

 28 31  0  0  1  0  0  0  0  0999 V2000
  159.7330  210.2100  153.6960 C   0  0  1  0  0  3  0  0  0  0  0  0
  160.7270  212.9670  150.7590 O   0  0  0  0  0  0  0  0  0  0  0  0
  161.9140  208.0720  151.3840 C   0  0  2  0  0  3  0  0  0  0  0  0
  160.8410  210.7130  151.5100 C   0  0  0  0  0  0  0  0  0  0  0  0
  160.8780  208.4730  152.2870 O   0  0  0  0  0  0  0  0  0  0  0  0
  159.7630  212.5650  152.8740 C   0  0  0  0  0  3  0  0  0  0  0  0
  161.5170  210.2450  150.2850 C   0  0  0  0  0  3  0  0  0  0  0  0
  160.4560  212.1280  151.6590 C   0  0  0  0  0  0  0  0  0  0  0  0
  161.9830  208.9990  150.1970 C   0  0  0  0  0  3  0  0  0  0  0  0
  159.4380  211.6860  153.8220 C   0  0  0  0  0  3  0  0  0  0  0  0
  160.5210  209.8180  152.4620 C   0  0  0  0  0  0  0  0  0  0  0  0
  160.8560  205.8740  151.9570 C   0  0  0  0  0  2  0  0  0  0  0  0
  160.4550  205.1860  149.2330 C   0  0  0  0  0  2  0  0  0  0  0  0
  161.3530  203.5800  150.9910 C   0  0  0  0  0  0  0  0  0  0  0  0
  161.7380  206.6120  150.9520 C   0  0  1  0  0  3  0  0  0  0  0  0
  162.1000  206.7920  148.5770 O   0  0  0  0  0  1  0  0  0  0  0  0
  161.3800  204.0160  149.5480 C   0  0  0  0  0  2  0  0  0  0  0  0
  161.1240  206.5290  149.5400 C   0  0  1  0  0  3  0  0  0  0  0  0
  161.6620  202.2220  151.2710 N   0  0  0  0  0  1  0  0  0  0  0  0
  161.1900  204.4120  152.0310 C   0  0  0  0  0  3  0  0  0  0  0  0
  160.3600  209.6750  154.9490 C   0  0  0  0  0  0  0  0  0  0  0  0
  159.7140  208.6400  155.6300 C   0  0  0  0  0  3  0  0  0  0  0  0
  162.1170  209.6200  156.6130 C   0  0  0  0  0  0  0  0  0  0  0  0
  160.2860  208.1180  156.7910 C   0  0  0  0  0  3  0  0  0  0  0  0
  162.2300  211.1750  154.8010 F   0  0  0  0  0  0  0  0  0  0  0  0
  161.5780  210.1730  155.4450 C   0  0  0  0  0  0  0  0  0  0  0  0
  163.6360  210.2130  157.2610 Cl  0  0  0  0  0  0  0  0  0  0  0  0
  161.4650  208.6140  157.2540 N   0  0  0  0  0  0  0  0  0  0  0  0
  1 10  1  0  0  0  0
  1 21  1  1  0  0  0
  2  8  2  0  0  0  0
  3  9  1  6  0  0  0
  3  5  1  0  0  0  0
  4  8  1  0  0  0  0
  4 11  2  0  0  0  0
  5 11  1  0  0  0  0
  6 10  2  0  0  0  0
  7  4  1  0  0  0  0
  8  6  1  0  0  0  0
  9  7  2  0  0  0  0
 11  1  1  0  0  0  0
 12 20  1  0  0  0  0
 13 18  1  0  0  0  0
 13 17  1  0  0  0  0
 14 19  1  0  0  0  0
 14 20  2  0  0  0  0
 15  3  1  0  0  0  0
 15 12  1  1  0  0  0
 17 14  1  0  0  0  0
 18 16  1  6  0  0  0
 18 15  1  0  0  0  0
 21 26  2  0  0  0  0
 21 22  1  0  0  0  0
 22 24  2  0  0  0  0
 23 28  2  0  0  0  0
 23 27  1  0  0  0  0
 24 28  1  0  0  0  0
 25 26  1  0  0  0  0
 26 23  1  0  0  0  0
M  END
>  <MODEL>
8

>  <REMARK>
 VINA RESULT:      -6.8      4.589      8.788
  Name = 
  2 active torsions:
  status: ('A' for Active; 'I' for Inactive)
    1  A    between atoms: C_1  and  C_2
    2  A    between atoms: C_10  and  C_13
                            x       y       z     vdW  Elec       q    Type
                         _______ _______ _______ _____ _____    ______ ____

>  <TORSDO>
F 2

$$$$
=
 OpenBabel11052422533D

 28 31  0  0  1  0  0  0  0  0999 V2000
  160.6770  204.3700  148.6120 C   0  0  1  0  0  3  0  0  0  0  0  0
  161.2470  202.6550  152.3460 O   0  0  0  0  0  0  0  0  0  0  0  0
  162.0540  207.3480  150.5890 C   0  0  2  0  0  3  0  0  0  0  0  0
  161.3050  204.6290  151.0200 C   0  0  0  0  0  0  0  0  0  0  0  0
  161.2940  206.5690  149.6580 O   0  0  0  0  0  0  0  0  0  0  0  0
  160.7540  202.3410  150.0620 C   0  0  0  0  0  3  0  0  0  0  0  0
  161.6360  205.4970  152.1660 C   0  0  0  0  0  3  0  0  0  0  0  0
  161.1060  203.1800  151.2100 C   0  0  0  0  0  0  0  0  0  0  0  0
  161.9440  206.7810  151.9810 C   0  0  0  0  0  3  0  0  0  0  0  0
  160.5660  202.8840  148.8580 C   0  0  0  0  0  3  0  0  0  0  0  0
  161.1220  205.1850  149.8090 C   0  0  0  0  0  0  0  0  0  0  0  0
  162.0410  209.5160  151.8450 C   0  0  0  0  0  2  0  0  0  0  0  0
  162.3540  211.0590  149.4840 C   0  0  0  0  0  2  0  0  0  0  0  0
  160.7170  211.6230  151.3490 C   0  0  0  0  0  0  0  0  0  0  0  0
  161.6400  208.8220  150.5450 C   0  0  1  0  0  3  0  0  0  0  0  0
  161.5950  209.2130  148.1680 O   0  0  0  0  0  1  0  0  0  0  0  0
  161.0000  211.6460  149.8680 C   0  0  0  0  0  2  0  0  0  0  0  0
  162.2840  209.5360  149.3390 C   0  0  1  0  0  3  0  0  0  0  0  0
  159.8440  212.6190  151.8640 N   0  0  0  0  0  1  0  0  0  0  0  0
  161.1210  210.6530  152.1830 C   0  0  0  0  0  3  0  0  0  0  0  0
  161.5160  204.6560  147.4010 C   0  0  0  0  0  0  0  0  0  0  0  0
  162.8560  204.2660  147.4090 C   0  0  0  0  0  3  0  0  0  0  0  0
  161.8190  205.5130  145.1580 C   0  0  0  0  0  0  0  0  0  0  0  0
  163.6510  204.5100  146.2880 C   0  0  0  0  0  3  0  0  0  0  0  0
  159.6850  205.6730  146.2230 F   0  0  0  0  0  0  0  0  0  0  0  0
  160.9870  205.2880  146.2610 C   0  0  0  0  0  0  0  0  0  0  0  0
  161.1960  206.2960  143.7170 Cl  0  0  0  0  0  0  0  0  0  0  0  0
  163.1210  205.1230  145.1960 N   0  0  0  0  0  0  0  0  0  0  0  0
  1 21  1  6  0  0  0
  1 10  1  0  0  0  0
  1 11  1  0  0  0  0
  3  9  1  1  0  0  0
  4  8  1  0  0  0  0
  4  7  1  0  0  0  0
  5 11  1  0  0  0  0
  5  3  1  0  0  0  0
  6  8  1  0  0  0  0
  8  2  2  0  0  0  0
  9  7  2  0  0  0  0
 10  6  2  0  0  0  0
 11  4  2  0  0  0  0
 12 20  1  0  0  0  0
 13 17  1  0  0  0  0
 14 19  1  0  0  0  0
 14 20  2  0  0  0  0
 15  3  1  0  0  0  0
 15 12  1  1  0  0  0
 17 14  1  0  0  0  0
 18 16  1  6  0  0  0
 18 13  1  0  0  0  0
 18 15  1  0  0  0  0
 21 22  1  0  0  0  0
 23 28  2  0  0  0  0
 23 26  1  0  0  0  0
 24 22  2  0  0  0  0
 25 26  1  0  0  0  0
 26 21  2  0  0  0  0
 27 23  1  0  0  0  0
 28 24  1  0  0  0  0
M  END
>  <MODEL>
9

>  <REMARK>
 VINA RESULT:      -6.8      1.222      1.602
  Name = 
  2 active torsions:
  status: ('A' for Active; 'I' for Inactive)
    1  A    between atoms: C_1  and  C_2
    2  A    between atoms: C_10  and  C_13
                            x       y       z     vdW  Elec       q    Type
                         _______ _______ _______ _____ _____    ______ ____

>  <TORSDO>
F 2

$$$$
