=
 OpenBabel11052423013D

 28 32  0  0  1  0  0  0  0  0999 V2000
  160.2010  210.2850  153.4840 C   0  0  1  0  0  3  0  0  0  0  0  0
  161.7000  207.9980  148.8660 C   0  0  0  0  0  3  0  0  0  0  0  0
  162.5720  205.9180  153.9780 C   0  0  0  0  0  1  0  0  0  0  0  0
  160.8590  205.7700  149.3440 C   0  0  0  0  0  0  0  0  0  0  0  0
  161.4860  207.3070  151.2780 C   0  0  1  0  0  3  0  0  0  0  0  0
  161.1210  206.5100  147.0490 C   0  0  0  0  0  0  0  0  0  0  0  0
  161.3040  207.0320  149.8030 C   0  0  0  0  0  0  0  0  0  0  0  0
  161.0600  204.8410  151.6670 C   0  0  0  0  0  2  0  0  0  0  0  0
  160.7520  205.5280  147.9710 C   0  0  0  0  0  3  0  0  0  0  0  0
  161.1550  207.9620  154.0420 C   0  0  2  0  0  3  0  0  0  0  0  0
  161.0340  208.7290  151.6630 C   0  0  0  0  0  2  0  0  0  0  0  0
  160.4150  204.6930  150.2940 C   0  0  0  0  0  2  0  0  0  0  0  0
  160.7250  209.5860  155.8590 C   0  0  0  0  0  2  0  0  0  0  0  0
  161.1900  206.4730  153.6550 C   0  0  1  0  0  3  0  0  0  0  0  0
  160.6400  208.1230  155.4640 C   0  0  0  0  0  2  0  0  0  0  0  0
  161.0150  206.2590  145.6890 O   0  0  0  0  0  1  0  0  0  0  0  0
  161.6010  207.7420  147.4970 C   0  0  0  0  0  3  0  0  0  0  0  0
  160.8140  206.2570  152.1750 C   0  0  1  0  0  3  0  0  0  0  0  0
  159.8090  210.4010  154.9620 C   0  0  0  0  0  2  0  0  0  0  0  0
  160.3480  208.8130  153.0370 C   0  0  2  0  0  3  0  0  0  0  0  0
  159.1700  211.0870  152.6670 C   0  0  1  0  0  3  0  0  0  0  0  0
  157.7990  211.2000  153.2670 C   0  0  0  0  0  3  0  0  0  0  0  0
  158.2250  213.4810  154.1010 C   0  0  0  0  0  0  0  0  0  0  0  0
  159.7730  212.6680  151.9680 S   0  0  0  0  0  0  0  0  0  0  0  0
  156.0900  212.2750  154.4570 O   0  0  0  0  0  1  0  0  0  0  0  0
  157.3690  212.2880  153.9140 C   0  0  0  0  0  0  0  0  0  0  0  0
  157.9020  214.4530  155.1820 C   0  0  0  0  0  1  0  0  0  0  0  0
  159.3370  213.6750  153.3940 C   0  0  0  0  0  3  0  0  0  0  0  0
  1 19  1  1  0  0  0
  2  7  1  0  0  0  0
  4  7  2  0  0  0  0
  4 12  1  0  0  0  0
  5 11  1  1  0  0  0
  5 18  1  0  0  0  0
  6 17  1  0  0  0  0
  6  9  2  0  0  0  0
  7  5  1  0  0  0  0
  9  4  1  0  0  0  0
 10 15  1  1  0  0  0
 12  8  1  0  0  0  0
 14  3  1  6  0  0  0
 14 10  1  0  0  0  0
 15 13  1  0  0  0  0
 16  6  1  0  0  0  0
 17  2  2  0  0  0  0
 18  8  1  6  0  0  0
 18 14  1  0  0  0  0
 19 13  1  0  0  0  0
 20 11  1  6  0  0  0
 20  1  1  0  0  0  0
 20 10  1  0  0  0  0
 21 22  1  1  0  0  0
 21  1  1  0  0  0  0
 22 26  2  0  0  0  0
 23 27  1  0  0  0  0
 24 21  1  0  0  0  0
 24 28  1  0  0  0  0
 26 23  1  0  0  0  0
 26 25  1  0  0  0  0
 28 23  2  0  0  0  0
M  END
>  <MODEL>
1

>  <REMARK>
 VINA RESULT:      -7.0      0.000      0.000
  Name = 
  1 active torsions:
  status: ('A' for Active; 'I' for Inactive)
    1  A    between atoms: C_1  and  C_2
                            x       y       z     vdW  Elec       q    Type
                         _______ _______ _______ _____ _____    ______ ____

>  <TORSDO>
F 1

$$$$
=
 OpenBabel11052423013D

 28 32  0  0  1  0  0  0  0  0999 V2000
  161.4400  210.7150  149.5630 C   0  0  1  0  0  3  0  0  0  0  0  0
  159.1960  212.5270  154.0900 C   0  0  0  0  0  3  0  0  0  0  0  0
  160.7420  207.2510  153.0920 C   0  0  0  0  0  1  0  0  0  0  0  0
  160.7540  211.4880  155.6370 C   0  0  0  0  0  0  0  0  0  0  0  0
  160.4020  210.4480  153.3370 C   0  0  1  0  0  3  0  0  0  0  0  0
  159.5300  213.4790  156.2880 C   0  0  0  0  0  0  0  0  0  0  0  0
  160.1460  211.5310  154.3610 C   0  0  0  0  0  0  0  0  0  0  0  0
  161.6260  209.1840  155.1580 C   0  0  0  0  0  2  0  0  0  0  0  0
  160.4550  212.4750  156.5820 C   0  0  0  0  0  3  0  0  0  0  0  0
  161.4430  208.7810  151.2600 C   0  0  2  0  0  3  0  0  0  0  0  0
  160.5270  211.0170  151.9100 C   0  0  0  0  0  2  0  0  0  0  0  0
  161.7830  210.4510  155.9900 C   0  0  0  0  0  2  0  0  0  0  0  0
  161.9740  208.3360  148.8840 C   0  0  0  0  0  2  0  0  0  0  0  0
  161.7100  208.3660  152.7180 C   0  0  1  0  0  3  0  0  0  0  0  0
  162.3390  207.9930  150.3170 C   0  0  0  0  0  2  0  0  0  0  0  0
  159.2370  214.4510  157.2340 O   0  0  0  0  0  1  0  0  0  0  0  0
  158.8950  213.5010  155.0440 C   0  0  0  0  0  3  0  0  0  0  0  0
  161.6090  209.5640  153.6820 C   0  0  1  0  0  3  0  0  0  0  0  0
  162.2570  209.8080  148.6360 C   0  0  0  0  0  2  0  0  0  0  0  0
  161.5810  210.3050  151.0470 C   0  0  2  0  0  3  0  0  0  0  0  0
  161.8550  212.1700  149.2740 C   0  0  1  0  0  3  0  0  0  0  0  0
  162.7000  212.3820  148.0510 C   0  0  0  0  0  3  0  0  0  0  0  0
  160.7760  213.1530  146.7150 C   0  0  0  0  0  0  0  0  0  0  0  0
  160.5300  213.4210  149.4490 S   0  0  0  0  0  0  0  0  0  0  0  0
  163.0760  212.9640  145.8120 O   0  0  0  0  0  1  0  0  0  0  0  0
  162.2110  212.8330  146.8910 C   0  0  0  0  0  0  0  0  0  0  0  0
  160.2000  213.2020  145.3430 C   0  0  0  0  0  1  0  0  0  0  0  0
  159.9520  213.3110  147.7490 C   0  0  0  0  0  3  0  0  0  0  0  0
  1 19  1  6  0  0  0
  1 20  1  0  0  0  0
  2  7  2  0  0  0  0
  2 17  1  0  0  0  0
  4 12  1  0  0  0  0
  4  9  2  0  0  0  0
  5 11  1  6  0  0  0
  5 18  1  0  0  0  0
  5  7  1  0  0  0  0
  6  9  1  0  0  0  0
  6 16  1  0  0  0  0
  7  4  1  0  0  0  0
  8 12  1  0  0  0  0
 10 15  1  6  0  0  0
 10 14  1  0  0  0  0
 13 15  1  0  0  0  0
 14  3  1  1  0  0  0
 14 18  1  0  0  0  0
 17  6  2  0  0  0  0
 18  8  1  1  0  0  0
 19 13  1  0  0  0  0
 20 10  1  0  0  0  0
 20 11  1  1  0  0  0
 21 22  1  6  0  0  0
 21 24  1  0  0  0  0
 21  1  1  0  0  0  0
 23 26  1  0  0  0  0
 23 28  2  0  0  0  0
 25 26  1  0  0  0  0
 26 22  2  0  0  0  0
 27 23  1  0  0  0  0
 28 24  1  0  0  0  0
M  END
>  <MODEL>
2

>  <REMARK>
 VINA RESULT:      -6.2      3.213      7.339
  Name = 
  1 active torsions:
  status: ('A' for Active; 'I' for Inactive)
    1  A    between atoms: C_1  and  C_2
                            x       y       z     vdW  Elec       q    Type
                         _______ _______ _______ _____ _____    ______ ____

>  <TORSDO>
F 1

$$$$
=
 OpenBabel11052423013D

 28 32  0  0  1  0  0  0  0  0999 V2000
  161.4120  206.5200  151.7400 C   0  0  1  0  0  3  0  0  0  0  0  0
  162.5400  205.5480  146.5840 C   0  0  0  0  0  3  0  0  0  0  0  0
  161.8840  201.6890  150.5710 C   0  0  0  0  0  1  0  0  0  0  0  0
  160.8700  203.8210  146.2280 C   0  0  0  0  0  0  0  0  0  0  0  0
  161.7660  204.2230  148.5810 C   0  0  1  0  0  3  0  0  0  0  0  0
  161.6910  205.1290  144.3590 C   0  0  0  0  0  0  0  0  0  0  0  0
  161.6910  204.5630  147.1090 C   0  0  0  0  0  0  0  0  0  0  0  0
  160.3990  202.1590  148.0490 C   0  0  0  0  0  2  0  0  0  0  0  0
  160.8620  204.1250  144.8630 C   0  0  0  0  0  3  0  0  0  0  0  0
  161.3420  203.9720  151.3970 C   0  0  2  0  0  3  0  0  0  0  0  0
  161.8340  205.4830  149.4650 C   0  0  0  0  0  2  0  0  0  0  0  0
  159.9330  202.7570  146.7270 C   0  0  0  0  0  2  0  0  0  0  0  0
  161.3170  204.9070  153.6880 C   0  0  0  0  0  2  0  0  0  0  0  0
  160.8680  202.8200  150.4920 C   0  0  1  0  0  3  0  0  0  0  0  0
  160.7420  203.8290  152.7870 C   0  0  0  0  0  2  0  0  0  0  0  0
  161.6800  205.4210  143.0020 O   0  0  0  0  0  1  0  0  0  0  0  0
  162.5350  205.8360  145.2180 C   0  0  0  0  0  3  0  0  0  0  0  0
  160.6370  203.2890  149.0420 C   0  0  1  0  0  3  0  0  0  0  0  0
  160.9000  206.2710  153.1640 C   0  0  0  0  0  2  0  0  0  0  0  0
  161.0540  205.3600  150.7840 C   0  0  2  0  0  3  0  0  0  0  0  0
  160.8750  207.8920  151.2880 C   0  0  1  0  0  3  0  0  0  0  0  0
  160.0260  208.6270  152.2840 C   0  0  0  0  0  3  0  0  0  0  0  0
  161.8890  210.0950  152.9610 C   0  0  0  0  0  0  0  0  0  0  0  0
  162.0860  208.9760  150.4470 S   0  0  0  0  0  0  0  0  0  0  0  0
  159.6210  210.2220  153.9530 O   0  0  0  0  0  1  0  0  0  0  0  0
  160.4850  209.6300  153.0400 C   0  0  0  0  0  0  0  0  0  0  0  0
  162.4710  210.8640  154.0950 C   0  0  0  0  0  1  0  0  0  0  0  0
  162.6870  209.7720  151.9450 C   0  0  0  0  0  3  0  0  0  0  0  0
  1 19  1  1  0  0  0
  2  7  1  0  0  0  0
  4 12  1  0  0  0  0
  4  7  2  0  0  0  0
  5 18  1  0  0  0  0
  5 11  1  1  0  0  0
  6  9  2  0  0  0  0
  6 17  1  0  0  0  0
  7  5  1  0  0  0  0
  9  4  1  0  0  0  0
 10 15  1  1  0  0  0
 12  8  1  0  0  0  0
 14  3  1  6  0  0  0
 14 10  1  0  0  0  0
 15 13  1  0  0  0  0
 16  6  1  0  0  0  0
 17  2  2  0  0  0  0
 18  8  1  6  0  0  0
 18 14  1  0  0  0  0
 19 13  1  0  0  0  0
 20 11  1  6  0  0  0
 20 10  1  0  0  0  0
 20  1  1  0  0  0  0
 21  1  1  0  0  0  0
 21 22  1  1  0  0  0
 22 26  2  0  0  0  0
 23 26  1  0  0  0  0
 23 27  1  0  0  0  0
 24 21  1  0  0  0  0
 24 28  1  0  0  0  0
 26 25  1  0  0  0  0
 28 23  2  0  0  0  0
M  END
>  <MODEL>
3

>  <REMARK>
 VINA RESULT:      -5.9      2.719      4.337
  Name = 
  1 active torsions:
  status: ('A' for Active; 'I' for Inactive)
    1  A    between atoms: C_1  and  C_2
                            x       y       z     vdW  Elec       q    Type
                         _______ _______ _______ _____ _____    ______ ____

>  <TORSDO>
F 1

$$$$
=
 OpenBabel11052423013D

 28 32  0  0  1  0  0  0  0  0999 V2000
  160.9430  202.3950  147.9860 C   0  0  1  0  0  3  0  0  0  0  0  0
  160.8320  207.7250  148.6040 C   0  0  0  0  0  3  0  0  0  0  0  0
  160.2520  203.9480  152.6810 C   0  0  0  0  0  1  0  0  0  0  0  0
  162.3620  207.8440  150.4880 C   0  0  0  0  0  0  0  0  0  0  0  0
  161.0350  205.7030  150.0920 C   0  0  1  0  0  3  0  0  0  0  0  0
  162.0840  209.7530  149.0180 C   0  0  0  0  0  0  0  0  0  0  0  0
  161.4510  207.1030  149.6990 C   0  0  0  0  0  0  0  0  0  0  0  0
  162.2740  206.0780  152.2690 C   0  0  0  0  0  2  0  0  0  0  0  0
  162.6850  209.1560  150.1280 C   0  0  0  0  0  3  0  0  0  0  0  0
  160.8310  202.8820  150.5100 C   0  0  2  0  0  3  0  0  0  0  0  0
  160.9080  204.7720  148.8710 C   0  0  0  0  0  2  0  0  0  0  0  0
  163.0630  207.2350  151.6690 C   0  0  0  0  0  2  0  0  0  0  0  0
  160.4670  200.5780  149.6820 C   0  0  0  0  0  2  0  0  0  0  0  0
  161.3700  203.7440  151.6660 C   0  0  1  0  0  3  0  0  0  0  0  0
  161.1090  201.4110  150.7770 C   0  0  0  0  0  2  0  0  0  0  0  0
  162.4080  211.0570  148.6710 O   0  0  0  0  0  1  0  0  0  0  0  0
  161.1520  209.0400  148.2600 C   0  0  0  0  0  3  0  0  0  0  0  0
  161.9440  205.0820  151.1630 C   0  0  1  0  0  3  0  0  0  0  0  0
  161.1170  200.9160  148.3510 C   0  0  0  0  0  2  0  0  0  0  0  0
  161.3770  203.3310  149.1360 C   0  0  2  0  0  3  0  0  0  0  0  0
  161.6950  202.6390  146.6640 C   0  0  1  0  0  3  0  0  0  0  0  0
  160.8400  202.7690  145.4360 C   0  0  0  0  0  3  0  0  0  0  0  0
  161.0010  205.2300  145.4440 C   0  0  0  0  0  0  0  0  0  0  0  0
  163.0340  203.8830  146.7330 S   0  0  0  0  0  0  0  0  0  0  0  0
  159.7060  203.9530  143.7610 O   0  0  0  0  0  1  0  0  0  0  0  0
  160.5300  203.9450  144.8800 C   0  0  0  0  0  0  0  0  0  0  0  0
  160.2870  206.4890  145.0970 C   0  0  0  0  0  1  0  0  0  0  0  0
  161.9930  205.2940  146.3320 C   0  0  0  0  0  3  0  0  0  0  0  0
  1 19  1  1  0  0  0
  1 20  1  0  0  0  0
  2  7  1  0  0  0  0
  4 12  1  0  0  0  0
  5 11  1  6  0  0  0
  5 18  1  0  0  0  0
  6  9  2  0  0  0  0
  7  5  1  0  0  0  0
  7  4  2  0  0  0  0
  9  4  1  0  0  0  0
 10 15  1  1  0  0  0
 10 14  1  0  0  0  0
 12  8  1  0  0  0  0
 13 15  1  0  0  0  0
 14  3  1  1  0  0  0
 16  6  1  0  0  0  0
 17  2  2  0  0  0  0
 17  6  1  0  0  0  0
 18 14  1  0  0  0  0
 18  8  1  1  0  0  0
 19 13  1  0  0  0  0
 20 11  1  6  0  0  0
 20 10  1  0  0  0  0
 21 22  1  6  0  0  0
 21 24  1  0  0  0  0
 21  1  1  0  0  0  0
 23 28  2  0  0  0  0
 25 26  1  0  0  0  0
 26 22  2  0  0  0  0
 26 23  1  0  0  0  0
 27 23  1  0  0  0  0
 28 24  1  0  0  0  0
M  END
>  <MODEL>
4

>  <REMARK>
 VINA RESULT:      -5.1      4.724      8.088
  Name = 
  1 active torsions:
  status: ('A' for Active; 'I' for Inactive)
    1  A    between atoms: C_1  and  C_2
                            x       y       z     vdW  Elec       q    Type
                         _______ _______ _______ _____ _____    ______ ____

>  <TORSDO>
F 1

$$$$
=
 OpenBabel11052423013D

 28 32  0  0  1  0  0  0  0  0999 V2000
  160.2650  213.2490  143.1600 C   0  0  1  0  0  3  0  0  0  0  0  0
  156.4500  211.9460  139.6170 C   0  0  0  0  0  3  0  0  0  0  0  0
  161.8190  212.9340  138.4250 C   0  0  0  0  0  1  0  0  0  0  0  0
  157.6930  210.2110  138.4560 C   0  0  0  0  0  0  0  0  0  0  0  0
  158.9650  212.0690  139.6520 C   0  0  1  0  0  3  0  0  0  0  0  0
  155.2680  210.1860  138.4530 C   0  0  0  0  0  0  0  0  0  0  0  0
  157.6800  211.3700  139.2680 C   0  0  0  0  0  0  0  0  0  0  0  0
  160.1500  210.5130  138.0430 C   0  0  0  0  0  2  0  0  0  0  0  0
  156.4860  209.6180  138.0730 C   0  0  0  0  0  3  0  0  0  0  0  0
  161.4050  212.9180  140.8780 C   0  0  2  0  0  3  0  0  0  0  0  0
  158.9370  212.5770  141.1060 C   0  0  0  0  0  2  0  0  0  0  0  0
  158.9770  209.5410  138.0530 C   0  0  0  0  0  2  0  0  0  0  0  0
  162.6620  213.9460  142.7440 C   0  0  0  0  0  2  0  0  0  0  0  0
  161.5010  212.0400  139.6160 C   0  0  1  0  0  3  0  0  0  0  0  0
  162.7550  212.9840  141.5740 C   0  0  0  0  0  2  0  0  0  0  0  0
  154.0750  209.5920  138.0650 O   0  0  0  0  0  1  0  0  0  0  0  0
  155.2500  211.3530  139.2190 C   0  0  0  0  0  3  0  0  0  0  0  0
  160.2160  211.2170  139.3930 C   0  0  1  0  0  3  0  0  0  0  0  0
  161.6680  213.4050  143.7580 C   0  0  0  0  0  2  0  0  0  0  0  0
  160.2850  212.4540  141.8350 C   0  0  2  0  0  3  0  0  0  0  0  0
  159.3630  212.6320  144.2460 C   0  0  1  0  0  3  0  0  0  0  0  0
  160.0680  211.8730  145.3330 C   0  0  0  0  0  3  0  0  0  0  0  0
  159.9010  213.7570  146.9160 C   0  0  0  0  0  0  0  0  0  0  0  0
  158.0360  213.7200  144.8830 S   0  0  0  0  0  0  0  0  0  0  0  0
  160.9950  211.6030  147.4690 O   0  0  0  0  0  1  0  0  0  0  0  0
  160.3070  212.3820  146.5460 C   0  0  0  0  0  0  0  0  0  0  0  0
  160.5650  214.4340  148.0630 C   0  0  0  0  0  1  0  0  0  0  0  0
  159.0190  214.4530  146.1990 C   0  0  0  0  0  3  0  0  0  0  0  0
  1 19  1  1  0  0  0
  1 21  1  0  0  0  0
  4  7  2  0  0  0  0
  5 11  1  1  0  0  0
  6 17  1  0  0  0  0
  7  2  1  0  0  0  0
  7  5  1  0  0  0  0
  8 12  1  0  0  0  0
  9  6  2  0  0  0  0
  9  4  1  0  0  0  0
 10 15  1  1  0  0  0
 10 20  1  0  0  0  0
 12  4  1  0  0  0  0
 13 19  1  0  0  0  0
 14  3  1  6  0  0  0
 14 10  1  0  0  0  0
 15 13  1  0  0  0  0
 16  6  1  0  0  0  0
 17  2  2  0  0  0  0
 18  8  1  6  0  0  0
 18 14  1  0  0  0  0
 18  5  1  0  0  0  0
 20 11  1  6  0  0  0
 20  1  1  0  0  0  0
 21 24  1  0  0  0  0
 21 22  1  1  0  0  0
 22 26  2  0  0  0  0
 23 27  1  0  0  0  0
 24 28  1  0  0  0  0
 26 23  1  0  0  0  0
 26 25  1  0  0  0  0
 28 23  2  0  0  0  0
M  END
>  <MODEL>
5

>  <REMARK>
 VINA RESULT:      -4.9      8.532     11.671
  Name = 
  1 active torsions:
  status: ('A' for Active; 'I' for Inactive)
    1  A    between atoms: C_1  and  C_2
                            x       y       z     vdW  Elec       q    Type
                         _______ _______ _______ _____ _____    ______ ____

>  <TORSDO>
F 1

$$$$
=
 OpenBabel11052423013D

 28 32  0  0  1  0  0  0  0  0999 V2000
  160.5160  211.7100  150.6700 C   0  0  1  0  0  3  0  0  0  0  0  0
  156.6390  212.0890  154.3620 C   0  0  0  0  0  3  0  0  0  0  0  0
  160.6150  208.1660  154.1870 C   0  0  0  0  0  1  0  0  0  0  0  0
  158.0550  211.8180  156.3180 C   0  0  0  0  0  0  0  0  0  0  0  0
  158.8050  210.8330  154.0890 C   0  0  1  0  0  3  0  0  0  0  0  0
  155.9400  212.9920  156.4940 C   0  0  0  0  0  0  0  0  0  0  0  0
  157.8360  211.6310  154.9320 C   0  0  0  0  0  0  0  0  0  0  0  0
  159.9710  210.1990  156.2470 C   0  0  0  0  0  2  0  0  0  0  0  0
  157.1140  212.5150  157.0820 C   0  0  0  0  0  3  0  0  0  0  0  0
  160.9760  209.9240  152.4640 C   0  0  2  0  0  3  0  0  0  0  0  0
  159.0110  211.4560  152.6950 C   0  0  0  0  0  2  0  0  0  0  0  0
  159.3190  211.3580  156.9890 C   0  0  0  0  0  2  0  0  0  0  0  0
  162.2270  209.8760  150.3300 C   0  0  0  0  0  2  0  0  0  0  0  0
  161.0270  209.6170  153.9720 C   0  0  1  0  0  3  0  0  0  0  0  0
  162.3360  209.6780  151.8310 C   0  0  0  0  0  2  0  0  0  0  0  0
  155.0090  213.6780  157.2610 O   0  0  0  0  0  1  0  0  0  0  0  0
  155.6990  212.7720  155.1360 C   0  0  0  0  0  3  0  0  0  0  0  0
  160.1530  210.5910  154.7850 C   0  0  1  0  0  3  0  0  0  0  0  0
  161.8600  211.3220  150.0420 C   0  0  0  0  0  2  0  0  0  0  0  0
  160.4520  211.3480  152.1710 C   0  0  2  0  0  3  0  0  0  0  0  0
  160.2800  213.2040  150.3760 C   0  0  1  0  0  3  0  0  0  0  0  0
  160.6870  213.6770  149.0110 C   0  0  0  0  0  3  0  0  0  0  0  0
  158.3680  213.6210  148.1740 C   0  0  0  0  0  0  0  0  0  0  0  0
  158.6590  213.8670  150.9060 S   0  0  0  0  0  0  0  0  0  0  0  0
  160.3060  214.2830  146.7790 O   0  0  0  0  0  1  0  0  0  0  0  0
  159.8180  213.8710  148.0130 C   0  0  0  0  0  0  0  0  0  0  0  0
  157.5240  213.4030  146.9670 C   0  0  0  0  0  1  0  0  0  0  0  0
  157.7990  213.4900  149.3710 C   0  0  0  0  0  3  0  0  0  0  0  0
  1 19  1  1  0  0  0
  1 20  1  0  0  0  0
  2  7  2  0  0  0  0
  2 17  1  0  0  0  0
  4 12  1  0  0  0  0
  4  9  2  0  0  0  0
  5 11  1  6  0  0  0
  5 18  1  0  0  0  0
  5  7  1  0  0  0  0
  6  9  1  0  0  0  0
  6 16  1  0  0  0  0
  7  4  1  0  0  0  0
  8 12  1  0  0  0  0
 10 15  1  1  0  0  0
 10 14  1  0  0  0  0
 13 15  1  0  0  0  0
 14  3  1  6  0  0  0
 14 18  1  0  0  0  0
 17  6  2  0  0  0  0
 18  8  1  1  0  0  0
 19 13  1  0  0  0  0
 20 10  1  0  0  0  0
 20 11  1  6  0  0  0
 21 22  1  6  0  0  0
 21  1  1  0  0  0  0
 21 24  1  0  0  0  0
 23 28  2  0  0  0  0
 25 26  1  0  0  0  0
 26 23  1  0  0  0  0
 26 22  2  0  0  0  0
 27 23  1  0  0  0  0
 28 24  1  0  0  0  0
M  END
>  <MODEL>
6

>  <REMARK>
 VINA RESULT:      -4.7      3.241      7.310
  Name = 
  1 active torsions:
  status: ('A' for Active; 'I' for Inactive)
    1  A    between atoms: C_1  and  C_2
                            x       y       z     vdW  Elec       q    Type
                         _______ _______ _______ _____ _____    ______ ____

>  <TORSDO>
F 1

$$$$
=
 OpenBabel11052423013D

 28 32  0  0  1  0  0  0  0  0999 V2000
  161.6310  210.1240  150.6700 C   0  0  1  0  0  3  0  0  0  0  0  0
  162.6190  205.8010  147.6470 C   0  0  0  0  0  3  0  0  0  0  0  0
  162.4800  205.9220  153.2320 C   0  0  0  0  0  1  0  0  0  0  0  0
  161.0940  204.2850  148.7780 C   0  0  0  0  0  0  0  0  0  0  0  0
  162.0520  206.2730  150.0550 C   0  0  1  0  0  3  0  0  0  0  0  0
  161.7160  203.8930  146.4670 C   0  0  0  0  0  0  0  0  0  0  0  0
  161.8840  205.4590  148.7920 C   0  0  0  0  0  0  0  0  0  0  0  0
  160.8510  204.4050  151.2730 C   0  0  0  0  0  2  0  0  0  0  0  0
  161.0010  203.5240  147.6090 C   0  0  0  0  0  3  0  0  0  0  0  0
  161.7740  208.0930  152.2430 C   0  0  2  0  0  3  0  0  0  0  0  0
  162.0450  207.7880  149.7740 C   0  0  0  0  0  2  0  0  0  0  0  0
  160.2780  203.8660  149.9680 C   0  0  0  0  0  2  0  0  0  0  0  0
  161.7640  210.3810  153.1850 C   0  0  0  0  0  2  0  0  0  0  0  0
  161.3640  206.6260  152.4700 C   0  0  1  0  0  3  0  0  0  0  0  0
  161.2490  208.9660  153.3720 C   0  0  0  0  0  2  0  0  0  0  0  0
  161.6200  203.1290  145.3120 O   0  0  0  0  0  1  0  0  0  0  0  0
  162.5290  205.0270  146.4880 C   0  0  0  0  0  3  0  0  0  0  0  0
  161.0310  205.9130  151.1450 C   0  0  1  0  0  3  0  0  0  0  0  0
  161.2060  210.9490  151.8900 C   0  0  0  0  0  2  0  0  0  0  0  0
  161.3370  208.6180  150.8570 C   0  0  2  0  0  3  0  0  0  0  0  0
  160.9560  210.7440  149.4320 C   0  0  1  0  0  3  0  0  0  0  0  0
  160.3720  212.1140  149.6190 C   0  0  0  0  0  3  0  0  0  0  0  0
  162.3020  213.2110  148.5440 C   0  0  0  0  0  0  0  0  0  0  0  0
  161.8770  210.5730  147.8600 S   0  0  0  0  0  0  0  0  0  0  0  0
  160.3640  214.4530  149.4620 O   0  0  0  0  0  1  0  0  0  0  0  0
  160.9800  213.2330  149.2120 C   0  0  0  0  0  0  0  0  0  0  0  0
  163.1340  214.4450  148.5240 C   0  0  0  0  0  1  0  0  0  0  0  0
  162.8210  212.0940  148.0350 C   0  0  0  0  0  3  0  0  0  0  0  0
  1 20  1  0  0  0  0
  1 19  1  1  0  0  0
  2  7  1  0  0  0  0
  4  7  2  0  0  0  0
  4 12  1  0  0  0  0
  5 11  1  6  0  0  0
  5 18  1  0  0  0  0
  6 17  1  0  0  0  0
  6  9  2  0  0  0  0
  7  5  1  0  0  0  0
  9  4  1  0  0  0  0
 10 14  1  0  0  0  0
 10 15  1  1  0  0  0
 12  8  1  0  0  0  0
 13 15  1  0  0  0  0
 14  3  1  6  0  0  0
 16  6  1  0  0  0  0
 17  2  2  0  0  0  0
 18  8  1  1  0  0  0
 18 14  1  0  0  0  0
 19 13  1  0  0  0  0
 20 11  1  6  0  0  0
 20 10  1  0  0  0  0
 21 22  1  1  0  0  0
 21  1  1  0  0  0  0
 23 26  1  0  0  0  0
 24 28  1  0  0  0  0
 24 21  1  0  0  0  0
 26 25  1  0  0  0  0
 26 22  2  0  0  0  0
 27 23  1  0  0  0  0
 28 23  2  0  0  0  0
M  END
>  <MODEL>
7

>  <REMARK>
 VINA RESULT:      -4.6      2.982      3.826
  Name = 
  1 active torsions:
  status: ('A' for Active; 'I' for Inactive)
    1  A    between atoms: C_1  and  C_2
                            x       y       z     vdW  Elec       q    Type
                         _______ _______ _______ _____ _____    ______ ____

>  <TORSDO>
F 1

$$$$
=
 OpenBabel11052423013D

 28 32  0  0  1  0  0  0  0  0999 V2000
  161.1050  204.3370  150.9710 C   0  0  1  0  0  3  0  0  0  0  0  0
  162.3680  205.1950  145.8260 C   0  0  0  0  0  3  0  0  0  0  0  0
  161.9390  200.2020  148.2980 C   0  0  0  0  0  1  0  0  0  0  0  0
  160.8300  203.5800  144.8630 C   0  0  0  0  0  0  0  0  0  0  0  0
  161.6650  203.2390  147.2470 C   0  0  1  0  0  3  0  0  0  0  0  0
  161.5810  205.4810  143.5570 C   0  0  0  0  0  0  0  0  0  0  0  0
  161.5850  204.0400  145.9680 C   0  0  0  0  0  0  0  0  0  0  0  0
  160.4560  201.3830  146.0180 C   0  0  0  0  0  2  0  0  0  0  0  0
  160.8190  204.3160  143.6740 C   0  0  0  0  0  3  0  0  0  0  0  0
  161.2230  202.0450  149.8080 C   0  0  2  0  0  3  0  0  0  0  0  0
  161.6300  204.1380  148.4980 C   0  0  0  0  0  2  0  0  0  0  0  0
  159.9660  202.3530  144.9500 C   0  0  0  0  0  2  0  0  0  0  0  0
  161.1010  202.1680  152.2760 C   0  0  0  0  0  2  0  0  0  0  0  0
  160.8440  201.2290  148.5590 C   0  0  1  0  0  3  0  0  0  0  0  0
  160.6170  201.4140  151.0520 C   0  0  0  0  0  2  0  0  0  0  0  0
  161.5670  206.2030  142.3720 O   0  0  0  0  0  1  0  0  0  0  0  0
  162.3600  205.9170  144.6310 C   0  0  0  0  0  3  0  0  0  0  0  0
  160.6000  202.1350  147.3360 C   0  0  1  0  0  3  0  0  0  0  0  0
  160.5940  203.6000  152.2150 C   0  0  0  0  0  2  0  0  0  0  0  0
  160.8440  203.5370  149.6750 C   0  0  2  0  0  3  0  0  0  0  0  0
  160.4780  205.7440  150.9750 C   0  0  1  0  0  3  0  0  0  0  0  0
  161.3360  206.8450  151.5290 C   0  0  0  0  0  3  0  0  0  0  0  0
  161.9710  207.6380  149.2820 C   0  0  0  0  0  0  0  0  0  0  0  0
  159.6070  206.2260  149.4390 S   0  0  0  0  0  0  0  0  0  0  0  0
  162.7980  208.6700  151.3780 O   0  0  0  0  0  1  0  0  0  0  0  0
  162.0090  207.7070  150.7610 C   0  0  0  0  0  0  0  0  0  0  0  0
  163.0530  208.2850  148.4900 C   0  0  0  0  0  1  0  0  0  0  0  0
  161.0470  206.9350  148.6280 C   0  0  0  0  0  3  0  0  0  0  0  0
  1 21  1  0  0  0  0
  1 19  1  1  0  0  0
  2  7  1  0  0  0  0
  4 12  1  0  0  0  0
  4  7  2  0  0  0  0
  5 18  1  0  0  0  0
  5 11  1  1  0  0  0
  6  9  2  0  0  0  0
  6 17  1  0  0  0  0
  7  5  1  0  0  0  0
  9  4  1  0  0  0  0
 10 15  1  1  0  0  0
 12  8  1  0  0  0  0
 14  3  1  6  0  0  0
 14 10  1  0  0  0  0
 15 13  1  0  0  0  0
 16  6  1  0  0  0  0
 17  2  2  0  0  0  0
 18  8  1  6  0  0  0
 18 14  1  0  0  0  0
 19 13  1  0  0  0  0
 20 11  1  6  0  0  0
 20 10  1  0  0  0  0
 20  1  1  0  0  0  0
 21 22  1  6  0  0  0
 23 26  1  0  0  0  0
 24 21  1  0  0  0  0
 26 25  1  0  0  0  0
 26 22  2  0  0  0  0
 27 23  1  0  0  0  0
 28 23  2  0  0  0  0
 28 24  1  0  0  0  0
M  END
>  <MODEL>
8

>  <REMARK>
 VINA RESULT:      -4.4      4.465      6.639
  Name = 
  1 active torsions:
  status: ('A' for Active; 'I' for Inactive)
    1  A    between atoms: C_1  and  C_2
                            x       y       z     vdW  Elec       q    Type
                         _______ _______ _______ _____ _____    ______ ____

>  <TORSDO>
F 1

$$$$
=
 OpenBabel11052423013D

 28 32  0  0  1  0  0  0  0  0999 V2000
  161.4670  205.9630  150.1520 C   0  0  1  0  0  3  0  0  0  0  0  0
  161.1790  208.9320  154.6130 C   0  0  0  0  0  3  0  0  0  0  0  0
  162.8830  210.7200  149.6010 C   0  0  0  0  0  1  0  0  0  0  0  0
  160.0310  210.8370  153.6360 C   0  0  0  0  0  0  0  0  0  0  0  0
  161.4580  209.3420  152.1440 C   0  0  1  0  0  3  0  0  0  0  0  0
  159.8400  210.3820  156.0110 C   0  0  0  0  0  0  0  0  0  0  0  0
  160.8420  209.6890  153.4810 C   0  0  0  0  0  0  0  0  0  0  0  0
  160.6250  211.5860  151.3150 C   0  0  0  0  0  2  0  0  0  0  0  0
  159.5200  211.1620  154.8970 C   0  0  0  0  0  3  0  0  0  0  0  0
  162.0080  208.3930  149.5030 C   0  0  2  0  0  3  0  0  0  0  0  0
  161.4400  207.8250  151.8730 C   0  0  0  0  0  2  0  0  0  0  0  0
  159.6280  211.6870  152.4640 C   0  0  0  0  0  2  0  0  0  0  0  0
  162.4290  206.5650  147.8890 C   0  0  0  0  0  2  0  0  0  0  0  0
  161.6190  209.8730  149.6700 C   0  0  1  0  0  3  0  0  0  0  0  0
  161.9290  207.9900  148.0390 C   0  0  0  0  0  2  0  0  0  0  0  0
  159.3310  210.7140  157.2590 O   0  0  0  0  0  1  0  0  0  0  0  0
  160.6740  209.2720  155.8700 C   0  0  0  0  0  3  0  0  0  0  0  0
  160.8330  210.1150  150.9730 C   0  0  1  0  0  3  0  0  0  0  0  0
  161.5090  205.6300  148.6560 C   0  0  0  0  0  2  0  0  0  0  0  0
  161.1710  207.4590  150.4040 C   0  0  2  0  0  3  0  0  0  0  0  0
  160.4580  205.0050  150.8130 C   0  0  1  0  0  3  0  0  0  0  0  0
  159.7820  204.0270  149.8960 C   0  0  0  0  0  3  0  0  0  0  0  0
  161.2730  202.1840  150.5740 C   0  0  0  0  0  0  0  0  0  0  0  0
  161.0020  204.2450  152.3860 S   0  0  0  0  0  0  0  0  0  0  0  0
  159.4740  201.9330  148.8880 O   0  0  0  0  0  1  0  0  0  0  0  0
  160.1490  202.7460  149.7910 C   0  0  0  0  0  0  0  0  0  0  0  0
  161.9330  200.9320  150.1120 C   0  0  0  0  0  1  0  0  0  0  0  0
  161.7830  202.8090  151.6340 C   0  0  0  0  0  3  0  0  0  0  0  0
  1 19  1  6  0  0  0
  1 20  1  0  0  0  0
  1 21  1  0  0  0  0
  2 17  1  0  0  0  0
  4  9  2  0  0  0  0
  5 11  1  6  0  0  0
  5  7  1  0  0  0  0
  6 16  1  0  0  0  0
  7  4  1  0  0  0  0
  7  2  2  0  0  0  0
  8 12  1  0  0  0  0
  9  6  1  0  0  0  0
 10 15  1  6  0  0  0
 10 14  1  0  0  0  0
 10 20  1  0  0  0  0
 12  4  1  0  0  0  0
 13 15  1  0  0  0  0
 13 19  1  0  0  0  0
 14  3  1  1  0  0  0
 14 18  1  0  0  0  0
 17  6  2  0  0  0  0
 18  8  1  1  0  0  0
 18  5  1  0  0  0  0
 20 11  1  1  0  0  0
 21 22  1  6  0  0  0
 21 24  1  0  0  0  0
 23 28  2  0  0  0  0
 25 26  1  0  0  0  0
 26 22  2  0  0  0  0
 26 23  1  0  0  0  0
 27 23  1  0  0  0  0
 28 24  1  0  0  0  0
M  END
>  <MODEL>
9

>  <REMARK>
 VINA RESULT:      -4.1      2.632      8.255
  Name = 
  1 active torsions:
  status: ('A' for Active; 'I' for Inactive)
    1  A    between atoms: C_1  and  C_2
                            x       y       z     vdW  Elec       q    Type
                         _______ _______ _______ _____ _____    ______ ____

>  <TORSDO>
F 1

$$$$
