=
 OpenBabel11052421463D

 30 33  0  0  1  0  0  0  0  0999 V2000
  161.9560  206.1720  148.6580 C   0  0  2  0  0  3  0  0  0  0  0  0
  161.2920  206.1340  150.0720 C   0  0  1  0  0  0  0  0  0  0  0  0
  162.6570  207.4860  148.2980 C   0  0  0  0  0  2  0  0  0  0  0  0
  161.5990  210.1560  151.1060 S   0  0  0  0  0  0  0  0  0  0  0  0
  160.9720  206.0270  152.9150 C   0  0  2  0  0  3  0  0  0  0  0  0
  162.1090  208.5610  150.4170 C   0  0  2  0  0  3  0  0  0  0  0  0
  162.5430  209.9810  148.5400 C   0  0  0  0  0  2  0  0  0  0  0  0
  161.1770  204.6670  152.2310 C   0  0  0  0  0  2  0  0  0  0  0  0
  161.9370  208.6580  148.9310 C   0  0  1  0  0  3  0  0  0  0  0  0
  161.3190  207.3880  151.0030 C   0  0  2  0  0  3  0  0  0  0  0  0
  160.8660  211.6740  149.0160 N   0  0  0  0  0  1  0  0  0  0  0  0
  162.0410  211.0060  149.5470 C   0  0  1  0  0  3  0  0  0  0  0  0
  159.9610  205.3950  150.1620 C   0  0  0  0  0  2  0  0  0  0  0  0
  161.2180  204.7330  150.6960 C   0  0  1  0  0  3  0  0  0  0  0  0
  163.0940  206.6610  152.2680 O   0  0  0  0  0  1  0  0  0  0  0  0
  161.8070  207.0930  152.3560 N   0  0  0  0  0  0  0  0  0  0  0  0
  161.0010  205.9890  154.3270 O   0  0  0  0  0  0  0  0  0  0  0  0
  159.7260  207.1980  155.7850 O   0  0  0  0  0  1  0  0  0  0  0  0
  160.7390  207.2720  154.8300 C   0  0  0  0  0  2  0  0  0  0  0  0
  161.1670  205.5950  147.4620 C   0  0  2  0  0  3  0  0  0  0  0  0
  161.7040  204.2380  146.9610 C   0  0  0  0  0  3  0  0  0  0  0  0
  161.2150  203.0720  147.8160 C   0  0  0  0  0  2  0  0  0  0  0  0
  160.8840  201.8780  146.9420 C   0  0  0  0  0  1  0  0  0  0  0  0
  163.2320  204.2260  146.8510 C   0  0  0  0  0  2  0  0  0  0  0  0
  163.7090  204.2940  145.4070 C   0  0  0  0  0  1  0  0  0  0  0  0
  161.1220  206.5390  146.4290 O   0  0  0  0  0  0  0  0  0  0  0  0
  160.0520  206.1440  145.6260 C   0  0  0  0  0  2  0  0  0  0  0  0
  160.5630  205.3760  144.4600 C   0  0  0  0  0  0  0  0  0  0  0  0
  160.1450  204.0690  144.2510 O   0  0  0  0  0  1  0  0  0  0  0  0
  161.3500  205.9220  143.6430 O   0  0  0  0  0  0  0  0  0  0  0  0
  1 20  1  6  0  0  0
  1  2  1  0  0  0  0
  2 13  1  6  0  0  0
  2 14  1  0  0  0  0
  2 10  1  0  0  0  0
  3  1  1  0  0  0  0
  5 17  1  1  0  0  0
  6 10  1  0  0  0  0
  6  4  1  1  0  0  0
  7  9  1  0  0  0  0
  7 12  1  0  0  0  0
  8  5  1  0  0  0  0
  9  3  1  6  0  0  0
  9  6  1  0  0  0  0
 10 16  1  1  0  0  0
 12 11  1  6  0  0  0
 12  4  1  0  0  0  0
 14 13  1  6  0  0  0
 14  8  1  0  0  0  0
 15 16  1  0  0  0  0
 16  5  1  0  0  0  0
 17 19  1  0  0  0  0
 19 18  1  0  0  0  0
 20 26  1  6  0  0  0
 21 20  1  0  0  0  0
 21 22  1  0  0  0  0
 23 22  1  0  0  0  0
 24 21  1  0  0  0  0
 25 24  1  0  0  0  0
 27 26  1  0  0  0  0
 28 27  1  0  0  0  0
 29 28  1  0  0  0  0
 30 28  2  0  0  0  0
M  END
>  <MODEL>
1

>  <REMARK>
 VINA RESULT:      -5.9      0.000      0.000
  Name = 
  9 active torsions:
  status: ('A' for Active; 'I' for Inactive)
    1  A    between atoms: C_1  and  C_22
    2  A    between atoms: C_2  and  C_14
    3  A    between atoms: C_3  and  C_19
    4  A    between atoms: C_7  and  O_16
    5  A    between atoms: C_14  and  C_20
    6  A    between atoms: C_14  and  C_22
    7  A    between atoms: O_16  and  C_26
    8  A    between atoms: C_19  and  O_29
    9  A    between atoms: C_22  and  O_29
                            x       y       z     vdW  Elec       q    Type
                         _______ _______ _______ _____ _____    ______ ____

>  <TORSDO>
F 9

$$$$
=
 OpenBabel11052421463D

 30 33  0  0  1  0  0  0  0  0999 V2000
  161.6110  205.8980  150.7660 C   0  0  2  0  0  3  0  0  0  0  0  0
  161.1630  205.9400  149.2680 C   0  0  1  0  0  0  0  0  0  0  0  0
  161.9430  204.5060  151.3120 C   0  0  0  0  0  2  0  0  0  0  0  0
  160.6850  201.8650  148.5590 S   0  0  0  0  0  0  0  0  0  0  0  0
  161.2520  205.8360  146.4090 C   0  0  2  0  0  3  0  0  0  0  0  0
  161.4480  203.3730  149.2100 C   0  0  2  0  0  3  0  0  0  0  0  0
  161.3000  202.0820  151.2200 C   0  0  0  0  0  2  0  0  0  0  0  0
  161.6680  207.1800  147.0240 C   0  0  0  0  0  2  0  0  0  0  0  0
  161.0650  203.4600  150.6570 C   0  0  1  0  0  3  0  0  0  0  0  0
  161.0280  204.6250  148.4360 C   0  0  2  0  0  3  0  0  0  0  0  0
  159.3610  200.7510  150.6110 N   0  0  0  0  0  1  0  0  0  0  0  0
  160.7160  201.0960  150.2190 C   0  0  1  0  0  3  0  0  0  0  0  0
  160.0580  206.9350  148.9330 C   0  0  0  0  0  2  0  0  0  0  0  0
  161.4910  207.2570  148.5500 C   0  0  1  0  0  3  0  0  0  0  0  0
  163.0720  204.8280  147.4060 O   0  0  0  0  0  1  0  0  0  0  0  0
  161.7430  204.6750  147.1550 N   0  0  0  0  0  0  0  0  0  0  0  0
  161.4730  205.7290  145.0170 O   0  0  0  0  0  0  0  0  0  0  0  0
  160.0010  204.1100  144.3670 O   0  0  0  0  0  1  0  0  0  0  0  0
  161.3420  204.3880  144.6290 C   0  0  0  0  0  2  0  0  0  0  0  0
  160.8240  206.7440  151.7890 C   0  0  2  0  0  3  0  0  0  0  0  0
  161.4610  208.1200  152.0790 C   0  0  0  0  0  3  0  0  0  0  0  0
  160.4160  209.2270  152.1980 C   0  0  0  0  0  2  0  0  0  0  0  0
  160.6940  210.0870  153.4160 C   0  0  0  0  0  1  0  0  0  0  0  0
  162.5290  208.4910  151.0460 C   0  0  0  0  0  2  0  0  0  0  0  0
  162.2930  209.8650  150.4360 C   0  0  0  0  0  1  0  0  0  0  0  0
  160.6410  206.0090  152.9670 O   0  0  0  0  0  0  0  0  0  0  0  0
  161.6070  206.4950  153.8490 C   0  0  0  0  0  2  0  0  0  0  0  0
  160.9420  207.0280  155.0670 C   0  0  0  0  0  0  0  0  0  0  0  0
  161.6660  207.7860  155.9780 O   0  0  0  0  0  1  0  0  0  0  0  0
  159.7150  206.8200  155.2570 O   0  0  0  0  0  0  0  0  0  0  0  0
  1  3  1  0  0  0  0
  1 20  1  1  0  0  0
  2 13  1  1  0  0  0
  2  1  1  0  0  0  0
  4 12  1  0  0  0  0
  5 17  1  6  0  0  0
  5  8  1  0  0  0  0
  5 16  1  0  0  0  0
  6  4  1  6  0  0  0
  6  9  1  0  0  0  0
  9  7  1  1  0  0  0
  9  3  1  0  0  0  0
 10 16  1  6  0  0  0
 10  6  1  0  0  0  0
 10  2  1  0  0  0  0
 12 11  1  1  0  0  0
 12  7  1  0  0  0  0
 14  8  1  6  0  0  0
 14 13  1  0  0  0  0
 14  2  1  0  0  0  0
 16 15  1  0  0  0  0
 18 19  1  0  0  0  0
 19 17  1  0  0  0  0
 20 21  1  1  0  0  0
 20 26  1  0  0  0  0
 21 22  1  0  0  0  0
 22 23  1  0  0  0  0
 24 21  1  0  0  0  0
 25 24  1  0  0  0  0
 26 27  1  0  0  0  0
 27 28  1  0  0  0  0
 28 30  2  0  0  0  0
 28 29  1  0  0  0  0
M  END
>  <MODEL>
2

>  <REMARK>
 VINA RESULT:      -5.2      2.784      7.755
  Name = 
  9 active torsions:
  status: ('A' for Active; 'I' for Inactive)
    1  A    between atoms: C_1  and  C_22
    2  A    between atoms: C_2  and  C_14
    3  A    between atoms: C_3  and  C_19
    4  A    between atoms: C_7  and  O_16
    5  A    between atoms: C_14  and  C_20
    6  A    between atoms: C_14  and  C_22
    7  A    between atoms: O_16  and  C_26
    8  A    between atoms: C_19  and  O_29
    9  A    between atoms: C_22  and  O_29
                            x       y       z     vdW  Elec       q    Type
                         _______ _______ _______ _____ _____    ______ ____

>  <TORSDO>
F 9

$$$$
=
 OpenBabel11052421463D

 30 33  0  0  1  0  0  0  0  0999 V2000
  161.2570  207.7700  150.1370 C   0  0  2  0  0  3  0  0  0  0  0  0
  161.6480  206.3760  150.7300 C   0  0  1  0  0  0  0  0  0  0  0  0
  160.7830  207.7530  148.6810 C   0  0  0  0  0  2  0  0  0  0  0  0
  161.6080  204.0920  147.2480 S   0  0  0  0  0  0  0  0  0  0  0  0
  161.4370  203.7220  151.7810 C   0  0  2  0  0  3  0  0  0  0  0  0
  161.0570  205.3420  148.4370 C   0  0  2  0  0  3  0  0  0  0  0  0
  161.1280  206.6670  146.4450 C   0  0  0  0  0  2  0  0  0  0  0  0
  161.2080  204.8470  152.8020 C   0  0  0  0  0  2  0  0  0  0  0  0
  161.5030  206.6710  147.9040 C   0  0  1  0  0  3  0  0  0  0  0  0
  161.5930  205.0880  149.8480 C   0  0  2  0  0  3  0  0  0  0  0  0
  162.8690  205.4280  145.2900 N   0  0  0  0  0  1  0  0  0  0  0  0
  161.5510  205.3160  145.8890 C   0  0  1  0  0  3  0  0  0  0  0  0
  162.8500  206.3660  151.6670 C   0  0  0  0  0  2  0  0  0  0  0  0
  161.4520  206.2600  152.2480 C   0  0  1  0  0  3  0  0  0  0  0  0
  159.5490  204.3930  150.6360 O   0  0  0  0  0  1  0  0  0  0  0  0
  160.8390  203.9930  150.4700 N   0  0  0  0  0  0  0  0  0  0  0  0
  161.1500  202.4230  152.2580 O   0  0  0  0  0  0  0  0  0  0  0  0
  160.4230  201.1300  150.5230 O   0  0  0  0  0  1  0  0  0  0  0  0
  161.5310  201.4810  151.2920 C   0  0  0  0  0  2  0  0  0  0  0  0
  162.1790  208.9740  150.4280 C   0  0  2  0  0  3  0  0  0  0  0  0
  161.6760  209.8780  151.5730 C   0  0  0  0  0  3  0  0  0  0  0  0
  162.7020  210.0130  152.6960 C   0  0  0  0  0  2  0  0  0  0  0  0
  162.0110  210.3320  154.0070 C   0  0  0  0  0  1  0  0  0  0  0  0
  160.3250  209.4150  152.1240 C   0  0  0  0  0  2  0  0  0  0  0  0
  159.4350  210.5800  152.5300 C   0  0  0  0  0  1  0  0  0  0  0  0
  162.3830  209.7050  149.2520 O   0  0  0  0  0  0  0  0  0  0  0  0
  162.0550  211.0200  149.5830 C   0  0  0  0  0  2  0  0  0  0  0  0
  162.1010  211.8650  148.3610 C   0  0  0  0  0  0  0  0  0  0  0  0
  163.2580  212.5620  148.0410 O   0  0  0  0  0  1  0  0  0  0  0  0
  161.1010  211.9230  147.5980 O   0  0  0  0  0  0  0  0  0  0  0  0
  1 20  1  6  0  0  0
  1  2  1  0  0  0  0
  2 13  1  6  0  0  0
  2 14  1  0  0  0  0
  3  1  1  0  0  0  0
  5 17  1  1  0  0  0
  5  8  1  0  0  0  0
  6  4  1  6  0  0  0
  6 10  1  0  0  0  0
  9  7  1  6  0  0  0
  9  6  1  0  0  0  0
  9  3  1  0  0  0  0
 10 16  1  1  0  0  0
 10  2  1  0  0  0  0
 12 11  1  1  0  0  0
 12  7  1  0  0  0  0
 12  4  1  0  0  0  0
 14 13  1  1  0  0  0
 14  8  1  0  0  0  0
 16 15  1  0  0  0  0
 16  5  1  0  0  0  0
 18 19  1  0  0  0  0
 19 17  1  0  0  0  0
 20 26  1  6  0  0  0
 20 21  1  0  0  0  0
 21 24  1  0  0  0  0
 21 22  1  0  0  0  0
 22 23  1  0  0  0  0
 24 25  1  0  0  0  0
 26 27  1  0  0  0  0
 28 27  1  0  0  0  0
 29 28  1  0  0  0  0
 30 28  2  0  0  0  0
M  END
>  <MODEL>
3

>  <REMARK>
 VINA RESULT:      -5.1      3.471      6.080
  Name = 
  9 active torsions:
  status: ('A' for Active; 'I' for Inactive)
    1  A    between atoms: C_1  and  C_22
    2  A    between atoms: C_2  and  C_14
    3  A    between atoms: C_3  and  C_19
    4  A    between atoms: C_7  and  O_16
    5  A    between atoms: C_14  and  C_20
    6  A    between atoms: C_14  and  C_22
    7  A    between atoms: O_16  and  C_26
    8  A    between atoms: C_19  and  O_29
    9  A    between atoms: C_22  and  O_29
                            x       y       z     vdW  Elec       q    Type
                         _______ _______ _______ _____ _____    ______ ____

>  <TORSDO>
F 9

$$$$
=
 OpenBabel11052421463D

 30 33  0  0  1  0  0  0  0  0999 V2000
  159.8590  211.3780  154.0270 C   0  0  2  0  0  3  0  0  0  0  0  0
  158.5210  211.7000  154.7690 C   0  0  1  0  0  0  0  0  0  0  0  0
  160.1330  212.2160  152.7740 C   0  0  0  0  0  2  0  0  0  0  0  0
  156.7320  214.1870  151.9480 S   0  0  0  0  0  0  0  0  0  0  0  0
  156.5580  213.0540  156.3520 C   0  0  2  0  0  3  0  0  0  0  0  0
  158.0610  213.4880  152.9600 C   0  0  2  0  0  3  0  0  0  0  0  0
  159.0580  213.3150  150.7910 C   0  0  0  0  0  2  0  0  0  0  0  0
  157.5890  212.2410  157.1490 C   0  0  0  0  0  2  0  0  0  0  0  0
  158.8340  212.5570  152.0750 C   0  0  1  0  0  3  0  0  0  0  0  0
  157.5350  212.7750  154.2090 C   0  0  2  0  0  3  0  0  0  0  0  0
  157.0070  213.1080  149.5050 N   0  0  0  0  0  1  0  0  0  0  0  0
  157.7290  213.9630  150.4300 C   0  0  1  0  0  3  0  0  0  0  0  0
  157.7780  210.5030  155.3500 C   0  0  0  0  0  2  0  0  0  0  0  0
  158.5540  211.4200  156.2780 C   0  0  1  0  0  3  0  0  0  0  0  0
  158.2430  214.4490  155.6160 O   0  0  0  0  0  1  0  0  0  0  0  0
  157.1350  213.7700  155.2110 N   0  0  0  0  0  0  0  0  0  0  0  0
  155.7100  213.8660  157.1390 O   0  0  0  0  0  0  0  0  0  0  0  0
  153.5040  214.4530  157.0970 O   0  0  0  0  0  1  0  0  0  0  0  0
  154.6710  214.3620  156.3390 C   0  0  0  0  0  2  0  0  0  0  0  0
  160.2450  209.8960  153.8230 C   0  0  2  0  0  3  0  0  0  0  0  0
  161.5450  209.4880  154.5470 C   0  0  0  0  0  3  0  0  0  0  0  0
  161.3410  208.2890  155.4700 C   0  0  0  0  0  2  0  0  0  0  0  0
  159.8830  207.8740  155.4830 C   0  0  0  0  0  1  0  0  0  0  0  0
  162.1740  210.6580  155.3090 C   0  0  0  0  0  2  0  0  0  0  0  0
  162.5670  210.2800  156.7300 C   0  0  0  0  0  1  0  0  0  0  0  0
  160.3110  209.6120  152.4540 O   0  0  0  0  0  0  0  0  0  0  0  0
  161.4800  208.8660  152.2970 C   0  0  0  0  0  2  0  0  0  0  0  0
  161.1550  207.5620  151.6630 C   0  0  0  0  0  0  0  0  0  0  0  0
  160.9280  207.4920  150.2950 O   0  0  0  0  0  0  0  0  0  0  0  0
  161.1180  206.5150  152.3600 O   0  0  0  0  0  1  0  0  0  0  0  0
  1 20  1  6  0  0  0
  1  2  1  0  0  0  0
  2 13  1  6  0  0  0
  2 14  1  0  0  0  0
  3  1  1  0  0  0  0
  5 17  1  1  0  0  0
  5  8  1  0  0  0  0
  6  4  1  6  0  0  0
  6 10  1  0  0  0  0
  9  7  1  6  0  0  0
  9  3  1  0  0  0  0
  9  6  1  0  0  0  0
 10  2  1  0  0  0  0
 10 16  1  1  0  0  0
 12 11  1  6  0  0  0
 12  7  1  0  0  0  0
 12  4  1  0  0  0  0
 14 13  1  6  0  0  0
 14  8  1  0  0  0  0
 16 15  1  0  0  0  0
 16  5  1  0  0  0  0
 19 18  1  0  0  0  0
 19 17  1  0  0  0  0
 20 26  1  6  0  0  0
 20 21  1  0  0  0  0
 21 24  1  0  0  0  0
 21 22  1  0  0  0  0
 22 23  1  0  0  0  0
 24 25  1  0  0  0  0
 27 26  1  0  0  0  0
 28 27  1  0  0  0  0
 28 30  1  0  0  0  0
 29 28  2  0  0  0  0
M  END
>  <MODEL>
4

>  <REMARK>
 VINA RESULT:      -5.0      5.253      8.343
  Name = 
  9 active torsions:
  status: ('A' for Active; 'I' for Inactive)
    1  A    between atoms: C_1  and  C_22
    2  A    between atoms: C_2  and  C_14
    3  A    between atoms: C_3  and  C_19
    4  A    between atoms: C_7  and  O_16
    5  A    between atoms: C_14  and  C_20
    6  A    between atoms: C_14  and  C_22
    7  A    between atoms: O_16  and  C_26
    8  A    between atoms: C_19  and  O_29
    9  A    between atoms: C_22  and  O_29
                            x       y       z     vdW  Elec       q    Type
                         _______ _______ _______ _____ _____    ______ ____

>  <TORSDO>
F 9

$$$$
=
 OpenBabel11052421463D

 30 33  0  0  1  0  0  0  0  0999 V2000
  160.6400  208.5770  153.1300 C   0  0  2  0  0  3  0  0  0  0  0  0
  161.2890  207.3360  152.4330 C   0  0  1  0  0  0  0  0  0  0  0  0
  160.3610  209.7720  152.2130 C   0  0  0  0  0  2  0  0  0  0  0  0
  162.2260  209.0100  148.7380 S   0  0  0  0  0  0  0  0  0  0  0  0
  161.6140  205.0030  150.8070 C   0  0  2  0  0  3  0  0  0  0  0  0
  161.2470  208.6740  150.2230 C   0  0  2  0  0  3  0  0  0  0  0  0
  161.2260  211.0680  150.2460 C   0  0  0  0  0  2  0  0  0  0  0  0
  160.9960  204.7510  152.1900 C   0  0  0  0  0  2  0  0  0  0  0  0
  161.4130  209.8600  151.1270 C   0  0  1  0  0  3  0  0  0  0  0  0
  161.6580  207.3720  150.9160 C   0  0  2  0  0  3  0  0  0  0  0  0
  163.3440  211.4240  149.1080 N   0  0  0  0  0  1  0  0  0  0  0  0
  162.0320  210.8140  148.9800 C   0  0  1  0  0  3  0  0  0  0  0  0
  162.3360  206.5880  153.2500 C   0  0  0  0  0  2  0  0  0  0  0  0
  160.9480  205.9930  153.0950 C   0  0  1  0  0  3  0  0  0  0  0  0
  159.7690  206.2610  150.2240 O   0  0  0  0  0  1  0  0  0  0  0  0
  161.1280  206.2280  150.1650 N   0  0  0  0  0  0  0  0  0  0  0  0
  161.6010  203.8860  149.9410 O   0  0  0  0  0  0  0  0  0  0  0  0
  160.1630  202.1680  149.5020 O   0  0  0  0  0  1  0  0  0  0  0  0
  160.8220  202.8690  150.5110 C   0  0  0  0  0  2  0  0  0  0  0  0
  161.1960  209.0210  154.5000 C   0  0  2  0  0  3  0  0  0  0  0  0
  160.1930  208.8550  155.6600 C   0  0  0  0  0  3  0  0  0  0  0  0
  159.8700  207.3890  155.9400 C   0  0  0  0  0  2  0  0  0  0  0  0
  160.4800  206.9570  157.2590 C   0  0  0  0  0  1  0  0  0  0  0  0
  158.9090  209.6600  155.4340 C   0  0  0  0  0  2  0  0  0  0  0  0
  158.8160  210.8720  156.3490 C   0  0  0  0  0  1  0  0  0  0  0  0
  161.6630  210.3380  154.4130 O   0  0  0  0  0  0  0  0  0  0  0  0
  162.9420  210.3050  154.9710 C   0  0  0  0  0  2  0  0  0  0  0  0
  162.9160  210.9490  156.3100 C   0  0  0  0  0  0  0  0  0  0  0  0
  161.8640  211.7860  156.6590 O   0  0  0  0  0  0  0  0  0  0  0  0
  163.8310  210.7100  157.1410 O   0  0  0  0  0  1  0  0  0  0  0  0
  1 20  1  1  0  0  0
  2 14  1  0  0  0  0
  2  1  1  0  0  0  0
  2 13  1  1  0  0  0
  3  1  1  0  0  0  0
  4 12  1  0  0  0  0
  5 17  1  6  0  0  0
  5  8  1  0  0  0  0
  6  4  1  6  0  0  0
  6 10  1  0  0  0  0
  6  9  1  0  0  0  0
  9  7  1  6  0  0  0
  9  3  1  0  0  0  0
 10 16  1  6  0  0  0
 10  2  1  0  0  0  0
 12 11  1  1  0  0  0
 12  7  1  0  0  0  0
 14  8  1  6  0  0  0
 14 13  1  0  0  0  0
 16 15  1  0  0  0  0
 16  5  1  0  0  0  0
 17 19  1  0  0  0  0
 18 19  1  0  0  0  0
 20 26  1  6  0  0  0
 20 21  1  0  0  0  0
 21 22  1  0  0  0  0
 22 23  1  0  0  0  0
 24 21  1  0  0  0  0
 24 25  1  0  0  0  0
 26 27  1  0  0  0  0
 27 28  1  0  0  0  0
 28 29  2  0  0  0  0
 28 30  1  0  0  0  0
M  END
>  <MODEL>
5

>  <REMARK>
 VINA RESULT:      -4.1      3.450      7.638
  Name = 
  9 active torsions:
  status: ('A' for Active; 'I' for Inactive)
    1  A    between atoms: C_1  and  C_22
    2  A    between atoms: C_2  and  C_14
    3  A    between atoms: C_3  and  C_19
    4  A    between atoms: C_7  and  O_16
    5  A    between atoms: C_14  and  C_20
    6  A    between atoms: C_14  and  C_22
    7  A    between atoms: O_16  and  C_26
    8  A    between atoms: C_19  and  O_29
    9  A    between atoms: C_22  and  O_29
                            x       y       z     vdW  Elec       q    Type
                         _______ _______ _______ _____ _____    ______ ____

>  <TORSDO>
F 9

$$$$
=
 OpenBabel11052421463D

 30 33  0  0  1  0  0  0  0  0999 V2000
  162.0850  207.7630  149.8370 C   0  0  2  0  0  3  0  0  0  0  0  0
  161.3740  208.2920  151.1250 C   0  0  1  0  0  0  0  0  0  0  0  0
  162.6540  208.8430  148.9120 C   0  0  0  0  0  2  0  0  0  0  0  0
  161.2060  212.3530  150.2220 S   0  0  0  0  0  0  0  0  0  0  0  0
  160.9590  209.4440  153.7130 C   0  0  2  0  0  3  0  0  0  0  0  0
  161.9110  210.6890  150.3230 C   0  0  2  0  0  3  0  0  0  0  0  0
  162.2610  211.1480  148.0000 C   0  0  0  0  0  2  0  0  0  0  0  0
  161.3360  207.9550  153.7160 C   0  0  0  0  0  2  0  0  0  0  0  0
  161.7870  210.0850  148.9560 C   0  0  1  0  0  3  0  0  0  0  0  0
  161.2300  209.8250  151.3880 C   0  0  2  0  0  3  0  0  0  0  0  0
  160.3940  212.6700  147.6820 N   0  0  0  0  0  1  0  0  0  0  0  0
  161.6130  212.4520  148.4410 C   0  0  1  0  0  3  0  0  0  0  0  0
  160.1290  207.5270  151.5590 C   0  0  0  0  0  2  0  0  0  0  0  0
  161.4290  207.3250  152.3170 C   0  0  1  0  0  3  0  0  0  0  0  0
  163.0240  209.9540  152.8190 O   0  0  0  0  0  1  0  0  0  0  0  0
  161.6950  210.2300  152.7200 N   0  0  0  0  0  0  0  0  0  0  0  0
  160.9370  210.0510  154.9890 O   0  0  0  0  0  0  0  0  0  0  0  0
  162.6420  209.8960  156.4990 O   0  0  0  0  0  1  0  0  0  0  0  0
  161.5800  209.2120  155.9110 C   0  0  0  0  0  2  0  0  0  0  0  0
  161.4100  206.6230  149.0440 C   0  0  2  0  0  3  0  0  0  0  0  0
  161.7900  205.2120  149.5400 C   0  0  0  0  0  3  0  0  0  0  0  0
  162.2100  204.2910  148.3970 C   0  0  0  0  0  2  0  0  0  0  0  0
  161.2050  203.1690  148.2260 C   0  0  0  0  0  1  0  0  0  0  0  0
  160.6740  204.5720  150.3700 C   0  0  0  0  0  2  0  0  0  0  0  0
  161.1980  203.9260  151.6450 C   0  0  0  0  0  1  0  0  0  0  0  0
  161.6830  206.7750  147.6790 O   0  0  0  0  0  0  0  0  0  0  0  0
  160.4570  206.5770  147.0420 C   0  0  0  0  0  2  0  0  0  0  0  0
  160.6900  206.0680  145.6650 C   0  0  0  0  0  0  0  0  0  0  0  0
  161.9840  205.8290  145.2220 O   0  0  0  0  0  1  0  0  0  0  0  0
  159.7120  205.8240  144.9110 O   0  0  0  0  0  0  0  0  0  0  0  0
  1 20  1  6  0  0  0
  1  2  1  0  0  0  0
  2 10  1  0  0  0  0
  2 13  1  6  0  0  0
  2 14  1  0  0  0  0
  3  9  1  0  0  0  0
  3  1  1  0  0  0  0
  5  8  1  0  0  0  0
  5 17  1  1  0  0  0
  6  4  1  6  0  0  0
  6 10  1  0  0  0  0
  7 12  1  0  0  0  0
  9  7  1  6  0  0  0
  9  6  1  0  0  0  0
 10 16  1  1  0  0  0
 12 11  1  6  0  0  0
 12  4  1  0  0  0  0
 14 13  1  6  0  0  0
 14  8  1  0  0  0  0
 16 15  1  0  0  0  0
 16  5  1  0  0  0  0
 17 19  1  0  0  0  0
 19 18  1  0  0  0  0
 20 26  1  6  0  0  0
 20 21  1  0  0  0  0
 21 24  1  0  0  0  0
 22 21  1  0  0  0  0
 23 22  1  0  0  0  0
 24 25  1  0  0  0  0
 27 26  1  0  0  0  0
 28 27  1  0  0  0  0
 29 28  1  0  0  0  0
 30 28  2  0  0  0  0
M  END
>  <MODEL>
6

>  <REMARK>
 VINA RESULT:      -4.0      1.871      2.827
  Name = 
  9 active torsions:
  status: ('A' for Active; 'I' for Inactive)
    1  A    between atoms: C_1  and  C_22
    2  A    between atoms: C_2  and  C_14
    3  A    between atoms: C_3  and  C_19
    4  A    between atoms: C_7  and  O_16
    5  A    between atoms: C_14  and  C_20
    6  A    between atoms: C_14  and  C_22
    7  A    between atoms: O_16  and  C_26
    8  A    between atoms: C_19  and  O_29
    9  A    between atoms: C_22  and  O_29
                            x       y       z     vdW  Elec       q    Type
                         _______ _______ _______ _____ _____    ______ ____

>  <TORSDO>
F 9

$$$$
=
 OpenBabel11052421463D

 30 33  0  0  1  0  0  0  0  0999 V2000
  161.9520  209.2030  151.8580 C   0  0  2  0  0  3  0  0  0  0  0  0
  161.2970  207.7840  151.9290 C   0  0  1  0  0  0  0  0  0  0  0  0
  162.2180  209.8700  153.2110 C   0  0  0  0  0  2  0  0  0  0  0  0
  160.3150  207.6610  155.9740 S   0  0  0  0  0  0  0  0  0  0  0  0
  160.9580  204.9740  152.3580 C   0  0  2  0  0  3  0  0  0  0  0  0
  161.3120  208.0110  154.5030 C   0  0  2  0  0  3  0  0  0  0  0  0
  161.3290  210.1690  155.5380 C   0  0  0  0  0  2  0  0  0  0  0  0
  161.5920  205.3560  151.0120 C   0  0  0  0  0  2  0  0  0  0  0  0
  161.1540  209.4740  154.2130 C   0  0  1  0  0  3  0  0  0  0  0  0
  160.9110  207.1490  153.3030 C   0  0  2  0  0  3  0  0  0  0  0  0
  159.1980  209.9950  156.6930 N   0  0  0  0  0  1  0  0  0  0  0  0
  160.5090  209.3860  156.5540 C   0  0  1  0  0  3  0  0  0  0  0  0
  160.2610  207.4760  150.8560 C   0  0  0  0  0  2  0  0  0  0  0  0
  161.6480  206.8690  150.7470 C   0  0  1  0  0  3  0  0  0  0  0  0
  162.7940  205.8400  153.4560 O   0  0  0  0  0  1  0  0  0  0  0  0
  161.4340  205.7890  153.4790 N   0  0  0  0  0  0  0  0  0  0  0  0
  160.9630  203.5900  152.6420 O   0  0  0  0  0  0  0  0  0  0  0  0
  160.7320  202.0840  150.9430 O   0  0  0  0  0  1  0  0  0  0  0  0
  161.6320  202.9090  151.6150 C   0  0  0  0  0  2  0  0  0  0  0  0
  161.4100  210.2070  150.8180 C   0  0  2  0  0  3  0  0  0  0  0  0
  162.2750  210.3080  149.5440 C   0  0  0  0  0  3  0  0  0  0  0  0
  162.3850  211.7430  149.0330 C   0  0  0  0  0  2  0  0  0  0  0  0
  161.4070  211.9760  147.8980 C   0  0  0  0  0  1  0  0  0  0  0  0
  161.7830  209.3730  148.4360 C   0  0  0  0  0  2  0  0  0  0  0  0
  162.7010  208.1760  148.2370 C   0  0  0  0  0  1  0  0  0  0  0  0
  161.2390  211.4600  151.4190 O   0  0  0  0  0  0  0  0  0  0  0  0
  159.8750  211.5400  151.7040 C   0  0  0  0  0  2  0  0  0  0  0  0
  159.3840  212.9090  151.3990 C   0  0  0  0  0  0  0  0  0  0  0  0
  160.2450  213.8500  150.8510 O   0  0  0  0  0  0  0  0  0  0  0  0
  158.1780  213.2060  151.6070 O   0  0  0  0  0  1  0  0  0  0  0  0
  1 20  1  6  0  0  0
  1  2  1  0  0  0  0
  1  3  1  0  0  0  0
  2 13  1  6  0  0  0
  2 10  1  0  0  0  0
  4 12  1  0  0  0  0
  5 17  1  1  0  0  0
  5 16  1  0  0  0  0
  6  4  1  1  0  0  0
  7 12  1  0  0  0  0
  8  5  1  0  0  0  0
  9  3  1  6  0  0  0
  9  6  1  0  0  0  0
  9  7  1  0  0  0  0
 10 16  1  1  0  0  0
 10  6  1  0  0  0  0
 12 11  1  6  0  0  0
 14 13  1  6  0  0  0
 14  8  1  0  0  0  0
 14  2  1  0  0  0  0
 15 16  1  0  0  0  0
 18 19  1  0  0  0  0
 19 17  1  0  0  0  0
 20 21  1  6  0  0  0
 20 26  1  0  0  0  0
 22 21  1  0  0  0  0
 23 22  1  0  0  0  0
 24 21  1  0  0  0  0
 25 24  1  0  0  0  0
 26 27  1  0  0  0  0
 28 30  1  0  0  0  0
 28 27  1  0  0  0  0
 29 28  2  0  0  0  0
M  END
>  <MODEL>
7

>  <REMARK>
 VINA RESULT:      -3.7      3.831      6.368
  Name = 
  9 active torsions:
  status: ('A' for Active; 'I' for Inactive)
    1  A    between atoms: C_1  and  C_22
    2  A    between atoms: C_2  and  C_14
    3  A    between atoms: C_3  and  C_19
    4  A    between atoms: C_7  and  O_16
    5  A    between atoms: C_14  and  C_20
    6  A    between atoms: C_14  and  C_22
    7  A    between atoms: O_16  and  C_26
    8  A    between atoms: C_19  and  O_29
    9  A    between atoms: C_22  and  O_29
                            x       y       z     vdW  Elec       q    Type
                         _______ _______ _______ _____ _____    ______ ____

>  <TORSDO>
F 9

$$$$
=
 OpenBabel11052421463D

 30 33  0  0  1  0  0  0  0  0999 V2000
  160.2710  209.9120  152.0680 C   0  0  2  0  0  3  0  0  0  0  0  0
  161.0520  210.9620  151.2120 C   0  0  1  0  0  0  0  0  0  0  0  0
  159.0370  210.4490  152.7980 C   0  0  0  0  0  2  0  0  0  0  0  0
  159.1720  214.4520  152.4880 S   0  0  0  0  0  0  0  0  0  0  0  0
  161.7230  212.7840  149.1080 C   0  0  2  0  0  3  0  0  0  0  0  0
  159.3190  212.7240  151.9660 C   0  0  2  0  0  3  0  0  0  0  0  0
  158.0960  212.4390  154.0040 C   0  0  0  0  0  2  0  0  0  0  0  0
  162.0420  211.3090  148.8190 C   0  0  0  0  0  2  0  0  0  0  0  0
  159.2540  211.8900  153.2100 C   0  0  1  0  0  3  0  0  0  0  0  0
  160.6000  212.4570  151.1710 C   0  0  2  0  0  3  0  0  0  0  0  0
  158.9270  214.4070  155.1610 N   0  0  0  0  0  1  0  0  0  0  0  0
  158.2250  213.9550  153.9730 C   0  0  1  0  0  3  0  0  0  0  0  0
  162.5700  210.8330  151.2240 C   0  0  0  0  0  2  0  0  0  0  0  0
  161.7940  210.3660  150.0070 C   0  0  1  0  0  3  0  0  0  0  0  0
  159.4740  212.2730  149.1760 O   0  0  0  0  0  1  0  0  0  0  0  0
  160.4510  212.9790  149.8080 N   0  0  0  0  0  0  0  0  0  0  0  0
  161.8820  213.6510  148.0030 O   0  0  0  0  0  0  0  0  0  0  0  0
  161.8530  213.1200  145.7830 O   0  0  0  0  0  1  0  0  0  0  0  0
  162.5580  212.9740  146.9780 C   0  0  0  0  0  2  0  0  0  0  0  0
  161.0830  208.9380  152.9490 C   0  0  2  0  0  3  0  0  0  0  0  0
  161.0210  207.4710  152.4720 C   0  0  0  0  0  3  0  0  0  0  0  0
  161.1540  206.4820  153.6280 C   0  0  0  0  0  2  0  0  0  0  0  0
  161.2040  205.0600  153.1030 C   0  0  0  0  0  1  0  0  0  0  0  0
  162.0550  207.1750  151.3820 C   0  0  0  0  0  2  0  0  0  0  0  0
  161.4080  206.8290  150.0490 C   0  0  0  0  0  1  0  0  0  0  0  0
  160.6730  209.0580  154.2830 O   0  0  0  0  0  0  0  0  0  0  0  0
  161.6480  209.8520  154.8890 C   0  0  0  0  0  2  0  0  0  0  0  0
  161.9600  209.3100  156.2370 C   0  0  0  0  0  0  0  0  0  0  0  0
  162.8220  210.0000  157.0810 O   0  0  0  0  0  1  0  0  0  0  0  0
  161.4190  208.2430  156.6280 O   0  0  0  0  0  0  0  0  0  0  0  0
  1  3  1  0  0  0  0
  1 20  1  1  0  0  0
  2 13  1  1  0  0  0
  2  1  1  0  0  0  0
  4 12  1  0  0  0  0
  5 17  1  6  0  0  0
  5 16  1  0  0  0  0
  6  4  1  1  0  0  0
  6  9  1  0  0  0  0
  8  5  1  0  0  0  0
  9  3  1  6  0  0  0
  9  7  1  0  0  0  0
 10 16  1  6  0  0  0
 10  2  1  0  0  0  0
 10  6  1  0  0  0  0
 12  7  1  0  0  0  0
 12 11  1  1  0  0  0
 14  8  1  6  0  0  0
 14  2  1  0  0  0  0
 14 13  1  0  0  0  0
 15 16  1  0  0  0  0
 18 19  1  0  0  0  0
 19 17  1  0  0  0  0
 20 21  1  6  0  0  0
 20 26  1  0  0  0  0
 21 22  1  0  0  0  0
 23 22  1  0  0  0  0
 24 21  1  0  0  0  0
 25 24  1  0  0  0  0
 26 27  1  0  0  0  0
 27 28  1  0  0  0  0
 28 30  2  0  0  0  0
 28 29  1  0  0  0  0
M  END
>  <MODEL>
8

>  <REMARK>
 VINA RESULT:      -3.6      4.114      8.015
  Name = 
  9 active torsions:
  status: ('A' for Active; 'I' for Inactive)
    1  A    between atoms: C_1  and  C_22
    2  A    between atoms: C_2  and  C_14
    3  A    between atoms: C_3  and  C_19
    4  A    between atoms: C_7  and  O_16
    5  A    between atoms: C_14  and  C_20
    6  A    between atoms: C_14  and  C_22
    7  A    between atoms: O_16  and  C_26
    8  A    between atoms: C_19  and  O_29
    9  A    between atoms: C_22  and  O_29
                            x       y       z     vdW  Elec       q    Type
                         _______ _______ _______ _____ _____    ______ ____

>  <TORSDO>
F 9

$$$$
=
 OpenBabel11052421463D

 30 33  0  0  1  0  0  0  0  0999 V2000
  160.6500  204.2670  149.3340 C   0  0  2  0  0  3  0  0  0  0  0  0
  161.5200  204.6000  148.0790 C   0  0  1  0  0  0  0  0  0  0  0  0
  160.1330  205.4790  150.1150 C   0  0  0  0  0  2  0  0  0  0  0  0
  162.0700  208.6860  148.6660 S   0  0  0  0  0  0  0  0  0  0  0  0
  162.2740  205.4660  145.4560 C   0  0  2  0  0  3  0  0  0  0  0  0
  161.1920  207.1020  148.6350 C   0  0  2  0  0  3  0  0  0  0  0  0
  160.7060  207.8020  150.8720 C   0  0  0  0  0  2  0  0  0  0  0  0
  161.7330  204.0300  145.5380 C   0  0  0  0  0  2  0  0  0  0  0  0
  161.1350  206.6130  150.0510 C   0  0  1  0  0  3  0  0  0  0  0  0
  161.8570  206.0800  147.7090 C   0  0  2  0  0  3  0  0  0  0  0  0
  162.7000  209.1410  151.2360 N   0  0  0  0  0  1  0  0  0  0  0  0
  161.5310  208.9860  150.3890 C   0  0  1  0  0  3  0  0  0  0  0  0
  162.7020  203.6730  147.8240 C   0  0  0  0  0  2  0  0  0  0  0  0
  161.4550  203.5410  146.9680 C   0  0  1  0  0  3  0  0  0  0  0  0
  160.2130  206.2680  146.1140 O   0  0  0  0  0  1  0  0  0  0  0  0
  161.5520  206.4110  146.3120 N   0  0  0  0  0  0  0  0  0  0  0  0
  162.4690  205.9510  144.1430 O   0  0  0  0  0  0  0  0  0  0  0  0
  161.5520  206.0510  142.0550 O   0  0  0  0  0  1  0  0  0  0  0  0
  161.4490  205.4610  143.3140 C   0  0  0  0  0  2  0  0  0  0  0  0
  161.1250  203.1370  150.2750 C   0  0  2  0  0  3  0  0  0  0  0  0
  160.4190  201.7870  150.0290 C   0  0  0  0  0  3  0  0  0  0  0  0
  161.3820  200.7150  149.5260 C   0  0  0  0  0  2  0  0  0  0  0  0
  161.2710  200.5690  148.0210 C   0  0  0  0  0  1  0  0  0  0  0  0
  159.2200  201.9250  149.0870 C   0  0  0  0  0  2  0  0  0  0  0  0
  158.0940  200.9640  149.4380 C   0  0  0  0  0  1  0  0  0  0  0  0
  160.9930  203.5480  151.6070 O   0  0  0  0  0  0  0  0  0  0  0  0
  162.2760  203.9370  151.9930 C   0  0  0  0  0  2  0  0  0  0  0  0
  162.2040  205.2320  152.7190 C   0  0  0  0  0  0  0  0  0  0  0  0
  161.1950  205.4540  153.6470 O   0  0  0  0  0  1  0  0  0  0  0  0
  163.0780  206.1160  152.5180 O   0  0  0  0  0  0  0  0  0  0  0  0
  1  3  1  0  0  0  0
  1 20  1  1  0  0  0
  2 13  1  1  0  0  0
  2  1  1  0  0  0  0
  4 12  1  0  0  0  0
  5 17  1  6  0  0  0
  5  8  1  0  0  0  0
  5 16  1  0  0  0  0
  6  4  1  1  0  0  0
  6  9  1  0  0  0  0
  9  3  1  6  0  0  0
  9  7  1  0  0  0  0
 10 16  1  6  0  0  0
 10  2  1  0  0  0  0
 10  6  1  0  0  0  0
 12  7  1  0  0  0  0
 12 11  1  1  0  0  0
 14  8  1  6  0  0  0
 14 13  1  0  0  0  0
 14  2  1  0  0  0  0
 15 16  1  0  0  0  0
 18 19  1  0  0  0  0
 19 17  1  0  0  0  0
 20 21  1  1  0  0  0
 20 26  1  0  0  0  0
 22 21  1  0  0  0  0
 23 22  1  0  0  0  0
 24 25  1  0  0  0  0
 24 21  1  0  0  0  0
 26 27  1  0  0  0  0
 27 28  1  0  0  0  0
 28 29  1  0  0  0  0
 30 28  2  0  0  0  0
M  END
>  <MODEL>
9

>  <REMARK>
 VINA RESULT:      -3.6      2.106      6.335
  Name = 
  9 active torsions:
  status: ('A' for Active; 'I' for Inactive)
    1  A    between atoms: C_1  and  C_22
    2  A    between atoms: C_2  and  C_14
    3  A    between atoms: C_3  and  C_19
    4  A    between atoms: C_7  and  O_16
    5  A    between atoms: C_14  and  C_20
    6  A    between atoms: C_14  and  C_22
    7  A    between atoms: O_16  and  C_26
    8  A    between atoms: C_19  and  O_29
    9  A    between atoms: C_22  and  O_29
                            x       y       z     vdW  Elec       q    Type
                         _______ _______ _______ _____ _____    ______ ____

>  <TORSDO>
F 9

$$$$
