=
 OpenBabel11052422353D

 31 34  0  0  1  0  0  0  0  0999 V2000
  161.3620  206.4770  150.8050 C   0  0  1  0  0  3  0  0  0  0  0  0
  160.5880  205.1430  150.7100 C   0  0  2  0  0  3  0  0  0  0  0  0
  160.4700  202.7860  151.5840 C   0  0  0  0  0  2  0  0  0  0  0  0
  160.9440  204.2040  151.8750 C   0  0  0  0  0  2  0  0  0  0  0  0
  161.2090  205.4210  148.2380 C   0  0  0  0  0  2  0  0  0  0  0  0
  161.2110  202.1950  150.3800 C   0  0  1  0  0  3  0  0  0  0  0  0
  161.0590  207.4200  149.7080 N   0  0  0  0  0  0  0  0  0  0  0  0
  160.3400  201.1530  149.7100 C   0  0  0  0  0  1  0  0  0  0  0  0
  160.5860  206.7900  148.4660 C   0  0  0  0  0  2  0  0  0  0  0  0
  160.7420  204.4600  149.3220 C   0  0  1  0  0  3  0  0  0  0  0  0
  161.6670  203.2420  149.3560 C   0  0  0  0  0  2  0  0  0  0  0  0
  160.8460  207.2130  154.6490 C   0  0  0  0  0  0  0  0  0  0  0  0
  161.1140  207.1510  152.1220 C   0  0  0  0  0  0  0  0  0  0  0  0
  160.6400  208.6390  154.6960 C   0  0  0  0  0  3  0  0  0  0  0  0
  160.8220  206.5130  155.8070 F   0  0  0  0  0  0  0  0  0  0  0  0
  160.7490  209.8570  152.2480 O   0  0  0  0  0  0  0  0  0  0  0  0
  161.0780  206.4900  153.3980 C   0  0  0  0  0  3  0  0  0  0  0  0
  160.9240  208.4910  152.2710 C   0  0  0  0  0  0  0  0  0  0  0  0
  160.7090  209.1600  153.4360 C   0  0  0  0  0  0  0  0  0  0  0  0
  162.2880  208.1360  149.3860 C   0  0  0  0  0  2  0  0  0  0  0  0
  161.9910  209.3080  148.4650 C   0  0  0  0  0  2  0  0  0  0  0  0
  162.1510  210.6150  149.2180 C   0  0  0  0  0  2  0  0  0  0  0  0
  163.4900  212.4880  147.8260 S   0  0  0  0  0  0  0  0  0  0  0  0
  162.0900  211.7570  148.2700 C   0  0  0  0  0  0  0  0  0  0  0  0
  160.8090  212.1620  147.7640 N   0  0  0  0  0  2  0  0  0  0  0  0
  160.4470  214.1120  149.0190 O   0  0  0  0  0  0  0  0  0  0  0  0
  160.0620  213.3440  148.1010 C   0  0  0  0  0  0  0  0  0  0  0  0
  158.8820  213.6490  147.4190 O   0  0  0  0  0  0  0  0  0  0  0  0
  157.6800  212.9120  147.6040 C   0  0  0  0  0  3  0  0  0  0  0  0
  157.1350  212.4550  146.2650 C   0  0  0  0  0  1  0  0  0  0  0  0
  156.6530  213.7940  148.2810 C   0  0  0  0  0  1  0  0  0  0  0  0
  1 13  1  1  0  0  0
  2  1  1  0  0  0  0
  2  4  1  1  0  0  0
  3  4  1  0  0  0  0
  5  9  1  0  0  0  0
  6  8  1  6  0  0  0
  6  3  1  0  0  0  0
  7  1  1  0  0  0  0
  9  7  1  0  0  0  0
 10  5  1  6  0  0  0
 10 11  1  0  0  0  0
 10  2  1  0  0  0  0
 11  6  1  0  0  0  0
 12 14  1  0  0  0  0
 12 15  1  0  0  0  0
 13 18  2  0  0  0  0
 13 17  1  0  0  0  0
 16 18  1  0  0  0  0
 16 19  1  0  0  0  0
 17 12  2  0  0  0  0
 18 19  1  0  0  0  0
 19 14  2  0  0  0  0
 20  7  1  0  0  0  0
 21 22  1  0  0  0  0
 21 20  1  0  0  0  0
 23 24  2  0  0  0  0
 24 22  1  0  0  0  0
 25 27  1  0  0  0  0
 25 24  1  0  0  0  0
 27 26  2  0  0  0  0
 28 29  1  0  0  0  0
 28 27  1  0  0  0  0
 29 31  1  0  0  0  0
 30 29  1  0  0  0  0
M  END
>  <MODEL>
1

>  <REMARK>
 VINA RESULT:      -8.4      0.000      0.000
  Name = 
  8 active torsions:
  status: ('A' for Active; 'I' for Inactive)
    1  A    between atoms: C_1  and  O_24
    2  A    between atoms: N_3  and  C_22
    3  A    between atoms: C_4  and  C_12
    4  A    between atoms: C_9  and  C_22
    5  A    between atoms: C_9  and  C_23
    6  A    between atoms: C_15  and  N_21
    7  A    between atoms: C_15  and  C_23
    8  A    between atoms: C_19  and  O_24
                            x       y       z     vdW  Elec       q    Type
                         _______ _______ _______ _____ _____    ______ ____

>  <TORSDO>
F 8

$$$$
=
 OpenBabel11052422353D

 31 34  0  0  1  0  0  0  0  0999 V2000
  161.4590  206.5680  150.2520 C   0  0  1  0  0  3  0  0  0  0  0  0
  160.6670  205.2620  150.0190 C   0  0  2  0  0  3  0  0  0  0  0  0
  160.5230  202.8260  150.6370 C   0  0  0  0  0  2  0  0  0  0  0  0
  161.0170  204.1990  151.0750 C   0  0  0  0  0  2  0  0  0  0  0  0
  161.2810  205.7950  147.5870 C   0  0  0  0  0  2  0  0  0  0  0  0
  161.2510  202.3590  149.3720 C   0  0  1  0  0  3  0  0  0  0  0  0
  161.1630  207.6270  149.2640 N   0  0  0  0  0  0  0  0  0  0  0  0
  160.3630  201.4050  148.5990 C   0  0  0  0  0  1  0  0  0  0  0  0
  160.6760  207.1390  147.9640 C   0  0  0  0  0  2  0  0  0  0  0  0
  160.8060  204.7300  148.5650 C   0  0  1  0  0  3  0  0  0  0  0  0
  161.7150  203.5040  148.4630 C   0  0  0  0  0  2  0  0  0  0  0  0
  160.6070  208.8970  153.3230 C   0  0  0  0  0  0  0  0  0  0  0  0
  161.2260  207.1010  151.6350 C   0  0  0  0  0  0  0  0  0  0  0  0
  160.7590  208.0250  154.4620 C   0  0  0  0  0  3  0  0  0  0  0  0
  160.2430  210.1840  153.5320 F   0  0  0  0  0  0  0  0  0  0  0  0
  161.4770  205.4660  153.8120 O   0  0  0  0  0  0  0  0  0  0  0  0
  160.8320  208.4470  151.9490 C   0  0  0  0  0  3  0  0  0  0  0  0
  161.3300  206.3550  152.7690 C   0  0  0  0  0  0  0  0  0  0  0  0
  161.1180  206.7760  154.0450 C   0  0  0  0  0  0  0  0  0  0  0  0
  162.4000  208.3580  149.0130 C   0  0  0  0  0  2  0  0  0  0  0  0
  162.0970  209.7130  148.3950 C   0  0  0  0  0  2  0  0  0  0  0  0
  162.0920  210.7850  149.4670 C   0  0  0  0  0  2  0  0  0  0  0  0
  163.1060  212.5990  147.7590 S   0  0  0  0  0  0  0  0  0  0  0  0
  161.9690  212.1270  148.8430 C   0  0  0  0  0  0  0  0  0  0  0  0
  160.8460  212.9500  149.1970 N   0  0  0  0  0  2  0  0  0  0  0  0
  159.5650  212.7920  147.2360 O   0  0  0  0  0  0  0  0  0  0  0  0
  159.6630  213.2060  148.4200 C   0  0  0  0  0  0  0  0  0  0  0  0
  158.6060  213.9340  148.9680 O   0  0  0  0  0  0  0  0  0  0  0  0
  157.5880  213.3300  149.7550 C   0  0  0  0  0  3  0  0  0  0  0  0
  156.2280  213.8670  149.3530 C   0  0  0  0  0  1  0  0  0  0  0  0
  157.8310  213.6430  151.2160 C   0  0  0  0  0  1  0  0  0  0  0  0
  1 13  1  1  0  0  0
  2  1  1  0  0  0  0
  2  4  1  1  0  0  0
  3  4  1  0  0  0  0
  5  9  1  0  0  0  0
  6  8  1  6  0  0  0
  6  3  1  0  0  0  0
  7  1  1  0  0  0  0
  9  7  1  0  0  0  0
 10  5  1  6  0  0  0
 10  2  1  0  0  0  0
 11 10  1  0  0  0  0
 11  6  1  0  0  0  0
 12 15  1  0  0  0  0
 12 14  1  0  0  0  0
 13 17  1  0  0  0  0
 13 18  2  0  0  0  0
 16 19  1  0  0  0  0
 17 12  2  0  0  0  0
 18 16  1  0  0  0  0
 18 19  1  0  0  0  0
 19 14  2  0  0  0  0
 20  7  1  0  0  0  0
 21 20  1  0  0  0  0
 21 22  1  0  0  0  0
 23 24  2  0  0  0  0
 24 25  1  0  0  0  0
 24 22  1  0  0  0  0
 26 27  2  0  0  0  0
 27 28  1  0  0  0  0
 27 25  1  0  0  0  0
 28 29  1  0  0  0  0
 29 31  1  0  0  0  0
 30 29  1  0  0  0  0
M  END
>  <MODEL>
2

>  <REMARK>
 VINA RESULT:      -8.2      1.575      1.890
  Name = 
  8 active torsions:
  status: ('A' for Active; 'I' for Inactive)
    1  A    between atoms: C_1  and  O_24
    2  A    between atoms: N_3  and  C_22
    3  A    between atoms: C_4  and  C_12
    4  A    between atoms: C_9  and  C_22
    5  A    between atoms: C_9  and  C_23
    6  A    between atoms: C_15  and  N_21
    7  A    between atoms: C_15  and  C_23
    8  A    between atoms: C_19  and  O_24
                            x       y       z     vdW  Elec       q    Type
                         _______ _______ _______ _____ _____    ______ ____

>  <TORSDO>
F 8

$$$$
=
 OpenBabel11052422353D

 31 34  0  0  1  0  0  0  0  0999 V2000
  161.4990  206.6060  150.0980 C   0  0  1  0  0  3  0  0  0  0  0  0
  160.7190  205.3030  149.8140 C   0  0  2  0  0  3  0  0  0  0  0  0
  160.5910  202.8460  150.3430 C   0  0  0  0  0  2  0  0  0  0  0  0
  161.0720  204.2050  150.8330 C   0  0  0  0  0  2  0  0  0  0  0  0
  161.3390  205.9280  147.4060 C   0  0  0  0  0  2  0  0  0  0  0  0
  161.3280  202.4300  149.0650 C   0  0  1  0  0  3  0  0  0  0  0  0
  161.2000  207.6980  149.1470 N   0  0  0  0  0  0  0  0  0  0  0  0
  160.4500  201.4980  148.2540 C   0  0  0  0  0  1  0  0  0  0  0  0
  160.7220  207.2530  147.8280 C   0  0  0  0  0  2  0  0  0  0  0  0
  160.8680  204.8250  148.3430 C   0  0  1  0  0  3  0  0  0  0  0  0
  161.7870  203.6100  148.2000 C   0  0  0  0  0  2  0  0  0  0  0  0
  160.6040  208.8120  153.2460 C   0  0  0  0  0  0  0  0  0  0  0  0
  161.2570  207.0860  151.4980 C   0  0  0  0  0  0  0  0  0  0  0  0
  160.7720  207.9040  154.3540 C   0  0  0  0  0  3  0  0  0  0  0  0
  160.2160  210.0830  153.4990 F   0  0  0  0  0  0  0  0  0  0  0  0
  161.5390  205.3830  153.6180 O   0  0  0  0  0  0  0  0  0  0  0  0
  160.8380  208.4140  151.8580 C   0  0  0  0  0  3  0  0  0  0  0  0
  161.3740  206.3040  152.6060 C   0  0  0  0  0  0  0  0  0  0  0  0
  161.1550  206.6770  153.8950 C   0  0  0  0  0  0  0  0  0  0  0  0
  162.4320  208.4460  148.9280 C   0  0  0  0  0  2  0  0  0  0  0  0
  162.1280  209.7850  148.2770 C   0  0  0  0  0  2  0  0  0  0  0  0
  161.9520  210.8530  149.3390 C   0  0  0  0  0  2  0  0  0  0  0  0
  160.7780  213.2730  149.3870 S   0  0  0  0  0  0  0  0  0  0  0  0
  161.7940  212.1850  148.6990 C   0  0  0  0  0  0  0  0  0  0  0  0
  162.5560  212.4740  147.5170 N   0  0  0  0  0  2  0  0  0  0  0  0
  160.8380  213.0820  146.0380 O   0  0  0  0  0  0  0  0  0  0  0  0
  162.0710  212.9670  146.2560 C   0  0  0  0  0  0  0  0  0  0  0  0
  162.9690  213.3140  145.2450 O   0  0  0  0  0  0  0  0  0  0  0  0
  162.5420  213.7230  143.9510 C   0  0  0  0  0  3  0  0  0  0  0  0
  162.1510  212.5140  143.1230 C   0  0  0  0  0  1  0  0  0  0  0  0
  163.6740  214.4520  143.2590 C   0  0  0  0  0  1  0  0  0  0  0  0
  1 13  1  1  0  0  0
  2  1  1  0  0  0  0
  2  4  1  1  0  0  0
  3  4  1  0  0  0  0
  5  9  1  0  0  0  0
  6  8  1  6  0  0  0
  6  3  1  0  0  0  0
  7  1  1  0  0  0  0
  9  7  1  0  0  0  0
 10  5  1  6  0  0  0
 10  2  1  0  0  0  0
 11 10  1  0  0  0  0
 11  6  1  0  0  0  0
 12 15  1  0  0  0  0
 12 14  1  0  0  0  0
 13 17  1  0  0  0  0
 13 18  2  0  0  0  0
 16 19  1  0  0  0  0
 17 12  2  0  0  0  0
 18 16  1  0  0  0  0
 18 19  1  0  0  0  0
 19 14  2  0  0  0  0
 20  7  1  0  0  0  0
 21 20  1  0  0  0  0
 21 22  1  0  0  0  0
 24 22  1  0  0  0  0
 24 23  2  0  0  0  0
 25 24  1  0  0  0  0
 26 27  2  0  0  0  0
 27 25  1  0  0  0  0
 28 27  1  0  0  0  0
 29 28  1  0  0  0  0
 30 29  1  0  0  0  0
 31 29  1  0  0  0  0
M  END
>  <MODEL>
3

>  <REMARK>
 VINA RESULT:      -8.1      2.450      2.999
  Name = 
  8 active torsions:
  status: ('A' for Active; 'I' for Inactive)
    1  A    between atoms: C_1  and  O_24
    2  A    between atoms: N_3  and  C_22
    3  A    between atoms: C_4  and  C_12
    4  A    between atoms: C_9  and  C_22
    5  A    between atoms: C_9  and  C_23
    6  A    between atoms: C_15  and  N_21
    7  A    between atoms: C_15  and  C_23
    8  A    between atoms: C_19  and  O_24
                            x       y       z     vdW  Elec       q    Type
                         _______ _______ _______ _____ _____    ______ ____

>  <TORSDO>
F 8

$$$$
=
 OpenBabel11052422353D

 31 34  0  0  1  0  0  0  0  0999 V2000
  161.1780  205.9690  150.5270 C   0  0  1  0  0  3  0  0  0  0  0  0
  161.7020  206.5840  151.8450 C   0  0  2  0  0  3  0  0  0  0  0  0
  161.1930  206.9080  154.2880 C   0  0  0  0  0  2  0  0  0  0  0  0
  160.9270  206.0470  153.0610 C   0  0  0  0  0  2  0  0  0  0  0  0
  161.7200  208.6930  150.3860 C   0  0  0  0  0  2  0  0  0  0  0  0
  160.6520  208.3280  154.0900 C   0  0  1  0  0  3  0  0  0  0  0  0
  161.8870  206.4510  149.3230 N   0  0  0  0  0  0  0  0  0  0  0  0
  161.4520  209.2980  154.9360 C   0  0  0  0  0  1  0  0  0  0  0  0
  162.5100  207.7770  149.4630 C   0  0  0  0  0  2  0  0  0  0  0  0
  161.7480  208.1370  151.8030 C   0  0  1  0  0  3  0  0  0  0  0  0
  160.6370  208.7890  152.6270 C   0  0  0  0  0  2  0  0  0  0  0  0
  161.9300  202.2340  151.5580 C   0  0  0  0  0  0  0  0  0  0  0  0
  161.2360  204.4700  150.5710 C   0  0  0  0  0  0  0  0  0  0  0  0
  161.2400  201.4600  150.5550 C   0  0  0  0  0  3  0  0  0  0  0  0
  162.6100  201.5810  152.5290 F   0  0  0  0  0  0  0  0  0  0  0  0
  159.9150  202.9760  148.7020 O   0  0  0  0  0  0  0  0  0  0  0  0
  161.9270  203.6970  151.5670 C   0  0  0  0  0  3  0  0  0  0  0  0
  160.6080  203.6550  149.6810 C   0  0  0  0  0  0  0  0  0  0  0  0
  160.6120  202.2950  149.6770 C   0  0  0  0  0  0  0  0  0  0  0  0
  160.9120  206.5460  148.2430 C   0  0  0  0  0  2  0  0  0  0  0  0
  161.5990  206.3890  146.8960 C   0  0  0  0  0  2  0  0  0  0  0  0
  162.2080  205.0050  146.7800 C   0  0  0  0  0  2  0  0  0  0  0  0
  161.2060  205.0360  144.2840 S   0  0  0  0  0  0  0  0  0  0  0  0
  161.5490  204.2510  145.6820 C   0  0  0  0  0  0  0  0  0  0  0  0
  161.2610  202.8580  145.8820 N   0  0  0  0  0  2  0  0  0  0  0  0
  159.4940  202.5650  144.3650 O   0  0  0  0  0  0  0  0  0  0  0  0
  160.2980  202.0500  145.1840 C   0  0  0  0  0  0  0  0  0  0  0  0
  160.2310  200.6760  145.4180 O   0  0  0  0  0  0  0  0  0  0  0  0
  161.3620  199.9140  145.8230 C   0  0  0  0  0  3  0  0  0  0  0  0
  161.2290  198.4830  145.3380 C   0  0  0  0  0  1  0  0  0  0  0  0
  161.4520  199.9180  147.3340 C   0  0  0  0  0  1  0  0  0  0  0  0
  1 13  1  1  0  0  0
  1  2  1  0  0  0  0
  2  4  1  1  0  0  0
  4  3  1  0  0  0  0
  6  3  1  0  0  0  0
  6  8  1  1  0  0  0
  7  9  1  0  0  0  0
  7  1  1  0  0  0  0
  9  5  1  0  0  0  0
 10  5  1  6  0  0  0
 10  2  1  0  0  0  0
 10 11  1  0  0  0  0
 11  6  1  0  0  0  0
 12 17  1  0  0  0  0
 12 15  1  0  0  0  0
 13 17  2  0  0  0  0
 14 12  2  0  0  0  0
 16 19  1  0  0  0  0
 16 18  1  0  0  0  0
 18 13  1  0  0  0  0
 19 18  2  0  0  0  0
 19 14  1  0  0  0  0
 20  7  1  0  0  0  0
 21 20  1  0  0  0  0
 22 21  1  0  0  0  0
 23 24  2  0  0  0  0
 24 25  1  0  0  0  0
 24 22  1  0  0  0  0
 26 27  2  0  0  0  0
 27 28  1  0  0  0  0
 27 25  1  0  0  0  0
 28 29  1  0  0  0  0
 29 31  1  0  0  0  0
 30 29  1  0  0  0  0
M  END
>  <MODEL>
4

>  <REMARK>
 VINA RESULT:      -8.0      4.641      7.923
  Name = 
  8 active torsions:
  status: ('A' for Active; 'I' for Inactive)
    1  A    between atoms: C_1  and  O_24
    2  A    between atoms: N_3  and  C_22
    3  A    between atoms: C_4  and  C_12
    4  A    between atoms: C_9  and  C_22
    5  A    between atoms: C_9  and  C_23
    6  A    between atoms: C_15  and  N_21
    7  A    between atoms: C_15  and  C_23
    8  A    between atoms: C_19  and  O_24
                            x       y       z     vdW  Elec       q    Type
                         _______ _______ _______ _____ _____    ______ ____

>  <TORSDO>
F 8

$$$$
=
 OpenBabel11052422353D

 31 34  0  0  1  0  0  0  0  0999 V2000
  161.7510  208.1530  152.4740 C   0  0  1  0  0  3  0  0  0  0  0  0
  160.9620  209.0550  153.4500 C   0  0  2  0  0  3  0  0  0  0  0  0
  161.0240  211.2230  154.7260 C   0  0  0  0  0  2  0  0  0  0  0  0
  161.5660  210.4680  153.5190 C   0  0  0  0  0  2  0  0  0  0  0  0
  161.0060  206.9020  154.8420 C   0  0  0  0  0  2  0  0  0  0  0  0
  161.4650  210.5570  156.0340 C   0  0  1  0  0  3  0  0  0  0  0  0
  161.2150  206.7790  152.3670 N   0  0  0  0  0  0  0  0  0  0  0  0
  160.4530  210.8560  157.1210 C   0  0  0  0  0  1  0  0  0  0  0  0
  160.4640  206.3180  153.5460 C   0  0  0  0  0  2  0  0  0  0  0  0
  160.7890  208.4080  154.8530 C   0  0  1  0  0  3  0  0  0  0  0  0
  161.6840  209.0440  155.9170 C   0  0  0  0  0  2  0  0  0  0  0  0
  162.0790  210.6970  149.4730 C   0  0  0  0  0  0  0  0  0  0  0  0
  161.8180  208.7670  151.1060 C   0  0  0  0  0  0  0  0  0  0  0  0
  161.9670  209.8590  148.3050 C   0  0  0  0  0  3  0  0  0  0  0  0
  162.2560  212.0280  149.3050 F   0  0  0  0  0  0  0  0  0  0  0  0
  161.6370  207.2020  148.8720 O   0  0  0  0  0  0  0  0  0  0  0  0
  162.0080  210.1660  150.8350 C   0  0  0  0  0  3  0  0  0  0  0  0
  161.7370  208.0600  149.9460 C   0  0  0  0  0  0  0  0  0  0  0  0
  161.8040  208.5570  148.6820 C   0  0  0  0  0  0  0  0  0  0  0  0
  162.3450  205.8740  152.1960 C   0  0  0  0  0  2  0  0  0  0  0  0
  161.8550  204.4750  151.8610 C   0  0  0  0  0  2  0  0  0  0  0  0
  160.7800  204.5410  150.7930 C   0  0  0  0  0  2  0  0  0  0  0  0
  160.7710  201.8800  150.3970 S   0  0  0  0  0  0  0  0  0  0  0  0
  160.9420  203.4140  149.8390 C   0  0  0  0  0  0  0  0  0  0  0  0
  161.2180  203.7120  148.4620 N   0  0  0  0  0  2  0  0  0  0  0  0
  160.9620  201.5860  147.5030 O   0  0  0  0  0  0  0  0  0  0  0  0
  161.1610  202.8170  147.3380 C   0  0  0  0  0  0  0  0  0  0  0  0
  161.3410  203.3030  146.0420 O   0  0  0  0  0  0  0  0  0  0  0  0
  161.6860  204.6560  145.7740 C   0  0  0  0  0  3  0  0  0  0  0  0
  161.2070  205.0530  144.3910 C   0  0  0  0  0  1  0  0  0  0  0  0
  163.1900  204.8110  145.8410 C   0  0  0  0  0  1  0  0  0  0  0  0
  1 13  1  6  0  0  0
  1  2  1  0  0  0  0
  2  4  1  1  0  0  0
  2 10  1  0  0  0  0
  3  6  1  0  0  0  0
  4  3  1  0  0  0  0
  6  8  1  1  0  0  0
  7  1  1  0  0  0  0
  7  9  1  0  0  0  0
  9  5  1  0  0  0  0
 10  5  1  6  0  0  0
 10 11  1  0  0  0  0
 11  6  1  0  0  0  0
 12 17  1  0  0  0  0
 14 19  1  0  0  0  0
 14 12  2  0  0  0  0
 15 12  1  0  0  0  0
 16 18  1  0  0  0  0
 17 13  2  0  0  0  0
 18 13  1  0  0  0  0
 19 16  1  0  0  0  0
 19 18  2  0  0  0  0
 20  7  1  0  0  0  0
 21 20  1  0  0  0  0
 22 21  1  0  0  0  0
 24 23  2  0  0  0  0
 24 22  1  0  0  0  0
 25 24  1  0  0  0  0
 27 26  2  0  0  0  0
 27 25  1  0  0  0  0
 28 27  1  0  0  0  0
 29 31  1  0  0  0  0
 29 28  1  0  0  0  0
 30 29  1  0  0  0  0
M  END
>  <MODEL>
5

>  <REMARK>
 VINA RESULT:      -7.7      4.135      7.787
  Name = 
  8 active torsions:
  status: ('A' for Active; 'I' for Inactive)
    1  A    between atoms: C_1  and  O_24
    2  A    between atoms: N_3  and  C_22
    3  A    between atoms: C_4  and  C_12
    4  A    between atoms: C_9  and  C_22
    5  A    between atoms: C_9  and  C_23
    6  A    between atoms: C_15  and  N_21
    7  A    between atoms: C_15  and  C_23
    8  A    between atoms: C_19  and  O_24
                            x       y       z     vdW  Elec       q    Type
                         _______ _______ _______ _____ _____    ______ ____

>  <TORSDO>
F 8

$$$$
=
 OpenBabel11052422353D

 31 34  0  0  1  0  0  0  0  0999 V2000
  161.2010  206.5190  151.1460 C   0  0  1  0  0  3  0  0  0  0  0  0
  161.6590  205.2320  150.4210 C   0  0  2  0  0  3  0  0  0  0  0  0
  161.2110  203.7340  148.4500 C   0  0  0  0  0  2  0  0  0  0  0  0
  161.0580  205.1420  149.0080 C   0  0  0  0  0  2  0  0  0  0  0  0
  161.2040  204.2420  152.7430 C   0  0  0  0  0  2  0  0  0  0  0  0
  160.4000  202.7260  149.2720 C   0  0  1  0  0  3  0  0  0  0  0  0
  161.7480  206.6580  152.5130 N   0  0  0  0  0  0  0  0  0  0  0  0
  161.0380  201.3560  149.1680 C   0  0  0  0  0  1  0  0  0  0  0  0
  162.1110  205.3890  153.1640 C   0  0  0  0  0  2  0  0  0  0  0  0
  161.4040  203.9500  151.2630 C   0  0  1  0  0  3  0  0  0  0  0  0
  160.2290  203.1200  150.7440 C   0  0  0  0  0  2  0  0  0  0  0  0
  161.8660  210.2380  150.0040 C   0  0  0  0  0  0  0  0  0  0  0  0
  161.5470  207.7400  150.3460 C   0  0  0  0  0  0  0  0  0  0  0  0
  162.3040  210.1000  148.6370 C   0  0  0  0  0  3  0  0  0  0  0  0
  161.7890  211.4780  150.5400 F   0  0  0  0  0  0  0  0  0  0  0  0
  162.4070  207.5090  147.7620 O   0  0  0  0  0  0  0  0  0  0  0  0
  161.5000  209.0910  150.8350 C   0  0  0  0  0  3  0  0  0  0  0  0
  161.9830  207.7120  149.0570 C   0  0  0  0  0  0  0  0  0  0  0  0
  162.3230  208.7800  148.2880 C   0  0  0  0  0  0  0  0  0  0  0  0
  160.7240  207.2870  153.3380 C   0  0  0  0  0  2  0  0  0  0  0  0
  160.9790  206.9980  154.8080 C   0  0  0  0  0  2  0  0  0  0  0  0
  160.0440  207.8220  155.6710 C   0  0  0  0  0  2  0  0  0  0  0  0
  161.9320  209.1370  157.0670 S   0  0  0  0  0  0  0  0  0  0  0  0
  160.6790  209.1230  156.0080 C   0  0  0  0  0  0  0  0  0  0  0  0
  160.1840  210.3140  155.3760 N   0  0  0  0  0  2  0  0  0  0  0  0
  161.8770  210.6960  153.7960 O   0  0  0  0  0  0  0  0  0  0  0  0
  160.7550  211.0220  154.2620 C   0  0  0  0  0  0  0  0  0  0  0  0
  160.0750  212.0980  153.6900 O   0  0  0  0  0  0  0  0  0  0  0  0
  158.8430  211.9420  152.9970 C   0  0  0  0  0  3  0  0  0  0  0  0
  158.8640  212.7390  151.7070 C   0  0  0  0  0  1  0  0  0  0  0  0
  157.7120  212.4420  153.8700 C   0  0  0  0  0  1  0  0  0  0  0  0
  1 13  1  6  0  0  0
  1  7  1  0  0  0  0
  2  4  1  6  0  0  0
  2  1  1  0  0  0  0
  2 10  1  0  0  0  0
  3  4  1  0  0  0  0
  3  6  1  0  0  0  0
  5  9  1  0  0  0  0
  6  8  1  1  0  0  0
  6 11  1  0  0  0  0
  7  9  1  0  0  0  0
  7 20  1  0  0  0  0
 10 11  1  6  0  0  0
 10  5  1  0  0  0  0
 12 15  1  0  0  0  0
 12 17  1  0  0  0  0
 13 17  2  0  0  0  0
 14 12  2  0  0  0  0
 16 19  1  0  0  0  0
 16 18  1  0  0  0  0
 18 13  1  0  0  0  0
 19 14  1  0  0  0  0
 19 18  2  0  0  0  0
 20 21  1  0  0  0  0
 21 22  1  0  0  0  0
 22 24  1  0  0  0  0
 24 23  2  0  0  0  0
 25 24  1  0  0  0  0
 26 27  2  0  0  0  0
 27 25  1  0  0  0  0
 28 27  1  0  0  0  0
 29 28  1  0  0  0  0
 29 31  1  0  0  0  0
 30 29  1  0  0  0  0
M  END
>  <MODEL>
6

>  <REMARK>
 VINA RESULT:      -7.5      3.584      5.311
  Name = 
  8 active torsions:
  status: ('A' for Active; 'I' for Inactive)
    1  A    between atoms: C_1  and  O_24
    2  A    between atoms: N_3  and  C_22
    3  A    between atoms: C_4  and  C_12
    4  A    between atoms: C_9  and  C_22
    5  A    between atoms: C_9  and  C_23
    6  A    between atoms: C_15  and  N_21
    7  A    between atoms: C_15  and  C_23
    8  A    between atoms: C_19  and  O_24
                            x       y       z     vdW  Elec       q    Type
                         _______ _______ _______ _____ _____    ______ ____

>  <TORSDO>
F 8

$$$$
=
 OpenBabel11052422353D

 31 34  0  0  1  0  0  0  0  0999 V2000
  161.1850  207.9290  151.8070 C   0  0  1  0  0  3  0  0  0  0  0  0
  161.4330  207.8320  153.3290 C   0  0  2  0  0  3  0  0  0  0  0  0
  160.4350  207.0830  155.5140 C   0  0  0  0  0  2  0  0  0  0  0  0
  160.4170  206.8940  154.0030 C   0  0  0  0  0  2  0  0  0  0  0  0
  161.7780  210.3550  153.0290 C   0  0  0  0  0  2  0  0  0  0  0  0
  159.9640  208.4900  155.8960 C   0  0  1  0  0  3  0  0  0  0  0  0
  162.1330  208.8210  151.1050 N   0  0  0  0  0  0  0  0  0  0  0  0
  160.5830  208.8900  157.2200 C   0  0  0  0  0  1  0  0  0  0  0  0
  162.7300  209.8700  151.9460 C   0  0  0  0  0  2  0  0  0  0  0  0
  161.5060  209.2260  154.0120 C   0  0  1  0  0  3  0  0  0  0  0  0
  160.2570  209.5540  154.8320 C   0  0  0  0  0  2  0  0  0  0  0  0
  161.5820  204.0580  151.1490 C   0  0  0  0  0  0  0  0  0  0  0  0
  161.2150  206.5720  151.1680 C   0  0  0  0  0  0  0  0  0  0  0  0
  161.1940  203.9070  149.7680 C   0  0  0  0  0  3  0  0  0  0  0  0
  161.9560  202.9580  151.8440 F   0  0  0  0  0  0  0  0  0  0  0  0
  160.4570  206.2490  148.5610 O   0  0  0  0  0  0  0  0  0  0  0  0
  161.5910  205.3520  151.8300 C   0  0  0  0  0  3  0  0  0  0  0  0
  160.8540  206.3260  149.8790 C   0  0  0  0  0  0  0  0  0  0  0  0
  160.8460  205.1200  149.2490 C   0  0  0  0  0  0  0  0  0  0  0  0
  161.4040  209.4900  150.0350 C   0  0  0  0  0  2  0  0  0  0  0  0
  161.9630  210.8850  149.8060 C   0  0  0  0  0  2  0  0  0  0  0  0
  162.1950  211.1170  148.3260 C   0  0  0  0  0  2  0  0  0  0  0  0
  160.8350  213.3280  149.0350 S   0  0  0  0  0  0  0  0  0  0  0  0
  161.6930  212.4610  147.9380 C   0  0  0  0  0  0  0  0  0  0  0  0
  161.9980  212.9560  146.6250 N   0  0  0  0  0  2  0  0  0  0  0  0
  160.0800  212.2800  145.4550 O   0  0  0  0  0  0  0  0  0  0  0  0
  161.1690  212.9080  145.4510 C   0  0  0  0  0  0  0  0  0  0  0  0
  161.5720  213.5510  144.2800 O   0  0  0  0  0  0  0  0  0  0  0  0
  162.5880  213.0300  143.4330 C   0  0  0  0  0  3  0  0  0  0  0  0
  163.3820  214.1630  142.8110 C   0  0  0  0  0  1  0  0  0  0  0  0
  161.9510  212.2100  142.3310 C   0  0  0  0  0  1  0  0  0  0  0  0
  1 13  1  6  0  0  0
  1  2  1  0  0  0  0
  2  4  1  1  0  0  0
  2 10  1  0  0  0  0
  3  6  1  0  0  0  0
  4  3  1  0  0  0  0
  6  8  1  1  0  0  0
  7  1  1  0  0  0  0
  7  9  1  0  0  0  0
  9  5  1  0  0  0  0
 10  5  1  6  0  0  0
 10 11  1  0  0  0  0
 11  6  1  0  0  0  0
 12 17  1  0  0  0  0
 12 15  1  0  0  0  0
 13 17  2  0  0  0  0
 14 12  2  0  0  0  0
 16 19  1  0  0  0  0
 16 18  1  0  0  0  0
 18 13  1  0  0  0  0
 19 14  1  0  0  0  0
 19 18  2  0  0  0  0
 20  7  1  0  0  0  0
 21 20  1  0  0  0  0
 22 21  1  0  0  0  0
 24 22  1  0  0  0  0
 24 23  2  0  0  0  0
 25 24  1  0  0  0  0
 27 26  2  0  0  0  0
 27 25  1  0  0  0  0
 28 27  1  0  0  0  0
 29 28  1  0  0  0  0
 30 29  1  0  0  0  0
 31 29  1  0  0  0  0
M  END
>  <MODEL>
7

>  <REMARK>
 VINA RESULT:      -7.2      2.761      5.231
  Name = 
  8 active torsions:
  status: ('A' for Active; 'I' for Inactive)
    1  A    between atoms: C_1  and  O_24
    2  A    between atoms: N_3  and  C_22
    3  A    between atoms: C_4  and  C_12
    4  A    between atoms: C_9  and  C_22
    5  A    between atoms: C_9  and  C_23
    6  A    between atoms: C_15  and  N_21
    7  A    between atoms: C_15  and  C_23
    8  A    between atoms: C_19  and  O_24
                            x       y       z     vdW  Elec       q    Type
                         _______ _______ _______ _____ _____    ______ ____

>  <TORSDO>
F 8

$$$$
=
 OpenBabel11052422353D

 31 34  0  0  1  0  0  0  0  0999 V2000
  161.5370  205.3770  148.7800 C   0  0  1  0  0  3  0  0  0  0  0  0
  160.6970  204.2730  148.1000 C   0  0  2  0  0  3  0  0  0  0  0  0
  160.5050  201.7910  147.7350 C   0  0  0  0  0  2  0  0  0  0  0  0
  161.0580  202.8800  148.6440 C   0  0  0  0  0  2  0  0  0  0  0  0
  161.2250  205.7000  146.0360 C   0  0  0  0  0  2  0  0  0  0  0  0
  161.1650  201.8420  146.3530 C   0  0  1  0  0  3  0  0  0  0  0  0
  161.2330  206.7400  148.2940 N   0  0  0  0  0  0  0  0  0  0  0  0
  160.2170  201.2720  145.3170 C   0  0  0  0  0  1  0  0  0  0  0  0
  160.6770  206.8000  146.9330 C   0  0  0  0  0  2  0  0  0  0  0  0
  160.7590  204.3450  146.5490 C   0  0  1  0  0  3  0  0  0  0  0  0
  161.6250  203.2430  145.9350 C   0  0  0  0  0  2  0  0  0  0  0  0
  160.9270  206.3530  152.5550 C   0  0  0  0  0  0  0  0  0  0  0  0
  161.3780  205.3350  150.2710 C   0  0  0  0  0  0  0  0  0  0  0  0
  161.0510  205.0980  153.2540 C   0  0  0  0  0  3  0  0  0  0  0  0
  160.6540  207.4710  153.2690 F   0  0  0  0  0  0  0  0  0  0  0  0
  161.5800  202.9670  151.6210 O   0  0  0  0  0  0  0  0  0  0  0  0
  161.0830  206.4680  151.1060 C   0  0  0  0  0  3  0  0  0  0  0  0
  161.4630  204.2000  151.0170 C   0  0  0  0  0  0  0  0  0  0  0  0
  161.3150  204.0960  152.3650 C   0  0  0  0  0  0  0  0  0  0  0  0
  162.4790  207.4960  148.2830 C   0  0  0  0  0  2  0  0  0  0  0  0
  162.2140  208.9580  148.6070 C   0  0  0  0  0  2  0  0  0  0  0  0
  162.1710  209.1580  150.1090 C   0  0  0  0  0  2  0  0  0  0  0  0
  161.1720  210.8850  151.9150 S   0  0  0  0  0  0  0  0  0  0  0  0
  161.7710  210.5540  150.4240 C   0  0  0  0  0  0  0  0  0  0  0  0
  161.9460  211.5630  149.4170 N   0  0  0  0  0  2  0  0  0  0  0  0
  160.1770  213.0110  149.9480 O   0  0  0  0  0  0  0  0  0  0  0  0
  161.1950  212.7780  149.2470 C   0  0  0  0  0  0  0  0  0  0  0  0
  161.5790  213.7130  148.2860 O   0  0  0  0  0  0  0  0  0  0  0  0
  161.2480  213.5760  146.9100 C   0  0  0  0  0  3  0  0  0  0  0  0
  160.1830  212.5110  146.7320 C   0  0  0  0  0  1  0  0  0  0  0  0
  162.4850  213.1740  146.1350 C   0  0  0  0  0  1  0  0  0  0  0  0
  1 13  1  1  0  0  0
  2  4  1  1  0  0  0
  2  1  1  0  0  0  0
  3  4  1  0  0  0  0
  5 10  1  0  0  0  0
  5  9  1  0  0  0  0
  6  8  1  6  0  0  0
  6  3  1  0  0  0  0
  7  1  1  0  0  0  0
  9  7  1  0  0  0  0
 10 11  1  1  0  0  0
 10  2  1  0  0  0  0
 11  6  1  0  0  0  0
 12 14  1  0  0  0  0
 12 15  1  0  0  0  0
 13 18  2  0  0  0  0
 13 17  1  0  0  0  0
 16 19  1  0  0  0  0
 17 12  2  0  0  0  0
 18 16  1  0  0  0  0
 18 19  1  0  0  0  0
 19 14  2  0  0  0  0
 20  7  1  0  0  0  0
 20 21  1  0  0  0  0
 21 22  1  0  0  0  0
 22 24  1  0  0  0  0
 24 23  2  0  0  0  0
 25 24  1  0  0  0  0
 27 25  1  0  0  0  0
 27 26  2  0  0  0  0
 28 27  1  0  0  0  0
 29 28  1  0  0  0  0
 30 29  1  0  0  0  0
 31 29  1  0  0  0  0
M  END
>  <MODEL>
8

>  <REMARK>
 VINA RESULT:      -7.1      2.385      3.391
  Name = 
  8 active torsions:
  status: ('A' for Active; 'I' for Inactive)
    1  A    between atoms: C_1  and  O_24
    2  A    between atoms: N_3  and  C_22
    3  A    between atoms: C_4  and  C_12
    4  A    between atoms: C_9  and  C_22
    5  A    between atoms: C_9  and  C_23
    6  A    between atoms: C_15  and  N_21
    7  A    between atoms: C_15  and  C_23
    8  A    between atoms: C_19  and  O_24
                            x       y       z     vdW  Elec       q    Type
                         _______ _______ _______ _____ _____    ______ ____

>  <TORSDO>
F 8

$$$$
=
 OpenBabel11052422353D

 31 34  0  0  1  0  0  0  0  0999 V2000
  161.2170  208.0320  151.0680 C   0  0  1  0  0  3  0  0  0  0  0  0
  162.0390  209.2530  150.5980 C   0  0  2  0  0  3  0  0  0  0  0  0
  161.9730  211.7440  150.2520 C   0  0  0  0  0  2  0  0  0  0  0  0
  161.3680  210.5740  151.0140 C   0  0  0  0  0  2  0  0  0  0  0  0
  162.2370  207.8050  148.4910 C   0  0  0  0  0  2  0  0  0  0  0  0
  161.6870  211.6290  148.7500 C   0  0  1  0  0  3  0  0  0  0  0  0
  161.8150  206.7320  150.6940 N   0  0  0  0  0  0  0  0  0  0  0  0
  162.7730  212.3420  147.9710 C   0  0  0  0  0  1  0  0  0  0  0  0
  162.6910  206.7740  149.5130 C   0  0  0  0  0  2  0  0  0  0  0  0
  162.3710  209.2020  149.0810 C   0  0  1  0  0  3  0  0  0  0  0  0
  161.5400  210.1850  148.2550 C   0  0  0  0  0  2  0  0  0  0  0  0
  160.4250  209.2000  154.7540 C   0  0  0  0  0  0  0  0  0  0  0  0
  160.9960  208.0680  152.5510 C   0  0  0  0  0  0  0  0  0  0  0  0
  160.5480  207.9890  155.5270 C   0  0  0  0  0  3  0  0  0  0  0  0
  160.0970  210.3480  155.3910 F   0  0  0  0  0  0  0  0  0  0  0  0
  161.1940  205.7840  154.0400 O   0  0  0  0  0  0  0  0  0  0  0  0
  160.6400  209.2380  153.3080 C   0  0  0  0  0  3  0  0  0  0  0  0
  161.0750  206.9790  153.3630 C   0  0  0  0  0  0  0  0  0  0  0  0
  160.8730  206.9460  154.7080 C   0  0  0  0  0  0  0  0  0  0  0  0
  160.7250  205.8130  150.3890 C   0  0  0  0  0  2  0  0  0  0  0  0
  161.1840  204.3740  150.5620 C   0  0  0  0  0  2  0  0  0  0  0  0
  160.3180  203.4490  149.7300 C   0  0  0  0  0  2  0  0  0  0  0  0
  161.2070  201.1300  148.6950 S   0  0  0  0  0  0  0  0  0  0  0  0
  161.1440  202.7690  148.6990 C   0  0  0  0  0  0  0  0  0  0  0  0
  161.8380  203.5750  147.7340 N   0  0  0  0  0  2  0  0  0  0  0  0
  160.9180  202.7440  145.7410 O   0  0  0  0  0  0  0  0  0  0  0  0
  161.6630  203.5840  146.3070 C   0  0  0  0  0  0  0  0  0  0  0  0
  162.3350  204.5230  145.5220 O   0  0  0  0  0  0  0  0  0  0  0  0
  161.7070  205.7020  145.0350 C   0  0  0  0  0  3  0  0  0  0  0  0
  160.5350  206.0750  145.9210 C   0  0  0  0  0  1  0  0  0  0  0  0
  161.2060  205.4570  143.6280 C   0  0  0  0  0  1  0  0  0  0  0  0
  1 13  1  1  0  0  0
  2  4  1  6  0  0  0
  2  1  1  0  0  0  0
  3  4  1  0  0  0  0
  5 10  1  0  0  0  0
  5  9  1  0  0  0  0
  6  8  1  6  0  0  0
  6  3  1  0  0  0  0
  7  1  1  0  0  0  0
  9  7  1  0  0  0  0
 10 11  1  6  0  0  0
 10  2  1  0  0  0  0
 11  6  1  0  0  0  0
 12 15  1  0  0  0  0
 12 14  1  0  0  0  0
 13 17  1  0  0  0  0
 13 18  2  0  0  0  0
 16 19  1  0  0  0  0
 17 12  2  0  0  0  0
 18 16  1  0  0  0  0
 18 19  1  0  0  0  0
 19 14  2  0  0  0  0
 20 21  1  0  0  0  0
 20  7  1  0  0  0  0
 22 21  1  0  0  0  0
 23 24  2  0  0  0  0
 24 22  1  0  0  0  0
 25 24  1  0  0  0  0
 26 27  2  0  0  0  0
 27 25  1  0  0  0  0
 28 27  1  0  0  0  0
 29 28  1  0  0  0  0
 29 30  1  0  0  0  0
 31 29  1  0  0  0  0
M  END
>  <MODEL>
9

>  <REMARK>
 VINA RESULT:      -7.0      4.092      6.923
  Name = 
  8 active torsions:
  status: ('A' for Active; 'I' for Inactive)
    1  A    between atoms: C_1  and  O_24
    2  A    between atoms: N_3  and  C_22
    3  A    between atoms: C_4  and  C_12
    4  A    between atoms: C_9  and  C_22
    5  A    between atoms: C_9  and  C_23
    6  A    between atoms: C_15  and  N_21
    7  A    between atoms: C_15  and  C_23
    8  A    between atoms: C_19  and  O_24
                            x       y       z     vdW  Elec       q    Type
                         _______ _______ _______ _____ _____    ______ ____

>  <TORSDO>
F 8

$$$$
