=
 OpenBabel11052422333D

 31 35  0  0  1  0  0  0  0  0999 V2000
  161.9710  209.4820  154.8100 C   0  0  1  0  0  3  0  0  0  0  0  0
  161.1270  207.5260  151.0730 C   0  0  1  0  0  3  0  0  0  0  0  0
  160.9910  212.6080  149.6870 O   0  0  0  0  0  0  0  0  0  0  0  0
  161.4780  211.9820  148.7060 C   0  0  0  0  0  0  0  0  0  0  0  0
  161.3560  208.1590  152.4440 C   0  0  2  0  0  3  0  0  0  0  0  0
  162.2820  210.3330  156.0220 C   0  0  0  0  0  1  0  0  0  0  0  0
  161.8390  209.8400  150.0580 C   0  0  0  0  0  0  0  0  0  0  0  0
  160.4650  208.4880  155.1200 S   0  0  0  0  0  0  0  0  0  0  0  0
  161.3540  210.3540  151.1520 N   0  0  0  0  0  0  0  0  0  0  0  0
  162.4350  208.1500  149.9850 S   0  0  0  0  0  0  0  0  0  0  0  0
  161.9050  210.6210  148.8580 N   0  0  0  0  0  2  0  0  0  0  0  0
  160.5010  207.5250  153.5480 C   0  0  0  0  0  2  0  0  0  0  0  0
  161.1040  209.6710  152.4250 C   0  0  2  0  0  3  0  0  0  0  0  0
  161.8180  210.3770  153.5770 C   0  0  0  0  0  2  0  0  0  0  0  0
  161.8010  213.8660  144.8640 C   0  0  0  0  0  0  0  0  0  0  0  0
  160.7120  212.3160  146.3650 C   0  0  0  0  0  3  0  0  0  0  0  0
  163.5130  213.9620  148.0850 F   0  0  0  0  0  0  0  0  0  0  0  0
  161.8930  214.4530  143.6460 F   0  0  0  0  0  0  0  0  0  0  0  0
  160.8050  212.9210  145.1100 C   0  0  0  0  0  3  0  0  0  0  0  0
  162.6170  213.6040  147.1320 C   0  0  0  0  0  0  0  0  0  0  0  0
  161.6120  212.6470  147.3900 C   0  0  0  0  0  0  0  0  0  0  0  0
  162.7050  214.2060  145.8720 C   0  0  0  0  0  3  0  0  0  0  0  0
  161.1620  206.0190  151.1000 C   0  0  0  0  0  0  0  0  0  0  0  0
  161.3850  203.9520  152.3620 C   0  0  0  0  0  3  0  0  0  0  0  0
  161.3770  205.3470  152.3150 C   0  0  0  0  0  3  0  0  0  0  0  0
  161.1730  203.2140  151.1980 C   0  0  0  0  0  3  0  0  0  0  0  0
  160.9610  203.8700  149.9840 C   0  0  0  0  0  3  0  0  0  0  0  0
  160.9720  205.2720  149.9150 C   0  0  0  0  0  0  0  0  0  0  0  0
  160.9140  205.0000  147.4310 C   0  0  0  0  0  2  0  0  0  0  0  0
  161.9640  206.0290  147.7710 C   0  0  0  0  0  2  0  0  0  0  0  0
  160.6920  205.9490  148.5990 C   0  0  0  0  0  3  0  0  0  0  0  0
  1  8  1  0  0  0  0
  1  6  1  1  0  0  0
  2 23  1  1  0  0  0
  2  5  1  0  0  0  0
  4 11  1  0  0  0  0
  4  3  2  0  0  0  0
  5 12  1  1  0  0  0
  7  9  2  0  0  0  0
  9 13  1  0  0  0  0
 10  7  1  0  0  0  0
 10  2  1  0  0  0  0
 11  7  1  0  0  0  0
 12  8  1  0  0  0  0
 13  5  1  0  0  0  0
 13 14  1  1  0  0  0
 14  1  1  0  0  0  0
 15 19  2  0  0  0  0
 15 22  1  0  0  0  0
 16 21  2  0  0  0  0
 18 15  1  0  0  0  0
 19 16  1  0  0  0  0
 20 21  1  0  0  0  0
 20 17  1  0  0  0  0
 21  4  1  0  0  0  0
 22 20  2  0  0  0  0
 23 25  1  0  0  0  0
 25 24  2  0  0  0  0
 26 24  1  0  0  0  0
 27 26  2  0  0  0  0
 28 27  1  0  0  0  0
 28 23  2  0  0  0  0
 29 30  1  0  0  0  0
 29 31  1  0  0  0  0
 30 31  1  0  0  0  0
 31 28  1  0  0  0  0
M  END
>  <MODEL>
1

>  <REMARK>
 VINA RESULT:      -9.1      0.000      0.000
  Name = 
  3 active torsions:
  status: ('A' for Active; 'I' for Inactive)
    1  A    between atoms: C_4  and  C_5
    2  A    between atoms: C_9  and  C_22
    3  A    between atoms: C_30  and  C_31
                            x       y       z     vdW  Elec       q    Type
                         _______ _______ _______ _____ _____    ______ ____

>  <TORSDO>
F 3

$$$$
=
 OpenBabel11052422333D

 31 35  0  0  1  0  0  0  0  0999 V2000
  162.6340  212.2790  148.6630 C   0  0  1  0  0  3  0  0  0  0  0  0
  161.1140  209.7530  151.7960 C   0  0  1  0  0  3  0  0  0  0  0  0
  160.9290  206.5340  147.6280 O   0  0  0  0  0  0  0  0  0  0  0  0
  161.2230  205.8170  148.6220 C   0  0  0  0  0  0  0  0  0  0  0  0
  161.5900  210.7240  150.7170 C   0  0  2  0  0  3  0  0  0  0  0  0
  163.1720  213.0080  147.4510 C   0  0  0  0  0  1  0  0  0  0  0  0
  161.7280  207.8300  150.1180 C   0  0  0  0  0  0  0  0  0  0  0  0
  161.1670  213.1580  149.3160 S   0  0  0  0  0  0  0  0  0  0  0  0
  161.4500  208.6940  149.1840 N   0  0  0  0  0  0  0  0  0  0  0  0
  162.2450  208.3380  151.7590 S   0  0  0  0  0  0  0  0  0  0  0  0
  161.6220  206.4240  149.8590 N   0  0  0  0  0  2  0  0  0  0  0  0
  160.9080  212.0950  150.8000 C   0  0  0  0  0  2  0  0  0  0  0  0
  161.3910  210.1540  149.3070 C   0  0  2  0  0  3  0  0  0  0  0  0
  162.3110  210.8290  148.2900 C   0  0  0  0  0  2  0  0  0  0  0  0
  161.0710  201.5440  148.2520 C   0  0  0  0  0  0  0  0  0  0  0  0
  161.5170  203.7250  147.3120 C   0  0  0  0  0  3  0  0  0  0  0  0
  160.4010  204.0720  150.7970 F   0  0  0  0  0  0  0  0  0  0  0  0
  161.0260  200.1960  148.1230 F   0  0  0  0  0  0  0  0  0  0  0  0
  161.4730  202.3360  147.1760 C   0  0  0  0  0  3  0  0  0  0  0  0
  160.7560  203.5320  149.6040 C   0  0  0  0  0  0  0  0  0  0  0  0
  161.1610  204.3410  148.5210 C   0  0  0  0  0  0  0  0  0  0  0  0
  160.7120  202.1410  149.4630 C   0  0  0  0  0  3  0  0  0  0  0  0
  161.1000  210.3590  153.1770 C   0  0  0  0  0  0  0  0  0  0  0  0
  162.2690  210.8890  155.2430 C   0  0  0  0  0  3  0  0  0  0  0  0
  162.2560  210.3090  153.9730 C   0  0  0  0  0  3  0  0  0  0  0  0
  161.1290  211.5300  155.7280 C   0  0  0  0  0  3  0  0  0  0  0  0
  159.9730  211.5840  154.9470 C   0  0  0  0  0  3  0  0  0  0  0  0
  159.9370  210.9860  153.6770 C   0  0  0  0  0  0  0  0  0  0  0  0
  158.2240  212.5490  152.7440 C   0  0  0  0  0  2  0  0  0  0  0  0
  157.5320  211.6010  153.6930 C   0  0  0  0  0  2  0  0  0  0  0  0
  158.6900  211.1040  152.8400 C   0  0  0  0  0  3  0  0  0  0  0  0
  1  6  1  6  0  0  0
  1  8  1  0  0  0  0
  2 23  1  1  0  0  0
  3  4  2  0  0  0  0
  4 11  1  0  0  0  0
  5 12  1  6  0  0  0
  5  2  1  0  0  0  0
  7 10  1  0  0  0  0
  8 12  1  0  0  0  0
  9 13  1  0  0  0  0
  9  7  2  0  0  0  0
 10  2  1  0  0  0  0
 11  7  1  0  0  0  0
 13 14  1  6  0  0  0
 13  5  1  0  0  0  0
 14  1  1  0  0  0  0
 15 22  1  0  0  0  0
 16 21  2  0  0  0  0
 18 15  1  0  0  0  0
 19 16  1  0  0  0  0
 19 15  2  0  0  0  0
 20 17  1  0  0  0  0
 21  4  1  0  0  0  0
 21 20  1  0  0  0  0
 22 20  2  0  0  0  0
 23 28  2  0  0  0  0
 23 25  1  0  0  0  0
 24 26  1  0  0  0  0
 25 24  2  0  0  0  0
 27 26  2  0  0  0  0
 28 27  1  0  0  0  0
 29 31  1  0  0  0  0
 29 30  1  0  0  0  0
 31 28  1  0  0  0  0
 31 30  1  0  0  0  0
M  END
>  <MODEL>
2

>  <REMARK>
 VINA RESULT:      -8.3      4.008      7.980
  Name = 
  3 active torsions:
  status: ('A' for Active; 'I' for Inactive)
    1  A    between atoms: C_4  and  C_5
    2  A    between atoms: C_9  and  C_22
    3  A    between atoms: C_30  and  C_31
                            x       y       z     vdW  Elec       q    Type
                         _______ _______ _______ _____ _____    ______ ____

>  <TORSDO>
F 3

$$$$
=
 OpenBabel11052422333D

 31 35  0  0  1  0  0  0  0  0999 V2000
  162.4650  211.9610  149.0320 C   0  0  1  0  0  3  0  0  0  0  0  0
  160.8310  209.4240  152.0970 C   0  0  1  0  0  3  0  0  0  0  0  0
  160.9230  206.1800  147.9450 O   0  0  0  0  0  0  0  0  0  0  0  0
  161.1790  205.4740  148.9580 C   0  0  0  0  0  0  0  0  0  0  0  0
  161.3440  210.3980  151.0380 C   0  0  2  0  0  3  0  0  0  0  0  0
  163.0510  212.6940  147.8450 C   0  0  0  0  0  1  0  0  0  0  0  0
  161.5680  207.5040  150.4650 C   0  0  0  0  0  0  0  0  0  0  0  0
  160.9500  212.8150  149.6020 S   0  0  0  0  0  0  0  0  0  0  0  0
  161.3220  208.3570  149.5130 N   0  0  0  0  0  0  0  0  0  0  0  0
  161.9890  208.0300  152.1280 S   0  0  0  0  0  0  0  0  0  0  0  0
  161.5010  206.0950  150.2100 N   0  0  0  0  0  2  0  0  0  0  0  0
  160.6330  211.7560  151.0780 C   0  0  0  0  0  2  0  0  0  0  0  0
  161.2300  209.8170  149.6240 C   0  0  2  0  0  3  0  0  0  0  0  0
  162.1880  210.5040  148.6520 C   0  0  0  0  0  2  0  0  0  0  0  0
  161.1200  201.1970  148.6050 C   0  0  0  0  0  0  0  0  0  0  0  0
  161.5030  203.3840  147.6510 C   0  0  0  0  0  3  0  0  0  0  0  0
  160.4280  203.7190  151.1500 F   0  0  0  0  0  0  0  0  0  0  0  0
  161.1050  199.8470  148.4810 F   0  0  0  0  0  0  0  0  0  0  0  0
  161.4890  201.9940  147.5210 C   0  0  0  0  0  3  0  0  0  0  0  0
  160.7780  203.1820  149.9540 C   0  0  0  0  0  0  0  0  0  0  0  0
  161.1490  203.9960  148.8630 C   0  0  0  0  0  0  0  0  0  0  0  0
  160.7650  201.7900  149.8180 C   0  0  0  0  0  3  0  0  0  0  0  0
  160.7340  210.0360  153.4710 C   0  0  0  0  0  0  0  0  0  0  0  0
  160.4890  212.0100  154.8720 C   0  0  0  0  0  3  0  0  0  0  0  0
  160.6070  211.4290  153.6080 C   0  0  0  0  0  3  0  0  0  0  0  0
  160.4900  211.2060  156.0120 C   0  0  0  0  0  3  0  0  0  0  0  0
  160.6190  209.8210  155.8890 C   0  0  0  0  0  3  0  0  0  0  0  0
  160.7610  209.2230  154.6270 C   0  0  0  0  0  0  0  0  0  0  0  0
  159.7400  207.0500  155.3220 C   0  0  0  0  0  2  0  0  0  0  0  0
  161.1350  207.1220  155.8930 C   0  0  0  0  0  2  0  0  0  0  0  0
  160.8480  207.7230  154.5260 C   0  0  0  0  0  3  0  0  0  0  0  0
  1  6  1  6  0  0  0
  1  8  1  0  0  0  0
  2 10  1  0  0  0  0
  2 23  1  1  0  0  0
  3  4  2  0  0  0  0
  4 11  1  0  0  0  0
  5 12  1  6  0  0  0
  5  2  1  0  0  0  0
  7 10  1  0  0  0  0
  8 12  1  0  0  0  0
  9 13  1  0  0  0  0
  9  7  2  0  0  0  0
 11  7  1  0  0  0  0
 13 14  1  6  0  0  0
 13  5  1  0  0  0  0
 14  1  1  0  0  0  0
 15 22  1  0  0  0  0
 16 21  2  0  0  0  0
 18 15  1  0  0  0  0
 19 16  1  0  0  0  0
 19 15  2  0  0  0  0
 20 17  1  0  0  0  0
 21  4  1  0  0  0  0
 21 20  1  0  0  0  0
 22 20  2  0  0  0  0
 23 25  2  0  0  0  0
 23 28  1  0  0  0  0
 24 26  2  0  0  0  0
 25 24  1  0  0  0  0
 27 26  1  0  0  0  0
 28 27  2  0  0  0  0
 29 30  1  0  0  0  0
 31 28  1  0  0  0  0
 31 29  1  0  0  0  0
 31 30  1  0  0  0  0
M  END
>  <MODEL>
3

>  <REMARK>
 VINA RESULT:      -7.0      4.012      7.980
  Name = 
  3 active torsions:
  status: ('A' for Active; 'I' for Inactive)
    1  A    between atoms: C_4  and  C_5
    2  A    between atoms: C_9  and  C_22
    3  A    between atoms: C_30  and  C_31
                            x       y       z     vdW  Elec       q    Type
                         _______ _______ _______ _____ _____    ______ ____

>  <TORSDO>
F 3

$$$$
=
 OpenBabel11052422333D

 31 35  0  0  1  0  0  0  0  0999 V2000
  162.6620  212.3140  148.7180 C   0  0  1  0  0  3  0  0  0  0  0  0
  160.5590  210.2370  151.8440 C   0  0  1  0  0  3  0  0  0  0  0  0
  161.1160  206.4540  148.2180 O   0  0  0  0  0  0  0  0  0  0  0  0
  161.2140  205.8900  149.3420 C   0  0  0  0  0  0  0  0  0  0  0  0
  161.2380  211.0510  150.7440 C   0  0  2  0  0  3  0  0  0  0  0  0
  163.4230  212.8710  147.5350 C   0  0  0  0  0  1  0  0  0  0  0  0
  161.4540  208.1040  150.6010 C   0  0  0  0  0  0  0  0  0  0  0  0
  161.1090  213.2530  148.9550 S   0  0  0  0  0  0  0  0  0  0  0  0
  161.3630  208.8210  149.5180 N   0  0  0  0  0  0  0  0  0  0  0  0
  161.6620  208.8490  152.2200 S   0  0  0  0  0  0  0  0  0  0  0  0
  161.3820  206.6740  150.5320 N   0  0  0  0  0  2  0  0  0  0  0  0
  160.5670  212.4090  150.5020 C   0  0  0  0  0  2  0  0  0  0  0  0
  161.2980  210.2830  149.4180 C   0  0  2  0  0  3  0  0  0  0  0  0
  162.3980  210.8210  148.5030 C   0  0  0  0  0  2  0  0  0  0  0  0
  161.0330  201.6190  149.7190 C   0  0  0  0  0  0  0  0  0  0  0  0
  161.0130  203.8240  150.7090 C   0  0  0  0  0  3  0  0  0  0  0  0
  161.3730  204.0960  147.0610 F   0  0  0  0  0  0  0  0  0  0  0  0
  160.9760  200.2720  149.8510 F   0  0  0  0  0  0  0  0  0  0  0  0
  160.9520  202.4360  150.8470 C   0  0  0  0  0  3  0  0  0  0  0  0
  161.2360  203.5800  148.3080 C   0  0  0  0  0  0  0  0  0  0  0  0
  161.1550  204.4140  149.4430 C   0  0  0  0  0  0  0  0  0  0  0  0
  161.1760  202.1900  148.4530 C   0  0  0  0  0  3  0  0  0  0  0  0
  160.2960  211.0330  153.0970 C   0  0  0  0  0  0  0  0  0  0  0  0
  159.4240  213.0410  154.1570 C   0  0  0  0  0  3  0  0  0  0  0  0
  159.7000  212.3020  153.0060 C   0  0  0  0  0  3  0  0  0  0  0  0
  159.7350  212.5180  155.4120 C   0  0  0  0  0  3  0  0  0  0  0  0
  160.3310  211.2590  155.5160 C   0  0  0  0  0  3  0  0  0  0  0  0
  160.6350  210.5130  154.3660 C   0  0  0  0  0  0  0  0  0  0  0  0
  160.3190  208.2220  155.3140 C   0  0  0  0  0  2  0  0  0  0  0  0
  161.5210  208.8480  155.9790 C   0  0  0  0  0  2  0  0  0  0  0  0
  161.2330  209.1380  154.5140 C   0  0  0  0  0  3  0  0  0  0  0  0
  1  6  1  6  0  0  0
  1  8  1  0  0  0  0
  2 10  1  0  0  0  0
  2 23  1  1  0  0  0
  3  4  2  0  0  0  0
  4 21  1  0  0  0  0
  4 11  1  0  0  0  0
  5 12  1  6  0  0  0
  5  2  1  0  0  0  0
  7 10  1  0  0  0  0
  8 12  1  0  0  0  0
  9  7  2  0  0  0  0
 11  7  1  0  0  0  0
 13 14  1  1  0  0  0
 13  9  1  0  0  0  0
 13  5  1  0  0  0  0
 14  1  1  0  0  0  0
 15 18  1  0  0  0  0
 15 19  1  0  0  0  0
 16 19  2  0  0  0  0
 17 20  1  0  0  0  0
 20 22  1  0  0  0  0
 20 21  2  0  0  0  0
 21 16  1  0  0  0  0
 22 15  2  0  0  0  0
 23 28  1  0  0  0  0
 24 26  2  0  0  0  0
 25 23  2  0  0  0  0
 25 24  1  0  0  0  0
 26 27  1  0  0  0  0
 28 31  1  0  0  0  0
 28 27  2  0  0  0  0
 29 30  1  0  0  0  0
 31 29  1  0  0  0  0
 31 30  1  0  0  0  0
M  END
>  <MODEL>
4

>  <REMARK>
 VINA RESULT:      -6.1      3.903      8.174
  Name = 
  3 active torsions:
  status: ('A' for Active; 'I' for Inactive)
    1  A    between atoms: C_4  and  C_5
    2  A    between atoms: C_9  and  C_22
    3  A    between atoms: C_30  and  C_31
                            x       y       z     vdW  Elec       q    Type
                         _______ _______ _______ _____ _____    ______ ____

>  <TORSDO>
F 3

$$$$
