=
 OpenBabel11062408173D

 32 34  0  0  1  0  0  0  0  0999 V2000
  161.0270  210.7750  154.5370 C   0  0  2  0  0  3  0  0  0  0  0  0
  158.5860  211.0540  155.3760 C   0  0  2  0  0  3  0  0  0  0  0  0
  160.0500  211.5190  155.4740 C   0  0  2  0  0  3  0  0  0  0  0  0
  157.7860  211.8470  154.3200 C   0  0  1  0  0  3  0  0  0  0  0  0
  157.0950  212.2030  157.1230 C   0  0  1  0  0  3  0  0  0  0  0  0
  155.8420  212.3550  156.2300 C   0  0  2  0  0  3  0  0  0  0  0  0
  160.1810  212.9270  155.4240 O   0  0  0  0  0  0  0  0  0  0  0  0
  155.9830  211.6140  154.5440 S   0  0  0  0  0  0  0  0  0  0  0  0
  159.6080  213.3880  154.2250 C   0  0  0  0  0  2  0  0  0  0  0  0
  157.9370  210.9790  156.7650 C   0  0  0  0  0  2  0  0  0  0  0  0
  158.1520  213.2720  154.2920 N   0  0  0  0  0  0  0  0  0  0  0  0
  157.8840  213.3560  157.1400 O   0  0  0  0  0  1  0  0  0  0  0  0
  155.2640  213.7810  156.2020 C   0  0  0  0  0  3  0  0  0  0  0  0
  154.6440  214.0940  154.8510 C   0  0  0  0  0  1  0  0  0  0  0  0
  154.1870  213.9500  157.2580 C   0  0  0  0  0  1  0  0  0  0  0  0
  157.5720  213.9400  153.1190 C   0  0  0  0  0  2  0  0  0  0  0  0
  158.1330  213.4320  151.7900 C   0  0  0  0  0  1  0  0  0  0  0  0
  160.3960  209.4340  154.1280 C   0  0  1  0  0  3  0  0  0  0  0  0
  160.5660  209.0350  152.6530 C   0  0  2  0  0  3  0  0  0  0  0  0
  161.4260  208.3950  153.7210 C   0  0  2  0  0  3  0  0  0  0  0  0
  162.9300  210.2660  152.2310 O   0  0  0  0  0  0  0  0  0  0  0  0
  160.9190  211.4410  151.5170 O   0  0  0  0  0  0  0  0  0  0  0  0
  161.5780  210.0920  151.6040 S   0  0  0  0  0  0  0  0  0  0  0  0
  162.0790  208.0240  150.1270 C   0  0  0  0  0  1  0  0  0  0  0  0
  161.7800  209.4420  150.0070 N   0  0  0  0  0  2  0  0  0  0  0  0
  160.8900  207.0100  154.0290 C   0  0  0  0  0  2  0  0  0  0  0  0
  161.5810  205.9760  153.1590 C   0  0  0  0  0  2  0  0  0  0  0  0
  161.0870  204.0970  152.1140 C   0  0  0  0  0  1  0  0  0  0  0  0
  161.0050  204.7200  153.3590 O   0  0  0  0  0  0  0  0  0  0  0  0
  162.3380  210.4980  155.2790 C   0  0  0  0  0  2  0  0  0  0  0  0
  162.4020  208.9210  157.0770 O   0  0  0  0  0  1  0  0  0  0  0  0
  162.1210  210.2510  156.7630 C   0  0  0  0  0  2  0  0  0  0  0  0
  1 30  1  1  0  0  0
  2  3  1  0  0  0  0
  2 10  1  1  0  0  0
  3  1  1  6  0  0  0
  4  8  1  1  0  0  0
  4  2  1  0  0  0  0
  5 12  1  6  0  0  0
  6 13  1  6  0  0  0
  6  5  1  0  0  0  0
  7  3  1  0  0  0  0
  8  6  1  0  0  0  0
  9 11  1  0  0  0  0
  9  7  1  0  0  0  0
 10  5  1  0  0  0  0
 11  4  1  0  0  0  0
 13 15  1  0  0  0  0
 14 13  1  0  0  0  0
 16 11  1  0  0  0  0
 17 16  1  0  0  0  0
 18  1  1  6  0  0  0
 19 23  1  6  0  0  0
 19 20  1  0  0  0  0
 19 18  1  0  0  0  0
 20 26  1  1  0  0  0
 20 18  1  0  0  0  0
 22 23  2  0  0  0  0
 23 21  2  0  0  0  0
 25 24  1  0  0  0  0
 25 23  1  0  0  0  0
 27 29  1  0  0  0  0
 27 26  1  0  0  0  0
 28 29  1  0  0  0  0
 30 32  1  0  0  0  0
 32 31  1  0  0  0  0
M  END
>  <MODEL>
1

>  <REMARK>
 VINA RESULT:      -4.2      0.000      0.000
  Name = 
  11 active torsions:
  status: ('A' for Active; 'I' for Inactive)
    1  A    between atoms: C_1  and  C_4
    2  A    between atoms: C_1  and  C_5
    3  A    between atoms: C_1  and  C_16
    4  A    between atoms: C_4  and  C_30
    5  A    between atoms: C_9  and  C_12
    6  A    between atoms: C_13  and  N_29
    7  A    between atoms: S_15  and  C_20
    8  A    between atoms: S_15  and  N_26
    9  A    between atoms: O_22  and  C_23
   10  A    between atoms: C_23  and  C_24
   11  A    between atoms: C_24  and  C_27
                            x       y       z     vdW  Elec       q    Type
                         _______ _______ _______ _____ _____    ______ ____

>  <TORSDO>
F 11

$$$$
=
 OpenBabel11062408173D

 32 34  0  0  1  0  0  0  0  0999 V2000
  161.0090  208.4160  152.8540 C   0  0  2  0  0  3  0  0  0  0  0  0
  161.0570  207.8880  150.3120 C   0  0  2  0  0  3  0  0  0  0  0  0
  161.8610  208.0700  151.6120 C   0  0  2  0  0  3  0  0  0  0  0  0
  160.6030  206.4280  150.1000 C   0  0  1  0  0  3  0  0  0  0  0  0
  162.5850  207.5320  148.2800 C   0  0  1  0  0  3  0  0  0  0  0  0
  161.6930  206.5000  147.5520 C   0  0  2  0  0  3  0  0  0  0  0  0
  162.7840  207.0220  151.8340 O   0  0  0  0  0  0  0  0  0  0  0  0
  160.0750  206.1440  148.3690 S   0  0  0  0  0  0  0  0  0  0  0  0
  162.0810  205.8050  151.8690 C   0  0  0  0  0  2  0  0  0  0  0  0
  161.7830  208.5250  149.1200 C   0  0  0  0  0  2  0  0  0  0  0  0
  161.6230  205.4560  150.5250 N   0  0  0  0  0  0  0  0  0  0  0  0
  163.5830  206.9280  149.0490 O   0  0  0  0  0  1  0  0  0  0  0  0
  162.4350  205.2200  147.1290 C   0  0  0  0  0  3  0  0  0  0  0  0
  161.5550  203.9940  147.3030 C   0  0  0  0  0  1  0  0  0  0  0  0
  162.8490  205.2900  145.6700 C   0  0  0  0  0  1  0  0  0  0  0  0
  161.0710  204.0950  150.5550 C   0  0  0  0  0  2  0  0  0  0  0  0
  160.9340  203.5230  151.9660 C   0  0  0  0  0  1  0  0  0  0  0  0
  161.8300  209.3270  153.7800 C   0  0  1  0  0  3  0  0  0  0  0  0
  161.5870  210.8370  153.6240 C   0  0  2  0  0  3  0  0  0  0  0  0
  160.9730  210.0800  154.7820 C   0  0  2  0  0  3  0  0  0  0  0  0
  159.1240  210.4410  152.5970 O   0  0  0  0  0  0  0  0  0  0  0  0
  160.8370  211.2880  151.0870 O   0  0  0  0  0  0  0  0  0  0  0  0
  160.2960  211.3700  152.4870 S   0  0  0  0  0  0  0  0  0  0  0  0
  158.3260  212.9560  153.0480 C   0  0  0  0  0  1  0  0  0  0  0  0
  159.7590  212.9890  152.8080 N   0  0  0  0  0  2  0  0  0  0  0  0
  161.7830  210.3460  156.0360 C   0  0  0  0  0  2  0  0  0  0  0  0
  161.1780  211.4970  156.8170 C   0  0  0  0  0  2  0  0  0  0  0  0
  159.8860  213.2480  156.4530 C   0  0  0  0  0  1  0  0  0  0  0  0
  159.9560  211.8700  156.2540 O   0  0  0  0  0  0  0  0  0  0  0  0
  160.6590  207.1300  153.6090 C   0  0  0  0  0  2  0  0  0  0  0  0
  160.1590  206.9420  155.9410 O   0  0  0  0  0  1  0  0  0  0  0  0
  161.1990  207.1300  155.0300 C   0  0  0  0  0  2  0  0  0  0  0  0
  1 30  1  1  0  0  0
  2 10  1  6  0  0  0
  2  3  1  0  0  0  0
  3  7  1  0  0  0  0
  3  1  1  1  0  0  0
  4  8  1  6  0  0  0
  4  2  1  0  0  0  0
  4 11  1  0  0  0  0
  5 12  1  1  0  0  0
  5 10  1  0  0  0  0
  6 13  1  1  0  0  0
  6  5  1  0  0  0  0
  6  8  1  0  0  0  0
  7  9  1  0  0  0  0
 11 16  1  0  0  0  0
 11  9  1  0  0  0  0
 13 14  1  0  0  0  0
 15 13  1  0  0  0  0
 16 17  1  0  0  0  0
 18  1  1  6  0  0  0
 18 20  1  0  0  0  0
 19 23  1  6  0  0  0
 19 18  1  0  0  0  0
 19 20  1  0  0  0  0
 20 26  1  1  0  0  0
 22 23  2  0  0  0  0
 23 21  2  0  0  0  0
 23 25  1  0  0  0  0
 25 24  1  0  0  0  0
 26 27  1  0  0  0  0
 29 28  1  0  0  0  0
 29 27  1  0  0  0  0
 30 32  1  0  0  0  0
 32 31  1  0  0  0  0
M  END
>  <MODEL>
2

>  <REMARK>
 VINA RESULT:      -3.9      2.623      8.312
  Name = 
  11 active torsions:
  status: ('A' for Active; 'I' for Inactive)
    1  A    between atoms: C_1  and  C_4
    2  A    between atoms: C_1  and  C_5
    3  A    between atoms: C_1  and  C_16
    4  A    between atoms: C_4  and  C_30
    5  A    between atoms: C_9  and  C_12
    6  A    between atoms: C_13  and  N_29
    7  A    between atoms: S_15  and  C_20
    8  A    between atoms: S_15  and  N_26
    9  A    between atoms: O_22  and  C_23
   10  A    between atoms: C_23  and  C_24
   11  A    between atoms: C_24  and  C_27
                            x       y       z     vdW  Elec       q    Type
                         _______ _______ _______ _____ _____    ______ ____

>  <TORSDO>
F 11

$$$$
=
 OpenBabel11062408173D

 32 34  0  0  1  0  0  0  0  0999 V2000
  161.9550  208.9900  152.0770 C   0  0  2  0  0  3  0  0  0  0  0  0
  161.0560  207.4760  150.1700 C   0  0  2  0  0  3  0  0  0  0  0  0
  162.2700  208.1820  150.7990 C   0  0  2  0  0  3  0  0  0  0  0  0
  160.8520  206.0490  150.7230 C   0  0  1  0  0  3  0  0  0  0  0  0
  161.6500  206.3450  147.9430 C   0  0  1  0  0  3  0  0  0  0  0  0
  160.7590  205.0940  148.1220 C   0  0  2  0  0  3  0  0  0  0  0  0
  163.3900  207.3270  150.9330 O   0  0  0  0  0  0  0  0  0  0  0  0
  159.7250  205.0790  149.6530 S   0  0  0  0  0  0  0  0  0  0  0  0
  163.0170  206.2190  151.7150 C   0  0  0  0  0  2  0  0  0  0  0  0
  161.0870  207.5830  148.6390 C   0  0  0  0  0  2  0  0  0  0  0  0
  162.1250  205.3480  150.9510 N   0  0  0  0  0  0  0  0  0  0  0  0
  162.9740  206.1200  148.3300 O   0  0  0  0  0  1  0  0  0  0  0  0
  161.4970  203.7640  147.8950 C   0  0  0  0  0  3  0  0  0  0  0  0
  160.8310  202.6310  148.6580 C   0  0  0  0  0  1  0  0  0  0  0  0
  161.5030  203.3910  146.4230 C   0  0  0  0  0  1  0  0  0  0  0  0
  161.9130  204.1090  151.7120 C   0  0  0  0  0  2  0  0  0  0  0  0
  160.9480  204.2720  152.8860 C   0  0  0  0  0  1  0  0  0  0  0  0
  160.4380  209.2200  152.1570 C   0  0  1  0  0  3  0  0  0  0  0  0
  159.7870  208.9410  153.5220 C   0  0  2  0  0  3  0  0  0  0  0  0
  160.0600  210.3640  153.0810 C   0  0  2  0  0  3  0  0  0  0  0  0
  161.6650  207.2910  154.5380 O   0  0  0  0  0  0  0  0  0  0  0  0
  160.0070  208.1800  156.0860 O   0  0  0  0  0  0  0  0  0  0  0  0
  160.8660  208.5090  154.8970 S   0  0  0  0  0  0  0  0  0  0  0  0
  162.3510  209.6300  156.7000 C   0  0  0  0  0  1  0  0  0  0  0  0
  161.9590  209.7930  155.3090 N   0  0  0  0  0  2  0  0  0  0  0  0
  158.7660  210.9910  152.5990 C   0  0  0  0  0  2  0  0  0  0  0  0
  158.7500  212.4740  152.9230 C   0  0  0  0  0  2  0  0  0  0  0  0
  158.8270  213.5540  151.0010 C   0  0  0  0  0  1  0  0  0  0  0  0
  159.6220  213.1600  152.0770 O   0  0  0  0  0  0  0  0  0  0  0  0
  162.6580  210.3500  152.0090 C   0  0  0  0  0  2  0  0  0  0  0  0
  161.6560  211.4430  150.1320 O   0  0  0  0  0  1  0  0  0  0  0  0
  162.8310  210.8390  150.5800 C   0  0  0  0  0  2  0  0  0  0  0  0
  1 30  1  6  0  0  0
  2 10  1  6  0  0  0
  2  4  1  0  0  0  0
  2  3  1  0  0  0  0
  3  7  1  0  0  0  0
  3  1  1  1  0  0  0
  4  8  1  6  0  0  0
  4 11  1  0  0  0  0
  5  6  1  0  0  0  0
  5 12  1  1  0  0  0
  5 10  1  0  0  0  0
  6 13  1  1  0  0  0
  6  8  1  0  0  0  0
  7  9  1  0  0  0  0
 11 16  1  0  0  0  0
 11  9  1  0  0  0  0
 13 14  1  0  0  0  0
 15 13  1  0  0  0  0
 16 17  1  0  0  0  0
 18  1  1  1  0  0  0
 18 20  1  0  0  0  0
 18 19  1  0  0  0  0
 19 23  1  1  0  0  0
 20 26  1  6  0  0  0
 20 19  1  0  0  0  0
 21 23  2  0  0  0  0
 23 25  1  0  0  0  0
 23 22  2  0  0  0  0
 25 24  1  0  0  0  0
 26 27  1  0  0  0  0
 28 29  1  0  0  0  0
 29 27  1  0  0  0  0
 31 32  1  0  0  0  0
 32 30  1  0  0  0  0
M  END
>  <MODEL>
3

>  <REMARK>
 VINA RESULT:      -2.7      3.318      8.627
  Name = 
  11 active torsions:
  status: ('A' for Active; 'I' for Inactive)
    1  A    between atoms: C_1  and  C_4
    2  A    between atoms: C_1  and  C_5
    3  A    between atoms: C_1  and  C_16
    4  A    between atoms: C_4  and  C_30
    5  A    between atoms: C_9  and  C_12
    6  A    between atoms: C_13  and  N_29
    7  A    between atoms: S_15  and  C_20
    8  A    between atoms: S_15  and  N_26
    9  A    between atoms: O_22  and  C_23
   10  A    between atoms: C_23  and  C_24
   11  A    between atoms: C_24  and  C_27
                            x       y       z     vdW  Elec       q    Type
                         _______ _______ _______ _____ _____    ______ ____

>  <TORSDO>
F 11

$$$$
=
 OpenBabel11062408173D

 32 34  0  0  1  0  0  0  0  0999 V2000
  161.7600  206.8960  150.9490 C   0  0  2  0  0  3  0  0  0  0  0  0
  161.8190  209.1910  152.1620 C   0  0  2  0  0  3  0  0  0  0  0  0
  160.9580  208.0780  151.5380 C   0  0  2  0  0  3  0  0  0  0  0  0
  162.0930  208.9530  153.6630 C   0  0  1  0  0  3  0  0  0  0  0  0
  160.4010  211.1960  152.9120 C   0  0  1  0  0  3  0  0  0  0  0  0
  161.2000  211.5220  154.1950 C   0  0  2  0  0  3  0  0  0  0  0  0
  159.8930  207.6760  152.3780 O   0  0  0  0  0  0  0  0  0  0  0  0
  162.6980  210.4780  154.4760 S   0  0  0  0  0  0  0  0  0  0  0  0
  160.4280  207.2410  153.6040 C   0  0  0  0  0  2  0  0  0  0  0  0
  161.2650  210.5790  151.8130 C   0  0  0  0  0  2  0  0  0  0  0  0
  160.9290  208.3870  154.3630 N   0  0  0  0  0  0  0  0  0  0  0  0
  159.2820  210.3980  153.1670 O   0  0  0  0  0  1  0  0  0  0  0  0
  160.3290  211.6560  155.4560 C   0  0  0  0  0  3  0  0  0  0  0  0
  161.1640  211.5090  156.7170 C   0  0  0  0  0  1  0  0  0  0  0  0
  159.6500  213.0130  155.5050 C   0  0  0  0  0  1  0  0  0  0  0  0
  161.2960  207.9330  155.7110 C   0  0  0  0  0  2  0  0  0  0  0  0
  160.1180  207.3760  156.5090 C   0  0  0  0  0  1  0  0  0  0  0  0
  160.7740  205.8260  150.4550 C   0  0  1  0  0  3  0  0  0  0  0  0
  160.5430  205.7750  148.9360 C   0  0  2  0  0  3  0  0  0  0  0  0
  161.4380  204.7550  149.6080 C   0  0  2  0  0  3  0  0  0  0  0  0
  162.9820  206.6810  148.2220 O   0  0  0  0  0  0  0  0  0  0  0  0
  161.1510  208.2860  148.2100 O   0  0  0  0  0  0  0  0  0  0  0  0
  161.5300  206.8660  147.8970 S   0  0  0  0  0  0  0  0  0  0  0  0
  162.3070  205.6180  145.7640 C   0  0  0  0  0  1  0  0  0  0  0  0
  161.2920  206.5610  146.2050 N   0  0  0  0  0  2  0  0  0  0  0  0
  160.6790  203.4520  149.7600 C   0  0  0  0  0  2  0  0  0  0  0  0
  160.9130  202.5640  148.5510 C   0  0  0  0  0  2  0  0  0  0  0  0
  161.3870  200.5360  147.8240 C   0  0  0  0  0  1  0  0  0  0  0  0
  160.8850  201.2210  148.9300 O   0  0  0  0  0  0  0  0  0  0  0  0
  162.6480  206.2860  152.0390 C   0  0  0  0  0  2  0  0  0  0  0  0
  161.3780  204.6130  153.1840 O   0  0  0  0  0  1  0  0  0  0  0  0
  162.3830  204.8020  152.2350 C   0  0  0  0  0  2  0  0  0  0  0  0
  1 30  1  1  0  0  0
  2 10  1  1  0  0  0
  2  4  1  0  0  0  0
  3  1  1  1  0  0  0
  3  2  1  0  0  0  0
  3  7  1  0  0  0  0
  4 11  1  0  0  0  0
  4  8  1  1  0  0  0
  5 12  1  1  0  0  0
  5  6  1  0  0  0  0
  6  8  1  0  0  0  0
  6 13  1  1  0  0  0
  7  9  1  0  0  0  0
  9 11  1  0  0  0  0
 10  5  1  0  0  0  0
 11 16  1  0  0  0  0
 13 15  1  0  0  0  0
 13 14  1  0  0  0  0
 16 17  1  0  0  0  0
 18  1  1  6  0  0  0
 19 23  1  6  0  0  0
 19 20  1  0  0  0  0
 19 18  1  0  0  0  0
 20 26  1  1  0  0  0
 20 18  1  0  0  0  0
 23 22  2  0  0  0  0
 23 21  2  0  0  0  0
 24 25  1  0  0  0  0
 25 23  1  0  0  0  0
 27 29  1  0  0  0  0
 27 26  1  0  0  0  0
 28 29  1  0  0  0  0
 30 32  1  0  0  0  0
 32 31  1  0  0  0  0
M  END
>  <MODEL>
4

>  <REMARK>
 VINA RESULT:      -2.4      3.367      5.777
  Name = 
  11 active torsions:
  status: ('A' for Active; 'I' for Inactive)
    1  A    between atoms: C_1  and  C_4
    2  A    between atoms: C_1  and  C_5
    3  A    between atoms: C_1  and  C_16
    4  A    between atoms: C_4  and  C_30
    5  A    between atoms: C_9  and  C_12
    6  A    between atoms: C_13  and  N_29
    7  A    between atoms: S_15  and  C_20
    8  A    between atoms: S_15  and  N_26
    9  A    between atoms: O_22  and  C_23
   10  A    between atoms: C_23  and  C_24
   11  A    between atoms: C_24  and  C_27
                            x       y       z     vdW  Elec       q    Type
                         _______ _______ _______ _____ _____    ______ ____

>  <TORSDO>
F 11

$$$$
=
 OpenBabel11062408173D

 32 34  0  0  1  0  0  0  0  0999 V2000
  161.1920  209.7050  152.6650 C   0  0  2  0  0  3  0  0  0  0  0  0
  161.1750  208.5750  150.3270 C   0  0  2  0  0  3  0  0  0  0  0  0
  161.9970  208.9790  151.5640 C   0  0  2  0  0  3  0  0  0  0  0  0
  160.5630  207.1640  150.4630 C   0  0  1  0  0  3  0  0  0  0  0  0
  162.6490  207.5740  148.4790 C   0  0  1  0  0  3  0  0  0  0  0  0
  161.6470  206.4980  148.0000 C   0  0  2  0  0  3  0  0  0  0  0  0
  162.8000  207.9230  152.0550 O   0  0  0  0  0  0  0  0  0  0  0  0
  160.0020  206.5270  148.8400 S   0  0  0  0  0  0  0  0  0  0  0  0
  161.9670  206.8340  152.3660 C   0  0  0  0  0  2  0  0  0  0  0  0
  161.9640  208.8210  149.0350 C   0  0  0  0  0  2  0  0  0  0  0  0
  161.4700  206.2200  151.1350 N   0  0  0  0  0  0  0  0  0  0  0  0
  163.5770  207.0700  149.3950 O   0  0  0  0  0  1  0  0  0  0  0  0
  162.2420  205.0820  147.9170 C   0  0  0  0  0  3  0  0  0  0  0  0
  161.1630  204.0240  148.0730 C   0  0  0  0  0  1  0  0  0  0  0  0
  162.9230  204.8570  146.5790 C   0  0  0  0  0  1  0  0  0  0  0  0
  160.7710  204.9750  151.4790 C   0  0  0  0  0  2  0  0  0  0  0  0
  161.7100  203.7850  151.6830 C   0  0  0  0  0  1  0  0  0  0  0  0
  160.1550  210.6230  151.9960 C   0  0  1  0  0  3  0  0  0  0  0  0
  158.9850  211.0740  152.8860 C   0  0  2  0  0  3  0  0  0  0  0  0
  160.1300  212.0190  152.5910 C   0  0  2  0  0  3  0  0  0  0  0  0
  159.9680  211.4890  155.3650 O   0  0  0  0  0  0  0  0  0  0  0  0
  159.5170  209.1850  154.7170 O   0  0  0  0  0  0  0  0  0  0  0  0
  159.0150  210.5990  154.6230 S   0  0  0  0  0  0  0  0  0  0  0  0
  156.8080  211.9270  154.8990 C   0  0  0  0  0  1  0  0  0  0  0  0
  157.4510  210.7100  155.3660 N   0  0  0  0  0  2  0  0  0  0  0  0
  159.6960  213.0100  151.5290 C   0  0  0  0  0  2  0  0  0  0  0  0
  158.1840  213.1440  151.5220 C   0  0  0  0  0  2  0  0  0  0  0  0
  158.9150  213.7570  149.5340 C   0  0  0  0  0  1  0  0  0  0  0  0
  157.7520  213.6490  150.2950 O   0  0  0  0  0  0  0  0  0  0  0  0
  162.1390  210.5630  153.5110 C   0  0  0  0  0  2  0  0  0  0  0  0
  163.1640  210.7800  155.6610 O   0  0  0  0  0  1  0  0  0  0  0  0
  162.5410  209.8730  154.8040 C   0  0  0  0  0  2  0  0  0  0  0  0
  1 30  1  6  0  0  0
  2 10  1  6  0  0  0
  2  4  1  0  0  0  0
  2  3  1  0  0  0  0
  3  7  1  0  0  0  0
  3  1  1  1  0  0  0
  4  8  1  6  0  0  0
  4 11  1  0  0  0  0
  5 10  1  0  0  0  0
  5 12  1  1  0  0  0
  6 13  1  1  0  0  0
  6  5  1  0  0  0  0
  6  8  1  0  0  0  0
  7  9  1  0  0  0  0
 11 16  1  0  0  0  0
 11  9  1  0  0  0  0
 13 14  1  0  0  0  0
 15 13  1  0  0  0  0
 16 17  1  0  0  0  0
 18 20  1  0  0  0  0
 18  1  1  1  0  0  0
 18 19  1  0  0  0  0
 19 23  1  1  0  0  0
 20 26  1  6  0  0  0
 20 19  1  0  0  0  0
 23 22  2  0  0  0  0
 23 21  2  0  0  0  0
 23 25  1  0  0  0  0
 24 25  1  0  0  0  0
 27 26  1  0  0  0  0
 28 29  1  0  0  0  0
 29 27  1  0  0  0  0
 30 32  1  0  0  0  0
 32 31  1  0  0  0  0
M  END
>  <MODEL>
5

>  <REMARK>
 VINA RESULT:      -2.1      2.608      8.306
  Name = 
  11 active torsions:
  status: ('A' for Active; 'I' for Inactive)
    1  A    between atoms: C_1  and  C_4
    2  A    between atoms: C_1  and  C_5
    3  A    between atoms: C_1  and  C_16
    4  A    between atoms: C_4  and  C_30
    5  A    between atoms: C_9  and  C_12
    6  A    between atoms: C_13  and  N_29
    7  A    between atoms: S_15  and  C_20
    8  A    between atoms: S_15  and  N_26
    9  A    between atoms: O_22  and  C_23
   10  A    between atoms: C_23  and  C_24
   11  A    between atoms: C_24  and  C_27
                            x       y       z     vdW  Elec       q    Type
                         _______ _______ _______ _____ _____    ______ ____

>  <TORSDO>
F 11

$$$$
=
 OpenBabel11062408173D

 32 34  0  0  1  0  0  0  0  0999 V2000
  162.1710  207.5750  150.9240 C   0  0  2  0  0  3  0  0  0  0  0  0
  160.6870  208.7960  152.6690 C   0  0  2  0  0  3  0  0  0  0  0  0
  162.1090  208.4970  152.1610 C   0  0  2  0  0  3  0  0  0  0  0  0
  160.0800  210.0540  152.0100 C   0  0  1  0  0  3  0  0  0  0  0  0
  160.7110  210.1550  154.8470 C   0  0  1  0  0  3  0  0  0  0  0  0
  159.4830  211.0400  154.5320 C   0  0  2  0  0  3  0  0  0  0  0  0
  162.9020  209.6620  152.0390 O   0  0  0  0  0  0  0  0  0  0  0  0
  158.6220  210.6520  152.9440 S   0  0  0  0  0  0  0  0  0  0  0  0
  162.2570  210.5530  151.1640 C   0  0  0  0  0  2  0  0  0  0  0  0
  160.6310  208.7720  154.2020 C   0  0  0  0  0  2  0  0  0  0  0  0
  161.0750  211.1200  151.8130 N   0  0  0  0  0  0  0  0  0  0  0  0
  161.9180  210.7810  154.5260 O   0  0  0  0  0  1  0  0  0  0  0  0
  159.7350  212.5460  154.7140 C   0  0  0  0  0  3  0  0  0  0  0  0
  158.6840  213.3690  153.9880 C   0  0  0  0  0  1  0  0  0  0  0  0
  159.6920  212.9300  156.1820 C   0  0  0  0  0  1  0  0  0  0  0  0
  160.5370  212.1890  150.9600 C   0  0  0  0  0  2  0  0  0  0  0  0
  161.2050  212.2680  149.5870 C   0  0  0  0  0  1  0  0  0  0  0  0
  160.8770  206.7480  150.8560 C   0  0  1  0  0  3  0  0  0  0  0  0
  160.3170  206.4910  149.4470 C   0  0  2  0  0  3  0  0  0  0  0  0
  161.0700  205.4020  150.1810 C   0  0  2  0  0  3  0  0  0  0  0  0
  162.5860  206.3170  147.9970 O   0  0  0  0  0  0  0  0  0  0  0  0
  161.5790  208.5230  148.2300 O   0  0  0  0  0  0  0  0  0  0  0  0
  161.2840  207.0610  148.0390 S   0  0  0  0  0  0  0  0  0  0  0  0
  161.0990  205.7330  145.8230 C   0  0  0  0  0  1  0  0  0  0  0  0
  160.4570  206.8280  146.5310 N   0  0  0  0  0  2  0  0  0  0  0  0
  160.0760  204.4080  150.7510 C   0  0  0  0  0  2  0  0  0  0  0  0
  160.4570  202.9950  150.3480 C   0  0  0  0  0  2  0  0  0  0  0  0
  160.8320  201.7640  148.5560 C   0  0  0  0  0  1  0  0  0  0  0  0
  161.1170  203.0080  149.1180 O   0  0  0  0  0  0  0  0  0  0  0  0
  163.3620  206.6200  151.0550 C   0  0  0  0  0  2  0  0  0  0  0  0
  162.7060  205.9670  153.2620 O   0  0  0  0  0  1  0  0  0  0  0  0
  163.0780  205.4720  152.0120 C   0  0  0  0  0  2  0  0  0  0  0  0
  1 30  1  1  0  0  0
  2 10  1  1  0  0  0
  3  1  1  6  0  0  0
  3  2  1  0  0  0  0
  4  2  1  0  0  0  0
  4  8  1  1  0  0  0
  5 12  1  6  0  0  0
  6 13  1  6  0  0  0
  6  5  1  0  0  0  0
  7  3  1  0  0  0  0
  8  6  1  0  0  0  0
  9 11  1  0  0  0  0
  9  7  1  0  0  0  0
 10  5  1  0  0  0  0
 11  4  1  0  0  0  0
 13 15  1  0  0  0  0
 14 13  1  0  0  0  0
 16 11  1  0  0  0  0
 17 16  1  0  0  0  0
 18  1  1  6  0  0  0
 19 23  1  6  0  0  0
 19 20  1  0  0  0  0
 19 18  1  0  0  0  0
 20 26  1  1  0  0  0
 20 18  1  0  0  0  0
 21 23  2  0  0  0  0
 23 22  2  0  0  0  0
 24 25  1  0  0  0  0
 25 23  1  0  0  0  0
 27 26  1  0  0  0  0
 28 29  1  0  0  0  0
 29 27  1  0  0  0  0
 30 32  1  0  0  0  0
 32 31  1  0  0  0  0
M  END
>  <MODEL>
6

>  <REMARK>
 VINA RESULT:      -2.1      2.866      4.725
  Name = 
  11 active torsions:
  status: ('A' for Active; 'I' for Inactive)
    1  A    between atoms: C_1  and  C_4
    2  A    between atoms: C_1  and  C_5
    3  A    between atoms: C_1  and  C_16
    4  A    between atoms: C_4  and  C_30
    5  A    between atoms: C_9  and  C_12
    6  A    between atoms: C_13  and  N_29
    7  A    between atoms: S_15  and  C_20
    8  A    between atoms: S_15  and  N_26
    9  A    between atoms: O_22  and  C_23
   10  A    between atoms: C_23  and  C_24
   11  A    between atoms: C_24  and  C_27
                            x       y       z     vdW  Elec       q    Type
                         _______ _______ _______ _____ _____    ______ ____

>  <TORSDO>
F 11

$$$$
=
 OpenBabel11062408173D

 32 34  0  0  1  0  0  0  0  0999 V2000
  160.8120  205.6230  149.8940 C   0  0  2  0  0  3  0  0  0  0  0  0
  160.4530  206.7200  152.2190 C   0  0  2  0  0  3  0  0  0  0  0  0
  161.3760  205.8920  151.3070 C   0  0  2  0  0  3  0  0  0  0  0  0
  160.7130  208.2370  152.0980 C   0  0  1  0  0  3  0  0  0  0  0  0
  161.3880  206.9210  154.6020 C   0  0  1  0  0  3  0  0  0  0  0  0
  160.9430  208.3800  154.8570 C   0  0  2  0  0  3  0  0  0  0  0  0
  162.7090  206.3650  151.3040 O   0  0  0  0  0  0  0  0  0  0  0  0
  159.9610  209.1510  153.4950 S   0  0  0  0  0  0  0  0  0  0  0  0
  162.7060  207.7090  150.8930 C   0  0  0  0  0  2  0  0  0  0  0  0
  160.4560  206.1710  153.6520 C   0  0  0  0  0  2  0  0  0  0  0  0
  162.1430  208.5510  151.9470 N   0  0  0  0  0  0  0  0  0  0  0  0
  162.7130  206.8350  154.1650 O   0  0  0  0  0  1  0  0  0  0  0  0
  162.0690  209.2970  155.3650 C   0  0  0  0  0  3  0  0  0  0  0  0
  161.7860  210.7510  155.0270 C   0  0  0  0  0  1  0  0  0  0  0  0
  162.2150  209.1910  156.8730 C   0  0  0  0  0  1  0  0  0  0  0  0
  162.3340  209.9600  151.5770 C   0  0  0  0  0  2  0  0  0  0  0  0
  161.9560  210.2670  150.1280 C   0  0  0  0  0  1  0  0  0  0  0  0
  161.8910  204.9180  149.0560 C   0  0  1  0  0  3  0  0  0  0  0  0
  161.9560  203.3880  149.1950 C   0  0  2  0  0  3  0  0  0  0  0  0
  161.3110  204.0190  147.9790 C   0  0  2  0  0  3  0  0  0  0  0  0
  159.4270  203.3670  150.1360 O   0  0  0  0  0  0  0  0  0  0  0  0
  161.1780  202.5690  151.6290 O   0  0  0  0  0  0  0  0  0  0  0  0
  160.7030  202.5790  150.2030 S   0  0  0  0  0  0  0  0  0  0  0  0
  161.2120  200.6740  148.5230 C   0  0  0  0  0  1  0  0  0  0  0  0
  160.3850  200.9530  149.6860 N   0  0  0  0  0  2  0  0  0  0  0  0
  162.2750  203.9480  146.8110 C   0  0  0  0  0  2  0  0  0  0  0  0
  161.5700  203.4050  145.5810 C   0  0  0  0  0  2  0  0  0  0  0  0
  161.5810  205.3330  144.5110 C   0  0  0  0  0  1  0  0  0  0  0  0
  160.7210  204.3750  145.0470 O   0  0  0  0  0  0  0  0  0  0  0  0
  160.4560  206.9530  149.2230 C   0  0  0  0  0  2  0  0  0  0  0  0
  162.1140  207.7050  147.6700 O   0  0  0  0  0  1  0  0  0  0  0  0
  160.9100  207.0080  147.7730 C   0  0  0  0  0  2  0  0  0  0  0  0
  1 30  1  6  0  0  0
  2 10  1  1  0  0  0
  3  1  1  6  0  0  0
  3  2  1  0  0  0  0
  4  2  1  0  0  0  0
  4  8  1  1  0  0  0
  5 12  1  6  0  0  0
  5  6  1  0  0  0  0
  6 13  1  6  0  0  0
  7  3  1  0  0  0  0
  8  6  1  0  0  0  0
  9  7  1  0  0  0  0
  9 11  1  0  0  0  0
 10  5  1  0  0  0  0
 11  4  1  0  0  0  0
 13 15  1  0  0  0  0
 14 13  1  0  0  0  0
 16 11  1  0  0  0  0
 17 16  1  0  0  0  0
 18 19  1  0  0  0  0
 18  1  1  1  0  0  0
 19 23  1  1  0  0  0
 20 26  1  6  0  0  0
 20 18  1  0  0  0  0
 20 19  1  0  0  0  0
 21 23  2  0  0  0  0
 23 22  2  0  0  0  0
 24 25  1  0  0  0  0
 25 23  1  0  0  0  0
 27 26  1  0  0  0  0
 28 29  1  0  0  0  0
 29 27  1  0  0  0  0
 31 32  1  0  0  0  0
 32 30  1  0  0  0  0
M  END
>  <MODEL>
7

>  <REMARK>
 VINA RESULT:      -2.1      4.523      7.522
  Name = 
  11 active torsions:
  status: ('A' for Active; 'I' for Inactive)
    1  A    between atoms: C_1  and  C_4
    2  A    between atoms: C_1  and  C_5
    3  A    between atoms: C_1  and  C_16
    4  A    between atoms: C_4  and  C_30
    5  A    between atoms: C_9  and  C_12
    6  A    between atoms: C_13  and  N_29
    7  A    between atoms: S_15  and  C_20
    8  A    between atoms: S_15  and  N_26
    9  A    between atoms: O_22  and  C_23
   10  A    between atoms: C_23  and  C_24
   11  A    between atoms: C_24  and  C_27
                            x       y       z     vdW  Elec       q    Type
                         _______ _______ _______ _____ _____    ______ ____

>  <TORSDO>
F 11

$$$$
=
 OpenBabel11062408173D

 32 34  0  0  1  0  0  0  0  0999 V2000
  161.6860  206.9410  151.3080 C   0  0  2  0  0  3  0  0  0  0  0  0
  161.5720  209.2570  152.4780 C   0  0  2  0  0  3  0  0  0  0  0  0
  160.8020  208.0300  151.9570 C   0  0  2  0  0  3  0  0  0  0  0  0
  162.0150  209.0930  153.9470 C   0  0  1  0  0  3  0  0  0  0  0  0
  159.9910  211.0890  153.3350 C   0  0  1  0  0  3  0  0  0  0  0  0
  160.8610  211.5450  154.5300 C   0  0  2  0  0  3  0  0  0  0  0  0
  159.8810  207.5210  152.9030 O   0  0  0  0  0  0  0  0  0  0  0  0
  162.4980  210.7020  154.6760 S   0  0  0  0  0  0  0  0  0  0  0  0
  160.5820  207.1880  154.0750 C   0  0  0  0  0  2  0  0  0  0  0  0
  160.8160  210.5560  152.1660 C   0  0  0  0  0  2  0  0  0  0  0  0
  161.0040  208.4060  154.7660 N   0  0  0  0  0  0  0  0  0  0  0  0
  159.0110  210.1660  153.7090 O   0  0  0  0  0  1  0  0  0  0  0  0
  160.1050  211.6030  155.8680 C   0  0  0  0  0  3  0  0  0  0  0  0
  161.0660  211.5410  157.0430 C   0  0  0  0  0  1  0  0  0  0  0  0
  159.3080  212.8900  155.9860 C   0  0  0  0  0  1  0  0  0  0  0  0
  161.5530  208.0360  156.0780 C   0  0  0  0  0  2  0  0  0  0  0  0
  160.4800  207.7390  157.1260 C   0  0  0  0  0  1  0  0  0  0  0  0
  160.7940  206.0130  150.4680 C   0  0  1  0  0  3  0  0  0  0  0  0
  160.7450  206.3130  148.9610 C   0  0  2  0  0  3  0  0  0  0  0  0
  161.5820  205.1660  149.4850 C   0  0  2  0  0  3  0  0  0  0  0  0
  161.9400  207.4700  146.8360 O   0  0  0  0  0  0  0  0  0  0  0  0
  163.1810  207.4390  148.9320 O   0  0  0  0  0  0  0  0  0  0  0  0
  161.8170  207.6120  148.3250 S   0  0  0  0  0  0  0  0  0  0  0  0
  162.3350  210.1310  148.6410 C   0  0  0  0  0  1  0  0  0  0  0  0
  161.2180  209.2010  148.6870 N   0  0  0  0  0  2  0  0  0  0  0  0
  160.8450  203.8630  149.2440 C   0  0  0  0  0  2  0  0  0  0  0  0
  161.5010  203.0910  148.1130 C   0  0  0  0  0  2  0  0  0  0  0  0
  160.8750  202.2560  146.1690 C   0  0  0  0  0  1  0  0  0  0  0  0
  160.5800  202.2180  147.5310 O   0  0  0  0  0  0  0  0  0  0  0  0
  162.3670  206.1150  152.4040 C   0  0  0  0  0  2  0  0  0  0  0  0
  161.1460  204.1800  153.1060 O   0  0  0  0  0  1  0  0  0  0  0  0
  162.1360  204.6220  152.2270 C   0  0  0  0  0  2  0  0  0  0  0  0
  1 30  1  1  0  0  0
  2 10  1  1  0  0  0
  2  4  1  0  0  0  0
  3  1  1  1  0  0  0
  3  2  1  0  0  0  0
  3  7  1  0  0  0  0
  4  8  1  1  0  0  0
  4 11  1  0  0  0  0
  5 12  1  1  0  0  0
  5  6  1  0  0  0  0
  6  8  1  0  0  0  0
  6 13  1  1  0  0  0
  7  9  1  0  0  0  0
  9 11  1  0  0  0  0
 10  5  1  0  0  0  0
 11 16  1  0  0  0  0
 13 15  1  0  0  0  0
 13 14  1  0  0  0  0
 16 17  1  0  0  0  0
 18  1  1  1  0  0  0
 19 23  1  1  0  0  0
 19 20  1  0  0  0  0
 19 18  1  0  0  0  0
 20 26  1  6  0  0  0
 20 18  1  0  0  0  0
 21 23  2  0  0  0  0
 23 25  1  0  0  0  0
 23 22  2  0  0  0  0
 24 25  1  0  0  0  0
 27 26  1  0  0  0  0
 28 29  1  0  0  0  0
 29 27  1  0  0  0  0
 32 30  1  0  0  0  0
 32 31  1  0  0  0  0
M  END
>  <MODEL>
8

>  <REMARK>
 VINA RESULT:      -1.9      3.186      5.646
  Name = 
  11 active torsions:
  status: ('A' for Active; 'I' for Inactive)
    1  A    between atoms: C_1  and  C_4
    2  A    between atoms: C_1  and  C_5
    3  A    between atoms: C_1  and  C_16
    4  A    between atoms: C_4  and  C_30
    5  A    between atoms: C_9  and  C_12
    6  A    between atoms: C_13  and  N_29
    7  A    between atoms: S_15  and  C_20
    8  A    between atoms: S_15  and  N_26
    9  A    between atoms: O_22  and  C_23
   10  A    between atoms: C_23  and  C_24
   11  A    between atoms: C_24  and  C_27
                            x       y       z     vdW  Elec       q    Type
                         _______ _______ _______ _____ _____    ______ ____

>  <TORSDO>
F 11

$$$$
=
 OpenBabel11062408173D

 32 34  0  0  1  0  0  0  0  0999 V2000
  161.1310  208.8580  153.3150 C   0  0  2  0  0  3  0  0  0  0  0  0
  159.5310  210.8540  153.7600 C   0  0  2  0  0  3  0  0  0  0  0  0
  159.8690  209.3780  154.0380 C   0  0  2  0  0  3  0  0  0  0  0  0
  160.2010  211.8110  154.7700 C   0  0  1  0  0  3  0  0  0  0  0  0
  157.3050  211.5480  154.8360 C   0  0  1  0  0  3  0  0  0  0  0  0
  157.7310  212.9770  155.2460 C   0  0  2  0  0  3  0  0  0  0  0  0
  159.8360  209.0600  155.4160 O   0  0  0  0  0  0  0  0  0  0  0  0
  159.4310  213.4720  154.7180 S   0  0  0  0  0  0  0  0  0  0  0  0
  160.7420  209.8970  156.0910 C   0  0  0  0  0  2  0  0  0  0  0  0
  158.0190  211.0500  153.5810 C   0  0  0  0  0  2  0  0  0  0  0  0
  160.2210  211.2620  156.1350 N   0  0  0  0  0  0  0  0  0  0  0  0
  157.4420  210.6290  155.8800 O   0  0  0  0  0  1  0  0  0  0  0  0
  157.4480  213.3150  156.7190 C   0  0  0  0  0  3  0  0  0  0  0  0
  158.3330  214.4530  157.2000 C   0  0  0  0  0  1  0  0  0  0  0  0
  156.0030  213.7390  156.9110 C   0  0  0  0  0  1  0  0  0  0  0  0
  161.0840  212.0670  157.0110 C   0  0  0  0  0  2  0  0  0  0  0  0
  162.4610  211.4470  157.2460 C   0  0  0  0  0  1  0  0  0  0  0  0
  160.6990  208.0980  152.0500 C   0  0  1  0  0  3  0  0  0  0  0  0
  160.9540  208.8170  150.7150 C   0  0  2  0  0  3  0  0  0  0  0  0
  161.8710  207.7010  151.1700 C   0  0  2  0  0  3  0  0  0  0  0  0
  162.4110  210.6700  149.4020 O   0  0  0  0  0  0  0  0  0  0  0  0
  162.9640  210.2690  151.7410 O   0  0  0  0  0  0  0  0  0  0  0  0
  161.8330  210.3880  150.7580 S   0  0  0  0  0  0  0  0  0  0  0  0
  160.7960  212.6770  150.1280 C   0  0  0  0  0  1  0  0  0  0  0  0
  160.8040  211.7100  151.2130 N   0  0  0  0  0  2  0  0  0  0  0  0
  161.5240  206.4330  150.4140 C   0  0  0  0  0  2  0  0  0  0  0  0
  160.6220  205.5500  151.2570 C   0  0  0  0  0  2  0  0  0  0  0  0
  160.8140  203.4120  151.7660 C   0  0  0  0  0  1  0  0  0  0  0  0
  160.5470  204.2720  150.7010 O   0  0  0  0  0  0  0  0  0  0  0  0
  161.8900  207.8970  154.2350 C   0  0  0  0  0  2  0  0  0  0  0  0
  160.9580  206.4430  155.8900 O   0  0  0  0  0  1  0  0  0  0  0  0
  161.1040  206.6250  154.5150 C   0  0  0  0  0  2  0  0  0  0  0  0
  1 30  1  1  0  0  0
  2 10  1  1  0  0  0
  2  3  1  0  0  0  0
  2  4  1  0  0  0  0
  3  1  1  1  0  0  0
  3  7  1  0  0  0  0
  4  8  1  1  0  0  0
  4 11  1  0  0  0  0
  5  6  1  0  0  0  0
  5 12  1  1  0  0  0
  6 13  1  1  0  0  0
  7  9  1  0  0  0  0
  8  6  1  0  0  0  0
  9 11  1  0  0  0  0
 10  5  1  0  0  0  0
 11 16  1  0  0  0  0
 13 15  1  0  0  0  0
 13 14  1  0  0  0  0
 16 17  1  0  0  0  0
 18  1  1  1  0  0  0
 19 23  1  1  0  0  0
 19 20  1  0  0  0  0
 19 18  1  0  0  0  0
 20 26  1  6  0  0  0
 20 18  1  0  0  0  0
 21 23  2  0  0  0  0
 23 25  1  0  0  0  0
 23 22  2  0  0  0  0
 24 25  1  0  0  0  0
 26 27  1  0  0  0  0
 29 27  1  0  0  0  0
 29 28  1  0  0  0  0
 30 32  1  0  0  0  0
 32 31  1  0  0  0  0
M  END
>  <MODEL>
9

>  <REMARK>
 VINA RESULT:      -1.6      2.045      3.301
  Name = 
  11 active torsions:
  status: ('A' for Active; 'I' for Inactive)
    1  A    between atoms: C_1  and  C_4
    2  A    between atoms: C_1  and  C_5
    3  A    between atoms: C_1  and  C_16
    4  A    between atoms: C_4  and  C_30
    5  A    between atoms: C_9  and  C_12
    6  A    between atoms: C_13  and  N_29
    7  A    between atoms: S_15  and  C_20
    8  A    between atoms: S_15  and  N_26
    9  A    between atoms: O_22  and  C_23
   10  A    between atoms: C_23  and  C_24
   11  A    between atoms: C_24  and  C_27
                            x       y       z     vdW  Elec       q    Type
                         _______ _______ _______ _____ _____    ______ ____

>  <TORSDO>
F 11

$$$$
