=
 OpenBabel11062407553D

 34 38  0  0  1  0  0  0  0  0999 V2000
  159.6260  209.8570  155.2140 C   0  0  0  0  0  0  0  0  0  0  0  0
  161.3920  208.3720  154.4320 C   0  0  0  0  0  0  0  0  0  0  0  0
  160.0750  209.8900  152.7550 C   0  0  2  0  0  3  0  0  0  0  0  0
  161.3830  210.3820  150.7130 C   0  0  0  0  0  0  0  0  0  0  0  0
  160.7380  208.3710  156.7670 C   0  0  0  0  0  3  0  0  0  0  0  0
  161.5400  207.8880  155.7350 C   0  0  0  0  0  3  0  0  0  0  0  0
  161.1460  208.1440  151.1950 N   0  0  0  0  0  0  0  0  0  0  0  0
  160.4050  209.3470  154.1440 C   0  0  0  0  0  0  0  0  0  0  0  0
  162.0920  206.9910  149.2970 C   0  0  0  0  0  2  0  0  0  0  0  0
  162.2790  209.7240  149.3070 S   0  0  0  0  0  0  0  0  0  0  0  0
  159.7960  209.3620  156.5090 C   0  0  0  0  0  3  0  0  0  0  0  0
  158.5350  211.4280  153.5590 C   0  0  0  0  0  2  0  0  0  0  0  0
  158.6960  211.0270  155.0260 C   0  0  0  0  0  2  0  0  0  0  0  0
  162.2540  207.9090  153.5000 F   0  0  0  0  0  0  0  0  0  0  0  0
  160.8690  211.7060  150.7310 N   0  0  0  0  0  2  0  0  0  0  0  0
  159.6980  212.0130  151.5510 C   0  0  1  0  0  3  0  0  0  0  0  0
  161.8260  208.1180  149.9480 C   0  0  0  0  0  0  0  0  0  0  0  0
  160.9730  209.4940  151.6030 C   0  0  0  0  0  0  0  0  0  0  0  0
  159.8190  211.3450  152.8640 N   0  0  2  0  0  0  0  0  0  0  0  0
  157.3950  213.2660  149.7540 C   0  0  0  0  0  2  0  0  0  0  0  0
  158.1450  214.4510  149.1600 C   0  0  0  0  0  2  0  0  0  0  0  0
  159.5680  213.5500  151.7080 C   0  0  2  0  0  3  0  0  0  0  0  0
  159.6360  214.1580  149.2100 C   0  0  0  0  0  2  0  0  0  0  0  0
  158.1450  214.0580  151.9830 C   0  0  0  0  0  2  0  0  0  0  0  0
  160.2210  214.3910  150.6010 C   0  0  0  0  0  2  0  0  0  0  0  0
  157.0910  213.4160  151.1830 N   0  0  0  0  0  2  0  0  0  0  0  0
  161.7100  205.7280  149.8320 N   0  0  0  0  0  0  0  0  0  0  0  0
  161.1880  204.8320  149.0620 C   0  0  0  0  0  3  0  0  0  0  0  0
  160.7890  203.5110  149.6220 C   0  0  0  0  0  2  0  0  0  0  0  0
  161.1430  202.8330  147.2380 C   0  0  0  0  0  1  0  0  0  0  0  0
  161.0190  202.4630  148.6390 N   0  0  0  0  0  0  0  0  0  0  0  0
  161.4040  200.1980  148.2010 O   0  0  0  0  0  0  0  0  0  0  0  0
  161.0770  200.7570  150.3950 O   0  0  0  0  0  1  0  0  0  0  0  0
  161.1760  201.1000  149.0520 C   0  0  0  0  0  0  0  0  0  0  0  0
  1 11  1  0  0  0  0
  2  6  2  0  0  0  0
  3 18  1  6  0  0  0
  3 19  1  0  0  0  0
  3  8  1  0  0  0  0
  4 15  1  0  0  0  0
  4 18  2  0  0  0  0
  6  5  1  0  0  0  0
  7 18  1  0  0  0  0
  8  2  1  0  0  0  0
  8  1  2  0  0  0  0
  9 27  1  0  0  0  0
  9 17  1  0  0  0  0
 10 17  1  0  0  0  0
 10  4  1  0  0  0  0
 11  5  2  0  0  0  0
 12 13  1  0  0  0  0
 13  1  1  0  0  0  0
 14  2  1  0  0  0  0
 16 15  1  6  0  0  0
 16 22  1  0  0  0  0
 16 19  1  0  0  0  0
 17  7  2  0  0  0  0
 19 12  1  1  0  0  0
 20 26  1  0  0  0  0
 21 23  1  0  0  0  0
 21 20  1  0  0  0  0
 22 25  1  6  0  0  0
 22 24  1  0  0  0  0
 23 25  1  0  0  0  0
 26 24  1  0  0  0  0
 28 29  1  0  0  0  0
 28 27  2  0  0  0  0
 30 31  1  0  0  0  0
 31 34  1  0  0  0  0
 31 29  1  0  0  0  0
 32 34  2  0  0  0  0
 34 33  1  0  0  0  0
M  END
>  <MODEL>
1

>  <REMARK>
 VINA RESULT:      -6.0      0.000      0.000
  Name = 
  4 active torsions:
  status: ('A' for Active; 'I' for Inactive)
    1  A    between atoms: N_3  and  C_17
    2  A    between atoms: C_12  and  C_28
    3  A    between atoms: C_13  and  C_33
    4  A    between atoms: N_14  and  C_33
                            x       y       z     vdW  Elec       q    Type
                         _______ _______ _______ _____ _____    ______ ____

>  <TORSDO>
F 4

$$$$
=
 OpenBabel11062407553D

 34 38  0  0  1  0  0  0  0  0999 V2000
  159.3900  210.8170  155.4200 C   0  0  0  0  0  0  0  0  0  0  0  0
  161.1010  209.1390  154.9840 C   0  0  0  0  0  0  0  0  0  0  0  0
  159.9260  210.4010  153.0140 C   0  0  2  0  0  3  0  0  0  0  0  0
  161.3290  210.4690  150.9770 C   0  0  0  0  0  0  0  0  0  0  0  0
  160.3670  209.5750  157.2530 C   0  0  0  0  0  3  0  0  0  0  0  0
  161.1770  208.8830  156.3560 C   0  0  0  0  0  3  0  0  0  0  0  0
  160.9570  208.3620  151.8260 N   0  0  0  0  0  0  0  0  0  0  0  0
  160.1780  210.0940  154.4890 C   0  0  0  0  0  0  0  0  0  0  0  0
  161.9060  206.8540  150.1990 C   0  0  0  0  0  2  0  0  0  0  0  0
  162.2380  209.5350  149.7460 S   0  0  0  0  0  0  0  0  0  0  0  0
  159.4880  210.5490  156.7870 C   0  0  0  0  0  3  0  0  0  0  0  0
  158.4430  212.1250  153.4730 C   0  0  0  0  0  2  0  0  0  0  0  0
  158.5310  211.9780  154.9930 C   0  0  0  0  0  2  0  0  0  0  0  0
  161.9690  208.4810  154.1840 F   0  0  0  0  0  0  0  0  0  0  0  0
  160.8860  211.7980  150.7450 N   0  0  0  0  0  2  0  0  0  0  0  0
  159.7050  212.2970  151.4470 C   0  0  1  0  0  3  0  0  0  0  0  0
  161.6780  208.0880  150.6340 C   0  0  0  0  0  0  0  0  0  0  0  0
  160.8410  209.7690  151.9880 C   0  0  0  0  0  0  0  0  0  0  0  0
  159.7440  211.8630  152.8600 N   0  0  2  0  0  0  0  0  0  0  0  0
  157.5780  213.3200  149.3190 C   0  0  0  0  0  2  0  0  0  0  0  0
  158.4230  214.3500  148.5810 C   0  0  0  0  0  2  0  0  0  0  0  0
  159.6510  213.8420  151.3310 C   0  0  2  0  0  3  0  0  0  0  0  0
  159.8910  214.0040  148.7750 C   0  0  0  0  0  2  0  0  0  0  0  0
  158.2450  214.4530  151.4240 C   0  0  0  0  0  2  0  0  0  0  0  0
  160.4100  214.4480  150.1410 C   0  0  0  0  0  2  0  0  0  0  0  0
  157.2030  213.7300  150.6790 N   0  0  0  0  0  2  0  0  0  0  0  0
  161.4390  205.7220  150.9260 N   0  0  0  0  0  0  0  0  0  0  0  0
  160.7570  204.8050  150.3250 C   0  0  0  0  0  3  0  0  0  0  0  0
  160.2700  203.6210  151.0860 C   0  0  0  0  0  2  0  0  0  0  0  0
  162.2140  202.1330  151.6080 C   0  0  0  0  0  1  0  0  0  0  0  0
  161.0750  202.4540  150.7620 N   0  0  0  0  0  0  0  0  0  0  0  0
  161.4020  200.5790  149.4030 O   0  0  0  0  0  1  0  0  0  0  0  0
  159.6160  201.9070  148.8730 O   0  0  0  0  0  0  0  0  0  0  0  0
  160.7190  201.6050  149.6630 C   0  0  0  0  0  0  0  0  0  0  0  0
  1 11  1  0  0  0  0
  2  6  2  0  0  0  0
  3 18  1  6  0  0  0
  3  8  1  0  0  0  0
  4 18  2  0  0  0  0
  6  5  1  0  0  0  0
  7 18  1  0  0  0  0
  8  2  1  0  0  0  0
  8  1  2  0  0  0  0
  9 17  1  0  0  0  0
  9 27  1  0  0  0  0
 10 17  1  0  0  0  0
 10  4  1  0  0  0  0
 11  5  2  0  0  0  0
 12 13  1  0  0  0  0
 13  1  1  0  0  0  0
 14  2  1  0  0  0  0
 15  4  1  0  0  0  0
 16 15  1  6  0  0  0
 16 19  1  0  0  0  0
 17  7  2  0  0  0  0
 19  3  1  0  0  0  0
 19 12  1  6  0  0  0
 20 26  1  0  0  0  0
 21 23  1  0  0  0  0
 21 20  1  0  0  0  0
 22 25  1  6  0  0  0
 22 24  1  0  0  0  0
 22 16  1  0  0  0  0
 23 25  1  0  0  0  0
 26 24  1  0  0  0  0
 28 27  2  0  0  0  0
 28 29  1  0  0  0  0
 31 29  1  0  0  0  0
 31 30  1  0  0  0  0
 32 34  1  0  0  0  0
 33 34  2  0  0  0  0
 34 31  1  0  0  0  0
M  END
>  <MODEL>
2

>  <REMARK>
 VINA RESULT:      -5.8      1.068      1.263
  Name = 
  4 active torsions:
  status: ('A' for Active; 'I' for Inactive)
    1  A    between atoms: N_3  and  C_17
    2  A    between atoms: C_12  and  C_28
    3  A    between atoms: C_13  and  C_33
    4  A    between atoms: N_14  and  C_33
                            x       y       z     vdW  Elec       q    Type
                         _______ _______ _______ _____ _____    ______ ____

>  <TORSDO>
F 4

$$$$
=
 OpenBabel11062407553D

 34 38  0  0  1  0  0  0  0  0999 V2000
  161.1110  208.1600  152.6780 C   0  0  0  0  0  0  0  0  0  0  0  0
  161.7820  209.5840  150.8190 C   0  0  0  0  0  0  0  0  0  0  0  0
  160.0520  210.4230  152.5960 C   0  0  2  0  0  3  0  0  0  0  0  0
  160.0020  212.8910  152.7600 C   0  0  0  0  0  0  0  0  0  0  0  0
  162.6130  207.3110  150.9800 C   0  0  0  0  0  3  0  0  0  0  0  0
  162.5620  208.5370  150.3190 C   0  0  0  0  0  3  0  0  0  0  0  0
  159.6720  212.0560  150.6410 N   0  0  0  0  0  0  0  0  0  0  0  0
  161.0140  209.4000  151.9960 C   0  0  0  0  0  0  0  0  0  0  0  0
  159.1090  213.9750  149.2910 C   0  0  0  0  0  2  0  0  0  0  0  0
  159.7760  214.4510  151.9040 S   0  0  0  0  0  0  0  0  0  0  0  0
  161.9010  207.1300  152.1630 C   0  0  0  0  0  3  0  0  0  0  0  0
  159.5830  209.1150  154.4540 C   0  0  0  0  0  2  0  0  0  0  0  0
  160.4840  207.9530  154.0320 C   0  0  0  0  0  2  0  0  0  0  0  0
  161.8400  210.7640  150.1640 F   0  0  0  0  0  0  0  0  0  0  0  0
  159.8530  212.7700  154.1670 N   0  0  0  0  0  2  0  0  0  0  0  0
  159.4550  211.4870  154.7420 C   0  0  1  0  0  3  0  0  0  0  0  0
  159.4860  213.4510  150.4520 C   0  0  0  0  0  0  0  0  0  0  0  0
  160.0240  211.8110  151.9960 C   0  0  0  0  0  0  0  0  0  0  0  0
  160.1850  210.3910  154.0700 N   0  0  2  0  0  0  0  0  0  0  0  0
  157.4090  213.2920  156.3730 C   0  0  0  0  0  2  0  0  0  0  0  0
  158.3840  214.0540  157.2600 C   0  0  0  0  0  2  0  0  0  0  0  0
  159.7310  211.4990  156.2680 C   0  0  2  0  0  3  0  0  0  0  0  0
  159.7520  214.0500  156.5950 C   0  0  0  0  0  2  0  0  0  0  0  0
  158.5090  211.2080  157.1530 C   0  0  0  0  0  2  0  0  0  0  0  0
  160.4860  212.7260  156.8000 C   0  0  0  0  0  2  0  0  0  0  0  0
  157.2670  211.8750  156.7330 N   0  0  0  0  0  2  0  0  0  0  0  0
  158.8770  213.1490  148.1540 N   0  0  0  0  0  0  0  0  0  0  0  0
  158.4910  213.6770  147.0410 C   0  0  0  0  0  3  0  0  0  0  0  0
  158.2500  212.8130  145.8520 C   0  0  0  0  0  2  0  0  0  0  0  0
  157.8920  214.2490  143.8320 C   0  0  0  0  0  1  0  0  0  0  0  0
  158.7830  213.4490  144.6570 N   0  0  0  0  0  0  0  0  0  0  0  0
  160.6390  213.9090  143.3110 O   0  0  0  0  0  0  0  0  0  0  0  0
  161.0240  212.5840  145.1360 O   0  0  0  0  0  1  0  0  0  0  0  0
  160.1740  213.3340  144.3310 C   0  0  0  0  0  0  0  0  0  0  0  0
  1 13  1  0  0  0  0
  2  8  1  0  0  0  0
  3 18  1  6  0  0  0
  3 19  1  0  0  0  0
  4 15  1  0  0  0  0
  5 11  2  0  0  0  0
  6  2  2  0  0  0  0
  6  5  1  0  0  0  0
  7 18  1  0  0  0  0
  8  3  1  0  0  0  0
  8  1  2  0  0  0  0
  9 17  1  0  0  0  0
 10  4  1  0  0  0  0
 11  1  1  0  0  0  0
 13 12  1  0  0  0  0
 14  2  1  0  0  0  0
 16 15  1  6  0  0  0
 16 22  1  0  0  0  0
 17  7  2  0  0  0  0
 17 10  1  0  0  0  0
 18  4  2  0  0  0  0
 19 12  1  1  0  0  0
 19 16  1  0  0  0  0
 20 26  1  0  0  0  0
 20 21  1  0  0  0  0
 22 25  1  1  0  0  0
 22 24  1  0  0  0  0
 23 25  1  0  0  0  0
 23 21  1  0  0  0  0
 26 24  1  0  0  0  0
 27  9  1  0  0  0  0
 28 27  2  0  0  0  0
 29 28  1  0  0  0  0
 30 31  1  0  0  0  0
 31 29  1  0  0  0  0
 32 34  2  0  0  0  0
 34 31  1  0  0  0  0
 34 33  1  0  0  0  0
M  END
>  <MODEL>
3

>  <REMARK>
 VINA RESULT:      -3.7      4.537      7.212
  Name = 
  4 active torsions:
  status: ('A' for Active; 'I' for Inactive)
    1  A    between atoms: N_3  and  C_17
    2  A    between atoms: C_12  and  C_28
    3  A    between atoms: C_13  and  C_33
    4  A    between atoms: N_14  and  C_33
                            x       y       z     vdW  Elec       q    Type
                         _______ _______ _______ _____ _____    ______ ____

>  <TORSDO>
F 4

$$$$
=
 OpenBabel11062407553D

 34 38  0  0  1  0  0  0  0  0999 V2000
  161.0640  204.8980  149.6300 C   0  0  0  0  0  0  0  0  0  0  0  0
  162.2820  206.5160  148.2760 C   0  0  0  0  0  0  0  0  0  0  0  0
  161.1140  207.2390  150.5050 C   0  0  2  0  0  3  0  0  0  0  0  0
  162.1620  209.2470  151.5020 C   0  0  0  0  0  0  0  0  0  0  0  0
  162.0240  204.2300  147.5100 C   0  0  0  0  0  3  0  0  0  0  0  0
  162.5150  205.5200  147.3230 C   0  0  0  0  0  3  0  0  0  0  0  0
  161.4810  209.4940  149.3170 N   0  0  0  0  0  0  0  0  0  0  0  0
  161.5210  206.2270  149.4360 C   0  0  0  0  0  0  0  0  0  0  0  0
  161.8140  211.8320  148.8170 C   0  0  0  0  0  2  0  0  0  0  0  0
  162.6430  210.9600  151.2780 S   0  0  0  0  0  0  0  0  0  0  0  0
  161.3140  203.9180  148.6670 C   0  0  0  0  0  3  0  0  0  0  0  0
  160.1290  205.6360  151.8620 C   0  0  0  0  0  2  0  0  0  0  0  0
  160.4200  204.4650  150.9210 C   0  0  0  0  0  2  0  0  0  0  0  0
  162.8510  207.7220  148.0600 F   0  0  0  0  0  0  0  0  0  0  0  0
  161.9850  208.6710  152.7880 N   0  0  0  0  0  2  0  0  0  0  0  0
  161.0650  207.5470  152.9540 C   0  0  1  0  0  3  0  0  0  0  0  0
  161.9290  210.8010  149.6470 C   0  0  0  0  0  0  0  0  0  0  0  0
  161.6990  208.6320  150.4260 C   0  0  0  0  0  0  0  0  0  0  0  0
  161.2310  206.5970  151.8340 N   0  0  2  0  0  0  0  0  0  0  0  0
  159.4900  208.9030  155.3590 C   0  0  0  0  0  2  0  0  0  0  0  0
  160.6130  208.9980  156.3840 C   0  0  0  0  0  2  0  0  0  0  0  0
  161.3290  206.8640  154.3200 C   0  0  2  0  0  3  0  0  0  0  0  0
  161.9440  208.9770  155.6510 C   0  0  0  0  0  2  0  0  0  0  0  0
  160.0690  206.5010  155.1210 C   0  0  0  0  0  2  0  0  0  0  0  0
  162.3470  207.5650  155.2320 C   0  0  0  0  0  2  0  0  0  0  0  0
  159.0190  207.5310  155.1260 N   0  0  0  0  0  2  0  0  0  0  0  0
  161.2330  211.6730  147.5270 N   0  0  0  0  0  0  0  0  0  0  0  0
  160.9900  212.7100  146.7970 C   0  0  0  0  0  3  0  0  0  0  0  0
  160.3830  212.5430  145.4470 C   0  0  0  0  0  2  0  0  0  0  0  0
  162.5370  213.6190  144.7640 C   0  0  0  0  0  1  0  0  0  0  0  0
  161.3730  212.8190  144.4180 N   0  0  0  0  0  0  0  0  0  0  0  0
  162.1050  212.4810  142.2230 O   0  0  0  0  0  0  0  0  0  0  0  0
  160.1260  211.4830  142.7880 O   0  0  0  0  0  1  0  0  0  0  0  0
  161.2310  212.2640  143.1040 C   0  0  0  0  0  0  0  0  0  0  0  0
  1 13  1  0  0  0  0
  2  8  2  0  0  0  0
  3  8  1  6  0  0  0
  3 19  1  0  0  0  0
  4 15  1  0  0  0  0
  5 11  1  0  0  0  0
  6  5  2  0  0  0  0
  6  2  1  0  0  0  0
  7 17  2  0  0  0  0
  7 18  1  0  0  0  0
  8  1  1  0  0  0  0
  9 17  1  0  0  0  0
 10  4  1  0  0  0  0
 11  1  2  0  0  0  0
 13 12  1  0  0  0  0
 14  2  1  0  0  0  0
 16 15  1  6  0  0  0
 16 22  1  0  0  0  0
 17 10  1  0  0  0  0
 18  3  1  0  0  0  0
 18  4  2  0  0  0  0
 19 12  1  1  0  0  0
 19 16  1  0  0  0  0
 20 21  1  0  0  0  0
 22 24  1  1  0  0  0
 22 25  1  0  0  0  0
 23 21  1  0  0  0  0
 24 26  1  0  0  0  0
 25 23  1  0  0  0  0
 26 20  1  0  0  0  0
 27  9  1  0  0  0  0
 28 27  2  0  0  0  0
 29 28  1  0  0  0  0
 31 30  1  0  0  0  0
 31 29  1  0  0  0  0
 32 34  2  0  0  0  0
 33 34  1  0  0  0  0
 34 31  1  0  0  0  0
M  END
>  <MODEL>
4

>  <REMARK>
 VINA RESULT:      -3.6      4.264      7.879
  Name = 
  4 active torsions:
  status: ('A' for Active; 'I' for Inactive)
    1  A    between atoms: N_3  and  C_17
    2  A    between atoms: C_12  and  C_28
    3  A    between atoms: C_13  and  C_33
    4  A    between atoms: N_14  and  C_33
                            x       y       z     vdW  Elec       q    Type
                         _______ _______ _______ _____ _____    ______ ____

>  <TORSDO>
F 4

$$$$
=
 OpenBabel11062407553D

 34 38  0  0  1  0  0  0  0  0999 V2000
  160.5990  209.6770  153.4690 C   0  0  0  0  0  0  0  0  0  0  0  0
  161.7000  207.5950  152.8450 C   0  0  0  0  0  0  0  0  0  0  0  0
  160.8940  209.2890  151.0180 C   0  0  2  0  0  3  0  0  0  0  0  0
  162.1750  209.0720  148.9120 C   0  0  0  0  0  0  0  0  0  0  0  0
  161.2170  208.0730  155.1730 C   0  0  0  0  0  3  0  0  0  0  0  0
  161.7440  207.2330  154.1950 C   0  0  0  0  0  3  0  0  0  0  0  0
  161.2100  207.1220  149.6620 N   0  0  0  0  0  0  0  0  0  0  0  0
  161.0940  208.8170  152.4570 C   0  0  0  0  0  0  0  0  0  0  0  0
  161.5940  205.5150  147.9030 C   0  0  0  0  0  2  0  0  0  0  0  0
  162.7100  207.9960  147.5820 S   0  0  0  0  0  0  0  0  0  0  0  0
  160.6600  209.2970  154.8120 C   0  0  0  0  0  3  0  0  0  0  0  0
  160.0250  211.3430  151.6540 C   0  0  0  0  0  2  0  0  0  0  0  0
  160.1200  211.0700  153.1570 C   0  0  0  0  0  2  0  0  0  0  0  0
  162.2960  206.7640  151.9630 F   0  0  0  0  0  0  0  0  0  0  0  0
  162.1490  210.4860  148.7790 N   0  0  0  0  0  2  0  0  0  0  0  0
  161.2040  211.2670  149.5740 C   0  0  1  0  0  3  0  0  0  0  0  0
  161.7690  206.7270  148.4180 C   0  0  0  0  0  0  0  0  0  0  0  0
  161.5350  208.4830  149.9090 C   0  0  0  0  0  0  0  0  0  0  0  0
  161.1610  210.7440  150.9560 N   0  0  2  0  0  0  0  0  0  0  0  0
  159.5800  212.9820  147.4470 C   0  0  0  0  0  2  0  0  0  0  0  0
  160.7280  213.7440  146.7960 C   0  0  0  0  0  2  0  0  0  0  0  0
  161.6200  212.7610  149.5470 C   0  0  2  0  0  3  0  0  0  0  0  0
  162.0140  212.9630  147.0140 C   0  0  0  0  0  2  0  0  0  0  0  0
  160.4570  213.7620  149.6340 C   0  0  0  0  0  2  0  0  0  0  0  0
  162.5790  213.1660  148.4180 C   0  0  0  0  0  2  0  0  0  0  0  0
  159.2820  213.4210  148.8170 N   0  0  0  0  0  2  0  0  0  0  0  0
  160.8300  204.5290  148.5910 N   0  0  0  0  0  0  0  0  0  0  0  0
  160.8770  203.2960  148.2120 C   0  0  0  0  0  3  0  0  0  0  0  0
  160.0790  202.2650  148.9330 C   0  0  0  0  0  2  0  0  0  0  0  0
  161.4730  200.2940  149.5940 C   0  0  0  0  0  1  0  0  0  0  0  0
  160.9090  201.5940  149.9210 N   0  0  0  0  0  0  0  0  0  0  0  0
  161.9520  201.6560  152.0130 O   0  0  0  0  0  1  0  0  0  0  0  0
  160.6830  203.4800  151.4670 O   0  0  0  0  0  0  0  0  0  0  0  0
  161.2100  202.2280  151.1710 C   0  0  0  0  0  0  0  0  0  0  0  0
  1 11  1  0  0  0  0
  2  6  2  0  0  0  0
  3 18  1  6  0  0  0
  3  8  1  0  0  0  0
  4 18  2  0  0  0  0
  6  5  1  0  0  0  0
  7 18  1  0  0  0  0
  8  2  1  0  0  0  0
  8  1  2  0  0  0  0
  9 17  1  0  0  0  0
  9 27  1  0  0  0  0
 10 17  1  0  0  0  0
 10  4  1  0  0  0  0
 11  5  2  0  0  0  0
 12 13  1  0  0  0  0
 13  1  1  0  0  0  0
 14  2  1  0  0  0  0
 15  4  1  0  0  0  0
 16 15  1  6  0  0  0
 16 19  1  0  0  0  0
 17  7  2  0  0  0  0
 19  3  1  0  0  0  0
 19 12  1  1  0  0  0
 20 26  1  0  0  0  0
 21 23  1  0  0  0  0
 21 20  1  0  0  0  0
 22 25  1  6  0  0  0
 22 16  1  0  0  0  0
 22 24  1  0  0  0  0
 23 25  1  0  0  0  0
 26 24  1  0  0  0  0
 28 27  2  0  0  0  0
 28 29  1  0  0  0  0
 29 31  1  0  0  0  0
 30 31  1  0  0  0  0
 31 34  1  0  0  0  0
 34 33  2  0  0  0  0
 34 32  1  0  0  0  0
M  END
>  <MODEL>
5

>  <REMARK>
 VINA RESULT:      -3.6      1.872      2.542
  Name = 
  4 active torsions:
  status: ('A' for Active; 'I' for Inactive)
    1  A    between atoms: N_3  and  C_17
    2  A    between atoms: C_12  and  C_28
    3  A    between atoms: C_13  and  C_33
    4  A    between atoms: N_14  and  C_33
                            x       y       z     vdW  Elec       q    Type
                         _______ _______ _______ _____ _____    ______ ____

>  <TORSDO>
F 4

$$$$
=
 OpenBabel11062407553D

 34 38  0  0  1  0  0  0  0  0999 V2000
  161.9650  210.1750  149.9870 C   0  0  0  0  0  0  0  0  0  0  0  0
  161.0440  212.4220  149.8000 C   0  0  0  0  0  0  0  0  0  0  0  0
  160.3800  210.8600  151.7930 C   0  0  2  0  0  3  0  0  0  0  0  0
  159.6520  212.1400  153.7820 C   0  0  0  0  0  0  0  0  0  0  0  0
  162.4970  211.5490  148.0660 C   0  0  0  0  0  3  0  0  0  0  0  0
  161.7160  212.5790  148.5850 C   0  0  0  0  0  3  0  0  0  0  0  0
  158.5190  212.6400  151.8420 N   0  0  0  0  0  0  0  0  0  0  0  0
  161.1330  211.1980  150.5090 C   0  0  0  0  0  0  0  0  0  0  0  0
  156.7490  214.1350  152.5170 C   0  0  0  0  0  2  0  0  0  0  0  0
  158.5250  213.3620  154.4540 S   0  0  0  0  0  0  0  0  0  0  0  0
  162.6320  210.3570  148.7730 C   0  0  0  0  0  3  0  0  0  0  0  0
  161.4210  208.8020  152.0410 C   0  0  0  0  0  2  0  0  0  0  0  0
  162.2660  208.9250  150.7720 C   0  0  0  0  0  2  0  0  0  0  0  0
  160.3670  213.4910  150.2740 F   0  0  0  0  0  0  0  0  0  0  0  0
  160.3280  211.2000  154.6050 N   0  0  0  0  0  2  0  0  0  0  0  0
  160.7300  209.9110  154.0460 C   0  0  1  0  0  3  0  0  0  0  0  0
  157.8320  213.4230  152.8080 C   0  0  0  0  0  0  0  0  0  0  0  0
  159.5980  211.9640  152.4720 C   0  0  0  0  0  0  0  0  0  0  0  0
  161.2860  210.1060  152.6900 N   0  0  2  0  0  0  0  0  0  0  0  0
  159.4730  207.6100  155.8430 C   0  0  0  0  0  2  0  0  0  0  0  0
  160.0630  207.9860  157.1960 C   0  0  0  0  0  2  0  0  0  0  0  0
  161.7610  209.2390  154.9890 C   0  0  2  0  0  3  0  0  0  0  0  0
  160.4250  209.4620  157.1750 C   0  0  0  0  0  2  0  0  0  0  0  0
  161.7840  207.7040  154.9410 C   0  0  0  0  0  2  0  0  0  0  0  0
  161.7430  209.7200  156.4480 C   0  0  0  0  0  2  0  0  0  0  0  0
  160.4600  207.0650  154.9000 N   0  0  0  0  0  2  0  0  0  0  0  0
  156.2170  214.1560  151.1960 N   0  0  0  0  0  0  0  0  0  0  0  0
  156.9850  214.4330  150.1950 C   0  0  0  0  0  3  0  0  0  0  0  0
  156.4280  214.4530  148.8140 C   0  0  0  0  0  2  0  0  0  0  0  0
  158.8760  214.4530  148.2910 C   0  0  0  0  0  1  0  0  0  0  0  0
  157.5000  214.3050  147.8430 N   0  0  0  0  0  0  0  0  0  0  0  0
  158.1400  213.8100  145.6480 O   0  0  0  0  0  0  0  0  0  0  0  0
  155.8910  213.8050  146.0660 O   0  0  0  0  0  1  0  0  0  0  0  0
  157.2070  213.9650  146.4810 C   0  0  0  0  0  0  0  0  0  0  0  0
  1  8  1  0  0  0  0
  1 13  1  0  0  0  0
  2 14  1  0  0  0  0
  2  8  2  0  0  0  0
  3  8  1  6  0  0  0
  3 18  1  0  0  0  0
  3 19  1  0  0  0  0
  4 10  1  0  0  0  0
  4 15  1  0  0  0  0
  5  6  2  0  0  0  0
  5 11  1  0  0  0  0
  6  2  1  0  0  0  0
  7 18  1  0  0  0  0
  7 17  2  0  0  0  0
  9 17  1  0  0  0  0
 11  1  2  0  0  0  0
 13 12  1  0  0  0  0
 16 15  1  1  0  0  0
 16 22  1  0  0  0  0
 17 10  1  0  0  0  0
 18  4  2  0  0  0  0
 19 12  1  6  0  0  0
 19 16  1  0  0  0  0
 20 21  1  0  0  0  0
 22 24  1  1  0  0  0
 22 25  1  0  0  0  0
 23 21  1  0  0  0  0
 25 23  1  0  0  0  0
 26 24  1  0  0  0  0
 26 20  1  0  0  0  0
 27  9  1  0  0  0  0
 28 27  2  0  0  0  0
 29 28  1  0  0  0  0
 31 30  1  0  0  0  0
 31 29  1  0  0  0  0
 32 34  2  0  0  0  0
 33 34  1  0  0  0  0
 34 31  1  0  0  0  0
M  END
>  <MODEL>
6

>  <REMARK>
 VINA RESULT:      -3.4      4.899      8.475
  Name = 
  4 active torsions:
  status: ('A' for Active; 'I' for Inactive)
    1  A    between atoms: N_3  and  C_17
    2  A    between atoms: C_12  and  C_28
    3  A    between atoms: C_13  and  C_33
    4  A    between atoms: N_14  and  C_33
                            x       y       z     vdW  Elec       q    Type
                         _______ _______ _______ _____ _____    ______ ____

>  <TORSDO>
F 4

$$$$
