=
 OpenBabel11062409043D

 37 42  0  0  1  0  0  0  0  0999 V2000
  158.0060  213.2840  149.5170 C   0  0  0  0  0  0  0  0  0  0  0  0
  160.5860  211.7200  150.7840 C   0  0  0  0  0  0  0  0  0  0  0  0
  160.2680  213.5960  148.6160 O   0  0  0  0  0  0  0  0  0  0  0  0
  160.4360  210.7120  151.6550 C   0  0  0  0  0  3  0  0  0  0  0  0
  159.9190  213.0730  151.0530 C   0  0  2  0  0  3  0  0  0  0  0  0
  161.1800  209.4080  151.6410 C   0  0  1  0  0  3  0  0  0  0  0  0
  161.5730  213.9620  148.9780 C   0  0  0  0  0  2  0  0  0  0  0  0
  158.6090  213.0690  151.8500 C   0  0  1  0  0  3  0  0  0  0  0  0
  157.9170  212.1760  148.4790 C   0  0  0  0  0  1  0  0  0  0  0  0
  161.3410  210.5380  148.7010 C   0  0  0  0  0  2  0  0  0  0  0  0
  162.3860  212.7090  149.3070 C   0  0  0  0  0  2  0  0  0  0  0  0
  157.5130  212.7420  150.8510 C   0  0  0  0  0  2  0  0  0  0  0  0
  161.5200  211.5940  149.6900 N   0  0  0  0  0  0  0  0  0  0  0  0
  159.4470  213.7620  149.7550 C   0  0  2  0  0  3  0  0  0  0  0  0
  161.0190  208.6540  150.3160 C   0  0  1  0  0  3  0  0  0  0  0  0
  157.1430  214.4530  149.0870 C   0  0  0  0  0  1  0  0  0  0  0  0
  161.8930  209.2140  149.1980 C   0  0  0  0  0  2  0  0  0  0  0  0
  157.1040  212.1580  153.7470 C   0  0  0  0  0  2  0  0  0  0  0  0
  156.3780  213.4650  154.1860 C   0  0  1  0  0  3  0  0  0  0  0  0
  158.1920  213.6410  155.9780 C   0  0  2  0  0  0  0  0  0  0  0  0
  156.8030  214.0800  155.5450 C   0  0  0  0  0  2  0  0  0  0  0  0
  159.4460  214.4520  156.2430 C   0  0  0  0  0  2  0  0  0  0  0  0
  159.6060  212.7770  154.1860 C   0  0  0  0  0  2  0  0  0  0  0  0
  159.1110  214.0590  154.8220 C   0  0  1  0  0  3  0  0  0  0  0  0
  158.3040  212.3130  156.4170 O   0  0  0  0  0  1  0  0  0  0  0  0
  158.5470  212.2910  153.1720 C   0  0  2  0  0  3  0  0  0  0  0  0
  156.4070  214.4350  153.1810 O   0  0  0  0  0  0  0  0  0  0  0  0
  155.1900  214.4310  152.6790 O   0  0  0  0  0  1  0  0  0  0  0  0
  161.4270  206.6160  151.7630 C   0  0  0  0  0  3  0  0  0  0  0  0
  161.2210  207.1800  150.4930 C   0  0  0  0  0  0  0  0  0  0  0  0
  161.1700  206.3480  149.3700 C   0  0  0  0  0  3  0  0  0  0  0  0
  161.2720  203.9340  148.0970 Cl  0  0  0  0  0  0  0  0  0  0  0  0
  161.5480  204.4100  150.7720 C   0  0  0  0  0  3  0  0  0  0  0  0
  161.3350  204.9660  149.5080 C   0  0  0  0  0  0  0  0  0  0  0  0
  161.5930  205.2340  151.9000 C   0  0  0  0  0  3  0  0  0  0  0  0
  162.6380  209.5840  152.0650 C   0  0  0  0  0  2  0  0  0  0  0  0
  162.7200  210.2940  153.4020 C   0  0  0  0  0  1  0  0  0  0  0  0
  1 14  1  0  0  0  0
  1 12  1  0  0  0  0
  2  4  2  0  0  0  0
  3  7  1  0  0  0  0
  5  2  1  6  0  0  0
  5  8  1  0  0  0  0
  6  4  1  0  0  0  0
  6 36  1  6  0  0  0
  7 11  1  0  0  0  0
  8 12  1  6  0  0  0
  8 26  1  0  0  0  0
  9  1  1  0  0  0  0
 10 17  1  0  0  0  0
 10 13  1  0  0  0  0
 11 13  1  0  0  0  0
 13  2  1  0  0  0  0
 14  3  1  6  0  0  0
 14  5  1  0  0  0  0
 15 30  1  1  0  0  0
 15  6  1  0  0  0  0
 16  1  1  0  0  0  0
 17 15  1  0  0  0  0
 18 19  1  0  0  0  0
 19 27  1  6  0  0  0
 19 21  1  0  0  0  0
 20 22  1  0  0  0  0
 20 25  1  1  0  0  0
 21 20  1  0  0  0  0
 24 23  1  1  0  0  0
 24 20  1  0  0  0  0
 24 22  1  0  0  0  0
 26 18  1  1  0  0  0
 26 23  1  0  0  0  0
 28 27  1  0  0  0  0
 29 35  1  0  0  0  0
 30 29  2  0  0  0  0
 31 34  2  0  0  0  0
 31 30  1  0  0  0  0
 32 34  1  0  0  0  0
 33 35  2  0  0  0  0
 34 33  1  0  0  0  0
 36 37  1  0  0  0  0
M  END
>  <MODEL>
1

>  <REMARK>
 VINA RESULT:      -2.3      0.000      0.000
  Name = 
  4 active torsions:
  status: ('A' for Active; 'I' for Inactive)
    1  A    between atoms: C_5  and  O_12
    2  A    between atoms: C_6  and  C_31
    3  A    between atoms: C_7  and  C_14
    4  A    between atoms: C_20  and  C_36
                            x       y       z     vdW  Elec       q    Type
                         _______ _______ _______ _____ _____    ______ ____

>  <TORSDO>
F 4

$$$$
=
 OpenBabel11062409043D

 37 42  0  0  1  0  0  0  0  0999 V2000
  160.6750  207.4230  155.4690 C   0  0  0  0  0  0  0  0  0  0  0  0
  160.6340  210.3370  153.9790 C   0  0  0  0  0  0  0  0  0  0  0  0
  161.7990  209.3790  156.4370 O   0  0  0  0  0  0  0  0  0  0  0  0
  159.8190  210.5820  152.9430 C   0  0  0  0  0  3  0  0  0  0  0  0
  161.5790  209.1310  153.9430 C   0  0  2  0  0  3  0  0  0  0  0  0
  158.9910  211.8190  152.7380 C   0  0  1  0  0  3  0  0  0  0  0  0
  162.7550  210.3680  156.1610 C   0  0  0  0  0  2  0  0  0  0  0  0
  161.1290  207.9040  153.1420 C   0  0  1  0  0  3  0  0  0  0  0  0
  159.4890  207.8940  156.2960 C   0  0  0  0  0  1  0  0  0  0  0  0
  159.5830  211.6670  155.8320 C   0  0  0  0  0  2  0  0  0  0  0  0
  162.0590  211.6210  155.6280 C   0  0  0  0  0  2  0  0  0  0  0  0
  160.1960  207.1280  154.0550 C   0  0  0  0  0  2  0  0  0  0  0  0
  160.7560  211.3020  155.0450 N   0  0  0  0  0  0  0  0  0  0  0  0
  161.7690  208.4940  155.3360 C   0  0  2  0  0  3  0  0  0  0  0  0
  158.0390  212.0890  153.9080 C   0  0  1  0  0  3  0  0  0  0  0  0
  161.2590  206.1690  156.0860 C   0  0  0  0  0  1  0  0  0  0  0  0
  158.7370  212.7050  155.1180 C   0  0  0  0  0  2  0  0  0  0  0  0
  159.9670  206.8240  151.0980 C   0  0  0  0  0  2  0  0  0  0  0  0
  160.8700  205.5720  150.8860 C   0  0  1  0  0  3  0  0  0  0  0  0
  162.1170  207.0010  149.1730 C   0  0  2  0  0  0  0  0  0  0  0  0
  161.8200  205.5930  149.6610 C   0  0  0  0  0  2  0  0  0  0  0  0
  163.4300  207.7530  149.0680 C   0  0  0  0  0  2  0  0  0  0  0  0
  161.6910  208.7680  150.8020 C   0  0  0  0  0  2  0  0  0  0  0  0
  162.7050  207.7200  150.3940 C   0  0  1  0  0  3  0  0  0  0  0  0
  161.0670  207.6520  148.5100 O   0  0  0  0  0  1  0  0  0  0  0  0
  160.6290  208.0990  151.7030 C   0  0  2  0  0  3  0  0  0  0  0  0
  161.5760  205.2420  152.0460 O   0  0  0  0  0  0  0  0  0  0  0  0
  161.0820  204.0800  152.4170 O   0  0  0  0  0  1  0  0  0  0  0  0
  155.8950  213.3420  154.4040 C   0  0  0  0  0  3  0  0  0  0  0  0
  156.8550  212.9000  153.4790 C   0  0  0  0  0  0  0  0  0  0  0  0
  156.7230  213.2490  152.1300 C   0  0  0  0  0  3  0  0  0  0  0  0
  155.4830  214.4530  150.0160 Cl  0  0  0  0  0  0  0  0  0  0  0  0
  154.6820  214.4530  152.6280 C   0  0  0  0  0  3  0  0  0  0  0  0
  155.6390  214.0220  151.7050 C   0  0  0  0  0  0  0  0  0  0  0  0
  154.8100  214.1140  153.9770 C   0  0  0  0  0  3  0  0  0  0  0  0
  159.8560  213.0240  152.3690 C   0  0  0  0  0  2  0  0  0  0  0  0
  160.0830  213.0760  150.8700 C   0  0  0  0  0  1  0  0  0  0  0  0
  1 16  1  0  0  0  0
  1  9  1  0  0  0  0
  2 13  1  0  0  0  0
  4  2  2  0  0  0  0
  5  2  1  1  0  0  0
  5 14  1  0  0  0  0
  6 36  1  1  0  0  0
  6  4  1  0  0  0  0
  6 15  1  0  0  0  0
  7  3  1  0  0  0  0
  8  5  1  0  0  0  0
  8 12  1  1  0  0  0
 11  7  1  0  0  0  0
 12  1  1  0  0  0  0
 13 11  1  0  0  0  0
 13 10  1  0  0  0  0
 14  1  1  0  0  0  0
 14  3  1  1  0  0  0
 15 30  1  6  0  0  0
 15 17  1  0  0  0  0
 17 10  1  0  0  0  0
 18 26  1  0  0  0  0
 19 18  1  0  0  0  0
 19 27  1  1  0  0  0
 20 25  1  6  0  0  0
 20 21  1  0  0  0  0
 20 24  1  0  0  0  0
 21 19  1  0  0  0  0
 22 20  1  0  0  0  0
 24 22  1  6  0  0  0
 24 23  1  0  0  0  0
 26 23  1  6  0  0  0
 26  8  1  0  0  0  0
 27 28  1  0  0  0  0
 30 29  2  0  0  0  0
 31 30  1  0  0  0  0
 32 34  1  0  0  0  0
 33 35  2  0  0  0  0
 34 31  2  0  0  0  0
 34 33  1  0  0  0  0
 35 29  1  0  0  0  0
 37 36  1  0  0  0  0
M  END
>  <MODEL>
2

>  <REMARK>
 VINA RESULT:      -1.6      3.853      8.426
  Name = 
  4 active torsions:
  status: ('A' for Active; 'I' for Inactive)
    1  A    between atoms: C_5  and  O_12
    2  A    between atoms: C_6  and  C_31
    3  A    between atoms: C_7  and  C_14
    4  A    between atoms: C_20  and  C_36
                            x       y       z     vdW  Elec       q    Type
                         _______ _______ _______ _____ _____    ______ ____

>  <TORSDO>
F 4

$$$$
=
 OpenBabel11062409043D

 37 42  0  0  1  0  0  0  0  0999 V2000
  160.6630  207.8640  156.3190 C   0  0  0  0  0  0  0  0  0  0  0  0
  160.3650  210.7700  154.8430 C   0  0  0  0  0  0  0  0  0  0  0  0
  161.6800  209.8930  157.2550 O   0  0  0  0  0  0  0  0  0  0  0  0
  159.4990  210.9600  153.8370 C   0  0  0  0  0  3  0  0  0  0  0  0
  161.3910  209.6340  154.7690 C   0  0  2  0  0  3  0  0  0  0  0  0
  158.5800  212.1360  153.6660 C   0  0  1  0  0  3  0  0  0  0  0  0
  162.5540  210.9460  156.9490 C   0  0  0  0  0  2  0  0  0  0  0  0
  161.0000  208.3790  153.9790 C   0  0  1  0  0  3  0  0  0  0  0  0
  159.4760  208.2500  157.1880 C   0  0  0  0  0  1  0  0  0  0  0  0
  159.2890  212.0210  156.7370 C   0  0  0  0  0  2  0  0  0  0  0  0
  161.7540  212.1490  156.4460 C   0  0  0  0  0  2  0  0  0  0  0  0
  160.1550  207.5390  154.9210 C   0  0  0  0  0  2  0  0  0  0  0  0
  160.4560  211.7410  155.9080 N   0  0  0  0  0  0  0  0  0  0  0  0
  161.6740  209.0100  156.1510 C   0  0  2  0  0  3  0  0  0  0  0  0
  157.6530  212.3370  154.8700 C   0  0  1  0  0  3  0  0  0  0  0  0
  161.3530  206.6530  156.9100 C   0  0  0  0  0  1  0  0  0  0  0  0
  158.3480  212.9990  156.0570 C   0  0  0  0  0  2  0  0  0  0  0  0
  160.4880  207.2300  151.7190 C   0  0  0  0  0  2  0  0  0  0  0  0
  161.8910  206.6480  151.3720 C   0  0  1  0  0  3  0  0  0  0  0  0
  162.2180  208.7730  149.9910 C   0  0  2  0  0  0  0  0  0  0  0  0
  162.6760  207.3440  150.2300 C   0  0  0  0  0  2  0  0  0  0  0  0
  162.9770  210.0830  150.0930 C   0  0  0  0  0  2  0  0  0  0  0  0
  161.0020  209.7900  151.8470 C   0  0  0  0  0  2  0  0  0  0  0  0
  162.3950  209.4710  151.3470 C   0  0  1  0  0  3  0  0  0  0  0  0
  160.9680  208.9190  149.3710 O   0  0  0  0  0  1  0  0  0  0  0  0
  160.4370  208.5420  152.5590 C   0  0  2  0  0  3  0  0  0  0  0  0
  162.6920  206.5200  152.5090 O   0  0  0  0  0  0  0  0  0  0  0  0
  162.2230  205.4590  153.1310 O   0  0  0  0  0  1  0  0  0  0  0  0
  155.5430  213.6090  155.4550 C   0  0  0  0  0  3  0  0  0  0  0  0
  156.4010  213.0640  154.4850 C   0  0  0  0  0  0  0  0  0  0  0  0
  156.1000  213.2270  153.1290 C   0  0  0  0  0  3  0  0  0  0  0  0
  154.5790  214.1170  151.0420 Cl  0  0  0  0  0  0  0  0  0  0  0  0
  154.0930  214.4530  153.7090 C   0  0  0  0  0  3  0  0  0  0  0  0
  154.9480  213.9190  152.7410 C   0  0  0  0  0  0  0  0  0  0  0  0
  154.3910  214.2990  155.0650 C   0  0  0  0  0  3  0  0  0  0  0  0
  159.3460  213.3990  153.2720 C   0  0  0  0  0  2  0  0  0  0  0  0
  159.6270  213.4060  151.7810 C   0  0  0  0  0  1  0  0  0  0  0  0
  1 16  1  0  0  0  0
  1  9  1  0  0  0  0
  2 13  1  0  0  0  0
  4  2  2  0  0  0  0
  5  2  1  1  0  0  0
  5 14  1  0  0  0  0
  6 36  1  1  0  0  0
  6  4  1  0  0  0  0
  6 15  1  0  0  0  0
  7  3  1  0  0  0  0
  8  5  1  0  0  0  0
  8 12  1  1  0  0  0
 11  7  1  0  0  0  0
 12  1  1  0  0  0  0
 13 11  1  0  0  0  0
 13 10  1  0  0  0  0
 14  1  1  0  0  0  0
 14  3  1  1  0  0  0
 15 30  1  6  0  0  0
 15 17  1  0  0  0  0
 17 10  1  0  0  0  0
 19 18  1  0  0  0  0
 19 27  1  1  0  0  0
 20 25  1  6  0  0  0
 20 22  1  0  0  0  0
 20 21  1  0  0  0  0
 20 24  1  0  0  0  0
 21 19  1  0  0  0  0
 23 26  1  0  0  0  0
 24 22  1  6  0  0  0
 24 23  1  0  0  0  0
 26 18  1  6  0  0  0
 26  8  1  0  0  0  0
 27 28  1  0  0  0  0
 30 29  2  0  0  0  0
 31 30  1  0  0  0  0
 32 34  1  0  0  0  0
 33 35  2  0  0  0  0
 34 31  2  0  0  0  0
 34 33  1  0  0  0  0
 35 29  1  0  0  0  0
 37 36  1  0  0  0  0
M  END
>  <MODEL>
3

>  <REMARK>
 VINA RESULT:      -1.5      3.879      8.454
  Name = 
  4 active torsions:
  status: ('A' for Active; 'I' for Inactive)
    1  A    between atoms: C_5  and  O_12
    2  A    between atoms: C_6  and  C_31
    3  A    between atoms: C_7  and  C_14
    4  A    between atoms: C_20  and  C_36
                            x       y       z     vdW  Elec       q    Type
                         _______ _______ _______ _____ _____    ______ ____

>  <TORSDO>
F 4

$$$$
=
 OpenBabel11062409043D

 37 42  0  0  1  0  0  0  0  0999 V2000
  158.7140  213.1000  149.9200 C   0  0  0  0  0  0  0  0  0  0  0  0
  161.0540  210.9200  150.6190 C   0  0  0  0  0  0  0  0  0  0  0  0
  160.9370  213.2220  148.8840 O   0  0  0  0  0  0  0  0  0  0  0  0
  160.7840  209.7940  151.2940 C   0  0  0  0  0  3  0  0  0  0  0  0
  160.6520  212.2800  151.2000 C   0  0  2  0  0  3  0  0  0  0  0  0
  161.2860  208.4180  150.9630 C   0  0  1  0  0  3  0  0  0  0  0  0
  162.3050  213.2950  149.1840 C   0  0  0  0  0  2  0  0  0  0  0  0
  159.4130  212.3240  152.1020 C   0  0  1  0  0  3  0  0  0  0  0  0
  158.3700  212.2530  148.7050 C   0  0  0  0  0  1  0  0  0  0  0  0
  161.4610  210.0790  148.2870 C   0  0  0  0  0  2  0  0  0  0  0  0
  162.9050  211.8880  149.1910 C   0  0  0  0  0  2  0  0  0  0  0  0
  158.2170  212.3840  151.1680 C   0  0  0  0  0  2  0  0  0  0  0  0
  161.8830  210.8710  149.4370 N   0  0  0  0  0  0  0  0  0  0  0  0
  160.2290  213.2830  150.1060 C   0  0  2  0  0  3  0  0  0  0  0  0
  160.9140  207.9830  149.5410 C   0  0  1  0  0  3  0  0  0  0  0  0
  158.0450  214.4530  149.8020 C   0  0  0  0  0  1  0  0  0  0  0  0
  161.8030  208.6110  148.4710 C   0  0  0  0  0  2  0  0  0  0  0  0
  157.8520  211.1850  153.8220 C   0  0  0  0  0  2  0  0  0  0  0  0
  157.2330  212.4350  154.5160 C   0  0  1  0  0  3  0  0  0  0  0  0
  159.0650  212.1250  156.2720 C   0  0  2  0  0  0  0  0  0  0  0  0
  157.7130  212.7440  155.9590 C   0  0  0  0  0  2  0  0  0  0  0  0
  160.3810  212.7730  156.6600 C   0  0  0  0  0  2  0  0  0  0  0  0
  160.3970  211.5150  154.3190 C   0  0  0  0  0  2  0  0  0  0  0  0
  160.0080  212.6860  155.1980 C   0  0  1  0  0  3  0  0  0  0  0  0
  159.0740  210.7340  156.4480 O   0  0  0  0  0  1  0  0  0  0  0  0
  159.2970  211.3140  153.2540 C   0  0  2  0  0  3  0  0  0  0  0  0
  157.3330  213.5730  153.7140 O   0  0  0  0  0  0  0  0  0  0  0  0
  156.0890  213.8770  153.4090 O   0  0  0  0  0  1  0  0  0  0  0  0
  160.8750  205.8600  148.1610 C   0  0  0  0  0  3  0  0  0  0  0  0
  160.8660  206.4910  149.4160 C   0  0  0  0  0  0  0  0  0  0  0  0
  160.8430  205.7120  150.5780 C   0  0  0  0  0  3  0  0  0  0  0  0
  160.7900  203.3520  151.9510 Cl  0  0  0  0  0  0  0  0  0  0  0  0
  160.8200  203.6930  149.2410 C   0  0  0  0  0  3  0  0  0  0  0  0
  160.8190  204.3170  150.4920 C   0  0  0  0  0  0  0  0  0  0  0  0
  160.8490  204.4640  148.0760 C   0  0  0  0  0  3  0  0  0  0  0  0
  162.7760  208.2700  151.2720 C   0  0  0  0  0  2  0  0  0  0  0  0
  163.0750  206.8740  151.7850 C   0  0  0  0  0  1  0  0  0  0  0  0
  1 14  1  0  0  0  0
  1 12  1  0  0  0  0
  2  4  2  0  0  0  0
  3  7  1  0  0  0  0
  5  2  1  6  0  0  0
  5  8  1  0  0  0  0
  6 36  1  6  0  0  0
  6  4  1  0  0  0  0
  7 11  1  0  0  0  0
  8 12  1  6  0  0  0
  8 26  1  0  0  0  0
  9  1  1  0  0  0  0
 10 17  1  0  0  0  0
 10 13  1  0  0  0  0
 11 13  1  0  0  0  0
 13  2  1  0  0  0  0
 14  3  1  6  0  0  0
 14  5  1  0  0  0  0
 15 30  1  1  0  0  0
 15  6  1  0  0  0  0
 16  1  1  0  0  0  0
 17 15  1  0  0  0  0
 18 19  1  0  0  0  0
 19 27  1  6  0  0  0
 19 21  1  0  0  0  0
 20 25  1  1  0  0  0
 20 22  1  0  0  0  0
 21 20  1  0  0  0  0
 24 23  1  6  0  0  0
 24 20  1  0  0  0  0
 24 22  1  0  0  0  0
 26 18  1  1  0  0  0
 26 23  1  0  0  0  0
 28 27  1  0  0  0  0
 29 30  1  0  0  0  0
 30 31  2  0  0  0  0
 33 34  2  0  0  0  0
 34 31  1  0  0  0  0
 34 32  1  0  0  0  0
 35 29  2  0  0  0  0
 35 33  1  0  0  0  0
 36 37  1  0  0  0  0
M  END
>  <MODEL>
4

>  <REMARK>
 VINA RESULT:      -0.6      1.360      1.745
  Name = 
  4 active torsions:
  status: ('A' for Active; 'I' for Inactive)
    1  A    between atoms: C_5  and  O_12
    2  A    between atoms: C_6  and  C_31
    3  A    between atoms: C_7  and  C_14
    4  A    between atoms: C_20  and  C_36
                            x       y       z     vdW  Elec       q    Type
                         _______ _______ _______ _____ _____    ______ ____

>  <TORSDO>
F 4

$$$$
