=
 OpenBabel11062408253D

 32 36  0  0  1  0  0  0  0  0999 V2000
  161.6110  207.7630  150.2990 N   0  0  0  0  0  0  0  0  0  0  0  0
  160.8900  207.9620  152.9660 C   0  0  0  0  0  0  0  0  0  0  0  0
  162.7690  207.6180  149.4160 C   0  0  0  0  0  2  0  0  0  0  0  0
  161.1860  209.1010  150.7480 C   0  0  1  0  0  3  0  0  0  0  0  0
  161.1620  210.3330  152.9320 N   0  0  0  0  0  0  0  0  0  0  0  0
  160.3520  206.9610  156.5050 C   0  0  0  0  0  3  0  0  0  0  0  0
  161.1250  209.1500  152.2580 C   0  0  0  0  0  0  0  0  0  0  0  0
  160.6530  209.3630  156.3820 C   0  0  0  0  0  3  0  0  0  0  0  0
  160.8040  209.2730  154.9960 C   0  0  0  0  0  0  0  0  0  0  0  0
  162.0610  210.2040  150.1260 C   0  0  1  0  0  3  0  0  0  0  0  0
  161.0160  210.3920  154.2570 N   0  0  0  0  0  0  0  0  0  0  0  0
  162.1880  209.9820  148.6180 C   0  0  0  0  0  2  0  0  0  0  0  0
  160.8220  206.7090  152.2670 N   0  0  0  0  0  0  0  0  0  0  0  0
  161.1330  206.6040  151.0080 C   0  0  0  0  0  0  0  0  0  0  0  0
  160.7300  208.0200  154.3560 C   0  0  0  0  0  0  0  0  0  0  0  0
  162.6730  208.5780  148.2330 C   0  0  0  0  0  2  0  0  0  0  0  0
  160.4280  208.2070  157.1360 C   0  0  0  0  0  3  0  0  0  0  0  0
  160.5030  206.8660  155.1190 C   0  0  0  0  0  3  0  0  0  0  0  0
  160.8990  202.8430  150.4220 C   0  0  0  0  0  0  0  0  0  0  0  0
  160.7760  201.6520  151.1280 O   0  0  0  0  0  1  0  0  0  0  0  0
  161.0780  205.2740  150.3590 C   0  0  0  0  0  0  0  0  0  0  0  0
  160.9720  202.8040  149.0290 C   0  0  0  0  0  3  0  0  0  0  0  0
  161.1640  205.2090  148.9620 C   0  0  0  0  0  3  0  0  0  0  0  0
  160.9570  204.0740  151.0990 C   0  0  0  0  0  0  0  0  0  0  0  0
  160.9550  204.0770  152.5950 C   0  0  0  0  0  1  0  0  0  0  0  0
  161.1100  203.9870  148.2910 C   0  0  0  0  0  0  0  0  0  0  0  0
  162.0470  204.8490  146.1700 C   0  0  0  0  0  1  0  0  0  0  0  0
  161.1930  203.9750  146.8960 O   0  0  0  0  0  0  0  0  0  0  0  0
  161.4650  211.5110  150.3550 N   0  0  0  0  0  2  0  0  0  0  0  0
  161.5500  212.2450  149.1050 C   0  0  0  0  0  2  0  0  0  0  0  0
  160.5710  213.4000  149.1320 C   0  0  0  0  0  2  0  0  0  0  0  0
  159.9210  213.4290  150.3650 O   0  0  0  0  0  1  0  0  0  0  0  0
  1  4  1  0  0  0  0
  1 14  1  0  0  0  0
  2 15  1  0  0  0  0
  3  1  1  0  0  0  0
  4  7  1  1  0  0  0
  5 11  2  0  0  0  0
  6 17  1  0  0  0  0
  7  5  1  0  0  0  0
  7  2  2  0  0  0  0
  8 17  2  0  0  0  0
  9  8  1  0  0  0  0
 10 29  1  6  0  0  0
 10  4  1  0  0  0  0
 11  9  1  0  0  0  0
 12 10  1  0  0  0  0
 13  2  1  0  0  0  0
 14 13  2  0  0  0  0
 15  9  2  0  0  0  0
 15 18  1  0  0  0  0
 16 12  1  0  0  0  0
 16  3  1  0  0  0  0
 18  6  2  0  0  0  0
 19 24  1  0  0  0  0
 19 20  1  0  0  0  0
 21 14  1  0  0  0  0
 21 24  2  0  0  0  0
 22 19  2  0  0  0  0
 23 21  1  0  0  0  0
 24 25  1  0  0  0  0
 26 23  2  0  0  0  0
 26 22  1  0  0  0  0
 27 28  1  0  0  0  0
 28 26  1  0  0  0  0
 30 31  1  0  0  0  0
 30 29  1  0  0  0  0
 31 32  1  0  0  0  0
M  END
>  <MODEL>
1

>  <REMARK>
 VINA RESULT:      -8.2      0.000      0.000
  Name = 
  5 active torsions:
  status: ('A' for Active; 'I' for Inactive)
    1  A    between atoms: C_13  and  C_18
    2  A    between atoms: C_14  and  N_29
    3  A    between atoms: O_15  and  C_26
    4  A    between atoms: C_16  and  C_27
    5  A    between atoms: C_18  and  N_29
                            x       y       z     vdW  Elec       q    Type
                         _______ _______ _______ _____ _____    ______ ____

>  <TORSDO>
F 5

$$$$
=
 OpenBabel11062408253D

 32 36  0  0  1  0  0  0  0  0999 V2000
  161.0310  209.8390  151.7570 N   0  0  0  0  0  0  0  0  0  0  0  0
  161.3170  207.3070  150.6700 C   0  0  0  0  0  0  0  0  0  0  0  0
  160.0500  210.8960  151.9960 C   0  0  0  0  0  2  0  0  0  0  0  0
  161.7480  209.7730  150.4710 C   0  0  1  0  0  3  0  0  0  0  0  0
  161.7640  208.2130  148.5080 N   0  0  0  0  0  0  0  0  0  0  0  0
  160.9300  203.6310  150.2720 C   0  0  0  0  0  3  0  0  0  0  0  0
  161.5650  208.4100  149.8400 C   0  0  0  0  0  0  0  0  0  0  0  0
  161.3730  204.6360  148.1110 C   0  0  0  0  0  3  0  0  0  0  0  0
  161.4390  205.8960  148.7100 C   0  0  0  0  0  0  0  0  0  0  0  0
  161.3540  210.9410  149.5490 C   0  0  1  0  0  3  0  0  0  0  0  0
  161.6940  206.9980  147.9590 N   0  0  0  0  0  0  0  0  0  0  0  0
  161.4250  212.2610  150.3200 C   0  0  0  0  0  2  0  0  0  0  0  0
  161.1320  207.4960  152.0820 N   0  0  0  0  0  0  0  0  0  0  0  0
  161.0210  208.6790  152.6110 C   0  0  0  0  0  0  0  0  0  0  0  0
  161.2490  206.0300  150.1000 C   0  0  0  0  0  0  0  0  0  0  0  0
  160.6210  212.2620  151.6280 C   0  0  0  0  0  2  0  0  0  0  0  0
  161.1180  203.5050  148.8920 C   0  0  0  0  0  3  0  0  0  0  0  0
  160.9950  204.8900  150.8760 C   0  0  0  0  0  3  0  0  0  0  0  0
  160.4670  207.8530  156.2920 C   0  0  0  0  0  0  0  0  0  0  0  0
  160.3500  206.7590  157.1420 O   0  0  0  0  0  1  0  0  0  0  0  0
  160.7920  208.8000  154.0690 C   0  0  0  0  0  0  0  0  0  0  0  0
  160.3690  209.1400  156.8230 C   0  0  0  0  0  3  0  0  0  0  0  0
  160.6760  210.0820  154.6220 C   0  0  0  0  0  3  0  0  0  0  0  0
  160.6720  207.6710  154.9140 C   0  0  0  0  0  0  0  0  0  0  0  0
  160.6950  206.2790  154.3630 C   0  0  0  0  0  1  0  0  0  0  0  0
  160.4680  210.2620  155.9910 C   0  0  0  0  0  0  0  0  0  0  0  0
  159.9900  212.6710  155.6910 C   0  0  0  0  0  1  0  0  0  0  0  0
  160.3660  211.5610  156.4950 O   0  0  0  0  0  0  0  0  0  0  0  0
  162.2600  211.0170  148.4140 N   0  0  0  0  0  2  0  0  0  0  0  0
  162.6610  212.4060  148.2780 C   0  0  0  0  0  2  0  0  0  0  0  0
  162.4010  212.8700  146.8600 C   0  0  0  0  0  2  0  0  0  0  0  0
  161.0850  212.5720  146.5090 O   0  0  0  0  0  1  0  0  0  0  0  0
  1  3  1  0  0  0  0
  1 14  1  0  0  0  0
  2 13  1  0  0  0  0
  4  7  1  6  0  0  0
  4  1  1  0  0  0  0
  5  7  1  0  0  0  0
  6 18  1  0  0  0  0
  7  2  2  0  0  0  0
  8  9  2  0  0  0  0
  8 17  1  0  0  0  0
  9 15  1  0  0  0  0
 10 29  1  6  0  0  0
 10 12  1  0  0  0  0
 10  4  1  0  0  0  0
 11  5  2  0  0  0  0
 11  9  1  0  0  0  0
 12 16  1  0  0  0  0
 13 14  2  0  0  0  0
 14 21  1  0  0  0  0
 15  2  1  0  0  0  0
 15 18  2  0  0  0  0
 16  3  1  0  0  0  0
 17  6  2  0  0  0  0
 19 22  1  0  0  0  0
 19 20  1  0  0  0  0
 21 23  2  0  0  0  0
 21 24  1  0  0  0  0
 23 26  1  0  0  0  0
 24 19  2  0  0  0  0
 25 24  1  0  0  0  0
 26 28  1  0  0  0  0
 26 22  2  0  0  0  0
 27 28  1  0  0  0  0
 30 29  1  0  0  0  0
 31 30  1  0  0  0  0
 32 31  1  0  0  0  0
M  END
>  <MODEL>
2

>  <REMARK>
 VINA RESULT:      -7.5      2.514      6.312
  Name = 
  5 active torsions:
  status: ('A' for Active; 'I' for Inactive)
    1  A    between atoms: C_13  and  C_18
    2  A    between atoms: C_14  and  N_29
    3  A    between atoms: O_15  and  C_26
    4  A    between atoms: C_16  and  C_27
    5  A    between atoms: C_18  and  N_29
                            x       y       z     vdW  Elec       q    Type
                         _______ _______ _______ _____ _____    ______ ____

>  <TORSDO>
F 5

$$$$
=
 OpenBabel11062408253D

 32 36  0  0  1  0  0  0  0  0999 V2000
  161.2080  205.4000  150.4340 N   0  0  0  0  0  0  0  0  0  0  0  0
  161.7170  208.0600  149.8500 C   0  0  0  0  0  0  0  0  0  0  0  0
  160.1220  204.4550  150.6930 C   0  0  0  0  0  2  0  0  0  0  0  0
  161.7700  206.2000  151.5370 C   0  0  1  0  0  3  0  0  0  0  0  0
  161.7750  208.6260  152.1680 N   0  0  0  0  0  0  0  0  0  0  0  0
  161.8080  211.2410  147.9300 C   0  0  0  0  0  3  0  0  0  0  0  0
  161.7080  207.6730  151.1990 C   0  0  0  0  0  0  0  0  0  0  0  0
  161.8480  211.7290  150.3050 C   0  0  0  0  0  3  0  0  0  0  0  0
  161.8060  210.3610  150.5870 C   0  0  0  0  0  0  0  0  0  0  0  0
  161.1100  205.8430  152.8810 C   0  0  1  0  0  3  0  0  0  0  0  0
  161.8130  209.9270  151.8730 N   0  0  0  0  0  0  0  0  0  0  0  0
  161.0840  204.3240  153.0630 C   0  0  0  0  0  2  0  0  0  0  0  0
  161.6740  207.0640  148.8160 N   0  0  0  0  0  0  0  0  0  0  0  0
  161.4610  205.8080  149.0760 C   0  0  0  0  0  0  0  0  0  0  0  0
  161.7640  209.4230  149.5360 C   0  0  0  0  0  0  0  0  0  0  0  0
  160.4480  203.5670  151.8900 C   0  0  0  0  0  2  0  0  0  0  0  0
  161.8480  212.1680  148.9780 C   0  0  0  0  0  3  0  0  0  0  0  0
  161.7660  209.8720  148.2070 C   0  0  0  0  0  3  0  0  0  0  0  0
  161.2970  204.2800  145.5860 C   0  0  0  0  0  0  0  0  0  0  0  0
  161.2630  204.6580  144.2480 O   0  0  0  0  0  1  0  0  0  0  0  0
  161.3900  204.8400  147.9570 C   0  0  0  0  0  0  0  0  0  0  0  0
  161.2660  202.9230  145.9100 C   0  0  0  0  0  3  0  0  0  0  0  0
  161.3450  203.4720  148.2590 C   0  0  0  0  0  3  0  0  0  0  0  0
  161.3520  205.2490  146.6020 C   0  0  0  0  0  0  0  0  0  0  0  0
  161.3040  206.6970  146.2260 C   0  0  0  0  0  1  0  0  0  0  0  0
  161.2860  202.5110  147.2490 C   0  0  0  0  0  0  0  0  0  0  0  0
  161.2130  200.7180  148.9510 C   0  0  0  0  0  1  0  0  0  0  0  0
  161.2490  201.1600  147.6010 O   0  0  0  0  0  0  0  0  0  0  0  0
  161.8570  206.4300  153.9820 N   0  0  0  0  0  2  0  0  0  0  0  0
  160.8870  206.8830  154.9640 C   0  0  0  0  0  2  0  0  0  0  0  0
  161.4610  208.0490  155.7400 C   0  0  0  0  0  2  0  0  0  0  0  0
  160.7980  209.2200  155.3760 O   0  0  0  0  0  1  0  0  0  0  0  0
  1  3  1  0  0  0  0
  1  4  1  0  0  0  0
  2  7  1  0  0  0  0
  3 16  1  0  0  0  0
  4  7  1  6  0  0  0
  4 10  1  0  0  0  0
  6 18  2  0  0  0  0
  6 17  1  0  0  0  0
  7  5  2  0  0  0  0
  8  9  1  0  0  0  0
  9 11  2  0  0  0  0
 10 12  1  0  0  0  0
 10 29  1  1  0  0  0
 11  5  1  0  0  0  0
 13 14  2  0  0  0  0
 13  2  1  0  0  0  0
 14  1  1  0  0  0  0
 15  2  2  0  0  0  0
 15  9  1  0  0  0  0
 16 12  1  0  0  0  0
 17  8  2  0  0  0  0
 18 15  1  0  0  0  0
 19 22  2  0  0  0  0
 19 24  1  0  0  0  0
 20 19  1  0  0  0  0
 21 23  1  0  0  0  0
 21 14  1  0  0  0  0
 22 26  1  0  0  0  0
 24 21  2  0  0  0  0
 25 24  1  0  0  0  0
 26 28  1  0  0  0  0
 26 23  2  0  0  0  0
 28 27  1  0  0  0  0
 29 30  1  0  0  0  0
 30 31  1  0  0  0  0
 32 31  1  0  0  0  0
M  END
>  <MODEL>
3

>  <REMARK>
 VINA RESULT:      -7.5      1.966      5.464
  Name = 
  5 active torsions:
  status: ('A' for Active; 'I' for Inactive)
    1  A    between atoms: C_13  and  C_18
    2  A    between atoms: C_14  and  N_29
    3  A    between atoms: O_15  and  C_26
    4  A    between atoms: C_16  and  C_27
    5  A    between atoms: C_18  and  N_29
                            x       y       z     vdW  Elec       q    Type
                         _______ _______ _______ _____ _____    ______ ____

>  <TORSDO>
F 5

$$$$
=
 OpenBabel11062408253D

 32 36  0  0  1  0  0  0  0  0999 V2000
  160.8220  211.1160  151.5310 N   0  0  0  0  0  0  0  0  0  0  0  0
  161.2190  208.4200  151.0330 C   0  0  0  0  0  0  0  0  0  0  0  0
  159.8270  212.1830  151.4250 C   0  0  0  0  0  2  0  0  0  0  0  0
  161.6920  210.7990  150.3840 C   0  0  1  0  0  3  0  0  0  0  0  0
  161.9370  208.8700  148.8020 N   0  0  0  0  0  0  0  0  0  0  0  0
  160.8540  204.7350  151.3580 C   0  0  0  0  0  3  0  0  0  0  0  0
  161.5760  209.3330  150.0300 C   0  0  0  0  0  0  0  0  0  0  0  0
  161.5690  205.2810  149.1070 C   0  0  0  0  0  3  0  0  0  0  0  0
  161.5710  206.6390  149.4360 C   0  0  0  0  0  0  0  0  0  0  0  0
  161.4240  211.7460  149.2000 C   0  0  1  0  0  3  0  0  0  0  0  0
  161.9250  207.5670  148.5110 N   0  0  0  0  0  0  0  0  0  0  0  0
  161.4100  213.1970  149.6850 C   0  0  0  0  0  2  0  0  0  0  0  0
  160.8620  208.8920  152.3420 N   0  0  0  0  0  0  0  0  0  0  0  0
  160.6970  210.1560  152.5980 C   0  0  0  0  0  0  0  0  0  0  0  0
  161.2120  207.0520  150.7350 C   0  0  0  0  0  0  0  0  0  0  0  0
  160.4510  213.4540  150.8550 C   0  0  0  0  0  2  0  0  0  0  0  0
  161.2100  204.3310  150.0670 C   0  0  0  0  0  3  0  0  0  0  0  0
  160.8540  206.0920  151.6930 C   0  0  0  0  0  3  0  0  0  0  0  0
  160.7800  211.2680  156.2450 C   0  0  0  0  0  0  0  0  0  0  0  0
  161.6860  211.5690  157.2560 O   0  0  0  0  0  1  0  0  0  0  0  0
  160.2900  210.5710  153.9610 C   0  0  0  0  0  0  0  0  0  0  0  0
  159.4130  211.3580  156.5080 C   0  0  0  0  0  3  0  0  0  0  0  0
  158.9220  210.6550  154.2520 C   0  0  0  0  0  3  0  0  0  0  0  0
  161.2310  210.8680  154.9750 C   0  0  0  0  0  0  0  0  0  0  0  0
  162.7010  210.7050  154.7470 C   0  0  0  0  0  1  0  0  0  0  0  0
  158.4750  211.0480  155.5150 C   0  0  0  0  0  0  0  0  0  0  0  0
  156.1760  211.5950  154.7830 C   0  0  0  0  0  1  0  0  0  0  0  0
  157.1010  211.1240  155.7540 O   0  0  0  0  0  0  0  0  0  0  0  0
  162.4640  211.6030  148.1930 N   0  0  0  0  0  2  0  0  0  0  0  0
  162.7580  212.9320  147.6880 C   0  0  0  0  0  2  0  0  0  0  0  0
  162.5160  212.9690  146.1940 C   0  0  0  0  0  2  0  0  0  0  0  0
  161.1460  212.8990  145.9430 O   0  0  0  0  0  1  0  0  0  0  0  0
  1 14  1  0  0  0  0
  2 13  1  0  0  0  0
  3  1  1  0  0  0  0
  4  7  1  6  0  0  0
  4  1  1  0  0  0  0
  5  7  1  0  0  0  0
  6 18  1  0  0  0  0
  7  2  2  0  0  0  0
  8  9  2  0  0  0  0
  8 17  1  0  0  0  0
  9 15  1  0  0  0  0
 10 29  1  6  0  0  0
 10 12  1  0  0  0  0
 10  4  1  0  0  0  0
 11  5  2  0  0  0  0
 11  9  1  0  0  0  0
 12 16  1  0  0  0  0
 13 14  2  0  0  0  0
 14 21  1  0  0  0  0
 15  2  1  0  0  0  0
 15 18  2  0  0  0  0
 16  3  1  0  0  0  0
 17  6  2  0  0  0  0
 19 22  1  0  0  0  0
 19 20  1  0  0  0  0
 21 23  2  0  0  0  0
 21 24  1  0  0  0  0
 23 26  1  0  0  0  0
 24 19  2  0  0  0  0
 25 24  1  0  0  0  0
 26 28  1  0  0  0  0
 26 22  2  0  0  0  0
 27 28  1  0  0  0  0
 30 29  1  0  0  0  0
 31 30  1  0  0  0  0
 32 31  1  0  0  0  0
M  END
>  <MODEL>
4

>  <REMARK>
 VINA RESULT:      -6.9      3.254      6.775
  Name = 
  5 active torsions:
  status: ('A' for Active; 'I' for Inactive)
    1  A    between atoms: C_13  and  C_18
    2  A    between atoms: C_14  and  N_29
    3  A    between atoms: O_15  and  C_26
    4  A    between atoms: C_16  and  C_27
    5  A    between atoms: C_18  and  N_29
                            x       y       z     vdW  Elec       q    Type
                         _______ _______ _______ _____ _____    ______ ____

>  <TORSDO>
F 5

$$$$
=
 OpenBabel11062408253D

 32 36  0  0  1  0  0  0  0  0999 V2000
  161.5360  209.4100  152.0800 N   0  0  0  0  0  0  0  0  0  0  0  0
  161.2250  207.2230  150.4080 C   0  0  0  0  0  0  0  0  0  0  0  0
  162.5480  210.2110  152.7700 C   0  0  0  0  0  2  0  0  0  0  0  0
  160.9990  208.1920  152.7140 C   0  0  1  0  0  3  0  0  0  0  0  0
  161.1430  205.7290  152.2680 N   0  0  0  0  0  0  0  0  0  0  0  0
  161.4030  205.1500  147.3280 C   0  0  0  0  0  3  0  0  0  0  0  0
  161.1710  207.0050  151.7930 C   0  0  0  0  0  0  0  0  0  0  0  0
  161.3320  203.7040  149.2730 C   0  0  0  0  0  3  0  0  0  0  0  0
  161.2730  204.8250  150.1050 C   0  0  0  0  0  0  0  0  0  0  0  0
  161.5970  207.9810  154.1170 C   0  0  1  0  0  3  0  0  0  0  0  0
  161.2020  204.6740  151.4520 N   0  0  0  0  0  0  0  0  0  0  0  0
  161.5140  209.2800  154.9210 C   0  0  0  0  0  2  0  0  0  0  0  0
  161.2280  208.5630  149.8910 N   0  0  0  0  0  0  0  0  0  0  0  0
  161.3480  209.6010  150.6650 C   0  0  0  0  0  0  0  0  0  0  0  0
  161.2800  206.1200  149.5480 C   0  0  0  0  0  0  0  0  0  0  0  0
  162.1290  210.4930  154.2100 C   0  0  0  0  0  2  0  0  0  0  0  0
  161.3970  203.8670  147.8860 C   0  0  0  0  0  3  0  0  0  0  0  0
  161.3450  206.2740  148.1560 C   0  0  0  0  0  3  0  0  0  0  0  0
  160.7360  213.3020  149.9780 C   0  0  0  0  0  0  0  0  0  0  0  0
  160.0270  214.3860  150.4850 O   0  0  0  0  0  1  0  0  0  0  0  0
  161.3840  210.9530  150.0610 C   0  0  0  0  0  0  0  0  0  0  0  0
  161.5300  213.4790  148.8450 C   0  0  0  0  0  3  0  0  0  0  0  0
  162.1640  211.1510  148.9130 C   0  0  0  0  0  3  0  0  0  0  0  0
  160.6500  212.0400  150.5920 C   0  0  0  0  0  0  0  0  0  0  0  0
  159.7290  211.8640  151.7580 C   0  0  0  0  0  1  0  0  0  0  0  0
  162.2460  212.4030  148.3030 C   0  0  0  0  0  0  0  0  0  0  0  0
  162.6560  213.3480  146.0540 C   0  0  0  0  0  1  0  0  0  0  0  0
  163.0430  212.5510  147.1650 O   0  0  0  0  0  0  0  0  0  0  0  0
  160.8620  206.9460  154.8280 N   0  0  0  0  0  2  0  0  0  0  0  0
  159.7170  207.5860  155.4520 C   0  0  0  0  0  2  0  0  0  0  0  0
  159.7610  207.3520  156.9470 C   0  0  0  0  0  2  0  0  0  0  0  0
  160.8640  206.5580  157.2600 O   0  0  0  0  0  1  0  0  0  0  0  0
  1  4  1  0  0  0  0
  1  3  1  0  0  0  0
  2  7  1  0  0  0  0
  3 16  1  0  0  0  0
  4  7  1  6  0  0  0
  4 10  1  0  0  0  0
  6 17  1  0  0  0  0
  6 18  2  0  0  0  0
  7  5  2  0  0  0  0
  8  9  1  0  0  0  0
  9 11  2  0  0  0  0
 10 29  1  1  0  0  0
 10 12  1  0  0  0  0
 11  5  1  0  0  0  0
 13  2  1  0  0  0  0
 13 14  2  0  0  0  0
 14  1  1  0  0  0  0
 15  9  1  0  0  0  0
 15  2  2  0  0  0  0
 16 12  1  0  0  0  0
 17  8  2  0  0  0  0
 18 15  1  0  0  0  0
 19 20  1  0  0  0  0
 19 24  1  0  0  0  0
 21 24  2  0  0  0  0
 21 14  1  0  0  0  0
 22 19  2  0  0  0  0
 23 21  1  0  0  0  0
 24 25  1  0  0  0  0
 26 22  1  0  0  0  0
 26 23  2  0  0  0  0
 27 28  1  0  0  0  0
 28 26  1  0  0  0  0
 29 30  1  0  0  0  0
 30 31  1  0  0  0  0
 31 32  1  0  0  0  0
M  END
>  <MODEL>
5

>  <REMARK>
 VINA RESULT:      -6.7      2.480      7.342
  Name = 
  5 active torsions:
  status: ('A' for Active; 'I' for Inactive)
    1  A    between atoms: C_13  and  C_18
    2  A    between atoms: C_14  and  N_29
    3  A    between atoms: O_15  and  C_26
    4  A    between atoms: C_16  and  C_27
    5  A    between atoms: C_18  and  N_29
                            x       y       z     vdW  Elec       q    Type
                         _______ _______ _______ _____ _____    ______ ____

>  <TORSDO>
F 5

$$$$
=
 OpenBabel11062408253D

 32 36  0  0  1  0  0  0  0  0999 V2000
  160.8700  211.2180  151.6510 N   0  0  0  0  0  0  0  0  0  0  0  0
  161.2710  208.4990  151.3050 C   0  0  0  0  0  0  0  0  0  0  0  0
  159.8600  212.2690  151.5250 C   0  0  0  0  0  2  0  0  0  0  0  0
  161.6900  210.8360  150.4880 C   0  0  1  0  0  3  0  0  0  0  0  0
  161.8840  208.8130  149.0200 N   0  0  0  0  0  0  0  0  0  0  0  0
  160.9580  204.8390  151.8740 C   0  0  0  0  0  3  0  0  0  0  0  0
  161.5740  209.3500  150.2320 C   0  0  0  0  0  0  0  0  0  0  0  0
  161.5660  205.2490  149.5630 C   0  0  0  0  0  3  0  0  0  0  0  0
  161.5690  206.6240  149.8070 C   0  0  0  0  0  0  0  0  0  0  0  0
  161.3610  211.7050  149.2610 C   0  0  1  0  0  3  0  0  0  0  0  0
  161.8720  207.4950  148.8120 N   0  0  0  0  0  0  0  0  0  0  0  0
  161.3530  213.1840  149.6550 C   0  0  0  0  0  2  0  0  0  0  0  0
  160.9680  209.0490  152.5960 N   0  0  0  0  0  0  0  0  0  0  0  0
  160.8020  210.3260  152.7810 C   0  0  0  0  0  0  0  0  0  0  0  0
  161.2640  207.1150  151.0930 C   0  0  0  0  0  0  0  0  0  0  0  0
  160.4450  213.5060  150.8490 C   0  0  0  0  0  2  0  0  0  0  0  0
  161.2600  204.3570  150.5950 C   0  0  0  0  0  3  0  0  0  0  0  0
  160.9590  206.2140  152.1230 C   0  0  0  0  0  3  0  0  0  0  0  0
  158.8570  211.5970  155.8040 C   0  0  0  0  0  0  0  0  0  0  0  0
  157.5590  211.9160  156.1910 O   0  0  0  0  0  1  0  0  0  0  0  0
  160.4520  210.8210  154.1320 C   0  0  0  0  0  0  0  0  0  0  0  0
  159.8950  211.7430  156.7240 C   0  0  0  0  0  3  0  0  0  0  0  0
  161.4810  210.9890  155.0680 C   0  0  0  0  0  3  0  0  0  0  0  0
  159.1240  211.1430  154.5010 C   0  0  0  0  0  0  0  0  0  0  0  0
  158.0020  211.0720  153.5140 C   0  0  0  0  0  1  0  0  0  0  0  0
  161.2150  211.4440  156.3610 C   0  0  0  0  0  0  0  0  0  0  0  0
  163.5300  210.9490  157.0770 C   0  0  0  0  0  1  0  0  0  0  0  0
  162.2740  211.5880  157.2600 O   0  0  0  0  0  0  0  0  0  0  0  0
  162.3560  211.5070  148.2190 N   0  0  0  0  0  2  0  0  0  0  0  0
  162.7740  212.8230  147.7700 C   0  0  0  0  0  2  0  0  0  0  0  0
  162.5340  212.9470  146.2800 C   0  0  0  0  0  2  0  0  0  0  0  0
  161.1640  212.9210  146.0260 O   0  0  0  0  0  1  0  0  0  0  0  0
  1 14  1  0  0  0  0
  2 13  1  0  0  0  0
  3  1  1  0  0  0  0
  4  7  1  6  0  0  0
  4  1  1  0  0  0  0
  5  7  1  0  0  0  0
  6 18  1  0  0  0  0
  7  2  2  0  0  0  0
  8  9  2  0  0  0  0
  8 17  1  0  0  0  0
  9 15  1  0  0  0  0
 10 29  1  6  0  0  0
 10 12  1  0  0  0  0
 10  4  1  0  0  0  0
 11  5  2  0  0  0  0
 11  9  1  0  0  0  0
 12 16  1  0  0  0  0
 13 14  2  0  0  0  0
 14 21  1  0  0  0  0
 15  2  1  0  0  0  0
 15 18  2  0  0  0  0
 16  3  1  0  0  0  0
 17  6  2  0  0  0  0
 19 20  1  0  0  0  0
 19 22  1  0  0  0  0
 21 24  1  0  0  0  0
 21 23  2  0  0  0  0
 23 26  1  0  0  0  0
 24 19  2  0  0  0  0
 25 24  1  0  0  0  0
 26 22  2  0  0  0  0
 26 28  1  0  0  0  0
 27 28  1  0  0  0  0
 30 29  1  0  0  0  0
 31 30  1  0  0  0  0
 32 31  1  0  0  0  0
M  END
>  <MODEL>
6

>  <REMARK>
 VINA RESULT:      -6.5      3.343      6.879
  Name = 
  5 active torsions:
  status: ('A' for Active; 'I' for Inactive)
    1  A    between atoms: C_13  and  C_18
    2  A    between atoms: C_14  and  N_29
    3  A    between atoms: O_15  and  C_26
    4  A    between atoms: C_16  and  C_27
    5  A    between atoms: C_18  and  N_29
                            x       y       z     vdW  Elec       q    Type
                         _______ _______ _______ _____ _____    ______ ____

>  <TORSDO>
F 5

$$$$
=
 OpenBabel11062408253D

 32 36  0  0  1  0  0  0  0  0999 V2000
  161.2270  209.7950  153.7300 N   0  0  0  0  0  0  0  0  0  0  0  0
  160.9520  207.5630  152.1130 C   0  0  0  0  0  0  0  0  0  0  0  0
  162.2080  210.7680  154.2100 C   0  0  0  0  0  2  0  0  0  0  0  0
  161.0520  208.5120  154.4360 C   0  0  1  0  0  3  0  0  0  0  0  0
  161.5190  206.1050  153.9160 N   0  0  0  0  0  0  0  0  0  0  0  0
  160.8330  205.5050  149.0200 C   0  0  0  0  0  3  0  0  0  0  0  0
  161.2270  207.3590  153.4730 C   0  0  0  0  0  0  0  0  0  0  0  0
  161.4200  204.0980  150.9050 C   0  0  0  0  0  3  0  0  0  0  0  0
  161.3460  205.2040  151.7550 C   0  0  0  0  0  0  0  0  0  0  0  0
  161.9570  208.4280  155.6780 C   0  0  1  0  0  3  0  0  0  0  0  0
  161.5850  205.0640  153.0830 N   0  0  0  0  0  0  0  0  0  0  0  0
  161.8240  209.7060  156.5090 C   0  0  0  0  0  2  0  0  0  0  0  0
  160.6160  208.8750  151.6360 N   0  0  0  0  0  0  0  0  0  0  0  0
  160.7160  209.9300  152.3900 C   0  0  0  0  0  0  0  0  0  0  0  0
  161.0130  206.4730  151.2370 C   0  0  0  0  0  0  0  0  0  0  0  0
  162.0590  210.9950  155.7120 C   0  0  0  0  0  2  0  0  0  0  0  0
  161.1650  204.2490  149.5390 C   0  0  0  0  0  3  0  0  0  0  0  0
  160.7580  206.6150  149.8660 C   0  0  0  0  0  3  0  0  0  0  0  0
  159.1530  213.3580  151.8020 C   0  0  0  0  0  0  0  0  0  0  0  0
  158.1900  214.2060  152.3380 O   0  0  0  0  0  1  0  0  0  0  0  0
  160.3920  211.2580  151.8210 C   0  0  0  0  0  0  0  0  0  0  0  0
  159.8630  213.7640  150.6710 C   0  0  0  0  0  3  0  0  0  0  0  0
  161.0840  211.6810  150.6780 C   0  0  0  0  0  3  0  0  0  0  0  0
  159.4050  212.1030  152.3820 C   0  0  0  0  0  0  0  0  0  0  0  0
  158.5730  211.6630  153.5460 C   0  0  0  0  0  1  0  0  0  0  0  0
  160.8300  212.9260  150.1000 C   0  0  0  0  0  0  0  0  0  0  0  0
  162.2920  212.3810  148.1810 C   0  0  0  0  0  1  0  0  0  0  0  0
  161.5500  213.3050  148.9640 O   0  0  0  0  0  0  0  0  0  0  0  0
  161.5770  207.2930  156.5050 N   0  0  0  0  0  2  0  0  0  0  0  0
  160.3470  207.6540  157.1880 C   0  0  0  0  0  2  0  0  0  0  0  0
  159.2900  206.6060  156.9110 C   0  0  0  0  0  2  0  0  0  0  0  0
  158.5830  206.9530  155.7610 O   0  0  0  0  0  1  0  0  0  0  0  0
  1  3  1  0  0  0  0
  1  4  1  0  0  0  0
  2  7  1  0  0  0  0
  3 16  1  0  0  0  0
  4  7  1  6  0  0  0
  4 10  1  0  0  0  0
  6 17  1  0  0  0  0
  6 18  2  0  0  0  0
  7  5  2  0  0  0  0
  8  9  1  0  0  0  0
  9 11  2  0  0  0  0
 10 29  1  1  0  0  0
 10 12  1  0  0  0  0
 11  5  1  0  0  0  0
 13  2  1  0  0  0  0
 13 14  2  0  0  0  0
 14  1  1  0  0  0  0
 15  9  1  0  0  0  0
 15  2  2  0  0  0  0
 16 12  1  0  0  0  0
 17  8  2  0  0  0  0
 18 15  1  0  0  0  0
 19 20  1  0  0  0  0
 19 24  1  0  0  0  0
 21 24  2  0  0  0  0
 21 14  1  0  0  0  0
 22 19  2  0  0  0  0
 23 21  1  0  0  0  0
 24 25  1  0  0  0  0
 26 22  1  0  0  0  0
 26 23  2  0  0  0  0
 27 28  1  0  0  0  0
 28 26  1  0  0  0  0
 29 30  1  0  0  0  0
 31 30  1  0  0  0  0
 32 31  1  0  0  0  0
M  END
>  <MODEL>
7

>  <REMARK>
 VINA RESULT:      -6.5      2.679      7.361
  Name = 
  5 active torsions:
  status: ('A' for Active; 'I' for Inactive)
    1  A    between atoms: C_13  and  C_18
    2  A    between atoms: C_14  and  N_29
    3  A    between atoms: O_15  and  C_26
    4  A    between atoms: C_16  and  C_27
    5  A    between atoms: C_18  and  N_29
                            x       y       z     vdW  Elec       q    Type
                         _______ _______ _______ _____ _____    ______ ____

>  <TORSDO>
F 5

$$$$
=
 OpenBabel11062408253D

 32 36  0  0  1  0  0  0  0  0999 V2000
  161.3850  209.5910  153.3610 N   0  0  0  0  0  0  0  0  0  0  0  0
  160.9980  207.3550  151.7730 C   0  0  0  0  0  0  0  0  0  0  0  0
  162.4220  210.4900  153.8710 C   0  0  0  0  0  2  0  0  0  0  0  0
  161.0680  208.3440  154.0800 C   0  0  1  0  0  3  0  0  0  0  0  0
  161.3530  205.8950  153.6270 N   0  0  0  0  0  0  0  0  0  0  0  0
  160.8510  205.2470  148.7150 C   0  0  0  0  0  3  0  0  0  0  0  0
  161.1910  207.1590  153.1480 C   0  0  0  0  0  0  0  0  0  0  0  0
  161.2260  203.8370  150.6510 C   0  0  0  0  0  3  0  0  0  0  0  0
  161.2060  204.9650  151.4760 C   0  0  0  0  0  0  0  0  0  0  0  0
  161.9040  208.2120  155.3660 C   0  0  1  0  0  3  0  0  0  0  0  0
  161.3700  204.8340  152.8170 N   0  0  0  0  0  0  0  0  0  0  0  0
  161.8400  209.5140  156.1670 C   0  0  0  0  0  2  0  0  0  0  0  0
  160.7980  208.6800  151.2560 N   0  0  0  0  0  0  0  0  0  0  0  0
  160.9510  209.7390  151.9950 C   0  0  0  0  0  0  0  0  0  0  0  0
  161.0080  206.2450  150.9210 C   0  0  0  0  0  0  0  0  0  0  0  0
  162.2220  210.7610  155.3590 C   0  0  0  0  0  2  0  0  0  0  0  0
  161.0490  203.9790  149.2720 C   0  0  0  0  0  3  0  0  0  0  0  0
  160.8300  206.3780  149.5360 C   0  0  0  0  0  3  0  0  0  0  0  0
  161.1640  212.7310  149.6400 C   0  0  0  0  0  0  0  0  0  0  0  0
  161.7590  213.1160  148.4430 O   0  0  0  0  0  1  0  0  0  0  0  0
  160.7690  211.0780  151.3880 C   0  0  0  0  0  0  0  0  0  0  0  0
  160.3470  213.6380  150.3160 C   0  0  0  0  0  3  0  0  0  0  0  0
  159.9630  212.0100  152.0560 C   0  0  0  0  0  3  0  0  0  0  0  0
  161.3880  211.4490  150.1710 C   0  0  0  0  0  0  0  0  0  0  0  0
  162.3310  210.5270  149.4630 C   0  0  0  0  0  1  0  0  0  0  0  0
  159.7440  213.2840  151.5300 C   0  0  0  0  0  0  0  0  0  0  0  0
  157.9450  213.7460  153.1630 C   0  0  0  0  0  1  0  0  0  0  0  0
  158.9280  214.1750  152.2310 O   0  0  0  0  0  0  0  0  0  0  0  0
  161.3900  207.1320  156.1940 N   0  0  0  0  0  2  0  0  0  0  0  0
  160.4570  207.7210  157.1370 C   0  0  0  0  0  2  0  0  0  0  0  0
  159.0790  207.7840  156.5110 C   0  0  0  0  0  2  0  0  0  0  0  0
  158.8080  206.5790  155.8650 O   0  0  0  0  0  1  0  0  0  0  0  0
  1  3  1  0  0  0  0
  1  4  1  0  0  0  0
  2  7  1  0  0  0  0
  3 16  1  0  0  0  0
  4  7  1  6  0  0  0
  4 10  1  0  0  0  0
  6 17  1  0  0  0  0
  6 18  2  0  0  0  0
  7  5  2  0  0  0  0
  8  9  1  0  0  0  0
  9 11  2  0  0  0  0
 10 12  1  0  0  0  0
 10 29  1  1  0  0  0
 11  5  1  0  0  0  0
 13  2  1  0  0  0  0
 13 14  2  0  0  0  0
 14  1  1  0  0  0  0
 15  9  1  0  0  0  0
 15  2  2  0  0  0  0
 16 12  1  0  0  0  0
 17  8  2  0  0  0  0
 18 15  1  0  0  0  0
 19 24  2  0  0  0  0
 19 22  1  0  0  0  0
 20 19  1  0  0  0  0
 21 14  1  0  0  0  0
 21 23  2  0  0  0  0
 22 26  2  0  0  0  0
 24 21  1  0  0  0  0
 25 24  1  0  0  0  0
 26 23  1  0  0  0  0
 26 28  1  0  0  0  0
 28 27  1  0  0  0  0
 29 30  1  0  0  0  0
 31 30  1  0  0  0  0
 32 31  1  0  0  0  0
M  END
>  <MODEL>
8

>  <REMARK>
 VINA RESULT:      -6.0      2.500      7.508
  Name = 
  5 active torsions:
  status: ('A' for Active; 'I' for Inactive)
    1  A    between atoms: C_13  and  C_18
    2  A    between atoms: C_14  and  N_29
    3  A    between atoms: O_15  and  C_26
    4  A    between atoms: C_16  and  C_27
    5  A    between atoms: C_18  and  N_29
                            x       y       z     vdW  Elec       q    Type
                         _______ _______ _______ _____ _____    ______ ____

>  <TORSDO>
F 5

$$$$
=
 OpenBabel11062408253D

 32 36  0  0  1  0  0  0  0  0999 V2000
  161.6340  207.8730  150.4800 N   0  0  0  0  0  0  0  0  0  0  0  0
  160.8900  208.2490  153.1210 C   0  0  0  0  0  0  0  0  0  0  0  0
  162.8010  207.6890  149.6160 C   0  0  0  0  0  2  0  0  0  0  0  0
  161.1780  209.2310  150.8280 C   0  0  1  0  0  3  0  0  0  0  0  0
  161.1120  210.6170  152.9160 N   0  0  0  0  0  0  0  0  0  0  0  0
  160.3470  207.4970  156.7200 C   0  0  0  0  0  3  0  0  0  0  0  0
  161.1050  209.3880  152.3300 C   0  0  0  0  0  0  0  0  0  0  0  0
  160.5990  209.8900  156.4240 C   0  0  0  0  0  3  0  0  0  0  0  0
  160.7620  209.7030  155.0490 C   0  0  0  0  0  0  0  0  0  0  0  0
  162.0350  210.3040  150.1330 C   0  0  1  0  0  3  0  0  0  0  0  0
  160.9560  210.7690  154.2320 N   0  0  0  0  0  0  0  0  0  0  0  0
  162.1770  209.9760  148.6450 C   0  0  0  0  0  2  0  0  0  0  0  0
  160.8530  206.9480  152.5150 N   0  0  0  0  0  0  0  0  0  0  0  0
  161.1750  206.7590  151.2690 C   0  0  0  0  0  0  0  0  0  0  0  0
  160.7180  208.4040  154.5020 C   0  0  0  0  0  0  0  0  0  0  0  0
  162.6940  208.5580  148.3660 C   0  0  0  0  0  2  0  0  0  0  0  0
  160.3920  208.7870  157.2590 C   0  0  0  0  0  3  0  0  0  0  0  0
  160.5100  207.3040  155.3460 C   0  0  0  0  0  3  0  0  0  0  0  0
  160.8300  203.7860  148.9050 C   0  0  0  0  0  0  0  0  0  0  0  0
  160.5120  203.4970  147.5830 O   0  0  0  0  0  1  0  0  0  0  0  0
  161.1530  205.3840  150.7180 C   0  0  0  0  0  0  0  0  0  0  0  0
  161.1520  202.7410  149.7720 C   0  0  0  0  0  3  0  0  0  0  0  0
  161.4590  204.3170  151.5740 C   0  0  0  0  0  3  0  0  0  0  0  0
  160.8210  205.1130  149.3690 C   0  0  0  0  0  0  0  0  0  0  0  0
  160.3970  206.2030  148.4370 C   0  0  0  0  0  1  0  0  0  0  0  0
  161.4640  202.9990  151.1130 C   0  0  0  0  0  0  0  0  0  0  0  0
  163.0510  201.3310  152.0170 C   0  0  0  0  0  1  0  0  0  0  0  0
  161.7820  201.9710  152.0030 O   0  0  0  0  0  0  0  0  0  0  0  0
  161.4100  211.6110  150.2620 N   0  0  0  0  0  2  0  0  0  0  0  0
  161.6010  212.3040  149.0000 C   0  0  0  0  0  2  0  0  0  0  0  0
  160.6760  213.5020  148.9380 C   0  0  0  0  0  2  0  0  0  0  0  0
  159.9600  213.5980  150.1300 O   0  0  0  0  0  1  0  0  0  0  0  0
  1  4  1  0  0  0  0
  1 14  1  0  0  0  0
  2 15  1  0  0  0  0
  3  1  1  0  0  0  0
  4  7  1  1  0  0  0
  5 11  2  0  0  0  0
  6 17  1  0  0  0  0
  7  5  1  0  0  0  0
  7  2  2  0  0  0  0
  8 17  2  0  0  0  0
  9  8  1  0  0  0  0
 10 29  1  6  0  0  0
 10  4  1  0  0  0  0
 11  9  1  0  0  0  0
 12 10  1  0  0  0  0
 13  2  1  0  0  0  0
 14 13  2  0  0  0  0
 15  9  2  0  0  0  0
 15 18  1  0  0  0  0
 16 12  1  0  0  0  0
 16  3  1  0  0  0  0
 18  6  2  0  0  0  0
 19 24  2  0  0  0  0
 19 22  1  0  0  0  0
 20 19  1  0  0  0  0
 21 14  1  0  0  0  0
 21 23  2  0  0  0  0
 22 26  2  0  0  0  0
 24 21  1  0  0  0  0
 25 24  1  0  0  0  0
 26 23  1  0  0  0  0
 26 28  1  0  0  0  0
 28 27  1  0  0  0  0
 30 29  1  0  0  0  0
 31 30  1  0  0  0  0
 31 32  1  0  0  0  0
M  END
>  <MODEL>
9

>  <REMARK>
 VINA RESULT:      -6.0      0.784      2.118
  Name = 
  5 active torsions:
  status: ('A' for Active; 'I' for Inactive)
    1  A    between atoms: C_13  and  C_18
    2  A    between atoms: C_14  and  N_29
    3  A    between atoms: O_15  and  C_26
    4  A    between atoms: C_16  and  C_27
    5  A    between atoms: C_18  and  N_29
                            x       y       z     vdW  Elec       q    Type
                         _______ _______ _______ _____ _____    ______ ____

>  <TORSDO>
F 5

$$$$
