=
 OpenBabel11062409523D

 34 40  0  0  1  0  0  0  0  0999 V2000
  158.5370  213.5140  153.4310 C   0  0  1  0  0  3  0  0  0  0  0  0
  156.0960  212.7530  154.0710 C   0  0  1  0  0  3  0  0  0  0  0  0
  161.6710  210.6090  152.6310 C   0  0  2  0  0  3  0  0  0  0  0  0
  156.5230  213.8510  151.8700 C   0  0  0  0  0  0  0  0  0  0  0  0
  159.1780  209.9660  152.5360 C   0  0  0  0  0  2  0  0  0  0  0  0
  160.9630  210.9010  156.1550 N   0  0  0  0  0  0  0  0  0  0  0  0
  159.9130  212.3700  151.9950 C   0  0  1  0  0  0  0  0  0  0  0  0
  159.7630  212.8170  153.3290 O   0  0  0  0  0  0  0  0  0  0  0  0
  158.5830  212.5870  151.2700 C   0  0  2  0  0  3  0  0  0  0  0  0
  161.2160  209.5730  155.6990 C   0  0  0  0  0  0  0  0  0  0  0  0
  157.8500  213.8450  149.1060 C   0  0  0  0  0  2  0  0  0  0  0  0
  160.2810  212.2290  156.0780 C   0  0  2  0  0  3  0  0  0  0  0  0
  161.9480  208.8130  156.3860 O   0  0  0  0  0  0  0  0  0  0  0  0
  161.7430  209.2350  153.2900 C   0  0  0  0  0  2  0  0  0  0  0  0
  158.7000  212.7420  149.7370 C   0  0  0  0  0  2  0  0  0  0  0  0
  161.0250  213.2050  151.3500 C   0  0  0  0  0  1  0  0  0  0  0  0
  155.9610  214.4530  150.6210 C   0  0  0  0  0  2  0  0  0  0  0  0
  158.0110  213.7440  152.0210 C   0  0  2  0  0  3  0  0  0  0  0  0
  161.1320  212.0070  157.1410 C   0  0  0  0  0  2  0  0  0  0  0  0
  156.3670  213.6550  149.3900 C   0  0  0  0  0  2  0  0  0  0  0  0
  155.1750  213.4600  155.4620 S   0  0  0  0  0  0  0  0  0  0  0  0
  156.4560  212.8670  156.5950 C   0  0  2  0  0  3  0  0  0  0  0  0
  159.3370  209.7480  154.0390 C   0  0  0  0  0  2  0  0  0  0  0  0
  157.8210  213.0140  155.8970 C   0  0  2  0  0  0  0  0  0  0  0  0
  160.6810  209.0880  154.3870 C   0  0  2  0  0  3  0  0  0  0  0  0
  158.8400  212.0440  156.5250 C   0  0  0  0  0  2  0  0  0  0  0  0
  160.2960  210.8720  151.9760 C   0  0  1  0  0  3  0  0  0  0  0  0
  162.6780  210.7100  151.6710 O   0  0  0  0  0  1  0  0  0  0  0  0
  155.6750  213.4120  152.7970 C   0  0  0  0  0  3  0  0  0  0  0  0
  158.2750  214.4530  156.1430 C   0  0  0  0  0  1  0  0  0  0  0  0
  157.6010  212.7310  154.3880 C   0  0  2  0  0  3  0  0  0  0  0  0
  156.1100  211.4780  157.0630 C   0  0  0  0  0  0  0  0  0  0  0  0
  157.0100  210.6180  157.2600 O   0  0  0  0  0  0  0  0  0  0  0  0
  154.7780  211.1360  157.2600 O   0  0  0  0  0  1  0  0  0  0  0  0
  1  8  1  6  0  0  0
  1 31  1  0  0  0  0
  2 29  1  6  0  0  0
  2 31  1  0  0  0  0
  2 21  1  0  0  0  0
  3 28  1  6  0  0  0
  3 14  1  0  0  0  0
  4 29  2  0  0  0  0
  5 23  1  0  0  0  0
  6 19  1  0  0  0  0
  7 16  1  6  0  0  0
  7  8  1  0  0  0  0
  9 15  1  6  0  0  0
  9  7  1  0  0  0  0
  9 18  1  0  0  0  0
 10  6  1  0  0  0  0
 10 13  2  0  0  0  0
 11 20  1  0  0  0  0
 11 15  1  0  0  0  0
 12  6  1  0  0  0  0
 12 26  1  1  0  0  0
 12 19  1  0  0  0  0
 17  4  1  0  0  0  0
 18  4  1  1  0  0  0
 18  1  1  0  0  0  0
 20 17  1  0  0  0  0
 21 22  1  0  0  0  0
 22 32  1  6  0  0  0
 23 25  1  0  0  0  0
 24 30  1  1  0  0  0
 24 26  1  0  0  0  0
 24 22  1  0  0  0  0
 25 14  1  6  0  0  0
 25 10  1  0  0  0  0
 27  7  1  0  0  0  0
 27  5  1  1  0  0  0
 27  3  1  0  0  0  0
 31 24  1  0  0  0  0
 32 33  2  0  0  0  0
 32 34  1  0  0  0  0
M  END
>  <MODEL>
1

>  <REMARK>
 VINA RESULT:       0.8      0.000      0.000
  Name = 
  1 active torsions:
  status: ('A' for Active; 'I' for Inactive)
    1  A    between atoms: C_3  and  C_25
                            x       y       z     vdW  Elec       q    Type
                         _______ _______ _______ _____ _____    ______ ____

>  <TORSDO>
F 1

$$$$
=
 OpenBabel11062409523D

 34 40  0  0  1  0  0  0  0  0999 V2000
  161.4870  210.4180  153.3370 C   0  0  1  0  0  3  0  0  0  0  0  0
  161.1330  208.1010  152.1300 C   0  0  1  0  0  3  0  0  0  0  0  0
  158.4650  213.5390  153.1620 C   0  0  2  0  0  3  0  0  0  0  0  0
  161.1410  208.2200  154.6240 C   0  0  0  0  0  0  0  0  0  0  0  0
  157.8950  211.0790  152.6550 C   0  0  0  0  0  2  0  0  0  0  0  0
  160.2930  213.2490  150.0670 N   0  0  0  0  0  0  0  0  0  0  0  0
  159.8010  211.6540  154.2830 C   0  0  1  0  0  0  0  0  0  0  0  0
  160.7930  211.6480  153.2730 O   0  0  0  0  0  0  0  0  0  0  0  0
  159.7020  210.2390  154.8580 C   0  0  2  0  0  3  0  0  0  0  0  0
  158.8950  213.4950  149.9200 C   0  0  0  0  0  0  0  0  0  0  0  0
  159.8930  209.2060  157.2460 C   0  0  0  0  0  2  0  0  0  0  0  0
  161.4650  212.5140  150.6330 C   0  0  2  0  0  3  0  0  0  0  0  0
  158.5010  214.3320  149.0660 O   0  0  0  0  0  0  0  0  0  0  0  0
  157.5210  213.7420  151.9810 C   0  0  0  0  0  2  0  0  0  0  0  0
  159.1640  210.1660  156.3050 C   0  0  0  0  0  2  0  0  0  0  0  0
  160.2450  212.6490  155.3610 C   0  0  0  0  0  1  0  0  0  0  0  0
  161.1430  207.4910  155.9300 C   0  0  0  0  0  2  0  0  0  0  0  0
  161.0820  209.7190  154.6270 C   0  0  2  0  0  3  0  0  0  0  0  0
  161.7160  213.4930  149.6960 C   0  0  0  0  0  2  0  0  0  0  0  0
  159.8760  207.7760  156.7250 C   0  0  0  0  0  2  0  0  0  0  0  0
  162.3980  207.3280  151.0890 S   0  0  0  0  0  0  0  0  0  0  0  0
  162.3400  208.7570  149.9790 C   0  0  2  0  0  3  0  0  0  0  0  0
  158.3580  211.4250  151.2420 C   0  0  0  0  0  2  0  0  0  0  0  0
  162.1380  210.0220  150.8340 C   0  0  2  0  0  0  0  0  0  0  0  0
  157.8930  212.8250  150.8090 C   0  0  2  0  0  3  0  0  0  0  0  0
  161.5240  211.1450  149.9760 C   0  0  0  0  0  2  0  0  0  0  0  0
  158.4400  212.0870  153.6900 C   0  0  1  0  0  3  0  0  0  0  0  0
  158.1140  214.4200  154.1860 O   0  0  0  0  0  1  0  0  0  0  0  0
  161.1710  207.5070  153.5010 C   0  0  0  0  0  3  0  0  0  0  0  0
  163.5290  210.4480  151.3030 C   0  0  0  0  0  1  0  0  0  0  0  0
  161.2230  209.6330  152.0260 C   0  0  2  0  0  3  0  0  0  0  0  0
  161.3050  208.5210  148.9100 C   0  0  0  0  0  0  0  0  0  0  0  0
  161.1530  209.3410  147.9640 O   0  0  0  0  0  0  0  0  0  0  0  0
  160.4960  207.3950  148.9800 O   0  0  0  0  0  1  0  0  0  0  0  0
  1  8  1  6  0  0  0
  1 18  1  0  0  0  0
  2 29  1  1  0  0  0
  3 27  1  0  0  0  0
  3 28  1  1  0  0  0
  4 17  1  0  0  0  0
  6 12  1  0  0  0  0
  7  9  1  0  0  0  0
  7 16  1  1  0  0  0
  8  7  1  0  0  0  0
  9 15  1  1  0  0  0
 10  6  1  0  0  0  0
 10 25  1  0  0  0  0
 12 19  1  6  0  0  0
 13 10  2  0  0  0  0
 14  3  1  0  0  0  0
 15 11  1  0  0  0  0
 17 20  1  0  0  0  0
 18  4  1  6  0  0  0
 18  9  1  0  0  0  0
 19  6  1  0  0  0  0
 20 11  1  0  0  0  0
 21  2  1  0  0  0  0
 22 32  1  6  0  0  0
 22 24  1  0  0  0  0
 22 21  1  0  0  0  0
 23  5  1  0  0  0  0
 24 30  1  1  0  0  0
 24 31  1  0  0  0  0
 25 23  1  1  0  0  0
 25 14  1  0  0  0  0
 26 12  1  0  0  0  0
 26 24  1  0  0  0  0
 27  5  1  6  0  0  0
 27  7  1  0  0  0  0
 29  4  2  0  0  0  0
 31  2  1  0  0  0  0
 31  1  1  0  0  0  0
 32 34  1  0  0  0  0
 33 32  2  0  0  0  0
M  END
>  <MODEL>
2

>  <REMARK>
 VINA RESULT:       1.8      3.095      7.244
  Name = 
  1 active torsions:
  status: ('A' for Active; 'I' for Inactive)
    1  A    between atoms: C_3  and  C_25
                            x       y       z     vdW  Elec       q    Type
                         _______ _______ _______ _____ _____    ______ ____

>  <TORSDO>
F 1

$$$$
=
 OpenBabel11062409523D

 34 40  0  0  1  0  0  0  0  0999 V2000
  160.7790  211.9500  153.2190 C   0  0  1  0  0  3  0  0  0  0  0  0
  158.2160  212.5650  153.2930 C   0  0  1  0  0  3  0  0  0  0  0  0
  162.1010  207.8240  152.8600 C   0  0  2  0  0  3  0  0  0  0  0  0
  159.5950  213.2010  151.3110 C   0  0  0  0  0  0  0  0  0  0  0  0
  159.7110  208.5370  152.2140 C   0  0  0  0  0  2  0  0  0  0  0  0
  160.9110  208.5810  156.1790 N   0  0  0  0  0  0  0  0  0  0  0  0
  161.6550  210.2070  152.0120 C   0  0  1  0  0  0  0  0  0  0  0  0
  161.4730  210.7230  153.3170 O   0  0  0  0  0  0  0  0  0  0  0  0
  160.8060  211.0410  151.0500 C   0  0  2  0  0  3  0  0  0  0  0  0
  160.5470  207.2910  155.6880 C   0  0  0  0  0  0  0  0  0  0  0  0
  161.2880  212.4060  148.8800 C   0  0  0  0  0  2  0  0  0  0  0  0
  161.0280  210.0660  156.0630 C   0  0  2  0  0  3  0  0  0  0  0  0
  160.6300  206.2930  156.4510 O   0  0  0  0  0  0  0  0  0  0  0  0
  161.3270  206.6330  153.4180 C   0  0  0  0  0  2  0  0  0  0  0  0
  161.3070  211.0510  149.5880 C   0  0  0  0  0  2  0  0  0  0  0  0
  163.1450  210.3320  151.6690 C   0  0  0  0  0  1  0  0  0  0  0  0
  159.6940  213.9530  150.0210 C   0  0  0  0  0  2  0  0  0  0  0  0
  160.7540  212.3570  151.7520 C   0  0  2  0  0  3  0  0  0  0  0  0
  161.4020  209.4860  157.2570 C   0  0  0  0  0  2  0  0  0  0  0  0
  159.8900  213.0090  148.8430 C   0  0  0  0  0  2  0  0  0  0  0  0
  157.5090  213.6990  154.5160 S   0  0  0  0  0  0  0  0  0  0  0  0
  158.0410  212.5840  155.8390 C   0  0  2  0  0  3  0  0  0  0  0  0
  159.4160  208.3300  153.6980 C   0  0  0  0  0  2  0  0  0  0  0  0
  159.4050  211.9860  155.4450 C   0  0  2  0  0  0  0  0  0  0  0  0
  160.1330  207.0920  154.2620 C   0  0  2  0  0  3  0  0  0  0  0  0
  159.6350  210.6590  156.1940 C   0  0  0  0  0  2  0  0  0  0  0  0
  161.2230  208.7230  151.9610 C   0  0  1  0  0  3  0  0  0  0  0  0
  163.1980  207.3590  152.1340 O   0  0  0  0  0  1  0  0  0  0  0  0
  158.4680  213.2930  152.0110 C   0  0  0  0  0  3  0  0  0  0  0  0
  160.4600  213.0030  155.8820 C   0  0  0  0  0  1  0  0  0  0  0  0
  159.3970  211.7930  153.9060 C   0  0  2  0  0  3  0  0  0  0  0  0
  156.9500  211.5840  156.1230 C   0  0  0  0  0  0  0  0  0  0  0  0
  156.4100  211.5220  157.2600 O   0  0  0  0  0  1  0  0  0  0  0  0
  156.5490  210.7090  155.1220 O   0  0  0  0  0  0  0  0  0  0  0  0
  1  8  1  6  0  0  0
  1 31  1  0  0  0  0
  2 29  1  6  0  0  0
  2 31  1  0  0  0  0
  2 21  1  0  0  0  0
  3 28  1  6  0  0  0
  3 14  1  0  0  0  0
  4 29  2  0  0  0  0
  5 23  1  0  0  0  0
  6 19  1  0  0  0  0
  7 16  1  6  0  0  0
  7  8  1  0  0  0  0
  9 15  1  6  0  0  0
  9 18  1  0  0  0  0
  9  7  1  0  0  0  0
 10  6  1  0  0  0  0
 10 13  2  0  0  0  0
 11 15  1  0  0  0  0
 12  6  1  0  0  0  0
 12 26  1  1  0  0  0
 12 19  1  0  0  0  0
 17  4  1  0  0  0  0
 18  4  1  1  0  0  0
 18  1  1  0  0  0  0
 20 11  1  0  0  0  0
 20 17  1  0  0  0  0
 21 22  1  0  0  0  0
 22 32  1  6  0  0  0
 23 25  1  0  0  0  0
 24 22  1  0  0  0  0
 24 30  1  1  0  0  0
 24 26  1  0  0  0  0
 25 14  1  6  0  0  0
 25 10  1  0  0  0  0
 27  7  1  0  0  0  0
 27  5  1  1  0  0  0
 27  3  1  0  0  0  0
 31 24  1  0  0  0  0
 32 33  1  0  0  0  0
 34 32  2  0  0  0  0
M  END
>  <MODEL>
3

>  <REMARK>
 VINA RESULT:       3.4      1.796      2.641
  Name = 
  1 active torsions:
  status: ('A' for Active; 'I' for Inactive)
    1  A    between atoms: C_3  and  C_25
                            x       y       z     vdW  Elec       q    Type
                         _______ _______ _______ _____ _____    ______ ____

>  <TORSDO>
F 1

$$$$
