=
 OpenBabel11062409223D

 37 37  0  0  1  0  0  0  0  0999 V2000
  161.8370  208.0430  149.3030 C   0  0  2  0  0  3  0  0  0  0  0  0
  162.2020  208.0750  150.7900 C   0  0  2  0  0  3  0  0  0  0  0  0
  163.0190  206.9880  151.1080 O   0  0  0  0  0  1  0  0  0  0  0  0
  160.9620  208.0890  151.6800 C   0  0  0  0  0  2  0  0  0  0  0  0
  161.9510  210.2120  152.1850 O   0  0  0  0  0  1  0  0  0  0  0  0
  160.8210  209.4210  152.4030 C   0  0  2  0  0  3  0  0  0  0  0  0
  160.6300  209.2020  153.8710 C   0  0  0  0  0  0  0  0  0  0  0  0
  160.0380  210.1520  154.5930 C   0  0  0  0  0  2  0  0  0  0  0  0
  160.2430  207.1350  155.1820 C   0  0  0  0  0  1  0  0  0  0  0  0
  161.2860  208.0450  154.5610 C   0  0  0  0  0  2  0  0  0  0  0  0
  162.2550  206.8390  148.7230 O   0  0  0  0  0  0  0  0  0  0  0  0
  160.8970  206.1770  147.9400 P   0  0  2  0  0  0  0  0  0  0  0  0
  160.6220  206.9900  146.4820 O   0  0  0  0  0  0  0  0  0  0  0  0
  159.6920  206.3770  148.8310 O   0  0  0  0  0  1  0  0  0  0  0  0
  161.0880  204.3820  147.6220 C   0  0  1  0  0  3  0  0  0  0  0  0
  163.2330  204.6360  146.1220 C   0  0  0  0  0  1  0  0  0  0  0  0
  161.8480  204.1180  146.3470 C   0  0  0  0  0  0  0  0  0  0  0  0
  161.3390  203.2760  145.4500 C   0  0  0  0  0  2  0  0  0  0  0  0
  161.6990  203.6830  148.8300 C   0  0  0  0  0  2  0  0  0  0  0  0
  160.6710  202.7900  149.5040 C   0  0  0  0  0  2  0  0  0  0  0  0
  160.9970  202.6240  150.9770 C   0  0  0  0  0  2  0  0  0  0  0  0
  161.7170  203.8510  151.5030 C   0  0  0  0  0  2  0  0  0  0  0  0
  160.8840  204.4940  152.5930 C   0  0  0  0  0  1  0  0  0  0  0  0
  162.4510  209.2230  148.5560 C   0  0  0  0  0  2  0  0  0  0  0  0
  161.6450  210.3560  148.7020 O   0  0  0  0  0  0  0  0  0  0  0  0
  161.9860  212.7540  148.3930 C   0  0  0  0  0  0  0  0  0  0  0  0
  162.4590  211.4030  148.4220 N   0  0  0  0  0  2  0  0  0  0  0  0
  162.7830  213.6740  148.0720 O   0  0  0  0  0  0  0  0  0  0  0  0
  159.6600  213.2180  147.3790 C   0  0  2  0  0  3  0  0  0  0  0  0
  160.1760  214.4530  148.0840 C   0  0  0  0  0  2  0  0  0  0  0  0
  160.5360  213.0860  148.6390 C   0  0  2  0  0  3  0  0  0  0  0  0
  160.3870  213.0480  146.0340 C   0  0  2  0  0  3  0  0  0  0  0  0
  160.5220  214.3630  145.2750 C   0  0  0  0  0  1  0  0  0  0  0  0
  159.8470  212.0100  145.2380 O   0  0  0  0  0  0  0  0  0  0  0  0
  159.7660  212.4450  143.9040 C   0  0  0  0  0  2  0  0  0  0  0  0
  161.0650  211.9250  142.2010 C   0  0  0  0  0  1  0  0  0  0  0  0
  160.0960  211.3930  143.0510 O   0  0  0  0  0  0  0  0  0  0  0  0
  1 24  1  6  0  0  0
  1  2  1  0  0  0  0
  2  3  1  1  0  0  0
  2  4  1  0  0  0  0
  4  6  1  0  0  0  0
  6  5  1  1  0  0  0
  6  7  1  0  0  0  0
  7 10  1  0  0  0  0
  7  8  2  0  0  0  0
 10  9  1  0  0  0  0
 11  1  1  0  0  0  0
 12 13  2  6  0  0  0
 12 11  1  0  0  0  0
 12 14  1  0  0  0  0
 15 12  1  0  0  0  0
 15 19  1  1  0  0  0
 16 17  1  0  0  0  0
 17 15  1  0  0  0  0
 18 17  2  0  0  0  0
 19 20  1  0  0  0  0
 20 21  1  0  0  0  0
 21 22  1  0  0  0  0
 22 23  1  0  0  0  0
 24 25  1  0  0  0  0
 26 27  1  0  0  0  0
 27 25  1  0  0  0  0
 28 26  2  0  0  0  0
 29 32  1  6  0  0  0
 29 30  1  0  0  0  0
 29 31  1  0  0  0  0
 30 31  1  0  0  0  0
 31 26  1  6  0  0  0
 32 33  1  6  0  0  0
 34 32  1  0  0  0  0
 35 34  1  0  0  0  0
 36 37  1  0  0  0  0
 37 35  1  0  0  0  0
M  END
>  <MODEL>
1

>  <REMARK>
 VINA RESULT:      -6.2      0.000      0.000
  Name = 
  21 active torsions:
  status: ('A' for Active; 'I' for Inactive)
    1  A    between atoms: C_1  and  O_17
    2  A    between atoms: C_1  and  C_26
    3  A    between atoms: C_2  and  C_19
    4  A    between atoms: C_2  and  C_35
    5  A    between atoms: C_3  and  C_32
    6  A    between atoms: P_4  and  O_10
    7  A    between atoms: P_4  and  C_13
    8  A    between atoms: C_5  and  O_17
    9  A    between atoms: C_5  and  O_23
   10  A    between atoms: C_6  and  C_31
   11  A    between atoms: C_6  and  C_35
   12  A    between atoms: C_7  and  C_14
   13  A    between atoms: C_7  and  O_27
   14  A    between atoms: O_10  and  C_14
   15  A    between atoms: C_11  and  C_36
   16  A    between atoms: C_13  and  C_16
   17  A    between atoms: C_13  and  C_20
   18  A    between atoms: C_14  and  C_31
   19  A    between atoms: C_20  and  C_25
   20  A    between atoms: C_25  and  C_32
   21  A    between atoms: O_27  and  N_33
                            x       y       z     vdW  Elec       q    Type
                         _______ _______ _______ _____ _____    ______ ____

>  <TORSDO>
F 21

$$$$
=
 OpenBabel11062409223D

 37 37  0  0  1  0  0  0  0  0999 V2000
  161.9490  208.8260  150.9420 C   0  0  2  0  0  3  0  0  0  0  0  0
  161.7920  209.5290  149.5900 C   0  0  2  0  0  3  0  0  0  0  0  0
  162.5660  208.8870  148.6210 O   0  0  0  0  0  1  0  0  0  0  0  0
  162.1580  211.0090  149.6720 C   0  0  0  0  0  2  0  0  0  0  0  0
  163.3430  212.0650  147.8780 O   0  0  0  0  0  1  0  0  0  0  0  0
  162.0730  211.6720  148.3040 C   0  0  2  0  0  3  0  0  0  0  0  0
  161.1620  212.8580  148.3540 C   0  0  0  0  0  0  0  0  0  0  0  0
  161.2930  213.8110  147.4320 C   0  0  0  0  0  2  0  0  0  0  0  0
  160.5520  214.4450  150.1560 C   0  0  0  0  0  1  0  0  0  0  0  0
  160.2740  213.0890  149.5380 C   0  0  0  0  0  2  0  0  0  0  0  0
  160.8460  208.0010  151.1950 O   0  0  0  0  0  0  0  0  0  0  0  0
  161.4610  206.4430  151.4930 P   0  0  2  0  0  0  0  0  0  0  0  0
  161.1680  206.0090  153.1020 O   0  0  0  0  0  1  0  0  0  0  0  0
  162.9570  206.4730  151.2730 O   0  0  0  0  0  0  0  0  0  0  0  0
  160.7380  205.1870  150.3710 C   0  0  1  0  0  3  0  0  0  0  0  0
  160.2230  206.4770  148.1380 C   0  0  0  0  0  1  0  0  0  0  0  0
  161.0320  205.4950  148.9250 C   0  0  0  0  0  0  0  0  0  0  0  0
  162.1320  204.9960  148.3650 C   0  0  0  0  0  2  0  0  0  0  0  0
  161.1730  203.7850  150.7780 C   0  0  0  0  0  2  0  0  0  0  0  0
  160.3880  202.7390  150.0060 C   0  0  0  0  0  2  0  0  0  0  0  0
  161.0640  201.3840  150.1120 C   0  0  0  0  0  2  0  0  0  0  0  0
  161.2660  200.7820  148.7330 C   0  0  0  0  0  2  0  0  0  0  0  0
  160.7870  201.7620  147.6830 C   0  0  0  0  0  1  0  0  0  0  0  0
  162.1190  209.8330  152.0750 C   0  0  0  0  0  2  0  0  0  0  0  0
  161.1470  209.6200  153.0570 O   0  0  0  0  0  0  0  0  0  0  0  0
  159.4500  211.3600  152.8280 C   0  0  0  0  0  0  0  0  0  0  0  0
  159.9930  210.0740  152.5110 N   0  0  0  0  0  2  0  0  0  0  0  0
  158.3450  211.6970  152.3270 O   0  0  0  0  0  0  0  0  0  0  0  0
  159.6940  212.0880  155.2900 C   0  0  2  0  0  3  0  0  0  0  0  0
  159.1220  213.2210  154.4660 C   0  0  0  0  0  2  0  0  0  0  0  0
  160.1190  212.2740  153.8210 C   0  0  2  0  0  3  0  0  0  0  0  0
  158.6050  211.0330  155.5450 C   0  0  2  0  0  3  0  0  0  0  0  0
  157.2270  211.6550  155.7480 C   0  0  0  0  0  1  0  0  0  0  0  0
  158.9470  210.1170  156.5670 O   0  0  0  0  0  0  0  0  0  0  0  0
  160.2840  209.7160  156.4000 C   0  0  0  0  0  2  0  0  0  0  0  0
  161.6140  207.9580  156.3640 C   0  0  0  0  0  1  0  0  0  0  0  0
  160.3230  208.3700  156.0350 O   0  0  0  0  0  0  0  0  0  0  0  0
  1 11  1  0  0  0  0
  1 24  1  1  0  0  0
  2  3  1  6  0  0  0
  2  4  1  0  0  0  0
  2  1  1  0  0  0  0
  6  5  1  1  0  0  0
  6  7  1  0  0  0  0
  6  4  1  0  0  0  0
  7 10  1  0  0  0  0
  8  7  2  0  0  0  0
 10  9  1  0  0  0  0
 11 12  1  0  0  0  0
 12 14  2  6  0  0  0
 12 13  1  0  0  0  0
 15 19  1  1  0  0  0
 15 12  1  0  0  0  0
 16 17  1  0  0  0  0
 17 15  1  0  0  0  0
 18 17  2  0  0  0  0
 20 21  1  0  0  0  0
 20 19  1  0  0  0  0
 22 21  1  0  0  0  0
 23 22  1  0  0  0  0
 24 25  1  0  0  0  0
 27 26  1  0  0  0  0
 27 25  1  0  0  0  0
 28 26  2  0  0  0  0
 29 32  1  6  0  0  0
 30 29  1  0  0  0  0
 31 26  1  6  0  0  0
 31 30  1  0  0  0  0
 31 29  1  0  0  0  0
 32 33  1  1  0  0  0
 32 34  1  0  0  0  0
 35 34  1  0  0  0  0
 37 36  1  0  0  0  0
 37 35  1  0  0  0  0
M  END
>  <MODEL>
2

>  <REMARK>
 VINA RESULT:      -5.3      2.559      6.745
  Name = 
  21 active torsions:
  status: ('A' for Active; 'I' for Inactive)
    1  A    between atoms: C_1  and  O_17
    2  A    between atoms: C_1  and  C_26
    3  A    between atoms: C_2  and  C_19
    4  A    between atoms: C_2  and  C_35
    5  A    between atoms: C_3  and  C_32
    6  A    between atoms: P_4  and  O_10
    7  A    between atoms: P_4  and  C_13
    8  A    between atoms: C_5  and  O_17
    9  A    between atoms: C_5  and  O_23
   10  A    between atoms: C_6  and  C_31
   11  A    between atoms: C_6  and  C_35
   12  A    between atoms: C_7  and  C_14
   13  A    between atoms: C_7  and  O_27
   14  A    between atoms: O_10  and  C_14
   15  A    between atoms: C_11  and  C_36
   16  A    between atoms: C_13  and  C_16
   17  A    between atoms: C_13  and  C_20
   18  A    between atoms: C_14  and  C_31
   19  A    between atoms: C_20  and  C_25
   20  A    between atoms: C_25  and  C_32
   21  A    between atoms: O_27  and  N_33
                            x       y       z     vdW  Elec       q    Type
                         _______ _______ _______ _____ _____    ______ ____

>  <TORSDO>
F 21

$$$$
=
 OpenBabel11062409223D

 37 37  0  0  1  0  0  0  0  0999 V2000
  161.9420  208.6320  150.7450 C   0  0  2  0  0  3  0  0  0  0  0  0
  161.7930  209.3880  149.4220 C   0  0  2  0  0  3  0  0  0  0  0  0
  162.5820  208.7930  148.4360 O   0  0  0  0  0  1  0  0  0  0  0  0
  162.1450  210.8660  149.5680 C   0  0  0  0  0  2  0  0  0  0  0  0
  163.2790  212.2240  147.9520 O   0  0  0  0  0  1  0  0  0  0  0  0
  162.0690  211.5840  148.2280 C   0  0  2  0  0  3  0  0  0  0  0  0
  160.9540  212.5830  148.2330 C   0  0  0  0  0  0  0  0  0  0  0  0
  160.6820  213.2400  149.3580 C   0  0  0  0  0  2  0  0  0  0  0  0
  158.6740  213.2310  147.5120 C   0  0  0  0  0  1  0  0  0  0  0  0
  160.0170  212.6840  147.0680 C   0  0  0  0  0  2  0  0  0  0  0  0
  160.8780  207.7380  150.9200 O   0  0  0  0  0  0  0  0  0  0  0  0
  161.5610  206.2510  151.3860 P   0  0  2  0  0  0  0  0  0  0  0  0
  160.7670  205.6600  152.7590 O   0  0  0  0  0  1  0  0  0  0  0  0
  163.0120  206.4860  151.7390 O   0  0  0  0  0  0  0  0  0  0  0  0
  161.4870  205.0050  150.0430 C   0  0  1  0  0  3  0  0  0  0  0  0
  160.2630  202.6990  149.7320 C   0  0  0  0  0  1  0  0  0  0  0  0
  161.0660  203.6520  150.5590 C   0  0  0  0  0  0  0  0  0  0  0  0
  161.5460  203.2240  151.7240 C   0  0  0  0  0  2  0  0  0  0  0  0
  160.6140  205.5000  148.8970 C   0  0  0  0  0  2  0  0  0  0  0  0
  161.4610  205.7870  147.6690 C   0  0  0  0  0  2  0  0  0  0  0  0
  161.6520  204.5230  146.8500 C   0  0  0  0  0  2  0  0  0  0  0  0
  161.0970  204.7080  145.4500 C   0  0  0  0  0  2  0  0  0  0  0  0
  160.4320  206.0640  145.3490 C   0  0  0  0  0  1  0  0  0  0  0  0
  162.0180  209.5920  151.9290 C   0  0  0  0  0  2  0  0  0  0  0  0
  160.9630  209.3500  152.8120 O   0  0  0  0  0  0  0  0  0  0  0  0
  159.5710  211.3570  152.8060 C   0  0  0  0  0  0  0  0  0  0  0  0
  159.9200  210.0580  152.3140 N   0  0  0  0  0  2  0  0  0  0  0  0
  158.5570  211.9350  152.3360 O   0  0  0  0  0  0  0  0  0  0  0  0
  159.8490  211.6290  155.3560 C   0  0  2  0  0  3  0  0  0  0  0  0
  159.4470  212.9470  154.7320 C   0  0  0  0  0  2  0  0  0  0  0  0
  160.3290  211.9980  153.9400 C   0  0  2  0  0  3  0  0  0  0  0  0
  158.6280  210.6970  155.4290 C   0  0  2  0  0  3  0  0  0  0  0  0
  157.3870  211.4040  155.9660 C   0  0  0  0  0  1  0  0  0  0  0  0
  158.8960  209.4810  156.0990 O   0  0  0  0  0  0  0  0  0  0  0  0
  160.1160  209.5910  156.7890 C   0  0  0  0  0  2  0  0  0  0  0  0
  161.5880  208.0830  156.1420 C   0  0  0  0  0  1  0  0  0  0  0  0
  160.5960  208.3180  157.0930 O   0  0  0  0  0  0  0  0  0  0  0  0
  1 11  1  0  0  0  0
  1 24  1  1  0  0  0
  2  3  1  6  0  0  0
  2  4  1  0  0  0  0
  2  1  1  0  0  0  0
  6  5  1  1  0  0  0
  6  7  1  0  0  0  0
  6  4  1  0  0  0  0
  7  8  2  0  0  0  0
 10  9  1  0  0  0  0
 10  7  1  0  0  0  0
 11 12  1  0  0  0  0
 12 14  2  1  0  0  0
 12 13  1  0  0  0  0
 15 19  1  6  0  0  0
 15 17  1  0  0  0  0
 15 12  1  0  0  0  0
 16 17  1  0  0  0  0
 17 18  2  0  0  0  0
 20 19  1  0  0  0  0
 21 20  1  0  0  0  0
 22 21  1  0  0  0  0
 23 22  1  0  0  0  0
 24 25  1  0  0  0  0
 27 26  1  0  0  0  0
 27 25  1  0  0  0  0
 28 26  2  0  0  0  0
 29 32  1  6  0  0  0
 30 29  1  0  0  0  0
 31 26  1  6  0  0  0
 31 30  1  0  0  0  0
 31 29  1  0  0  0  0
 32 33  1  1  0  0  0
 32 34  1  0  0  0  0
 34 35  1  0  0  0  0
 35 37  1  0  0  0  0
 36 37  1  0  0  0  0
M  END
>  <MODEL>
3

>  <REMARK>
 VINA RESULT:      -5.2      2.360      7.063
  Name = 
  21 active torsions:
  status: ('A' for Active; 'I' for Inactive)
    1  A    between atoms: C_1  and  O_17
    2  A    between atoms: C_1  and  C_26
    3  A    between atoms: C_2  and  C_19
    4  A    between atoms: C_2  and  C_35
    5  A    between atoms: C_3  and  C_32
    6  A    between atoms: P_4  and  O_10
    7  A    between atoms: P_4  and  C_13
    8  A    between atoms: C_5  and  O_17
    9  A    between atoms: C_5  and  O_23
   10  A    between atoms: C_6  and  C_31
   11  A    between atoms: C_6  and  C_35
   12  A    between atoms: C_7  and  C_14
   13  A    between atoms: C_7  and  O_27
   14  A    between atoms: O_10  and  C_14
   15  A    between atoms: C_11  and  C_36
   16  A    between atoms: C_13  and  C_16
   17  A    between atoms: C_13  and  C_20
   18  A    between atoms: C_14  and  C_31
   19  A    between atoms: C_20  and  C_25
   20  A    between atoms: C_25  and  C_32
   21  A    between atoms: O_27  and  N_33
                            x       y       z     vdW  Elec       q    Type
                         _______ _______ _______ _____ _____    ______ ____

>  <TORSDO>
F 21

$$$$
=
 OpenBabel11062409223D

 37 37  0  0  1  0  0  0  0  0999 V2000
  161.4730  208.5870  151.9370 C   0  0  2  0  0  3  0  0  0  0  0  0
  161.2150  207.0930  152.1480 C   0  0  2  0  0  3  0  0  0  0  0  0
  161.7900  206.6700  153.3480 O   0  0  0  0  0  1  0  0  0  0  0  0
  161.7340  206.2560  150.9820 C   0  0  0  0  0  2  0  0  0  0  0  0
  160.6200  204.1370  151.0770 O   0  0  0  0  0  1  0  0  0  0  0  0
  160.6370  205.3660  150.4140 C   0  0  2  0  0  3  0  0  0  0  0  0
  160.8460  205.1490  148.9480 C   0  0  0  0  0  0  0  0  0  0  0  0
  161.3140  203.9750  148.5290 C   0  0  0  0  0  2  0  0  0  0  0  0
  161.9690  206.3430  147.0900 C   0  0  0  0  0  1  0  0  0  0  0  0
  160.7470  206.2950  147.9870 C   0  0  0  0  0  2  0  0  0  0  0  0
  160.3000  209.3220  152.1590 O   0  0  0  0  0  0  0  0  0  0  0  0
  160.6810  210.5110  153.3150 P   0  0  2  0  0  0  0  0  0  0  0  0
  160.4630  212.0510  152.6460 O   0  0  0  0  0  0  0  0  0  0  0  0
  162.1370  210.3570  153.6910 O   0  0  0  0  0  1  0  0  0  0  0  0
  159.6700  210.3470  154.8350 C   0  0  1  0  0  3  0  0  0  0  0  0
  161.0840  209.8590  156.9980 C   0  0  0  0  0  1  0  0  0  0  0  0
  160.2920  209.3890  155.8190 C   0  0  0  0  0  0  0  0  0  0  0  0
  160.0090  208.0920  155.7300 C   0  0  0  0  0  2  0  0  0  0  0  0
  159.3820  211.7140  155.4410 C   0  0  0  0  0  2  0  0  0  0  0  0
  157.8880  211.9030  155.6410 C   0  0  0  0  0  2  0  0  0  0  0  0
  157.2710  212.5790  154.4300 C   0  0  0  0  0  2  0  0  0  0  0  0
  155.8110  212.9000  154.6870 C   0  0  0  0  0  2  0  0  0  0  0  0
  155.6300  213.2880  156.1400 C   0  0  0  0  0  1  0  0  0  0  0  0
  162.0070  208.8670  150.5360 C   0  0  0  0  0  2  0  0  0  0  0  0
  161.4480  210.0450  150.0350 O   0  0  0  0  0  0  0  0  0  0  0  0
  162.3370  211.8820  148.6930 C   0  0  0  0  0  0  0  0  0  0  0  0
  162.3730  210.5330  149.1720 N   0  0  0  0  0  2  0  0  0  0  0  0
  163.1960  212.2530  147.8510 O   0  0  0  0  0  0  0  0  0  0  0  0
  160.2750  213.2530  147.9720 C   0  0  2  0  0  3  0  0  0  0  0  0
  161.3880  214.1790  148.4110 C   0  0  0  0  0  2  0  0  0  0  0  0
  161.2390  212.8310  149.0970 C   0  0  2  0  0  3  0  0  0  0  0  0
  160.5890  212.6930  146.5740 C   0  0  2  0  0  3  0  0  0  0  0  0
  160.9520  213.7880  145.5760 C   0  0  0  0  0  1  0  0  0  0  0  0
  159.5880  211.8200  146.0870 O   0  0  0  0  0  0  0  0  0  0  0  0
  158.6380  212.5630  145.3650 C   0  0  0  0  0  2  0  0  0  0  0  0
  156.9330  213.7020  146.1730 C   0  0  0  0  0  1  0  0  0  0  0  0
  157.3810  212.4010  145.9470 O   0  0  0  0  0  0  0  0  0  0  0  0
  1 24  1  6  0  0  0
  1  2  1  0  0  0  0
  1 11  1  0  0  0  0
  2  3  1  1  0  0  0
  4  2  1  0  0  0  0
  6  4  1  0  0  0  0
  6  5  1  1  0  0  0
  7  6  1  0  0  0  0
  8  7  2  0  0  0  0
  9 10  1  0  0  0  0
 10  7  1  0  0  0  0
 11 12  1  0  0  0  0
 12 13  2  6  0  0  0
 12 14  1  0  0  0  0
 12 15  1  0  0  0  0
 15 19  1  1  0  0  0
 15 17  1  0  0  0  0
 17 16  1  0  0  0  0
 18 17  2  0  0  0  0
 19 20  1  0  0  0  0
 21 22  1  0  0  0  0
 21 20  1  0  0  0  0
 22 23  1  0  0  0  0
 25 24  1  0  0  0  0
 26 27  1  0  0  0  0
 27 25  1  0  0  0  0
 28 26  2  0  0  0  0
 29 32  1  6  0  0  0
 29 30  1  0  0  0  0
 29 31  1  0  0  0  0
 30 31  1  0  0  0  0
 31 26  1  6  0  0  0
 32 33  1  6  0  0  0
 34 32  1  0  0  0  0
 35 37  1  0  0  0  0
 35 34  1  0  0  0  0
 37 36  1  0  0  0  0
M  END
>  <MODEL>
4

>  <REMARK>
 VINA RESULT:      -5.1      2.458      6.714
  Name = 
  21 active torsions:
  status: ('A' for Active; 'I' for Inactive)
    1  A    between atoms: C_1  and  O_17
    2  A    between atoms: C_1  and  C_26
    3  A    between atoms: C_2  and  C_19
    4  A    between atoms: C_2  and  C_35
    5  A    between atoms: C_3  and  C_32
    6  A    between atoms: P_4  and  O_10
    7  A    between atoms: P_4  and  C_13
    8  A    between atoms: C_5  and  O_17
    9  A    between atoms: C_5  and  O_23
   10  A    between atoms: C_6  and  C_31
   11  A    between atoms: C_6  and  C_35
   12  A    between atoms: C_7  and  C_14
   13  A    between atoms: C_7  and  O_27
   14  A    between atoms: O_10  and  C_14
   15  A    between atoms: C_11  and  C_36
   16  A    between atoms: C_13  and  C_16
   17  A    between atoms: C_13  and  C_20
   18  A    between atoms: C_14  and  C_31
   19  A    between atoms: C_20  and  C_25
   20  A    between atoms: C_25  and  C_32
   21  A    between atoms: O_27  and  N_33
                            x       y       z     vdW  Elec       q    Type
                         _______ _______ _______ _____ _____    ______ ____

>  <TORSDO>
F 21

$$$$
=
 OpenBabel11062409223D

 37 37  0  0  1  0  0  0  0  0999 V2000
  161.1510  206.8270  152.5330 C   0  0  2  0  0  3  0  0  0  0  0  0
  160.7540  205.3520  152.4270 C   0  0  2  0  0  3  0  0  0  0  0  0
  161.0260  204.6930  153.6270 O   0  0  0  0  0  1  0  0  0  0  0  0
  161.4570  204.6550  151.2650 C   0  0  0  0  0  2  0  0  0  0  0  0
  161.8830  202.3590  151.8020 O   0  0  0  0  0  1  0  0  0  0  0  0
  161.0000  203.2090  151.1330 C   0  0  2  0  0  3  0  0  0  0  0  0
  160.9100  202.8170  149.6920 C   0  0  0  0  0  0  0  0  0  0  0  0
  161.1710  203.7300  148.7580 C   0  0  0  0  0  2  0  0  0  0  0  0
  161.2760  200.7400  148.3920 C   0  0  0  0  0  1  0  0  0  0  0  0
  160.3230  201.4970  149.2960 C   0  0  0  0  0  2  0  0  0  0  0  0
  162.2310  207.1050  151.6850 O   0  0  0  0  0  0  0  0  0  0  0  0
  161.9600  208.6570  151.0430 P   0  0  2  0  0  0  0  0  0  0  0  0
  162.9870  209.7750  151.7910 O   0  0  0  0  0  1  0  0  0  0  0  0
  160.5310  209.0500  151.3400 O   0  0  0  0  0  0  0  0  0  0  0  0
  162.2070  208.7070  149.2270 C   0  0  1  0  0  3  0  0  0  0  0  0
  160.4200  206.8290  148.7820 C   0  0  0  0  0  1  0  0  0  0  0  0
  161.7790  207.4200  148.5700 C   0  0  0  0  0  0  0  0  0  0  0  0
  162.5690  206.8640  147.6540 C   0  0  0  0  0  2  0  0  0  0  0  0
  161.5320  209.9330  148.6250 C   0  0  0  0  0  2  0  0  0  0  0  0
  162.4900  211.1110  148.6060 C   0  0  0  0  0  2  0  0  0  0  0  0
  161.7230  212.4190  148.6800 C   0  0  0  0  0  2  0  0  0  0  0  0
  161.5060  212.9870  147.2890 C   0  0  0  0  0  2  0  0  0  0  0  0
  160.0200  213.1180  147.0270 C   0  0  0  0  0  1  0  0  0  0  0  0
  161.5020  207.2060  153.9680 C   0  0  0  0  0  2  0  0  0  0  0  0
  160.6060  208.1660  154.4450 O   0  0  0  0  0  0  0  0  0  0  0  0
  160.8880  210.0690  155.9490 C   0  0  0  0  0  0  0  0  0  0  0  0
  161.3850  209.1360  154.9830 N   0  0  0  0  0  2  0  0  0  0  0  0
  161.6510  210.9790  156.3680 O   0  0  0  0  0  0  0  0  0  0  0  0
  158.4960  210.9750  155.6230 C   0  0  2  0  0  3  0  0  0  0  0  0
  159.0270  211.3840  156.9790 C   0  0  0  0  0  2  0  0  0  0  0  0
  159.4490  210.0460  156.3970 C   0  0  2  0  0  3  0  0  0  0  0  0
  159.1430  211.8430  154.5300 C   0  0  2  0  0  3  0  0  0  0  0  0
  159.1750  213.3210  154.9030 C   0  0  0  0  0  1  0  0  0  0  0  0
  158.5980  211.6150  153.2450 O   0  0  0  0  0  0  0  0  0  0  0  0
  158.2970  212.8500  152.6450 C   0  0  0  0  0  2  0  0  0  0  0  0
  158.8060  213.7760  150.7100 C   0  0  0  0  0  1  0  0  0  0  0  0
  158.1540  212.6770  151.2680 O   0  0  0  0  0  0  0  0  0  0  0  0
  1 24  1  1  0  0  0
  2  1  1  0  0  0  0
  2  3  1  1  0  0  0
  4  2  1  0  0  0  0
  6  4  1  0  0  0  0
  6  5  1  1  0  0  0
  7  6  1  0  0  0  0
  8  7  2  0  0  0  0
  9 10  1  0  0  0  0
 10  7  1  0  0  0  0
 11  1  1  0  0  0  0
 12 14  2  1  0  0  0
 12 11  1  0  0  0  0
 12 13  1  0  0  0  0
 15 19  1  6  0  0  0
 15 12  1  0  0  0  0
 17 16  1  0  0  0  0
 17 15  1  0  0  0  0
 18 17  2  0  0  0  0
 20 19  1  0  0  0  0
 20 21  1  0  0  0  0
 22 21  1  0  0  0  0
 23 22  1  0  0  0  0
 24 25  1  0  0  0  0
 25 27  1  0  0  0  0
 26 28  2  0  0  0  0
 27 26  1  0  0  0  0
 29 32  1  6  0  0  0
 29 31  1  0  0  0  0
 29 30  1  0  0  0  0
 31 26  1  6  0  0  0
 31 30  1  0  0  0  0
 32 33  1  1  0  0  0
 34 32  1  0  0  0  0
 35 34  1  0  0  0  0
 36 37  1  0  0  0  0
 37 35  1  0  0  0  0
M  END
>  <MODEL>
5

>  <REMARK>
 VINA RESULT:      -5.1      3.174      7.350
  Name = 
  21 active torsions:
  status: ('A' for Active; 'I' for Inactive)
    1  A    between atoms: C_1  and  O_17
    2  A    between atoms: C_1  and  C_26
    3  A    between atoms: C_2  and  C_19
    4  A    between atoms: C_2  and  C_35
    5  A    between atoms: C_3  and  C_32
    6  A    between atoms: P_4  and  O_10
    7  A    between atoms: P_4  and  C_13
    8  A    between atoms: C_5  and  O_17
    9  A    between atoms: C_5  and  O_23
   10  A    between atoms: C_6  and  C_31
   11  A    between atoms: C_6  and  C_35
   12  A    between atoms: C_7  and  C_14
   13  A    between atoms: C_7  and  O_27
   14  A    between atoms: O_10  and  C_14
   15  A    between atoms: C_11  and  C_36
   16  A    between atoms: C_13  and  C_16
   17  A    between atoms: C_13  and  C_20
   18  A    between atoms: C_14  and  C_31
   19  A    between atoms: C_20  and  C_25
   20  A    between atoms: C_25  and  C_32
   21  A    between atoms: O_27  and  N_33
                            x       y       z     vdW  Elec       q    Type
                         _______ _______ _______ _____ _____    ______ ____

>  <TORSDO>
F 21

$$$$
=
 OpenBabel11062409223D

 37 37  0  0  1  0  0  0  0  0999 V2000
  161.6690  208.4690  150.7870 C   0  0  2  0  0  3  0  0  0  0  0  0
  161.4650  208.7530  152.2780 C   0  0  2  0  0  3  0  0  0  0  0  0
  160.5000  207.8920  152.8040 O   0  0  0  0  0  1  0  0  0  0  0  0
  161.0800  210.2070  152.5340 C   0  0  0  0  0  2  0  0  0  0  0  0
  158.9250  211.2550  152.5070 O   0  0  0  0  0  1  0  0  0  0  0  0
  159.7020  210.3060  153.1740 C   0  0  2  0  0  3  0  0  0  0  0  0
  159.8220  210.6720  154.6200 C   0  0  0  0  0  0  0  0  0  0  0  0
  158.7640  210.5180  155.4140 C   0  0  0  0  0  2  0  0  0  0  0  0
  161.2480  211.1200  156.5960 C   0  0  0  0  0  1  0  0  0  0  0  0
  161.0270  211.4060  155.1220 C   0  0  0  0  0  2  0  0  0  0  0  0
  162.3040  207.2340  150.6070 O   0  0  0  0  0  0  0  0  0  0  0  0
  161.6200  206.5320  149.2160 P   0  0  2  0  0  0  0  0  0  0  0  0
  162.3910  207.1300  147.8330 O   0  0  0  0  0  0  0  0  0  0  0  0
  160.1620  206.9240  149.1560 O   0  0  0  0  0  1  0  0  0  0  0  0
  161.7260  204.7020  149.2420 C   0  0  1  0  0  3  0  0  0  0  0  0
  160.6790  202.7570  150.6690 C   0  0  0  0  0  1  0  0  0  0  0  0
  161.2540  204.1340  150.5560 C   0  0  0  0  0  0  0  0  0  0  0  0
  161.4910  204.8090  151.6780 C   0  0  0  0  0  2  0  0  0  0  0  0
  161.0010  204.1030  148.0430 C   0  0  0  0  0  2  0  0  0  0  0  0
  161.9990  203.5530  147.0390 C   0  0  0  0  0  2  0  0  0  0  0  0
  161.5060  203.7810  145.6220 C   0  0  0  0  0  2  0  0  0  0  0  0
  161.7370  205.2210  145.2040 C   0  0  0  0  0  2  0  0  0  0  0  0
  160.4050  205.9340  145.0990 C   0  0  0  0  0  1  0  0  0  0  0  0
  162.4780  209.5760  150.1170 C   0  0  0  0  0  2  0  0  0  0  0  0
  161.6990  210.2240  149.1540 O   0  0  0  0  0  0  0  0  0  0  0  0
  162.1800  212.5170  148.4660 C   0  0  0  0  0  0  0  0  0  0  0  0
  162.5290  211.1340  148.5870 N   0  0  0  0  0  2  0  0  0  0  0  0
  162.9750  213.2980  147.8790 O   0  0  0  0  0  0  0  0  0  0  0  0
  159.8140  213.3160  147.8250 C   0  0  2  0  0  3  0  0  0  0  0  0
  160.5960  214.4530  148.4450 C   0  0  0  0  0  2  0  0  0  0  0  0
  160.8450  213.0360  148.9340 C   0  0  2  0  0  3  0  0  0  0  0  0
  160.2960  213.0810  146.3840 C   0  0  2  0  0  3  0  0  0  0  0  0
  160.3840  214.3750  145.5800 C   0  0  0  0  0  1  0  0  0  0  0  0
  159.5700  212.0690  145.7130 O   0  0  0  0  0  0  0  0  0  0  0  0
  159.3670  212.4550  144.3760 C   0  0  0  0  0  2  0  0  0  0  0  0
  160.3120  212.3190  142.3890 C   0  0  0  0  0  1  0  0  0  0  0  0
  160.0310  211.5670  143.5300 O   0  0  0  0  0  0  0  0  0  0  0  0
  1 24  1  1  0  0  0
  1  2  1  0  0  0  0
  2  4  1  0  0  0  0
  2  3  1  6  0  0  0
  4  6  1  0  0  0  0
  6  5  1  6  0  0  0
  6  7  1  0  0  0  0
  7 10  1  0  0  0  0
  7  8  2  0  0  0  0
 10  9  1  0  0  0  0
 11  1  1  0  0  0  0
 12 13  2  6  0  0  0
 12 15  1  0  0  0  0
 12 11  1  0  0  0  0
 14 12  1  0  0  0  0
 15 19  1  6  0  0  0
 15 17  1  0  0  0  0
 17 16  1  0  0  0  0
 17 18  2  0  0  0  0
 20 19  1  0  0  0  0
 21 20  1  0  0  0  0
 22 21  1  0  0  0  0
 23 22  1  0  0  0  0
 25 24  1  0  0  0  0
 26 27  1  0  0  0  0
 27 25  1  0  0  0  0
 28 26  2  0  0  0  0
 29 32  1  6  0  0  0
 29 30  1  0  0  0  0
 29 31  1  0  0  0  0
 30 31  1  0  0  0  0
 31 26  1  6  0  0  0
 32 33  1  6  0  0  0
 34 32  1  0  0  0  0
 35 34  1  0  0  0  0
 36 37  1  0  0  0  0
 37 35  1  0  0  0  0
M  END
>  <MODEL>
6

>  <REMARK>
 VINA RESULT:      -5.0      1.267      2.945
  Name = 
  21 active torsions:
  status: ('A' for Active; 'I' for Inactive)
    1  A    between atoms: C_1  and  O_17
    2  A    between atoms: C_1  and  C_26
    3  A    between atoms: C_2  and  C_19
    4  A    between atoms: C_2  and  C_35
    5  A    between atoms: C_3  and  C_32
    6  A    between atoms: P_4  and  O_10
    7  A    between atoms: P_4  and  C_13
    8  A    between atoms: C_5  and  O_17
    9  A    between atoms: C_5  and  O_23
   10  A    between atoms: C_6  and  C_31
   11  A    between atoms: C_6  and  C_35
   12  A    between atoms: C_7  and  C_14
   13  A    between atoms: C_7  and  O_27
   14  A    between atoms: O_10  and  C_14
   15  A    between atoms: C_11  and  C_36
   16  A    between atoms: C_13  and  C_16
   17  A    between atoms: C_13  and  C_20
   18  A    between atoms: C_14  and  C_31
   19  A    between atoms: C_20  and  C_25
   20  A    between atoms: C_25  and  C_32
   21  A    between atoms: O_27  and  N_33
                            x       y       z     vdW  Elec       q    Type
                         _______ _______ _______ _____ _____    ______ ____

>  <TORSDO>
F 21

$$$$
=
 OpenBabel11062409223D

 37 37  0  0  1  0  0  0  0  0999 V2000
  161.8230  207.5940  148.8160 C   0  0  2  0  0  3  0  0  0  0  0  0
  160.9220  206.8740  147.8090 C   0  0  2  0  0  3  0  0  0  0  0  0
  160.2410  205.8280  148.4350 O   0  0  0  0  0  1  0  0  0  0  0  0
  161.7100  206.3550  146.6090 C   0  0  0  0  0  2  0  0  0  0  0  0
  163.4090  204.6720  146.7550 O   0  0  0  0  0  1  0  0  0  0  0  0
  162.0270  204.8740  146.7590 C   0  0  2  0  0  3  0  0  0  0  0  0
  161.3950  204.0880  145.6530 C   0  0  0  0  0  0  0  0  0  0  0  0
  160.8180  204.7420  144.6470 C   0  0  0  0  0  2  0  0  0  0  0  0
  160.0210  202.1460  144.9610 C   0  0  0  0  0  1  0  0  0  0  0  0
  161.2120  202.6070  145.7790 C   0  0  0  0  0  2  0  0  0  0  0  0
  161.1180  207.8660  149.9950 O   0  0  0  0  0  0  0  0  0  0  0  0
  162.2450  207.7830  151.2680 P   0  0  2  0  0  0  0  0  0  0  0  0
  162.6410  209.3440  151.7860 O   0  0  0  0  0  1  0  0  0  0  0  0
  163.5000  207.1210  150.7460 O   0  0  0  0  0  0  0  0  0  0  0  0
  161.6180  206.8000  152.6820 C   0  0  1  0  0  3  0  0  0  0  0  0
  160.3510  209.0190  153.3060 C   0  0  0  0  0  1  0  0  0  0  0  0
  160.8510  207.6540  153.6600 C   0  0  0  0  0  0  0  0  0  0  0  0
  160.4720  207.1290  154.8230 C   0  0  0  0  0  2  0  0  0  0  0  0
  160.8200  205.5980  152.1920 C   0  0  0  0  0  2  0  0  0  0  0  0
  161.7360  204.5870  151.5250 C   0  0  0  0  0  2  0  0  0  0  0  0
  161.0370  203.2470  151.3900 C   0  0  0  0  0  2  0  0  0  0  0  0
  160.5320  203.0520  149.9720 C   0  0  0  0  0  2  0  0  0  0  0  0
  160.3800  201.5710  149.6920 C   0  0  0  0  0  1  0  0  0  0  0  0
  162.3840  208.8880  148.2330 C   0  0  0  0  0  2  0  0  0  0  0  0
  161.7420  209.9900  148.8030 O   0  0  0  0  0  0  0  0  0  0  0  0
  161.1290  211.9370  147.4630 C   0  0  0  0  0  0  0  0  0  0  0  0
  161.0340  210.5460  147.7900 N   0  0  0  0  0  2  0  0  0  0  0  0
  160.4020  212.4000  146.5450 O   0  0  0  0  0  0  0  0  0  0  0  0
  161.3070  213.6080  149.4200 C   0  0  2  0  0  3  0  0  0  0  0  0
  161.5510  214.3170  148.1060 C   0  0  0  0  0  2  0  0  0  0  0  0
  162.0020  212.8750  148.2580 C   0  0  2  0  0  3  0  0  0  0  0  0
  159.8040  213.3300  149.5870 C   0  0  2  0  0  3  0  0  0  0  0  0
  158.9370  214.4480  149.0160 C   0  0  0  0  0  1  0  0  0  0  0  0
  159.4460  212.9830  150.9110 O   0  0  0  0  0  0  0  0  0  0  0  0
  158.0740  213.2270  151.0980 C   0  0  0  0  0  2  0  0  0  0  0  0
  157.0290  214.1910  152.7830 C   0  0  0  0  0  1  0  0  0  0  0  0
  157.7490  213.0460  152.4430 O   0  0  0  0  0  0  0  0  0  0  0  0
  1 24  1  6  0  0  0
  1 11  1  0  0  0  0
  2  3  1  1  0  0  0
  2  1  1  0  0  0  0
  4  6  1  0  0  0  0
  4  2  1  0  0  0  0
  6  5  1  6  0  0  0
  7 10  1  0  0  0  0
  7  6  1  0  0  0  0
  8  7  2  0  0  0  0
  9 10  1  0  0  0  0
 11 12  1  0  0  0  0
 12 14  2  6  0  0  0
 12 13  1  0  0  0  0
 12 15  1  0  0  0  0
 15 19  1  6  0  0  0
 15 17  1  0  0  0  0
 16 17  1  0  0  0  0
 17 18  2  0  0  0  0
 20 19  1  0  0  0  0
 21 20  1  0  0  0  0
 22 21  1  0  0  0  0
 23 22  1  0  0  0  0
 24 25  1  0  0  0  0
 26 27  1  0  0  0  0
 27 25  1  0  0  0  0
 28 26  2  0  0  0  0
 29 32  1  6  0  0  0
 30 31  1  0  0  0  0
 30 29  1  0  0  0  0
 31 26  1  6  0  0  0
 31 29  1  0  0  0  0
 32 33  1  1  0  0  0
 32 34  1  0  0  0  0
 34 35  1  0  0  0  0
 35 37  1  0  0  0  0
 37 36  1  0  0  0  0
M  END
>  <MODEL>
7

>  <REMARK>
 VINA RESULT:      -4.7      2.059      6.176
  Name = 
  21 active torsions:
  status: ('A' for Active; 'I' for Inactive)
    1  A    between atoms: C_1  and  O_17
    2  A    between atoms: C_1  and  C_26
    3  A    between atoms: C_2  and  C_19
    4  A    between atoms: C_2  and  C_35
    5  A    between atoms: C_3  and  C_32
    6  A    between atoms: P_4  and  O_10
    7  A    between atoms: P_4  and  C_13
    8  A    between atoms: C_5  and  O_17
    9  A    between atoms: C_5  and  O_23
   10  A    between atoms: C_6  and  C_31
   11  A    between atoms: C_6  and  C_35
   12  A    between atoms: C_7  and  C_14
   13  A    between atoms: C_7  and  O_27
   14  A    between atoms: O_10  and  C_14
   15  A    between atoms: C_11  and  C_36
   16  A    between atoms: C_13  and  C_16
   17  A    between atoms: C_13  and  C_20
   18  A    between atoms: C_14  and  C_31
   19  A    between atoms: C_20  and  C_25
   20  A    between atoms: C_25  and  C_32
   21  A    between atoms: O_27  and  N_33
                            x       y       z     vdW  Elec       q    Type
                         _______ _______ _______ _____ _____    ______ ____

>  <TORSDO>
F 21

$$$$
=
 OpenBabel11062409223D

 37 37  0  0  1  0  0  0  0  0999 V2000
  161.7960  209.6260  149.4390 C   0  0  2  0  0  3  0  0  0  0  0  0
  162.0930  208.1250  149.3920 C   0  0  2  0  0  3  0  0  0  0  0  0
  162.5150  207.7580  148.1120 O   0  0  0  0  0  1  0  0  0  0  0  0
  160.8870  207.2920  149.8160 C   0  0  0  0  0  2  0  0  0  0  0  0
  162.4820  206.7380  151.5160 O   0  0  0  0  0  1  0  0  0  0  0  0
  161.2210  206.4130  151.0130 C   0  0  2  0  0  3  0  0  0  0  0  0
  161.1860  204.9670  150.6260 C   0  0  0  0  0  0  0  0  0  0  0  0
  160.8410  204.6410  149.3820 C   0  0  0  0  0  2  0  0  0  0  0  0
  160.9880  202.5380  151.0760 C   0  0  0  0  0  1  0  0  0  0  0  0
  161.3140  203.8970  151.6670 C   0  0  0  0  0  2  0  0  0  0  0  0
  162.3410  210.2680  148.3200 O   0  0  0  0  0  0  0  0  0  0  0  0
  161.8280  211.8890  148.3880 P   0  0  2  0  0  0  0  0  0  0  0  0
  163.1640  212.9200  148.2620 O   0  0  0  0  0  0  0  0  0  0  0  0
  161.1720  212.1220  149.7300 O   0  0  0  0  0  1  0  0  0  0  0  0
  160.6130  212.2860  147.0740 C   0  0  1  0  0  3  0  0  0  0  0  0
  158.1310  212.9280  147.6600 C   0  0  0  0  0  1  0  0  0  0  0  0
  159.5810  213.2770  147.5480 C   0  0  0  0  0  0  0  0  0  0  0  0
  159.9820  214.4530  148.0260 C   0  0  0  0  0  2  0  0  0  0  0  0
  161.3220  212.7310  145.8010 C   0  0  0  0  0  2  0  0  0  0  0  0
  160.4030  212.5830  144.6010 C   0  0  0  0  0  2  0  0  0  0  0  0
  161.2130  212.3310  143.3420 C   0  0  0  0  0  2  0  0  0  0  0  0
  160.3250  211.7770  142.2420 C   0  0  0  0  0  2  0  0  0  0  0  0
  161.1910  211.2360  141.1240 C   0  0  0  0  0  1  0  0  0  0  0  0
  162.3350  210.2590  150.7180 C   0  0  0  0  0  2  0  0  0  0  0  0
  161.5210  209.9190  151.8020 O   0  0  0  0  0  0  0  0  0  0  0  0
  161.6590  210.2560  154.2170 C   0  0  0  0  0  0  0  0  0  0  0  0
  162.2120  210.3180  152.8980 N   0  0  0  0  0  2  0  0  0  0  0  0
  162.3350  210.6940  155.1840 O   0  0  0  0  0  0  0  0  0  0  0  0
  159.1850  210.8730  154.6060 C   0  0  2  0  0  3  0  0  0  0  0  0
  159.7480  210.1860  155.8300 C   0  0  0  0  0  2  0  0  0  0  0  0
  160.2520  209.7720  154.4580 C   0  0  2  0  0  3  0  0  0  0  0  0
  159.7000  212.3210  154.5410 C   0  0  2  0  0  3  0  0  0  0  0  0
  159.6300  213.0250  155.8920 C   0  0  0  0  0  1  0  0  0  0  0  0
  159.1090  213.0750  153.5010 O   0  0  0  0  0  0  0  0  0  0  0  0
  158.5890  212.1990  152.5320 C   0  0  0  0  0  2  0  0  0  0  0  0
  158.8850  214.1710  151.5930 C   0  0  0  0  0  1  0  0  0  0  0  0
  158.4230  212.8830  151.3270 O   0  0  0  0  0  0  0  0  0  0  0  0
  1 24  1  1  0  0  0
  2  3  1  6  0  0  0
  2  1  1  0  0  0  0
  2  4  1  0  0  0  0
  4  6  1  0  0  0  0
  6  5  1  6  0  0  0
  7  6  1  0  0  0  0
  7 10  1  0  0  0  0
  8  7  2  0  0  0  0
  9 10  1  0  0  0  0
 11 12  1  0  0  0  0
 11  1  1  0  0  0  0
 12 13  2  6  0  0  0
 12 14  1  0  0  0  0
 15 19  1  6  0  0  0
 15 17  1  0  0  0  0
 15 12  1  0  0  0  0
 17 16  1  0  0  0  0
 17 18  2  0  0  0  0
 20 19  1  0  0  0  0
 21 20  1  0  0  0  0
 22 21  1  0  0  0  0
 23 22  1  0  0  0  0
 24 25  1  0  0  0  0
 25 27  1  0  0  0  0
 26 28  2  0  0  0  0
 27 26  1  0  0  0  0
 29 32  1  1  0  0  0
 29 30  1  0  0  0  0
 31 26  1  1  0  0  0
 31 29  1  0  0  0  0
 31 30  1  0  0  0  0
 32 33  1  1  0  0  0
 34 32  1  0  0  0  0
 35 34  1  0  0  0  0
 37 36  1  0  0  0  0
 37 35  1  0  0  0  0
M  END
>  <MODEL>
8

>  <REMARK>
 VINA RESULT:      -4.6      2.431      7.745
  Name = 
  21 active torsions:
  status: ('A' for Active; 'I' for Inactive)
    1  A    between atoms: C_1  and  O_17
    2  A    between atoms: C_1  and  C_26
    3  A    between atoms: C_2  and  C_19
    4  A    between atoms: C_2  and  C_35
    5  A    between atoms: C_3  and  C_32
    6  A    between atoms: P_4  and  O_10
    7  A    between atoms: P_4  and  C_13
    8  A    between atoms: C_5  and  O_17
    9  A    between atoms: C_5  and  O_23
   10  A    between atoms: C_6  and  C_31
   11  A    between atoms: C_6  and  C_35
   12  A    between atoms: C_7  and  C_14
   13  A    between atoms: C_7  and  O_27
   14  A    between atoms: O_10  and  C_14
   15  A    between atoms: C_11  and  C_36
   16  A    between atoms: C_13  and  C_16
   17  A    between atoms: C_13  and  C_20
   18  A    between atoms: C_14  and  C_31
   19  A    between atoms: C_20  and  C_25
   20  A    between atoms: C_25  and  C_32
   21  A    between atoms: O_27  and  N_33
                            x       y       z     vdW  Elec       q    Type
                         _______ _______ _______ _____ _____    ______ ____

>  <TORSDO>
F 21

$$$$
=
 OpenBabel11062409223D

 37 37  0  0  1  0  0  0  0  0999 V2000
  161.4240  206.2980  150.8250 C   0  0  2  0  0  3  0  0  0  0  0  0
  160.8160  204.9600  151.2540 C   0  0  2  0  0  3  0  0  0  0  0  0
  161.2360  204.6330  152.5450 O   0  0  0  0  0  1  0  0  0  0  0  0
  161.1620  203.8380  150.2790 C   0  0  0  0  0  2  0  0  0  0  0  0
  161.9200  202.0110  151.6300 O   0  0  0  0  0  1  0  0  0  0  0  0
  160.8410  202.4750  150.8750 C   0  0  2  0  0  3  0  0  0  0  0  0
  160.5190  201.4930  149.7920 C   0  0  0  0  0  0  0  0  0  0  0  0
  159.2530  201.3560  149.4010 C   0  0  0  0  0  2  0  0  0  0  0  0
  161.5340  200.4310  147.7960 C   0  0  0  0  0  1  0  0  0  0  0  0
  161.5540  200.5230  149.3100 C   0  0  0  0  0  2  0  0  0  0  0  0
  162.2450  206.1250  149.7030 O   0  0  0  0  0  0  0  0  0  0  0  0
  161.5000  206.9560  148.4190 P   0  0  2  0  0  0  0  0  0  0  0  0
  161.9790  208.5790  148.4310 O   0  0  0  0  0  0  0  0  0  0  0  0
  160.0030  206.9000  148.6240 O   0  0  0  0  0  1  0  0  0  0  0  0
  161.8900  206.2070  146.7920 C   0  0  1  0  0  3  0  0  0  0  0  0
  161.9400  203.6930  147.5650 C   0  0  0  0  0  1  0  0  0  0  0  0
  162.5970  204.8840  146.9420 C   0  0  0  0  0  0  0  0  0  0  0  0
  163.7880  204.7160  146.3700 C   0  0  0  0  0  2  0  0  0  0  0  0
  160.6380  206.1150  145.9280 C   0  0  0  0  0  2  0  0  0  0  0  0
  160.9730  205.5250  144.5690 C   0  0  0  0  0  2  0  0  0  0  0  0
  160.1100  204.3080  144.2920 C   0  0  0  0  0  2  0  0  0  0  0  0
  160.7130  203.0720  144.9330 C   0  0  0  0  0  2  0  0  0  0  0  0
  159.7060  201.9410  144.8880 C   0  0  0  0  0  1  0  0  0  0  0  0
  162.2180  206.9370  151.9600 C   0  0  0  0  0  2  0  0  0  0  0  0
  161.5860  208.1060  152.3910 O   0  0  0  0  0  0  0  0  0  0  0  0
  160.8310  208.6120  154.6570 C   0  0  0  0  0  0  0  0  0  0  0  0
  160.9200  207.7510  153.5160 N   0  0  0  0  0  2  0  0  0  0  0  0
  160.2430  208.1970  155.6900 O   0  0  0  0  0  0  0  0  0  0  0  0
  160.5830  211.1730  154.4830 C   0  0  2  0  0  3  0  0  0  0  0  0
  161.4180  210.6520  153.3340 C   0  0  0  0  0  2  0  0  0  0  0  0
  161.5080  209.9580  154.6820 C   0  0  2  0  0  3  0  0  0  0  0  0
  159.1000  210.8540  154.2320 C   0  0  2  0  0  3  0  0  0  0  0  0
  158.5730  211.5000  152.9540 C   0  0  0  0  0  1  0  0  0  0  0  0
  158.2780  211.1130  155.3530 O   0  0  0  0  0  0  0  0  0  0  0  0
  157.0830  211.7150  154.9220 C   0  0  0  0  0  2  0  0  0  0  0  0
  157.1060  212.5470  156.9640 C   0  0  0  0  0  1  0  0  0  0  0  0
  156.2620  211.9590  156.0230 O   0  0  0  0  0  0  0  0  0  0  0  0
  1  2  1  0  0  0  0
  1 24  1  1  0  0  0
  2  3  1  1  0  0  0
  4  6  1  0  0  0  0
  4  2  1  0  0  0  0
  6  5  1  6  0  0  0
  7  6  1  0  0  0  0
  8  7  2  0  0  0  0
  9 10  1  0  0  0  0
 10  7  1  0  0  0  0
 11  1  1  0  0  0  0
 12 13  2  1  0  0  0
 12 14  1  0  0  0  0
 12 11  1  0  0  0  0
 15 19  1  1  0  0  0
 15 17  1  0  0  0  0
 15 12  1  0  0  0  0
 17 16  1  0  0  0  0
 18 17  2  0  0  0  0
 20 19  1  0  0  0  0
 21 20  1  0  0  0  0
 21 22  1  0  0  0  0
 23 22  1  0  0  0  0
 24 25  1  0  0  0  0
 25 27  1  0  0  0  0
 26 28  2  0  0  0  0
 27 26  1  0  0  0  0
 29 32  1  6  0  0  0
 29 31  1  0  0  0  0
 30 29  1  0  0  0  0
 30 31  1  0  0  0  0
 31 26  1  6  0  0  0
 32 33  1  6  0  0  0
 32 34  1  0  0  0  0
 35 34  1  0  0  0  0
 35 37  1  0  0  0  0
 37 36  1  0  0  0  0
M  END
>  <MODEL>
9

>  <REMARK>
 VINA RESULT:      -4.5      3.786      7.248
  Name = 
  21 active torsions:
  status: ('A' for Active; 'I' for Inactive)
    1  A    between atoms: C_1  and  O_17
    2  A    between atoms: C_1  and  C_26
    3  A    between atoms: C_2  and  C_19
    4  A    between atoms: C_2  and  C_35
    5  A    between atoms: C_3  and  C_32
    6  A    between atoms: P_4  and  O_10
    7  A    between atoms: P_4  and  C_13
    8  A    between atoms: C_5  and  O_17
    9  A    between atoms: C_5  and  O_23
   10  A    between atoms: C_6  and  C_31
   11  A    between atoms: C_6  and  C_35
   12  A    between atoms: C_7  and  C_14
   13  A    between atoms: C_7  and  O_27
   14  A    between atoms: O_10  and  C_14
   15  A    between atoms: C_11  and  C_36
   16  A    between atoms: C_13  and  C_16
   17  A    between atoms: C_13  and  C_20
   18  A    between atoms: C_14  and  C_31
   19  A    between atoms: C_20  and  C_25
   20  A    between atoms: C_25  and  C_32
   21  A    between atoms: O_27  and  N_33
                            x       y       z     vdW  Elec       q    Type
                         _______ _______ _______ _____ _____    ______ ____

>  <TORSDO>
F 21

$$$$
