=
 OpenBabel11062409413D

 34 39  0  0  1  0  0  0  0  0999 V2000
  161.6240  204.5350  148.2570 C   0  0  0  0  0  0  0  0  0  0  0  0
  160.1400  203.7780  145.3880 C   0  0  0  0  0  2  0  0  0  0  0  0
  161.5350  202.2020  146.6450 N   0  0  0  0  0  2  0  0  0  0  0  0
  160.9260  204.3880  150.9180 N   0  0  0  0  0  0  0  0  0  0  0  0
  161.6540  205.6370  149.0570 N   0  0  0  0  0  0  0  0  0  0  0  0
  160.9010  203.2530  150.1750 C   0  0  0  0  0  0  0  0  0  0  0  0
  160.5540  200.8640  149.9880 C   0  0  0  0  0  3  0  0  0  0  0  0
  160.5550  202.0320  150.7580 C   0  0  0  0  0  3  0  0  0  0  0  0
  161.2950  205.5790  150.3700 C   0  0  0  0  0  0  0  0  0  0  0  0
  161.2240  202.1360  148.0370 C   0  0  0  0  0  0  0  0  0  0  0  0
  161.2450  203.3040  148.8120 C   0  0  0  0  0  0  0  0  0  0  0  0
  160.8900  200.9140  148.6290 C   0  0  0  0  0  3  0  0  0  0  0  0
  160.0700  204.9750  144.4270 C   0  0  0  0  0  2  0  0  0  0  0  0
  161.4250  205.3340  143.8110 C   0  0  2  0  0  3  0  0  0  0  0  0
  162.3330  206.1310  144.7660 C   0  0  0  0  0  2  0  0  0  0  0  0
  161.5440  203.4810  145.9380 C   0  0  2  0  0  3  0  0  0  0  0  0
  161.9530  206.0200  146.2460 C   0  0  0  0  0  2  0  0  0  0  0  0
  162.1270  204.6100  146.8300 C   0  0  1  0  0  3  0  0  0  0  0  0
  161.7100  209.2200  151.3940 C   0  0  0  0  0  3  0  0  0  0  0  0
  160.9940  206.7330  152.5700 C   0  0  0  0  0  3  0  0  0  0  0  0
  160.9830  209.5380  154.7870 C   0  0  0  0  0  0  0  0  0  0  0  0
  161.3450  210.0740  153.6340 O   0  0  0  0  0  0  0  0  0  0  0  0
  161.3800  209.1130  152.7420 C   0  0  0  0  0  0  0  0  0  0  0  0
  160.7740  208.1670  154.6330 C   0  0  0  0  0  0  0  0  0  0  0  0
  161.0350  207.9140  153.3070 C   0  0  0  0  0  0  0  0  0  0  0  0
  160.3580  207.1750  155.6660 C   0  0  0  0  0  1  0  0  0  0  0  0
  161.3220  206.7990  151.1990 C   0  0  0  0  0  0  0  0  0  0  0  0
  161.6770  208.0440  150.6220 C   0  0  0  0  0  3  0  0  0  0  0  0
  160.8370  210.3200  156.0230 C   0  0  0  0  0  0  0  0  0  0  0  0
  161.8490  210.7630  156.6280 O   0  0  0  0  0  1  0  0  0  0  0  0
  159.5700  210.5760  156.5290 O   0  0  0  0  0  0  0  0  0  0  0  0
  161.2200  206.0930  142.5890 N   0  0  0  0  0  2  0  0  0  0  0  0
  162.3960  205.8950  141.7600 C   0  0  0  0  0  2  0  0  0  0  0  0
  162.2820  206.7460  140.5130 C   0  0  0  0  0  1  0  0  0  0  0  0
  1 11  1  0  0  0  0
  1  5  2  0  0  0  0
  3 10  1  0  0  0  0
  5  9  1  0  0  0  0
  6  8  1  0  0  0  0
  6  4  1  0  0  0  0
  7  8  2  0  0  0  0
  9  4  2  0  0  0  0
  9 27  1  0  0  0  0
 10 12  2  0  0  0  0
 10 11  1  0  0  0  0
 11  6  2  0  0  0  0
 12  7  1  0  0  0  0
 13  2  1  0  0  0  0
 14 32  1  6  0  0  0
 14 13  1  0  0  0  0
 14 15  1  0  0  0  0
 15 17  1  0  0  0  0
 16  2  1  1  0  0  0
 16  3  1  0  0  0  0
 16 18  1  0  0  0  0
 18 17  1  6  0  0  0
 18  1  1  0  0  0  0
 19 23  1  0  0  0  0
 20 25  1  0  0  0  0
 21 29  1  0  0  0  0
 22 21  1  0  0  0  0
 23 25  2  0  0  0  0
 23 22  1  0  0  0  0
 24 21  2  0  0  0  0
 24 26  1  0  0  0  0
 25 24  1  0  0  0  0
 27 20  2  0  0  0  0
 28 27  1  0  0  0  0
 28 19  2  0  0  0  0
 29 31  2  0  0  0  0
 29 30  1  0  0  0  0
 33 32  1  0  0  0  0
 34 33  1  0  0  0  0
M  END
>  <MODEL>
1

>  <REMARK>
 VINA RESULT:      -7.7      0.000      0.000
  Name = 
  4 active torsions:
  status: ('A' for Active; 'I' for Inactive)
    1  A    between atoms: N_3  and  C_13
    2  A    between atoms: N_3  and  C_25
    3  A    between atoms: C_7  and  C_11
    4  A    between atoms: C_18  and  C_30
                            x       y       z     vdW  Elec       q    Type
                         _______ _______ _______ _____ _____    ______ ____

>  <TORSDO>
F 4

$$$$
=
 OpenBabel11062409413D

 34 39  0  0  1  0  0  0  0  0999 V2000
  161.6670  208.2970  151.3780 C   0  0  0  0  0  0  0  0  0  0  0  0
  159.9850  210.4160  153.2980 C   0  0  0  0  0  2  0  0  0  0  0  0
  162.0150  211.0260  152.0670 N   0  0  0  0  0  2  0  0  0  0  0  0
  161.5630  207.5550  148.7270 N   0  0  0  0  0  0  0  0  0  0  0  0
  161.4990  206.9950  151.0150 N   0  0  0  0  0  0  0  0  0  0  0  0
  161.7580  208.8640  149.0300 C   0  0  0  0  0  0  0  0  0  0  0  0
  162.1520  211.1510  148.3390 C   0  0  0  0  0  3  0  0  0  0  0  0
  161.9300  209.8080  148.0150 C   0  0  0  0  0  3  0  0  0  0  0  0
  161.4290  206.6190  149.7070 C   0  0  0  0  0  0  0  0  0  0  0  0
  162.0080  210.6170  150.6990 C   0  0  0  0  0  0  0  0  0  0  0  0
  161.8060  209.2680  150.3770 C   0  0  0  0  0  0  0  0  0  0  0  0
  162.1930  211.5560  149.6790 C   0  0  0  0  0  3  0  0  0  0  0  0
  159.3630  209.7320  154.5250 C   0  0  0  0  0  2  0  0  0  0  0  0
  160.3940  209.3450  155.5890 C   0  0  2  0  0  3  0  0  0  0  0  0
  161.1680  208.0600  155.2420 C   0  0  0  0  0  2  0  0  0  0  0  0
  161.4880  210.1540  153.1130 C   0  0  2  0  0  3  0  0  0  0  0  0
  161.1270  207.6720  153.7610 C   0  0  0  0  0  2  0  0  0  0  0  0
  161.8430  208.6690  152.8360 C   0  0  1  0  0  3  0  0  0  0  0  0
  160.6910  202.9020  150.0430 C   0  0  0  0  0  3  0  0  0  0  0  0
  161.3660  204.7760  148.0150 C   0  0  0  0  0  3  0  0  0  0  0  0
  160.9270  201.4060  146.9040 C   0  0  0  0  0  0  0  0  0  0  0  0
  160.7000  201.3210  148.2040 O   0  0  0  0  0  0  0  0  0  0  0  0
  160.8380  202.5230  148.7120 C   0  0  0  0  0  0  0  0  0  0  0  0
  161.2270  202.7240  146.5560 C   0  0  0  0  0  0  0  0  0  0  0  0
  161.1640  203.4260  147.7370 C   0  0  0  0  0  0  0  0  0  0  0  0
  161.5470  203.2720  145.2070 C   0  0  0  0  0  1  0  0  0  0  0  0
  161.2260  205.2010  149.3540 C   0  0  0  0  0  0  0  0  0  0  0  0
  160.8880  204.2590  150.3580 C   0  0  0  0  0  3  0  0  0  0  0  0
  160.8610  200.2480  146.0030 C   0  0  0  0  0  0  0  0  0  0  0  0
  161.5880  199.2380  146.1960 O   0  0  0  0  0  1  0  0  0  0  0  0
  159.9860  200.2640  144.9250 O   0  0  0  0  0  0  0  0  0  0  0  0
  159.7350  209.1860  156.8730 N   0  0  0  0  0  2  0  0  0  0  0  0
  159.2320  210.4920  157.2610 C   0  0  0  0  0  2  0  0  0  0  0  0
  160.3690  211.4920  157.2510 C   0  0  0  0  0  1  0  0  0  0  0  0
  1 18  1  0  0  0  0
  2 13  1  0  0  0  0
  3 16  1  0  0  0  0
  4  6  1  0  0  0  0
  4  9  2  0  0  0  0
  5  1  2  0  0  0  0
  6 11  1  0  0  0  0
  7 12  2  0  0  0  0
  8  7  1  0  0  0  0
  8  6  2  0  0  0  0
  9  5  1  0  0  0  0
 10  3  1  0  0  0  0
 11 10  2  0  0  0  0
 11  1  1  0  0  0  0
 12 10  1  0  0  0  0
 13 14  1  0  0  0  0
 14 32  1  1  0  0  0
 15 14  1  0  0  0  0
 16  2  1  6  0  0  0
 17 15  1  0  0  0  0
 18 16  1  0  0  0  0
 18 17  1  1  0  0  0
 19 28  1  0  0  0  0
 20 27  1  0  0  0  0
 21 22  1  0  0  0  0
 22 23  1  0  0  0  0
 23 19  2  0  0  0  0
 24 21  2  0  0  0  0
 24 25  1  0  0  0  0
 25 20  2  0  0  0  0
 25 23  1  0  0  0  0
 26 24  1  0  0  0  0
 27  9  1  0  0  0  0
 27 28  2  0  0  0  0
 29 30  1  0  0  0  0
 29 21  1  0  0  0  0
 31 29  2  0  0  0  0
 32 33  1  0  0  0  0
 34 33  1  0  0  0  0
M  END
>  <MODEL>
2

>  <REMARK>
 VINA RESULT:      -7.7      4.320     10.069
  Name = 
  4 active torsions:
  status: ('A' for Active; 'I' for Inactive)
    1  A    between atoms: N_3  and  C_13
    2  A    between atoms: N_3  and  C_25
    3  A    between atoms: C_7  and  C_11
    4  A    between atoms: C_18  and  C_30
                            x       y       z     vdW  Elec       q    Type
                         _______ _______ _______ _____ _____    ______ ____

>  <TORSDO>
F 4

$$$$
=
 OpenBabel11062409413D

 34 39  0  0  1  0  0  0  0  0999 V2000
  159.8680  210.9670  154.2090 C   0  0  0  0  0  0  0  0  0  0  0  0
  158.6820  213.8960  155.2200 C   0  0  0  0  0  2  0  0  0  0  0  0
  159.5390  212.1840  156.7500 N   0  0  0  0  0  2  0  0  0  0  0  0
  162.3400  210.0130  153.4560 N   0  0  0  0  0  0  0  0  0  0  0  0
  160.0590  210.3800  152.9950 N   0  0  0  0  0  0  0  0  0  0  0  0
  162.2030  210.5670  154.6880 C   0  0  0  0  0  0  0  0  0  0  0  0
  163.1320  211.1760  156.8400 C   0  0  0  0  0  3  0  0  0  0  0  0
  163.2900  210.6230  155.5640 C   0  0  0  0  0  3  0  0  0  0  0  0
  161.2810  209.9200  152.6050 C   0  0  0  0  0  0  0  0  0  0  0  0
  160.8010  211.6400  156.3630 C   0  0  0  0  0  0  0  0  0  0  0  0
  160.9520  211.0680  155.0920 C   0  0  0  0  0  0  0  0  0  0  0  0
  161.8890  211.6820  157.2410 C   0  0  0  0  0  3  0  0  0  0  0  0
  157.5230  214.3970  154.3440 C   0  0  0  0  0  2  0  0  0  0  0  0
  156.2220  213.6190  154.5610 C   0  0  2  0  0  3  0  0  0  0  0  0
  156.2020  212.2580  153.8420 C   0  0  0  0  0  2  0  0  0  0  0  0
  158.5070  212.4670  155.7560 C   0  0  2  0  0  3  0  0  0  0  0  0
  157.5850  211.7230  153.4530 C   0  0  0  0  0  2  0  0  0  0  0  0
  158.4780  211.3750  154.6530 C   0  0  1  0  0  3  0  0  0  0  0  0
  162.0760  209.5250  148.9060 C   0  0  0  0  0  3  0  0  0  0  0  0
  161.1630  207.9390  151.0820 C   0  0  0  0  0  3  0  0  0  0  0  0
  161.4950  206.2210  147.9630 C   0  0  0  0  0  0  0  0  0  0  0  0
  161.8690  207.4530  147.6640 O   0  0  0  0  0  0  0  0  0  0  0  0
  161.7810  208.1730  148.7570 C   0  0  0  0  0  0  0  0  0  0  0  0
  161.1490  206.1410  149.3130 C   0  0  0  0  0  0  0  0  0  0  0  0
  161.3410  207.4110  149.8050 C   0  0  0  0  0  0  0  0  0  0  0  0
  160.6750  204.9510  150.0750 C   0  0  0  0  0  1  0  0  0  0  0  0
  161.4510  209.3070  151.2740 C   0  0  0  0  0  0  0  0  0  0  0  0
  161.9060  210.0890  150.1840 C   0  0  0  0  0  3  0  0  0  0  0  0
  161.4660  205.1310  146.9790 C   0  0  0  0  0  0  0  0  0  0  0  0
  160.8470  205.2620  145.8900 O   0  0  0  0  0  0  0  0  0  0  0  0
  162.1290  203.9420  147.2490 O   0  0  0  0  0  1  0  0  0  0  0  0
  155.0950  214.4210  154.1180 N   0  0  0  0  0  2  0  0  0  0  0  0
  154.5590  213.7830  152.9280 C   0  0  0  0  0  2  0  0  0  0  0  0
  155.1320  214.4530  151.6960 C   0  0  0  0  0  1  0  0  0  0  0  0
  1 18  1  0  0  0  0
  1 11  1  0  0  0  0
  4  6  1  0  0  0  0
  5  1  2  0  0  0  0
  6 11  2  0  0  0  0
  6  8  1  0  0  0  0
  7 12  1  0  0  0  0
  8  7  2  0  0  0  0
  9  5  1  0  0  0  0
  9  4  2  0  0  0  0
 10  3  1  0  0  0  0
 10 12  2  0  0  0  0
 11 10  1  0  0  0  0
 13 14  1  0  0  0  0
 13  2  1  0  0  0  0
 14 32  1  6  0  0  0
 15 14  1  0  0  0  0
 16  2  1  6  0  0  0
 16  3  1  0  0  0  0
 17 15  1  0  0  0  0
 18 17  1  6  0  0  0
 18 16  1  0  0  0  0
 19 28  1  0  0  0  0
 20 27  1  0  0  0  0
 21 24  2  0  0  0  0
 22 21  1  0  0  0  0
 22 23  1  0  0  0  0
 23 19  2  0  0  0  0
 23 25  1  0  0  0  0
 24 25  1  0  0  0  0
 24 26  1  0  0  0  0
 25 20  2  0  0  0  0
 27  9  1  0  0  0  0
 28 27  2  0  0  0  0
 29 31  1  0  0  0  0
 29 21  1  0  0  0  0
 30 29  2  0  0  0  0
 33 32  1  0  0  0  0
 34 33  1  0  0  0  0
M  END
>  <MODEL>
3

>  <REMARK>
 VINA RESULT:      -7.0      5.004     10.418
  Name = 
  4 active torsions:
  status: ('A' for Active; 'I' for Inactive)
    1  A    between atoms: N_3  and  C_13
    2  A    between atoms: N_3  and  C_25
    3  A    between atoms: C_7  and  C_11
    4  A    between atoms: C_18  and  C_30
                            x       y       z     vdW  Elec       q    Type
                         _______ _______ _______ _____ _____    ______ ____

>  <TORSDO>
F 4

$$$$
=
 OpenBabel11062409413D

 34 39  0  0  1  0  0  0  0  0999 V2000
  161.8540  208.2480  150.5850 C   0  0  0  0  0  0  0  0  0  0  0  0
  160.1620  209.3610  153.2130 C   0  0  0  0  0  2  0  0  0  0  0  0
  162.0270  210.5800  152.1910 N   0  0  0  0  0  2  0  0  0  0  0  0
  161.5970  208.4810  147.8520 N   0  0  0  0  0  0  0  0  0  0  0  0
  161.7660  207.1470  149.7870 N   0  0  0  0  0  0  0  0  0  0  0  0
  161.7050  209.6120  148.5950 C   0  0  0  0  0  0  0  0  0  0  0  0
  161.8490  212.0240  148.7530 C   0  0  0  0  0  3  0  0  0  0  0  0
  161.7150  210.8660  147.9790 C   0  0  0  0  0  3  0  0  0  0  0  0
  161.6210  207.2510  148.4360 C   0  0  0  0  0  0  0  0  0  0  0  0
  161.9430  210.6810  150.7680 C   0  0  0  0  0  0  0  0  0  0  0  0
  161.8290  209.5180  149.9930 C   0  0  0  0  0  0  0  0  0  0  0  0
  161.9650  211.9330  150.1460 C   0  0  0  0  0  3  0  0  0  0  0  0
  159.7010  208.2270  154.1410 C   0  0  0  0  0  2  0  0  0  0  0  0
  160.8450  207.6030  154.9460 C   0  0  2  0  0  3  0  0  0  0  0  0
  161.6920  206.6130  154.1260 C   0  0  0  0  0  2  0  0  0  0  0  0
  161.6620  209.3440  152.8770 C   0  0  2  0  0  3  0  0  0  0  0  0
  161.5640  206.7700  152.6070 C   0  0  0  0  0  2  0  0  0  0  0  0
  162.1160  208.0990  152.0700 C   0  0  1  0  0  3  0  0  0  0  0  0
  161.3860  204.9890  145.3870 C   0  0  0  0  0  3  0  0  0  0  0  0
  161.4240  204.7670  148.2200 C   0  0  0  0  0  3  0  0  0  0  0  0
  161.1500  201.6760  146.4420 C   0  0  0  0  0  0  0  0  0  0  0  0
  161.2000  202.5730  145.4710 O   0  0  0  0  0  0  0  0  0  0  0  0
  161.3020  203.7570  146.0270 C   0  0  0  0  0  0  0  0  0  0  0  0
  161.2230  202.3110  147.6830 C   0  0  0  0  0  0  0  0  0  0  0  0
  161.3210  203.6510  147.3920 C   0  0  0  0  0  0  0  0  0  0  0  0
  161.2020  201.6900  149.0390 C   0  0  0  0  0  1  0  0  0  0  0  0
  161.5100  206.0350  147.6080 C   0  0  0  0  0  0  0  0  0  0  0  0
  161.4910  206.1360  146.1940 C   0  0  0  0  0  3  0  0  0  0  0  0
  161.0330  200.2330  146.1930 C   0  0  0  0  0  0  0  0  0  0  0  0
  161.5690  199.4000  146.9710 O   0  0  0  0  0  1  0  0  0  0  0  0
  160.3230  199.7800  145.0900 O   0  0  0  0  0  0  0  0  0  0  0  0
  160.3080  206.9320  156.1160 N   0  0  0  0  0  2  0  0  0  0  0  0
  161.0800  207.3830  157.2600 C   0  0  0  0  0  2  0  0  0  0  0  0
  161.6430  208.7600  156.9760 C   0  0  0  0  0  1  0  0  0  0  0  0
  1 18  1  0  0  0  0
  2 13  1  0  0  0  0
  3 16  1  0  0  0  0
  4  9  2  0  0  0  0
  4  6  1  0  0  0  0
  5  1  2  0  0  0  0
  6 11  1  0  0  0  0
  7 12  2  0  0  0  0
  8  6  2  0  0  0  0
  8  7  1  0  0  0  0
  9  5  1  0  0  0  0
 10  3  1  0  0  0  0
 11  1  1  0  0  0  0
 11 10  2  0  0  0  0
 12 10  1  0  0  0  0
 13 14  1  0  0  0  0
 14 32  1  1  0  0  0
 15 14  1  0  0  0  0
 16  2  1  6  0  0  0
 17 15  1  0  0  0  0
 18 17  1  1  0  0  0
 18 16  1  0  0  0  0
 19 23  2  0  0  0  0
 19 28  1  0  0  0  0
 21 24  2  0  0  0  0
 22 23  1  0  0  0  0
 22 21  1  0  0  0  0
 23 25  1  0  0  0  0
 24 26  1  0  0  0  0
 25 24  1  0  0  0  0
 25 20  2  0  0  0  0
 27 20  1  0  0  0  0
 27  9  1  0  0  0  0
 28 27  2  0  0  0  0
 29 21  1  0  0  0  0
 29 30  1  0  0  0  0
 31 29  2  0  0  0  0
 32 33  1  0  0  0  0
 34 33  1  0  0  0  0
M  END
>  <MODEL>
4

>  <REMARK>
 VINA RESULT:      -6.6      4.444      9.800
  Name = 
  4 active torsions:
  status: ('A' for Active; 'I' for Inactive)
    1  A    between atoms: N_3  and  C_13
    2  A    between atoms: N_3  and  C_25
    3  A    between atoms: C_7  and  C_11
    4  A    between atoms: C_18  and  C_30
                            x       y       z     vdW  Elec       q    Type
                         _______ _______ _______ _____ _____    ______ ____

>  <TORSDO>
F 4

$$$$
=
 OpenBabel11062409413D

 34 39  0  0  1  0  0  0  0  0999 V2000
  161.9630  208.7150  150.0120 C   0  0  0  0  0  0  0  0  0  0  0  0
  160.3770  205.8470  150.5230 C   0  0  0  0  0  2  0  0  0  0  0  0
  161.8470  206.8920  152.1820 N   0  0  0  0  0  2  0  0  0  0  0  0
  161.3760  211.3750  150.4240 N   0  0  0  0  0  0  0  0  0  0  0  0
  162.0080  209.6150  148.9900 N   0  0  0  0  0  0  0  0  0  0  0  0
  161.3400  210.5280  151.4840 C   0  0  0  0  0  0  0  0  0  0  0  0
  161.0260  210.1280  153.8510 C   0  0  0  0  0  3  0  0  0  0  0  0
  161.0390  211.0060  152.7620 C   0  0  0  0  0  3  0  0  0  0  0  0
  161.7030  210.9300  149.1790 C   0  0  0  0  0  0  0  0  0  0  0  0
  161.5950  208.2830  152.3860 C   0  0  0  0  0  0  0  0  0  0  0  0
  161.6280  209.1640  151.2960 C   0  0  0  0  0  0  0  0  0  0  0  0
  161.3050  208.7680  153.6660 C   0  0  0  0  0  3  0  0  0  0  0  0
  160.2470  205.0080  149.2420 C   0  0  0  0  0  2  0  0  0  0  0  0
  161.5700  204.3770  148.7980 C   0  0  2  0  0  3  0  0  0  0  0  0
  162.5020  205.3680  148.0770 C   0  0  0  0  0  2  0  0  0  0  0  0
  161.8060  206.3110  150.8420 C   0  0  2  0  0  3  0  0  0  0  0  0
  162.1850  206.8440  148.3360 C   0  0  0  0  0  2  0  0  0  0  0  0
  162.4060  207.2830  149.7910 C   0  0  1  0  0  3  0  0  0  0  0  0
  162.5680  213.9650  147.0550 C   0  0  0  0  0  3  0  0  0  0  0  0
  161.0160  211.5910  146.8660 C   0  0  0  0  0  3  0  0  0  0  0  0
  160.9510  213.7000  143.9790 C   0  0  0  0  0  0  0  0  0  0  0  0
  161.7460  214.3560  144.8070 O   0  0  0  0  0  0  0  0  0  0  0  0
  161.8360  213.6550  145.9130 C   0  0  0  0  0  0  0  0  0  0  0  0
  160.5070  212.5200  144.5770 C   0  0  0  0  0  0  0  0  0  0  0  0
  161.0890  212.5110  145.8220 C   0  0  0  0  0  0  0  0  0  0  0  0
  159.5990  211.4830  144.0080 C   0  0  0  0  0  1  0  0  0  0  0  0
  161.7430  211.8700  148.0420 C   0  0  0  0  0  0  0  0  0  0  0  0
  162.5150  213.0560  148.1270 C   0  0  0  0  0  3  0  0  0  0  0  0
  160.6170  214.1890  142.6340 C   0  0  0  0  0  0  0  0  0  0  0  0
  161.5170  214.3730  141.7730 O   0  0  0  0  0  0  0  0  0  0  0  0
  159.2940  214.4490  142.3060 O   0  0  0  0  0  1  0  0  0  0  0  0
  161.3020  203.2420  147.9320 N   0  0  0  0  0  2  0  0  0  0  0  0
  160.6030  202.2500  148.7310 C   0  0  0  0  0  2  0  0  0  0  0  0
  161.1840  200.8800  148.4530 C   0  0  0  0  0  1  0  0  0  0  0  0
  1 11  1  0  0  0  0
  3 10  1  0  0  0  0
  4  6  1  0  0  0  0
  5  9  1  0  0  0  0
  5  1  2  0  0  0  0
  6  8  1  0  0  0  0
  8  7  2  0  0  0  0
  9  4  2  0  0  0  0
 10 12  2  0  0  0  0
 11  6  2  0  0  0  0
 11 10  1  0  0  0  0
 12  7  1  0  0  0  0
 13  2  1  0  0  0  0
 14 32  1  6  0  0  0
 14 13  1  0  0  0  0
 15 17  1  0  0  0  0
 15 14  1  0  0  0  0
 16  2  1  6  0  0  0
 16  3  1  0  0  0  0
 18 17  1  6  0  0  0
 18  1  1  0  0  0  0
 18 16  1  0  0  0  0
 19 28  1  0  0  0  0
 20 27  1  0  0  0  0
 21 24  2  0  0  0  0
 21 22  1  0  0  0  0
 22 23  1  0  0  0  0
 23 19  2  0  0  0  0
 24 25  1  0  0  0  0
 25 23  1  0  0  0  0
 25 20  2  0  0  0  0
 26 24  1  0  0  0  0
 27 28  2  0  0  0  0
 27  9  1  0  0  0  0
 29 21  1  0  0  0  0
 30 29  2  0  0  0  0
 31 29  1  0  0  0  0
 32 33  1  0  0  0  0
 34 33  1  0  0  0  0
M  END
>  <MODEL>
5

>  <REMARK>
 VINA RESULT:      -6.3      5.171      8.403
  Name = 
  4 active torsions:
  status: ('A' for Active; 'I' for Inactive)
    1  A    between atoms: N_3  and  C_13
    2  A    between atoms: N_3  and  C_25
    3  A    between atoms: C_7  and  C_11
    4  A    between atoms: C_18  and  C_30
                            x       y       z     vdW  Elec       q    Type
                         _______ _______ _______ _____ _____    ______ ____

>  <TORSDO>
F 4

$$$$
=
 OpenBabel11062409413D

 34 39  0  0  1  0  0  0  0  0999 V2000
  159.9080  210.3500  153.9880 C   0  0  0  0  0  0  0  0  0  0  0  0
  160.0060  213.5560  153.1370 C   0  0  0  0  0  2  0  0  0  0  0  0
  159.7600  212.7780  155.4480 N   0  0  0  0  0  2  0  0  0  0  0  0
  161.7810  208.4510  154.6730 N   0  0  0  0  0  0  0  0  0  0  0  0
  160.0050  209.1760  153.3050 N   0  0  0  0  0  0  0  0  0  0  0  0
  161.7130  209.5920  155.4050 C   0  0  0  0  0  0  0  0  0  0  0  0
  162.4650  210.9530  157.2610 C   0  0  0  0  0  3  0  0  0  0  0  0
  162.5590  209.7820  156.5000 C   0  0  0  0  0  3  0  0  0  0  0  0
  160.9400  208.2360  153.6240 C   0  0  0  0  0  0  0  0  0  0  0  0
  160.6920  211.7610  155.8200 C   0  0  0  0  0  0  0  0  0  0  0  0
  160.7700  210.5800  155.0680 C   0  0  0  0  0  0  0  0  0  0  0  0
  161.5320  211.9410  156.9230 C   0  0  0  0  0  3  0  0  0  0  0  0
  159.3450  213.8250  151.7760 C   0  0  0  0  0  2  0  0  0  0  0  0
  157.8180  213.7220  151.8170 C   0  0  2  0  0  3  0  0  0  0  0  0
  157.3080  212.2690  151.7980 C   0  0  0  0  0  2  0  0  0  0  0  0
  159.1320  212.7740  154.1300 C   0  0  2  0  0  3  0  0  0  0  0  0
  158.3490  211.2230  152.2080 C   0  0  0  0  0  2  0  0  0  0  0  0
  158.7940  211.3290  153.6740 C   0  0  1  0  0  3  0  0  0  0  0  0
  161.2050  204.5340  152.7940 C   0  0  0  0  0  3  0  0  0  0  0  0
  161.0120  207.0240  151.4370 C   0  0  0  0  0  3  0  0  0  0  0  0
  161.2070  204.1400  149.3320 C   0  0  0  0  0  0  0  0  0  0  0  0
  161.2540  203.6230  150.5470 O   0  0  0  0  0  0  0  0  0  0  0  0
  161.1890  204.6140  151.4050 C   0  0  0  0  0  0  0  0  0  0  0  0
  161.1060  205.5300  149.4070 C   0  0  0  0  0  0  0  0  0  0  0  0
  161.0960  205.8130  150.7530 C   0  0  0  0  0  0  0  0  0  0  0  0
  161.0240  206.5120  148.2870 C   0  0  0  0  0  1  0  0  0  0  0  0
  161.0260  206.9850  152.8480 C   0  0  0  0  0  0  0  0  0  0  0  0
  161.1220  205.7390  153.5150 C   0  0  0  0  0  3  0  0  0  0  0  0
  161.2570  203.3240  148.1110 C   0  0  0  0  0  0  0  0  0  0  0  0
  160.7950  202.1520  148.1000 O   0  0  0  0  0  1  0  0  0  0  0  0
  161.8180  203.8490  146.9550 O   0  0  0  0  0  0  0  0  0  0  0  0
  157.2500  214.4520  150.6970 N   0  0  0  0  0  2  0  0  0  0  0  0
  157.0480  213.4960  149.6220 C   0  0  0  0  0  2  0  0  0  0  0  0
  156.4130  214.1950  148.4380 C   0  0  0  0  0  1  0  0  0  0  0  0
  1 11  1  0  0  0  0
  3 10  1  0  0  0  0
  4  6  1  0  0  0  0
  5  9  1  0  0  0  0
  5  1  2  0  0  0  0
  6  8  1  0  0  0  0
  8  7  2  0  0  0  0
  9  4  2  0  0  0  0
 10 12  2  0  0  0  0
 11  6  2  0  0  0  0
 11 10  1  0  0  0  0
 12  7  1  0  0  0  0
 13 14  1  0  0  0  0
 13  2  1  0  0  0  0
 14 32  1  6  0  0  0
 15 14  1  0  0  0  0
 15 17  1  0  0  0  0
 16  2  1  6  0  0  0
 16  3  1  0  0  0  0
 18 17  1  6  0  0  0
 18  1  1  0  0  0  0
 18 16  1  0  0  0  0
 19 28  1  0  0  0  0
 20 27  1  0  0  0  0
 21 24  2  0  0  0  0
 21 22  1  0  0  0  0
 22 23  1  0  0  0  0
 23 19  2  0  0  0  0
 24 25  1  0  0  0  0
 25 23  1  0  0  0  0
 25 20  2  0  0  0  0
 26 24  1  0  0  0  0
 27 28  2  0  0  0  0
 27  9  1  0  0  0  0
 29 21  1  0  0  0  0
 30 29  1  0  0  0  0
 31 29  2  0  0  0  0
 33 32  1  0  0  0  0
 34 33  1  0  0  0  0
M  END
>  <MODEL>
6

>  <REMARK>
 VINA RESULT:      -6.0      4.744      9.580
  Name = 
  4 active torsions:
  status: ('A' for Active; 'I' for Inactive)
    1  A    between atoms: N_3  and  C_13
    2  A    between atoms: N_3  and  C_25
    3  A    between atoms: C_7  and  C_11
    4  A    between atoms: C_18  and  C_30
                            x       y       z     vdW  Elec       q    Type
                         _______ _______ _______ _____ _____    ______ ____

>  <TORSDO>
F 4

$$$$
=
 OpenBabel11062409413D

 34 39  0  0  1  0  0  0  0  0999 V2000
  160.9920  207.7000  151.6490 C   0  0  0  0  0  0  0  0  0  0  0  0
  162.9020  210.4120  151.5820 C   0  0  0  0  0  2  0  0  0  0  0  0
  160.9430  210.1740  153.0360 N   0  0  0  0  0  2  0  0  0  0  0  0
  161.0020  205.3360  153.0640 N   0  0  0  0  0  0  0  0  0  0  0  0
  161.0180  206.4960  151.0130 N   0  0  0  0  0  0  0  0  0  0  0  0
  160.9510  206.5060  153.7500 C   0  0  0  0  0  0  0  0  0  0  0  0
  160.8010  207.7170  155.8420 C   0  0  0  0  0  3  0  0  0  0  0  0
  160.8750  206.5060  155.1450 C   0  0  0  0  0  3  0  0  0  0  0  0
  161.0400  205.3210  151.7020 C   0  0  0  0  0  0  0  0  0  0  0  0
  160.8990  208.9390  153.7510 C   0  0  0  0  0  0  0  0  0  0  0  0
  160.9530  207.7260  153.0500 C   0  0  0  0  0  0  0  0  0  0  0  0
  160.8100  208.9330  155.1470 C   0  0  0  0  0  3  0  0  0  0  0  0
  163.4540  210.7100  150.1790 C   0  0  0  0  0  2  0  0  0  0  0  0
  162.3920  211.2440  149.2140 C   0  0  2  0  0  3  0  0  0  0  0  0
  161.4830  210.1410  148.6420 C   0  0  0  0  0  2  0  0  0  0  0  0
  161.3790  210.2190  151.6430 C   0  0  2  0  0  3  0  0  0  0  0  0
  161.4740  208.8400  149.4520 C   0  0  0  0  0  2  0  0  0  0  0  0
  160.8650  208.9840  150.8550 C   0  0  1  0  0  3  0  0  0  0  0  0
  161.1900  201.5820  151.0210 C   0  0  0  0  0  3  0  0  0  0  0  0
  161.0760  204.0210  149.5650 C   0  0  0  0  0  3  0  0  0  0  0  0
  161.1800  201.0510  147.5760 C   0  0  0  0  0  0  0  0  0  0  0  0
  161.2110  200.5810  148.8110 O   0  0  0  0  0  0  0  0  0  0  0  0
  161.1760  201.6070  149.6290 C   0  0  0  0  0  0  0  0  0  0  0  0
  161.1230  202.4460  147.5960 C   0  0  0  0  0  0  0  0  0  0  0  0
  161.1210  202.7820  148.9300 C   0  0  0  0  0  0  0  0  0  0  0  0
  161.0730  203.3840  146.4390 C   0  0  0  0  0  1  0  0  0  0  0  0
  161.0880  204.0380  150.9760 C   0  0  0  0  0  0  0  0  0  0  0  0
  161.1440  202.8160  151.6930 C   0  0  0  0  0  3  0  0  0  0  0  0
  161.2050  200.1850  146.3890 C   0  0  0  0  0  0  0  0  0  0  0  0
  161.8980  199.1340  146.3730 O   0  0  0  0  0  1  0  0  0  0  0  0
  160.4550  200.5280  145.2720 O   0  0  0  0  0  0  0  0  0  0  0  0
  163.0370  211.9560  148.1250 N   0  0  0  0  0  2  0  0  0  0  0  0
  162.0240  212.7870  147.4970 C   0  0  0  0  0  2  0  0  0  0  0  0
  161.6070  213.8830  148.4550 C   0  0  0  0  0  1  0  0  0  0  0  0
  1 11  1  0  0  0  0
  3 10  1  0  0  0  0
  4  6  1  0  0  0  0
  5  1  2  0  0  0  0
  5  9  1  0  0  0  0
  6  8  1  0  0  0  0
  8  7  2  0  0  0  0
  9  4  2  0  0  0  0
 10 12  2  0  0  0  0
 11  6  2  0  0  0  0
 11 10  1  0  0  0  0
 12  7  1  0  0  0  0
 13  2  1  0  0  0  0
 14 32  1  6  0  0  0
 14 13  1  0  0  0  0
 15 14  1  0  0  0  0
 15 17  1  0  0  0  0
 16  2  1  1  0  0  0
 16  3  1  0  0  0  0
 18 17  1  6  0  0  0
 18 16  1  0  0  0  0
 18  1  1  0  0  0  0
 19 28  1  0  0  0  0
 20 27  1  0  0  0  0
 21 24  2  0  0  0  0
 21 22  1  0  0  0  0
 22 23  1  0  0  0  0
 23 19  2  0  0  0  0
 24 25  1  0  0  0  0
 25 20  2  0  0  0  0
 25 23  1  0  0  0  0
 26 24  1  0  0  0  0
 27 28  2  0  0  0  0
 27  9  1  0  0  0  0
 29 21  1  0  0  0  0
 30 29  1  0  0  0  0
 31 29  2  0  0  0  0
 33 32  1  0  0  0  0
 33 34  1  0  0  0  0
M  END
>  <MODEL>
7

>  <REMARK>
 VINA RESULT:      -5.9      4.529      8.532
  Name = 
  4 active torsions:
  status: ('A' for Active; 'I' for Inactive)
    1  A    between atoms: N_3  and  C_13
    2  A    between atoms: N_3  and  C_25
    3  A    between atoms: C_7  and  C_11
    4  A    between atoms: C_18  and  C_30
                            x       y       z     vdW  Elec       q    Type
                         _______ _______ _______ _____ _____    ______ ____

>  <TORSDO>
F 4

$$$$
=
 OpenBabel11062409413D

 34 39  0  0  1  0  0  0  0  0999 V2000
  160.8710  210.0850  151.4530 C   0  0  0  0  0  0  0  0  0  0  0  0
  158.5750  212.2910  152.3830 C   0  0  0  0  0  2  0  0  0  0  0  0
  160.8200  212.9160  151.6240 N   0  0  0  0  0  2  0  0  0  0  0  0
  161.5660  208.8680  149.0810 N   0  0  0  0  0  0  0  0  0  0  0  0
  160.9030  208.7280  151.3380 N   0  0  0  0  0  0  0  0  0  0  0  0
  161.5750  210.2230  149.1450 C   0  0  0  0  0  0  0  0  0  0  0  0
  161.9850  212.3780  148.1180 C   0  0  0  0  0  3  0  0  0  0  0  0
  161.9580  210.9820  148.0350 C   0  0  0  0  0  3  0  0  0  0  0  0
  161.2290  208.1150  150.1650 C   0  0  0  0  0  0  0  0  0  0  0  0
  161.2250  212.2680  150.4170 C   0  0  0  0  0  0  0  0  0  0  0  0
  161.2160  210.8680  150.3420 C   0  0  0  0  0  0  0  0  0  0  0  0
  161.6210  213.0220  149.3080 C   0  0  0  0  0  3  0  0  0  0  0  0
  157.6830  211.7700  153.5210 C   0  0  0  0  0  2  0  0  0  0  0  0
  158.4010  211.7140  154.8720 C   0  0  2  0  0  3  0  0  0  0  0  0
  159.3290  210.4930  155.0160 C   0  0  0  0  0  2  0  0  0  0  0  0
  160.0840  212.1890  152.6550 C   0  0  2  0  0  3  0  0  0  0  0  0
  159.7320  209.8410  153.6890 C   0  0  0  0  0  2  0  0  0  0  0  0
  160.6050  210.7350  152.7960 C   0  0  1  0  0  3  0  0  0  0  0  0
  161.2610  204.4530  151.1930 C   0  0  0  0  0  3  0  0  0  0  0  0
  161.2130  206.0090  148.8150 C   0  0  0  0  0  3  0  0  0  0  0  0
  161.2170  202.4670  148.3310 C   0  0  0  0  0  0  0  0  0  0  0  0
  161.2400  202.5850  149.6470 O   0  0  0  0  0  0  0  0  0  0  0  0
  161.2410  203.8660  149.9320 C   0  0  0  0  0  0  0  0  0  0  0  0
  161.2020  203.7290  147.7370 C   0  0  0  0  0  0  0  0  0  0  0  0
  161.2180  204.6160  148.7870 C   0  0  0  0  0  0  0  0  0  0  0  0
  161.1740  204.0660  146.2840 C   0  0  0  0  0  1  0  0  0  0  0  0
  161.2330  206.6430  150.0760 C   0  0  0  0  0  0  0  0  0  0  0  0
  161.2570  205.8580  151.2560 C   0  0  0  0  0  3  0  0  0  0  0  0
  161.2090  201.1680  147.6430 C   0  0  0  0  0  0  0  0  0  0  0  0
  160.8160  201.0720  146.4510 O   0  0  0  0  0  0  0  0  0  0  0  0
  161.6410  200.0320  148.3150 O   0  0  0  0  0  1  0  0  0  0  0  0
  157.4210  211.7090  155.9450 N   0  0  0  0  0  2  0  0  0  0  0  0
  156.1310  212.0010  155.3460 C   0  0  0  0  0  2  0  0  0  0  0  0
  155.3320  212.8880  156.2780 C   0  0  0  0  0  1  0  0  0  0  0  0
  1 18  1  0  0  0  0
  2 13  1  0  0  0  0
  3 16  1  0  0  0  0
  4  6  1  0  0  0  0
  4  9  2  0  0  0  0
  5  1  2  0  0  0  0
  6 11  1  0  0  0  0
  7 12  2  0  0  0  0
  8  7  1  0  0  0  0
  8  6  2  0  0  0  0
  9  5  1  0  0  0  0
 10  3  1  0  0  0  0
 11 10  2  0  0  0  0
 11  1  1  0  0  0  0
 12 10  1  0  0  0  0
 13 14  1  0  0  0  0
 14 15  1  0  0  0  0
 14 32  1  1  0  0  0
 16  2  1  6  0  0  0
 16 18  1  0  0  0  0
 17 15  1  0  0  0  0
 18 17  1  6  0  0  0
 19 28  1  0  0  0  0
 20 27  1  0  0  0  0
 21 22  1  0  0  0  0
 22 23  1  0  0  0  0
 23 19  2  0  0  0  0
 24 21  2  0  0  0  0
 24 25  1  0  0  0  0
 25 20  2  0  0  0  0
 25 23  1  0  0  0  0
 26 24  1  0  0  0  0
 27  9  1  0  0  0  0
 27 28  2  0  0  0  0
 29 31  1  0  0  0  0
 29 21  1  0  0  0  0
 30 29  2  0  0  0  0
 33 32  1  0  0  0  0
 33 34  1  0  0  0  0
M  END
>  <MODEL>
8

>  <REMARK>
 VINA RESULT:      -5.8      4.622     10.079
  Name = 
  4 active torsions:
  status: ('A' for Active; 'I' for Inactive)
    1  A    between atoms: N_3  and  C_13
    2  A    between atoms: N_3  and  C_25
    3  A    between atoms: C_7  and  C_11
    4  A    between atoms: C_18  and  C_30
                            x       y       z     vdW  Elec       q    Type
                         _______ _______ _______ _____ _____    ______ ____

>  <TORSDO>
F 4

$$$$
=
 OpenBabel11062409413D

 34 39  0  0  1  0  0  0  0  0999 V2000
  161.5810  203.9920  148.2740 C   0  0  0  0  0  0  0  0  0  0  0  0
  160.2420  203.6850  145.2540 C   0  0  0  0  0  2  0  0  0  0  0  0
  161.6680  201.9760  146.2800 N   0  0  0  0  0  2  0  0  0  0  0  0
  160.7950  203.3520  150.8360 N   0  0  0  0  0  0  0  0  0  0  0  0
  161.5270  204.9370  149.2530 N   0  0  0  0  0  0  0  0  0  0  0  0
  160.8550  202.3640  149.9070 C   0  0  0  0  0  0  0  0  0  0  0  0
  160.6360  200.0320  149.2940 C   0  0  0  0  0  3  0  0  0  0  0  0
  160.5500  201.0460  150.2550 C   0  0  0  0  0  3  0  0  0  0  0  0
  161.1230  204.6360  150.5190 C   0  0  0  0  0  0  0  0  0  0  0  0
  161.3110  201.6540  147.6240 C   0  0  0  0  0  0  0  0  0  0  0  0
  161.2450  202.6680  148.5900 C   0  0  0  0  0  0  0  0  0  0  0  0
  161.0170  200.3340  147.9810 C   0  0  0  0  0  3  0  0  0  0  0  0
  160.1460  205.0280  144.5130 C   0  0  0  0  0  2  0  0  0  0  0  0
  161.5020  205.5480  144.0290 C   0  0  2  0  0  3  0  0  0  0  0  0
  162.3340  206.2030  145.1460 C   0  0  0  0  0  2  0  0  0  0  0  0
  161.6380  203.3570  145.8070 C   0  0  2  0  0  3  0  0  0  0  0  0
  161.9070  205.8190  146.5670 C   0  0  0  0  0  2  0  0  0  0  0  0
  162.1300  204.3370  146.9050 C   0  0  1  0  0  3  0  0  0  0  0  0
  160.8340  206.3400  153.9080 C   0  0  0  0  0  3  0  0  0  0  0  0
  161.1600  207.0500  151.1750 C   0  0  0  0  0  3  0  0  0  0  0  0
  161.0360  209.7910  153.4680 C   0  0  0  0  0  0  0  0  0  0  0  0
  160.9040  208.7390  154.2570 O   0  0  0  0  0  0  0  0  0  0  0  0
  160.9370  207.6660  153.5010 C   0  0  0  0  0  0  0  0  0  0  0  0
  161.1610  209.3800  152.1400 C   0  0  0  0  0  0  0  0  0  0  0  0
  161.0940  208.0070  152.1850 C   0  0  0  0  0  0  0  0  0  0  0  0
  161.3300  210.2260  150.9240 C   0  0  0  0  0  1  0  0  0  0  0  0
  161.0590  205.6920  151.5470 C   0  0  0  0  0  0  0  0  0  0  0  0
  160.8970  205.3480  152.9120 C   0  0  0  0  0  3  0  0  0  0  0  0
  161.0450  211.1720  153.9690 C   0  0  0  0  0  0  0  0  0  0  0  0
  161.5810  211.4530  155.0730 O   0  0  0  0  0  1  0  0  0  0  0  0
  160.4570  212.1800  153.2180 O   0  0  0  0  0  0  0  0  0  0  0  0
  161.3030  206.4980  142.9490 N   0  0  0  0  0  2  0  0  0  0  0  0
  161.9570  205.9520  141.7720 C   0  0  0  0  0  2  0  0  0  0  0  0
  161.9560  206.9880  140.6680 C   0  0  0  0  0  1  0  0  0  0  0  0
  1 11  1  0  0  0  0
  1  5  2  0  0  0  0
  3 10  1  0  0  0  0
  5  9  1  0  0  0  0
  6  8  1  0  0  0  0
  6  4  1  0  0  0  0
  7  8  2  0  0  0  0
  9  4  2  0  0  0  0
  9 27  1  0  0  0  0
 10 12  2  0  0  0  0
 10 11  1  0  0  0  0
 11  6  2  0  0  0  0
 12  7  1  0  0  0  0
 13  2  1  0  0  0  0
 14 32  1  6  0  0  0
 14 13  1  0  0  0  0
 14 15  1  0  0  0  0
 15 17  1  0  0  0  0
 16  2  1  1  0  0  0
 16  3  1  0  0  0  0
 16 18  1  0  0  0  0
 18 17  1  6  0  0  0
 18  1  1  0  0  0  0
 20 27  2  0  0  0  0
 20 25  1  0  0  0  0
 21 29  1  0  0  0  0
 21 22  1  0  0  0  0
 23 19  1  0  0  0  0
 23 22  1  0  0  0  0
 24 25  1  0  0  0  0
 24 21  2  0  0  0  0
 25 23  2  0  0  0  0
 26 24  1  0  0  0  0
 27 28  1  0  0  0  0
 28 19  2  0  0  0  0
 29 30  1  0  0  0  0
 31 29  2  0  0  0  0
 33 32  1  0  0  0  0
 34 33  1  0  0  0  0
M  END
>  <MODEL>
9

>  <REMARK>
 VINA RESULT:      -5.7      1.048      1.818
  Name = 
  4 active torsions:
  status: ('A' for Active; 'I' for Inactive)
    1  A    between atoms: N_3  and  C_13
    2  A    between atoms: N_3  and  C_25
    3  A    between atoms: C_7  and  C_11
    4  A    between atoms: C_18  and  C_30
                            x       y       z     vdW  Elec       q    Type
                         _______ _______ _______ _____ _____    ______ ____

>  <TORSDO>
F 4

$$$$
