=
 OpenBabel11062410573D

 32 37  0  0  0  0  0  0  0  0999 V2000
  160.9460  202.4750  148.7200 C   0  0  0  0  0  0  0  0  0  0  0  0
  161.3000  206.6260  151.6830 C   0  0  0  0  0  0  0  0  0  0  0  0
  161.8870  208.2020  147.5750 O   0  0  0  0  0  0  0  0  0  0  0  0
  162.1560  210.6490  148.6320 S   0  0  0  0  0  0  0  0  0  0  0  0
  161.2110  207.4160  154.0630 N   0  0  0  0  0  0  0  0  0  0  0  0
  161.2730  208.3930  155.0040 C   0  0  0  0  0  0  0  0  0  0  0  0
  161.0340  204.3180  150.8370 C   0  0  0  0  0  0  0  0  0  0  0  0
  161.4350  206.0960  149.2380 O   0  0  0  0  0  0  0  0  0  0  0  0
  161.4010  210.3690  156.8910 N   0  0  0  0  0  0  0  0  0  0  0  0
  161.1680  203.8290  148.4580 C   0  0  0  0  0  3  0  0  0  0  0  0
  161.8970  208.8860  148.6320 C   0  0  0  0  0  0  0  0  0  0  0  0
  161.4860  207.0490  150.2590 C   0  0  0  0  0  0  0  0  0  0  0  0
  161.7010  208.3400  149.9600 C   0  0  0  0  0  0  0  0  0  0  0  0
  161.5970  209.0280  152.3490 C   0  0  0  0  0  0  0  0  0  0  0  0
  161.1790  209.0780  157.2610 C   0  0  0  0  0  3  0  0  0  0  0  0
  160.7680  202.0370  150.0340 C   0  0  0  0  0  3  0  0  0  0  0  0
  161.2130  204.7480  149.5100 C   0  0  0  0  0  0  0  0  0  0  0  0
  161.1160  208.0980  156.3200 N   0  0  0  0  0  0  0  0  0  0  0  0
  160.8120  202.9550  151.0880 C   0  0  0  0  0  3  0  0  0  0  0  0
  162.0040  210.6940  150.4670 C   0  0  0  0  0  2  0  0  0  0  0  0
  161.7620  209.3420  150.9630 N   0  0  0  0  0  0  0  0  0  0  0  0
  161.6590  210.0080  153.2930 N   0  0  0  0  0  0  0  0  0  0  0  0
  161.0840  205.3080  151.9460 C   0  0  0  0  0  0  0  0  0  0  0  0
  160.8880  204.7960  153.3410 C   0  0  0  0  0  1  0  0  0  0  0  0
  161.5630  210.7070  155.5840 C   0  0  0  0  0  3  0  0  0  0  0  0
  161.3670  207.6930  152.7380 C   0  0  0  0  0  0  0  0  0  0  0  0
  161.5030  209.7170  154.6070 C   0  0  0  0  0  0  0  0  0  0  0  0
  160.8640  200.7410  146.7290 C   0  0  0  0  0  0  0  0  0  0  0  0
  160.9020  201.5320  147.6370 C   0  0  0  0  0  0  0  0  0  0  0  0
  160.8190  199.7990  145.6470 C   0  0  0  0  0  0  0  0  0  0  0  0
  160.0680  200.0800  144.5140 O   0  0  0  0  0  0  0  0  0  0  0  0
  161.4620  198.7200  145.7260 O   0  0  0  0  0  1  0  0  0  0  0  0
  1 16  1  0  0  0  0
  2 23  2  0  0  0  0
  2 26  1  0  0  0  0
  3 11  2  0  0  0  0
  4 11  1  0  0  0  0
  4 20  1  0  0  0  0
  5  6  2  0  0  0  0
  6 18  1  0  0  0  0
  7 19  1  0  0  0  0
  7 23  1  0  0  0  0
  8 17  1  0  0  0  0
  8 12  1  0  0  0  0
  9 15  1  0  0  0  0
 10  1  2  0  0  0  0
 10 17  1  0  0  0  0
 11 13  1  0  0  0  0
 12  2  1  0  0  0  0
 13 12  2  0  0  0  0
 13 21  1  0  0  0  0
 14 26  2  0  0  0  0
 14 22  1  0  0  0  0
 16 19  2  0  0  0  0
 17  7  2  0  0  0  0
 18 15  2  0  0  0  0
 20 21  1  0  0  0  0
 21 14  1  0  0  0  0
 22 27  2  0  0  0  0
 23 24  1  0  0  0  0
 25  9  2  0  0  0  0
 26  5  1  0  0  0  0
 27  6  1  0  0  0  0
 27 25  1  0  0  0  0
 28 29  3  0  0  0  0
 29  1  1  0  0  0  0
 30 32  1  0  0  0  0
 30 28  1  0  0  0  0
 31 30  2  0  0  0  0
M  END
>  <MODEL>
1

>  <REMARK>
 VINA RESULT:     -10.4      0.000      0.000
  Name = 
  2 active torsions:
  status: ('A' for Active; 'I' for Inactive)
    1  A    between atoms: C_1  and  C_10
    2  A    between atoms: C_2  and  C_24
                            x       y       z     vdW  Elec       q    Type
                         _______ _______ _______ _____ _____    ______ ____

>  <TORSDO>
F 2

$$$$
