=
 OpenBabel11052422223D

 25 29  0  0  1  0  0  0  0  0999 V2000
  161.8080  206.3530  151.6430 C   0  0  1  0  0  3  0  0  0  0  0  0
  160.8760  207.2360  152.3220 N   0  0  0  0  0  0  0  0  0  0  0  0
  161.2250  207.6600  149.2130 C   0  0  1  0  0  3  0  0  0  0  0  0
  161.0300  205.5060  150.5850 C   0  0  2  0  0  3  0  0  0  0  0  0
  161.2240  208.2480  154.4580 C   0  0  0  0  0  0  0  0  0  0  0  0
  161.9120  208.2260  150.4880 C   0  0  2  0  0  3  0  0  0  0  0  0
  162.0100  206.8150  147.1260 O   0  0  0  0  0  1  0  0  0  0  0  0
  161.4880  205.5150  149.1060 C   0  0  2  0  0  0  0  0  0  0  0  0
  161.2060  209.7230  152.4150 C   0  0  1  0  0  3  0  0  0  0  0  0
  159.9200  210.4900  152.6910 C   0  0  0  0  0  1  0  0  0  0  0  0
  160.7890  207.2060  153.7500 C   0  0  0  0  0  3  0  0  0  0  0  0
  162.7360  207.2080  151.0220 O   0  0  0  0  0  0  0  0  0  0  0  0
  162.2040  206.7370  148.5090 C   0  0  2  0  0  3  0  0  0  0  0  0
  161.9370  209.3540  153.7190 C   0  0  1  0  0  3  0  0  0  0  0  0
  160.3680  206.4310  149.5770 C   0  0  2  0  0  3  0  0  0  0  0  0
  162.2470  210.5750  154.5750 C   0  0  0  0  0  1  0  0  0  0  0  0
  160.8650  208.4850  151.5630 C   0  0  2  0  0  3  0  0  0  0  0  0
  160.8780  204.4690  148.1860 C   0  0  0  0  0  2  0  0  0  0  0  0
  161.6360  203.1630  148.3190 C   0  0  0  0  0  1  0  0  0  0  0  0
  161.1280  208.2240  155.9540 C   0  0  0  0  0  2  0  0  0  0  0  0
  159.7500  208.6620  156.4250 C   0  0  0  0  0  2  0  0  0  0  0  0
  158.9000  211.0250  156.5200 C   0  0  0  0  0  0  0  0  0  0  0  0
  157.9290  210.7400  155.5670 O   0  0  0  0  0  0  0  0  0  0  0  0
  158.9790  212.1840  157.0030 O   0  0  0  0  0  1  0  0  0  0  0  0
  159.8060  210.0140  156.9550 N   0  0  0  0  0  2  0  0  0  0  0  0
  1 12  1  6  0  0  0
  1  2  1  0  0  0  0
  2 11  1  0  0  0  0
  3 15  1  0  0  0  0
  3  6  1  0  0  0  0
  4  1  1  0  0  0  0
  5 20  1  0  0  0  0
  6 12  1  0  0  0  0
  6 17  1  0  0  0  0
  7 13  1  0  0  0  0
  8 15  1  0  0  0  0
  8  4  1  0  0  0  0
  9 10  1  0  0  0  0
  9 14  1  0  0  0  0
 11  5  2  0  0  0  0
 13  8  1  0  0  0  0
 13  3  1  0  0  0  0
 14  5  1  0  0  0  0
 14 16  1  0  0  0  0
 15  4  1  0  0  0  0
 17  2  1  0  0  0  0
 17  9  1  0  0  0  0
 18 19  1  0  0  0  0
 18  8  1  0  0  0  0
 20 21  1  0  0  0  0
 21 25  1  0  0  0  0
 22 25  1  0  0  0  0
 22 24  1  0  0  0  0
 23 22  2  0  0  0  0
M  END
>  <MODEL>
1

>  <REMARK>
 VINA RESULT:      -7.1      0.000      0.000
  Name = 
  4 active torsions:
  status: ('A' for Active; 'I' for Inactive)
    1  A    between atoms: C_6  and  C_15
    2  A    between atoms: C_8  and  C_11
    3  A    between atoms: C_15  and  C_25
    4  A    between atoms: N_21  and  C_25
                            x       y       z     vdW  Elec       q    Type
                         _______ _______ _______ _____ _____    ______ ____

>  <TORSDO>
F 4

$$$$
=
 OpenBabel11052422223D

 25 29  0  0  1  0  0  0  0  0999 V2000
  160.6110  205.1060  150.0040 C   0  0  1  0  0  3  0  0  0  0  0  0
  161.5920  204.5400  149.0960 N   0  0  0  0  0  0  0  0  0  0  0  0
  162.1330  207.4780  150.1150 C   0  0  1  0  0  3  0  0  0  0  0  0
  161.2990  205.4100  151.3740 C   0  0  2  0  0  3  0  0  0  0  0  0
  161.1000  203.2290  147.1590 C   0  0  0  0  0  0  0  0  0  0  0  0
  161.3870  206.8500  148.9030 C   0  0  2  0  0  3  0  0  0  0  0  0
  161.6280  209.2090  151.6740 O   0  0  0  0  0  1  0  0  0  0  0  0
  161.2270  206.8360  151.9720 C   0  0  2  0  0  0  0  0  0  0  0  0
  162.0670  205.5340  146.8400 C   0  0  1  0  0  3  0  0  0  0  0  0
  163.4290  205.1420  146.2850 C   0  0  0  0  0  1  0  0  0  0  0  0
  161.3290  203.2790  148.4710 C   0  0  0  0  0  3  0  0  0  0  0  0
  160.1790  206.2920  149.3830 O   0  0  0  0  0  0  0  0  0  0  0  0
  161.1020  208.0680  151.0610 C   0  0  2  0  0  3  0  0  0  0  0  0
  160.9730  204.5360  146.4160 C   0  0  1  0  0  3  0  0  0  0  0  0
  162.4390  206.3930  151.1660 C   0  0  2  0  0  3  0  0  0  0  0  0
  160.8810  204.3850  144.9030 C   0  0  0  0  0  1  0  0  0  0  0  0
  162.1810  205.6640  148.3710 C   0  0  2  0  0  3  0  0  0  0  0  0
  161.6650  207.0030  153.4180 C   0  0  0  0  0  2  0  0  0  0  0  0
  160.4540  206.9720  154.3290 C   0  0  0  0  0  1  0  0  0  0  0  0
  160.8310  201.9100  146.5000 C   0  0  0  0  0  2  0  0  0  0  0  0
  160.9410  200.7640  147.4950 C   0  0  0  0  0  2  0  0  0  0  0  0
  161.1900  199.1230  145.6070 C   0  0  0  0  0  0  0  0  0  0  0  0
  160.1380  199.7180  144.9190 O   0  0  0  0  0  0  0  0  0  0  0  0
  161.7850  198.1360  145.1040 O   0  0  0  0  0  1  0  0  0  0  0  0
  161.6000  199.6250  146.8770 N   0  0  0  0  0  2  0  0  0  0  0  0
  1 12  1  6  0  0  0
  1  4  1  0  0  0  0
  2  1  1  0  0  0  0
  3 13  1  0  0  0  0
  3 15  1  0  0  0  0
  4  8  1  0  0  0  0
  5 11  2  0  0  0  0
  6 12  1  0  0  0  0
  6  3  1  0  0  0  0
  8 18  1  0  0  0  0
  9 17  1  0  0  0  0
 10  9  1  0  0  0  0
 11  2  1  0  0  0  0
 13  7  1  0  0  0  0
 13  8  1  0  0  0  0
 14  9  1  0  0  0  0
 14  5  1  0  0  0  0
 15  4  1  0  0  0  0
 15  8  1  0  0  0  0
 16 14  1  0  0  0  0
 17  6  1  0  0  0  0
 17  2  1  0  0  0  0
 18 19  1  0  0  0  0
 20  5  1  0  0  0  0
 20 21  1  0  0  0  0
 22 25  1  0  0  0  0
 23 22  2  0  0  0  0
 24 22  1  0  0  0  0
 25 21  1  0  0  0  0
M  END
>  <MODEL>
2

>  <REMARK>
 VINA RESULT:      -6.9      3.640      8.951
  Name = 
  4 active torsions:
  status: ('A' for Active; 'I' for Inactive)
    1  A    between atoms: C_6  and  C_15
    2  A    between atoms: C_8  and  C_11
    3  A    between atoms: C_15  and  C_25
    4  A    between atoms: N_21  and  C_25
                            x       y       z     vdW  Elec       q    Type
                         _______ _______ _______ _____ _____    ______ ____

>  <TORSDO>
F 4

$$$$
=
 OpenBabel11052422223D

 25 29  0  0  1  0  0  0  0  0999 V2000
  161.1850  207.1330  148.5270 C   0  0  1  0  0  3  0  0  0  0  0  0
  162.0770  207.1960  149.6700 N   0  0  0  0  0  0  0  0  0  0  0  0
  161.6860  204.3650  148.3310 C   0  0  1  0  0  3  0  0  0  0  0  0
  161.9950  206.6750  147.2710 C   0  0  2  0  0  3  0  0  0  0  0  0
  161.6960  208.4580  151.6630 C   0  0  0  0  0  0  0  0  0  0  0  0
  160.9810  205.1530  149.4720 C   0  0  2  0  0  3  0  0  0  0  0  0
  160.9290  203.0910  146.4630 O   0  0  0  0  0  1  0  0  0  0  0  0
  161.5270  205.4410  146.4620 C   0  0  2  0  0  0  0  0  0  0  0  0
  161.6280  205.9420  151.7980 C   0  0  1  0  0  3  0  0  0  0  0  0
  162.8770  205.7180  152.6390 C   0  0  0  0  0  1  0  0  0  0  0  0
  162.1750  208.4110  150.4210 C   0  0  0  0  0  3  0  0  0  0  0  0
  160.2120  206.1780  148.8750 O   0  0  0  0  0  0  0  0  0  0  0  0
  160.7480  204.3020  147.1390 C   0  0  2  0  0  3  0  0  0  0  0  0
  160.9250  207.2610  152.1660 C   0  0  1  0  0  3  0  0  0  0  0  0
  162.6040  205.3070  147.5280 C   0  0  2  0  0  3  0  0  0  0  0  0
  160.5620  207.3320  153.6440 C   0  0  0  0  0  1  0  0  0  0  0  0
  162.0230  205.8830  150.3090 C   0  0  2  0  0  3  0  0  0  0  0  0
  162.1800  205.2140  145.1070 C   0  0  0  0  0  2  0  0  0  0  0  0
  161.2020  205.5530  144.0010 C   0  0  0  0  0  1  0  0  0  0  0  0
  161.8030  209.7250  152.4560 C   0  0  0  0  0  2  0  0  0  0  0  0
  160.7370  210.7270  152.0410 C   0  0  0  0  0  2  0  0  0  0  0  0
  158.5720  211.6650  152.9060 C   0  0  0  0  0  0  0  0  0  0  0  0
  158.4600  212.4960  151.7970 O   0  0  0  0  0  0  0  0  0  0  0  0
  157.6810  211.6870  153.7930 O   0  0  0  0  0  1  0  0  0  0  0  0
  159.6860  210.7860  153.0430 N   0  0  0  0  0  2  0  0  0  0  0  0
  1 12  1  1  0  0  0
  1  2  1  0  0  0  0
  2 17  1  0  0  0  0
  2 11  1  0  0  0  0
  3  6  1  0  0  0  0
  4 15  1  0  0  0  0
  4  1  1  0  0  0  0
  5 14  1  0  0  0  0
  5 20  1  0  0  0  0
  6 17  1  0  0  0  0
  7 13  1  0  0  0  0
  8 13  1  0  0  0  0
  8  4  1  0  0  0  0
  8 15  1  0  0  0  0
  9 14  1  0  0  0  0
  9 10  1  0  0  0  0
 11  5  2  0  0  0  0
 12  6  1  0  0  0  0
 13  3  1  0  0  0  0
 14 16  1  0  0  0  0
 15  3  1  0  0  0  0
 17  9  1  0  0  0  0
 18  8  1  0  0  0  0
 19 18  1  0  0  0  0
 21 20  1  0  0  0  0
 21 25  1  0  0  0  0
 22 25  1  0  0  0  0
 22 24  1  0  0  0  0
 23 22  2  0  0  0  0
M  END
>  <MODEL>
3

>  <REMARK>
 VINA RESULT:      -6.8      2.201      3.721
  Name = 
  4 active torsions:
  status: ('A' for Active; 'I' for Inactive)
    1  A    between atoms: C_6  and  C_15
    2  A    between atoms: C_8  and  C_11
    3  A    between atoms: C_15  and  C_25
    4  A    between atoms: N_21  and  C_25
                            x       y       z     vdW  Elec       q    Type
                         _______ _______ _______ _____ _____    ______ ____

>  <TORSDO>
F 4

$$$$
=
 OpenBabel11052422223D

 25 29  0  0  1  0  0  0  0  0999 V2000
  160.8290  205.3210  148.8240 C   0  0  1  0  0  3  0  0  0  0  0  0
  161.8240  205.8930  149.7120 N   0  0  0  0  0  0  0  0  0  0  0  0
  160.9380  202.9220  150.3020 C   0  0  1  0  0  3  0  0  0  0  0  0
  161.4510  204.0930  148.0840 C   0  0  2  0  0  3  0  0  0  0  0  0
  161.8010  208.1220  150.5750 C   0  0  0  0  0  0  0  0  0  0  0  0
  160.4530  204.3280  150.7550 C   0  0  2  0  0  3  0  0  0  0  0  0
  159.8480  200.9420  149.5440 O   0  0  0  0  0  1  0  0  0  0  0  0
  160.7500  202.7150  148.1570 C   0  0  2  0  0  0  0  0  0  0  0  0
  161.4120  206.2080  152.1680 C   0  0  1  0  0  3  0  0  0  0  0  0
  162.6930  206.3180  152.9840 C   0  0  0  0  0  1  0  0  0  0  0  0
  162.1520  207.2820  149.6020 C   0  0  0  0  0  3  0  0  0  0  0  0
  159.7750  204.9220  149.6650 O   0  0  0  0  0  0  0  0  0  0  0  0
  159.8930  202.3290  149.3730 C   0  0  2  0  0  3  0  0  0  0  0  0
  160.9280  207.5870  151.6840 C   0  0  1  0  0  3  0  0  0  0  0  0
  161.8940  203.0550  149.1010 C   0  0  2  0  0  3  0  0  0  0  0  0
  160.7160  208.5640  152.8340 C   0  0  0  0  0  1  0  0  0  0  0  0
  161.6550  205.2300  151.0030 C   0  0  2  0  0  3  0  0  0  0  0  0
  161.2390  201.6380  147.2010 C   0  0  0  0  0  2  0  0  0  0  0  0
  160.4570  201.7080  145.9040 C   0  0  0  0  0  1  0  0  0  0  0  0
  162.1490  209.5750  150.4670 C   0  0  0  0  0  2  0  0  0  0  0  0
  161.9570  210.0840  149.0460 C   0  0  0  0  0  2  0  0  0  0  0  0
  161.8150  212.3670  148.0050 C   0  0  0  0  0  0  0  0  0  0  0  0
  160.8000  211.9430  147.1550 O   0  0  0  0  0  0  0  0  0  0  0  0
  162.2210  213.5560  147.9460 O   0  0  0  0  0  1  0  0  0  0  0  0
  162.3970  211.4650  148.9440 N   0  0  0  0  0  2  0  0  0  0  0  0
  1 12  1  1  0  0  0
  1  2  1  0  0  0  0
  2 17  1  0  0  0  0
  3  6  1  0  0  0  0
  4  8  1  0  0  0  0
  4  1  1  0  0  0  0
  4 15  1  0  0  0  0
  5 14  1  0  0  0  0
  6 17  1  0  0  0  0
  8 15  1  0  0  0  0
  8 13  1  0  0  0  0
  9 10  1  0  0  0  0
 11  2  1  0  0  0  0
 11  5  2  0  0  0  0
 12  6  1  0  0  0  0
 13  7  1  0  0  0  0
 13  3  1  0  0  0  0
 14  9  1  0  0  0  0
 14 16  1  0  0  0  0
 15  3  1  0  0  0  0
 17  9  1  0  0  0  0
 18  8  1  0  0  0  0
 19 18  1  0  0  0  0
 20  5  1  0  0  0  0
 21 20  1  0  0  0  0
 22 25  1  0  0  0  0
 23 22  2  0  0  0  0
 24 22  1  0  0  0  0
 25 21  1  0  0  0  0
M  END
>  <MODEL>
4

>  <REMARK>
 VINA RESULT:      -6.5      3.790      5.379
  Name = 
  4 active torsions:
  status: ('A' for Active; 'I' for Inactive)
    1  A    between atoms: C_6  and  C_15
    2  A    between atoms: C_8  and  C_11
    3  A    between atoms: C_15  and  C_25
    4  A    between atoms: N_21  and  C_25
                            x       y       z     vdW  Elec       q    Type
                         _______ _______ _______ _____ _____    ______ ____

>  <TORSDO>
F 4

$$$$
=
 OpenBabel11052422223D

 25 29  0  0  1  0  0  0  0  0999 V2000
  160.8270  206.2850  149.3270 C   0  0  1  0  0  3  0  0  0  0  0  0
  161.7560  205.2910  148.8220 N   0  0  0  0  0  0  0  0  0  0  0  0
  162.5410  208.3170  148.3880 C   0  0  1  0  0  3  0  0  0  0  0  0
  161.5390  207.1370  150.4270 C   0  0  2  0  0  3  0  0  0  0  0  0
  161.1550  203.2720  147.6930 C   0  0  0  0  0  0  0  0  0  0  0  0
  161.7450  207.2570  147.5760 C   0  0  2  0  0  3  0  0  0  0  0  0
  162.1840  210.6060  148.9510 O   0  0  0  0  0  1  0  0  0  0  0  0
  161.5860  208.6790  150.2950 C   0  0  2  0  0  0  0  0  0  0  0  0
  162.3120  205.0880  146.3820 C   0  0  1  0  0  3  0  0  0  0  0  0
  163.6360  204.3830  146.1230 C   0  0  0  0  0  1  0  0  0  0  0  0
  161.3880  203.9080  148.8400 C   0  0  0  0  0  3  0  0  0  0  0  0
  160.4950  207.0760  148.2120 O   0  0  0  0  0  0  0  0  0  0  0  0
  161.5640  209.3540  148.9140 C   0  0  2  0  0  3  0  0  0  0  0  0
  161.1390  204.0920  146.4250 C   0  0  1  0  0  3  0  0  0  0  0  0
  162.7570  207.8240  149.8320 C   0  0  2  0  0  3  0  0  0  0  0  0
  161.0340  203.2640  145.1510 C   0  0  0  0  0  1  0  0  0  0  0  0
  162.4370  205.9040  147.6830 C   0  0  2  0  0  3  0  0  0  0  0  0
  162.0370  209.4640  151.5170 C   0  0  0  0  0  2  0  0  0  0  0  0
  160.8400  209.7980  152.3840 C   0  0  0  0  0  1  0  0  0  0  0  0
  160.7770  201.8220  147.7070 C   0  0  0  0  0  2  0  0  0  0  0  0
  160.1400  201.4320  149.0320 C   0  0  0  0  0  2  0  0  0  0  0  0
  161.3040  201.9360  151.2020 C   0  0  0  0  0  0  0  0  0  0  0  0
  160.4450  203.0030  151.4430 O   0  0  0  0  0  0  0  0  0  0  0  0
  162.2050  201.6610  152.0360 O   0  0  0  0  0  1  0  0  0  0  0  0
  161.1690  201.1500  150.0200 N   0  0  0  0  0  2  0  0  0  0  0  0
  1 12  1  6  0  0  0
  1  4  1  0  0  0  0
  2 11  1  0  0  0  0
  2  1  1  0  0  0  0
  3 13  1  0  0  0  0
  3 15  1  0  0  0  0
  5 20  1  0  0  0  0
  5 11  2  0  0  0  0
  6 17  1  0  0  0  0
  6 12  1  0  0  0  0
  6  3  1  0  0  0  0
  8  4  1  0  0  0  0
  8 18  1  0  0  0  0
  9 14  1  0  0  0  0
  9 17  1  0  0  0  0
 10  9  1  0  0  0  0
 13  7  1  0  0  0  0
 13  8  1  0  0  0  0
 14  5  1  0  0  0  0
 15  8  1  0  0  0  0
 15  4  1  0  0  0  0
 16 14  1  0  0  0  0
 17  2  1  0  0  0  0
 18 19  1  0  0  0  0
 20 21  1  0  0  0  0
 21 25  1  0  0  0  0
 22 23  2  0  0  0  0
 22 24  1  0  0  0  0
 25 22  1  0  0  0  0
M  END
>  <MODEL>
5

>  <REMARK>
 VINA RESULT:      -6.1      3.806      7.465
  Name = 
  4 active torsions:
  status: ('A' for Active; 'I' for Inactive)
    1  A    between atoms: C_6  and  C_15
    2  A    between atoms: C_8  and  C_11
    3  A    between atoms: C_15  and  C_25
    4  A    between atoms: N_21  and  C_25
                            x       y       z     vdW  Elec       q    Type
                         _______ _______ _______ _____ _____    ______ ____

>  <TORSDO>
F 4

$$$$
=
 OpenBabel11052422223D

 25 29  0  0  1  0  0  0  0  0999 V2000
  161.0090  206.7540  148.1230 C   0  0  1  0  0  3  0  0  0  0  0  0
  161.9370  206.9650  149.2190 N   0  0  0  0  0  0  0  0  0  0  0  0
  161.6060  203.9980  148.1930 C   0  0  1  0  0  3  0  0  0  0  0  0
  161.7920  206.1960  146.8910 C   0  0  2  0  0  3  0  0  0  0  0  0
  161.5780  208.4130  151.0860 C   0  0  0  0  0  0  0  0  0  0  0  0
  160.9120  204.8760  149.2730 C   0  0  2  0  0  3  0  0  0  0  0  0
  160.8330  202.5140  146.4950 O   0  0  0  0  0  1  0  0  0  0  0  0
  161.3430  204.8700  146.2300 C   0  0  2  0  0  0  0  0  0  0  0  0
  161.6090  205.9240  151.4790 C   0  0  1  0  0  3  0  0  0  0  0  0
  162.8930  205.8300  152.2910 C   0  0  0  0  0  1  0  0  0  0  0  0
  162.0160  208.2540  149.8380 C   0  0  0  0  0  3  0  0  0  0  0  0
  160.0850  205.8080  148.6040 O   0  0  0  0  0  0  0  0  0  0  0  0
  160.6310  203.7810  147.0490 C   0  0  2  0  0  3  0  0  0  0  0  0
  160.8700  207.2490  151.7370 C   0  0  1  0  0  3  0  0  0  0  0  0
  162.4600  204.8830  147.2630 C   0  0  2  0  0  3  0  0  0  0  0  0
  160.5550  207.4600  153.2130 C   0  0  0  0  0  1  0  0  0  0  0  0
  161.9540  205.7240  149.9910 C   0  0  2  0  0  3  0  0  0  0  0  0
  161.9570  204.5250  144.8820 C   0  0  0  0  0  2  0  0  0  0  0  0
  161.2350  205.2760  143.7810 C   0  0  0  0  0  1  0  0  0  0  0  0
  161.6650  209.7580  151.7400 C   0  0  0  0  0  2  0  0  0  0  0  0
  162.3230  210.7760  150.8220 C   0  0  0  0  0  2  0  0  0  0  0  0
  161.5840  212.2360  148.9150 C   0  0  0  0  0  0  0  0  0  0  0  0
  162.8370  212.1380  148.3210 O   0  0  0  0  0  0  0  0  0  0  0  0
  160.6820  212.9150  148.3590 O   0  0  0  0  0  1  0  0  0  0  0  0
  161.3120  211.5720  150.1470 N   0  0  0  0  0  2  0  0  0  0  0  0
  1 12  1  1  0  0  0
  1  2  1  0  0  0  0
  2 11  1  0  0  0  0
  2 17  1  0  0  0  0
  3  6  1  0  0  0  0
  4 15  1  0  0  0  0
  4  1  1  0  0  0  0
  5 14  1  0  0  0  0
  5 20  1  0  0  0  0
  6 17  1  0  0  0  0
  7 13  1  0  0  0  0
  8  4  1  0  0  0  0
  8 13  1  0  0  0  0
  8 15  1  0  0  0  0
  9 14  1  0  0  0  0
  9 10  1  0  0  0  0
 11  5  2  0  0  0  0
 12  6  1  0  0  0  0
 13  3  1  0  0  0  0
 14 16  1  0  0  0  0
 15  3  1  0  0  0  0
 17  9  1  0  0  0  0
 18  8  1  0  0  0  0
 19 18  1  0  0  0  0
 21 20  1  0  0  0  0
 22 25  1  0  0  0  0
 23 22  2  0  0  0  0
 24 22  1  0  0  0  0
 25 21  1  0  0  0  0
M  END
>  <MODEL>
6

>  <REMARK>
 VINA RESULT:      -6.0      3.493      4.986
  Name = 
  4 active torsions:
  status: ('A' for Active; 'I' for Inactive)
    1  A    between atoms: C_6  and  C_15
    2  A    between atoms: C_8  and  C_11
    3  A    between atoms: C_15  and  C_25
    4  A    between atoms: N_21  and  C_25
                            x       y       z     vdW  Elec       q    Type
                         _______ _______ _______ _____ _____    ______ ____

>  <TORSDO>
F 4

$$$$
=
 OpenBabel11052422223D

 25 29  0  0  1  0  0  0  0  0999 V2000
  160.8370  206.9520  148.6380 C   0  0  1  0  0  3  0  0  0  0  0  0
  161.7600  207.1970  149.7310 N   0  0  0  0  0  0  0  0  0  0  0  0
  161.8390  204.3250  148.4220 C   0  0  1  0  0  3  0  0  0  0  0  0
  161.6520  206.6390  147.3420 C   0  0  2  0  0  3  0  0  0  0  0  0
  161.2530  208.3890  151.7400 C   0  0  0  0  0  0  0  0  0  0  0  0
  161.0590  204.9810  149.5970 C   0  0  2  0  0  3  0  0  0  0  0  0
  161.2380  202.9090  146.6010 O   0  0  0  0  0  1  0  0  0  0  0  0
  161.3830  205.3300  146.5610 C   0  0  2  0  0  0  0  0  0  0  0  0
  161.6670  205.9070  151.8830 C   0  0  1  0  0  3  0  0  0  0  0  0
  162.9780  205.9320  152.6570 C   0  0  0  0  0  1  0  0  0  0  0  0
  161.6670  208.4170  150.4730 C   0  0  0  0  0  3  0  0  0  0  0  0
  160.0810  205.8370  149.0400 O   0  0  0  0  0  0  0  0  0  0  0  0
  160.8690  204.0730  147.2820 C   0  0  2  0  0  3  0  0  0  0  0  0
  160.7480  207.0750  152.2860 C   0  0  1  0  0  3  0  0  0  0  0  0
  162.5200  205.4130  147.5690 C   0  0  2  0  0  3  0  0  0  0  0  0
  160.4560  207.0940  153.7810 C   0  0  0  0  0  1  0  0  0  0  0  0
  161.9870  205.9050  150.3760 C   0  0  2  0  0  3  0  0  0  0  0  0
  161.9960  205.2120  145.1750 C   0  0  0  0  0  2  0  0  0  0  0  0
  160.9080  205.2940  144.1230 C   0  0  0  0  0  1  0  0  0  0  0  0
  161.1610  209.6630  152.5220 C   0  0  0  0  0  2  0  0  0  0  0  0
  162.3260  209.8000  153.4910 C   0  0  0  0  0  2  0  0  0  0  0  0
  161.7960  210.2340  155.9090 C   0  0  0  0  0  0  0  0  0  0  0  0
  161.9560  208.8870  156.2110 O   0  0  0  0  0  0  0  0  0  0  0  0
  161.4930  211.0460  156.8210 O   0  0  0  0  0  1  0  0  0  0  0  0
  161.9740  210.7040  154.5740 N   0  0  0  0  0  2  0  0  0  0  0  0
  1 12  1  1  0  0  0
  1  2  1  0  0  0  0
  2 17  1  0  0  0  0
  2 11  1  0  0  0  0
  3  6  1  0  0  0  0
  4 15  1  0  0  0  0
  4  1  1  0  0  0  0
  5 14  1  0  0  0  0
  5 20  1  0  0  0  0
  6 17  1  0  0  0  0
  7 13  1  0  0  0  0
  8 13  1  0  0  0  0
  8  4  1  0  0  0  0
  8 15  1  0  0  0  0
  9 14  1  0  0  0  0
  9 10  1  0  0  0  0
 11  5  2  0  0  0  0
 12  6  1  0  0  0  0
 13  3  1  0  0  0  0
 14 16  1  0  0  0  0
 15  3  1  0  0  0  0
 17  9  1  0  0  0  0
 18  8  1  0  0  0  0
 19 18  1  0  0  0  0
 20 21  1  0  0  0  0
 21 25  1  0  0  0  0
 22 23  2  0  0  0  0
 22 24  1  0  0  0  0
 25 22  1  0  0  0  0
M  END
>  <MODEL>
7

>  <REMARK>
 VINA RESULT:      -5.9      2.184      3.584
  Name = 
  4 active torsions:
  status: ('A' for Active; 'I' for Inactive)
    1  A    between atoms: C_6  and  C_15
    2  A    between atoms: C_8  and  C_11
    3  A    between atoms: C_15  and  C_25
    4  A    between atoms: N_21  and  C_25
                            x       y       z     vdW  Elec       q    Type
                         _______ _______ _______ _____ _____    ______ ____

>  <TORSDO>
F 4

$$$$
=
 OpenBabel11052422223D

 25 29  0  0  1  0  0  0  0  0999 V2000
  160.7510  208.1070  153.7880 C   0  0  1  0  0  3  0  0  0  0  0  0
  161.7410  207.6990  152.8080 N   0  0  0  0  0  0  0  0  0  0  0  0
  160.9940  210.7650  152.8790 C   0  0  1  0  0  3  0  0  0  0  0  0
  161.4070  209.1110  154.7900 C   0  0  2  0  0  3  0  0  0  0  0  0
  161.6440  205.7200  151.4720 C   0  0  0  0  0  0  0  0  0  0  0  0
  160.4610  209.5170  152.1200 C   0  0  2  0  0  3  0  0  0  0  0  0
  159.9710  212.5770  154.0430 O   0  0  0  0  0  1  0  0  0  0  0  0
  160.7660  210.5030  155.0140 C   0  0  2  0  0  0  0  0  0  0  0  0
  161.3720  207.9540  150.3370 C   0  0  1  0  0  3  0  0  0  0  0  0
  162.6650  207.9680  149.5340 C   0  0  0  0  0  1  0  0  0  0  0  0
  162.0080  206.3070  152.6120 C   0  0  0  0  0  3  0  0  0  0  0  0
  159.7330  208.7300  153.0420 O   0  0  0  0  0  0  0  0  0  0  0  0
  159.9540  211.1860  153.9030 C   0  0  2  0  0  3  0  0  0  0  0  0
  160.8190  206.5260  150.4980 C   0  0  1  0  0  3  0  0  0  0  0  0
  161.9160  210.3270  154.0330 C   0  0  2  0  0  3  0  0  0  0  0  0
  160.5930  205.8380  149.1580 C   0  0  0  0  0  1  0  0  0  0  0  0
  161.6300  208.6390  151.6930 C   0  0  2  0  0  3  0  0  0  0  0  0
  161.2780  211.3180  156.1910 C   0  0  0  0  0  2  0  0  0  0  0  0
  160.2040  211.4140  157.2560 C   0  0  0  0  0  1  0  0  0  0  0  0
  161.9280  204.2640  151.2600 C   0  0  0  0  0  2  0  0  0  0  0  0
  160.6530  203.4370  151.3330 C   0  0  0  0  0  2  0  0  0  0  0  0
  160.8690  201.7520  149.4810 C   0  0  0  0  0  0  0  0  0  0  0  0
  160.5890  202.7250  148.5290 O   0  0  0  0  0  0  0  0  0  0  0  0
  161.0940  200.5690  149.1160 O   0  0  0  0  0  1  0  0  0  0  0  0
  160.9050  202.0830  150.8670 N   0  0  0  0  0  2  0  0  0  0  0  0
  1 12  1  6  0  0  0
  1  4  1  0  0  0  0
  2  1  1  0  0  0  0
  3 13  1  0  0  0  0
  3 15  1  0  0  0  0
  4  8  1  0  0  0  0
  5 11  2  0  0  0  0
  6  3  1  0  0  0  0
  6 12  1  0  0  0  0
  8 18  1  0  0  0  0
  9 14  1  0  0  0  0
  9 17  1  0  0  0  0
 10  9  1  0  0  0  0
 11  2  1  0  0  0  0
 13  7  1  0  0  0  0
 13  8  1  0  0  0  0
 14  5  1  0  0  0  0
 15  4  1  0  0  0  0
 15  8  1  0  0  0  0
 16 14  1  0  0  0  0
 17  6  1  0  0  0  0
 17  2  1  0  0  0  0
 18 19  1  0  0  0  0
 20 21  1  0  0  0  0
 20  5  1  0  0  0  0
 22 25  1  0  0  0  0
 23 22  2  0  0  0  0
 24 22  1  0  0  0  0
 25 21  1  0  0  0  0
M  END
>  <MODEL>
8

>  <REMARK>
 VINA RESULT:      -5.9      2.450      7.388
  Name = 
  4 active torsions:
  status: ('A' for Active; 'I' for Inactive)
    1  A    between atoms: C_6  and  C_15
    2  A    between atoms: C_8  and  C_11
    3  A    between atoms: C_15  and  C_25
    4  A    between atoms: N_21  and  C_25
                            x       y       z     vdW  Elec       q    Type
                         _______ _______ _______ _____ _____    ______ ____

>  <TORSDO>
F 4

$$$$
=
 OpenBabel11052422223D

 25 29  0  0  1  0  0  0  0  0999 V2000
  161.9940  205.5090  149.9130 C   0  0  1  0  0  3  0  0  0  0  0  0
  160.9330  204.6720  149.3820 N   0  0  0  0  0  0  0  0  0  0  0  0
  160.8400  205.2860  152.4770 C   0  0  1  0  0  3  0  0  0  0  0  0
  161.3690  206.8180  150.4940 C   0  0  2  0  0  3  0  0  0  0  0  0
  161.2120  202.9320  147.7670 C   0  0  0  0  0  0  0  0  0  0  0  0
  161.4760  204.1770  151.5910 C   0  0  2  0  0  3  0  0  0  0  0  0
  161.6070  206.6080  154.3060 O   0  0  0  0  0  1  0  0  0  0  0  0
  161.6550  207.2220  151.9610 C   0  0  2  0  0  0  0  0  0  0  0  0
  160.5930  202.2990  150.1270 C   0  0  1  0  0  3  0  0  0  0  0  0
  159.1840  201.7840  149.8700 C   0  0  0  0  0  1  0  0  0  0  0  0
  161.0030  204.2230  148.0240 C   0  0  0  0  0  3  0  0  0  0  0  0
  162.5910  204.7410  150.9290 O   0  0  0  0  0  0  0  0  0  0  0  0
  161.9540  206.1580  153.0290 C   0  0  2  0  0  3  0  0  0  0  0  0
  161.5240  202.0240  148.9320 C   0  0  1  0  0  3  0  0  0  0  0  0
  160.3850  206.4670  151.5980 C   0  0  2  0  0  3  0  0  0  0  0  0
  161.5810  200.5450  148.5690 C   0  0  0  0  0  1  0  0  0  0  0  0
  160.5110  203.7980  150.4750 C   0  0  2  0  0  3  0  0  0  0  0  0
  161.2580  208.6290  152.3810 C   0  0  0  0  0  2  0  0  0  0  0  0
  162.2980  209.6220  151.9010 C   0  0  0  0  0  1  0  0  0  0  0  0
  161.2770  202.4570  146.3470 C   0  0  0  0  0  2  0  0  0  0  0  0
  160.3160  203.2330  145.4610 C   0  0  0  0  0  2  0  0  0  0  0  0
  160.9250  205.4360  144.4170 C   0  0  0  0  0  0  0  0  0  0  0  0
  160.0810  206.1120  145.2910 O   0  0  0  0  0  1  0  0  0  0  0  0
  161.5810  206.0820  143.5600 O   0  0  0  0  0  0  0  0  0  0  0  0
  161.0540  204.0180  144.4860 N   0  0  0  0  0  2  0  0  0  0  0  0
  1  4  1  0  0  0  0
  1 12  1  1  0  0  0
  2  1  1  0  0  0  0
  2 17  1  0  0  0  0
  3 13  1  0  0  0  0
  4 15  1  0  0  0  0
  4  8  1  0  0  0  0
  5 11  2  0  0  0  0
  5 14  1  0  0  0  0
  6  3  1  0  0  0  0
  8 18  1  0  0  0  0
  8 13  1  0  0  0  0
  9 17  1  0  0  0  0
 10  9  1  0  0  0  0
 11  2  1  0  0  0  0
 12  6  1  0  0  0  0
 13  7  1  0  0  0  0
 14  9  1  0  0  0  0
 15  8  1  0  0  0  0
 15  3  1  0  0  0  0
 16 14  1  0  0  0  0
 17  6  1  0  0  0  0
 19 18  1  0  0  0  0
 20  5  1  0  0  0  0
 21 20  1  0  0  0  0
 22 25  1  0  0  0  0
 22 23  1  0  0  0  0
 24 22  2  0  0  0  0
 25 21  1  0  0  0  0
M  END
>  <MODEL>
9

>  <REMARK>
 VINA RESULT:      -5.6      3.425      8.349
  Name = 
  4 active torsions:
  status: ('A' for Active; 'I' for Inactive)
    1  A    between atoms: C_6  and  C_15
    2  A    between atoms: C_8  and  C_11
    3  A    between atoms: C_15  and  C_25
    4  A    between atoms: N_21  and  C_25
                            x       y       z     vdW  Elec       q    Type
                         _______ _______ _______ _____ _____    ______ ____

>  <TORSDO>
F 4

$$$$
