=
 OpenBabel11062409263D

 34 39  0  0  1  0  0  0  0  0999 V2000
  160.8630  204.9530  150.3960 C   0  0  0  0  0  0  0  0  0  0  0  0
  161.1740  203.6530  148.3540 C   0  0  0  0  0  0  0  0  0  0  0  0
  161.0350  202.4590  150.5050 C   0  0  0  0  0  3  0  0  0  0  0  0
  161.6490  208.0300  151.7410 C   0  0  0  0  0  0  0  0  0  0  0  0
  161.4130  207.3650  150.6480 N   0  0  0  0  0  0  0  0  0  0  0  0
  161.1320  206.0380  152.5230 C   0  0  0  0  0  0  0  0  0  0  0  0
  161.0860  204.8060  153.2360 N   0  0  0  0  0  0  0  0  0  0  0  0
  161.5300  207.2150  152.9700 C   0  0  0  0  0  3  0  0  0  0  0  0
  160.4860  203.6890  151.1630 C   0  0  1  0  0  3  0  0  0  0  0  0
  161.0590  206.0700  151.1030 C   0  0  0  0  0  0  0  0  0  0  0  0
  160.8290  203.7250  152.6010 N   0  0  0  0  0  0  0  0  0  0  0  0
  161.2460  203.4570  146.8620 C   0  0  0  0  0  2  0  0  0  0  0  0
  161.5380  204.7500  146.1060 C   0  0  2  0  0  3  0  0  0  0  0  0
  160.6140  205.8510  146.6100 C   0  0  0  0  0  2  0  0  0  0  0  0
  161.3080  202.4430  149.1970 C   0  0  0  0  0  3  0  0  0  0  0  0
  160.9250  206.1250  148.0750 C   0  0  0  0  0  2  0  0  0  0  0  0
  160.9550  204.8680  148.9150 C   0  0  0  0  0  0  0  0  0  0  0  0
  161.4020  204.5230  144.6010 C   0  0  2  0  0  3  0  0  0  0  0  0
  161.4790  205.8370  143.8470 C   0  0  0  0  0  1  0  0  0  0  0  0
  160.2060  203.8690  144.2950 O   0  0  0  0  0  1  0  0  0  0  0  0
  162.1210  209.4440  151.7270 C   0  0  0  0  0  2  0  0  0  0  0  0
  161.3210  211.2570  154.9180 N   0  0  0  0  0  0  0  0  0  0  0  0
  160.0820  210.6730  152.5080 C   0  0  0  0  0  3  0  0  0  0  0  0
  158.0660  212.8600  155.4740 C   0  0  0  0  0  0  0  0  0  0  0  0
  159.3780  212.4150  155.6910 C   0  0  0  0  0  3  0  0  0  0  0  0
  160.0480  211.6890  154.7050 C   0  0  0  0  0  0  0  0  0  0  0  0
  158.0950  211.8400  153.2650 C   0  0  0  0  0  3  0  0  0  0  0  0
  159.4010  211.4000  153.4850 C   0  0  0  0  0  0  0  0  0  0  0  0
  157.4310  212.5680  154.2570 C   0  0  0  0  0  3  0  0  0  0  0  0
  161.3910  210.2460  152.7490 C   0  0  0  0  0  0  0  0  0  0  0  0
  161.9960  210.5460  153.9740 C   0  0  0  0  0  3  0  0  0  0  0  0
  157.3640  213.6240  156.5170 C   0  0  0  0  0  0  0  0  0  0  0  0
  157.9970  214.4200  157.2610 O   0  0  0  0  0  1  0  0  0  0  0  0
  155.9930  213.4740  156.6940 O   0  0  0  0  0  0  0  0  0  0  0  0
  1 10  2  0  0  0  0
  1  9  1  0  0  0  0
  2 17  2  0  0  0  0
  2 15  1  0  0  0  0
  4  8  1  0  0  0  0
  5 10  1  0  0  0  0
  5  4  2  0  0  0  0
  6  8  2  0  0  0  0
  6  7  1  0  0  0  0
  9  3  1  6  0  0  0
  9 11  1  0  0  0  0
 10  6  1  0  0  0  0
 11  7  2  0  0  0  0
 12  2  1  0  0  0  0
 13 18  1  6  0  0  0
 13 14  1  0  0  0  0
 13 12  1  0  0  0  0
 14 16  1  0  0  0  0
 15  3  2  0  0  0  0
 16 17  1  0  0  0  0
 17  1  1  0  0  0  0
 18 19  1  6  0  0  0
 20 18  1  0  0  0  0
 21  4  1  0  0  0  0
 21 30  1  0  0  0  0
 23 30  2  0  0  0  0
 23 28  1  0  0  0  0
 24 25  1  0  0  0  0
 24 32  1  0  0  0  0
 26 22  1  0  0  0  0
 26 25  2  0  0  0  0
 27 28  2  0  0  0  0
 27 29  1  0  0  0  0
 28 26  1  0  0  0  0
 29 24  2  0  0  0  0
 30 31  1  0  0  0  0
 31 22  2  0  0  0  0
 32 34  2  0  0  0  0
 32 33  1  0  0  0  0
M  END
>  <MODEL>
1

>  <REMARK>
 VINA RESULT:     -10.2      0.000      0.000
  Name = 
  4 active torsions:
  status: ('A' for Active; 'I' for Inactive)
    1  A    between atoms: C_3  and  C_25
    2  A    between atoms: C_7  and  C_11
    3  A    between atoms: C_8  and  C_18
    4  A    between atoms: C_18  and  C_30
                            x       y       z     vdW  Elec       q    Type
                         _______ _______ _______ _____ _____    ______ ____

>  <TORSDO>
F 4

$$$$
=
 OpenBabel11062409263D

 34 39  0  0  1  0  0  0  0  0999 V2000
  160.7220  210.2870  153.3540 C   0  0  0  0  0  0  0  0  0  0  0  0
  160.4960  211.8570  151.4970 C   0  0  0  0  0  0  0  0  0  0  0  0
  159.4030  212.3950  153.6390 C   0  0  0  0  0  3  0  0  0  0  0  0
  161.0600  206.9100  153.9600 C   0  0  0  0  0  0  0  0  0  0  0  0
  161.2880  207.8780  153.1210 N   0  0  0  0  0  0  0  0  0  0  0  0
  160.3390  208.6620  155.0810 C   0  0  0  0  0  0  0  0  0  0  0  0
  159.5940  209.5790  155.8760 N   0  0  0  0  0  0  0  0  0  0  0  0
  160.4070  207.3500  155.2130 C   0  0  0  0  0  3  0  0  0  0  0  0
  160.2220  211.3470  154.3310 C   0  0  1  0  0  3  0  0  0  0  0  0
  160.8520  209.0380  153.8080 C   0  0  0  0  0  0  0  0  0  0  0  0
  159.5090  210.8020  155.5070 N   0  0  0  0  0  0  0  0  0  0  0  0
  160.8060  212.3970  150.1260 C   0  0  0  0  0  2  0  0  0  0  0  0
  161.3870  211.3430  149.1880 C   0  0  2  0  0  3  0  0  0  0  0  0
  162.5060  210.5940  149.9000 C   0  0  0  0  0  2  0  0  0  0  0  0
  159.5720  212.6500  152.3380 C   0  0  0  0  0  3  0  0  0  0  0  0
  161.9200  209.8440  151.0880 C   0  0  0  0  0  2  0  0  0  0  0  0
  161.0620  210.7190  151.9720 C   0  0  0  0  0  0  0  0  0  0  0  0
  161.8600  211.9940  147.8900 C   0  0  2  0  0  3  0  0  0  0  0  0
  162.5580  213.3120  148.1700 C   0  0  0  0  0  1  0  0  0  0  0  0
  160.7940  212.1990  147.0090 O   0  0  0  0  0  1  0  0  0  0  0  0
  161.3180  205.4820  153.6170 C   0  0  0  0  0  2  0  0  0  0  0  0
  161.2450  203.8060  150.2570 N   0  0  0  0  0  0  0  0  0  0  0  0
  161.2070  206.3810  151.2820 C   0  0  0  0  0  3  0  0  0  0  0  0
  161.1100  205.7290  147.1330 C   0  0  0  0  0  0  0  0  0  0  0  0
  161.1620  204.6440  148.0190 C   0  0  0  0  0  3  0  0  0  0  0  0
  161.1930  204.8600  149.3980 C   0  0  0  0  0  0  0  0  0  0  0  0
  161.1230  207.2620  149.0240 C   0  0  0  0  0  3  0  0  0  0  0  0
  161.1740  206.1780  149.9020 C   0  0  0  0  0  0  0  0  0  0  0  0
  161.0910  207.0360  147.6440 C   0  0  0  0  0  3  0  0  0  0  0  0
  161.2530  205.2800  152.1420 C   0  0  0  0  0  0  0  0  0  0  0  0
  161.2790  203.9890  151.6050 C   0  0  0  0  0  3  0  0  0  0  0  0
  161.0780  205.4950  145.6810 C   0  0  0  0  0  0  0  0  0  0  0  0
  160.2980  206.1550  144.9440 O   0  0  0  0  0  0  0  0  0  0  0  0
  161.9090  204.5400  145.1060 O   0  0  0  0  0  1  0  0  0  0  0  0
  1 10  2  0  0  0  0
  1  9  1  0  0  0  0
  2 17  2  0  0  0  0
  2 15  1  0  0  0  0
  4  8  1  0  0  0  0
  5 10  1  0  0  0  0
  5  4  2  0  0  0  0
  6  8  2  0  0  0  0
  6  7  1  0  0  0  0
  9  3  1  6  0  0  0
  9 11  1  0  0  0  0
 10  6  1  0  0  0  0
 11  7  2  0  0  0  0
 12  2  1  0  0  0  0
 13 18  1  6  0  0  0
 13 14  1  0  0  0  0
 13 12  1  0  0  0  0
 14 16  1  0  0  0  0
 15  3  2  0  0  0  0
 16 17  1  0  0  0  0
 17  1  1  0  0  0  0
 18 19  1  1  0  0  0
 20 18  1  0  0  0  0
 21  4  1  0  0  0  0
 22 31  1  0  0  0  0
 23 30  1  0  0  0  0
 24 29  1  0  0  0  0
 24 25  2  0  0  0  0
 25 26  1  0  0  0  0
 26 28  1  0  0  0  0
 26 22  2  0  0  0  0
 27 28  1  0  0  0  0
 28 23  2  0  0  0  0
 29 27  2  0  0  0  0
 30 21  1  0  0  0  0
 31 30  2  0  0  0  0
 32 24  1  0  0  0  0
 33 32  2  0  0  0  0
 34 32  1  0  0  0  0
M  END
>  <MODEL>
2

>  <REMARK>
 VINA RESULT:      -9.3      3.118      8.389
  Name = 
  4 active torsions:
  status: ('A' for Active; 'I' for Inactive)
    1  A    between atoms: C_3  and  C_25
    2  A    between atoms: C_7  and  C_11
    3  A    between atoms: C_8  and  C_18
    4  A    between atoms: C_18  and  C_30
                            x       y       z     vdW  Elec       q    Type
                         _______ _______ _______ _____ _____    ______ ____

>  <TORSDO>
F 4

$$$$
=
 OpenBabel11062409263D

 34 39  0  0  1  0  0  0  0  0999 V2000
  160.9080  208.8850  153.5080 C   0  0  0  0  0  0  0  0  0  0  0  0
  159.4000  210.3690  154.7260 C   0  0  0  0  0  0  0  0  0  0  0  0
  160.0310  208.2210  155.7560 C   0  0  0  0  0  3  0  0  0  0  0  0
  161.7400  207.9970  150.2820 C   0  0  0  0  0  0  0  0  0  0  0  0
  161.2870  208.9420  151.0520 N   0  0  0  0  0  0  0  0  0  0  0  0
  161.8860  207.0700  152.2740 C   0  0  0  0  0  0  0  0  0  0  0  0
  161.8350  206.1900  153.3920 N   0  0  0  0  0  0  0  0  0  0  0  0
  162.0930  206.7560  151.0080 C   0  0  0  0  0  3  0  0  0  0  0  0
  161.1530  208.0690  154.7740 C   0  0  1  0  0  3  0  0  0  0  0  0
  161.3760  208.3960  152.3560 C   0  0  0  0  0  0  0  0  0  0  0  0
  161.4600  206.6430  154.5290 N   0  0  0  0  0  0  0  0  0  0  0  0
  158.6660  211.6620  154.9720 C   0  0  0  0  0  2  0  0  0  0  0  0
  158.5070  212.5050  153.7100 C   0  0  2  0  0  3  0  0  0  0  0  0
  159.8480  212.6020  152.9940 C   0  0  0  0  0  2  0  0  0  0  0  0
  159.2560  209.3100  155.7500 C   0  0  0  0  0  3  0  0  0  0  0  0
  160.2660  211.2110  152.5370 C   0  0  0  0  0  2  0  0  0  0  0  0
  160.1960  210.1830  153.6430 C   0  0  0  0  0  0  0  0  0  0  0  0
  157.9370  213.8780  154.0610 C   0  0  2  0  0  3  0  0  0  0  0  0
  157.3450  213.8760  155.4580 C   0  0  0  0  0  1  0  0  0  0  0  0
  156.9680  214.2750  153.1360 O   0  0  0  0  0  1  0  0  0  0  0  0
  161.7680  208.1230  148.7970 C   0  0  0  0  0  2  0  0  0  0  0  0
  161.9310  205.4000  146.2150 N   0  0  0  0  0  0  0  0  0  0  0  0
  161.2860  205.6670  148.8970 C   0  0  0  0  0  3  0  0  0  0  0  0
  161.0450  201.9260  147.0010 C   0  0  0  0  0  0  0  0  0  0  0  0
  161.4540  203.0580  146.2830 C   0  0  0  0  0  3  0  0  0  0  0  0
  161.5350  204.3020  146.9130 C   0  0  0  0  0  0  0  0  0  0  0  0
  160.7930  203.2950  148.9980 C   0  0  0  0  0  3  0  0  0  0  0  0
  161.2020  204.4190  148.2800 C   0  0  0  0  0  0  0  0  0  0  0  0
  160.7150  202.0520  148.3600 C   0  0  0  0  0  3  0  0  0  0  0  0
  161.7010  206.7780  148.1580 C   0  0  0  0  0  0  0  0  0  0  0  0
  162.0160  206.6240  146.8040 C   0  0  0  0  0  3  0  0  0  0  0  0
  160.9610  200.6190  146.3320 C   0  0  0  0  0  0  0  0  0  0  0  0
  161.4900  199.6000  146.8510 O   0  0  0  0  0  1  0  0  0  0  0  0
  160.2970  200.4950  145.1170 O   0  0  0  0  0  0  0  0  0  0  0  0
  1 17  1  0  0  0  0
  1  9  1  0  0  0  0
  2 12  1  0  0  0  0
  2 15  1  0  0  0  0
  4  8  1  0  0  0  0
  4  5  2  0  0  0  0
  5 10  1  0  0  0  0
  6 10  1  0  0  0  0
  6  7  1  0  0  0  0
  7 11  2  0  0  0  0
  8  6  2  0  0  0  0
  9  3  1  1  0  0  0
 10  1  2  0  0  0  0
 11  9  1  0  0  0  0
 13 18  1  1  0  0  0
 13 12  1  0  0  0  0
 14 13  1  0  0  0  0
 15  3  2  0  0  0  0
 16 14  1  0  0  0  0
 16 17  1  0  0  0  0
 17  2  2  0  0  0  0
 18 19  1  1  0  0  0
 20 18  1  0  0  0  0
 21  4  1  0  0  0  0
 22 31  2  0  0  0  0
 22 26  1  0  0  0  0
 24 29  1  0  0  0  0
 25 26  1  0  0  0  0
 25 24  2  0  0  0  0
 26 28  2  0  0  0  0
 28 23  1  0  0  0  0
 28 27  1  0  0  0  0
 29 27  2  0  0  0  0
 30 21  1  0  0  0  0
 30 23  2  0  0  0  0
 31 30  1  0  0  0  0
 32 33  1  0  0  0  0
 32 24  1  0  0  0  0
 34 32  2  0  0  0  0
M  END
>  <MODEL>
3

>  <REMARK>
 VINA RESULT:      -9.3      2.119     10.042
  Name = 
  4 active torsions:
  status: ('A' for Active; 'I' for Inactive)
    1  A    between atoms: C_3  and  C_25
    2  A    between atoms: C_7  and  C_11
    3  A    between atoms: C_8  and  C_18
    4  A    between atoms: C_18  and  C_30
                            x       y       z     vdW  Elec       q    Type
                         _______ _______ _______ _____ _____    ______ ____

>  <TORSDO>
F 4

$$$$
=
 OpenBabel11062409263D

 34 39  0  0  1  0  0  0  0  0999 V2000
  160.7260  210.3330  153.4150 C   0  0  0  0  0  0  0  0  0  0  0  0
  160.4500  211.9820  151.6360 C   0  0  0  0  0  0  0  0  0  0  0  0
  159.4830  212.4610  153.8510 C   0  0  0  0  0  3  0  0  0  0  0  0
  161.0000  206.9260  153.8690 C   0  0  0  0  0  0  0  0  0  0  0  0
  161.2130  207.9210  153.0590 N   0  0  0  0  0  0  0  0  0  0  0  0
  160.3860  208.6490  155.0950 C   0  0  0  0  0  0  0  0  0  0  0  0
  159.7080  209.5520  155.9620 N   0  0  0  0  0  0  0  0  0  0  0  0
  160.4250  207.3310  155.1710 C   0  0  0  0  0  3  0  0  0  0  0  0
  160.3060  211.3640  154.4580 C   0  0  1  0  0  3  0  0  0  0  0  0
  160.8440  209.0630  153.8130 C   0  0  0  0  0  0  0  0  0  0  0  0
  159.6390  210.7900  155.6460 N   0  0  0  0  0  0  0  0  0  0  0  0
  160.7050  212.5690  150.2720 C   0  0  0  0  0  2  0  0  0  0  0  0
  161.2080  211.5390  149.2650 C   0  0  2  0  0  3  0  0  0  0  0  0
  162.3410  210.7330  149.8880 C   0  0  0  0  0  2  0  0  0  0  0  0
  159.5920  212.7640  152.5540 C   0  0  0  0  0  3  0  0  0  0  0  0
  161.7950  209.9510  151.0750 C   0  0  0  0  0  2  0  0  0  0  0  0
  161.0080  210.8120  152.0360 C   0  0  0  0  0  0  0  0  0  0  0  0
  161.6320  212.2310  147.9700 C   0  0  2  0  0  3  0  0  0  0  0  0
  162.0600  213.6610  148.2370 C   0  0  0  0  0  1  0  0  0  0  0  0
  160.6030  212.2110  147.0260 O   0  0  0  0  0  1  0  0  0  0  0  0
  161.2010  205.5070  153.4580 C   0  0  0  0  0  2  0  0  0  0  0  0
  161.4840  206.4580  149.8360 N   0  0  0  0  0  0  0  0  0  0  0  0
  161.1640  204.1570  151.3490 C   0  0  0  0  0  3  0  0  0  0  0  0
  161.3190  203.9550  147.1550 C   0  0  0  0  0  0  0  0  0  0  0  0
  161.4300  205.1910  147.8090 C   0  0  0  0  0  3  0  0  0  0  0  0
  161.3790  205.2580  149.2030 C   0  0  0  0  0  0  0  0  0  0  0  0
  161.1030  202.8440  149.3100 C   0  0  0  0  0  3  0  0  0  0  0  0
  161.2150  204.0760  149.9570 C   0  0  0  0  0  0  0  0  0  0  0  0
  161.1560  202.7850  147.9140 C   0  0  0  0  0  3  0  0  0  0  0  0
  161.2810  205.4010  151.9740 C   0  0  0  0  0  0  0  0  0  0  0  0
  161.4360  206.5510  151.1930 C   0  0  0  0  0  3  0  0  0  0  0  0
  161.3730  203.8910  145.6870 C   0  0  0  0  0  0  0  0  0  0  0  0
  161.9500  204.7970  145.0280 O   0  0  0  0  0  1  0  0  0  0  0  0
  160.7860  202.8280  145.0090 O   0  0  0  0  0  0  0  0  0  0  0  0
  1 10  2  0  0  0  0
  1  9  1  0  0  0  0
  2 17  2  0  0  0  0
  2 15  1  0  0  0  0
  4  8  1  0  0  0  0
  5 10  1  0  0  0  0
  5  4  2  0  0  0  0
  6  8  2  0  0  0  0
  6  7  1  0  0  0  0
  9  3  1  6  0  0  0
  9 11  1  0  0  0  0
 10  6  1  0  0  0  0
 11  7  2  0  0  0  0
 12  2  1  0  0  0  0
 13 18  1  6  0  0  0
 13 14  1  0  0  0  0
 13 12  1  0  0  0  0
 14 16  1  0  0  0  0
 15  3  2  0  0  0  0
 16 17  1  0  0  0  0
 17  1  1  0  0  0  0
 18 19  1  1  0  0  0
 20 18  1  0  0  0  0
 21  4  1  0  0  0  0
 22 31  1  0  0  0  0
 23 30  1  0  0  0  0
 24 25  2  0  0  0  0
 24 29  1  0  0  0  0
 25 26  1  0  0  0  0
 26 22  2  0  0  0  0
 26 28  1  0  0  0  0
 27 28  1  0  0  0  0
 28 23  2  0  0  0  0
 29 27  2  0  0  0  0
 30 21  1  0  0  0  0
 31 30  2  0  0  0  0
 32 24  1  0  0  0  0
 33 32  1  0  0  0  0
 34 32  2  0  0  0  0
M  END
>  <MODEL>
4

>  <REMARK>
 VINA RESULT:      -9.0      3.082      8.824
  Name = 
  4 active torsions:
  status: ('A' for Active; 'I' for Inactive)
    1  A    between atoms: C_3  and  C_25
    2  A    between atoms: C_7  and  C_11
    3  A    between atoms: C_8  and  C_18
    4  A    between atoms: C_18  and  C_30
                            x       y       z     vdW  Elec       q    Type
                         _______ _______ _______ _____ _____    ______ ____

>  <TORSDO>
F 4

$$$$
=
 OpenBabel11062409263D

 34 39  0  0  1  0  0  0  0  0999 V2000
  161.1030  206.8000  151.1150 C   0  0  0  0  0  0  0  0  0  0  0  0
  161.3400  204.6540  149.9760 C   0  0  0  0  0  0  0  0  0  0  0  0
  161.1710  204.6750  152.4340 C   0  0  0  0  0  3  0  0  0  0  0  0
  162.0310  210.1050  150.7890 C   0  0  0  0  0  0  0  0  0  0  0  0
  161.7580  209.0000  150.1590 N   0  0  0  0  0  0  0  0  0  0  0  0
  161.4380  208.7760  152.4410 C   0  0  0  0  0  0  0  0  0  0  0  0
  161.3460  208.0550  153.6650 N   0  0  0  0  0  0  0  0  0  0  0  0
  161.8900  210.0030  152.2590 C   0  0  0  0  0  3  0  0  0  0  0  0
  160.6800  206.0910  152.3970 C   0  0  1  0  0  3  0  0  0  0  0  0
  161.3530  208.1110  151.1860 C   0  0  0  0  0  0  0  0  0  0  0  0
  161.0380  206.8130  153.6380 N   0  0  0  0  0  0  0  0  0  0  0  0
  161.3900  203.7490  148.7720 C   0  0  0  0  0  2  0  0  0  0  0  0
  161.7290  204.4920  147.4830 C   0  0  2  0  0  3  0  0  0  0  0  0
  160.8570  205.7370  147.3710 C   0  0  0  0  0  2  0  0  0  0  0  0
  161.4300  204.0090  151.3050 C   0  0  0  0  0  3  0  0  0  0  0  0
  161.1940  206.6800  148.5180 C   0  0  0  0  0  2  0  0  0  0  0  0
  161.1780  205.9960  149.8660 C   0  0  0  0  0  0  0  0  0  0  0  0
  161.5700  203.5630  146.2810 C   0  0  2  0  0  3  0  0  0  0  0  0
  160.8350  204.2610  145.1520 C   0  0  0  0  0  1  0  0  0  0  0  0
  160.8950  202.3910  146.6340 O   0  0  0  0  0  1  0  0  0  0  0  0
  162.5620  211.3100  150.0900 C   0  0  0  0  0  2  0  0  0  0  0  0
  159.5260  213.3160  149.1570 N   0  0  0  0  0  0  0  0  0  0  0  0
  161.4280  211.7400  147.8980 C   0  0  0  0  0  3  0  0  0  0  0  0
  158.3310  213.5280  145.6930 C   0  0  0  0  0  0  0  0  0  0  0  0
  158.4160  213.7220  147.0790 C   0  0  0  0  0  3  0  0  0  0  0  0
  159.4460  213.1280  147.8120 C   0  0  0  0  0  0  0  0  0  0  0  0
  160.3230  212.1320  145.7750 C   0  0  0  0  0  3  0  0  0  0  0  0
  160.4050  212.3290  147.1540 C   0  0  0  0  0  0  0  0  0  0  0  0
  159.2890  212.7300  145.0480 C   0  0  0  0  0  3  0  0  0  0  0  0
  161.4910  211.9550  149.2780 C   0  0  0  0  0  0  0  0  0  0  0  0
  160.5190  212.7480  149.8950 C   0  0  0  0  0  3  0  0  0  0  0  0
  157.2430  214.1550  144.9270 C   0  0  0  0  0  0  0  0  0  0  0  0
  157.4060  214.4530  143.7130 O   0  0  0  0  0  0  0  0  0  0  0  0
  156.0220  214.4260  145.5340 O   0  0  0  0  0  1  0  0  0  0  0  0
  1 10  2  0  0  0  0
  1  9  1  0  0  0  0
  2 15  1  0  0  0  0
  4  8  1  0  0  0  0
  5  4  2  0  0  0  0
  5 10  1  0  0  0  0
  6  7  1  0  0  0  0
  8  6  2  0  0  0  0
  9  3  1  1  0  0  0
  9 11  1  0  0  0  0
 10  6  1  0  0  0  0
 11  7  2  0  0  0  0
 12  2  1  0  0  0  0
 13 18  1  6  0  0  0
 13 12  1  0  0  0  0
 14 13  1  0  0  0  0
 14 16  1  0  0  0  0
 15  3  2  0  0  0  0
 16 17  1  0  0  0  0
 17  2  2  0  0  0  0
 17  1  1  0  0  0  0
 18 19  1  6  0  0  0
 18 20  1  0  0  0  0
 21  4  1  0  0  0  0
 22 31  1  0  0  0  0
 23 30  1  0  0  0  0
 24 25  2  0  0  0  0
 25 26  1  0  0  0  0
 26 22  2  0  0  0  0
 27 28  1  0  0  0  0
 28 26  1  0  0  0  0
 28 23  2  0  0  0  0
 29 24  1  0  0  0  0
 29 27  2  0  0  0  0
 30 31  2  0  0  0  0
 30 21  1  0  0  0  0
 32 34  1  0  0  0  0
 32 24  1  0  0  0  0
 33 32  2  0  0  0  0
M  END
>  <MODEL>
5

>  <REMARK>
 VINA RESULT:      -9.0      4.543      5.622
  Name = 
  4 active torsions:
  status: ('A' for Active; 'I' for Inactive)
    1  A    between atoms: C_3  and  C_25
    2  A    between atoms: C_7  and  C_11
    3  A    between atoms: C_8  and  C_18
    4  A    between atoms: C_18  and  C_30
                            x       y       z     vdW  Elec       q    Type
                         _______ _______ _______ _____ _____    ______ ____

>  <TORSDO>
F 4

$$$$
=
 OpenBabel11062409263D

 34 39  0  0  1  0  0  0  0  0999 V2000
  160.9210  205.1300  150.5780 C   0  0  0  0  0  0  0  0  0  0  0  0
  161.1780  203.7860  148.5560 C   0  0  0  0  0  0  0  0  0  0  0  0
  160.9480  202.6310  150.7200 C   0  0  0  0  0  3  0  0  0  0  0  0
  161.8690  208.1730  151.8910 C   0  0  0  0  0  0  0  0  0  0  0  0
  161.6080  207.5080  150.8050 N   0  0  0  0  0  0  0  0  0  0  0  0
  161.2300  206.2250  152.6940 C   0  0  0  0  0  0  0  0  0  0  0  0
  161.1050  205.0080  153.4220 N   0  0  0  0  0  0  0  0  0  0  0  0
  161.6910  207.3830  153.1300 C   0  0  0  0  0  3  0  0  0  0  0  0
  160.4640  203.9000  151.3560 C   0  0  1  0  0  3  0  0  0  0  0  0
  161.1740  206.2430  151.2720 C   0  0  0  0  0  0  0  0  0  0  0  0
  160.7930  203.9350  152.7980 N   0  0  0  0  0  0  0  0  0  0  0  0
  161.2550  203.5660  147.0680 C   0  0  0  0  0  2  0  0  0  0  0  0
  161.6290  204.8300  146.2980 C   0  0  2  0  0  3  0  0  0  0  0  0
  160.7650  205.9890  146.7770 C   0  0  0  0  0  2  0  0  0  0  0  0
  161.2330  202.5820  149.4160 C   0  0  0  0  0  3  0  0  0  0  0  0
  161.0760  206.2640  148.2420 C   0  0  0  0  0  2  0  0  0  0  0  0
  161.0240  205.0190  149.0980 C   0  0  0  0  0  0  0  0  0  0  0  0
  161.4960  204.5910  144.7950 C   0  0  2  0  0  3  0  0  0  0  0  0
  161.2300  205.8920  144.0620 C   0  0  0  0  0  1  0  0  0  0  0  0
  160.4790  203.6730  144.5170 O   0  0  0  0  0  1  0  0  0  0  0  0
  162.4220  209.5580  151.8650 C   0  0  0  0  0  2  0  0  0  0  0  0
  161.9230  210.2530  148.2070 N   0  0  0  0  0  0  0  0  0  0  0  0
  161.5180  211.5400  150.6290 C   0  0  0  0  0  3  0  0  0  0  0  0
  160.5510  213.4400  147.0090 C   0  0  0  0  0  0  0  0  0  0  0  0
  161.0830  212.1430  147.0070 C   0  0  0  0  0  3  0  0  0  0  0  0
  161.4040  211.5110  148.2110 C   0  0  0  0  0  0  0  0  0  0  0  0
  160.6630  213.4740  149.4400 C   0  0  0  0  0  3  0  0  0  0  0  0
  161.1920  212.1820  149.4340 C   0  0  0  0  0  0  0  0  0  0  0  0
  160.3440  214.1000  148.2310 C   0  0  0  0  0  3  0  0  0  0  0  0
  162.0430  210.2450  150.5980 C   0  0  0  0  0  0  0  0  0  0  0  0
  162.2450  209.6160  149.3660 C   0  0  0  0  0  3  0  0  0  0  0  0
  160.2150  214.1010  145.7380 C   0  0  0  0  0  0  0  0  0  0  0  0
  161.1250  214.4510  144.9410 O   0  0  0  0  0  0  0  0  0  0  0  0
  158.8880  214.3460  145.4050 O   0  0  0  0  0  1  0  0  0  0  0  0
  1 10  2  0  0  0  0
  1  9  1  0  0  0  0
  2 17  2  0  0  0  0
  2 15  1  0  0  0  0
  4  8  1  0  0  0  0
  5 10  1  0  0  0  0
  5  4  2  0  0  0  0
  6  8  2  0  0  0  0
  6  7  1  0  0  0  0
  9  3  1  6  0  0  0
  9 11  1  0  0  0  0
 10  6  1  0  0  0  0
 11  7  2  0  0  0  0
 12  2  1  0  0  0  0
 13 18  1  6  0  0  0
 13 14  1  0  0  0  0
 13 12  1  0  0  0  0
 14 16  1  0  0  0  0
 15  3  2  0  0  0  0
 16 17  1  0  0  0  0
 17  1  1  0  0  0  0
 18 19  1  6  0  0  0
 20 18  1  0  0  0  0
 21  4  1  0  0  0  0
 22 26  2  0  0  0  0
 22 31  1  0  0  0  0
 24 29  1  0  0  0  0
 25 24  2  0  0  0  0
 25 26  1  0  0  0  0
 26 28  1  0  0  0  0
 28 27  1  0  0  0  0
 28 23  2  0  0  0  0
 29 27  2  0  0  0  0
 30 23  1  0  0  0  0
 30 21  1  0  0  0  0
 31 30  2  0  0  0  0
 32 24  1  0  0  0  0
 33 32  2  0  0  0  0
 34 32  1  0  0  0  0
M  END
>  <MODEL>
6

>  <REMARK>
 VINA RESULT:      -8.9      3.948      4.839
  Name = 
  4 active torsions:
  status: ('A' for Active; 'I' for Inactive)
    1  A    between atoms: C_3  and  C_25
    2  A    between atoms: C_7  and  C_11
    3  A    between atoms: C_8  and  C_18
    4  A    between atoms: C_18  and  C_30
                            x       y       z     vdW  Elec       q    Type
                         _______ _______ _______ _____ _____    ______ ____

>  <TORSDO>
F 4

$$$$
=
 OpenBabel11062409263D

 34 39  0  0  1  0  0  0  0  0999 V2000
  158.8980  211.8590  152.7250 C   0  0  0  0  0  0  0  0  0  0  0  0
  157.4720  213.3250  154.0590 C   0  0  0  0  0  0  0  0  0  0  0  0
  158.6190  214.2630  152.0900 C   0  0  0  0  0  3  0  0  0  0  0  0
  160.9560  209.1140  153.0680 C   0  0  0  0  0  0  0  0  0  0  0  0
  159.9160  209.7400  153.5340 N   0  0  0  0  0  2  0  0  0  0  0  0
  160.7490  210.7780  151.6410 C   0  0  0  0  0  0  0  0  0  0  0  0
  160.9700  211.8790  150.7660 N   0  0  0  0  0  0  0  0  0  0  0  0
  161.5590  209.7630  151.8820 C   0  0  0  0  0  3  0  0  0  0  0  0
  158.9170  212.8810  151.5930 C   0  0  0  0  0  0  0  0  0  0  0  0
  159.7320  210.8190  152.6340 C   0  0  0  0  0  0  0  0  0  0  0  0
  160.1490  212.8610  150.7750 N   0  0  0  0  0  0  0  0  0  0  0  0
  156.4640  213.6330  155.1350 C   0  0  0  0  0  2  0  0  0  0  0  0
  156.3980  212.5550  156.2140 C   0  0  2  0  0  3  0  0  0  0  0  0
  156.3020  211.1850  155.5560 C   0  0  0  0  0  2  0  0  0  0  0  0
  157.9130  214.4530  153.2090 C   0  0  0  0  0  3  0  0  0  0  0  0
  157.5760  210.9280  154.7630 C   0  0  0  0  0  2  0  0  0  0  0  0
  157.9320  212.0680  153.8370 C   0  0  0  0  0  0  0  0  0  0  0  0
  155.2290  212.8270  157.1600 C   0  0  2  0  0  3  0  0  0  0  0  0
  154.3230  211.6150  157.2610 C   0  0  0  0  0  1  0  0  0  0  0  0
  154.4910  213.9390  156.7450 O   0  0  0  0  0  1  0  0  0  0  0  0
  161.5480  207.9300  153.7540 C   0  0  0  0  0  2  0  0  0  0  0  0
  161.1990  204.3280  152.7470 N   0  0  0  0  0  0  0  0  0  0  0  0
  161.3420  206.8100  151.5220 C   0  0  0  0  0  3  0  0  0  0  0  0
  160.9700  203.3110  149.2280 C   0  0  0  0  0  0  0  0  0  0  0  0
  161.0230  203.2380  150.6270 C   0  0  0  0  0  3  0  0  0  0  0  0
  161.1460  204.4010  151.3900 C   0  0  0  0  0  0  0  0  0  0  0  0
  161.1670  205.7340  149.3560 C   0  0  0  0  0  3  0  0  0  0  0  0
  161.2180  205.6560  150.7490 C   0  0  0  0  0  0  0  0  0  0  0  0
  161.0430  204.5640  148.5990 C   0  0  0  0  0  3  0  0  0  0  0  0
  161.3870  206.7080  152.9150 C   0  0  0  0  0  0  0  0  0  0  0  0
  161.3200  205.4460  153.5140 C   0  0  0  0  0  3  0  0  0  0  0  0
  160.8410  202.0820  148.4290 C   0  0  0  0  0  0  0  0  0  0  0  0
  160.6450  200.9720  148.9920 O   0  0  0  0  0  1  0  0  0  0  0  0
  160.9340  202.1340  147.0430 O   0  0  0  0  0  0  0  0  0  0  0  0
  1 17  2  0  0  0  0
  2 12  1  0  0  0  0
  3 15  1  0  0  0  0
  4  5  1  0  0  0  0
  4 21  1  0  0  0  0
  6  8  1  0  0  0  0
  6 10  2  0  0  0  0
  7 11  2  0  0  0  0
  7  6  1  0  0  0  0
  8  4  2  0  0  0  0
  9  3  2  0  0  0  0
  9  1  1  0  0  0  0
 10  1  1  0  0  0  0
 10  5  1  0  0  0  0
 11  9  1  0  0  0  0
 12 13  1  0  0  0  0
 13 18  1  1  0  0  0
 14 13  1  0  0  0  0
 15  2  2  0  0  0  0
 16 14  1  0  0  0  0
 17  2  1  0  0  0  0
 17 16  1  0  0  0  0
 18 19  1  6  0  0  0
 20 18  1  0  0  0  0
 22 31  1  0  0  0  0
 23 30  1  0  0  0  0
 24 25  2  0  0  0  0
 25 26  1  0  0  0  0
 26 22  2  0  0  0  0
 27 28  1  0  0  0  0
 28 26  1  0  0  0  0
 28 23  2  0  0  0  0
 29 24  1  0  0  0  0
 29 27  2  0  0  0  0
 30 31  2  0  0  0  0
 30 21  1  0  0  0  0
 32 33  1  0  0  0  0
 32 24  1  0  0  0  0
 34 32  2  0  0  0  0
M  END
>  <MODEL>
7

>  <REMARK>
 VINA RESULT:      -8.2      2.119     10.402
  Name = 
  4 active torsions:
  status: ('A' for Active; 'I' for Inactive)
    1  A    between atoms: C_3  and  C_25
    2  A    between atoms: C_7  and  C_11
    3  A    between atoms: C_8  and  C_18
    4  A    between atoms: C_18  and  C_30
                            x       y       z     vdW  Elec       q    Type
                         _______ _______ _______ _____ _____    ______ ____

>  <TORSDO>
F 4

$$$$
=
 OpenBabel11062409263D

 34 39  0  0  1  0  0  0  0  0999 V2000
  161.8660  208.1900  151.1060 C   0  0  0  0  0  0  0  0  0  0  0  0
  161.0720  207.2800  153.2280 C   0  0  0  0  0  0  0  0  0  0  0  0
  161.2700  205.7660  151.2940 C   0  0  0  0  0  3  0  0  0  0  0  0
  161.8140  211.1110  149.2740 C   0  0  0  0  0  0  0  0  0  0  0  0
  161.7870  210.5910  150.4660 N   0  0  0  0  0  2  0  0  0  0  0  0
  162.0650  208.9660  148.8410 C   0  0  0  0  0  0  0  0  0  0  0  0
  161.9830  207.6490  148.3080 N   0  0  0  0  0  0  0  0  0  0  0  0
  161.9420  210.1100  148.1920 C   0  0  0  0  0  3  0  0  0  0  0  0
  162.1070  206.7800  150.5740 C   0  0  0  0  0  0  0  0  0  0  0  0
  161.9620  209.2030  150.2410 C   0  0  0  0  0  0  0  0  0  0  0  0
  161.9610  206.6500  149.1080 N   0  0  0  0  0  0  0  0  0  0  0  0
  160.7780  207.3270  154.7050 C   0  0  0  0  0  2  0  0  0  0  0  0
  160.6260  208.7500  155.2360 C   0  0  2  0  0  3  0  0  0  0  0  0
  161.7870  209.6030  154.7400 C   0  0  0  0  0  2  0  0  0  0  0  0
  160.8350  205.9930  152.5370 C   0  0  0  0  0  3  0  0  0  0  0  0
  161.7170  209.6960  153.2220 C   0  0  0  0  0  2  0  0  0  0  0  0
  161.5730  208.3470  152.5550 C   0  0  0  0  0  0  0  0  0  0  0  0
  160.5270  208.7360  156.7610 C   0  0  2  0  0  3  0  0  0  0  0  0
  160.0810  207.3750  157.2610 C   0  0  0  0  0  1  0  0  0  0  0  0
  159.6500  209.7220  157.2190 O   0  0  0  0  0  1  0  0  0  0  0  0
  161.6020  212.5670  149.0350 C   0  0  0  0  0  2  0  0  0  0  0  0
  159.7580  213.0910  145.8050 N   0  0  0  0  0  0  0  0  0  0  0  0
  162.3830  212.9660  146.6880 C   0  0  0  0  0  3  0  0  0  0  0  0
  161.5200  213.6030  142.6270 C   0  0  0  0  0  0  0  0  0  0  0  0
  160.4810  213.4510  143.5550 C   0  0  0  0  0  3  0  0  0  0  0  0
  160.7670  213.2400  144.9060 C   0  0  0  0  0  0  0  0  0  0  0  0
  163.1480  213.3290  144.4150 C   0  0  0  0  0  3  0  0  0  0  0  0
  162.1100  213.1790  145.3370 C   0  0  0  0  0  0  0  0  0  0  0  0
  162.8520  213.5410  143.0650 C   0  0  0  0  0  3  0  0  0  0  0  0
  161.3270  212.8230  147.5930 C   0  0  0  0  0  0  0  0  0  0  0  0
  160.0100  212.8820  147.1270 C   0  0  0  0  0  3  0  0  0  0  0  0
  161.2120  213.8250  141.2050 C   0  0  0  0  0  0  0  0  0  0  0  0
  160.0230  214.0090  140.8300 O   0  0  0  0  0  1  0  0  0  0  0  0
  162.2320  213.8340  140.2600 O   0  0  0  0  0  0  0  0  0  0  0  0
  1 17  2  0  0  0  0
  2 12  1  0  0  0  0
  3 15  1  0  0  0  0
  4  5  1  0  0  0  0
  6 10  2  0  0  0  0
  7  6  1  0  0  0  0
  7 11  2  0  0  0  0
  8  6  1  0  0  0  0
  8  4  2  0  0  0  0
  9  1  1  0  0  0  0
  9  3  2  0  0  0  0
 10  5  1  0  0  0  0
 10  1  1  0  0  0  0
 11  9  1  0  0  0  0
 12 13  1  0  0  0  0
 13 18  1  1  0  0  0
 14 13  1  0  0  0  0
 15  2  2  0  0  0  0
 16 14  1  0  0  0  0
 17 16  1  0  0  0  0
 17  2  1  0  0  0  0
 18 20  1  0  0  0  0
 18 19  1  6  0  0  0
 21  4  1  0  0  0  0
 22 31  1  0  0  0  0
 23 30  1  0  0  0  0
 24 29  1  0  0  0  0
 24 25  2  0  0  0  0
 25 26  1  0  0  0  0
 26 28  1  0  0  0  0
 26 22  2  0  0  0  0
 27 28  1  0  0  0  0
 28 23  2  0  0  0  0
 29 27  2  0  0  0  0
 30 21  1  0  0  0  0
 31 30  2  0  0  0  0
 32 24  1  0  0  0  0
 33 32  1  0  0  0  0
 34 32  2  0  0  0  0
M  END
>  <MODEL>
8

>  <REMARK>
 VINA RESULT:      -7.9      5.321      9.327
  Name = 
  4 active torsions:
  status: ('A' for Active; 'I' for Inactive)
    1  A    between atoms: C_3  and  C_25
    2  A    between atoms: C_7  and  C_11
    3  A    between atoms: C_8  and  C_18
    4  A    between atoms: C_18  and  C_30
                            x       y       z     vdW  Elec       q    Type
                         _______ _______ _______ _____ _____    ______ ____

>  <TORSDO>
F 4

$$$$
=
 OpenBabel11062409263D

 34 39  0  0  1  0  0  0  0  0999 V2000
  158.3580  212.6590  153.8590 C   0  0  0  0  0  0  0  0  0  0  0  0
  157.6860  213.6890  151.7500 C   0  0  0  0  0  0  0  0  0  0  0  0
  156.0820  213.6730  153.6200 C   0  0  0  0  0  3  0  0  0  0  0  0
  160.3450  210.1140  155.0670 C   0  0  0  0  0  0  0  0  0  0  0  0
  160.1720  210.9780  154.1110 N   0  0  0  0  0  0  0  0  0  0  0  0
  158.5860  211.2320  155.7780 C   0  0  0  0  0  0  0  0  0  0  0  0
  157.3250  211.6250  156.3090 N   0  0  0  0  0  0  0  0  0  0  0  0
  159.3280  210.2000  156.1390 C   0  0  0  0  0  2  0  0  0  0  0  0
  157.1840  213.3210  154.5740 C   0  0  0  0  0  0  0  0  0  0  0  0
  159.0520  211.7370  154.5320 C   0  0  0  0  0  0  0  0  0  0  0  0
  156.6660  212.5570  155.7300 N   0  0  0  0  0  0  0  0  0  0  0  0
  157.9150  214.2080  150.3550 C   0  0  0  0  0  2  0  0  0  0  0  0
  159.1460  213.5990  149.6870 C   0  0  2  0  0  3  0  0  0  0  0  0
  160.3270  213.6640  150.6470 C   0  0  0  0  0  2  0  0  0  0  0  0
  156.3360  213.8830  152.3250 C   0  0  0  0  0  3  0  0  0  0  0  0
  160.0210  212.8040  151.8650 C   0  0  0  0  0  2  0  0  0  0  0  0
  158.6730  213.1060  152.4770 C   0  0  0  0  0  0  0  0  0  0  0  0
  159.4340  214.3070  148.3650 C   0  0  2  0  0  3  0  0  0  0  0  0
  158.8150  213.5530  147.2030 C   0  0  0  0  0  1  0  0  0  0  0  0
  160.8080  214.4530  148.1580 O   0  0  0  0  0  1  0  0  0  0  0  0
  161.3960  209.0580  155.0070 C   0  0  0  0  0  2  0  0  0  0  0  0
  160.7790  206.1560  152.7040 N   0  0  0  0  0  0  0  0  0  0  0  0
  161.5150  208.8220  152.5160 C   0  0  0  0  0  3  0  0  0  0  0  0
  161.1620  206.4520  149.0650 C   0  0  0  0  0  0  0  0  0  0  0  0
  160.9080  205.9030  150.3300 C   0  0  0  0  0  3  0  0  0  0  0  0
  161.0240  206.6910  151.4770 C   0  0  0  0  0  0  0  0  0  0  0  0
  161.6560  208.5960  150.1050 C   0  0  0  0  0  3  0  0  0  0  0  0
  161.4010  208.0460  151.3620 C   0  0  0  0  0  0  0  0  0  0  0  0
  161.5360  207.8010  148.9610 C   0  0  0  0  0  3  0  0  0  0  0  0
  161.2510  208.2500  153.7630 C   0  0  0  0  0  0  0  0  0  0  0  0
  160.8870  206.9010  153.8370 C   0  0  0  0  0  3  0  0  0  0  0  0
  161.0380  205.6170  147.8600 C   0  0  0  0  0  0  0  0  0  0  0  0
  160.6080  206.1090  146.7830 O   0  0  0  0  0  0  0  0  0  0  0  0
  161.3950  204.2730  147.8990 O   0  0  0  0  0  1  0  0  0  0  0  0
  1 10  1  0  0  0  0
  1  9  1  0  0  0  0
  2 15  2  0  0  0  0
  2 17  1  0  0  0  0
  3  9  2  0  0  0  0
  4  8  1  0  0  0  0
  5 10  1  0  0  0  0
  5  4  2  0  0  0  0
  6  8  1  0  0  0  0
  6  7  1  0  0  0  0
  9 11  1  0  0  0  0
 10  6  2  0  0  0  0
 11  7  2  0  0  0  0
 12  2  1  0  0  0  0
 13 18  1  6  0  0  0
 13 12  1  0  0  0  0
 13 14  1  0  0  0  0
 14 16  1  0  0  0  0
 15  3  1  0  0  0  0
 16 17  1  0  0  0  0
 17  1  2  0  0  0  0
 18 19  1  6  0  0  0
 20 18  1  0  0  0  0
 21  4  1  0  0  0  0
 22 31  1  0  0  0  0
 23 30  1  0  0  0  0
 24 25  2  0  0  0  0
 25 26  1  0  0  0  0
 26 22  2  0  0  0  0
 27 28  1  0  0  0  0
 28 26  1  0  0  0  0
 28 23  2  0  0  0  0
 29 24  1  0  0  0  0
 29 27  2  0  0  0  0
 30 31  2  0  0  0  0
 30 21  1  0  0  0  0
 32 34  1  0  0  0  0
 32 24  1  0  0  0  0
 33 32  2  0  0  0  0
M  END
>  <MODEL>
9

>  <REMARK>
 VINA RESULT:      -7.7      3.110      8.869
  Name = 
  4 active torsions:
  status: ('A' for Active; 'I' for Inactive)
    1  A    between atoms: C_3  and  C_25
    2  A    between atoms: C_7  and  C_11
    3  A    between atoms: C_8  and  C_18
    4  A    between atoms: C_18  and  C_30
                            x       y       z     vdW  Elec       q    Type
                         _______ _______ _______ _____ _____    ______ ____

>  <TORSDO>
F 4

$$$$
