=
 OpenBabel11062409203D

 37 45  0  0  1  0  0  0  0  0999 V2000
  160.3380  208.2630  156.6660 O   0  0  0  0  0  0  0  0  0  0  0  0
  159.9250  210.3780  152.7210 C   0  0  1  0  0  3  0  0  0  0  0  0
  162.5640  210.4880  149.3990 C   0  0  2  0  0  3  0  0  0  0  0  0
  160.6100  209.6900  154.8320 N   0  0  0  0  0  0  0  0  0  0  0  0
  162.2900  210.2280  150.8750 C   0  0  1  0  0  3  0  0  0  0  0  0
  161.1130  209.8970  153.5000 C   0  0  1  0  0  3  0  0  0  0  0  0
  161.1590  210.6800  149.9580 C   0  0  1  0  0  3  0  0  0  0  0  0
  159.5050  210.6150  155.0480 C   0  0  0  0  0  2  0  0  0  0  0  0
  161.8530  208.7090  152.8560 C   0  0  1  0  0  3  0  0  0  0  0  0
  162.0580  206.2400  152.6650 C   0  0  0  0  0  2  0  0  0  0  0  0
  159.0720  212.5800  153.6480 C   0  0  0  0  0  2  0  0  0  0  0  0
  162.0600  206.3200  151.1270 C   0  0  2  0  0  3  0  0  0  0  0  0
  159.0010  211.0810  153.6590 C   0  0  2  0  0  0  0  0  0  0  0  0
  161.2320  207.3790  153.2610 C   0  0  1  0  0  3  0  0  0  0  0  0
  162.8130  209.2060  148.5720 C   0  0  0  0  0  2  0  0  0  0  0  0
  160.0300  211.8610  152.7360 C   0  0  2  0  0  0  0  0  0  0  0  0
  161.8470  208.8370  151.3260 C   0  0  2  0  0  3  0  0  0  0  0  0
  160.6800  208.4040  155.4630 C   0  0  0  0  0  0  0  0  0  0  0  0
  160.8130  212.1350  150.3230 C   0  0  2  0  0  3  0  0  0  0  0  0
  161.1540  207.2800  154.7150 N   0  0  0  0  0  2  0  0  0  0  0  0
  162.5520  207.7000  150.6060 C   0  0  2  0  0  3  0  0  0  0  0  0
  162.2740  207.8770  149.1150 C   0  0  0  0  0  2  0  0  0  0  0  0
  159.6230  212.2300  151.3090 C   0  0  0  0  0  2  0  0  0  0  0  0
  159.2480  213.4630  148.9000 C   0  0  0  0  0  3  0  0  0  0  0  0
  160.5310  212.9370  149.0920 C   0  0  0  0  0  0  0  0  0  0  0  0
  161.5290  213.1750  148.1350 C   0  0  0  0  0  3  0  0  0  0  0  0
  162.2070  214.1580  146.0720 F   0  0  0  0  0  0  0  0  0  0  0  0
  159.9590  214.4530  146.8070 C   0  0  0  0  0  3  0  0  0  0  0  0
  161.2420  213.9310  146.9950 C   0  0  0  0  0  0  0  0  0  0  0  0
  158.9630  214.2190  147.7590 C   0  0  0  0  0  3  0  0  0  0  0  0
  160.7290  205.8790  150.5680 C   0  0  0  0  0  0  0  0  0  0  0  0
  159.9240  206.6990  150.1500 O   0  0  0  0  0  0  0  0  0  0  0  0
  160.4040  204.4250  150.5020 C   0  0  0  0  0  2  0  0  0  0  0  0
  161.0460  203.8110  149.3060 C   0  0  0  0  0  3  0  0  0  0  0  0
  161.2300  204.5310  148.2050 C   0  0  0  0  0  3  0  0  0  0  0  0
  161.8710  203.9130  147.0110 C   0  0  0  0  0  2  0  0  0  0  0  0
  162.5300  204.9920  146.1780 C   0  0  0  0  0  1  0  0  0  0  0  0
  2 16  1  0  0  0  0
  2  6  1  0  0  0  0
  2 13  1  0  0  0  0
  3  7  1  0  0  0  0
  3  5  1  0  0  0  0
  4  8  1  0  0  0  0
  4 18  1  0  0  0  0
  5 17  1  0  0  0  0
  6  4  1  0  0  0  0
  7 19  1  0  0  0  0
  7  5  1  0  0  0  0
  9 14  1  0  0  0  0
  9  6  1  0  0  0  0
 10 14  1  0  0  0  0
 11 13  1  0  0  0  0
 12 10  1  0  0  0  0
 13  8  1  0  0  0  0
 14 20  1  0  0  0  0
 15 22  1  0  0  0  0
 15  3  1  0  0  0  0
 16 11  1  0  0  0  0
 16 13  1  0  0  0  0
 17  9  1  0  0  0  0
 18  1  2  0  0  0  0
 19 23  1  0  0  0  0
 20 18  1  0  0  0  0
 21 12  1  0  0  0  0
 21 17  1  0  0  0  0
 22 21  1  0  0  0  0
 23 16  1  0  0  0  0
 24 25  1  0  0  0  0
 25 19  1  0  0  0  0
 26 25  2  0  0  0  0
 27 29  1  0  0  0  0
 28 29  2  0  0  0  0
 28 30  1  0  0  0  0
 29 26  1  0  0  0  0
 30 24  2  0  0  0  0
 31 12  1  0  0  0  0
 32 31  2  0  0  0  0
 33 31  1  0  0  0  0
 34 33  1  0  0  0  0
 35 34  2  0  0  0  0
 36 35  1  0  0  0  0
 37 36  1  0  0  0  0
M  END
>  <MODEL>
1

>  <REMARK>
 VINA RESULT:      -6.6      0.000      0.000
  Name = 
  5 active torsions:
  status: ('A' for Active; 'I' for Inactive)
    1  A    between atoms: C_1  and  C_5
    2  A    between atoms: C_1  and  C_23
    3  A    between atoms: C_5  and  C_17
    4  A    between atoms: C_6  and  C_31
    5  A    between atoms: C_11  and  C_26
                            x       y       z     vdW  Elec       q    Type
                         _______ _______ _______ _____ _____    ______ ____

>  <TORSDO>
F 5

$$$$
=
 OpenBabel11062409203D

 37 45  0  0  1  0  0  0  0  0999 V2000
  158.4260  212.0030  157.0270 O   0  0  0  0  0  0  0  0  0  0  0  0
  158.1550  212.4580  152.5630 C   0  0  1  0  0  3  0  0  0  0  0  0
  161.2370  212.6990  149.6570 C   0  0  2  0  0  3  0  0  0  0  0  0
  158.5510  212.7930  154.8290 N   0  0  0  0  0  0  0  0  0  0  0  0
  160.7550  212.7970  151.0980 C   0  0  1  0  0  3  0  0  0  0  0  0
  159.2270  212.7890  153.5580 C   0  0  1  0  0  3  0  0  0  0  0  0
  159.7760  212.4250  149.9910 C   0  0  1  0  0  3  0  0  0  0  0  0
  157.1620  213.1710  154.6020 C   0  0  0  0  0  2  0  0  0  0  0  0
  160.4820  211.9020  153.4540 C   0  0  1  0  0  3  0  0  0  0  0  0
  161.6330  209.8280  154.1920 C   0  0  0  0  0  2  0  0  0  0  0  0
  156.3550  214.2460  152.5520 C   0  0  0  0  0  2  0  0  0  0  0  0
  161.9530  209.4400  152.7360 C   0  0  2  0  0  3  0  0  0  0  0  0
  156.8490  212.9400  153.1030 C   0  0  2  0  0  0  0  0  0  0  0  0
  160.3300  210.6220  154.2630 C   0  0  1  0  0  3  0  0  0  0  0  0
  162.1280  211.4660  149.3770 C   0  0  0  0  0  2  0  0  0  0  0  0
  157.6910  213.7730  152.0460 C   0  0  2  0  0  0  0  0  0  0  0  0
  160.7750  211.5550  151.9870 C   0  0  2  0  0  3  0  0  0  0  0  0
  158.9520  211.9130  155.8880 C   0  0  0  0  0  0  0  0  0  0  0  0
  158.8380  213.6260  149.7720 C   0  0  2  0  0  3  0  0  0  0  0  0
  159.9680  210.9350  155.6420 N   0  0  0  0  0  2  0  0  0  0  0  0
  161.9970  210.6740  151.7910 C   0  0  2  0  0  3  0  0  0  0  0  0
  162.0170  210.2630  150.3210 C   0  0  0  0  0  2  0  0  0  0  0  0
  157.5090  213.4890  150.5550 C   0  0  0  0  0  2  0  0  0  0  0  0
  159.6360  214.0130  147.4370 C   0  0  0  0  0  3  0  0  0  0  0  0
  158.5620  213.8240  148.3140 C   0  0  0  0  0  0  0  0  0  0  0  0
  157.2510  213.8190  147.8150 C   0  0  0  0  0  3  0  0  0  0  0  0
  155.7520  213.9970  145.9700 F   0  0  0  0  0  0  0  0  0  0  0  0
  158.0950  214.1910  145.5770 C   0  0  0  0  0  3  0  0  0  0  0  0
  157.0190  214.0020  146.4500 C   0  0  0  0  0  0  0  0  0  0  0  0
  159.4030  214.1970  146.0710 C   0  0  0  0  0  3  0  0  0  0  0  0
  161.0470  208.3270  152.2700 C   0  0  0  0  0  0  0  0  0  0  0  0
  159.9330  208.5710  151.8290 O   0  0  0  0  0  0  0  0  0  0  0  0
  161.5260  206.9150  152.3240 C   0  0  0  0  0  2  0  0  0  0  0  0
  161.5510  206.3300  150.9540 C   0  0  0  0  0  3  0  0  0  0  0  0
  161.0260  205.1300  150.7320 C   0  0  0  0  0  3  0  0  0  0  0  0
  161.0530  204.5480  149.3620 C   0  0  0  0  0  2  0  0  0  0  0  0
  160.7400  203.0690  149.4370 C   0  0  0  0  0  1  0  0  0  0  0  0
  2 13  1  0  0  0  0
  2  6  1  0  0  0  0
  3  7  1  0  0  0  0
  3  5  1  0  0  0  0
  4 18  1  0  0  0  0
  5 17  1  0  0  0  0
  6  4  1  0  0  0  0
  7  5  1  0  0  0  0
  8  4  1  0  0  0  0
  9  6  1  0  0  0  0
  9 14  1  0  0  0  0
 10 14  1  0  0  0  0
 11 13  1  0  0  0  0
 12 10  1  0  0  0  0
 13  8  1  0  0  0  0
 14 20  1  0  0  0  0
 15  3  1  0  0  0  0
 15 22  1  0  0  0  0
 16 11  1  0  0  0  0
 16  2  1  0  0  0  0
 16 13  1  0  0  0  0
 17  9  1  0  0  0  0
 18  1  2  0  0  0  0
 19  7  1  0  0  0  0
 19 23  1  0  0  0  0
 20 18  1  0  0  0  0
 21 17  1  0  0  0  0
 21 12  1  0  0  0  0
 22 21  1  0  0  0  0
 23 16  1  0  0  0  0
 24 25  1  0  0  0  0
 25 19  1  0  0  0  0
 26 25  2  0  0  0  0
 27 29  1  0  0  0  0
 28 30  1  0  0  0  0
 28 29  2  0  0  0  0
 29 26  1  0  0  0  0
 30 24  2  0  0  0  0
 31 33  1  0  0  0  0
 31 12  1  0  0  0  0
 32 31  2  0  0  0  0
 34 33  1  0  0  0  0
 35 34  2  0  0  0  0
 36 37  1  0  0  0  0
 36 35  1  0  0  0  0
M  END
>  <MODEL>
2

>  <REMARK>
 VINA RESULT:      -4.4      2.025      3.304
  Name = 
  5 active torsions:
  status: ('A' for Active; 'I' for Inactive)
    1  A    between atoms: C_1  and  C_5
    2  A    between atoms: C_1  and  C_23
    3  A    between atoms: C_5  and  C_17
    4  A    between atoms: C_6  and  C_31
    5  A    between atoms: C_11  and  C_26
                            x       y       z     vdW  Elec       q    Type
                         _______ _______ _______ _____ _____    ______ ____

>  <TORSDO>
F 5

$$$$
