=
 OpenBabel11062409523D

 34 39  0  0  1  0  0  0  0  0999 V2000
  158.7870  211.3440  140.7040 C   0  0  1  0  0  3  0  0  0  0  0  0
  159.5470  210.8540  138.3920 C   0  0  0  0  0  0  0  0  0  0  0  0
  161.7540  207.9320  138.7760 C   0  0  0  0  0  0  0  0  0  0  0  0
  161.9170  213.1300  141.7750 C   0  0  2  0  0  3  0  0  0  0  0  0
  157.8650  212.5970  138.6080 C   0  0  1  0  0  3  0  0  0  0  0  0
  160.5740  214.2150  139.7890 C   0  0  0  0  0  2  0  0  0  0  0  0
  163.7290  211.6400  138.7820 C   0  0  1  0  0  3  0  0  0  0  0  0
  158.6710  213.3800  142.0790 C   0  0  2  0  0  3  0  0  0  0  0  0
  159.1880  211.9460  142.0430 C   0  0  0  0  0  2  0  0  0  0  0  0
  157.8310  213.6020  140.8370 C   0  0  2  0  0  3  0  0  0  0  0  0
  163.2410  212.7150  137.8270 C   0  0  0  0  0  0  0  0  0  0  0  0
  155.4340  214.0680  140.0170 C   0  0  0  0  0  2  0  0  0  0  0  0
  161.7760  207.1690  137.4960 C   0  0  0  0  0  1  0  0  0  0  0  0
  162.9580  211.6240  140.0830 C   0  0  2  0  0  3  0  0  0  0  0  0
  164.0210  213.1790  137.0120 O   0  0  0  0  0  0  0  0  0  0  0  0
  162.9250  212.7880  140.7390 C   0  0  0  0  0  2  0  0  0  0  0  0
  156.4640  214.2130  141.1500 C   0  0  0  0  0  2  0  0  0  0  0  0
  159.7920  214.4350  142.2040 C   0  0  0  0  0  2  0  0  0  0  0  0
  156.5290  213.0150  138.0010 C   0  0  0  0  0  2  0  0  0  0  0  0
  157.7210  212.2820  140.1080 C   0  0  2  0  0  3  0  0  0  0  0  0
  163.8280  210.2930  138.0900 C   0  0  0  0  0  1  0  0  0  0  0  0
  156.0120  214.3160  138.6220 C   0  0  0  0  0  2  0  0  0  0  0  0
  160.2360  209.6950  137.7890 C   0  0  0  0  0  2  0  0  0  0  0  0
  162.3590  207.4600  139.7750 O   0  0  0  0  0  0  0  0  0  0  0  0
  161.0610  209.1900  138.8720 N   0  0  0  0  0  0  0  0  0  0  0  0
  161.8260  213.2350  137.8610 C   0  0  0  0  0  2  0  0  0  0  0  0
  160.9210  209.9520  140.1180 C   0  0  2  0  0  0  0  0  0  0  0  0
  161.6960  214.4530  138.7780 C   0  0  0  0  0  2  0  0  0  0  0  0
  162.2950  210.3880  140.6640 C   0  0  0  0  0  2  0  0  0  0  0  0
  161.0110  214.2770  141.2720 C   0  0  1  0  0  3  0  0  0  0  0  0
  162.5700  213.5220  142.9440 O   0  0  0  0  0  1  0  0  0  0  0  0
  158.5030  211.4780  137.8400 C   0  0  0  0  0  3  0  0  0  0  0  0
  160.3170  209.1310  141.0780 O   0  0  0  0  0  1  0  0  0  0  0  0
  160.0090  211.1510  139.7800 C   0  0  2  0  0  3  0  0  0  0  0  0
  1  9  1  1  0  0  0
  2 34  1  0  0  0  0
  3 25  1  0  0  0  0
  3 24  2  0  0  0  0
  4 31  1  1  0  0  0
  5 32  1  6  0  0  0
  5 20  1  0  0  0  0
  6 30  1  0  0  0  0
  7 21  1  6  0  0  0
  7 14  1  0  0  0  0
  8  9  1  6  0  0  0
  8 18  1  0  0  0  0
 10 17  1  1  0  0  0
 10  8  1  0  0  0  0
 11 26  1  0  0  0  0
 11  7  1  0  0  0  0
 12 17  1  0  0  0  0
 13  3  1  0  0  0  0
 14 29  1  1  0  0  0
 14 16  1  0  0  0  0
 15 11  2  0  0  0  0
 16  4  1  0  0  0  0
 19  5  1  0  0  0  0
 19 22  1  0  0  0  0
 20  1  1  0  0  0  0
 20 10  1  0  0  0  0
 22 12  1  0  0  0  0
 23  2  1  0  0  0  0
 23 25  1  0  0  0  0
 25 27  1  0  0  0  0
 26 28  1  0  0  0  0
 27 29  1  0  0  0  0
 27 33  1  0  0  0  0
 28  6  1  0  0  0  0
 30  4  1  0  0  0  0
 30 18  1  0  0  0  0
 32  2  2  0  0  0  0
 34 27  1  0  0  0  0
 34  1  1  0  0  0  0
M  END
>  <MODEL>
1

>  <REMARK>
 VINA RESULT:       1.1      0.000      0.000
  Name = 
  0 active torsions:
  status: ('A' for Active; 'I' for Inactive)
                            x       y       z     vdW  Elec       q    Type
                         _______ _______ _______ _____ _____    ______ ____

>  <TORSDO>
F 0

$$$$
=
 OpenBabel11062409523D

 34 39  0  0  1  0  0  0  0  0999 V2000
  162.5450  211.5330  140.7980 C   0  0  1  0  0  3  0  0  0  0  0  0
  161.4400  213.7400  141.0600 C   0  0  0  0  0  0  0  0  0  0  0  0
  158.8920  213.1630  143.6550 C   0  0  0  0  0  0  0  0  0  0  0  0
  159.8700  210.0060  138.6430 C   0  0  2  0  0  3  0  0  0  0  0  0
  163.3730  213.6900  139.5860 C   0  0  1  0  0  3  0  0  0  0  0  0
  161.0990  212.1160  137.6610 C   0  0  0  0  0  2  0  0  0  0  0  0
  157.5000  212.7820  139.7100 C   0  0  1  0  0  3  0  0  0  0  0  0
  163.1290  210.1210  138.8700 C   0  0  2  0  0  3  0  0  0  0  0  0
  162.4070  210.1340  140.2130 C   0  0  0  0  0  2  0  0  0  0  0  0
  163.8320  211.4550  138.7080 C   0  0  2  0  0  3  0  0  0  0  0  0
  158.0180  213.7590  138.6690 C   0  0  0  0  0  0  0  0  0  0  0  0
  166.1500  212.5660  138.5450 C   0  0  0  0  0  2  0  0  0  0  0  0
  158.5990  214.4520  144.3420 C   0  0  0  0  0  1  0  0  0  0  0  0
  158.4160  211.5950  139.8990 C   0  0  2  0  0  3  0  0  0  0  0  0
  157.2190  214.4500  138.0580 O   0  0  0  0  0  0  0  0  0  0  0  0
  158.7020  210.9120  138.7860 C   0  0  0  0  0  2  0  0  0  0  0  0
  165.3020  211.3040  138.3130 C   0  0  0  0  0  2  0  0  0  0  0  0
  162.2000  209.8190  137.6750 C   0  0  0  0  0  2  0  0  0  0  0  0
  164.6690  214.4530  139.3310 C   0  0  0  0  0  2  0  0  0  0  0  0
  163.6550  212.2330  139.9920 C   0  0  2  0  0  3  0  0  0  0  0  0
  157.1180  213.4980  140.9920 C   0  0  0  0  0  1  0  0  0  0  0  0
  165.4450  213.8650  138.1490 C   0  0  0  0  0  2  0  0  0  0  0  0
  160.5180  214.2840  142.0770 C   0  0  0  0  0  2  0  0  0  0  0  0
  158.3540  212.1090  144.0860 O   0  0  0  0  0  0  0  0  0  0  0  0
  159.7690  213.1190  142.5140 N   0  0  0  0  0  0  0  0  0  0  0  0
  159.4870  213.8940  138.3560 C   0  0  0  0  0  2  0  0  0  0  0  0
  160.1740  211.8780  141.8430 C   0  0  2  0  0  0  0  0  0  0  0  0
  159.9070  212.9640  137.2160 C   0  0  0  0  0  2  0  0  0  0  0  0
  158.9570  211.1450  141.2440 C   0  0  0  0  0  2  0  0  0  0  0  0
  160.8650  210.5870  137.6120 C   0  0  1  0  0  3  0  0  0  0  0  0
  159.4330  208.7510  138.2210 O   0  0  0  0  0  1  0  0  0  0  0  0
  162.4860  214.4040  140.5630 C   0  0  0  0  0  3  0  0  0  0  0  0
  160.7660  211.0320  142.7880 O   0  0  0  0  0  1  0  0  0  0  0  0
  161.2020  212.2950  140.7700 C   0  0  2  0  0  3  0  0  0  0  0  0
  1  9  1  6  0  0  0
  2 23  1  0  0  0  0
  3 24  2  0  0  0  0
  3 13  1  0  0  0  0
  4 31  1  6  0  0  0
  4 16  1  0  0  0  0
  5 19  1  1  0  0  0
  5 20  1  0  0  0  0
  5 32  1  0  0  0  0
  7 14  1  0  0  0  0
  7 21  1  1  0  0  0
  8 18  1  6  0  0  0
  8  9  1  0  0  0  0
 10 17  1  1  0  0  0
 10  8  1  0  0  0  0
 10 20  1  0  0  0  0
 11  7  1  0  0  0  0
 14 16  1  1  0  0  0
 14 29  1  0  0  0  0
 15 11  2  0  0  0  0
 17 12  1  0  0  0  0
 20  1  1  0  0  0  0
 22 12  1  0  0  0  0
 22 19  1  0  0  0  0
 23 25  1  0  0  0  0
 25  3  1  0  0  0  0
 26 11  1  0  0  0  0
 27 25  1  0  0  0  0
 27 33  1  0  0  0  0
 28  6  1  0  0  0  0
 28 26  1  0  0  0  0
 29 27  1  0  0  0  0
 30  6  1  0  0  0  0
 30 18  1  0  0  0  0
 30  4  1  0  0  0  0
 32  2  2  0  0  0  0
 34  1  1  0  0  0  0
 34  2  1  0  0  0  0
 34 27  1  0  0  0  0
M  END
>  <MODEL>
2

>  <REMARK>
 VINA RESULT:       1.3      2.284      6.277
  Name = 
  0 active torsions:
  status: ('A' for Active; 'I' for Inactive)
                            x       y       z     vdW  Elec       q    Type
                         _______ _______ _______ _____ _____    ______ ____

>  <TORSDO>
F 0

$$$$
=
 OpenBabel11062409523D

 34 39  0  0  1  0  0  0  0  0999 V2000
  160.5700  213.8710  140.8000 C   0  0  1  0  0  3  0  0  0  0  0  0
  162.1520  211.9630  140.9370 C   0  0  0  0  0  0  0  0  0  0  0  0
  164.5190  212.5620  138.1810 C   0  0  0  0  0  0  0  0  0  0  0  0
  158.5200  212.4790  137.9730 C   0  0  2  0  0  3  0  0  0  0  0  0
  160.5140  212.1140  142.7290 C   0  0  1  0  0  3  0  0  0  0  0  0
  158.5510  211.0730  140.1970 C   0  0  0  0  0  2  0  0  0  0  0  0
  161.3180  210.0140  137.2260 C   0  0  1  0  0  3  0  0  0  0  0  0
  158.1190  214.0750  140.7980 C   0  0  2  0  0  3  0  0  0  0  0  0
  159.3870  214.4530  140.0400 C   0  0  0  0  0  2  0  0  0  0  0  0
  158.5350  213.4000  142.0900 C   0  0  2  0  0  3  0  0  0  0  0  0
  160.8550  209.0190  138.2760 C   0  0  0  0  0  0  0  0  0  0  0  0
  158.5130  213.6470  144.6540 C   0  0  0  0  0  2  0  0  0  0  0  0
  165.8170  211.9050  138.5060 C   0  0  0  0  0  1  0  0  0  0  0  0
  160.6770  211.3740  137.3920 C   0  0  2  0  0  3  0  0  0  0  0  0
  160.8640  207.8290  138.0070 O   0  0  0  0  0  0  0  0  0  0  0  0
  159.3410  211.3750  137.4140 C   0  0  0  0  0  2  0  0  0  0  0  0
  157.8350  213.9880  143.3170 C   0  0  0  0  0  2  0  0  0  0  0  0
  157.1530  213.1910  139.9800 C   0  0  0  0  0  2  0  0  0  0  0  0
  160.4400  212.0660  144.2520 C   0  0  0  0  0  2  0  0  0  0  0  0
  160.0410  213.4770  142.1910 C   0  0  2  0  0  3  0  0  0  0  0  0
  162.8310  210.0370  137.1210 C   0  0  0  0  0  1  0  0  0  0  0  0
  158.9970  212.1980  144.7490 C   0  0  0  0  0  2  0  0  0  0  0  0
  163.4630  211.7020  140.3120 C   0  0  0  0  0  2  0  0  0  0  0  0
  164.4380  213.2680  137.1420 O   0  0  0  0  0  0  0  0  0  0  0  0
  163.3720  212.3880  139.0340 N   0  0  0  0  0  0  0  0  0  0  0  0
  160.3710  209.4550  139.6370 C   0  0  0  0  0  2  0  0  0  0  0  0
  162.0910  213.0730  138.8290 C   0  0  2  0  0  0  0  0  0  0  0  0
  158.8580  209.6770  139.6520 C   0  0  0  0  0  2  0  0  0  0  0  0
  161.4550  212.6750  137.4820 C   0  0  0  0  0  2  0  0  0  0  0  0
  157.7650  211.9900  139.2300 C   0  0  1  0  0  3  0  0  0  0  0  0
  157.6060  212.9090  137.0110 O   0  0  0  0  0  1  0  0  0  0  0  0
  161.8740  211.7320  142.2230 C   0  0  0  0  0  3  0  0  0  0  0  0
  162.3200  214.4530  138.8060 O   0  0  0  0  0  1  0  0  0  0  0  0
  161.2090  212.6900  140.0370 C   0  0  2  0  0  3  0  0  0  0  0  0
  1  9  1  6  0  0  0
  1 20  1  0  0  0  0
  2 32  2  0  0  0  0
  3 13  1  0  0  0  0
  3 25  1  0  0  0  0
  4 31  1  6  0  0  0
  4 30  1  0  0  0  0
  5 32  1  1  0  0  0
  5 19  1  0  0  0  0
  7 21  1  1  0  0  0
  7 14  1  0  0  0  0
  7 11  1  0  0  0  0
  8 18  1  6  0  0  0
  8 10  1  0  0  0  0
  9  8  1  0  0  0  0
 10 20  1  0  0  0  0
 10 17  1  1  0  0  0
 11 26  1  0  0  0  0
 12 22  1  0  0  0  0
 14 16  1  6  0  0  0
 14 29  1  0  0  0  0
 15 11  2  0  0  0  0
 16  4  1  0  0  0  0
 17 12  1  0  0  0  0
 19 22  1  0  0  0  0
 20  5  1  0  0  0  0
 23  2  1  0  0  0  0
 24  3  2  0  0  0  0
 25 23  1  0  0  0  0
 26 28  1  0  0  0  0
 27 25  1  0  0  0  0
 27 34  1  0  0  0  0
 28  6  1  0  0  0  0
 29 27  1  0  0  0  0
 30 18  1  0  0  0  0
 30  6  1  0  0  0  0
 33 27  1  0  0  0  0
 34  1  1  0  0  0  0
 34  2  1  0  0  0  0
M  END
>  <MODEL>
3

>  <REMARK>
 VINA RESULT:       1.4      1.926      4.745
  Name = 
  0 active torsions:
  status: ('A' for Active; 'I' for Inactive)
                            x       y       z     vdW  Elec       q    Type
                         _______ _______ _______ _____ _____    ______ ____

>  <TORSDO>
F 0

$$$$
=
 OpenBabel11062409523D

 34 39  0  0  1  0  0  0  0  0999 V2000
  160.3730  210.7110  137.5620 C   0  0  1  0  0  3  0  0  0  0  0  0
  158.7730  210.5490  139.4530 C   0  0  0  0  0  0  0  0  0  0  0  0
  156.4790  213.3810  138.9290 C   0  0  0  0  0  0  0  0  0  0  0  0
  162.4800  213.4390  139.0640 C   0  0  2  0  0  3  0  0  0  0  0  0
  160.3660  208.7240  139.2540 C   0  0  1  0  0  3  0  0  0  0  0  0
  162.3820  211.1700  140.3950 C   0  0  0  0  0  2  0  0  0  0  0  0
  159.6810  214.1720  141.5310 C   0  0  1  0  0  3  0  0  0  0  0  0
  162.8250  210.6590  137.3770 C   0  0  2  0  0  3  0  0  0  0  0  0
  161.5800  211.4600  137.0150 C   0  0  0  0  0  2  0  0  0  0  0  0
  162.3720  209.3550  138.0060 C   0  0  2  0  0  3  0  0  0  0  0  0
  160.1100  213.0780  142.4940 C   0  0  0  0  0  0  0  0  0  0  0  0
  162.3330  206.8010  137.6740 C   0  0  0  0  0  2  0  0  0  0  0  0
  155.1680  213.0680  139.5640 C   0  0  0  0  0  1  0  0  0  0  0  0
  160.3290  214.0360  140.1710 C   0  0  2  0  0  3  0  0  0  0  0  0
  160.0970  213.3080  143.6920 O   0  0  0  0  0  0  0  0  0  0  0  0
  161.6640  213.9810  140.1790 C   0  0  0  0  0  2  0  0  0  0  0  0
  163.0460  208.1320  137.3820 C   0  0  0  0  0  2  0  0  0  0  0  0
  163.8030  211.4230  138.2950 C   0  0  0  0  0  2  0  0  0  0  0  0
  160.4030  207.1990  139.2520 C   0  0  0  0  0  2  0  0  0  0  0  0
  160.8640  209.2950  137.9140 C   0  0  2  0  0  3  0  0  0  0  0  0
  158.1710  214.3150  141.5000 C   0  0  0  0  0  1  0  0  0  0  0  0
  161.8340  206.6710  139.1150 C   0  0  0  0  0  2  0  0  0  0  0  0
  157.4750  211.1980  139.7250 C   0  0  0  0  0  2  0  0  0  0  0  0
  156.5910  214.4410  138.2580 O   0  0  0  0  0  0  0  0  0  0  0  0
  157.6030  212.4950  139.0820 N   0  0  0  0  0  0  0  0  0  0  0  0
  160.5630  211.7210  142.0160 C   0  0  0  0  0  2  0  0  0  0  0  0
  158.8950  212.6910  138.4140 C   0  0  2  0  0  0  0  0  0  0  0  0
  162.0770  211.6760  141.8050 C   0  0  0  0  0  2  0  0  0  0  0  0
  159.5600  214.0080  138.8620 C   0  0  0  0  0  2  0  0  0  0  0  0
  163.2000  212.1470  139.5160 C   0  0  1  0  0  3  0  0  0  0  0  0
  163.4210  214.3910  138.6730 O   0  0  0  0  0  1  0  0  0  0  0  0
  159.0170  209.2510  139.6430 C   0  0  0  0  0  3  0  0  0  0  0  0
  158.6770  212.7660  137.0340 O   0  0  0  0  0  1  0  0  0  0  0  0
  159.7430  211.4500  138.7630 C   0  0  2  0  0  3  0  0  0  0  0  0
  1  9  1  1  0  0  0
  1 20  1  0  0  0  0
  1 34  1  0  0  0  0
  2 32  2  0  0  0  0
  2 23  1  0  0  0  0
  3 25  1  0  0  0  0
  3 13  1  0  0  0  0
  4 31  1  1  0  0  0
  4 30  1  0  0  0  0
  4 16  1  0  0  0  0
  5 19  1  6  0  0  0
  5 32  1  0  0  0  0
  6 28  1  0  0  0  0
  7 21  1  6  0  0  0
  7 11  1  0  0  0  0
  8  9  1  1  0  0  0
  8 10  1  0  0  0  0
  8 18  1  0  0  0  0
 10 17  1  6  0  0  0
 11 15  2  0  0  0  0
 12 22  1  0  0  0  0
 14 29  1  6  0  0  0
 14 16  1  0  0  0  0
 14  7  1  0  0  0  0
 17 12  1  0  0  0  0
 18 30  1  0  0  0  0
 20 10  1  0  0  0  0
 20  5  1  0  0  0  0
 22 19  1  0  0  0  0
 24  3  2  0  0  0  0
 25 23  1  0  0  0  0
 26 11  1  0  0  0  0
 27 34  1  0  0  0  0
 27 29  1  0  0  0  0
 27 25  1  0  0  0  0
 28 26  1  0  0  0  0
 30  6  1  0  0  0  0
 33 27  1  0  0  0  0
 34  2  1  0  0  0  0
M  END
>  <MODEL>
4

>  <REMARK>
 VINA RESULT:       1.7      2.164      5.938
  Name = 
  0 active torsions:
  status: ('A' for Active; 'I' for Inactive)
                            x       y       z     vdW  Elec       q    Type
                         _______ _______ _______ _____ _____    ______ ____

>  <TORSDO>
F 0

$$$$
