=
 OpenBabel11052422453D

 31 34  0  0  1  0  0  0  0  0999 V2000
  161.3820  207.1270  150.3570 C   0  0  0  0  0  0  0  0  0  0  0  0
  161.2530  205.7710  149.9780 C   0  0  0  0  0  0  0  0  0  0  0  0
  160.9210  203.4200  150.5110 C   0  0  0  0  0  3  0  0  0  0  0  0
  161.2930  207.5990  151.7570 C   0  0  0  0  0  0  0  0  0  0  0  0
  160.9940  207.9190  153.8870 C   0  0  0  0  0  0  0  0  0  0  0  0
  161.0400  204.7500  150.9180 C   0  0  0  0  0  3  0  0  0  0  0  0
  161.6690  209.5920  149.7190 C   0  0  2  0  0  3  0  0  0  0  0  0
  161.5550  206.4010  147.6790 N   0  0  0  0  0  0  0  0  0  0  0  0
  161.0150  203.0930  149.1570 C   0  0  0  0  0  3  0  0  0  0  0  0
  162.1610  209.8820  151.1500 C   0  0  0  0  0  2  0  0  0  0  0  0
  161.6300  208.1060  149.3640 C   0  0  0  0  0  0  0  0  0  0  0  0
  160.8730  206.9460  152.9040 C   0  0  0  0  0  3  0  0  0  0  0  0
  161.3190  203.7470  146.8610 O   0  0  0  0  0  1  0  0  0  0  0  0
  161.6180  208.8800  152.1120 C   0  0  0  0  0  0  0  0  0  0  0  0
  161.4400  209.0540  153.3950 O   0  0  0  0  0  0  0  0  0  0  0  0
  161.6830  207.7070  148.0230 C   0  0  0  0  0  3  0  0  0  0  0  0
  161.3500  205.4300  148.6080 C   0  0  0  0  0  0  0  0  0  0  0  0
  161.2280  204.0910  148.2050 C   0  0  0  0  0  0  0  0  0  0  0  0
  160.6770  207.7230  155.2730 C   0  0  0  0  0  0  0  0  0  0  0  0
  160.4200  207.5650  156.3910 N   0  0  0  0  0  0  0  0  0  0  0  0
  162.5100  210.3970  148.7290 C   0  0  0  0  0  2  0  0  0  0  0  0
  161.3510  212.3200  149.5990 O   0  0  0  0  0  1  0  0  0  0  0  0
  163.0520  212.7170  147.9910 C   0  0  0  0  0  1  0  0  0  0  0  0
  161.9410  211.7900  148.4480 C   0  0  1  0  0  0  0  0  0  0  0  0
  160.9030  211.7050  147.3280 C   0  0  0  0  0  2  0  0  0  0  0  0
  160.5580  213.7960  146.2460 O   0  0  0  0  0  0  0  0  0  0  0  0
  160.1630  212.9900  147.1290 C   0  0  0  0  0  0  0  0  0  0  0  0
  157.7780  213.0570  147.7160 C   0  0  0  0  0  0  0  0  0  0  0  0
  157.3030  212.4320  146.4450 C   0  0  0  0  0  1  0  0  0  0  0  0
  156.7620  213.4500  148.7270 C   0  0  0  0  0  1  0  0  0  0  0  0
  159.0340  213.2860  147.9680 N   0  0  0  0  0  0  0  0  0  0  0  0
  1  4  1  0  0  0  0
  2  1  1  0  0  0  0
  2  6  1  0  0  0  0
  3  6  2  0  0  0  0
  4 14  2  0  0  0  0
  4 12  1  0  0  0  0
  5 19  1  0  0  0  0
  7 21  1  6  0  0  0
  7 10  1  0  0  0  0
  8 16  2  0  0  0  0
  8 17  1  0  0  0  0
  9  3  1  0  0  0  0
 10 14  1  0  0  0  0
 11  7  1  0  0  0  0
 11  1  2  0  0  0  0
 12  5  2  0  0  0  0
 13 18  1  0  0  0  0
 14 15  1  0  0  0  0
 15  5  1  0  0  0  0
 16 11  1  0  0  0  0
 17  2  2  0  0  0  0
 18 17  1  0  0  0  0
 18  9  2  0  0  0  0
 19 20  3  0  0  0  0
 24 23  1  6  0  0  0
 24 21  1  0  0  0  0
 24 22  1  0  0  0  0
 25 24  1  0  0  0  0
 26 27  2  0  0  0  0
 27 25  1  0  0  0  0
 27 31  1  0  0  0  0
 28 31  2  0  0  0  0
 28 30  1  0  0  0  0
 29 28  1  0  0  0  0
M  END
>  <MODEL>
1

>  <REMARK>
 VINA RESULT:      -9.0      0.000      0.000
  Name = 
  6 active torsions:
  status: ('A' for Active; 'I' for Inactive)
    1  A    between atoms: C_2  and  C_13
    2  A    between atoms: C_9  and  C_22
    3  A    between atoms: C_9  and  C_23
    4  A    between atoms: C_15  and  C_23
    5  A    between atoms: C_19  and  C_22
    6  A    between atoms: C_19  and  N_24
                            x       y       z     vdW  Elec       q    Type
                         _______ _______ _______ _____ _____    ______ ____

>  <TORSDO>
F 6

$$$$
=
 OpenBabel11052422453D

 31 34  0  0  1  0  0  0  0  0999 V2000
  161.4050  207.3010  150.5080 C   0  0  0  0  0  0  0  0  0  0  0  0
  161.2800  205.9830  150.0130 C   0  0  0  0  0  0  0  0  0  0  0  0
  160.9190  203.5990  150.3360 C   0  0  0  0  0  3  0  0  0  0  0  0
  161.2760  207.6560  151.9390 C   0  0  0  0  0  0  0  0  0  0  0  0
  160.9130  207.7990  154.0780 C   0  0  0  0  0  0  0  0  0  0  0  0
  161.0320  204.8890  150.8570 C   0  0  0  0  0  3  0  0  0  0  0  0
  161.7250  209.8090  150.0870 C   0  0  2  0  0  3  0  0  0  0  0  0
  161.6570  206.8010  147.7840 N   0  0  0  0  0  0  0  0  0  0  0  0
  161.0520  203.3850  148.9630 C   0  0  0  0  0  3  0  0  0  0  0  0
  162.1740  209.9740  151.5510 C   0  0  0  0  0  2  0  0  0  0  0  0
  161.6890  208.3580  149.6080 C   0  0  0  0  0  0  0  0  0  0  0  0
  160.8170  206.9120  153.0130 C   0  0  0  0  0  3  0  0  0  0  0  0
  161.4310  204.2260  146.7400 O   0  0  0  0  0  1  0  0  0  0  0  0
  161.5970  208.9000  152.4090 C   0  0  0  0  0  0  0  0  0  0  0  0
  161.3800  208.9680  153.6970 O   0  0  0  0  0  0  0  0  0  0  0  0
  161.7820  208.0720  148.2400 C   0  0  0  0  0  3  0  0  0  0  0  0
  161.4170  205.7570  148.6220 C   0  0  0  0  0  0  0  0  0  0  0  0
  161.3000  204.4580  148.1050 C   0  0  0  0  0  0  0  0  0  0  0  0
  160.5520  207.4910  155.4320 C   0  0  0  0  0  0  0  0  0  0  0  0
  160.2600  207.2420  156.5240 N   0  0  0  0  0  0  0  0  0  0  0  0
  162.6010  210.6870  149.1940 C   0  0  0  0  0  2  0  0  0  0  0  0
  160.9520  211.3430  147.5670 O   0  0  0  0  0  1  0  0  0  0  0  0
  161.0380  212.5900  149.5850 C   0  0  0  0  0  1  0  0  0  0  0  0
  161.8310  211.8350  148.5360 C   0  0  1  0  0  0  0  0  0  0  0  0
  162.8150  212.8110  147.8910 C   0  0  0  0  0  2  0  0  0  0  0  0
  161.3100  214.4500  147.0480 O   0  0  0  0  0  0  0  0  0  0  0  0
  162.2000  213.6010  146.7790 C   0  0  0  0  0  0  0  0  0  0  0  0
  161.8840  212.9700  144.4250 C   0  0  0  0  0  0  0  0  0  0  0  0
  160.4190  212.7040  144.5470 C   0  0  0  0  0  1  0  0  0  0  0  0
  162.5260  212.7650  143.1010 C   0  0  0  0  0  1  0  0  0  0  0  0
  162.6210  213.3530  145.4270 N   0  0  0  0  0  0  0  0  0  0  0  0
  1  4  1  0  0  0  0
  2  1  1  0  0  0  0
  2  6  1  0  0  0  0
  3  6  2  0  0  0  0
  4 14  2  0  0  0  0
  4 12  1  0  0  0  0
  5 19  1  0  0  0  0
  7 21  1  6  0  0  0
  7 10  1  0  0  0  0
  8 16  2  0  0  0  0
  8 17  1  0  0  0  0
  9  3  1  0  0  0  0
 10 14  1  0  0  0  0
 11  7  1  0  0  0  0
 11  1  2  0  0  0  0
 12  5  2  0  0  0  0
 13 18  1  0  0  0  0
 14 15  1  0  0  0  0
 15  5  1  0  0  0  0
 16 11  1  0  0  0  0
 17  2  2  0  0  0  0
 18 17  1  0  0  0  0
 18  9  2  0  0  0  0
 19 20  3  0  0  0  0
 22 24  1  0  0  0  0
 24 21  1  0  0  0  0
 24 23  1  1  0  0  0
 25 24  1  0  0  0  0
 27 26  2  0  0  0  0
 27 25  1  0  0  0  0
 28 29  1  0  0  0  0
 28 31  2  0  0  0  0
 30 28  1  0  0  0  0
 31 27  1  0  0  0  0
M  END
>  <MODEL>
2

>  <REMARK>
 VINA RESULT:      -8.9      1.639      2.212
  Name = 
  6 active torsions:
  status: ('A' for Active; 'I' for Inactive)
    1  A    between atoms: C_2  and  C_13
    2  A    between atoms: C_9  and  C_22
    3  A    between atoms: C_9  and  C_23
    4  A    between atoms: C_15  and  C_23
    5  A    between atoms: C_19  and  C_22
    6  A    between atoms: C_19  and  N_24
                            x       y       z     vdW  Elec       q    Type
                         _______ _______ _______ _____ _____    ______ ____

>  <TORSDO>
F 6

$$$$
=
 OpenBabel11052422453D

 31 34  0  0  1  0  0  0  0  0999 V2000
  161.3780  208.5600  152.5420 C   0  0  0  0  0  0  0  0  0  0  0  0
  161.0720  209.3300  153.6880 C   0  0  0  0  0  0  0  0  0  0  0  0
  160.7580  211.4630  154.8140 C   0  0  0  0  0  3  0  0  0  0  0  0
  161.6970  209.1470  151.2210 C   0  0  0  0  0  0  0  0  0  0  0  0
  162.0010  210.3580  149.4410 C   0  0  0  0  0  0  0  0  0  0  0  0
  161.0600  210.7330  153.6630 C   0  0  0  0  0  3  0  0  0  0  0  0
  161.6280  206.2790  151.4020 C   0  0  2  0  0  3  0  0  0  0  0  0
  160.7820  207.3050  154.9500 N   0  0  0  0  0  0  0  0  0  0  0  0
  160.4650  210.7990  156.0070 C   0  0  0  0  0  3  0  0  0  0  0  0
  162.5020  206.9400  150.3200 C   0  0  0  0  0  2  0  0  0  0  0  0
  161.4080  207.1480  152.6400 C   0  0  0  0  0  0  0  0  0  0  0  0
  161.5630  210.4450  150.7560 C   0  0  0  0  0  3  0  0  0  0  0  0
  160.1780  208.7590  157.2510 O   0  0  0  0  0  1  0  0  0  0  0  0
  162.1810  208.3900  150.1890 C   0  0  0  0  0  0  0  0  0  0  0  0
  162.3640  209.1330  149.1290 O   0  0  0  0  0  0  0  0  0  0  0  0
  161.0750  206.5500  153.8620 C   0  0  0  0  0  3  0  0  0  0  0  0
  160.7770  208.6630  154.9020 C   0  0  0  0  0  0  0  0  0  0  0  0
  160.4730  209.4040  156.0550 C   0  0  0  0  0  0  0  0  0  0  0  0
  162.0570  211.4610  148.5240 C   0  0  0  0  0  0  0  0  0  0  0  0
  162.1020  212.3510  147.7850 N   0  0  0  0  0  0  0  0  0  0  0  0
  162.2180  204.9140  151.7560 C   0  0  0  0  0  2  0  0  0  0  0  0
  162.0660  202.5990  151.1110 O   0  0  0  0  0  1  0  0  0  0  0  0
  160.3360  203.4540  152.4940 C   0  0  0  0  0  1  0  0  0  0  0  0
  161.3090  203.7450  151.3670 C   0  0  1  0  0  0  0  0  0  0  0  0
  160.4990  204.1160  150.1240 C   0  0  0  0  0  2  0  0  0  0  0  0
  160.1860  202.1410  148.8340 O   0  0  0  0  0  0  0  0  0  0  0  0
  160.8010  203.2330  148.9540 C   0  0  0  0  0  0  0  0  0  0  0  0
  161.8190  204.7220  147.2850 C   0  0  0  0  0  0  0  0  0  0  0  0
  160.7280  205.7420  147.3240 C   0  0  0  0  0  1  0  0  0  0  0  0
  162.9580  204.9490  146.3590 C   0  0  0  0  0  1  0  0  0  0  0  0
  161.8050  203.6410  148.0090 N   0  0  0  0  0  0  0  0  0  0  0  0
  1 11  2  0  0  0  0
  1  2  1  0  0  0  0
  2 17  1  0  0  0  0
  3  9  2  0  0  0  0
  4  1  1  0  0  0  0
  5 12  2  0  0  0  0
  6  2  2  0  0  0  0
  6  3  1  0  0  0  0
  7 21  1  1  0  0  0
  7 11  1  0  0  0  0
  9 18  1  0  0  0  0
 10  7  1  0  0  0  0
 11 16  1  0  0  0  0
 12  4  1  0  0  0  0
 14 10  1  0  0  0  0
 14  4  2  0  0  0  0
 15  5  1  0  0  0  0
 15 14  1  0  0  0  0
 16  8  2  0  0  0  0
 17  8  1  0  0  0  0
 17 18  2  0  0  0  0
 18 13  1  0  0  0  0
 19  5  1  0  0  0  0
 20 19  3  0  0  0  0
 22 24  1  0  0  0  0
 24 21  1  0  0  0  0
 24 23  1  1  0  0  0
 25 24  1  0  0  0  0
 26 27  2  0  0  0  0
 27 25  1  0  0  0  0
 28 29  1  0  0  0  0
 28 31  2  0  0  0  0
 30 28  1  0  0  0  0
 31 27  1  0  0  0  0
M  END
>  <MODEL>
3

>  <REMARK>
 VINA RESULT:      -8.8      2.584      7.807
  Name = 
  6 active torsions:
  status: ('A' for Active; 'I' for Inactive)
    1  A    between atoms: C_2  and  C_13
    2  A    between atoms: C_9  and  C_22
    3  A    between atoms: C_9  and  C_23
    4  A    between atoms: C_15  and  C_23
    5  A    between atoms: C_19  and  C_22
    6  A    between atoms: C_19  and  N_24
                            x       y       z     vdW  Elec       q    Type
                         _______ _______ _______ _____ _____    ______ ____

>  <TORSDO>
F 6

$$$$
=
 OpenBabel11052422453D

 31 34  0  0  1  0  0  0  0  0999 V2000
  161.3020  206.4970  151.0230 C   0  0  0  0  0  0  0  0  0  0  0  0
  161.2670  205.4470  150.0760 C   0  0  0  0  0  0  0  0  0  0  0  0
  161.3570  204.6220  147.7890 C   0  0  0  0  0  3  0  0  0  0  0  0
  161.4960  207.9190  150.6640 C   0  0  0  0  0  0  0  0  0  0  0  0
  161.9080  209.8580  149.7690 C   0  0  0  0  0  0  0  0  0  0  0  0
  161.4010  205.6810  148.6990 C   0  0  0  0  0  3  0  0  0  0  0  0
  161.2660  207.2900  153.4600 C   0  0  2  0  0  3  0  0  0  0  0  0
  160.9490  203.8690  151.8600 N   0  0  0  0  0  0  0  0  0  0  0  0
  161.1770  203.3150  148.2460 C   0  0  0  0  0  3  0  0  0  0  0  0
  160.8630  208.6940  152.9720 C   0  0  0  0  0  2  0  0  0  0  0  0
  161.1270  206.2000  152.3960 C   0  0  0  0  0  0  0  0  0  0  0  0
  161.8840  208.5030  149.4690 C   0  0  0  0  0  3  0  0  0  0  0  0
  160.8600  201.7530  150.0490 O   0  0  0  0  0  1  0  0  0  0  0  0
  161.3280  208.9270  151.5740 C   0  0  0  0  0  0  0  0  0  0  0  0
  161.5720  210.0850  151.0200 O   0  0  0  0  0  0  0  0  0  0  0  0
  160.9790  204.8620  152.7840 C   0  0  0  0  0  3  0  0  0  0  0  0
  161.0810  204.1200  150.5310 C   0  0  0  0  0  0  0  0  0  0  0  0
  161.0390  203.0600  149.6120 C   0  0  0  0  0  0  0  0  0  0  0  0
  162.2540  210.8940  148.8390 C   0  0  0  0  0  0  0  0  0  0  0  0
  162.5340  211.7300  148.0880 N   0  0  0  0  0  0  0  0  0  0  0  0
  160.4820  206.9570  154.7290 C   0  0  0  0  0  2  0  0  0  0  0  0
  159.4350  208.6960  156.0250 O   0  0  0  0  0  1  0  0  0  0  0  0
  161.0470  207.3450  157.1260 C   0  0  0  0  0  1  0  0  0  0  0  0
  160.6380  208.0120  155.8270 C   0  0  1  0  0  0  0  0  0  0  0  0
  161.7350  209.0030  155.4360 C   0  0  0  0  0  2  0  0  0  0  0  0
  161.9350  210.5180  157.2610 O   0  0  0  0  0  0  0  0  0  0  0  0
  161.5540  210.3450  156.0720 C   0  0  0  0  0  0  0  0  0  0  0  0
  159.8850  212.1000  155.6580 C   0  0  0  0  0  0  0  0  0  0  0  0
  159.1410  211.8910  156.9360 C   0  0  0  0  0  1  0  0  0  0  0  0
  159.3940  213.1460  154.7240 C   0  0  0  0  0  1  0  0  0  0  0  0
  160.9280  211.3980  155.3210 N   0  0  0  0  0  0  0  0  0  0  0  0
  1 11  1  0  0  0  0
  2 17  1  0  0  0  0
  2  1  2  0  0  0  0
  3  9  1  0  0  0  0
  3  6  2  0  0  0  0
  4  1  1  0  0  0  0
  4 14  2  0  0  0  0
  5 15  1  0  0  0  0
  6  2  1  0  0  0  0
  7 21  1  1  0  0  0
  8 16  1  0  0  0  0
  9 18  2  0  0  0  0
 10  7  1  0  0  0  0
 11 16  2  0  0  0  0
 11  7  1  0  0  0  0
 12  5  2  0  0  0  0
 12  4  1  0  0  0  0
 14 10  1  0  0  0  0
 15 14  1  0  0  0  0
 17  8  2  0  0  0  0
 18 13  1  0  0  0  0
 18 17  1  0  0  0  0
 19  5  1  0  0  0  0
 20 19  3  0  0  0  0
 21 24  1  0  0  0  0
 24 22  1  0  0  0  0
 24 23  1  1  0  0  0
 25 24  1  0  0  0  0
 25 27  1  0  0  0  0
 27 26  2  0  0  0  0
 28 29  1  0  0  0  0
 30 28  1  0  0  0  0
 31 28  2  0  0  0  0
 31 27  1  0  0  0  0
M  END
>  <MODEL>
4

>  <REMARK>
 VINA RESULT:      -8.4      2.837      6.232
  Name = 
  6 active torsions:
  status: ('A' for Active; 'I' for Inactive)
    1  A    between atoms: C_2  and  C_13
    2  A    between atoms: C_9  and  C_22
    3  A    between atoms: C_9  and  C_23
    4  A    between atoms: C_15  and  C_23
    5  A    between atoms: C_19  and  C_22
    6  A    between atoms: C_19  and  N_24
                            x       y       z     vdW  Elec       q    Type
                         _______ _______ _______ _____ _____    ______ ____

>  <TORSDO>
F 6

$$$$
=
 OpenBabel11052422453D

 31 34  0  0  1  0  0  0  0  0999 V2000
  161.3180  206.5220  151.0300 C   0  0  0  0  0  0  0  0  0  0  0  0
  161.2770  205.4720  150.0830 C   0  0  0  0  0  0  0  0  0  0  0  0
  161.3450  204.6460  147.7960 C   0  0  0  0  0  3  0  0  0  0  0  0
  161.4980  207.9460  150.6680 C   0  0  0  0  0  0  0  0  0  0  0  0
  161.8880  209.8870  149.7680 C   0  0  0  0  0  0  0  0  0  0  0  0
  161.3930  205.7060  148.7050 C   0  0  0  0  0  3  0  0  0  0  0  0
  161.3060  207.3160  153.4660 C   0  0  2  0  0  3  0  0  0  0  0  0
  160.9910  203.8930  151.8720 N   0  0  0  0  0  0  0  0  0  0  0  0
  161.1780  203.3390  148.2550 C   0  0  0  0  0  3  0  0  0  0  0  0
  160.8890  208.7180  152.9840 C   0  0  0  0  0  2  0  0  0  0  0  0
  161.1610  206.2250  152.4050 C   0  0  0  0  0  0  0  0  0  0  0  0
  161.8680  208.5310  149.4680 C   0  0  0  0  0  3  0  0  0  0  0  0
  160.8930  201.7750  150.0620 O   0  0  0  0  0  1  0  0  0  0  0  0
  161.3350  208.9530  151.5800 C   0  0  0  0  0  0  0  0  0  0  0  0
  161.5660  210.1120  151.0230 O   0  0  0  0  0  0  0  0  0  0  0  0
  161.0260  204.8860  152.7950 C   0  0  0  0  0  3  0  0  0  0  0  0
  161.1050  204.1440  150.5410 C   0  0  0  0  0  0  0  0  0  0  0  0
  161.0580  203.0840  149.6230 C   0  0  0  0  0  0  0  0  0  0  0  0
  162.2170  210.9250  148.8330 C   0  0  0  0  0  0  0  0  0  0  0  0
  162.4820  211.7630  148.0790 N   0  0  0  0  0  0  0  0  0  0  0  0
  160.5400  206.9790  154.7450 C   0  0  0  0  0  2  0  0  0  0  0  0
  161.0730  207.3950  157.0560 O   0  0  0  0  0  1  0  0  0  0  0  0
  161.8330  208.9860  155.4660 C   0  0  0  0  0  1  0  0  0  0  0  0
  160.7310  208.0180  155.8530 C   0  0  1  0  0  0  0  0  0  0  0  0
  159.4400  208.8180  156.0360 C   0  0  0  0  0  2  0  0  0  0  0  0
  160.1040  210.7480  157.2590 O   0  0  0  0  0  0  0  0  0  0  0  0
  159.6860  210.2880  156.1630 C   0  0  0  0  0  0  0  0  0  0  0  0
  158.2690  211.6550  154.6930 C   0  0  0  0  0  0  0  0  0  0  0  0
  157.0020  211.3990  155.4410 C   0  0  0  0  0  1  0  0  0  0  0  0
  158.2070  212.5170  153.4840 C   0  0  0  0  0  1  0  0  0  0  0  0
  159.4140  211.1450  155.0410 N   0  0  0  0  0  0  0  0  0  0  0  0
  1 11  1  0  0  0  0
  2 17  1  0  0  0  0
  2  1  2  0  0  0  0
  3  9  1  0  0  0  0
  3  6  2  0  0  0  0
  4  1  1  0  0  0  0
  4 14  2  0  0  0  0
  5 15  1  0  0  0  0
  6  2  1  0  0  0  0
  7 21  1  1  0  0  0
  8 16  1  0  0  0  0
  9 18  2  0  0  0  0
 10  7  1  0  0  0  0
 11 16  2  0  0  0  0
 11  7  1  0  0  0  0
 12  5  2  0  0  0  0
 12  4  1  0  0  0  0
 14 10  1  0  0  0  0
 15 14  1  0  0  0  0
 17  8  2  0  0  0  0
 18 13  1  0  0  0  0
 18 17  1  0  0  0  0
 19  5  1  0  0  0  0
 20 19  3  0  0  0  0
 21 24  1  0  0  0  0
 24 23  1  6  0  0  0
 24 25  1  0  0  0  0
 24 22  1  0  0  0  0
 25 27  1  0  0  0  0
 27 26  2  0  0  0  0
 28 31  2  0  0  0  0
 28 29  1  0  0  0  0
 30 28  1  0  0  0  0
 31 27  1  0  0  0  0
M  END
>  <MODEL>
5

>  <REMARK>
 VINA RESULT:      -8.2      2.758      6.003
  Name = 
  6 active torsions:
  status: ('A' for Active; 'I' for Inactive)
    1  A    between atoms: C_2  and  C_13
    2  A    between atoms: C_9  and  C_22
    3  A    between atoms: C_9  and  C_23
    4  A    between atoms: C_15  and  C_23
    5  A    between atoms: C_19  and  C_22
    6  A    between atoms: C_19  and  N_24
                            x       y       z     vdW  Elec       q    Type
                         _______ _______ _______ _____ _____    ______ ____

>  <TORSDO>
F 6

$$$$
=
 OpenBabel11052422453D

 31 34  0  0  1  0  0  0  0  0999 V2000
  161.3510  207.1820  151.5270 C   0  0  0  0  0  0  0  0  0  0  0  0
  161.6000  207.9300  150.3540 C   0  0  0  0  0  0  0  0  0  0  0  0
  162.0000  208.0890  147.9600 C   0  0  0  0  0  3  0  0  0  0  0  0
  161.2120  205.7090  151.5460 C   0  0  0  0  0  0  0  0  0  0  0  0
  160.9610  203.5830  151.1620 C   0  0  0  0  0  0  0  0  0  0  0  0
  161.7500  207.3210  149.0990 C   0  0  0  0  0  3  0  0  0  0  0  0
  160.8670  207.0930  154.0430 C   0  0  2  0  0  3  0  0  0  0  0  0
  161.5670  209.9510  151.6540 N   0  0  0  0  0  0  0  0  0  0  0  0
  162.1040  209.4780  148.0610 C   0  0  0  0  0  3  0  0  0  0  0  0
  161.3380  205.6270  154.0580 C   0  0  0  0  0  2  0  0  0  0  0  0
  161.2420  207.8530  152.7700 C   0  0  0  0  0  0  0  0  0  0  0  0
  161.0700  204.8030  150.5080 C   0  0  0  0  0  3  0  0  0  0  0  0
  162.0660  211.4880  149.3830 O   0  0  0  0  0  1  0  0  0  0  0  0
  161.1700  204.9990  152.7160 C   0  0  0  0  0  0  0  0  0  0  0  0
  161.0260  203.7240  152.4680 O   0  0  0  0  0  0  0  0  0  0  0  0
  161.3290  209.2510  152.7910 C   0  0  0  0  0  3  0  0  0  0  0  0
  161.7090  209.3390  150.4490 C   0  0  0  0  0  0  0  0  0  0  0  0
  161.9590  210.1040  149.3000 C   0  0  0  0  0  0  0  0  0  0  0  0
  160.7980  202.3170  150.5070 C   0  0  0  0  0  0  0  0  0  0  0  0
  160.6660  201.2950  149.9780 N   0  0  0  0  0  0  0  0  0  0  0  0
  161.3760  207.7950  155.3010 C   0  0  0  0  0  2  0  0  0  0  0  0
  159.0590  208.3590  155.6320 O   0  0  0  0  0  1  0  0  0  0  0  0
  160.0770  206.9630  157.2600 C   0  0  0  0  0  1  0  0  0  0  0  0
  160.2640  208.1230  156.3000 C   0  0  1  0  0  0  0  0  0  0  0  0
  160.6520  209.3560  157.1160 C   0  0  0  0  0  2  0  0  0  0  0  0
  161.3980  211.0560  155.6270 O   0  0  0  0  0  0  0  0  0  0  0  0
  160.4630  210.6320  156.3570 C   0  0  0  0  0  0  0  0  0  0  0  0
  158.4050  211.7080  155.5560 C   0  0  0  0  0  0  0  0  0  0  0  0
  158.6400  211.4040  154.1130 C   0  0  0  0  0  1  0  0  0  0  0  0
  157.1790  212.4650  155.9220 C   0  0  0  0  0  1  0  0  0  0  0  0
  159.2300  211.3570  156.4990 N   0  0  0  0  0  0  0  0  0  0  0  0
  1  4  1  0  0  0  0
  1 11  1  0  0  0  0
  2 17  1  0  0  0  0
  2  1  2  0  0  0  0
  3  9  1  0  0  0  0
  3  6  2  0  0  0  0
  4 14  2  0  0  0  0
  5 15  1  0  0  0  0
  6  2  1  0  0  0  0
  7 10  1  0  0  0  0
  7 21  1  1  0  0  0
  8 16  1  0  0  0  0
  9 18  2  0  0  0  0
 11 16  2  0  0  0  0
 11  7  1  0  0  0  0
 12  5  2  0  0  0  0
 12  4  1  0  0  0  0
 14 10  1  0  0  0  0
 15 14  1  0  0  0  0
 17  8  2  0  0  0  0
 18 13  1  0  0  0  0
 18 17  1  0  0  0  0
 19  5  1  0  0  0  0
 20 19  3  0  0  0  0
 21 24  1  0  0  0  0
 22 24  1  0  0  0  0
 24 25  1  0  0  0  0
 24 23  1  1  0  0  0
 26 27  2  0  0  0  0
 27 31  1  0  0  0  0
 27 25  1  0  0  0  0
 28 30  1  0  0  0  0
 28 31  2  0  0  0  0
 29 28  1  0  0  0  0
M  END
>  <MODEL>
6

>  <REMARK>
 VINA RESULT:      -7.7      3.069      6.736
  Name = 
  6 active torsions:
  status: ('A' for Active; 'I' for Inactive)
    1  A    between atoms: C_2  and  C_13
    2  A    between atoms: C_9  and  C_22
    3  A    between atoms: C_9  and  C_23
    4  A    between atoms: C_15  and  C_23
    5  A    between atoms: C_19  and  C_22
    6  A    between atoms: C_19  and  N_24
                            x       y       z     vdW  Elec       q    Type
                         _______ _______ _______ _____ _____    ______ ____

>  <TORSDO>
F 6

$$$$
=
 OpenBabel11052422453D

 31 34  0  0  1  0  0  0  0  0999 V2000
  161.3620  208.2090  152.2140 C   0  0  0  0  0  0  0  0  0  0  0  0
  161.2160  208.8060  153.4870 C   0  0  0  0  0  0  0  0  0  0  0  0
  161.2020  210.7460  154.9540 C   0  0  0  0  0  3  0  0  0  0  0  0
  161.6490  208.9720  150.9790 C   0  0  0  0  0  0  0  0  0  0  0  0
  161.9560  210.4240  149.3900 C   0  0  0  0  0  0  0  0  0  0  0  0
  161.3480  210.1890  153.6820 C   0  0  0  0  0  3  0  0  0  0  0  0
  161.2950  206.1310  150.7150 C   0  0  2  0  0  3  0  0  0  0  0  0
  160.8030  206.6380  154.4380 N   0  0  0  0  0  0  0  0  0  0  0  0
  160.9230  209.9260  156.0490 C   0  0  0  0  0  3  0  0  0  0  0  0
  162.1580  206.8770  149.6810 C   0  0  0  0  0  2  0  0  0  0  0  0
  161.2510  206.8030  152.0880 C   0  0  0  0  0  0  0  0  0  0  0  0
  161.6200  210.3350  150.7340 C   0  0  0  0  0  3  0  0  0  0  0  0
  160.5110  207.7450  156.9790 O   0  0  0  0  0  1  0  0  0  0  0  0
  161.9810  208.3530  149.8040 C   0  0  0  0  0  0  0  0  0  0  0  0
  162.1680  209.2380  148.8610 O   0  0  0  0  0  0  0  0  0  0  0  0
  160.9410  206.0460  153.2250 C   0  0  0  0  0  3  0  0  0  0  0  0
  160.9360  207.9800  154.6030 C   0  0  0  0  0  0  0  0  0  0  0  0
  160.7890  208.5470  155.8780 C   0  0  0  0  0  0  0  0  0  0  0  0
  162.0640  211.6520  148.6550 C   0  0  0  0  0  0  0  0  0  0  0  0
  162.1500  212.6430  148.0620 N   0  0  0  0  0  0  0  0  0  0  0  0
  161.7620  204.6780  150.8020 C   0  0  0  0  0  2  0  0  0  0  0  0
  161.9560  202.6750  149.4800 O   0  0  0  0  0  1  0  0  0  0  0  0
  159.7790  203.2920  150.1990 C   0  0  0  0  0  1  0  0  0  0  0  0
  161.1380  203.7800  149.7320 C   0  0  1  0  0  0  0  0  0  0  0  0
  160.9370  204.5780  148.4430 C   0  0  0  0  0  2  0  0  0  0  0  0
  162.7640  204.5280  146.9180 O   0  0  0  0  0  0  0  0  0  0  0  0
  161.6820  203.9960  147.2830 C   0  0  0  0  0  0  0  0  0  0  0  0
  160.5970  202.8320  145.4100 C   0  0  0  0  0  0  0  0  0  0  0  0
  160.4560  204.0460  144.5530 C   0  0  0  0  0  1  0  0  0  0  0  0
  160.0810  201.5400  144.8870 C   0  0  0  0  0  1  0  0  0  0  0  0
  161.1320  202.8590  146.5960 N   0  0  0  0  0  0  0  0  0  0  0  0
  1  2  1  0  0  0  0
  2  6  2  0  0  0  0
  2 17  1  0  0  0  0
  3  9  2  0  0  0  0
  4  1  1  0  0  0  0
  5 12  2  0  0  0  0
  6  3  1  0  0  0  0
  7 21  1  1  0  0  0
  7 11  1  0  0  0  0
  8 17  1  0  0  0  0
 10 14  1  0  0  0  0
 10  7  1  0  0  0  0
 11  1  2  0  0  0  0
 11 16  1  0  0  0  0
 12  4  1  0  0  0  0
 14  4  2  0  0  0  0
 15  5  1  0  0  0  0
 15 14  1  0  0  0  0
 16  8  2  0  0  0  0
 17 18  2  0  0  0  0
 18  9  1  0  0  0  0
 18 13  1  0  0  0  0
 19  5  1  0  0  0  0
 20 19  3  0  0  0  0
 22 24  1  0  0  0  0
 24 23  1  1  0  0  0
 24 21  1  0  0  0  0
 25 24  1  0  0  0  0
 26 27  2  0  0  0  0
 27 25  1  0  0  0  0
 28 31  2  0  0  0  0
 29 28  1  0  0  0  0
 30 28  1  0  0  0  0
 31 27  1  0  0  0  0
M  END
>  <MODEL>
7

>  <REMARK>
 VINA RESULT:      -7.7      2.519      7.678
  Name = 
  6 active torsions:
  status: ('A' for Active; 'I' for Inactive)
    1  A    between atoms: C_2  and  C_13
    2  A    between atoms: C_9  and  C_22
    3  A    between atoms: C_9  and  C_23
    4  A    between atoms: C_15  and  C_23
    5  A    between atoms: C_19  and  C_22
    6  A    between atoms: C_19  and  N_24
                            x       y       z     vdW  Elec       q    Type
                         _______ _______ _______ _____ _____    ______ ____

>  <TORSDO>
F 6

$$$$
=
 OpenBabel11052422453D

 31 34  0  0  1  0  0  0  0  0999 V2000
  161.4860  208.9390  150.9930 C   0  0  0  0  0  0  0  0  0  0  0  0
  161.2560  209.1170  152.3770 C   0  0  0  0  0  0  0  0  0  0  0  0
  161.0180  210.5290  154.3440 C   0  0  0  0  0  3  0  0  0  0  0  0
  161.7190  210.0550  150.0500 C   0  0  0  0  0  0  0  0  0  0  0  0
  161.9080  211.9330  148.9700 C   0  0  0  0  0  0  0  0  0  0  0  0
  161.2440  210.3880  152.9730 C   0  0  0  0  0  3  0  0  0  0  0  0
  161.6580  207.3990  148.9520 C   0  0  2  0  0  3  0  0  0  0  0  0
  161.0460  206.7370  152.6330 N   0  0  0  0  0  0  0  0  0  0  0  0
  160.8020  209.4000  155.1370 C   0  0  0  0  0  3  0  0  0  0  0  0
  162.4620  208.4920  148.2230 C   0  0  0  0  0  2  0  0  0  0  0  0
  161.5200  207.6280  150.4570 C   0  0  0  0  0  0  0  0  0  0  0  0
  161.5570  211.4210  150.2120 C   0  0  0  0  0  3  0  0  0  0  0  0
  160.5940  207.0140  155.3690 O   0  0  0  0  0  1  0  0  0  0  0  0
  162.1340  209.8430  148.7630 C   0  0  0  0  0  0  0  0  0  0  0  0
  162.2500  210.9810  148.1300 O   0  0  0  0  0  0  0  0  0  0  0  0
  161.2660  206.5450  151.3080 C   0  0  0  0  0  3  0  0  0  0  0  0
  161.0390  207.9770  153.1880 C   0  0  0  0  0  0  0  0  0  0  0  0
  160.8110  208.1270  154.5640 C   0  0  0  0  0  0  0  0  0  0  0  0
  161.9060  213.3280  148.6320 C   0  0  0  0  0  0  0  0  0  0  0  0
  161.9040  214.4530  148.3590 N   0  0  0  0  0  0  0  0  0  0  0  0
  162.2690  206.0340  148.6330 C   0  0  0  0  0  2  0  0  0  0  0  0
  160.2810  205.5470  147.3640 O   0  0  0  0  0  1  0  0  0  0  0  0
  162.2600  206.0170  146.1400 C   0  0  0  0  0  1  0  0  0  0  0  0
  161.6690  205.3830  147.3840 C   0  0  1  0  0  0  0  0  0  0  0  0
  162.0120  203.8930  147.3660 C   0  0  0  0  0  2  0  0  0  0  0  0
  160.4000  202.1700  147.6780 O   0  0  0  0  0  0  0  0  0  0  0  0
  161.0880  203.0780  148.2150 C   0  0  0  0  0  0  0  0  0  0  0  0
  160.9540  202.5150  150.6040 C   0  0  0  0  0  0  0  0  0  0  0  0
  161.0010  201.0360  150.4020 C   0  0  0  0  0  1  0  0  0  0  0  0
  160.8420  203.0290  151.9930 C   0  0  0  0  0  1  0  0  0  0  0  0
  160.9890  203.3660  149.6200 N   0  0  0  0  0  0  0  0  0  0  0  0
  1  2  1  0  0  0  0
  2  6  2  0  0  0  0
  2 17  1  0  0  0  0
  3  9  2  0  0  0  0
  4 12  1  0  0  0  0
  4  1  1  0  0  0  0
  5 12  2  0  0  0  0
  6  3  1  0  0  0  0
  7 21  1  1  0  0  0
  7 11  1  0  0  0  0
  8 17  1  0  0  0  0
 10 14  1  0  0  0  0
 10  7  1  0  0  0  0
 11  1  2  0  0  0  0
 11 16  1  0  0  0  0
 14  4  2  0  0  0  0
 15 14  1  0  0  0  0
 15  5  1  0  0  0  0
 16  8  2  0  0  0  0
 17 18  2  0  0  0  0
 18  9  1  0  0  0  0
 18 13  1  0  0  0  0
 19  5  1  0  0  0  0
 20 19  3  0  0  0  0
 22 24  1  0  0  0  0
 24 23  1  6  0  0  0
 24 21  1  0  0  0  0
 25 24  1  0  0  0  0
 25 27  1  0  0  0  0
 26 27  2  0  0  0  0
 27 31  1  0  0  0  0
 28 30  1  0  0  0  0
 29 28  1  0  0  0  0
 31 28  2  0  0  0  0
M  END
>  <MODEL>
8

>  <REMARK>
 VINA RESULT:      -7.5      2.346      7.461
  Name = 
  6 active torsions:
  status: ('A' for Active; 'I' for Inactive)
    1  A    between atoms: C_2  and  C_13
    2  A    between atoms: C_9  and  C_22
    3  A    between atoms: C_9  and  C_23
    4  A    between atoms: C_15  and  C_23
    5  A    between atoms: C_19  and  C_22
    6  A    between atoms: C_19  and  N_24
                            x       y       z     vdW  Elec       q    Type
                         _______ _______ _______ _____ _____    ______ ____

>  <TORSDO>
F 6

$$$$
=
 OpenBabel11052422453D

 31 34  0  0  1  0  0  0  0  0999 V2000
  161.4280  208.4420  152.3070 C   0  0  0  0  0  0  0  0  0  0  0  0
  161.2830  209.0190  153.5900 C   0  0  0  0  0  0  0  0  0  0  0  0
  161.2720  210.9350  155.0890 C   0  0  0  0  0  3  0  0  0  0  0  0
  161.7170  209.2250  151.0850 C   0  0  0  0  0  0  0  0  0  0  0  0
  162.0280  210.7020  149.5200 C   0  0  0  0  0  0  0  0  0  0  0  0
  161.4170  210.3980  153.8080 C   0  0  0  0  0  3  0  0  0  0  0  0
  161.3560  206.3890  150.7750 C   0  0  2  0  0  3  0  0  0  0  0  0
  160.8640  206.8360  154.5060 N   0  0  0  0  0  0  0  0  0  0  0  0
  160.9910  210.0980  156.1700 C   0  0  0  0  0  3  0  0  0  0  0  0
  162.2210  207.1500  149.7530 C   0  0  0  0  0  2  0  0  0  0  0  0
  161.3130  207.0390  152.1590 C   0  0  0  0  0  0  0  0  0  0  0  0
  161.6910  210.5910  150.8620 C   0  0  0  0  0  3  0  0  0  0  0  0
  160.5740  207.9030  157.0650 O   0  0  0  0  0  1  0  0  0  0  0  0
  162.0470  208.6240  149.9010 C   0  0  0  0  0  0  0  0  0  0  0  0
  162.2370  209.5240  148.9720 O   0  0  0  0  0  0  0  0  0  0  0  0
  161.0010  206.2640  153.2840 C   0  0  0  0  0  3  0  0  0  0  0  0
  161.0000  208.1760  154.6920 C   0  0  0  0  0  0  0  0  0  0  0  0
  160.8540  208.7220  155.9770 C   0  0  0  0  0  0  0  0  0  0  0  0
  162.1380  211.9410  148.8050 C   0  0  0  0  0  0  0  0  0  0  0  0
  162.2280  212.9410  148.2270 N   0  0  0  0  0  0  0  0  0  0  0  0
  161.8210  204.9340  150.8380 C   0  0  0  0  0  2  0  0  0  0  0  0
  159.6130  204.2050  150.2100 O   0  0  0  0  0  1  0  0  0  0  0  0
  161.2670  204.2420  148.5070 C   0  0  0  0  0  1  0  0  0  0  0  0
  160.9750  203.9940  149.9750 C   0  0  1  0  0  0  0  0  0  0  0  0
  161.3350  202.5430  150.2930 C   0  0  0  0  0  2  0  0  0  0  0  0
  159.2400  201.5880  149.6890 O   0  0  0  0  0  0  0  0  0  0  0  0
  160.4900  201.5620  149.5410 C   0  0  0  0  0  0  0  0  0  0  0  0
  161.1540  200.5830  147.3870 C   0  0  0  0  0  0  0  0  0  0  0  0
  160.4760  201.6160  146.5490 C   0  0  0  0  0  1  0  0  0  0  0  0
  161.8710  199.4800  146.6970 C   0  0  0  0  0  1  0  0  0  0  0  0
  161.1280  200.5960  148.6880 N   0  0  0  0  0  0  0  0  0  0  0  0
  1  2  1  0  0  0  0
  2  6  2  0  0  0  0
  2 17  1  0  0  0  0
  3  9  2  0  0  0  0
  4  1  1  0  0  0  0
  5 12  2  0  0  0  0
  6  3  1  0  0  0  0
  7 21  1  1  0  0  0
  7 11  1  0  0  0  0
  8 17  1  0  0  0  0
 10 14  1  0  0  0  0
 10  7  1  0  0  0  0
 11  1  2  0  0  0  0
 11 16  1  0  0  0  0
 12  4  1  0  0  0  0
 14  4  2  0  0  0  0
 15  5  1  0  0  0  0
 15 14  1  0  0  0  0
 16  8  2  0  0  0  0
 17 18  2  0  0  0  0
 18  9  1  0  0  0  0
 18 13  1  0  0  0  0
 19  5  1  0  0  0  0
 20 19  3  0  0  0  0
 24 23  1  6  0  0  0
 24 22  1  0  0  0  0
 24 25  1  0  0  0  0
 24 21  1  0  0  0  0
 27 26  2  0  0  0  0
 27 25  1  0  0  0  0
 28 31  2  0  0  0  0
 29 28  1  0  0  0  0
 30 28  1  0  0  0  0
 31 27  1  0  0  0  0
M  END
>  <MODEL>
9

>  <REMARK>
 VINA RESULT:      -7.5      2.714      8.343
  Name = 
  6 active torsions:
  status: ('A' for Active; 'I' for Inactive)
    1  A    between atoms: C_2  and  C_13
    2  A    between atoms: C_9  and  C_22
    3  A    between atoms: C_9  and  C_23
    4  A    between atoms: C_15  and  C_23
    5  A    between atoms: C_19  and  C_22
    6  A    between atoms: C_19  and  N_24
                            x       y       z     vdW  Elec       q    Type
                         _______ _______ _______ _____ _____    ______ ____

>  <TORSDO>
F 6

$$$$
