=
 OpenBabel11052422043D

 30 32  0  0  1  0  0  0  0  0999 V2000
  159.6400  212.9550  153.7390 C   0  0  0  0  0  2  0  0  0  0  0  0
  160.3730  211.6690  154.1020 C   0  0  1  0  0  3  0  0  0  0  0  0
  156.8310  211.0470  154.5450 O   0  0  0  0  0  0  0  0  0  0  0  0
  160.5490  207.2430  155.3920 C   0  0  0  0  0  3  0  0  0  0  0  0
  161.9340  209.9230  153.0530 C   0  0  1  0  0  3  0  0  0  0  0  0
  161.9230  210.6660  155.8020 N   0  0  0  0  0  2  0  0  0  0  0  0
  158.8140  210.4190  156.6530 O   0  0  0  0  0  1  0  0  0  0  0  0
  159.5720  208.8970  152.8810 C   0  0  0  0  0  1  0  0  0  0  0  0
  161.2930  211.3090  152.9370 C   0  0  0  0  0  2  0  0  0  0  0  0
  161.4080  209.3440  155.9940 C   0  0  0  0  0  0  0  0  0  0  0  0
  160.7710  207.2270  157.0560 S   0  0  0  0  0  0  0  0  0  0  0  0
  158.1560  212.6900  153.5160 C   0  0  0  0  0  2  0  0  0  0  0  0
  157.8110  212.5680  156.0910 C   0  0  2  0  0  3  0  0  0  0  0  0
  157.5360  212.0310  154.7070 C   0  0  0  0  0  0  0  0  0  0  0  0
  160.3040  212.3610  156.6260 C   0  0  0  0  0  2  0  0  0  0  0  0
  158.8920  211.7970  156.8580 C   0  0  2  0  0  3  0  0  0  0  0  0
  161.1240  211.8330  155.4300 C   0  0  2  0  0  3  0  0  0  0  0  0
  161.3900  208.7720  157.2600 C   0  0  0  0  0  3  0  0  0  0  0  0
  160.9720  208.8000  153.4760 C   0  0  2  0  0  3  0  0  0  0  0  0
  160.9590  208.4960  154.9520 C   0  0  0  0  0  0  0  0  0  0  0  0
  162.6140  209.5730  151.7430 C   0  0  0  0  0  2  0  0  0  0  0  0
  161.9720  210.2210  150.6850 O   0  0  0  0  0  0  0  0  0  0  0  0
  162.0830  209.1270  149.3670 S   0  0  0  0  0  0  0  0  0  0  0  0
  162.4120  207.7160  150.4620 C   0  0  0  0  0  1  0  0  0  0  0  0
  156.5650  212.8700  156.9430 C   0  0  1  0  0  3  0  0  0  0  0  0
  155.7120  213.9880  156.3360 C   0  0  2  0  0  3  0  0  0  0  0  0
  154.5200  214.2980  157.2240 C   0  0  0  0  0  1  0  0  0  0  0  0
  155.2430  213.6080  155.0780 O   0  0  0  0  0  1  0  0  0  0  0  0
  154.8100  211.1790  155.9550 O   0  0  0  0  0  0  0  0  0  0  0  0
  155.5650  211.3880  157.2600 S   0  0  0  0  0  3  0  0  0  0  0  0
  1  2  1  0  0  0  0
  2  9  1  6  0  0  0
  2 17  1  0  0  0  0
  3 14  2  0  0  0  0
  4 11  1  0  0  0  0
  5 21  1  6  0  0  0
  5 19  1  0  0  0  0
  6 10  1  0  0  0  0
  9  5  1  0  0  0  0
 10 18  2  0  0  0  0
 11 18  1  0  0  0  0
 12  1  1  0  0  0  0
 12 14  1  0  0  0  0
 13 16  1  0  0  0  0
 13 25  1  1  0  0  0
 14 13  1  0  0  0  0
 15 16  1  0  0  0  0
 16  7  1  6  0  0  0
 17  6  1  0  0  0  0
 17 15  1  1  0  0  0
 19  8  1  1  0  0  0
 19 20  1  0  0  0  0
 20  4  2  0  0  0  0
 20 10  1  0  0  0  0
 22 21  1  0  0  0  0
 23 24  1  0  0  0  0
 23 22  1  0  0  0  0
 25 30  1  6  0  0  0
 26 25  1  0  0  0  0
 26 27  1  1  0  0  0
 28 26  1  0  0  0  0
 29 30  2  0  0  0  0
M  END
>  <MODEL>
1

>  <REMARK>
 VINA RESULT:      -2.5      0.000      0.000
  Name = 
  6 active torsions:
  status: ('A' for Active; 'I' for Inactive)
    1  A    between atoms: C_2  and  C_28
    2  A    between atoms: C_6  and  C_8
    3  A    between atoms: C_6  and  O_21
    4  A    between atoms: S_9  and  O_21
    5  A    between atoms: C_19  and  C_28
    6  A    between atoms: C_28  and  S_29
                            x       y       z     vdW  Elec       q    Type
                         _______ _______ _______ _____ _____    ______ ____

>  <TORSDO>
F 6

$$$$
=
 OpenBabel11052422043D

 30 32  0  0  1  0  0  0  0  0999 V2000
  163.3420  211.1060  140.1140 C   0  0  0  0  0  2  0  0  0  0  0  0
  162.2960  212.1880  140.3510 C   0  0  1  0  0  3  0  0  0  0  0  0
  160.5240  209.0540  139.9530 O   0  0  0  0  0  0  0  0  0  0  0  0
  157.9780  213.6900  140.9690 C   0  0  0  0  0  3  0  0  0  0  0  0
  161.6100  213.9180  142.1200 C   0  0  1  0  0  3  0  0  0  0  0  0
  161.2560  214.2220  139.3100 N   0  0  0  0  0  2  0  0  0  0  0  0
  159.7940  211.4790  138.4190 O   0  0  0  0  0  1  0  0  0  0  0  0
  160.0610  211.8940  142.5270 C   0  0  0  0  0  1  0  0  0  0  0  0
  162.6820  212.9420  141.6230 C   0  0  0  0  0  2  0  0  0  0  0  0
  159.8670  214.0950  139.6320 C   0  0  0  0  0  0  0  0  0  0  0  0
  157.4210  214.2070  139.4720 S   0  0  0  0  0  0  0  0  0  0  0  0
  162.7460  209.7190  140.3220 C   0  0  0  0  0  2  0  0  0  0  0  0
  161.5920  209.8890  137.9970 C   0  0  2  0  0  3  0  0  0  0  0  0
  161.5430  209.5090  139.4570 C   0  0  0  0  0  0  0  0  0  0  0  0
  161.9620  212.4090  137.7640 C   0  0  0  0  0  2  0  0  0  0  0  0
  160.9570  211.2480  137.6820 C   0  0  2  0  0  3  0  0  0  0  0  0
  162.1800  213.1040  139.1250 C   0  0  2  0  0  3  0  0  0  0  0  0
  158.8940  214.4490  138.7060 C   0  0  0  0  0  3  0  0  0  0  0  0
  160.1780  213.3570  142.1190 C   0  0  2  0  0  3  0  0  0  0  0  0
  159.3660  213.6890  140.8940 C   0  0  0  0  0  0  0  0  0  0  0  0
  161.9860  214.4130  143.5030 C   0  0  0  0  0  2  0  0  0  0  0  0
  162.2750  213.3290  144.3350 O   0  0  0  0  0  0  0  0  0  0  0  0
  162.4880  214.0160  145.8940 S   0  0  0  0  0  0  0  0  0  0  0  0
  161.6050  212.6510  146.7040 C   0  0  0  0  0  1  0  0  0  0  0  0
  161.1730  208.7830  137.0120 C   0  0  1  0  0  3  0  0  0  0  0  0
  162.1480  207.6020  137.0250 C   0  0  2  0  0  3  0  0  0  0  0  0
  161.9120  206.7230  138.2410 C   0  0  0  0  0  1  0  0  0  0  0  0
  163.4640  208.0640  137.0590 O   0  0  0  0  0  1  0  0  0  0  0  0
  158.6570  209.5100  137.2590 O   0  0  0  0  0  0  0  0  0  0  0  0
  159.4680  208.2220  137.2830 S   0  0  0  0  0  3  0  0  0  0  0  0
  1 12  1  0  0  0  0
  2  1  1  6  0  0  0
  2  9  1  0  0  0  0
  5 21  1  1  0  0  0
  6 10  1  0  0  0  0
  9  5  1  0  0  0  0
 10 20  1  0  0  0  0
 11  4  1  0  0  0  0
 13 25  1  6  0  0  0
 13 14  1  0  0  0  0
 14  3  2  0  0  0  0
 14 12  1  0  0  0  0
 16 15  1  0  0  0  0
 16 13  1  0  0  0  0
 16  7  1  1  0  0  0
 17 15  1  6  0  0  0
 17  6  1  0  0  0  0
 17  2  1  0  0  0  0
 18 11  1  0  0  0  0
 18 10  2  0  0  0  0
 19  5  1  0  0  0  0
 19  8  1  6  0  0  0
 20  4  2  0  0  0  0
 20 19  1  0  0  0  0
 21 22  1  0  0  0  0
 22 23  1  0  0  0  0
 23 24  1  0  0  0  0
 25 26  1  0  0  0  0
 25 30  1  1  0  0  0
 26 28  1  0  0  0  0
 26 27  1  1  0  0  0
 29 30  2  0  0  0  0
M  END
>  <MODEL>
2

>  <REMARK>
 VINA RESULT:      -2.3     11.797     16.238
  Name = 
  6 active torsions:
  status: ('A' for Active; 'I' for Inactive)
    1  A    between atoms: C_2  and  C_28
    2  A    between atoms: C_6  and  C_8
    3  A    between atoms: C_6  and  O_21
    4  A    between atoms: S_9  and  O_21
    5  A    between atoms: C_19  and  C_28
    6  A    between atoms: C_28  and  S_29
                            x       y       z     vdW  Elec       q    Type
                         _______ _______ _______ _____ _____    ______ ____

>  <TORSDO>
F 6

$$$$
=
 OpenBabel11052422043D

 30 32  0  0  1  0  0  0  0  0999 V2000
  160.3380  211.7550  152.4170 C   0  0  0  0  0  2  0  0  0  0  0  0
  160.8580  210.5190  153.1400 C   0  0  1  0  0  3  0  0  0  0  0  0
  157.2890  210.6880  153.7380 O   0  0  0  0  0  0  0  0  0  0  0  0
  160.3430  206.6920  155.6640 C   0  0  0  0  0  3  0  0  0  0  0  0
  162.0450  208.2970  152.6490 C   0  0  1  0  0  3  0  0  0  0  0  0
  162.2980  209.7880  155.0620 N   0  0  0  0  0  2  0  0  0  0  0  0
  159.2380  210.3510  155.9420 O   0  0  0  0  0  1  0  0  0  0  0  0
  159.5370  207.7010  152.7790 C   0  0  0  0  0  1  0  0  0  0  0  0
  161.6440  209.6820  152.1320 C   0  0  0  0  0  2  0  0  0  0  0  0
  161.5750  208.6910  155.6300 C   0  0  0  0  0  0  0  0  0  0  0  0
  160.6410  207.1150  157.2610 S   0  0  0  0  0  0  0  0  0  0  0  0
  158.8200  211.7040  152.2770 C   0  0  0  0  0  2  0  0  0  0  0  0
  158.5880  212.3900  154.7760 C   0  0  2  0  0  3  0  0  0  0  0  0
  158.1570  211.5360  153.6080 C   0  0  0  0  0  0  0  0  0  0  0  0
  161.0330  211.9070  155.3530 C   0  0  0  0  0  2  0  0  0  0  0  0
  159.5590  211.6940  155.7360 C   0  0  2  0  0  3  0  0  0  0  0  0
  161.6910  210.9220  154.3640 C   0  0  2  0  0  3  0  0  0  0  0  0
  161.5230  208.5180  157.0070 C   0  0  0  0  0  3  0  0  0  0  0  0
  160.9280  207.5330  153.3780 C   0  0  2  0  0  3  0  0  0  0  0  0
  160.9370  207.6720  154.8780 C   0  0  0  0  0  0  0  0  0  0  0  0
  162.5900  207.4720  151.4980 C   0  0  0  0  0  2  0  0  0  0  0  0
  162.1770  206.1440  151.6280 O   0  0  0  0  0  0  0  0  0  0  0  0
  161.2950  205.8160  150.1920 S   0  0  0  0  0  0  0  0  0  0  0  0
  160.9550  204.1040  150.6960 C   0  0  0  0  0  1  0  0  0  0  0  0
  157.4560  213.1400  155.5000 C   0  0  1  0  0  3  0  0  0  0  0  0
  156.1000  212.4500  155.3160 C   0  0  2  0  0  3  0  0  0  0  0  0
  155.0590  213.4360  154.8160 C   0  0  0  0  0  1  0  0  0  0  0  0
  155.6630  211.9170  156.5290 O   0  0  0  0  0  1  0  0  0  0  0  0
  159.0620  214.2830  157.2420 O   0  0  0  0  0  0  0  0  0  0  0  0
  157.8160  213.4090  157.2600 S   0  0  0  0  0  3  0  0  0  0  0  0
  1  2  1  0  0  0  0
  2  9  1  6  0  0  0
  2 17  1  0  0  0  0
  4 11  1  0  0  0  0
  5 21  1  6  0  0  0
  5 19  1  0  0  0  0
  6 10  1  0  0  0  0
  9  5  1  0  0  0  0
 10 18  2  0  0  0  0
 12  1  1  0  0  0  0
 12 14  1  0  0  0  0
 13 25  1  1  0  0  0
 13 16  1  0  0  0  0
 14  3  2  0  0  0  0
 14 13  1  0  0  0  0
 15 16  1  0  0  0  0
 16  7  1  6  0  0  0
 17  6  1  0  0  0  0
 17 15  1  1  0  0  0
 18 11  1  0  0  0  0
 19  8  1  6  0  0  0
 19 20  1  0  0  0  0
 20 10  1  0  0  0  0
 20  4  2  0  0  0  0
 21 22  1  0  0  0  0
 23 24  1  0  0  0  0
 23 22  1  0  0  0  0
 25 30  1  1  0  0  0
 26 27  1  1  0  0  0
 26 25  1  0  0  0  0
 26 28  1  0  0  0  0
 29 30  2  0  0  0  0
M  END
>  <MODEL>
3

>  <REMARK>
 VINA RESULT:      -2.0      1.841      2.164
  Name = 
  6 active torsions:
  status: ('A' for Active; 'I' for Inactive)
    1  A    between atoms: C_2  and  C_28
    2  A    between atoms: C_6  and  C_8
    3  A    between atoms: C_6  and  O_21
    4  A    between atoms: S_9  and  O_21
    5  A    between atoms: C_19  and  C_28
    6  A    between atoms: C_28  and  S_29
                            x       y       z     vdW  Elec       q    Type
                         _______ _______ _______ _____ _____    ______ ____

>  <TORSDO>
F 6

$$$$
=
 OpenBabel11052422043D

 30 32  0  0  1  0  0  0  0  0999 V2000
  158.5060  210.7210  152.4760 C   0  0  0  0  0  2  0  0  0  0  0  0
  159.7440  210.1790  153.1780 C   0  0  1  0  0  3  0  0  0  0  0  0
  157.4300  211.2390  155.7550 O   0  0  0  0  0  0  0  0  0  0  0  0
  162.1950  209.0110  156.9080 C   0  0  0  0  0  3  0  0  0  0  0  0
  161.1070  208.0140  153.3880 C   0  0  1  0  0  3  0  0  0  0  0  0
  162.1780  210.6460  153.5760 N   0  0  0  0  0  2  0  0  0  0  0  0
  160.2610  212.1040  155.7330 O   0  0  0  0  0  1  0  0  0  0  0  0
  159.5620  208.0360  155.4560 C   0  0  0  0  0  1  0  0  0  0  0  0
  160.0240  208.7820  152.6250 C   0  0  0  0  0  2  0  0  0  0  0  0
  162.3700  210.2990  154.9520 C   0  0  0  0  0  0  0  0  0  0  0  0
  163.1980  210.3090  157.2610 S   0  0  0  0  0  0  0  0  0  0  0  0
  157.3340  210.8260  153.4450 C   0  0  0  0  0  2  0  0  0  0  0  0
  158.3860  212.9830  154.4490 C   0  0  2  0  0  3  0  0  0  0  0  0
  157.6880  211.6580  154.6370 C   0  0  0  0  0  0  0  0  0  0  0  0
  160.6790  212.6160  153.3760 C   0  0  0  0  0  2  0  0  0  0  0  0
  159.9020  212.9290  154.6660 C   0  0  2  0  0  3  0  0  0  0  0  0
  160.9280  211.1400  153.0010 C   0  0  2  0  0  3  0  0  0  0  0  0
  163.1990  211.0630  155.7620 C   0  0  0  0  0  3  0  0  0  0  0  0
  160.9880  208.0810  154.9200 C   0  0  2  0  0  3  0  0  0  0  0  0
  161.8240  209.1500  155.5760 C   0  0  0  0  0  0  0  0  0  0  0  0
  161.1220  206.5710  152.9200 C   0  0  0  0  0  2  0  0  0  0  0  0
  162.1770  206.3710  152.0270 O   0  0  0  0  0  0  0  0  0  0  0  0
  161.4340  206.2870  150.4820 S   0  0  0  0  0  0  0  0  0  0  0  0
  162.3190  207.7580  149.8880 C   0  0  0  0  0  1  0  0  0  0  0  0
  157.7190  214.1860  155.1400 C   0  0  1  0  0  3  0  0  0  0  0  0
  156.2800  214.3990  154.6600 C   0  0  2  0  0  3  0  0  0  0  0  0
  155.2960  213.6960  155.5790 C   0  0  0  0  0  1  0  0  0  0  0  0
  156.1230  213.8930  153.3690 O   0  0  0  0  0  1  0  0  0  0  0  0
  159.2750  214.1920  157.2610 O   0  0  0  0  0  0  0  0  0  0  0  0
  157.7900  214.0720  156.9510 S   0  0  0  0  0  3  0  0  0  0  0  0
  1 12  1  0  0  0  0
  2  1  1  6  0  0  0
  4 11  1  0  0  0  0
  5 21  1  6  0  0  0
  5 19  1  0  0  0  0
  6 10  1  0  0  0  0
  9  2  1  0  0  0  0
  9  5  1  0  0  0  0
 10 20  1  0  0  0  0
 10 18  2  0  0  0  0
 12 14  1  0  0  0  0
 13 14  1  0  0  0  0
 13 16  1  0  0  0  0
 13 25  1  1  0  0  0
 14  3  2  0  0  0  0
 15 16  1  0  0  0  0
 16  7  1  1  0  0  0
 17  2  1  0  0  0  0
 17 15  1  1  0  0  0
 17  6  1  0  0  0  0
 18 11  1  0  0  0  0
 19  8  1  6  0  0  0
 19 20  1  0  0  0  0
 20  4  2  0  0  0  0
 22 21  1  0  0  0  0
 23 22  1  0  0  0  0
 24 23  1  0  0  0  0
 25 30  1  1  0  0  0
 26 25  1  0  0  0  0
 26 27  1  1  0  0  0
 28 26  1  0  0  0  0
 30 29  2  0  0  0  0
M  END
>  <MODEL>
4

>  <REMARK>
 VINA RESULT:      -1.8      2.030      2.687
  Name = 
  6 active torsions:
  status: ('A' for Active; 'I' for Inactive)
    1  A    between atoms: C_2  and  C_28
    2  A    between atoms: C_6  and  C_8
    3  A    between atoms: C_6  and  O_21
    4  A    between atoms: S_9  and  O_21
    5  A    between atoms: C_19  and  C_28
    6  A    between atoms: C_28  and  S_29
                            x       y       z     vdW  Elec       q    Type
                         _______ _______ _______ _____ _____    ______ ____

>  <TORSDO>
F 6

$$$$
=
 OpenBabel11052422043D

 30 32  0  0  1  0  0  0  0  0999 V2000
  162.5710  208.8600  151.1740 C   0  0  0  0  0  2  0  0  0  0  0  0
  162.3200  207.4210  150.7410 C   0  0  1  0  0  3  0  0  0  0  0  0
  159.3170  208.5780  152.4040 O   0  0  0  0  0  0  0  0  0  0  0  0
  159.7090  203.6460  150.2760 C   0  0  0  0  0  3  0  0  0  0  0  0
  162.2240  205.9870  148.6140 C   0  0  1  0  0  3  0  0  0  0  0  0
  163.0220  205.0520  151.1830 N   0  0  0  0  0  2  0  0  0  0  0  0
  160.6350  206.0280  153.1320 O   0  0  0  0  0  1  0  0  0  0  0  0
  159.7670  206.5900  149.1260 C   0  0  0  0  0  1  0  0  0  0  0  0
  162.6380  207.3180  149.2490 C   0  0  0  0  0  2  0  0  0  0  0  0
  161.7950  204.3170  151.1220 C   0  0  0  0  0  0  0  0  0  0  0  0
  160.0580  202.6470  151.5780 S   0  0  0  0  0  0  0  0  0  0  0  0
  161.2620  209.5580  151.5250 C   0  0  0  0  0  2  0  0  0  0  0  0
  161.2240  208.2960  153.8000 C   0  0  2  0  0  3  0  0  0  0  0  0
  160.5060  208.8010  152.5710 C   0  0  0  0  0  0  0  0  0  0  0  0
  163.0150  206.5990  153.1270 C   0  0  0  0  0  2  0  0  0  0  0  0
  161.6180  206.8170  153.7320 C   0  0  2  0  0  3  0  0  0  0  0  0
  163.1440  206.4490  151.5960 C   0  0  2  0  0  3  0  0  0  0  0  0
  161.5550  203.2720  152.0040 C   0  0  0  0  0  3  0  0  0  0  0  0
  160.8200  205.4950  149.0030 C   0  0  2  0  0  3  0  0  0  0  0  0
  160.7840  204.5190  150.1500 C   0  0  0  0  0  0  0  0  0  0  0  0
  162.3510  206.0910  147.1060 C   0  0  0  0  0  2  0  0  0  0  0  0
  162.2390  204.8240  146.5300 O   0  0  0  0  0  0  0  0  0  0  0  0
  161.8020  205.1200  144.8970 S   0  0  0  0  0  0  0  0  0  0  0  0
  160.4140  206.1880  145.3780 C   0  0  0  0  0  1  0  0  0  0  0  0
  160.5890  208.6920  155.1450 C   0  0  1  0  0  3  0  0  0  0  0  0
  161.3610  208.1150  156.3360 C   0  0  2  0  0  3  0  0  0  0  0  0
  160.4390  207.3140  157.2380 C   0  0  0  0  0  1  0  0  0  0  0  0
  161.9310  209.1460  157.0850 O   0  0  0  0  0  1  0  0  0  0  0  0
  158.9300  210.6410  155.7500 O   0  0  0  0  0  0  0  0  0  0  0  0
  160.3810  210.4870  155.3130 S   0  0  0  0  0  3  0  0  0  0  0  0
  1 12  1  0  0  0  0
  2  9  1  6  0  0  0
  2  1  1  0  0  0  0
  2 17  1  0  0  0  0
  3 14  2  0  0  0  0
  4 11  1  0  0  0  0
  5 21  1  6  0  0  0
  5 19  1  0  0  0  0
  5  9  1  0  0  0  0
  6 17  1  0  0  0  0
 10  6  1  0  0  0  0
 10 18  2  0  0  0  0
 11 18  1  0  0  0  0
 12 14  1  0  0  0  0
 13 25  1  1  0  0  0
 14 13  1  0  0  0  0
 15 16  1  0  0  0  0
 16  7  1  6  0  0  0
 16 13  1  0  0  0  0
 17 15  1  1  0  0  0
 19  8  1  1  0  0  0
 19 20  1  0  0  0  0
 20  4  2  0  0  0  0
 20 10  1  0  0  0  0
 22 21  1  0  0  0  0
 23 24  1  0  0  0  0
 23 22  1  0  0  0  0
 25 30  1  1  0  0  0
 25 26  1  0  0  0  0
 26 28  1  0  0  0  0
 26 27  1  1  0  0  0
 30 29  2  0  0  0  0
M  END
>  <MODEL>
5

>  <REMARK>
 VINA RESULT:      -1.8      4.108      6.323
  Name = 
  6 active torsions:
  status: ('A' for Active; 'I' for Inactive)
    1  A    between atoms: C_2  and  C_28
    2  A    between atoms: C_6  and  C_8
    3  A    between atoms: C_6  and  O_21
    4  A    between atoms: S_9  and  O_21
    5  A    between atoms: C_19  and  C_28
    6  A    between atoms: C_28  and  S_29
                            x       y       z     vdW  Elec       q    Type
                         _______ _______ _______ _____ _____    ______ ____

>  <TORSDO>
F 6

$$$$
=
 OpenBabel11052422043D

 30 32  0  0  1  0  0  0  0  0999 V2000
  161.3170  208.4170  155.3360 C   0  0  0  0  0  2  0  0  0  0  0  0
  160.5760  209.6970  154.9700 C   0  0  1  0  0  3  0  0  0  0  0  0
  159.7030  207.2080  152.4880 O   0  0  0  0  0  0  0  0  0  0  0  0
  157.6550  212.1880  152.4130 C   0  0  0  0  0  3  0  0  0  0  0  0
  158.8350  211.3170  155.9370 C   0  0  1  0  0  3  0  0  0  0  0  0
  160.9310  212.0430  154.1500 N   0  0  0  0  0  2  0  0  0  0  0  0
  160.6600  209.9080  151.7380 O   0  0  0  0  0  1  0  0  0  0  0  0
  157.4960  209.7340  154.3990 C   0  0  0  0  0  1  0  0  0  0  0  0
  159.8060  210.1630  156.2050 C   0  0  0  0  0  2  0  0  0  0  0  0
  159.8580  212.2450  153.2250 C   0  0  0  0  0  0  0  0  0  0  0  0
  158.5770  213.0120  151.2780 S   0  0  0  0  0  0  0  0  0  0  0  0
  160.7250  207.2190  154.6010 C   0  0  0  0  0  2  0  0  0  0  0  0
  161.9580  207.9670  152.4360 C   0  0  2  0  0  3  0  0  0  0  0  0
  160.7210  207.4380  153.1220 C   0  0  0  0  0  0  0  0  0  0  0  0
  162.4990  210.3120  153.3020 C   0  0  0  0  0  2  0  0  0  0  0  0
  161.9200  209.4730  152.1510 C   0  0  2  0  0  3  0  0  0  0  0  0
  161.5560  210.7540  154.4420 C   0  0  2  0  0  3  0  0  0  0  0  0
  160.0660  212.9520  152.0480 C   0  0  0  0  0  3  0  0  0  0  0  0
  157.9750  211.1550  154.6720 C   0  0  2  0  0  3  0  0  0  0  0  0
  158.5190  211.8340  153.4420 C   0  0  0  0  0  0  0  0  0  0  0  0
  157.9550  211.5240  157.1550 C   0  0  0  0  0  2  0  0  0  0  0  0
  157.5970  212.8700  157.2600 O   0  0  0  0  0  0  0  0  0  0  0  0
  155.8810  212.8710  157.2580 S   0  0  0  0  0  0  0  0  0  0  0  0
  155.8030  213.7500  155.6710 C   0  0  0  0  0  1  0  0  0  0  0  0
  162.4560  207.1380  151.2380 C   0  0  1  0  0  3  0  0  0  0  0  0
  162.7030  205.6740  151.6170 C   0  0  2  0  0  3  0  0  0  0  0  0
  161.5840  204.7880  151.0980 C   0  0  0  0  0  1  0  0  0  0  0  0
  162.7710  205.5400  153.0040 O   0  0  0  0  0  1  0  0  0  0  0  0
  162.3070  207.3040  148.6170 O   0  0  0  0  0  0  0  0  0  0  0  0
  161.3520  207.2610  149.8020 S   0  0  0  0  0  3  0  0  0  0  0  0
  2  1  1  1  0  0  0
  2  9  1  0  0  0  0
  3 14  2  0  0  0  0
  4 20  2  0  0  0  0
  5  9  1  0  0  0  0
  5 21  1  1  0  0  0
  6 17  1  0  0  0  0
 10 20  1  0  0  0  0
 10  6  1  0  0  0  0
 11 18  1  0  0  0  0
 11  4  1  0  0  0  0
 12  1  1  0  0  0  0
 13 25  1  6  0  0  0
 13 14  1  0  0  0  0
 14 12  1  0  0  0  0
 16  7  1  1  0  0  0
 16 13  1  0  0  0  0
 16 15  1  0  0  0  0
 17 15  1  6  0  0  0
 17  2  1  0  0  0  0
 18 10  2  0  0  0  0
 19  8  1  6  0  0  0
 19  5  1  0  0  0  0
 20 19  1  0  0  0  0
 21 22  1  0  0  0  0
 23 22  1  0  0  0  0
 24 23  1  0  0  0  0
 25 30  1  6  0  0  0
 25 26  1  0  0  0  0
 26 27  1  1  0  0  0
 26 28  1  0  0  0  0
 29 30  2  0  0  0  0
M  END
>  <MODEL>
6

>  <REMARK>
 VINA RESULT:      -1.5      2.295      7.417
  Name = 
  6 active torsions:
  status: ('A' for Active; 'I' for Inactive)
    1  A    between atoms: C_2  and  C_28
    2  A    between atoms: C_6  and  C_8
    3  A    between atoms: C_6  and  O_21
    4  A    between atoms: S_9  and  O_21
    5  A    between atoms: C_19  and  C_28
    6  A    between atoms: C_28  and  S_29
                            x       y       z     vdW  Elec       q    Type
                         _______ _______ _______ _____ _____    ______ ____

>  <TORSDO>
F 6

$$$$
=
 OpenBabel11052422043D

 30 32  0  0  1  0  0  0  0  0999 V2000
  162.5990  208.8660  151.0960 C   0  0  0  0  0  2  0  0  0  0  0  0
  162.3360  207.4230  150.6840 C   0  0  1  0  0  3  0  0  0  0  0  0
  159.3670  208.6090  152.3870 O   0  0  0  0  0  0  0  0  0  0  0  0
  159.7060  203.6520  150.3100 C   0  0  0  0  0  3  0  0  0  0  0  0
  162.1980  205.9650  148.5760 C   0  0  1  0  0  3  0  0  0  0  0  0
  163.0390  205.0570  151.1410 N   0  0  0  0  0  2  0  0  0  0  0  0
  160.6890  206.0640  153.1210 O   0  0  0  0  0  1  0  0  0  0  0  0
  159.7520  206.5820  149.1250 C   0  0  0  0  0  1  0  0  0  0  0  0
  162.6270  207.3020  149.1890 C   0  0  0  0  0  2  0  0  0  0  0  0
  161.8090  204.3260  151.1100 C   0  0  0  0  0  0  0  0  0  0  0  0
  160.0740  202.6660  151.6170 S   0  0  0  0  0  0  0  0  0  0  0  0
  161.2980  209.5720  151.4620 C   0  0  0  0  0  2  0  0  0  0  0  0
  161.2980  208.3380  153.7520 C   0  0  2  0  0  3  0  0  0  0  0  0
  160.5590  208.8300  152.5300 C   0  0  0  0  0  0  0  0  0  0  0  0
  163.0710  206.6270  153.0670 C   0  0  0  0  0  2  0  0  0  0  0  0
  161.6860  206.8560  153.6940 C   0  0  2  0  0  3  0  0  0  0  0  0
  163.1720  206.4590  151.5360 C   0  0  2  0  0  3  0  0  0  0  0  0
  161.5810  203.2920  152.0090 C   0  0  0  0  0  3  0  0  0  0  0  0
  160.8000  205.4830  148.9960 C   0  0  2  0  0  3  0  0  0  0  0  0
  160.7800  204.5200  150.1540 C   0  0  0  0  0  0  0  0  0  0  0  0
  162.2990  206.0510  147.0650 C   0  0  0  0  0  2  0  0  0  0  0  0
  162.0610  204.7970  146.5000 O   0  0  0  0  0  0  0  0  0  0  0  0
  161.6470  205.1220  144.8660 S   0  0  0  0  0  0  0  0  0  0  0  0
  160.2690  206.2040  145.3460 C   0  0  0  0  0  1  0  0  0  0  0  0
  160.6880  208.7510  155.1040 C   0  0  1  0  0  3  0  0  0  0  0  0
  159.9350  210.0810  155.0120 C   0  0  2  0  0  3  0  0  0  0  0  0
  160.8520  211.2430  155.3490 C   0  0  0  0  0  1  0  0  0  0  0  0
  158.8600  210.0890  155.9020 O   0  0  0  0  0  1  0  0  0  0  0  0
  160.4110  206.9910  157.0390 O   0  0  0  0  0  0  0  0  0  0  0  0
  159.6340  207.4540  155.8150 S   0  0  0  0  0  3  0  0  0  0  0  0
  1 12  1  0  0  0  0
  2  9  1  6  0  0  0
  2  1  1  0  0  0  0
  2 17  1  0  0  0  0
  3 14  2  0  0  0  0
  4 11  1  0  0  0  0
  5 21  1  6  0  0  0
  5 19  1  0  0  0  0
  5  9  1  0  0  0  0
  6 17  1  0  0  0  0
 10  6  1  0  0  0  0
 10 18  2  0  0  0  0
 11 18  1  0  0  0  0
 12 14  1  0  0  0  0
 13 25  1  1  0  0  0
 14 13  1  0  0  0  0
 15 16  1  0  0  0  0
 16  7  1  6  0  0  0
 16 13  1  0  0  0  0
 17 15  1  1  0  0  0
 19  8  1  1  0  0  0
 19 20  1  0  0  0  0
 20  4  2  0  0  0  0
 20 10  1  0  0  0  0
 22 21  1  0  0  0  0
 23 24  1  0  0  0  0
 23 22  1  0  0  0  0
 25 30  1  6  0  0  0
 26 25  1  0  0  0  0
 26 27  1  1  0  0  0
 26 28  1  0  0  0  0
 30 29  2  0  0  0  0
M  END
>  <MODEL>
7

>  <REMARK>
 VINA RESULT:      -1.3      3.723      6.165
  Name = 
  6 active torsions:
  status: ('A' for Active; 'I' for Inactive)
    1  A    between atoms: C_2  and  C_28
    2  A    between atoms: C_6  and  C_8
    3  A    between atoms: C_6  and  O_21
    4  A    between atoms: S_9  and  O_21
    5  A    between atoms: C_19  and  C_28
    6  A    between atoms: C_28  and  S_29
                            x       y       z     vdW  Elec       q    Type
                         _______ _______ _______ _____ _____    ______ ____

>  <TORSDO>
F 6

$$$$
=
 OpenBabel11052422043D

 30 32  0  0  1  0  0  0  0  0999 V2000
  161.3430  208.1450  149.0910 C   0  0  0  0  0  2  0  0  0  0  0  0
  161.1530  206.9730  150.0450 C   0  0  1  0  0  3  0  0  0  0  0  0
  163.9420  206.1530  147.8830 O   0  0  0  0  0  0  0  0  0  0  0  0
  162.2870  202.8680  151.8170 C   0  0  0  0  0  3  0  0  0  0  0  0
  161.1840  206.4460  152.5570 C   0  0  1  0  0  3  0  0  0  0  0  0
  159.5780  205.1060  150.6240 N   0  0  0  0  0  2  0  0  0  0  0  0
  161.6820  204.2890  148.3090 O   0  0  0  0  0  1  0  0  0  0  0  0
  163.5250  205.7740  151.7020 C   0  0  0  0  0  1  0  0  0  0  0  0
  161.1450  207.5240  151.4700 C   0  0  0  0  0  2  0  0  0  0  0  0
  160.4460  204.0020  150.9000 C   0  0  0  0  0  0  0  0  0  0  0  0
  161.3370  201.7210  151.0430 S   0  0  0  0  0  0  0  0  0  0  0  0
  162.7070  208.0790  148.4140 C   0  0  0  0  0  2  0  0  0  0  0  0
  161.8080  206.2210  146.8310 C   0  0  2  0  0  3  0  0  0  0  0  0
  162.9030  206.7730  147.7120 C   0  0  0  0  0  0  0  0  0  0  0  0
  159.7190  205.7490  148.2280 C   0  0  0  0  0  2  0  0  0  0  0  0
  160.9390  205.1540  147.5050 C   0  0  2  0  0  3  0  0  0  0  0  0
  159.8750  206.1970  149.6970 C   0  0  2  0  0  3  0  0  0  0  0  0
  160.1060  202.7190  150.4930 C   0  0  0  0  0  3  0  0  0  0  0  0
  162.2040  205.3210  152.3130 C   0  0  2  0  0  3  0  0  0  0  0  0
  161.6460  204.0900  151.6490 C   0  0  0  0  0  0  0  0  0  0  0  0
  161.4270  207.1000  153.9040 C   0  0  0  0  0  2  0  0  0  0  0  0
  160.9640  208.4170  153.8840 O   0  0  0  0  0  0  0  0  0  0  0  0
  160.8840  208.8800  155.5350 S   0  0  0  0  0  0  0  0  0  0  0  0
  160.0760  207.3250  156.0150 C   0  0  0  0  0  1  0  0  0  0  0  0
  162.2390  205.8370  145.4040 C   0  0  1  0  0  3  0  0  0  0  0  0
  162.8500  204.4330  145.3470 C   0  0  2  0  0  3  0  0  0  0  0  0
  161.7990  203.3760  145.6360 C   0  0  0  0  0  1  0  0  0  0  0  0
  163.8720  204.3130  146.2900 O   0  0  0  0  0  1  0  0  0  0  0  0
  161.5820  205.8280  142.8570 O   0  0  0  0  0  0  0  0  0  0  0  0
  160.8900  206.0080  144.2020 S   0  0  0  0  0  3  0  0  0  0  0  0
  2  1  1  6  0  0  0
  2  9  1  0  0  0  0
  5 21  1  1  0  0  0
  6 10  1  0  0  0  0
  9  5  1  0  0  0  0
 10 20  1  0  0  0  0
 11  4  1  0  0  0  0
 12  1  1  0  0  0  0
 13 25  1  6  0  0  0
 13 16  1  0  0  0  0
 13 14  1  0  0  0  0
 14  3  2  0  0  0  0
 14 12  1  0  0  0  0
 16 15  1  0  0  0  0
 16  7  1  1  0  0  0
 17 15  1  6  0  0  0
 17  2  1  0  0  0  0
 17  6  1  0  0  0  0
 18 10  2  0  0  0  0
 18 11  1  0  0  0  0
 19  8  1  6  0  0  0
 19  5  1  0  0  0  0
 20  4  2  0  0  0  0
 20 19  1  0  0  0  0
 22 21  1  0  0  0  0
 22 23  1  0  0  0  0
 23 24  1  0  0  0  0
 25 30  1  6  0  0  0
 26 25  1  0  0  0  0
 26 27  1  1  0  0  0
 26 28  1  0  0  0  0
 29 30  2  0  0  0  0
M  END
>  <MODEL>
8

>  <REMARK>
 VINA RESULT:      -0.8      5.123      9.930
  Name = 
  6 active torsions:
  status: ('A' for Active; 'I' for Inactive)
    1  A    between atoms: C_2  and  C_28
    2  A    between atoms: C_6  and  C_8
    3  A    between atoms: C_6  and  O_21
    4  A    between atoms: S_9  and  O_21
    5  A    between atoms: C_19  and  C_28
    6  A    between atoms: C_28  and  S_29
                            x       y       z     vdW  Elec       q    Type
                         _______ _______ _______ _____ _____    ______ ____

>  <TORSDO>
F 6

$$$$
=
 OpenBabel11052422043D

 30 32  0  0  1  0  0  0  0  0999 V2000
  162.6350  205.4820  152.5260 C   0  0  0  0  0  2  0  0  0  0  0  0
  162.1440  206.8490  152.9860 C   0  0  1  0  0  3  0  0  0  0  0  0
  159.4410  205.3090  151.1300 O   0  0  0  0  0  0  0  0  0  0  0  0
  158.9630  210.1620  153.4160 C   0  0  0  0  0  3  0  0  0  0  0  0
  161.7250  208.1730  155.1440 C   0  0  1  0  0  3  0  0  0  0  0  0
  162.4940  209.3120  152.6500 N   0  0  0  0  0  2  0  0  0  0  0  0
  160.3830  208.0540  150.5480 O   0  0  0  0  0  1  0  0  0  0  0  0
  159.4180  207.2210  154.4830 C   0  0  0  0  0  1  0  0  0  0  0  0
  162.3690  206.9440  154.4940 C   0  0  0  0  0  2  0  0  0  0  0  0
  161.1670  209.8480  152.6660 C   0  0  0  0  0  0  0  0  0  0  0  0
  159.2170  211.2500  152.1640 S   0  0  0  0  0  0  0  0  0  0  0  0
  161.4680  204.6060  152.0850 C   0  0  0  0  0  2  0  0  0  0  0  0
  161.3480  205.9290  149.8480 C   0  0  2  0  0  3  0  0  0  0  0  0
  160.6570  205.2760  151.0220 C   0  0  0  0  0  0  0  0  0  0  0  0
  162.8200  207.8540  150.6650 C   0  0  0  0  0  2  0  0  0  0  0  0
  161.5050  207.4480  149.9800 C   0  0  2  0  0  3  0  0  0  0  0  0
  162.8500  207.9650  152.2040 C   0  0  2  0  0  3  0  0  0  0  0  0
  160.8110  210.8760  151.8020 C   0  0  0  0  0  3  0  0  0  0  0  0
  160.2820  208.4590  154.6950 C   0  0  2  0  0  3  0  0  0  0  0  0
  160.1520  209.4590  153.5760 C   0  0  0  0  0  0  0  0  0  0  0  0
  161.7920  208.0340  156.6540 C   0  0  0  0  0  2  0  0  0  0  0  0
  161.1770  209.1320  157.2600 O   0  0  0  0  0  0  0  0  0  0  0  0
  162.3750  210.3620  157.2600 S   0  0  0  0  0  0  0  0  0  0  0  0
  161.1660  211.6500  156.8380 C   0  0  0  0  0  1  0  0  0  0  0  0
  160.8480  205.4910  148.4600 C   0  0  1  0  0  3  0  0  0  0  0  0
  161.1890  206.5180  147.3760 C   0  0  2  0  0  3  0  0  0  0  0  0
  160.3550  206.2810  146.1290 C   0  0  0  0  0  1  0  0  0  0  0  0
  162.5380  206.4270  147.0330 O   0  0  0  0  0  1  0  0  0  0  0  0
  160.6700  202.9080  148.9260 O   0  0  0  0  0  0  0  0  0  0  0  0
  161.4410  203.8380  147.9990 S   0  0  0  0  0  3  0  0  0  0  0  0
  2  1  1  6  0  0  0
  2  9  1  0  0  0  0
  4 20  2  0  0  0  0
  5 21  1  1  0  0  0
  6 10  1  0  0  0  0
  9  5  1  0  0  0  0
 10 20  1  0  0  0  0
 11  4  1  0  0  0  0
 12  1  1  0  0  0  0
 13 25  1  6  0  0  0
 13 16  1  0  0  0  0
 13 14  1  0  0  0  0
 14  3  2  0  0  0  0
 14 12  1  0  0  0  0
 16  7  1  1  0  0  0
 16 15  1  0  0  0  0
 17 15  1  6  0  0  0
 17  6  1  0  0  0  0
 17  2  1  0  0  0  0
 18 11  1  0  0  0  0
 18 10  2  0  0  0  0
 19  8  1  6  0  0  0
 19  5  1  0  0  0  0
 20 19  1  0  0  0  0
 21 22  1  0  0  0  0
 22 23  1  0  0  0  0
 24 23  1  0  0  0  0
 25 30  1  6  0  0  0
 26 27  1  6  0  0  0
 26 25  1  0  0  0  0
 28 26  1  0  0  0  0
 30 29  2  0  0  0  0
M  END
>  <MODEL>
9

>  <REMARK>
 VINA RESULT:      -0.6      3.677      8.121
  Name = 
  6 active torsions:
  status: ('A' for Active; 'I' for Inactive)
    1  A    between atoms: C_2  and  C_28
    2  A    between atoms: C_6  and  C_8
    3  A    between atoms: C_6  and  O_21
    4  A    between atoms: S_9  and  O_21
    5  A    between atoms: C_19  and  C_28
    6  A    between atoms: C_28  and  S_29
                            x       y       z     vdW  Elec       q    Type
                         _______ _______ _______ _____ _____    ______ ____

>  <TORSDO>
F 6

$$$$
