=
 OpenBabel11062410233D

 43 49  0  0  1  0  0  0  0  0999 V2000
  155.2760  213.2540  156.3390 C   0  0  0  0  0  0  0  0  0  0  0  0
  158.9150  212.7770  152.8830 C   0  0  0  0  0  0  0  0  0  0  0  0
  160.1060  210.2680  153.3700 C   0  0  0  0  0  0  0  0  0  0  0  0
  156.8000  213.6730  154.4700 C   0  0  1  0  0  3  0  0  0  0  0  0
  155.8030  212.0490  156.5810 C   0  0  0  0  0  3  0  0  0  0  0  0
  154.1480  213.7460  157.1740 C   0  0  0  0  0  1  0  0  0  0  0  0
  157.4090  212.3580  154.7130 C   0  0  0  0  0  0  0  0  0  0  0  0
  155.7940  214.0950  155.2400 C   0  0  0  0  0  3  0  0  0  0  0  0
  156.8880  211.5550  155.7820 N   0  0  0  0  0  0  0  0  0  0  0  0
  159.0340  210.7130  154.1600 C   0  0  0  0  0  3  0  0  0  0  0  0
  158.4320  211.9540  153.9360 C   0  0  0  0  0  0  0  0  0  0  0  0
  158.3620  213.9790  152.6490 C   0  0  0  0  0  3  0  0  0  0  0  0
  159.9870  212.3370  152.0860 C   0  0  0  0  0  0  0  0  0  0  0  0
  160.5700  211.0890  152.3380 C   0  0  0  0  0  3  0  0  0  0  0  0
  157.2990  214.4530  153.4300 O   0  0  0  0  0  0  0  0  0  0  0  0
  160.7460  208.9560  153.6240 C   0  0  0  0  0  0  0  0  0  0  0  0
  160.7470  208.0120  152.6750 C   0  0  0  0  0  3  0  0  0  0  0  0
  161.3870  208.6890  154.9530 C   0  0  0  0  0  1  0  0  0  0  0  0
  161.2380  205.7440  151.6110 C   0  0  2  0  0  3  0  0  0  0  0  0
  161.3590  206.6480  152.8450 C   0  0  1  0  0  3  0  0  0  0  0  0
  162.5340  206.4870  151.8960 C   0  0  0  0  0  2  0  0  0  0  0  0
  160.5320  206.3900  150.5120 N   0  0  0  0  0  2  0  0  0  0  0  0
  161.4650  206.4750  149.3990 C   0  0  0  0  0  2  0  0  0  0  0  0
  160.9860  206.2170  146.9640 C   0  0  0  0  0  3  0  0  0  0  0  0
  160.7250  206.8030  148.1400 C   0  0  0  0  0  3  0  0  0  0  0  0
  162.0450  205.1660  146.7780 C   0  0  2  0  0  3  0  0  0  0  0  0
  162.7950  205.4270  145.4770 C   0  0  0  0  0  1  0  0  0  0  0  0
  161.4170  203.1460  147.9750 C   0  0  0  0  0  0  0  0  0  0  0  0
  161.4580  203.7790  146.8460 C   0  0  0  0  0  0  0  0  0  0  0  0
  161.2300  202.9110  145.6200 C   0  0  0  0  0  2  0  0  0  0  0  0
  160.8670  200.8680  148.3510 C   0  0  0  0  0  2  0  0  0  0  0  0
  161.2060  200.6290  146.8550 C   0  0  0  0  0  2  0  0  0  0  0  0
  161.2880  202.2180  148.8640 C   0  0  0  0  0  3  0  0  0  0  0  0
  160.4670  201.5870  145.8950 C   0  0  0  0  0  2  0  0  0  0  0  0
  160.4620  213.1490  151.0480 O   0  0  0  0  0  0  0  0  0  0  0  0
  160.9920  212.2140  147.6190 O   0  0  0  0  0  0  0  0  0  0  0  0
  160.4570  213.1740  146.7420 C   0  0  0  0  0  0  0  0  0  0  0  0
  161.5500  213.7300  145.8420 C   0  0  0  0  0  1  0  0  0  0  0  0
  160.5520  214.1910  148.8940 C   0  0  2  0  0  3  0  0  0  0  0  0
  161.3100  212.8820  148.8190 C   0  0  1  0  0  3  0  0  0  0  0  0
  160.0730  212.9910  149.6910 C   0  0  1  0  0  3  0  0  0  0  0  0
  159.3780  212.5370  145.8860 C   0  0  0  0  0  1  0  0  0  0  0  0
  159.8520  214.2800  147.5700 C   0  0  0  0  0  2  0  0  0  0  0  0
  1  5  1  0  0  0  0
  1  6  1  0  0  0  0
  2 11  1  0  0  0  0
  3 16  1  0  0  0  0
  3 10  2  0  0  0  0
  4  7  1  0  0  0  0
  4  8  1  1  0  0  0
  7  9  1  0  0  0  0
  8  1  2  0  0  0  0
  9  5  2  0  0  0  0
 11 10  1  0  0  0  0
 11  7  2  0  0  0  0
 12  2  2  0  0  0  0
 12 15  1  0  0  0  0
 13 14  2  0  0  0  0
 13  2  1  0  0  0  0
 14  3  1  0  0  0  0
 15  4  1  0  0  0  0
 16 18  1  0  0  0  0
 17 16  2  0  0  0  0
 19 22  1  6  0  0  0
 19 21  1  0  0  0  0
 19 20  1  0  0  0  0
 20 17  1  6  0  0  0
 21 20  1  0  0  0  0
 23 22  1  0  0  0  0
 24 25  2  0  0  0  0
 25 23  1  0  0  0  0
 26 27  1  6  0  0  0
 26 29  1  0  0  0  0
 26 24  1  0  0  0  0
 28 33  2  0  0  0  0
 29 28  2  0  0  0  0
 30 34  1  0  0  0  0
 30 29  1  0  0  0  0
 31 33  1  0  0  0  0
 32 31  1  0  0  0  0
 34 32  1  0  0  0  0
 35 13  1  0  0  0  0
 37 43  1  0  0  0  0
 37 36  1  0  0  0  0
 38 37  1  0  0  0  0
 39 43  1  6  0  0  0
 39 41  1  0  0  0  0
 40 36  1  6  0  0  0
 40 39  1  0  0  0  0
 40 41  1  0  0  0  0
 41 35  1  1  0  0  0
 42 37  1  0  0  0  0
M  END
>  <MODEL>
1

>  <REMARK>
 VINA RESULT:      -9.3      0.000      0.000
  Name = 
  9 active torsions:
  status: ('A' for Active; 'I' for Inactive)
    1  A    between atoms: O_1  and  C_34
    2  A    between atoms: O_1  and  C_35
    3  A    between atoms: C_2  and  C_13
    4  A    between atoms: C_3  and  N_4
    5  A    between atoms: N_4  and  C_15
    6  A    between atoms: C_6  and  C_12
    7  A    between atoms: C_10  and  C_22
    8  A    between atoms: C_14  and  C_22
    9  A    between atoms: C_15  and  C_42
                            x       y       z     vdW  Elec       q    Type
                         _______ _______ _______ _____ _____    ______ ____

>  <TORSDO>
F 9

$$$$
=
 OpenBabel11062410233D

 43 49  0  0  1  0  0  0  0  0999 V2000
  161.0370  202.9760  146.5950 C   0  0  0  0  0  0  0  0  0  0  0  0
  161.8650  207.2200  149.1870 C   0  0  0  0  0  0  0  0  0  0  0  0
  161.3790  206.5700  151.8880 C   0  0  0  0  0  0  0  0  0  0  0  0
  161.5790  205.2870  147.1930 C   0  0  1  0  0  3  0  0  0  0  0  0
  160.8230  202.6300  147.8680 C   0  0  0  0  0  3  0  0  0  0  0  0
  160.8900  201.9590  145.5200 C   0  0  0  0  0  1  0  0  0  0  0  0
  161.3430  204.9440  148.6030 C   0  0  0  0  0  0  0  0  0  0  0  0
  161.4330  204.3570  146.2460 C   0  0  0  0  0  3  0  0  0  0  0  0
  160.9640  203.5970  148.9200 N   0  0  0  0  0  0  0  0  0  0  0  0
  161.2480  205.5960  150.8870 C   0  0  0  0  0  3  0  0  0  0  0  0
  161.4830  205.8970  149.5430 C   0  0  0  0  0  0  0  0  0  0  0  0
  162.0890  207.5420  147.9020 C   0  0  0  0  0  3  0  0  0  0  0  0
  162.0020  208.2010  150.1850 C   0  0  0  0  0  0  0  0  0  0  0  0
  161.7570  207.8670  151.5230 C   0  0  0  0  0  3  0  0  0  0  0  0
  161.9530  206.5920  146.8820 O   0  0  0  0  0  0  0  0  0  0  0  0
  161.1160  206.2430  153.3090 C   0  0  0  0  0  0  0  0  0  0  0  0
  161.0460  207.2190  154.2230 C   0  0  0  0  0  3  0  0  0  0  0  0
  160.9360  204.8130  153.7200 C   0  0  0  0  0  1  0  0  0  0  0  0
  161.1000  208.1930  156.5820 C   0  0  2  0  0  3  0  0  0  0  0  0
  160.7970  206.9840  155.6880 C   0  0  1  0  0  3  0  0  0  0  0  0
  159.6700  207.8800  156.1710 C   0  0  0  0  0  2  0  0  0  0  0  0
  161.5890  209.3390  155.8250 N   0  0  0  0  0  2  0  0  0  0  0  0
  161.0520  210.5310  156.4630 C   0  0  0  0  0  2  0  0  0  0  0  0
  160.4780  211.8950  154.4530 C   0  0  0  0  0  3  0  0  0  0  0  0
  161.2170  211.7100  155.5560 C   0  0  0  0  0  3  0  0  0  0  0  0
  159.4020  210.9440  154.0090 C   0  0  2  0  0  3  0  0  0  0  0  0
  159.5660  210.6530  152.5210 C   0  0  0  0  0  1  0  0  0  0  0  0
  157.5750  212.5290  153.7640 C   0  0  0  0  0  0  0  0  0  0  0  0
  158.0300  211.4690  154.3530 C   0  0  0  0  0  0  0  0  0  0  0  0
  157.2700  211.0580  155.6020 C   0  0  0  0  0  2  0  0  0  0  0  0
  155.6280  213.7750  154.3040 C   0  0  0  0  0  2  0  0  0  0  0  0
  155.7110  213.1300  155.7120 C   0  0  0  0  0  2  0  0  0  0  0  0
  156.8550  213.5560  153.4590 C   0  0  0  0  0  3  0  0  0  0  0  0
  155.8140  211.5890  155.6800 C   0  0  0  0  0  2  0  0  0  0  0  0
  162.3800  209.5030  149.8340 O   0  0  0  0  0  0  0  0  0  0  0  0
  161.3650  211.9460  147.4010 O   0  0  0  0  0  0  0  0  0  0  0  0
  160.7600  213.0560  148.0180 C   0  0  0  0  0  0  0  0  0  0  0  0
  161.5270  214.3260  147.6800 C   0  0  0  0  0  1  0  0  0  0  0  0
  161.8760  211.8420  149.7370 C   0  0  2  0  0  3  0  0  0  0  0  0
  162.2480  211.3800  148.3440 C   0  0  1  0  0  3  0  0  0  0  0  0
  161.4850  210.4510  149.2700 C   0  0  1  0  0  3  0  0  0  0  0  0
  159.3280  213.1900  147.5340 C   0  0  0  0  0  1  0  0  0  0  0  0
  160.7660  212.8260  149.5080 C   0  0  0  0  0  2  0  0  0  0  0  0
  1  5  1  0  0  0  0
  2 11  1  0  0  0  0
  2 13  1  0  0  0  0
  3 16  1  0  0  0  0
  4  8  1  6  0  0  0
  4  7  1  0  0  0  0
  5  9  2  0  0  0  0
  6  1  1  0  0  0  0
  7  9  1  0  0  0  0
  7 11  2  0  0  0  0
  8  1  2  0  0  0  0
 10  3  2  0  0  0  0
 11 10  1  0  0  0  0
 12  2  2  0  0  0  0
 13 14  2  0  0  0  0
 14  3  1  0  0  0  0
 15  4  1  0  0  0  0
 15 12  1  0  0  0  0
 16 18  1  0  0  0  0
 16 17  2  0  0  0  0
 19 22  1  6  0  0  0
 20 17  1  6  0  0  0
 20 21  1  0  0  0  0
 20 19  1  0  0  0  0
 21 19  1  0  0  0  0
 22 23  1  0  0  0  0
 24 25  2  0  0  0  0
 25 23  1  0  0  0  0
 26 27  1  6  0  0  0
 26 29  1  0  0  0  0
 26 24  1  0  0  0  0
 28 29  2  0  0  0  0
 29 30  1  0  0  0  0
 30 34  1  0  0  0  0
 31 32  1  0  0  0  0
 33 28  2  0  0  0  0
 33 31  1  0  0  0  0
 34 32  1  0  0  0  0
 35 13  1  0  0  0  0
 36 37  1  0  0  0  0
 37 43  1  0  0  0  0
 38 37  1  0  0  0  0
 39 43  1  6  0  0  0
 40 36  1  6  0  0  0
 40 41  1  0  0  0  0
 40 39  1  0  0  0  0
 41 39  1  0  0  0  0
 41 35  1  1  0  0  0
 42 37  1  0  0  0  0
M  END
>  <MODEL>
2

>  <REMARK>
 VINA RESULT:      -9.2      2.034      9.250
  Name = 
  9 active torsions:
  status: ('A' for Active; 'I' for Inactive)
    1  A    between atoms: O_1  and  C_34
    2  A    between atoms: O_1  and  C_35
    3  A    between atoms: C_2  and  C_13
    4  A    between atoms: C_3  and  N_4
    5  A    between atoms: N_4  and  C_15
    6  A    between atoms: C_6  and  C_12
    7  A    between atoms: C_10  and  C_22
    8  A    between atoms: C_14  and  C_22
    9  A    between atoms: C_15  and  C_42
                            x       y       z     vdW  Elec       q    Type
                         _______ _______ _______ _____ _____    ______ ____

>  <TORSDO>
F 9

$$$$
=
 OpenBabel11062410233D

 43 49  0  0  1  0  0  0  0  0999 V2000
  161.3620  204.2660  146.6260 C   0  0  0  0  0  0  0  0  0  0  0  0
  161.6600  207.5790  150.4140 C   0  0  0  0  0  0  0  0  0  0  0  0
  161.9820  210.1020  149.1970 C   0  0  0  0  0  0  0  0  0  0  0  0
  161.4300  205.2740  148.8550 C   0  0  0  0  0  0  0  0  0  0  0  0
  161.4890  205.4500  146.0170 C   0  0  0  0  0  3  0  0  0  0  0  0
  161.2370  203.0290  145.8100 C   0  0  0  0  0  1  0  0  0  0  0  0
  161.5800  206.5910  148.2200 C   0  0  0  0  0  0  0  0  0  0  0  0
  161.3290  204.1770  148.1010 C   0  0  0  0  0  3  0  0  0  0  0  0
  161.6060  206.6560  146.7870 N   0  0  0  0  0  2  0  0  0  0  0  0
  161.8540  208.9450  148.4140 C   0  0  0  0  0  3  0  0  0  0  0  0
  161.6950  207.6850  148.9970 C   0  0  0  0  0  0  0  0  0  0  0  0
  161.5180  206.3800  151.0040 C   0  0  0  0  0  3  0  0  0  0  0  0
  161.7850  208.7340  151.2060 C   0  0  0  0  0  0  0  0  0  0  0  0
  161.9450  209.9820  150.5900 C   0  0  0  0  0  3  0  0  0  0  0  0
  161.4000  205.2070  150.2460 O   0  0  0  0  0  0  0  0  0  0  0  0
  162.1620  211.4320  148.5690 C   0  0  0  0  0  0  0  0  0  0  0  0
  161.1560  212.3140  148.5580 C   0  0  0  0  0  3  0  0  0  0  0  0
  163.4770  211.7820  147.9390 C   0  0  0  0  0  1  0  0  0  0  0  0
  160.2260  213.9230  146.8080 C   0  0  2  0  0  3  0  0  0  0  0  0
  161.2400  213.6800  147.9330 C   0  0  1  0  0  3  0  0  0  0  0  0
  159.9610  214.4530  148.2080 C   0  0  0  0  0  2  0  0  0  0  0  0
  159.3820  212.7610  146.5550 N   0  0  0  0  0  2  0  0  0  0  0  0
  159.6160  212.3580  145.1770 C   0  0  0  0  0  2  0  0  0  0  0  0
  160.6840  213.7660  143.4160 C   0  0  0  0  0  3  0  0  0  0  0  0
  159.6980  213.5680  144.3010 C   0  0  0  0  0  3  0  0  0  0  0  0
  161.8120  212.7960  143.2020 C   0  0  2  0  0  3  0  0  0  0  0  0
  163.0490  213.2850  143.9480 C   0  0  0  0  0  1  0  0  0  0  0  0
  161.7260  211.4460  141.1820 C   0  0  0  0  0  0  0  0  0  0  0  0
  162.0680  212.5670  141.7340 C   0  0  0  0  0  0  0  0  0  0  0  0
  163.0250  213.4150  140.9130 C   0  0  0  0  0  2  0  0  0  0  0  0
  162.2750  210.6610  139.0110 C   0  0  0  0  0  2  0  0  0  0  0  0
  163.4500  211.6750  139.0360 C   0  0  0  0  0  2  0  0  0  0  0  0
  161.6050  210.4710  140.3450 C   0  0  0  0  0  3  0  0  0  0  0  0
  163.0160  213.1140  139.3900 C   0  0  0  0  0  2  0  0  0  0  0  0
  161.7500  208.6280  152.6020 O   0  0  0  0  0  0  0  0  0  0  0  0
  160.6400  211.4100  154.5880 O   0  0  0  0  0  0  0  0  0  0  0  0
  159.9980  210.9740  155.7600 C   0  0  0  0  0  0  0  0  0  0  0  0
  160.7180  211.5170  156.9850 C   0  0  0  0  0  1  0  0  0  0  0  0
  161.1620  209.0920  154.8760 C   0  0  2  0  0  3  0  0  0  0  0  0
  161.5460  210.3970  154.2100 C   0  0  1  0  0  3  0  0  0  0  0  0
  160.8200  209.3270  153.4160 C   0  0  1  0  0  3  0  0  0  0  0  0
  158.5610  211.4610  155.7650 C   0  0  0  0  0  1  0  0  0  0  0  0
  160.0170  209.4660  155.7710 C   0  0  0  0  0  2  0  0  0  0  0  0
  1  8  1  0  0  0  0
  2 12  2  0  0  0  0
  2 13  1  0  0  0  0
  3 14  1  0  0  0  0
  4 15  1  0  0  0  0
  5  1  2  0  0  0  0
  5  9  1  0  0  0  0
  6  1  1  0  0  0  0
  7  4  1  0  0  0  0
  7 11  2  0  0  0  0
  8  4  2  0  0  0  0
  9  7  1  0  0  0  0
 10 11  1  0  0  0  0
 10  3  2  0  0  0  0
 11  2  1  0  0  0  0
 13 35  1  0  0  0  0
 14 13  2  0  0  0  0
 15 12  1  0  0  0  0
 16  3  1  0  0  0  0
 17 16  2  0  0  0  0
 18 16  1  0  0  0  0
 19 22  1  1  0  0  0
 19 20  1  0  0  0  0
 19 21  1  0  0  0  0
 20 21  1  0  0  0  0
 20 17  1  1  0  0  0
 23 22  1  0  0  0  0
 24 25  2  0  0  0  0
 25 23  1  0  0  0  0
 26 24  1  0  0  0  0
 26 27  1  6  0  0  0
 28 29  2  0  0  0  0
 29 26  1  0  0  0  0
 30 29  1  0  0  0  0
 31 32  1  0  0  0  0
 31 33  1  0  0  0  0
 32 34  1  0  0  0  0
 33 28  2  0  0  0  0
 34 30  1  0  0  0  0
 36 37  1  0  0  0  0
 37 42  1  0  0  0  0
 37 43  1  0  0  0  0
 37 38  1  0  0  0  0
 39 43  1  1  0  0  0
 40 36  1  1  0  0  0
 40 39  1  0  0  0  0
 41 35  1  6  0  0  0
 41 40  1  0  0  0  0
 41 39  1  0  0  0  0
M  END
>  <MODEL>
3

>  <REMARK>
 VINA RESULT:      -9.0      3.516      9.643
  Name = 
  9 active torsions:
  status: ('A' for Active; 'I' for Inactive)
    1  A    between atoms: O_1  and  C_34
    2  A    between atoms: O_1  and  C_35
    3  A    between atoms: C_2  and  C_13
    4  A    between atoms: C_3  and  N_4
    5  A    between atoms: N_4  and  C_15
    6  A    between atoms: C_6  and  C_12
    7  A    between atoms: C_10  and  C_22
    8  A    between atoms: C_14  and  C_22
    9  A    between atoms: C_15  and  C_42
                            x       y       z     vdW  Elec       q    Type
                         _______ _______ _______ _____ _____    ______ ____

>  <TORSDO>
F 9

$$$$
=
 OpenBabel11062410233D

 43 49  0  0  1  0  0  0  0  0999 V2000
  160.8360  202.2690  146.4120 C   0  0  0  0  0  0  0  0  0  0  0  0
  161.8490  206.6500  148.6910 C   0  0  0  0  0  0  0  0  0  0  0  0
  161.3550  206.2150  151.4330 C   0  0  0  0  0  0  0  0  0  0  0  0
  161.4730  204.5930  146.8410 C   0  0  1  0  0  3  0  0  0  0  0  0
  160.6170  202.0230  147.7080 C   0  0  0  0  0  3  0  0  0  0  0  0
  160.6420  201.1840  145.4130 C   0  0  0  0  0  1  0  0  0  0  0  0
  161.2330  204.3610  148.2730 C   0  0  0  0  0  0  0  0  0  0  0  0
  161.2840  203.6050  145.9640 C   0  0  0  0  0  3  0  0  0  0  0  0
  160.8030  203.0560  148.6870 N   0  0  0  0  0  0  0  0  0  0  0  0
  161.1790  205.1780  150.5050 C   0  0  0  0  0  3  0  0  0  0  0  0
  161.4160  205.3730  149.1410 C   0  0  0  0  0  0  0  0  0  0  0  0
  162.0760  206.8710  147.3850 C   0  0  0  0  0  3  0  0  0  0  0  0
  162.0300  207.6940  149.6160 C   0  0  0  0  0  0  0  0  0  0  0  0
  161.7810  207.4660  150.9750 C   0  0  0  0  0  3  0  0  0  0  0  0
  161.8960  205.8560  146.4360 O   0  0  0  0  0  0  0  0  0  0  0  0
  161.0890  206.0010  152.8750 C   0  0  0  0  0  0  0  0  0  0  0  0
  161.0310  207.0440  153.7110 C   0  0  0  0  0  3  0  0  0  0  0  0
  160.8910  204.6080  153.3940 C   0  0  0  0  0  1  0  0  0  0  0  0
  161.0870  208.1990  155.9870 C   0  0  2  0  0  3  0  0  0  0  0  0
  160.7800  206.9250  155.1900 C   0  0  1  0  0  3  0  0  0  0  0  0
  159.6560  207.8610  155.6010 C   0  0  0  0  0  2  0  0  0  0  0  0
  161.5820  209.2810  155.1440 N   0  0  0  0  0  2  0  0  0  0  0  0
  160.9860  210.5120  155.6390 C   0  0  0  0  0  2  0  0  0  0  0  0
  160.3480  212.0870  153.8120 C   0  0  0  0  0  3  0  0  0  0  0  0
  161.2590  211.6290  154.6800 C   0  0  0  0  0  3  0  0  0  0  0  0
  158.9540  211.5360  153.7060 C   0  0  2  0  0  3  0  0  0  0  0  0
  158.9520  210.3400  152.7610 C   0  0  0  0  0  1  0  0  0  0  0  0
  156.8820  212.7790  153.9770 C   0  0  0  0  0  0  0  0  0  0  0  0
  157.9710  212.6050  153.2970 C   0  0  0  0  0  0  0  0  0  0  0  0
  157.9820  213.2670  151.9300 C   0  0  0  0  0  2  0  0  0  0  0  0
  155.0130  214.1290  153.4140 C   0  0  0  0  0  2  0  0  0  0  0  0
  155.5100  214.0530  151.9460 C   0  0  0  0  0  2  0  0  0  0  0  0
  155.7080  213.1710  154.3430 C   0  0  0  0  0  3  0  0  0  0  0  0
  156.9920  214.4520  151.7750 C   0  0  0  0  0  2  0  0  0  0  0  0
  162.4570  208.9520  149.1700 O   0  0  0  0  0  0  0  0  0  0  0  0
  161.4210  212.0470  147.6670 O   0  0  0  0  0  0  0  0  0  0  0  0
  160.9210  212.9380  148.6320 C   0  0  0  0  0  0  0  0  0  0  0  0
  161.7330  214.2250  148.6290 C   0  0  0  0  0  1  0  0  0  0  0  0
  162.0780  211.2250  149.8170 C   0  0  2  0  0  3  0  0  0  0  0  0
  162.3310  211.1930  148.3240 C   0  0  1  0  0  3  0  0  0  0  0  0
  161.5810  210.0540  148.9890 C   0  0  1  0  0  3  0  0  0  0  0  0
  159.4700  213.2600  148.3260 C   0  0  0  0  0  1  0  0  0  0  0  0
  161.0120  212.2690  149.9810 C   0  0  0  0  0  2  0  0  0  0  0  0
  1  5  1  0  0  0  0
  2 11  1  0  0  0  0
  2 13  1  0  0  0  0
  3 16  1  0  0  0  0
  4  8  1  6  0  0  0
  4  7  1  0  0  0  0
  5  9  2  0  0  0  0
  6  1  1  0  0  0  0
  7  9  1  0  0  0  0
  7 11  2  0  0  0  0
  8  1  2  0  0  0  0
 10  3  2  0  0  0  0
 11 10  1  0  0  0  0
 12  2  2  0  0  0  0
 13 14  2  0  0  0  0
 14  3  1  0  0  0  0
 15  4  1  0  0  0  0
 15 12  1  0  0  0  0
 16 18  1  0  0  0  0
 16 17  2  0  0  0  0
 19 22  1  6  0  0  0
 20 17  1  6  0  0  0
 20 21  1  0  0  0  0
 20 19  1  0  0  0  0
 21 19  1  0  0  0  0
 22 23  1  0  0  0  0
 24 25  2  0  0  0  0
 25 23  1  0  0  0  0
 26 27  1  6  0  0  0
 26 24  1  0  0  0  0
 28 33  2  0  0  0  0
 29 26  1  0  0  0  0
 29 28  2  0  0  0  0
 30 29  1  0  0  0  0
 31 33  1  0  0  0  0
 32 31  1  0  0  0  0
 34 30  1  0  0  0  0
 34 32  1  0  0  0  0
 35 13  1  0  0  0  0
 36 37  1  0  0  0  0
 37 43  1  0  0  0  0
 38 37  1  0  0  0  0
 39 43  1  6  0  0  0
 40 36  1  6  0  0  0
 40 41  1  0  0  0  0
 40 39  1  0  0  0  0
 41 35  1  1  0  0  0
 41 39  1  0  0  0  0
 42 37  1  0  0  0  0
M  END
>  <MODEL>
4

>  <REMARK>
 VINA RESULT:      -8.8      2.156      9.438
  Name = 
  9 active torsions:
  status: ('A' for Active; 'I' for Inactive)
    1  A    between atoms: O_1  and  C_34
    2  A    between atoms: O_1  and  C_35
    3  A    between atoms: C_2  and  C_13
    4  A    between atoms: C_3  and  N_4
    5  A    between atoms: N_4  and  C_15
    6  A    between atoms: C_6  and  C_12
    7  A    between atoms: C_10  and  C_22
    8  A    between atoms: C_14  and  C_22
    9  A    between atoms: C_15  and  C_42
                            x       y       z     vdW  Elec       q    Type
                         _______ _______ _______ _____ _____    ______ ____

>  <TORSDO>
F 9

$$$$
=
 OpenBabel11062410233D

 43 49  0  0  1  0  0  0  0  0999 V2000
  161.3820  204.2800  146.9620 C   0  0  0  0  0  0  0  0  0  0  0  0
  161.7580  207.9090  150.4410 C   0  0  0  0  0  0  0  0  0  0  0  0
  161.9630  210.3260  149.0020 C   0  0  0  0  0  0  0  0  0  0  0  0
  161.5200  205.4760  149.0930 C   0  0  0  0  0  0  0  0  0  0  0  0
  161.4530  205.4110  146.2510 C   0  0  0  0  0  3  0  0  0  0  0  0
  161.2540  202.9760  146.2600 C   0  0  0  0  0  1  0  0  0  0  0  0
  161.6090  206.7370  148.3430 C   0  0  0  0  0  0  0  0  0  0  0  0
  161.4140  204.3170  148.4390 C   0  0  0  0  0  3  0  0  0  0  0  0
  161.5720  206.6800  146.9100 N   0  0  0  0  0  2  0  0  0  0  0  0
  161.8310  209.1040  148.3250 C   0  0  0  0  0  3  0  0  0  0  0  0
  161.7290  207.8950  149.0190 C   0  0  0  0  0  0  0  0  0  0  0  0
  161.6720  206.7630  151.1350 C   0  0  0  0  0  3  0  0  0  0  0  0
  161.8870  209.1300  151.1260 C   0  0  0  0  0  0  0  0  0  0  0  0
  161.9890  210.3240  150.4010 C   0  0  0  0  0  3  0  0  0  0  0  0
  161.5510  205.5270  150.4840 O   0  0  0  0  0  0  0  0  0  0  0  0
  162.0820  211.6010  148.2570 C   0  0  0  0  0  0  0  0  0  0  0  0
  160.9840  212.2620  147.8720 C   0  0  0  0  0  3  0  0  0  0  0  0
  163.4410  212.1440  147.9290 C   0  0  0  0  0  1  0  0  0  0  0  0
  160.3860  213.4620  145.7000 C   0  0  2  0  0  3  0  0  0  0  0  0
  161.0050  213.5530  147.1010 C   0  0  1  0  0  3  0  0  0  0  0  0
  159.5840  214.0340  146.8580 C   0  0  0  0  0  2  0  0  0  0  0  0
  159.9080  212.1220  145.3860 N   0  0  0  0  0  2  0  0  0  0  0  0
  160.0800  211.9340  143.9530 C   0  0  0  0  0  2  0  0  0  0  0  0
  159.6930  213.4140  141.9820 C   0  0  0  0  0  3  0  0  0  0  0  0
  159.3450  213.0050  143.2100 C   0  0  0  0  0  3  0  0  0  0  0  0
  160.8520  212.8420  141.2160 C   0  0  2  0  0  3  0  0  0  0  0  0
  161.3930  213.8960  140.2550 C   0  0  0  0  0  1  0  0  0  0  0  0
  161.3430  210.6110  140.3860 C   0  0  0  0  0  0  0  0  0  0  0  0
  160.4710  211.5590  140.5210 C   0  0  0  0  0  0  0  0  0  0  0  0
  159.2400  211.4220  139.6420 C   0  0  0  0  0  2  0  0  0  0  0  0
  161.1610  208.6370  139.0810 C   0  0  0  0  0  2  0  0  0  0  0  0
  160.0610  209.3760  138.2740 C   0  0  0  0  0  2  0  0  0  0  0  0
  161.9390  209.5290  140.0100 C   0  0  0  0  0  3  0  0  0  0  0  0
  158.9460  209.9770  139.1570 C   0  0  0  0  0  2  0  0  0  0  0  0
  161.9140  209.1430  152.5260 O   0  0  0  0  0  0  0  0  0  0  0  0
  160.2320  211.5180  154.6350 O   0  0  0  0  0  0  0  0  0  0  0  0
  159.6120  210.8800  155.7240 C   0  0  0  0  0  0  0  0  0  0  0  0
  160.1590  211.4290  157.0330 C   0  0  0  0  0  1  0  0  0  0  0  0
  161.1310  209.3050  154.7830 C   0  0  2  0  0  3  0  0  0  0  0  0
  161.3190  210.7080  154.2450 C   0  0  1  0  0  3  0  0  0  0  0  0
  160.8340  209.6030  153.3250 C   0  0  1  0  0  3  0  0  0  0  0  0
  158.1140  211.1150  155.6670 C   0  0  0  0  0  1  0  0  0  0  0  0
  159.8920  209.4020  155.6230 C   0  0  0  0  0  2  0  0  0  0  0  0
  1  8  1  0  0  0  0
  2 13  1  0  0  0  0
  2 12  2  0  0  0  0
  3 14  1  0  0  0  0
  4 15  1  0  0  0  0
  5  9  1  0  0  0  0
  5  1  2  0  0  0  0
  6  1  1  0  0  0  0
  7 11  2  0  0  0  0
  7  4  1  0  0  0  0
  8  4  2  0  0  0  0
  9  7  1  0  0  0  0
 10  3  2  0  0  0  0
 10 11  1  0  0  0  0
 11  2  1  0  0  0  0
 13 35  1  0  0  0  0
 14 13  2  0  0  0  0
 15 12  1  0  0  0  0
 16  3  1  0  0  0  0
 17 16  2  0  0  0  0
 18 16  1  0  0  0  0
 19 22  1  1  0  0  0
 19 21  1  0  0  0  0
 19 20  1  0  0  0  0
 20 17  1  1  0  0  0
 21 20  1  0  0  0  0
 23 22  1  0  0  0  0
 24 25  2  0  0  0  0
 25 23  1  0  0  0  0
 26 27  1  6  0  0  0
 26 24  1  0  0  0  0
 28 29  2  0  0  0  0
 29 26  1  0  0  0  0
 30 29  1  0  0  0  0
 31 33  1  0  0  0  0
 32 31  1  0  0  0  0
 32 34  1  0  0  0  0
 33 28  2  0  0  0  0
 34 30  1  0  0  0  0
 36 37  1  0  0  0  0
 37 38  1  0  0  0  0
 39 43  1  1  0  0  0
 40 36  1  1  0  0  0
 40 39  1  0  0  0  0
 41 35  1  6  0  0  0
 41 40  1  0  0  0  0
 41 39  1  0  0  0  0
 42 37  1  0  0  0  0
 43 37  1  0  0  0  0
M  END
>  <MODEL>
5

>  <REMARK>
 VINA RESULT:      -8.7      3.878      9.484
  Name = 
  9 active torsions:
  status: ('A' for Active; 'I' for Inactive)
    1  A    between atoms: O_1  and  C_34
    2  A    between atoms: O_1  and  C_35
    3  A    between atoms: C_2  and  C_13
    4  A    between atoms: C_3  and  N_4
    5  A    between atoms: N_4  and  C_15
    6  A    between atoms: C_6  and  C_12
    7  A    between atoms: C_10  and  C_22
    8  A    between atoms: C_14  and  C_22
    9  A    between atoms: C_15  and  C_42
                            x       y       z     vdW  Elec       q    Type
                         _______ _______ _______ _____ _____    ______ ____

>  <TORSDO>
F 9

$$$$
=
 OpenBabel11062410233D

 43 49  0  0  1  0  0  0  0  0999 V2000
  160.9800  202.5900  146.9200 C   0  0  0  0  0  0  0  0  0  0  0  0
  161.8240  207.2870  148.5470 C   0  0  0  0  0  0  0  0  0  0  0  0
  161.4530  207.2040  151.3420 C   0  0  0  0  0  0  0  0  0  0  0  0
  161.5010  204.9800  147.0070 C   0  0  1  0  0  3  0  0  0  0  0  0
  160.8200  202.5120  148.2460 C   0  0  0  0  0  3  0  0  0  0  0  0
  160.8120  201.3710  146.0850 C   0  0  0  0  0  1  0  0  0  0  0  0
  161.3240  204.9330  148.4660 C   0  0  0  0  0  0  0  0  0  0  0  0
  161.3360  203.8730  146.2790 C   0  0  0  0  0  3  0  0  0  0  0  0
  160.9830  203.6770  149.0690 N   0  0  0  0  0  0  0  0  0  0  0  0
  161.3020  206.0420  150.5690 C   0  0  0  0  0  3  0  0  0  0  0  0
  161.4810  206.0620  149.1820 C   0  0  0  0  0  0  0  0  0  0  0  0
  161.9930  207.3390  147.2150 C   0  0  0  0  0  3  0  0  0  0  0  0
  161.9790  208.4540  149.3150 C   0  0  0  0  0  0  0  0  0  0  0  0
  161.7920  208.4010  150.7020 C   0  0  0  0  0  3  0  0  0  0  0  0
  161.8370  206.1970  146.4190 O   0  0  0  0  0  0  0  0  0  0  0  0
  161.2490  207.1750  152.8090 C   0  0  0  0  0  0  0  0  0  0  0  0
  161.1100  208.3170  153.4920 C   0  0  0  0  0  3  0  0  0  0  0  0
  161.2070  205.8580  153.5250 C   0  0  0  0  0  1  0  0  0  0  0  0
  160.9560  209.8100  155.5580 C   0  0  2  0  0  3  0  0  0  0  0  0
  160.9140  208.3880  154.9820 C   0  0  1  0  0  3  0  0  0  0  0  0
  159.6230  209.1240  155.2990 C   0  0  0  0  0  2  0  0  0  0  0  0
  161.1960  210.8200  154.5350 N   0  0  0  0  0  2  0  0  0  0  0  0
  159.9370  211.5170  154.3220 C   0  0  0  0  0  2  0  0  0  0  0  0
  158.5240  212.0760  152.3430 C   0  0  0  0  0  3  0  0  0  0  0  0
  159.4900  211.3370  152.9050 C   0  0  0  0  0  3  0  0  0  0  0  0
  157.7880  213.1670  153.0670 C   0  0  2  0  0  3  0  0  0  0  0  0
  158.6370  214.4340  153.0710 C   0  0  0  0  0  1  0  0  0  0  0  0
  156.5530  211.7490  154.6080 C   0  0  0  0  0  0  0  0  0  0  0  0
  157.3840  212.7310  154.4530 C   0  0  0  0  0  0  0  0  0  0  0  0
  157.6000  213.5840  155.6910 C   0  0  0  0  0  2  0  0  0  0  0  0
  155.4850  211.0440  156.6070 C   0  0  0  0  0  2  0  0  0  0  0  0
  155.7810  212.4630  157.1630 C   0  0  0  0  0  2  0  0  0  0  0  0
  155.7250  210.9070  155.1270 C   0  0  0  0  0  3  0  0  0  0  0  0
  157.2620  212.8800  157.0330 C   0  0  0  0  0  2  0  0  0  0  0  0
  162.3190  209.6600  148.6880 O   0  0  0  0  0  0  0  0  0  0  0  0
  160.1120  212.2570  147.5480 O   0  0  0  0  0  0  0  0  0  0  0  0
  160.5530  213.5210  147.9740 C   0  0  0  0  0  0  0  0  0  0  0  0
  160.8060  214.4210  146.7730 C   0  0  0  0  0  1  0  0  0  0  0  0
  162.3750  212.0190  148.2890 C   0  0  2  0  0  3  0  0  0  0  0  0
  161.2490  211.4270  147.4670 C   0  0  1  0  0  3  0  0  0  0  0  0
  161.5680  210.8560  148.8360 C   0  0  1  0  0  3  0  0  0  0  0  0
  159.4990  214.1560  148.8630 C   0  0  0  0  0  1  0  0  0  0  0  0
  161.8260  213.3340  148.7610 C   0  0  0  0  0  2  0  0  0  0  0  0
  1  5  1  0  0  0  0
  2 11  1  0  0  0  0
  2 13  1  0  0  0  0
  3 16  1  0  0  0  0
  4  8  1  6  0  0  0
  4  7  1  0  0  0  0
  5  9  2  0  0  0  0
  6  1  1  0  0  0  0
  7  9  1  0  0  0  0
  7 11  2  0  0  0  0
  8  1  2  0  0  0  0
 10  3  2  0  0  0  0
 11 10  1  0  0  0  0
 12  2  2  0  0  0  0
 13 14  2  0  0  0  0
 14  3  1  0  0  0  0
 15  4  1  0  0  0  0
 15 12  1  0  0  0  0
 16 17  2  0  0  0  0
 16 18  1  0  0  0  0
 19 22  1  6  0  0  0
 20 17  1  6  0  0  0
 20 21  1  0  0  0  0
 20 19  1  0  0  0  0
 21 19  1  0  0  0  0
 23 22  1  0  0  0  0
 24 25  2  0  0  0  0
 24 26  1  0  0  0  0
 25 23  1  0  0  0  0
 26 27  1  1  0  0  0
 26 29  1  0  0  0  0
 28 33  2  0  0  0  0
 29 28  2  0  0  0  0
 29 30  1  0  0  0  0
 30 34  1  0  0  0  0
 31 32  1  0  0  0  0
 33 31  1  0  0  0  0
 34 32  1  0  0  0  0
 35 13  1  0  0  0  0
 36 37  1  0  0  0  0
 37 43  1  0  0  0  0
 37 42  1  0  0  0  0
 38 37  1  0  0  0  0
 39 43  1  1  0  0  0
 39 41  1  0  0  0  0
 40 36  1  1  0  0  0
 40 39  1  0  0  0  0
 40 41  1  0  0  0  0
 41 35  1  6  0  0  0
M  END
>  <MODEL>
6

>  <REMARK>
 VINA RESULT:      -8.6      1.863      9.425
  Name = 
  9 active torsions:
  status: ('A' for Active; 'I' for Inactive)
    1  A    between atoms: O_1  and  C_34
    2  A    between atoms: O_1  and  C_35
    3  A    between atoms: C_2  and  C_13
    4  A    between atoms: C_3  and  N_4
    5  A    between atoms: N_4  and  C_15
    6  A    between atoms: C_6  and  C_12
    7  A    between atoms: C_10  and  C_22
    8  A    between atoms: C_14  and  C_22
    9  A    between atoms: C_15  and  C_42
                            x       y       z     vdW  Elec       q    Type
                         _______ _______ _______ _____ _____    ______ ____

>  <TORSDO>
F 9

$$$$
=
 OpenBabel11062410233D

 43 49  0  0  1  0  0  0  0  0999 V2000
  161.2780  212.9670  147.3830 C   0  0  0  0  0  0  0  0  0  0  0  0
  160.0280  212.7090  152.2600 C   0  0  0  0  0  0  0  0  0  0  0  0
  160.7370  210.1100  153.0930 C   0  0  0  0  0  0  0  0  0  0  0  0
  160.4590  213.5180  149.6220 C   0  0  0  0  0  0  0  0  0  0  0  0
  161.6480  211.7360  147.7520 C   0  0  0  0  0  3  0  0  0  0  0  0
  161.5020  213.4130  145.9820 C   0  0  0  0  0  1  0  0  0  0  0  0
  160.8450  212.1690  150.0610 C   0  0  0  0  0  0  0  0  0  0  0  0
  160.6630  213.8920  148.3570 C   0  0  0  0  0  3  0  0  0  0  0  0
  161.4450  211.2880  149.1010 N   0  0  0  0  0  2  0  0  0  0  0  0
  160.9650  210.5210  151.7710 C   0  0  0  0  0  3  0  0  0  0  0  0
  160.6200  211.8040  151.3370 C   0  0  0  0  0  0  0  0  0  0  0  0
  159.6760  213.9460  151.8700 C   0  0  0  0  0  3  0  0  0  0  0  0
  159.7980  212.3060  153.5870 C   0  0  0  0  0  0  0  0  0  0  0  0
  160.1540  211.0120  153.9890 C   0  0  0  0  0  3  0  0  0  0  0  0
  159.8820  214.3780  150.5530 O   0  0  0  0  0  0  0  0  0  0  0  0
  161.0960  208.7430  153.5390 C   0  0  0  0  0  0  0  0  0  0  0  0
  161.1940  207.7490  152.6490 C   0  0  0  0  0  3  0  0  0  0  0  0
  161.3410  208.4790  154.9940 C   0  0  0  0  0  1  0  0  0  0  0  0
  161.1110  205.2920  151.9620 C   0  0  2  0  0  3  0  0  0  0  0  0
  161.5380  206.3290  153.0080 C   0  0  1  0  0  3  0  0  0  0  0  0
  162.5510  205.7760  152.0190 C   0  0  0  0  0  2  0  0  0  0  0  0
  160.4340  205.8950  150.8210 N   0  0  0  0  0  2  0  0  0  0  0  0
  161.4550  206.1920  149.8290 C   0  0  0  0  0  2  0  0  0  0  0  0
  161.1120  206.2090  147.3570 C   0  0  0  0  0  3  0  0  0  0  0  0
  160.8120  206.6880  148.5710 C   0  0  0  0  0  3  0  0  0  0  0  0
  162.1210  205.1200  147.1230 C   0  0  2  0  0  3  0  0  0  0  0  0
  162.8750  205.3980  145.8260 C   0  0  0  0  0  1  0  0  0  0  0  0
  161.3340  203.1210  148.2590 C   0  0  0  0  0  0  0  0  0  0  0  0
  161.4740  203.7580  147.1400 C   0  0  0  0  0  0  0  0  0  0  0  0
  161.2880  202.9080  145.8950 C   0  0  0  0  0  2  0  0  0  0  0  0
  160.6660  200.8660  148.5800 C   0  0  0  0  0  2  0  0  0  0  0  0
  161.0890  200.6220  147.1070 C   0  0  0  0  0  2  0  0  0  0  0  0
  161.1100  202.1940  149.1300 C   0  0  0  0  0  3  0  0  0  0  0  0
  160.4540  201.6160  146.1100 C   0  0  0  0  0  2  0  0  0  0  0  0
  159.2150  213.1990  154.4950 O   0  0  0  0  0  0  0  0  0  0  0  0
  155.7020  212.7920  155.1360 O   0  0  0  0  0  0  0  0  0  0  0  0
  155.3560  213.2950  156.4020 C   0  0  0  0  0  0  0  0  0  0  0  0
  154.3080  214.3890  156.2630 C   0  0  0  0  0  1  0  0  0  0  0  0
  157.5230  214.1470  155.8980 C   0  0  2  0  0  3  0  0  0  0  0  0
  156.8440  213.5010  154.7070 C   0  0  1  0  0  3  0  0  0  0  0  0
  158.0920  212.8730  155.3000 C   0  0  1  0  0  3  0  0  0  0  0  0
  154.7990  212.1740  157.2600 C   0  0  0  0  0  1  0  0  0  0  0  0
  156.6030  213.8470  157.0450 C   0  0  0  0  0  2  0  0  0  0  0  0
  1  5  2  0  0  0  0
  1  8  1  0  0  0  0
  2 13  1  0  0  0  0
  3 16  1  0  0  0  0
  3 14  1  0  0  0  0
  4  7  1  0  0  0  0
  4 15  1  0  0  0  0
  5  9  1  0  0  0  0
  6  1  1  0  0  0  0
  7 11  2  0  0  0  0
  8  4  2  0  0  0  0
  9  7  1  0  0  0  0
 10  3  2  0  0  0  0
 11 10  1  0  0  0  0
 11  2  1  0  0  0  0
 12  2  2  0  0  0  0
 13 14  2  0  0  0  0
 13 35  1  0  0  0  0
 15 12  1  0  0  0  0
 16 18  1  0  0  0  0
 17 16  2  0  0  0  0
 19 22  1  6  0  0  0
 19 21  1  0  0  0  0
 19 20  1  0  0  0  0
 20 17  1  6  0  0  0
 21 20  1  0  0  0  0
 23 22  1  0  0  0  0
 24 25  2  0  0  0  0
 25 23  1  0  0  0  0
 26 27  1  6  0  0  0
 26 29  1  0  0  0  0
 26 24  1  0  0  0  0
 28 33  2  0  0  0  0
 29 28  2  0  0  0  0
 30 34  1  0  0  0  0
 30 29  1  0  0  0  0
 31 33  1  0  0  0  0
 32 31  1  0  0  0  0
 34 32  1  0  0  0  0
 36 37  1  0  0  0  0
 37 43  1  0  0  0  0
 37 42  1  0  0  0  0
 38 37  1  0  0  0  0
 39 43  1  1  0  0  0
 40 36  1  1  0  0  0
 40 41  1  0  0  0  0
 40 39  1  0  0  0  0
 41 35  1  6  0  0  0
 41 39  1  0  0  0  0
M  END
>  <MODEL>
7

>  <REMARK>
 VINA RESULT:      -8.2      1.647      5.792
  Name = 
  9 active torsions:
  status: ('A' for Active; 'I' for Inactive)
    1  A    between atoms: O_1  and  C_34
    2  A    between atoms: O_1  and  C_35
    3  A    between atoms: C_2  and  C_13
    4  A    between atoms: C_3  and  N_4
    5  A    between atoms: N_4  and  C_15
    6  A    between atoms: C_6  and  C_12
    7  A    between atoms: C_10  and  C_22
    8  A    between atoms: C_14  and  C_22
    9  A    between atoms: C_15  and  C_42
                            x       y       z     vdW  Elec       q    Type
                         _______ _______ _______ _____ _____    ______ ____

>  <TORSDO>
F 9

$$$$
=
 OpenBabel11062410233D

 43 49  0  0  1  0  0  0  0  0999 V2000
  160.7830  202.6540  148.7610 C   0  0  0  0  0  0  0  0  0  0  0  0
  161.8530  207.4470  149.9040 C   0  0  0  0  0  0  0  0  0  0  0  0
  161.2760  207.7230  152.6500 C   0  0  0  0  0  0  0  0  0  0  0  0
  161.4710  204.9990  148.6160 C   0  0  1  0  0  3  0  0  0  0  0  0
  160.5230  202.7460  150.0700 C   0  0  0  0  0  3  0  0  0  0  0  0
  160.5860  201.3580  148.0610 C   0  0  0  0  0  1  0  0  0  0  0  0
  161.1870  205.1380  150.0520 C   0  0  0  0  0  0  0  0  0  0  0  0
  161.2780  203.8260  148.0080 C   0  0  0  0  0  3  0  0  0  0  0  0
  160.7120  203.9880  150.7650 N   0  0  0  0  0  0  0  0  0  0  0  0
  161.0960  206.4890  152.0060 C   0  0  0  0  0  3  0  0  0  0  0  0
  161.3750  206.3320  150.6450 C   0  0  0  0  0  0  0  0  0  0  0  0
  162.1200  207.3290  148.5920 C   0  0  0  0  0  3  0  0  0  0  0  0
  162.0380  208.6850  150.5430 C   0  0  0  0  0  0  0  0  0  0  0  0
  161.7480  208.8100  151.9080 C   0  0  0  0  0  3  0  0  0  0  0  0
  161.9380  206.1120  147.9210 O   0  0  0  0  0  0  0  0  0  0  0  0
  160.9660  207.8830  154.0900 C   0  0  0  0  0  0  0  0  0  0  0  0
  160.8370  209.1050  154.6200 C   0  0  0  0  0  3  0  0  0  0  0  0
  160.8050  206.6670  154.9530 C   0  0  0  0  0  1  0  0  0  0  0  0
  160.4770  210.8530  156.4450 C   0  0  2  0  0  3  0  0  0  0  0  0
  160.5380  209.3660  156.0710 C   0  0  1  0  0  3  0  0  0  0  0  0
  159.1970  210.0680  156.2040 C   0  0  0  0  0  2  0  0  0  0  0  0
  160.7400  211.7270  155.3080 N   0  0  0  0  0  2  0  0  0  0  0  0
  159.4700  212.3280  154.9310 C   0  0  0  0  0  2  0  0  0  0  0  0
  158.2970  214.4460  155.5350 C   0  0  0  0  0  3  0  0  0  0  0  0
  159.4350  213.7580  155.3700 C   0  0  0  0  0  3  0  0  0  0  0  0
  156.9330  213.8580  155.3030 C   0  0  2  0  0  3  0  0  0  0  0  0
  156.8200  212.5320  156.0470 C   0  0  0  0  0  1  0  0  0  0  0  0
  157.5980  213.5370  152.9870 C   0  0  0  0  0  0  0  0  0  0  0  0
  156.6340  213.7290  153.8310 C   0  0  0  0  0  0  0  0  0  0  0  0
  155.3180  214.1620  153.2070 C   0  0  0  0  0  2  0  0  0  0  0  0
  157.5000  213.6170  150.6170 C   0  0  0  0  0  2  0  0  0  0  0  0
  156.2040  214.4530  150.7850 C   0  0  0  0  0  2  0  0  0  0  0  0
  158.2750  213.4300  151.8930 C   0  0  0  0  0  3  0  0  0  0  0  0
  155.1570  213.7900  151.7080 C   0  0  0  0  0  2  0  0  0  0  0  0
  162.5100  209.7820  149.8110 O   0  0  0  0  0  0  0  0  0  0  0  0
  161.7870  212.0370  147.1070 O   0  0  0  0  0  0  0  0  0  0  0  0
  160.9980  213.1150  147.5430 C   0  0  0  0  0  0  0  0  0  0  0  0
  161.7180  214.4300  147.2830 C   0  0  0  0  0  1  0  0  0  0  0  0
  161.8610  212.0660  149.4990 C   0  0  2  0  0  3  0  0  0  0  0  0
  162.5190  211.5820  148.2240 C   0  0  1  0  0  3  0  0  0  0  0  0
  161.6680  210.6300  149.0440 C   0  0  1  0  0  3  0  0  0  0  0  0
  159.6750  213.1120  146.7990 C   0  0  0  0  0  1  0  0  0  0  0  0
  160.7440  212.9450  149.0190 C   0  0  0  0  0  2  0  0  0  0  0  0
  1  5  1  0  0  0  0
  2 13  1  0  0  0  0
  2 11  1  0  0  0  0
  3 16  1  0  0  0  0
  4  8  1  6  0  0  0
  4  7  1  0  0  0  0
  5  9  2  0  0  0  0
  6  1  1  0  0  0  0
  7 11  2  0  0  0  0
  7  9  1  0  0  0  0
  8  1  2  0  0  0  0
 10  3  2  0  0  0  0
 11 10  1  0  0  0  0
 12  2  2  0  0  0  0
 13 14  2  0  0  0  0
 14  3  1  0  0  0  0
 15 12  1  0  0  0  0
 15  4  1  0  0  0  0
 16 17  2  0  0  0  0
 16 18  1  0  0  0  0
 19 22  1  6  0  0  0
 20 17  1  6  0  0  0
 20 21  1  0  0  0  0
 20 19  1  0  0  0  0
 21 19  1  0  0  0  0
 23 22  1  0  0  0  0
 23 25  1  0  0  0  0
 25 24  2  0  0  0  0
 26 24  1  0  0  0  0
 26 27  1  1  0  0  0
 28 29  2  0  0  0  0
 29 26  1  0  0  0  0
 30 29  1  0  0  0  0
 31 32  1  0  0  0  0
 31 33  1  0  0  0  0
 32 34  1  0  0  0  0
 33 28  2  0  0  0  0
 34 30  1  0  0  0  0
 35 13  1  0  0  0  0
 36 37  1  0  0  0  0
 37 43  1  0  0  0  0
 38 37  1  0  0  0  0
 39 43  1  6  0  0  0
 40 36  1  6  0  0  0
 40 41  1  0  0  0  0
 40 39  1  0  0  0  0
 41 39  1  0  0  0  0
 41 35  1  1  0  0  0
 42 37  1  0  0  0  0
M  END
>  <MODEL>
8

>  <REMARK>
 VINA RESULT:      -7.4      2.138      9.280
  Name = 
  9 active torsions:
  status: ('A' for Active; 'I' for Inactive)
    1  A    between atoms: O_1  and  C_34
    2  A    between atoms: O_1  and  C_35
    3  A    between atoms: C_2  and  C_13
    4  A    between atoms: C_3  and  N_4
    5  A    between atoms: N_4  and  C_15
    6  A    between atoms: C_6  and  C_12
    7  A    between atoms: C_10  and  C_22
    8  A    between atoms: C_14  and  C_22
    9  A    between atoms: C_15  and  C_42
                            x       y       z     vdW  Elec       q    Type
                         _______ _______ _______ _____ _____    ______ ____

>  <TORSDO>
F 9

$$$$
=
 OpenBabel11062410233D

 43 49  0  0  1  0  0  0  0  0999 V2000
  160.9950  202.4050  147.2320 C   0  0  0  0  0  0  0  0  0  0  0  0
  161.0410  206.0710  150.6930 C   0  0  0  0  0  0  0  0  0  0  0  0
  161.9510  208.3770  149.3490 C   0  0  0  0  0  0  0  0  0  0  0  0
  160.7820  203.6470  149.3300 C   0  0  0  0  0  0  0  0  0  0  0  0
  161.4070  203.4860  146.5610 C   0  0  0  0  0  3  0  0  0  0  0  0
  160.8510  201.1070  146.5210 C   0  0  0  0  0  1  0  0  0  0  0  0
  161.2400  204.8530  148.6260 C   0  0  0  0  0  0  0  0  0  0  0  0
  160.6690  202.4920  148.6710 C   0  0  0  0  0  3  0  0  0  0  0  0
  161.5470  204.7490  147.2280 N   0  0  0  0  0  2  0  0  0  0  0  0
  161.8090  207.1620  148.6620 C   0  0  0  0  0  3  0  0  0  0  0  0
  161.3610  206.0070  149.3090 C   0  0  0  0  0  0  0  0  0  0  0  0
  160.6160  204.9750  151.3450 C   0  0  0  0  0  3  0  0  0  0  0  0
  161.1780  207.2850  151.3880 C   0  0  0  0  0  0  0  0  0  0  0  0
  161.6320  208.4240  150.7100 C   0  0  0  0  0  3  0  0  0  0  0  0
  160.4770  203.7470  150.6850 O   0  0  0  0  0  0  0  0  0  0  0  0
  162.4390  209.5920  148.6560 C   0  0  0  0  0  0  0  0  0  0  0  0
  162.0060  210.8010  149.0330 C   0  0  0  0  0  3  0  0  0  0  0  0
  163.4150  209.4590  147.5260 C   0  0  0  0  0  1  0  0  0  0  0  0
  161.4240  212.6500  147.3710 C   0  0  2  0  0  3  0  0  0  0  0  0
  162.4330  212.0890  148.3810 C   0  0  1  0  0  3  0  0  0  0  0  0
  161.4900  213.2090  148.7830 C   0  0  0  0  0  2  0  0  0  0  0  0
  160.2440  211.8050  147.2310 N   0  0  0  0  0  2  0  0  0  0  0  0
  159.7910  211.9320  145.8550 C   0  0  0  0  0  2  0  0  0  0  0  0
  160.6950  213.8450  144.5320 C   0  0  0  0  0  3  0  0  0  0  0  0
  159.8300  213.3690  145.4380 C   0  0  0  0  0  3  0  0  0  0  0  0
  161.7160  212.9920  143.8330 C   0  0  2  0  0  3  0  0  0  0  0  0
  163.0710  213.6900  143.8710 C   0  0  0  0  0  1  0  0  0  0  0  0
  160.0520  212.8600  142.0660 C   0  0  0  0  0  0  0  0  0  0  0  0
  161.2760  212.6470  142.4320 C   0  0  0  0  0  0  0  0  0  0  0  0
  162.0670  211.7310  141.5130 C   0  0  0  0  0  2  0  0  0  0  0  0
  158.9800  212.1400  140.0750 C   0  0  0  0  0  2  0  0  0  0  0  0
  160.0920  211.0630  139.9680 C   0  0  0  0  0  2  0  0  0  0  0  0
  158.9470  212.8540  141.3990 C   0  0  0  0  0  3  0  0  0  0  0  0
  161.5210  211.6400  140.0620 C   0  0  0  0  0  2  0  0  0  0  0  0
  160.8610  207.3470  152.7510 O   0  0  0  0  0  0  0  0  0  0  0  0
  161.5480  208.7150  156.0030 O   0  0  0  0  0  0  0  0  0  0  0  0
  161.4590  210.1180  155.9920 C   0  0  0  0  0  0  0  0  0  0  0  0
  160.4050  210.5840  156.9860 C   0  0  0  0  0  1  0  0  0  0  0  0
  160.4290  209.3520  153.9850 C   0  0  2  0  0  3  0  0  0  0  0  0
  160.7090  208.2390  154.9730 C   0  0  1  0  0  3  0  0  0  0  0  0
  161.4480  208.2780  153.6480 C   0  0  1  0  0  3  0  0  0  0  0  0
  162.8020  210.7170  156.3670 C   0  0  0  0  0  1  0  0  0  0  0  0
  161.0870  210.5540  154.5980 C   0  0  0  0  0  2  0  0  0  0  0  0
  1  8  1  0  0  0  0
  2 12  2  0  0  0  0
  2 13  1  0  0  0  0
  3 14  1  0  0  0  0
  4 15  1  0  0  0  0
  5  9  1  0  0  0  0
  5  1  2  0  0  0  0
  6  1  1  0  0  0  0
  7 11  2  0  0  0  0
  7  4  1  0  0  0  0
  8  4  2  0  0  0  0
  9  7  1  0  0  0  0
 10 11  1  0  0  0  0
 10  3  2  0  0  0  0
 11  2  1  0  0  0  0
 13 35  1  0  0  0  0
 14 13  2  0  0  0  0
 15 12  1  0  0  0  0
 16 17  2  0  0  0  0
 16  3  1  0  0  0  0
 18 16  1  0  0  0  0
 19 22  1  1  0  0  0
 19 20  1  0  0  0  0
 19 21  1  0  0  0  0
 20 21  1  0  0  0  0
 20 17  1  1  0  0  0
 23 22  1  0  0  0  0
 24 25  2  0  0  0  0
 25 23  1  0  0  0  0
 26 27  1  6  0  0  0
 26 24  1  0  0  0  0
 28 29  2  0  0  0  0
 29 26  1  0  0  0  0
 30 29  1  0  0  0  0
 31 33  1  0  0  0  0
 32 34  1  0  0  0  0
 32 31  1  0  0  0  0
 33 28  2  0  0  0  0
 34 30  1  0  0  0  0
 37 36  1  0  0  0  0
 37 42  1  0  0  0  0
 37 38  1  0  0  0  0
 39 43  1  1  0  0  0
 39 40  1  0  0  0  0
 40 36  1  1  0  0  0
 41 35  1  6  0  0  0
 41 39  1  0  0  0  0
 41 40  1  0  0  0  0
 43 37  1  0  0  0  0
M  END
>  <MODEL>
9

>  <REMARK>
 VINA RESULT:      -6.5      3.560      9.774
  Name = 
  9 active torsions:
  status: ('A' for Active; 'I' for Inactive)
    1  A    between atoms: O_1  and  C_34
    2  A    between atoms: O_1  and  C_35
    3  A    between atoms: C_2  and  C_13
    4  A    between atoms: C_3  and  N_4
    5  A    between atoms: N_4  and  C_15
    6  A    between atoms: C_6  and  C_12
    7  A    between atoms: C_10  and  C_22
    8  A    between atoms: C_14  and  C_22
    9  A    between atoms: C_15  and  C_42
                            x       y       z     vdW  Elec       q    Type
                         _______ _______ _______ _____ _____    ______ ____

>  <TORSDO>
F 9

$$$$
