=
 OpenBabel11062408033D

 34 40  0  0  1  0  0  0  0  0999 V2000
  160.5800  208.8680  153.9950 C   0  0  0  0  0  0  0  0  0  0  0  0
  161.8750  207.0480  152.8720 C   0  0  0  0  0  0  0  0  0  0  0  0
  161.8580  209.2890  151.9480 N   0  0  0  0  0  0  0  0  0  0  0  0
  162.3040  210.0590  149.8560 C   0  0  1  0  0  3  0  0  0  0  0  0
  160.3920  206.5900  154.7810 C   0  0  0  0  0  3  0  0  0  0  0  0
  161.2560  206.1590  153.6590 C   0  0  0  0  0  3  0  0  0  0  0  0
  162.6690  207.7600  150.3650 C   0  0  1  0  0  3  0  0  0  0  0  0
  161.8230  208.5180  153.1850 C   0  0  1  0  0  3  0  0  0  0  0  0
  161.2870  209.1490  148.6250 S   0  0  0  0  0  0  0  0  0  0  0  0
  160.0650  207.8740  154.9450 C   0  0  0  0  0  3  0  0  0  0  0  0
  161.1480  210.4820  151.7780 C   0  0  0  0  0  0  0  0  0  0  0  0
  159.8820  209.9930  153.7680 C   0  0  0  0  0  3  0  0  0  0  0  0
  163.0080  206.4550  151.6150 S   0  0  0  0  0  0  0  0  0  0  0  0
  161.4600  211.0500  150.5320 N   0  0  0  0  0  0  0  0  0  0  0  0
  161.3760  207.6280  149.6050 C   0  0  1  0  0  3  0  0  0  0  0  0
  162.7840  209.1130  150.9020 N   0  0  2  0  0  0  0  0  0  0  0  0
  160.1990  210.8750  152.6260 C   0  0  0  0  0  3  0  0  0  0  0  0
  160.1680  205.0200  150.3210 C   0  0  0  0  0  2  0  0  0  0  0  0
  160.6440  203.7140  150.9520 C   0  0  0  0  0  2  0  0  0  0  0  0
  160.8900  205.2500  149.0210 C   0  0  0  0  0  0  0  0  0  0  0  0
  160.5280  202.5580  149.9590 C   0  0  1  0  0  3  0  0  0  0  0  0
  161.4200  206.4360  148.6990 C   0  0  0  0  0  3  0  0  0  0  0  0
  161.3870  202.8390  148.7230 C   0  0  1  0  0  3  0  0  0  0  0  0
  161.2890  201.7860  147.8330 F   0  0  0  0  0  0  0  0  0  0  0  0
  160.9410  204.1270  148.0320 C   0  0  0  0  0  2  0  0  0  0  0  0
  160.9540  201.3930  150.5670 F   0  0  0  0  0  0  0  0  0  0  0  0
  160.7920  212.1760  149.8940 C   0  0  0  0  0  2  0  0  0  0  0  0
  161.1900  212.7960  146.1810 C   0  0  0  0  0  0  0  0  0  0  0  0
  162.5650  213.0300  146.0860 C   0  0  0  0  0  3  0  0  0  0  0  0
  161.4120  212.4530  148.5690 C   0  0  0  0  0  0  0  0  0  0  0  0
  163.3630  212.9810  147.2340 C   0  0  0  0  0  3  0  0  0  0  0  0
  160.6130  212.5090  147.4210 C   0  0  0  0  0  3  0  0  0  0  0  0
  162.7860  212.6950  148.4740 C   0  0  0  0  0  3  0  0  0  0  0  0
  160.1880  212.8640  144.7480 Cl  0  0  0  0  0  0  0  0  0  0  0  0
  1 10  1  0  0  0  0
  2  6  2  0  0  0  0
  3  8  1  0  0  0  0
  4  9  1  6  0  0  0
  4 14  1  0  0  0  0
  4 16  1  0  0  0  0
  5 10  2  0  0  0  0
  6  5  1  0  0  0  0
  7 16  1  0  0  0  0
  7 13  1  1  0  0  0
  8  2  1  6  0  0  0
  8  1  1  0  0  0  0
  9 15  1  0  0  0  0
 11  3  1  0  0  0  0
 11 17  2  0  0  0  0
 12  1  2  0  0  0  0
 13  2  1  0  0  0  0
 14 11  1  0  0  0  0
 15 22  1  6  0  0  0
 15  7  1  0  0  0  0
 16  3  1  1  0  0  0
 17 12  1  0  0  0  0
 18 19  1  0  0  0  0
 20 18  1  0  0  0  0
 21 26  1  1  0  0  0
 21 19  1  0  0  0  0
 22 20  2  0  0  0  0
 23 24  1  6  0  0  0
 23 21  1  0  0  0  0
 25 23  1  0  0  0  0
 25 20  1  0  0  0  0
 27 14  1  0  0  0  0
 28 32  1  0  0  0  0
 29 28  2  0  0  0  0
 29 31  1  0  0  0  0
 30 27  1  0  0  0  0
 31 33  2  0  0  0  0
 32 30  2  0  0  0  0
 33 30  1  0  0  0  0
 34 28  1  0  0  0  0
M  END
>  <MODEL>
1

>  <REMARK>
 VINA RESULT:      -6.9      0.000      0.000
  Name = 
  3 active torsions:
  status: ('A' for Active; 'I' for Inactive)
    1  A    between atoms: C_12  and  C_28
    2  A    between atoms: C_17  and  C_29
    3  A    between atoms: N_26  and  C_28
                            x       y       z     vdW  Elec       q    Type
                         _______ _______ _______ _____ _____    ______ ____

>  <TORSDO>
F 3

$$$$
=
 OpenBabel11062408033D

 34 40  0  0  1  0  0  0  0  0999 V2000
  160.7200  210.6050  153.0490 C   0  0  0  0  0  0  0  0  0  0  0  0
  161.3050  208.2480  153.6430 C   0  0  0  0  0  0  0  0  0  0  0  0
  161.9640  209.1710  151.5010 N   0  0  0  0  0  0  0  0  0  0  0  0
  162.5320  208.1700  149.5410 C   0  0  1  0  0  3  0  0  0  0  0  0
  159.8490  209.6190  155.0760 C   0  0  0  0  0  3  0  0  0  0  0  0
  160.4720  208.3340  154.6890 C   0  0  0  0  0  3  0  0  0  0  0  0
  162.1620  206.8340  151.4780 C   0  0  1  0  0  3  0  0  0  0  0  0
  161.7430  209.4840  152.9080 C   0  0  1  0  0  3  0  0  0  0  0  0
  161.2170  206.9880  149.0390 S   0  0  0  0  0  0  0  0  0  0  0  0
  159.9600  210.7010  154.3020 C   0  0  0  0  0  3  0  0  0  0  0  0
  161.6680  210.0680  150.4690 C   0  0  0  0  0  0  0  0  0  0  0  0
  160.4110  211.4140  152.0220 C   0  0  0  0  0  3  0  0  0  0  0  0
  162.1240  206.6880  153.3100 S   0  0  0  0  0  0  0  0  0  0  0  0
  162.0850  209.5340  149.2380 N   0  0  0  0  0  0  0  0  0  0  0  0
  160.8590  206.5780  150.7680 C   0  0  1  0  0  3  0  0  0  0  0  0
  162.7320  208.0960  151.0140 N   0  0  2  0  0  0  0  0  0  0  0  0
  160.9390  211.1650  150.6640 C   0  0  0  0  0  3  0  0  0  0  0  0
  161.9520  204.4770  148.9910 C   0  0  0  0  0  2  0  0  0  0  0  0
  161.5270  203.7890  147.6950 C   0  0  0  0  0  2  0  0  0  0  0  0
  160.9520  204.1820  150.0750 C   0  0  0  0  0  0  0  0  0  0  0  0
  161.2780  202.2990  147.9280 C   0  0  1  0  0  3  0  0  0  0  0  0
  160.4740  205.1350  150.8830 C   0  0  0  0  0  3  0  0  0  0  0  0
  160.1670  202.1090  148.9640 C   0  0  1  0  0  3  0  0  0  0  0  0
  159.9360  200.7610  149.1630 F   0  0  0  0  0  0  0  0  0  0  0  0
  160.5450  202.7580  150.2950 C   0  0  0  0  0  2  0  0  0  0  0  0
  160.9100  201.7080  146.7350 F   0  0  0  0  0  0  0  0  0  0  0  0
  161.7840  210.0580  147.9130 C   0  0  0  0  0  2  0  0  0  0  0  0
  160.4880  213.6130  147.8470 C   0  0  0  0  0  0  0  0  0  0  0  0
  161.6630  214.3390  148.0720 C   0  0  0  0  0  3  0  0  0  0  0  0
  161.7460  211.5460  147.9490 C   0  0  0  0  0  0  0  0  0  0  0  0
  162.8770  213.6680  148.2400 C   0  0  0  0  0  3  0  0  0  0  0  0
  160.5290  212.2180  147.7870 C   0  0  0  0  0  3  0  0  0  0  0  0
  162.9190  212.2720  148.1810 C   0  0  0  0  0  3  0  0  0  0  0  0
  158.9660  214.4520  147.6430 Cl  0  0  0  0  0  0  0  0  0  0  0  0
  1 10  1  0  0  0  0
  2  6  2  0  0  0  0
  3  8  1  0  0  0  0
  4  9  1  1  0  0  0
  4 16  1  0  0  0  0
  6  5  1  0  0  0  0
  7 13  1  1  0  0  0
  8  1  1  6  0  0  0
  8  2  1  0  0  0  0
  9 15  1  0  0  0  0
 10  5  2  0  0  0  0
 11 17  2  0  0  0  0
 11  3  1  0  0  0  0
 12  1  2  0  0  0  0
 13  2  1  0  0  0  0
 14  4  1  0  0  0  0
 14 11  1  0  0  0  0
 15 22  1  6  0  0  0
 15  7  1  0  0  0  0
 16  7  1  0  0  0  0
 16  3  1  1  0  0  0
 17 12  1  0  0  0  0
 18 20  1  0  0  0  0
 19 21  1  0  0  0  0
 19 18  1  0  0  0  0
 20 25  1  0  0  0  0
 20 22  2  0  0  0  0
 21 26  1  6  0  0  0
 21 23  1  0  0  0  0
 23 24  1  1  0  0  0
 23 25  1  0  0  0  0
 27 30  1  0  0  0  0
 27 14  1  0  0  0  0
 28 29  1  0  0  0  0
 29 31  2  0  0  0  0
 30 33  2  0  0  0  0
 32 28  2  0  0  0  0
 32 30  1  0  0  0  0
 33 31  1  0  0  0  0
 34 28  1  0  0  0  0
M  END
>  <MODEL>
2

>  <REMARK>
 VINA RESULT:      -6.1      1.448      2.183
  Name = 
  3 active torsions:
  status: ('A' for Active; 'I' for Inactive)
    1  A    between atoms: C_12  and  C_28
    2  A    between atoms: C_17  and  C_29
    3  A    between atoms: N_26  and  C_28
                            x       y       z     vdW  Elec       q    Type
                         _______ _______ _______ _____ _____    ______ ____

>  <TORSDO>
F 3

$$$$
=
 OpenBabel11062408033D

 34 40  0  0  1  0  0  0  0  0999 V2000
  160.5900  209.2180  154.2170 C   0  0  0  0  0  0  0  0  0  0  0  0
  161.6780  207.1050  153.4400 C   0  0  0  0  0  0  0  0  0  0  0  0
  161.7520  209.0990  152.0650 N   0  0  0  0  0  0  0  0  0  0  0  0
  162.1090  209.3790  149.8370 C   0  0  1  0  0  3  0  0  0  0  0  0
  160.2990  207.1760  155.4770 C   0  0  0  0  0  3  0  0  0  0  0  0
  161.0540  206.4520  154.4290 C   0  0  0  0  0  3  0  0  0  0  0  0
  162.3470  207.2130  150.8020 C   0  0  1  0  0  3  0  0  0  0  0  0
  161.7480  208.6070  153.4370 C   0  0  1  0  0  3  0  0  0  0  0  0
  160.9500  208.3190  148.8810 S   0  0  0  0  0  0  0  0  0  0  0  0
  160.0730  208.4880  155.3820 C   0  0  0  0  0  3  0  0  0  0  0  0
  161.1160  210.2850  151.6810 C   0  0  0  0  0  0  0  0  0  0  0  0
  159.9580  210.3240  153.7930 C   0  0  0  0  0  3  0  0  0  0  0  0
  162.6800  206.1740  152.2810 S   0  0  0  0  0  0  0  0  0  0  0  0
  161.3820  210.5540  150.3290 N   0  0  0  0  0  0  0  0  0  0  0  0
  161.0000  207.0320  150.1550 C   0  0  1  0  0  3  0  0  0  0  0  0
  162.5920  208.6350  151.0330 N   0  0  2  0  0  0  0  0  0  0  0  0
  160.2570  210.9210  152.4750 C   0  0  0  0  0  3  0  0  0  0  0  0
  162.4380  206.3150  147.6680 C   0  0  0  0  0  2  0  0  0  0  0  0
  162.1260  206.2950  146.1740 C   0  0  0  0  0  2  0  0  0  0  0  0
  161.5360  205.3520  148.3900 C   0  0  0  0  0  0  0  0  0  0  0  0
  162.1720  204.8670  145.6300 C   0  0  1  0  0  3  0  0  0  0  0  0
  160.9010  205.6790  149.5220 C   0  0  0  0  0  3  0  0  0  0  0  0
  161.1400  203.9970  146.3510 C   0  0  1  0  0  3  0  0  0  0  0  0
  161.1760  202.7100  145.8480 F   0  0  0  0  0  0  0  0  0  0  0  0
  161.4150  203.9590  147.8540 C   0  0  0  0  0  2  0  0  0  0  0  0
  161.8990  204.8890  144.2750 F   0  0  0  0  0  0  0  0  0  0  0  0
  160.7520  211.5740  149.5020 C   0  0  0  0  0  2  0  0  0  0  0  0
  162.0340  212.8980  146.1960 C   0  0  0  0  0  0  0  0  0  0  0  0
  163.4170  212.8400  146.3940 C   0  0  0  0  0  3  0  0  0  0  0  0
  161.6780  211.9940  148.4160 C   0  0  0  0  0  0  0  0  0  0  0  0
  163.9310  212.3630  147.6040 C   0  0  0  0  0  3  0  0  0  0  0  0
  161.1650  212.4770  147.2060 C   0  0  0  0  0  3  0  0  0  0  0  0
  163.0620  211.9430  148.6150 C   0  0  0  0  0  3  0  0  0  0  0  0
  161.3890  213.5010  144.6850 Cl  0  0  0  0  0  0  0  0  0  0  0  0
  1 10  1  0  0  0  0
  2  6  2  0  0  0  0
  3  8  1  0  0  0  0
  4  9  1  1  0  0  0
  4 14  1  0  0  0  0
  4 16  1  0  0  0  0
  6  5  1  0  0  0  0
  7 16  1  0  0  0  0
  7 13  1  1  0  0  0
  8  2  1  6  0  0  0
  8  1  1  0  0  0  0
  9 15  1  0  0  0  0
 10  5  2  0  0  0  0
 11  3  1  0  0  0  0
 11 17  2  0  0  0  0
 12  1  2  0  0  0  0
 13  2  1  0  0  0  0
 14 11  1  0  0  0  0
 15 22  1  6  0  0  0
 15  7  1  0  0  0  0
 16  3  1  1  0  0  0
 17 12  1  0  0  0  0
 18 20  1  0  0  0  0
 19 18  1  0  0  0  0
 20 22  2  0  0  0  0
 21 26  1  6  0  0  0
 21 19  1  0  0  0  0
 21 23  1  0  0  0  0
 23 24  1  6  0  0  0
 23 25  1  0  0  0  0
 25 20  1  0  0  0  0
 27 14  1  0  0  0  0
 28 29  2  0  0  0  0
 28 32  1  0  0  0  0
 29 31  1  0  0  0  0
 30 33  1  0  0  0  0
 30 27  1  0  0  0  0
 31 33  2  0  0  0  0
 32 30  2  0  0  0  0
 34 28  1  0  0  0  0
M  END
>  <MODEL>
3

>  <REMARK>
 VINA RESULT:      -5.1      1.341      2.118
  Name = 
  3 active torsions:
  status: ('A' for Active; 'I' for Inactive)
    1  A    between atoms: C_12  and  C_28
    2  A    between atoms: C_17  and  C_29
    3  A    between atoms: N_26  and  C_28
                            x       y       z     vdW  Elec       q    Type
                         _______ _______ _______ _____ _____    ______ ____

>  <TORSDO>
F 3

$$$$
=
 OpenBabel11062408033D

 34 40  0  0  1  0  0  0  0  0999 V2000
  161.5420  208.3410  148.6350 C   0  0  0  0  0  0  0  0  0  0  0  0
  162.3340  209.6830  150.5900 C   0  0  0  0  0  0  0  0  0  0  0  0
  162.0440  207.2850  150.7870 N   0  0  0  0  0  0  0  0  0  0  0  0
  161.7570  205.9470  152.6020 C   0  0  1  0  0  3  0  0  0  0  0  0
  161.5910  210.7540  148.5030 C   0  0  0  0  0  3  0  0  0  0  0  0
  162.0060  210.7980  149.9230 C   0  0  0  0  0  3  0  0  0  0  0  0
  162.2290  208.2620  152.9120 C   0  0  1  0  0  3  0  0  0  0  0  0
  162.4220  208.3610  149.8790 C   0  0  0  0  0  0  0  0  0  0  0  0
  160.3600  206.5680  153.6220 S   0  0  0  0  0  0  0  0  0  0  0  0
  161.3660  209.5920  147.8860 C   0  0  0  0  0  2  0  0  0  0  0  0
  161.3430  206.1490  150.3680 C   0  0  0  0  0  0  0  0  0  0  0  0
  160.8310  207.2550  148.2890 C   0  0  0  0  0  3  0  0  0  0  0  0
  162.9520  209.8240  152.2680 S   0  0  0  0  0  0  0  0  0  0  0  0
  161.2180  205.2440  151.4340 N   0  0  0  0  0  0  0  0  0  0  0  0
  160.7500  208.2860  153.1970 C   0  0  1  0  0  3  0  0  0  0  0  0
  162.5490  207.0990  152.0880 N   0  0  2  0  0  0  0  0  0  0  0  0
  160.7530  206.0750  149.1760 C   0  0  0  0  0  3  0  0  0  0  0  0
  159.1320  210.7530  152.9540 C   0  0  0  0  0  2  0  0  0  0  0  0
  159.4030  212.2410  152.7420 C   0  0  0  0  0  2  0  0  0  0  0  0
  159.7380  210.3060  154.2560 C   0  0  0  0  0  0  0  0  0  0  0  0
  158.9500  213.0530  153.9540 C   0  0  1  0  0  3  0  0  0  0  0  0
  160.4560  209.1820  154.3610 C   0  0  0  0  0  3  0  0  0  0  0  0
  159.7070  212.5970  155.2040 C   0  0  1  0  0  3  0  0  0  0  0  0
  159.3030  213.3430  156.2960 F   0  0  0  0  0  0  0  0  0  0  0  0
  159.4550  211.1160  155.4840 C   0  0  0  0  0  2  0  0  0  0  0  0
  159.1980  214.3920  153.7220 F   0  0  0  0  0  0  0  0  0  0  0  0
  160.3940  204.0440  151.4670 C   0  0  0  0  0  2  0  0  0  0  0  0
  161.3010  202.8860  147.9800 C   0  0  0  0  0  0  0  0  0  0  0  0
  161.4250  201.5060  148.1710 C   0  0  0  0  0  3  0  0  0  0  0  0
  160.7320  203.1600  150.3190 C   0  0  0  0  0  0  0  0  0  0  0  0
  161.2060  200.9540  149.4370 C   0  0  0  0  0  3  0  0  0  0  0  0
  160.9570  203.7130  149.0530 C   0  0  0  0  0  3  0  0  0  0  0  0
  160.8630  201.7800  150.5110 C   0  0  0  0  0  3  0  0  0  0  0  0
  161.5810  203.5800  146.3980 Cl  0  0  0  0  0  0  0  0  0  0  0  0
  1  8  1  0  0  0  0
  2 13  1  0  0  0  0
  4  9  1  1  0  0  0
  5  6  2  0  0  0  0
  6  2  1  0  0  0  0
  7 13  1  6  0  0  0
  7 15  1  0  0  0  0
  8  2  2  0  0  0  0
  8  3  1  0  0  0  0
 10  5  1  0  0  0  0
 10  1  1  0  0  0  0
 11  3  1  0  0  0  0
 11 14  1  0  0  0  0
 12  1  2  0  0  0  0
 12 17  1  0  0  0  0
 14 27  1  0  0  0  0
 14  4  1  0  0  0  0
 15  9  1  0  0  0  0
 15 22  1  1  0  0  0
 16  3  1  6  0  0  0
 16  4  1  0  0  0  0
 16  7  1  0  0  0  0
 17 11  2  0  0  0  0
 18 20  1  0  0  0  0
 19 18  1  0  0  0  0
 19 21  1  0  0  0  0
 20 22  2  0  0  0  0
 20 25  1  0  0  0  0
 21 26  1  6  0  0  0
 21 23  1  0  0  0  0
 23 25  1  0  0  0  0
 23 24  1  1  0  0  0
 28 29  2  0  0  0  0
 28 32  1  0  0  0  0
 29 31  1  0  0  0  0
 30 33  1  0  0  0  0
 30 27  1  0  0  0  0
 31 33  2  0  0  0  0
 32 30  2  0  0  0  0
 34 28  1  0  0  0  0
M  END
>  <MODEL>
4

>  <REMARK>
 VINA RESULT:      -4.9      4.173      8.157
  Name = 
  3 active torsions:
  status: ('A' for Active; 'I' for Inactive)
    1  A    between atoms: C_12  and  C_28
    2  A    between atoms: C_17  and  C_29
    3  A    between atoms: N_26  and  C_28
                            x       y       z     vdW  Elec       q    Type
                         _______ _______ _______ _____ _____    ______ ____

>  <TORSDO>
F 3

$$$$
=
 OpenBabel11062408033D

 34 40  0  0  1  0  0  0  0  0999 V2000
  161.2780  210.5200  150.9140 C   0  0  0  0  0  0  0  0  0  0  0  0
  161.5830  212.1930  149.0810 C   0  0  0  0  0  0  0  0  0  0  0  0
  160.3150  212.7670  151.0660 N   0  0  0  0  0  0  0  0  0  0  0  0
  158.7540  214.3770  151.4420 C   0  0  1  0  0  3  0  0  0  0  0  0
  162.3280  209.8610  148.8400 C   0  0  0  0  0  3  0  0  0  0  0  0
  162.0540  211.2120  148.3010 C   0  0  0  0  0  3  0  0  0  0  0  0
  159.9120  214.3270  149.3600 C   0  0  1  0  0  3  0  0  0  0  0  0
  161.4460  211.9940  150.5650 C   0  0  0  0  0  0  0  0  0  0  0  0
  157.4240  214.2640  150.1790 S   0  0  0  0  0  0  0  0  0  0  0  0
  161.9610  209.5240  150.0780 C   0  0  0  0  0  2  0  0  0  0  0  0
  159.4870  212.3180  152.1000 C   0  0  0  0  0  0  0  0  0  0  0  0
  160.4290  210.1120  151.8720 C   0  0  0  0  0  3  0  0  0  0  0  0
  161.3960  213.8380  148.3920 S   0  0  0  0  0  0  0  0  0  0  0  0
  158.5580  213.3160  152.4360 N   0  0  0  0  0  0  0  0  0  0  0  0
  158.6040  213.7280  148.9130 C   0  0  1  0  0  3  0  0  0  0  0  0
  160.0740  214.1290  150.7980 N   0  0  2  0  0  0  0  0  0  0  0  0
  159.5080  211.0590  152.5350 C   0  0  0  0  0  3  0  0  0  0  0  0
  158.8850  212.1880  146.4000 C   0  0  0  0  0  2  0  0  0  0  0  0
  159.9230  212.0620  145.2870 C   0  0  0  0  0  2  0  0  0  0  0  0
  158.3450  213.5920  146.4350 C   0  0  0  0  0  0  0  0  0  0  0  0
  159.3510  212.5460  143.9550 C   0  0  1  0  0  3  0  0  0  0  0  0
  158.2070  214.2760  147.5770 C   0  0  0  0  0  3  0  0  0  0  0  0
  158.9360  214.0150  144.0640 C   0  0  1  0  0  3  0  0  0  0  0  0
  158.4310  214.4520  142.8540 F   0  0  0  0  0  0  0  0  0  0  0  0
  157.8770  214.2030  145.1500 C   0  0  0  0  0  2  0  0  0  0  0  0
  160.3110  212.4040  142.9710 F   0  0  0  0  0  0  0  0  0  0  0  0
  157.4050  213.1750  153.3140 C   0  0  0  0  0  2  0  0  0  0  0  0
  159.3930  212.9840  156.5290 C   0  0  0  0  0  0  0  0  0  0  0  0
  158.6490  212.0520  157.2590 C   0  0  0  0  0  3  0  0  0  0  0  0
  157.8470  212.7690  154.6760 C   0  0  0  0  0  0  0  0  0  0  0  0
  157.5010  211.4820  156.6990 C   0  0  0  0  0  3  0  0  0  0  0  0
  158.9930  213.3440  155.2400 C   0  0  0  0  0  3  0  0  0  0  0  0
  157.0990  211.8430  155.4100 C   0  0  0  0  0  3  0  0  0  0  0  0
  160.8260  213.7030  157.2300 Cl  0  0  0  0  0  0  0  0  0  0  0  0
  1 12  2  0  0  0  0
  2  8  2  0  0  0  0
  3 11  1  0  0  0  0
  4  9  1  6  0  0  0
  4 14  1  0  0  0  0
  5 10  1  0  0  0  0
  6  5  2  0  0  0  0
  6  2  1  0  0  0  0
  7 13  1  6  0  0  0
  7 16  1  0  0  0  0
  8  1  1  0  0  0  0
  8  3  1  0  0  0  0
 10  1  1  0  0  0  0
 11 14  1  0  0  0  0
 11 17  2  0  0  0  0
 12 17  1  0  0  0  0
 13  2  1  0  0  0  0
 14 27  1  0  0  0  0
 15 22  1  6  0  0  0
 15  7  1  0  0  0  0
 15  9  1  0  0  0  0
 16  3  1  6  0  0  0
 16  4  1  0  0  0  0
 18 20  1  0  0  0  0
 19 18  1  0  0  0  0
 20 22  2  0  0  0  0
 21 26  1  6  0  0  0
 21 23  1  0  0  0  0
 21 19  1  0  0  0  0
 23 24  1  6  0  0  0
 23 25  1  0  0  0  0
 25 20  1  0  0  0  0
 27 30  1  0  0  0  0
 28 34  1  0  0  0  0
 28 29  1  0  0  0  0
 30 32  1  0  0  0  0
 30 33  2  0  0  0  0
 31 29  2  0  0  0  0
 32 28  2  0  0  0  0
 33 31  1  0  0  0  0
M  END
>  <MODEL>
5

>  <REMARK>
 VINA RESULT:      -4.7      5.266      8.380
  Name = 
  3 active torsions:
  status: ('A' for Active; 'I' for Inactive)
    1  A    between atoms: C_12  and  C_28
    2  A    between atoms: C_17  and  C_29
    3  A    between atoms: N_26  and  C_28
                            x       y       z     vdW  Elec       q    Type
                         _______ _______ _______ _____ _____    ______ ____

>  <TORSDO>
F 3

$$$$
=
 OpenBabel11062408033D

 34 40  0  0  1  0  0  0  0  0999 V2000
  158.7690  212.3400  155.0500 C   0  0  0  0  0  0  0  0  0  0  0  0
  160.2990  210.5230  155.8340 C   0  0  0  0  0  0  0  0  0  0  0  0
  160.5560  211.4710  153.6180 N   0  0  0  0  0  0  0  0  0  0  0  0
  161.5590  210.6660  151.7430 C   0  0  1  0  0  3  0  0  0  0  0  0
  158.3510  211.2340  157.1580 C   0  0  0  0  0  3  0  0  0  0  0  0
  159.4800  210.3200  156.8740 C   0  0  0  0  0  3  0  0  0  0  0  0
  161.7470  209.4560  153.7880 C   0  0  1  0  0  3  0  0  0  0  0  0
  160.1810  211.7660  154.9950 C   0  0  1  0  0  3  0  0  0  0  0  0
  160.9010  208.9950  151.3510 S   0  0  0  0  0  0  0  0  0  0  0  0
  158.0060  212.1930  156.2960 C   0  0  0  0  0  3  0  0  0  0  0  0
  159.9330  212.0670  152.5170 C   0  0  0  0  0  0  0  0  0  0  0  0
  158.1720  212.8510  153.9620 C   0  0  0  0  0  3  0  0  0  0  0  0
  161.7220  209.4520  155.6260 S   0  0  0  0  0  0  0  0  0  0  0  0
  160.5760  211.6740  151.3320 N   0  0  0  0  0  0  0  0  0  0  0  0
  160.7050  208.6070  153.1100 C   0  0  1  0  0  3  0  0  0  0  0  0
  161.7290  210.8010  153.2170 N   0  0  2  0  0  0  0  0  0  0  0  0
  158.7950  212.7520  152.6260 C   0  0  0  0  0  3  0  0  0  0  0  0
  161.4350  206.7340  150.9360 C   0  0  0  0  0  2  0  0  0  0  0  0
  160.7010  205.7550  150.0230 C   0  0  0  0  0  2  0  0  0  0  0  0
  161.2940  206.2980  152.3680 C   0  0  0  0  0  0  0  0  0  0  0  0
  161.1570  204.3200  150.2880 C   0  0  1  0  0  3  0  0  0  0  0  0
  160.9780  207.1540  153.3480 C   0  0  0  0  0  3  0  0  0  0  0  0
  160.8680  203.9370  151.7410 C   0  0  1  0  0  3  0  0  0  0  0  0
  161.2700  202.6350  151.9740 F   0  0  0  0  0  0  0  0  0  0  0  0
  161.5970  204.8710  152.7070 C   0  0  0  0  0  2  0  0  0  0  0  0
  160.4840  203.4650  149.4370 F   0  0  0  0  0  0  0  0  0  0  0  0
  160.1180  211.9100  149.9700 C   0  0  0  0  0  2  0  0  0  0  0  0
  163.2570  212.2860  147.8890 C   0  0  0  0  0  0  0  0  0  0  0  0
  163.2320  213.6540  147.5980 C   0  0  0  0  0  3  0  0  0  0  0  0
  161.2100  212.5200  149.1630 C   0  0  0  0  0  0  0  0  0  0  0  0
  162.1940  214.4530  148.0850 C   0  0  0  0  0  3  0  0  0  0  0  0
  162.2460  211.7190  148.6700 C   0  0  0  0  0  3  0  0  0  0  0  0
  161.1820  213.8860  148.8650 C   0  0  0  0  0  3  0  0  0  0  0  0
  164.5520  211.2820  147.2740 Cl  0  0  0  0  0  0  0  0  0  0  0  0
  1 10  1  0  0  0  0
  2  6  2  0  0  0  0
  3  8  1  0  0  0  0
  4  9  1  1  0  0  0
  4 16  1  0  0  0  0
  6  5  1  0  0  0  0
  7 13  1  1  0  0  0
  8  1  1  6  0  0  0
  8  2  1  0  0  0  0
  9 15  1  0  0  0  0
 10  5  2  0  0  0  0
 11 17  2  0  0  0  0
 11  3  1  0  0  0  0
 12  1  2  0  0  0  0
 13  2  1  0  0  0  0
 14  4  1  0  0  0  0
 14 11  1  0  0  0  0
 15 22  1  6  0  0  0
 15  7  1  0  0  0  0
 16  3  1  1  0  0  0
 16  7  1  0  0  0  0
 17 12  1  0  0  0  0
 18 20  1  0  0  0  0
 19 21  1  0  0  0  0
 19 18  1  0  0  0  0
 20 25  1  0  0  0  0
 20 22  2  0  0  0  0
 21 26  1  6  0  0  0
 21 23  1  0  0  0  0
 23 24  1  6  0  0  0
 23 25  1  0  0  0  0
 27 14  1  0  0  0  0
 28 32  1  0  0  0  0
 29 28  2  0  0  0  0
 29 31  1  0  0  0  0
 30 27  1  0  0  0  0
 31 33  2  0  0  0  0
 32 30  2  0  0  0  0
 33 30  1  0  0  0  0
 34 28  1  0  0  0  0
M  END
>  <MODEL>
6

>  <REMARK>
 VINA RESULT:      -4.7      2.321      3.476
  Name = 
  3 active torsions:
  status: ('A' for Active; 'I' for Inactive)
    1  A    between atoms: C_12  and  C_28
    2  A    between atoms: C_17  and  C_29
    3  A    between atoms: N_26  and  C_28
                            x       y       z     vdW  Elec       q    Type
                         _______ _______ _______ _____ _____    ______ ____

>  <TORSDO>
F 3

$$$$
=
 OpenBabel11062408033D

 34 40  0  0  1  0  0  0  0  0999 V2000
  160.0800  212.1070  156.5240 C   0  0  0  0  0  0  0  0  0  0  0  0
  158.7890  213.1300  154.6430 C   0  0  0  0  0  0  0  0  0  0  0  0
  159.6490  210.8720  154.4530 N   0  0  0  0  0  0  0  0  0  0  0  0
  160.0800  209.5730  152.6380 C   0  0  1  0  0  3  0  0  0  0  0  0
  159.4430  214.4360  156.6230 C   0  0  0  0  0  3  0  0  0  0  0  0
  158.8920  214.3170  155.2550 C   0  0  0  0  0  3  0  0  0  0  0  0
  159.0170  211.6850  152.3450 C   0  0  1  0  0  3  0  0  0  0  0  0
  159.1050  211.8580  155.3790 C   0  0  1  0  0  3  0  0  0  0  0  0
  161.1700  210.4780  151.4670 S   0  0  0  0  0  0  0  0  0  0  0  0
  160.0110  213.3910  157.2310 C   0  0  0  0  0  3  0  0  0  0  0  0
  160.6490  209.9630  154.8130 C   0  0  0  0  0  0  0  0  0  0  0  0
  161.0700  211.2450  156.8090 C   0  0  0  0  0  3  0  0  0  0  0  0
  157.9930  213.0450  153.0390 S   0  0  0  0  0  0  0  0  0  0  0  0
  160.8910  209.0730  153.7540 N   0  0  0  0  0  0  0  0  0  0  0  0
  160.4070  212.0610  151.9050 C   0  0  1  0  0  3  0  0  0  0  0  0
  159.0800  210.5130  153.2150 N   0  0  2  0  0  0  0  0  0  0  0  0
  161.3530  210.0860  155.9370 C   0  0  0  0  0  3  0  0  0  0  0  0
  161.5470  211.2940  149.2820 C   0  0  0  0  0  2  0  0  0  0  0  0
  162.8660  211.5050  148.5420 C   0  0  0  0  0  2  0  0  0  0  0  0
  160.8780  212.6200  149.5190 C   0  0  0  0  0  0  0  0  0  0  0  0
  162.6500  212.3320  147.2750 C   0  0  1  0  0  3  0  0  0  0  0  0
  160.3520  212.9530  150.7030 C   0  0  0  0  0  3  0  0  0  0  0  0
  162.0720  213.7030  147.6340 C   0  0  1  0  0  3  0  0  0  0  0  0
  161.8890  214.4520  146.4870 F   0  0  0  0  0  0  0  0  0  0  0  0
  160.7340  213.5570  148.3600 C   0  0  0  0  0  2  0  0  0  0  0  0
  163.8590  212.4920  146.6250 F   0  0  0  0  0  0  0  0  0  0  0  0
  161.9820  208.1140  153.6510 C   0  0  0  0  0  2  0  0  0  0  0  0
  161.1250  205.9350  150.6770 C   0  0  0  0  0  0  0  0  0  0  0  0
  160.8110  204.7250  151.3030 C   0  0  0  0  0  3  0  0  0  0  0  0
  161.5560  206.9420  152.8380 C   0  0  0  0  0  0  0  0  0  0  0  0
  160.8740  204.6220  152.6960 C   0  0  0  0  0  3  0  0  0  0  0  0
  161.4990  207.0430  151.4430 C   0  0  0  0  0  3  0  0  0  0  0  0
  161.2490  205.7290  153.4630 C   0  0  0  0  0  3  0  0  0  0  0  0
  161.0540  206.0640  148.9330 Cl  0  0  0  0  0  0  0  0  0  0  0  0
  1 12  2  0  0  0  0
  1 10  1  0  0  0  0
  2  6  2  0  0  0  0
  3 11  1  0  0  0  0
  3  8  1  0  0  0  0
  4  9  1  6  0  0  0
  4 16  1  0  0  0  0
  4 14  1  0  0  0  0
  5 10  2  0  0  0  0
  6  5  1  0  0  0  0
  7 13  1  1  0  0  0
  7 16  1  0  0  0  0
  8  2  1  6  0  0  0
  8  1  1  0  0  0  0
  9 15  1  0  0  0  0
 11 17  2  0  0  0  0
 13  2  1  0  0  0  0
 14 11  1  0  0  0  0
 15 22  1  6  0  0  0
 15  7  1  0  0  0  0
 16  3  1  1  0  0  0
 17 12  1  0  0  0  0
 18 20  1  0  0  0  0
 19 18  1  0  0  0  0
 20 22  2  0  0  0  0
 21 26  1  1  0  0  0
 21 23  1  0  0  0  0
 21 19  1  0  0  0  0
 23 24  1  6  0  0  0
 23 25  1  0  0  0  0
 25 20  1  0  0  0  0
 27 14  1  0  0  0  0
 28 29  2  0  0  0  0
 28 32  1  0  0  0  0
 29 31  1  0  0  0  0
 30 33  1  0  0  0  0
 30 27  1  0  0  0  0
 31 33  2  0  0  0  0
 32 30  2  0  0  0  0
 34 28  1  0  0  0  0
M  END
>  <MODEL>
7

>  <REMARK>
 VINA RESULT:      -4.7      4.132      7.445
  Name = 
  3 active torsions:
  status: ('A' for Active; 'I' for Inactive)
    1  A    between atoms: C_12  and  C_28
    2  A    between atoms: C_17  and  C_29
    3  A    between atoms: N_26  and  C_28
                            x       y       z     vdW  Elec       q    Type
                         _______ _______ _______ _____ _____    ______ ____

>  <TORSDO>
F 3

$$$$
=
 OpenBabel11062408033D

 34 40  0  0  1  0  0  0  0  0999 V2000
  161.5720  207.2760  148.3100 C   0  0  0  0  0  0  0  0  0  0  0  0
  162.5320  207.9010  150.5330 C   0  0  0  0  0  0  0  0  0  0  0  0
  161.9860  205.5920  150.0400 N   0  0  0  0  0  0  0  0  0  0  0  0
  161.5800  203.8170  151.4020 C   0  0  1  0  0  3  0  0  0  0  0  0
  161.8810  209.6040  148.8800 C   0  0  0  0  0  3  0  0  0  0  0  0
  162.3190  209.1890  150.2320 C   0  0  0  0  0  3  0  0  0  0  0  0
  162.3050  205.8810  152.3470 C   0  0  1  0  0  3  0  0  0  0  0  0
  162.4660  206.8430  149.4670 C   0  0  0  0  0  0  0  0  0  0  0  0
  160.2730  204.2500  152.6200 S   0  0  0  0  0  0  0  0  0  0  0  0
  161.5230  208.7010  147.9640 C   0  0  0  0  0  2  0  0  0  0  0  0
  161.1600  204.7040  149.3420 C   0  0  0  0  0  0  0  0  0  0  0  0
  160.7430  206.4150  147.6970 C   0  0  0  0  0  3  0  0  0  0  0  0
  163.1840  207.4830  152.1500 S   0  0  0  0  0  0  0  0  0  0  0  0
  160.9520  203.5440  150.1050 N   0  0  0  0  0  0  0  0  0  0  0  0
  160.8420  205.9680  152.6920 C   0  0  1  0  0  3  0  0  0  0  0  0
  162.4860  204.9840  151.2090 N   0  0  2  0  0  0  0  0  0  0  0  0
  160.5490  205.0410  148.2070 C   0  0  0  0  0  3  0  0  0  0  0  0
  160.1220  208.7890  153.2320 C   0  0  0  0  0  2  0  0  0  0  0  0
  160.8690  210.0830  153.5500 C   0  0  0  0  0  2  0  0  0  0  0  0
  160.3510  207.7860  154.3300 C   0  0  0  0  0  0  0  0  0  0  0  0
  160.5070  210.5890  154.9460 C   0  0  1  0  0  3  0  0  0  0  0  0
  160.6620  206.5100  154.0770 C   0  0  0  0  0  3  0  0  0  0  0  0
  160.8830  209.5430  155.9980 C   0  0  1  0  0  3  0  0  0  0  0  0
  160.5660  210.0100  157.2590 F   0  0  0  0  0  0  0  0  0  0  0  0
  160.1460  208.2280  155.7460 C   0  0  0  0  0  2  0  0  0  0  0  0
  161.1890  211.7650  155.1930 F   0  0  0  0  0  0  0  0  0  0  0  0
  160.0030  202.4750  149.8280 C   0  0  0  0  0  2  0  0  0  0  0  0
  160.4560  201.3230  146.2510 C   0  0  0  0  0  0  0  0  0  0  0  0
  161.3370  200.2490  146.4170 C   0  0  0  0  0  3  0  0  0  0  0  0
  160.4510  201.6890  148.6460 C   0  0  0  0  0  0  0  0  0  0  0  0
  161.7770  199.8980  147.6970 C   0  0  0  0  0  3  0  0  0  0  0  0
  160.0150  202.0440  147.3640 C   0  0  0  0  0  3  0  0  0  0  0  0
  161.3370  200.6190  148.8100 C   0  0  0  0  0  3  0  0  0  0  0  0
  159.9100  201.7680  144.6500 Cl  0  0  0  0  0  0  0  0  0  0  0  0
  1  8  1  0  0  0  0
  2 13  1  0  0  0  0
  4  9  1  1  0  0  0
  5  6  2  0  0  0  0
  6  2  1  0  0  0  0
  7 13  1  6  0  0  0
  7 15  1  0  0  0  0
  8  3  1  0  0  0  0
  8  2  2  0  0  0  0
  9 15  1  0  0  0  0
 10  1  1  0  0  0  0
 10  5  1  0  0  0  0
 11  3  1  0  0  0  0
 11 14  1  0  0  0  0
 12 17  1  0  0  0  0
 12  1  2  0  0  0  0
 14  4  1  0  0  0  0
 15 22  1  1  0  0  0
 16  3  1  6  0  0  0
 16  4  1  0  0  0  0
 16  7  1  0  0  0  0
 17 11  2  0  0  0  0
 18 19  1  0  0  0  0
 18 20  1  0  0  0  0
 19 21  1  0  0  0  0
 20 25  1  0  0  0  0
 21 26  1  1  0  0  0
 21 23  1  0  0  0  0
 22 20  2  0  0  0  0
 23 24  1  1  0  0  0
 25 23  1  0  0  0  0
 27 14  1  0  0  0  0
 28 29  2  0  0  0  0
 28 32  1  0  0  0  0
 29 31  1  0  0  0  0
 30 33  1  0  0  0  0
 30 27  1  0  0  0  0
 31 33  2  0  0  0  0
 32 30  2  0  0  0  0
 34 28  1  0  0  0  0
M  END
>  <MODEL>
8

>  <REMARK>
 VINA RESULT:      -4.1      4.188      8.166
  Name = 
  3 active torsions:
  status: ('A' for Active; 'I' for Inactive)
    1  A    between atoms: C_12  and  C_28
    2  A    between atoms: C_17  and  C_29
    3  A    between atoms: N_26  and  C_28
                            x       y       z     vdW  Elec       q    Type
                         _______ _______ _______ _____ _____    ______ ____

>  <TORSDO>
F 3

$$$$
