=
 OpenBabel11052422043D

 30 32  0  0  1  0  0  0  0  0999 V2000
  161.9200  206.4840  150.4880 C   0  0  2  0  0  3  0  0  0  0  0  0
  162.3940  207.8510  150.9720 C   0  0  2  0  0  3  0  0  0  0  0  0
  161.2170  208.6760  151.2800 N   0  0  0  0  0  0  0  0  0  0  0  0
  161.9910  208.9110  150.0550 C   0  0  0  0  0  2  0  0  0  0  0  0
  161.6440  209.6590  152.2630 C   0  0  0  0  0  2  0  0  0  0  0  0
  158.7650  211.6760  152.3210 O   0  0  0  0  0  0  0  0  0  0  0  0
  160.5000  210.0150  153.1550 C   0  0  0  0  0  0  0  0  0  0  0  0
  159.6110  210.8670  152.7270 C   0  0  0  0  0  0  0  0  0  0  0  0
  160.3280  209.4050  154.4370 N   0  0  0  0  0  2  0  0  0  0  0  0
  161.3450  209.4570  155.4720 C   0  0  0  0  0  2  0  0  0  0  0  0
  161.4720  208.1000  156.1370 C   0  0  0  0  0  2  0  0  0  0  0  0
  160.0870  207.5170  156.3260 C   0  0  0  0  0  1  0  0  0  0  0  0
  159.7540  206.1670  149.4210 O   0  0  0  0  0  1  0  0  0  0  0  0
  161.0510  206.6620  149.2310 C   0  0  2  0  0  3  0  0  0  0  0  0
  160.8270  203.8370  147.9720 O   0  0  0  0  0  0  0  0  0  0  0  0
  160.9510  204.3290  145.6470 C   0  0  0  0  0  2  0  0  0  0  0  0
  162.9070  206.8030  147.7490 O   0  0  0  0  0  1  0  0  0  0  0  0
  162.4610  206.1100  145.0980 O   0  0  0  0  0  1  0  0  0  0  0  0
  161.6930  203.7440  146.8580 C   0  0  1  0  0  3  0  0  0  0  0  0
  161.1420  205.8220  145.4690 C   0  0  2  0  0  3  0  0  0  0  0  0
  161.9940  204.6220  148.0370 C   0  0  1  0  0  3  0  0  0  0  0  0
  161.6900  206.1400  147.9310 C   0  0  1  0  0  0  0  0  0  0  0  0
  160.7720  206.5270  146.7660 C   0  0  0  0  0  2  0  0  0  0  0  0
  161.0670  206.2960  152.9280 C   0  0  0  0  0  1  0  0  0  0  0  0
  161.2200  205.6300  151.5670 C   0  0  2  0  0  3  0  0  0  0  0  0
  161.7720  204.2110  151.6720 C   0  0  0  0  0  2  0  0  0  0  0  0
  160.9410  203.2130  150.9300 C   0  0  0  0  0  3  0  0  0  0  0  0
  161.4110  201.9870  150.7020 C   0  0  0  0  0  3  0  0  0  0  0  0
  160.5820  200.9650  149.9900 C   0  0  0  0  0  2  0  0  0  0  0  0
  161.1910  200.6530  148.6380 C   0  0  0  0  0  1  0  0  0  0  0  0
  1 14  1  6  0  0  0
  1 25  1  0  0  0  0
  2  1  1  6  0  0  0
  2  3  1  0  0  0  0
  3  5  1  0  0  0  0
  4  2  1  0  0  0  0
  4  3  1  0  0  0  0
  5  7  1  0  0  0  0
  6  8  2  0  0  0  0
  7  9  1  0  0  0  0
  8  7  2  0  0  0  0
  9 10  1  0  0  0  0
 10 11  1  0  0  0  0
 11 12  1  0  0  0  0
 14 13  1  1  0  0  0
 19 16  1  6  0  0  0
 19 15  1  0  0  0  0
 19 21  1  0  0  0  0
 20 18  1  1  0  0  0
 20 16  1  0  0  0  0
 20 23  1  0  0  0  0
 21 15  1  1  0  0  0
 22 17  1  6  0  0  0
 22 21  1  0  0  0  0
 22 14  1  0  0  0  0
 23 22  1  0  0  0  0
 25 26  1  0  0  0  0
 25 24  1  1  0  0  0
 27 26  1  0  0  0  0
 28 27  2  0  0  0  0
 29 28  1  0  0  0  0
 30 29  1  0  0  0  0
M  END
>  <MODEL>
1

>  <REMARK>
 VINA RESULT:      -7.1      0.000      0.000
  Name = 
  12 active torsions:
  status: ('A' for Active; 'I' for Inactive)
    1  A    between atoms: C_4  and  C_19
    2  A    between atoms: N_6  and  CA_8
    3  A    between atoms: N_6  and  C_21
    4  A    between atoms: C_7  and  C_26
    5  A    between atoms: CA_8  and  C_30
    6  A    between atoms: C_9  and  C_21
    7  A    between atoms: C_10  and  C_15
    8  A    between atoms: C_10  and  C_25
    9  A    between atoms: N_13  and  C_30
   10  A    between atoms: C_19  and  C_24
   11  A    between atoms: C_19  and  C_25
   12  A    between atoms: C_24  and  C_28
                            x       y       z     vdW  Elec       q    Type
                         _______ _______ _______ _____ _____    ______ ____

>  <TORSDO>
F 12

$$$$
=
 OpenBabel11052422043D

 30 32  0  0  1  0  0  0  0  0999 V2000
  161.9260  206.5760  150.5210 C   0  0  2  0  0  3  0  0  0  0  0  0
  162.4100  207.9620  150.9400 C   0  0  2  0  0  3  0  0  0  0  0  0
  161.2400  208.8080  151.2090 N   0  0  0  0  0  0  0  0  0  0  0  0
  162.0140  208.9800  149.9750 C   0  0  0  0  0  2  0  0  0  0  0  0
  161.6740  209.8340  152.1440 C   0  0  0  0  0  2  0  0  0  0  0  0
  160.3320  209.4290  155.3680 O   0  0  0  0  0  0  0  0  0  0  0  0
  160.5190  210.2810  152.9800 C   0  0  0  0  0  0  0  0  0  0  0  0
  160.4230  209.8440  154.2040 C   0  0  0  0  0  0  0  0  0  0  0  0
  159.5540  211.2160  152.4900 N   0  0  0  0  0  2  0  0  0  0  0  0
  159.3880  212.5420  153.0570 C   0  0  0  0  0  2  0  0  0  0  0  0
  157.9130  212.8400  153.2430 C   0  0  0  0  0  2  0  0  0  0  0  0
  157.3590  211.9160  154.3070 C   0  0  0  0  0  1  0  0  0  0  0  0
  159.7620  206.1810  149.4750 O   0  0  0  0  0  1  0  0  0  0  0  0
  161.0460  206.7030  149.2660 C   0  0  2  0  0  3  0  0  0  0  0  0
  160.8210  203.8650  148.0370 O   0  0  0  0  0  0  0  0  0  0  0  0
  160.9570  204.3310  145.7080 C   0  0  0  0  0  2  0  0  0  0  0  0
  162.9090  206.8230  147.7910 O   0  0  0  0  0  1  0  0  0  0  0  0
  162.4740  206.1020  145.1460 O   0  0  0  0  0  1  0  0  0  0  0  0
  161.6920  203.7570  146.9280 C   0  0  1  0  0  3  0  0  0  0  0  0
  161.1530  205.8210  145.5140 C   0  0  2  0  0  3  0  0  0  0  0  0
  161.9890  204.6480  148.0990 C   0  0  1  0  0  3  0  0  0  0  0  0
  161.6890  206.1650  147.9750 C   0  0  1  0  0  0  0  0  0  0  0  0
  160.7770  206.5420  146.8010 C   0  0  0  0  0  2  0  0  0  0  0  0
  161.0650  206.5120  152.9650 C   0  0  0  0  0  1  0  0  0  0  0  0
  161.2330  205.7740  151.6430 C   0  0  2  0  0  3  0  0  0  0  0  0
  161.8040  204.3710  151.8290 C   0  0  0  0  0  2  0  0  0  0  0  0
  160.9170  203.3080  151.2600 C   0  0  0  0  0  3  0  0  0  0  0  0
  161.4490  202.2270  150.6920 C   0  0  0  0  0  3  0  0  0  0  0  0
  160.5800  201.1380  150.1460 C   0  0  0  0  0  2  0  0  0  0  0  0
  161.1140  200.6680  148.8090 C   0  0  0  0  0  1  0  0  0  0  0  0
  1 14  1  6  0  0  0
  1 25  1  0  0  0  0
  2  1  1  6  0  0  0
  2  3  1  0  0  0  0
  3  5  1  0  0  0  0
  4  2  1  0  0  0  0
  4  3  1  0  0  0  0
  5  7  1  0  0  0  0
  7  8  2  0  0  0  0
  8  6  2  0  0  0  0
  9  7  1  0  0  0  0
  9 10  1  0  0  0  0
 10 11  1  0  0  0  0
 11 12  1  0  0  0  0
 14 13  1  1  0  0  0
 19 16  1  6  0  0  0
 19 15  1  0  0  0  0
 19 21  1  0  0  0  0
 20 18  1  1  0  0  0
 20 16  1  0  0  0  0
 20 23  1  0  0  0  0
 21 15  1  1  0  0  0
 22 17  1  6  0  0  0
 22 21  1  0  0  0  0
 22 14  1  0  0  0  0
 23 22  1  0  0  0  0
 25 26  1  0  0  0  0
 25 24  1  1  0  0  0
 27 26  1  0  0  0  0
 28 27  2  0  0  0  0
 29 28  1  0  0  0  0
 30 29  1  0  0  0  0
M  END
>  <MODEL>
2

>  <REMARK>
 VINA RESULT:      -6.7      1.250      2.021
  Name = 
  12 active torsions:
  status: ('A' for Active; 'I' for Inactive)
    1  A    between atoms: C_4  and  C_19
    2  A    between atoms: N_6  and  CA_8
    3  A    between atoms: N_6  and  C_21
    4  A    between atoms: C_7  and  C_26
    5  A    between atoms: CA_8  and  C_30
    6  A    between atoms: C_9  and  C_21
    7  A    between atoms: C_10  and  C_15
    8  A    between atoms: C_10  and  C_25
    9  A    between atoms: N_13  and  C_30
   10  A    between atoms: C_19  and  C_24
   11  A    between atoms: C_19  and  C_25
   12  A    between atoms: C_24  and  C_28
                            x       y       z     vdW  Elec       q    Type
                         _______ _______ _______ _____ _____    ______ ____

>  <TORSDO>
F 12

$$$$
=
 OpenBabel11052422043D

 30 32  0  0  1  0  0  0  0  0999 V2000
  161.6080  207.5900  150.3630 C   0  0  2  0  0  3  0  0  0  0  0  0
  161.2950  209.0590  150.6370 C   0  0  2  0  0  3  0  0  0  0  0  0
  162.1580  209.8910  149.7870 N   0  0  0  0  0  0  0  0  0  0  0  0
  162.4410  209.7470  151.2200 C   0  0  0  0  0  2  0  0  0  0  0  0
  161.4650  211.1560  149.6020 C   0  0  0  0  0  2  0  0  0  0  0  0
  164.1310  212.5900  147.8160 O   0  0  0  0  0  0  0  0  0  0  0  0
  161.7840  211.7180  148.2560 C   0  0  0  0  0  0  0  0  0  0  0  0
  162.9870  212.1650  148.0310 C   0  0  0  0  0  0  0  0  0  0  0  0
  160.8220  211.7260  147.1970 N   0  0  0  0  0  2  0  0  0  0  0  0
  160.3390  212.9510  146.5860 C   0  0  0  0  0  2  0  0  0  0  0  0
  158.9180  212.7550  146.0940 C   0  0  0  0  0  2  0  0  0  0  0  0
  157.9850  212.7540  147.2880 C   0  0  0  0  0  1  0  0  0  0  0  0
  159.6960  206.3070  149.5680 O   0  0  0  0  0  1  0  0  0  0  0  0
  160.7730  207.1080  149.1640 C   0  0  2  0  0  3  0  0  0  0  0  0
  160.8900  204.1190  148.3470 O   0  0  0  0  0  0  0  0  0  0  0  0
  161.2460  204.2690  145.9990 C   0  0  0  0  0  2  0  0  0  0  0  0
  162.7730  207.1860  147.8770 O   0  0  0  0  0  1  0  0  0  0  0  0
  162.6830  206.0720  145.3360 O   0  0  0  0  0  1  0  0  0  0  0  0
  161.8830  203.9360  147.3560 C   0  0  1  0  0  3  0  0  0  0  0  0
  161.3530  205.7310  145.6100 C   0  0  2  0  0  3  0  0  0  0  0  0
  161.9850  205.0010  148.4080 C   0  0  1  0  0  3  0  0  0  0  0  0
  161.5910  206.4560  148.0350 C   0  0  1  0  0  0  0  0  0  0  0  0
  160.7880  206.5860  146.7350 C   0  0  0  0  0  2  0  0  0  0  0  0
  160.9320  207.3340  152.8520 C   0  0  0  0  0  1  0  0  0  0  0  0
  161.4590  206.6650  151.5900 C   0  0  2  0  0  3  0  0  0  0  0  0
  162.6940  205.8080  151.8570 C   0  0  0  0  0  2  0  0  0  0  0  0
  162.3680  204.3540  151.9940 C   0  0  0  0  0  3  0  0  0  0  0  0
  161.1340  203.9190  151.7420 C   0  0  0  0  0  3  0  0  0  0  0  0
  160.7960  202.4640  151.8420 C   0  0  0  0  0  2  0  0  0  0  0  0
  160.9390  201.8030  150.4860 C   0  0  0  0  0  1  0  0  0  0  0  0
  1 14  1  6  0  0  0
  1 25  1  0  0  0  0
  2  1  1  6  0  0  0
  2  4  1  0  0  0  0
  3  2  1  0  0  0  0
  3  4  1  0  0  0  0
  5  3  1  0  0  0  0
  6  8  2  0  0  0  0
  7  5  1  0  0  0  0
  8  7  2  0  0  0  0
  9  7  1  0  0  0  0
 10  9  1  0  0  0  0
 11 10  1  0  0  0  0
 11 12  1  0  0  0  0
 14 13  1  1  0  0  0
 19 16  1  6  0  0  0
 19 15  1  0  0  0  0
 19 21  1  0  0  0  0
 20 18  1  1  0  0  0
 20 16  1  0  0  0  0
 20 23  1  0  0  0  0
 21 15  1  1  0  0  0
 22 17  1  6  0  0  0
 22 21  1  0  0  0  0
 22 14  1  0  0  0  0
 23 22  1  0  0  0  0
 25 26  1  0  0  0  0
 25 24  1  1  0  0  0
 26 27  1  0  0  0  0
 28 29  1  0  0  0  0
 28 27  2  0  0  0  0
 30 29  1  0  0  0  0
M  END
>  <MODEL>
3

>  <REMARK>
 VINA RESULT:      -6.5      2.693      4.298
  Name = 
  12 active torsions:
  status: ('A' for Active; 'I' for Inactive)
    1  A    between atoms: C_4  and  C_19
    2  A    between atoms: N_6  and  CA_8
    3  A    between atoms: N_6  and  C_21
    4  A    between atoms: C_7  and  C_26
    5  A    between atoms: CA_8  and  C_30
    6  A    between atoms: C_9  and  C_21
    7  A    between atoms: C_10  and  C_15
    8  A    between atoms: C_10  and  C_25
    9  A    between atoms: N_13  and  C_30
   10  A    between atoms: C_19  and  C_24
   11  A    between atoms: C_19  and  C_25
   12  A    between atoms: C_24  and  C_28
                            x       y       z     vdW  Elec       q    Type
                         _______ _______ _______ _____ _____    ______ ____

>  <TORSDO>
F 12

$$$$
=
 OpenBabel11052422043D

 30 32  0  0  1  0  0  0  0  0999 V2000
  161.6310  207.5320  150.1190 C   0  0  2  0  0  3  0  0  0  0  0  0
  162.3650  208.4730  149.1670 C   0  0  2  0  0  3  0  0  0  0  0  0
  161.6730  209.7690  149.1600 N   0  0  0  0  0  0  0  0  0  0  0  0
  161.5270  208.8430  148.0320 C   0  0  0  0  0  2  0  0  0  0  0  0
  162.6620  210.7670  148.7830 C   0  0  0  0  0  2  0  0  0  0  0  0
  160.3550  213.1920  149.8540 O   0  0  0  0  0  0  0  0  0  0  0  0
  161.9780  212.0040  148.3000 C   0  0  0  0  0  0  0  0  0  0  0  0
  161.1460  212.6120  149.0970 C   0  0  0  0  0  0  0  0  0  0  0  0
  162.2550  212.5630  147.0130 N   0  0  0  0  0  2  0  0  0  0  0  0
  161.2820  213.3440  146.2710 C   0  0  0  0  0  2  0  0  0  0  0  0
  161.5290  213.1940  144.7830 C   0  0  0  0  0  2  0  0  0  0  0  0
  163.0220  213.2380  144.5300 C   0  0  0  0  0  1  0  0  0  0  0  0
  162.7780  206.4450  151.9720 O   0  0  0  0  0  1  0  0  0  0  0  0
  162.2360  207.6590  151.5270 C   0  0  2  0  0  3  0  0  0  0  0  0
  161.7680  206.8070  154.4710 O   0  0  0  0  0  0  0  0  0  0  0  0
  161.3190  208.8970  155.5170 C   0  0  0  0  0  2  0  0  0  0  0  0
  160.1970  208.8270  151.8980 O   0  0  0  0  0  1  0  0  0  0  0  0
  160.0490  210.4200  154.1670 O   0  0  0  0  0  1  0  0  0  0  0  0
  160.7160  207.5730  155.0260 C   0  0  1  0  0  3  0  0  0  0  0  0
  161.3470  209.9890  154.4670 C   0  0  2  0  0  3  0  0  0  0  0  0
  160.7760  207.2280  153.5660 C   0  0  1  0  0  3  0  0  0  0  0  0
  161.3020  208.2970  152.5710 C   0  0  1  0  0  0  0  0  0  0  0  0
  162.0510  209.4640  153.2240 C   0  0  0  0  0  2  0  0  0  0  0  0
  161.5490  205.8700  148.1310 C   0  0  0  0  0  1  0  0  0  0  0  0
  161.5630  206.0650  149.6410 C   0  0  2  0  0  3  0  0  0  0  0  0
  160.4820  205.2470  150.3430 C   0  0  0  0  0  2  0  0  0  0  0  0
  160.8910  203.8260  150.5690 C   0  0  0  0  0  3  0  0  0  0  0  0
  160.4740  202.8700  149.7400 C   0  0  0  0  0  3  0  0  0  0  0  0
  160.8970  201.4480  149.9290 C   0  0  0  0  0  2  0  0  0  0  0  0
  161.2620  200.8310  148.5940 C   0  0  0  0  0  1  0  0  0  0  0  0
  1 25  1  6  0  0  0
  1 14  1  0  0  0  0
  2  1  1  1  0  0  0
  3  2  1  0  0  0  0
  4  3  1  0  0  0  0
  4  2  1  0  0  0  0
  5  3  1  0  0  0  0
  7  5  1  0  0  0  0
  7  8  2  0  0  0  0
  8  6  2  0  0  0  0
  9  7  1  0  0  0  0
 10  9  1  0  0  0  0
 11 10  1  0  0  0  0
 12 11  1  0  0  0  0
 14 13  1  1  0  0  0
 14 22  1  0  0  0  0
 15 19  1  0  0  0  0
 19 16  1  6  0  0  0
 20 18  1  6  0  0  0
 20 16  1  0  0  0  0
 21 15  1  1  0  0  0
 21 19  1  0  0  0  0
 22 17  1  6  0  0  0
 22 23  1  0  0  0  0
 22 21  1  0  0  0  0
 23 20  1  0  0  0  0
 25 24  1  6  0  0  0
 25 26  1  0  0  0  0
 26 27  1  0  0  0  0
 28 29  1  0  0  0  0
 28 27  2  0  0  0  0
 30 29  1  0  0  0  0
M  END
>  <MODEL>
4

>  <REMARK>
 VINA RESULT:      -6.3      3.161      6.468
  Name = 
  12 active torsions:
  status: ('A' for Active; 'I' for Inactive)
    1  A    between atoms: C_4  and  C_19
    2  A    between atoms: N_6  and  CA_8
    3  A    between atoms: N_6  and  C_21
    4  A    between atoms: C_7  and  C_26
    5  A    between atoms: CA_8  and  C_30
    6  A    between atoms: C_9  and  C_21
    7  A    between atoms: C_10  and  C_15
    8  A    between atoms: C_10  and  C_25
    9  A    between atoms: N_13  and  C_30
   10  A    between atoms: C_19  and  C_24
   11  A    between atoms: C_19  and  C_25
   12  A    between atoms: C_24  and  C_28
                            x       y       z     vdW  Elec       q    Type
                         _______ _______ _______ _____ _____    ______ ____

>  <TORSDO>
F 12

$$$$
=
 OpenBabel11052422043D

 30 32  0  0  1  0  0  0  0  0999 V2000
  161.2020  207.8560  151.8030 C   0  0  2  0  0  3  0  0  0  0  0  0
  162.2380  208.6260  150.9880 C   0  0  2  0  0  3  0  0  0  0  0  0
  161.5530  209.6910  150.2410 N   0  0  0  0  0  0  0  0  0  0  0  0
  162.0080  208.4760  149.5560 C   0  0  0  0  0  2  0  0  0  0  0  0
  162.5410  210.7290  149.9960 C   0  0  0  0  0  2  0  0  0  0  0  0
  162.8990  212.6570  147.0780 O   0  0  0  0  0  0  0  0  0  0  0  0
  161.9050  211.8780  149.2850 C   0  0  0  0  0  0  0  0  0  0  0  0
  162.4150  212.2770  148.1540 C   0  0  0  0  0  0  0  0  0  0  0  0
  160.7240  212.5110  149.7860 N   0  0  0  0  0  2  0  0  0  0  0  0
  160.0710  213.6100  149.0970 C   0  0  0  0  0  2  0  0  0  0  0  0
  158.6540  213.7700  149.6120 C   0  0  0  0  0  2  0  0  0  0  0  0
  158.5930  213.2620  151.0380 C   0  0  0  0  0  1  0  0  0  0  0  0
  161.2300  206.9860  154.0780 O   0  0  0  0  0  1  0  0  0  0  0  0
  161.4190  208.1370  153.2990 C   0  0  2  0  0  3  0  0  0  0  0  0
  160.6990  208.7970  156.2420 O   0  0  0  0  0  0  0  0  0  0  0  0
  160.7260  211.1760  156.2280 C   0  0  0  0  0  2  0  0  0  0  0  0
  159.7010  209.7280  152.8790 O   0  0  0  0  0  1  0  0  0  0  0  0
  159.8780  212.1570  154.2100 O   0  0  0  0  0  1  0  0  0  0  0  0
  159.8420  209.9210  156.2800 C   0  0  1  0  0  3  0  0  0  0  0  0
  161.0320  211.6570  154.8230 C   0  0  2  0  0  3  0  0  0  0  0  0
  159.8530  208.9590  155.1290 C   0  0  1  0  0  3  0  0  0  0  0  0
  160.6360  209.3440  153.8450 C   0  0  1  0  0  0  0  0  0  0  0  0
  161.6220  210.5050  154.0230 C   0  0  0  0  0  2  0  0  0  0  0  0
  162.4590  205.5950  151.6370 C   0  0  0  0  0  1  0  0  0  0  0  0
  161.1410  206.3440  151.4940 C   0  0  2  0  0  3  0  0  0  0  0  0
  160.4260  206.0200  150.1840 C   0  0  0  0  0  2  0  0  0  0  0  0
  160.8390  204.7000  149.6140 C   0  0  0  0  0  3  0  0  0  0  0  0
  161.1080  204.5870  148.3140 C   0  0  0  0  0  3  0  0  0  0  0  0
  161.5540  203.2830  147.7300 C   0  0  0  0  0  2  0  0  0  0  0  0
  160.9620  202.1320  148.5180 C   0  0  0  0  0  1  0  0  0  0  0  0
  1 25  1  1  0  0  0
  1 14  1  0  0  0  0
  2  1  1  1  0  0  0
  3  2  1  0  0  0  0
  4  3  1  0  0  0  0
  4  2  1  0  0  0  0
  5  3  1  0  0  0  0
  6  8  2  0  0  0  0
  7  9  1  0  0  0  0
  7  5  1  0  0  0  0
  8  7  2  0  0  0  0
 10 11  1  0  0  0  0
 10  9  1  0  0  0  0
 11 12  1  0  0  0  0
 14 22  1  0  0  0  0
 14 13  1  1  0  0  0
 15 19  1  0  0  0  0
 19 16  1  6  0  0  0
 20 18  1  6  0  0  0
 20 16  1  0  0  0  0
 21 15  1  1  0  0  0
 21 19  1  0  0  0  0
 22 17  1  6  0  0  0
 22 23  1  0  0  0  0
 22 21  1  0  0  0  0
 23 20  1  0  0  0  0
 25 24  1  6  0  0  0
 26 25  1  0  0  0  0
 27 26  1  0  0  0  0
 28 27  2  0  0  0  0
 29 28  1  0  0  0  0
 29 30  1  0  0  0  0
M  END
>  <MODEL>
5

>  <REMARK>
 VINA RESULT:      -6.0      2.886      6.578
  Name = 
  12 active torsions:
  status: ('A' for Active; 'I' for Inactive)
    1  A    between atoms: C_4  and  C_19
    2  A    between atoms: N_6  and  CA_8
    3  A    between atoms: N_6  and  C_21
    4  A    between atoms: C_7  and  C_26
    5  A    between atoms: CA_8  and  C_30
    6  A    between atoms: C_9  and  C_21
    7  A    between atoms: C_10  and  C_15
    8  A    between atoms: C_10  and  C_25
    9  A    between atoms: N_13  and  C_30
   10  A    between atoms: C_19  and  C_24
   11  A    between atoms: C_19  and  C_25
   12  A    between atoms: C_24  and  C_28
                            x       y       z     vdW  Elec       q    Type
                         _______ _______ _______ _____ _____    ______ ____

>  <TORSDO>
F 12

$$$$
=
 OpenBabel11052422043D

 30 32  0  0  1  0  0  0  0  0999 V2000
  161.1600  207.7070  151.9680 C   0  0  2  0  0  3  0  0  0  0  0  0
  162.1760  208.5820  151.2390 C   0  0  2  0  0  3  0  0  0  0  0  0
  161.4510  209.5460  150.3990 N   0  0  0  0  0  0  0  0  0  0  0  0
  162.1120  208.3830  149.7950 C   0  0  0  0  0  2  0  0  0  0  0  0
  162.3320  210.6900  150.2240 C   0  0  0  0  0  2  0  0  0  0  0  0
  160.0370  213.3520  150.3060 O   0  0  0  0  0  0  0  0  0  0  0  0
  161.6900  211.6910  149.3200 C   0  0  0  0  0  0  0  0  0  0  0  0
  160.8430  212.5420  149.8260 C   0  0  0  0  0  0  0  0  0  0  0  0
  162.0240  211.7730  147.9310 N   0  0  0  0  0  2  0  0  0  0  0  0
  162.1670  213.0370  147.2320 C   0  0  0  0  0  2  0  0  0  0  0  0
  161.4840  212.9580  145.8810 C   0  0  0  0  0  2  0  0  0  0  0  0
  160.0680  212.4570  146.0800 C   0  0  0  0  0  1  0  0  0  0  0  0
  160.9550  206.7550  154.2000 O   0  0  0  0  0  1  0  0  0  0  0  0
  161.3120  207.9060  153.4850 C   0  0  2  0  0  3  0  0  0  0  0  0
  160.7040  208.6360  156.4370 O   0  0  0  0  0  0  0  0  0  0  0  0
  160.8990  211.0070  156.4020 C   0  0  0  0  0  2  0  0  0  0  0  0
  159.7010  209.6120  153.0880 O   0  0  0  0  0  1  0  0  0  0  0  0
  160.0770  212.0320  154.3950 O   0  0  0  0  0  1  0  0  0  0  0  0
  159.9300  209.8180  156.4840 C   0  0  1  0  0  3  0  0  0  0  0  0
  161.2070  211.4550  154.9870 C   0  0  2  0  0  3  0  0  0  0  0  0
  159.8480  208.8500  155.3400 C   0  0  1  0  0  3  0  0  0  0  0  0
  160.6280  209.1700  154.0370 C   0  0  1  0  0  0  0  0  0  0  0  0
  161.6970  210.2590  154.1840 C   0  0  0  0  0  2  0  0  0  0  0  0
  162.5700  205.5600  151.6150 C   0  0  0  0  0  1  0  0  0  0  0  0
  161.1960  206.2160  151.5670 C   0  0  2  0  0  3  0  0  0  0  0  0
  160.4550  205.9190  150.2660 C   0  0  0  0  0  2  0  0  0  0  0  0
  161.1380  204.8770  149.4380 C   0  0  0  0  0  3  0  0  0  0  0  0
  161.2240  205.0230  148.1160 C   0  0  0  0  0  3  0  0  0  0  0  0
  161.9320  204.0090  147.2740 C   0  0  0  0  0  2  0  0  0  0  0  0
  162.7280  204.7010  146.1860 C   0  0  0  0  0  1  0  0  0  0  0  0
  1 25  1  1  0  0  0
  1 14  1  0  0  0  0
  2  1  1  1  0  0  0
  3  2  1  0  0  0  0
  4  3  1  0  0  0  0
  4  2  1  0  0  0  0
  5  3  1  0  0  0  0
  7  8  2  0  0  0  0
  7  5  1  0  0  0  0
  8  6  2  0  0  0  0
  9  7  1  0  0  0  0
 10  9  1  0  0  0  0
 11 12  1  0  0  0  0
 11 10  1  0  0  0  0
 14 22  1  0  0  0  0
 14 13  1  1  0  0  0
 15 19  1  0  0  0  0
 19 16  1  6  0  0  0
 20 18  1  6  0  0  0
 20 16  1  0  0  0  0
 21 15  1  1  0  0  0
 21 19  1  0  0  0  0
 22 17  1  6  0  0  0
 22 23  1  0  0  0  0
 22 21  1  0  0  0  0
 23 20  1  0  0  0  0
 25 24  1  6  0  0  0
 26 25  1  0  0  0  0
 27 26  1  0  0  0  0
 28 27  2  0  0  0  0
 29 28  1  0  0  0  0
 30 29  1  0  0  0  0
M  END
>  <MODEL>
6

>  <REMARK>
 VINA RESULT:      -6.0      3.233      6.929
  Name = 
  12 active torsions:
  status: ('A' for Active; 'I' for Inactive)
    1  A    between atoms: C_4  and  C_19
    2  A    between atoms: N_6  and  CA_8
    3  A    between atoms: N_6  and  C_21
    4  A    between atoms: C_7  and  C_26
    5  A    between atoms: CA_8  and  C_30
    6  A    between atoms: C_9  and  C_21
    7  A    between atoms: C_10  and  C_15
    8  A    between atoms: C_10  and  C_25
    9  A    between atoms: N_13  and  C_30
   10  A    between atoms: C_19  and  C_24
   11  A    between atoms: C_19  and  C_25
   12  A    between atoms: C_24  and  C_28
                            x       y       z     vdW  Elec       q    Type
                         _______ _______ _______ _____ _____    ______ ____

>  <TORSDO>
F 12

$$$$
=
 OpenBabel11052422043D

 30 32  0  0  1  0  0  0  0  0999 V2000
  161.7290  208.0190  149.8470 C   0  0  2  0  0  3  0  0  0  0  0  0
  162.4240  209.0770  148.9930 C   0  0  2  0  0  3  0  0  0  0  0  0
  161.6950  210.3460  149.1310 N   0  0  0  0  0  0  0  0  0  0  0  0
  161.5610  209.5400  147.9120 C   0  0  0  0  0  2  0  0  0  0  0  0
  162.6510  211.4060  148.8520 C   0  0  0  0  0  2  0  0  0  0  0  0
  162.5120  213.3480  145.9240 O   0  0  0  0  0  0  0  0  0  0  0  0
  161.9420  212.5920  148.2830 C   0  0  0  0  0  0  0  0  0  0  0  0
  162.2340  212.9790  147.0740 C   0  0  0  0  0  0  0  0  0  0  0  0
  160.9150  213.2740  149.0110 N   0  0  0  0  0  2  0  0  0  0  0  0
  159.6450  213.6450  148.4140 C   0  0  0  0  0  2  0  0  0  0  0  0
  158.5720  213.7050  149.4830 C   0  0  0  0  0  2  0  0  0  0  0  0
  159.2070  213.4150  150.8280 C   0  0  0  0  0  1  0  0  0  0  0  0
  163.0680  206.8680  151.5250 O   0  0  0  0  0  1  0  0  0  0  0  0
  162.3310  208.0310  151.2630 C   0  0  2  0  0  3  0  0  0  0  0  0
  161.8150  206.4660  153.8890 O   0  0  0  0  0  0  0  0  0  0  0  0
  161.2070  208.2140  155.3850 C   0  0  0  0  0  2  0  0  0  0  0  0
  160.2150  208.9720  151.8070 O   0  0  0  0  0  1  0  0  0  0  0  0
  159.8960  209.9550  154.3840 O   0  0  0  0  0  1  0  0  0  0  0  0
  160.7010  207.0210  154.5610 C   0  0  1  0  0  3  0  0  0  0  0  0
  161.2060  209.5290  154.6320 C   0  0  2  0  0  3  0  0  0  0  0  0
  160.8310  207.0460  153.0660 C   0  0  1  0  0  3  0  0  0  0  0  0
  161.3260  208.3490  152.3840 C   0  0  1  0  0  0  0  0  0  0  0  0
  161.9820  209.3580  153.3340 C   0  0  0  0  0  2  0  0  0  0  0  0
  162.2680  206.5070  147.8120 C   0  0  0  0  0  1  0  0  0  0  0  0
  161.7180  206.6050  149.2280 C   0  0  2  0  0  3  0  0  0  0  0  0
  160.3800  205.8840  149.3830 C   0  0  0  0  0  2  0  0  0  0  0  0
  160.5420  204.4400  149.7380 C   0  0  0  0  0  3  0  0  0  0  0  0
  161.0660  204.0940  150.9130 C   0  0  0  0  0  3  0  0  0  0  0  0
  161.2060  202.6550  151.2990 C   0  0  0  0  0  2  0  0  0  0  0  0
  160.8310  201.7640  150.1320 C   0  0  0  0  0  1  0  0  0  0  0  0
  1 25  1  6  0  0  0
  1 14  1  0  0  0  0
  2  3  1  0  0  0  0
  2  1  1  1  0  0  0
  4  2  1  0  0  0  0
  4  3  1  0  0  0  0
  5  3  1  0  0  0  0
  6  8  2  0  0  0  0
  7  5  1  0  0  0  0
  7  9  1  0  0  0  0
  8  7  2  0  0  0  0
 10  9  1  0  0  0  0
 10 11  1  0  0  0  0
 11 12  1  0  0  0  0
 14 13  1  1  0  0  0
 14 22  1  0  0  0  0
 15 19  1  0  0  0  0
 19 16  1  1  0  0  0
 20 18  1  6  0  0  0
 20 16  1  0  0  0  0
 21 15  1  1  0  0  0
 21 19  1  0  0  0  0
 22 17  1  6  0  0  0
 22 21  1  0  0  0  0
 22 23  1  0  0  0  0
 23 20  1  0  0  0  0
 25 24  1  6  0  0  0
 25 26  1  0  0  0  0
 26 27  1  0  0  0  0
 27 28  2  0  0  0  0
 28 29  1  0  0  0  0
 30 29  1  0  0  0  0
M  END
>  <MODEL>
7

>  <REMARK>
 VINA RESULT:      -6.0      2.982      6.019
  Name = 
  12 active torsions:
  status: ('A' for Active; 'I' for Inactive)
    1  A    between atoms: C_4  and  C_19
    2  A    between atoms: N_6  and  CA_8
    3  A    between atoms: N_6  and  C_21
    4  A    between atoms: C_7  and  C_26
    5  A    between atoms: CA_8  and  C_30
    6  A    between atoms: C_9  and  C_21
    7  A    between atoms: C_10  and  C_15
    8  A    between atoms: C_10  and  C_25
    9  A    between atoms: N_13  and  C_30
   10  A    between atoms: C_19  and  C_24
   11  A    between atoms: C_19  and  C_25
   12  A    between atoms: C_24  and  C_28
                            x       y       z     vdW  Elec       q    Type
                         _______ _______ _______ _____ _____    ______ ____

>  <TORSDO>
F 12

$$$$
=
 OpenBabel11052422043D

 30 32  0  0  1  0  0  0  0  0999 V2000
  161.6180  205.2230  149.7870 C   0  0  2  0  0  3  0  0  0  0  0  0
  161.0000  206.5990  149.5550 C   0  0  2  0  0  3  0  0  0  0  0  0
  162.0780  207.5980  149.5100 N   0  0  0  0  0  0  0  0  0  0  0  0
  161.2200  207.4810  150.6950 C   0  0  0  0  0  2  0  0  0  0  0  0
  161.5810  208.7110  148.7170 C   0  0  0  0  0  2  0  0  0  0  0  0
  162.3760  212.0300  147.8750 O   0  0  0  0  0  0  0  0  0  0  0  0
  161.9710  210.0040  149.3560 C   0  0  0  0  0  0  0  0  0  0  0  0
  162.1780  211.0420  148.5960 C   0  0  0  0  0  0  0  0  0  0  0  0
  162.0660  210.1410  150.7770 N   0  0  0  0  0  2  0  0  0  0  0  0
  161.2020  211.0240  151.5390 C   0  0  0  0  0  2  0  0  0  0  0  0
  160.4570  210.2300  152.5930 C   0  0  0  0  0  2  0  0  0  0  0  0
  159.3250  211.0790  153.1340 C   0  0  0  0  0  1  0  0  0  0  0  0
  161.1660  202.9040  149.1980 O   0  0  0  0  0  1  0  0  0  0  0  0
  161.0520  204.2300  148.7580 C   0  0  2  0  0  3  0  0  0  0  0  0
  160.2900  202.6580  146.1970 O   0  0  0  0  0  0  0  0  0  0  0  0
  160.5240  204.3250  144.5150 C   0  0  0  0  0  2  0  0  0  0  0  0
  162.9110  204.8560  147.4110 O   0  0  0  0  0  1  0  0  0  0  0  0
  162.3570  205.8320  144.8720 O   0  0  0  0  0  1  0  0  0  0  0  0
  161.1290  203.0540  145.1290 C   0  0  1  0  0  3  0  0  0  0  0  0
  161.0050  205.6110  145.1590 C   0  0  2  0  0  3  0  0  0  0  0  0
  161.5870  203.0680  146.5580 C   0  0  1  0  0  3  0  0  0  0  0  0
  161.5860  204.4170  147.3270 C   0  0  1  0  0  0  0  0  0  0  0  0
  160.7700  205.5310  146.6600 C   0  0  0  0  0  2  0  0  0  0  0  0
  160.0810  204.3310  151.6740 C   0  0  0  0  0  1  0  0  0  0  0  0
  161.4910  204.7020  151.2350 C   0  0  2  0  0  3  0  0  0  0  0  0
  162.2090  205.5760  152.2610 C   0  0  0  0  0  2  0  0  0  0  0  0
  161.4410  205.7150  153.5370 C   0  0  0  0  0  3  0  0  0  0  0  0
  161.1970  206.9240  154.0430 C   0  0  0  0  0  3  0  0  0  0  0  0
  160.4040  207.0860  155.3000 C   0  0  0  0  0  2  0  0  0  0  0  0
  160.7910  208.3750  155.9970 C   0  0  0  0  0  1  0  0  0  0  0  0
  1 14  1  6  0  0  0
  1 25  1  0  0  0  0
  2  1  1  1  0  0  0
  2  4  1  0  0  0  0
  3  2  1  0  0  0  0
  3  4  1  0  0  0  0
  5  7  1  0  0  0  0
  5  3  1  0  0  0  0
  6  8  2  0  0  0  0
  7  9  1  0  0  0  0
  8  7  2  0  0  0  0
  9 10  1  0  0  0  0
 10 11  1  0  0  0  0
 11 12  1  0  0  0  0
 14 13  1  1  0  0  0
 16 20  1  0  0  0  0
 19 16  1  1  0  0  0
 19 15  1  0  0  0  0
 19 21  1  0  0  0  0
 20 18  1  1  0  0  0
 20 23  1  0  0  0  0
 21 15  1  1  0  0  0
 21 22  1  0  0  0  0
 22 17  1  1  0  0  0
 22 14  1  0  0  0  0
 23 22  1  0  0  0  0
 25 24  1  1  0  0  0
 25 26  1  0  0  0  0
 26 27  1  0  0  0  0
 27 28  2  0  0  0  0
 28 29  1  0  0  0  0
 29 30  1  0  0  0  0
M  END
>  <MODEL>
8

>  <REMARK>
 VINA RESULT:      -5.9      2.044      3.914
  Name = 
  12 active torsions:
  status: ('A' for Active; 'I' for Inactive)
    1  A    between atoms: C_4  and  C_19
    2  A    between atoms: N_6  and  CA_8
    3  A    between atoms: N_6  and  C_21
    4  A    between atoms: C_7  and  C_26
    5  A    between atoms: CA_8  and  C_30
    6  A    between atoms: C_9  and  C_21
    7  A    between atoms: C_10  and  C_15
    8  A    between atoms: C_10  and  C_25
    9  A    between atoms: N_13  and  C_30
   10  A    between atoms: C_19  and  C_24
   11  A    between atoms: C_19  and  C_25
   12  A    between atoms: C_24  and  C_28
                            x       y       z     vdW  Elec       q    Type
                         _______ _______ _______ _____ _____    ______ ____

>  <TORSDO>
F 12

$$$$
=
 OpenBabel11052422043D

 30 32  0  0  1  0  0  0  0  0999 V2000
  161.9430  208.4830  152.1770 C   0  0  2  0  0  3  0  0  0  0  0  0
  162.2400  206.9920  152.3070 C   0  0  2  0  0  3  0  0  0  0  0  0
  161.2070  206.2410  151.5810 N   0  0  0  0  0  0  0  0  0  0  0  0
  161.1910  206.3020  153.0470 C   0  0  0  0  0  2  0  0  0  0  0  0
  161.8050  204.9700  151.2020 C   0  0  0  0  0  2  0  0  0  0  0  0
  160.8640  205.3170  147.8330 O   0  0  0  0  0  0  0  0  0  0  0  0
  160.9650  204.3040  150.1620 C   0  0  0  0  0  0  0  0  0  0  0  0
  160.9130  204.8230  148.9680 C   0  0  0  0  0  0  0  0  0  0  0  0
  160.2650  203.0850  150.4290 N   0  0  0  0  0  2  0  0  0  0  0  0
  160.8290  201.7780  150.1440 C   0  0  0  0  0  2  0  0  0  0  0  0
  160.4160  201.3300  148.7560 C   0  0  0  0  0  2  0  0  0  0  0  0
  161.5810  200.6100  148.1090 C   0  0  0  0  0  1  0  0  0  0  0  0
  159.7340  209.4750  152.4370 O   0  0  0  0  0  1  0  0  0  0  0  0
  160.7880  208.8570  153.1230 C   0  0  2  0  0  3  0  0  0  0  0  0
  158.9940  210.0550  155.3480 O   0  0  0  0  0  0  0  0  0  0  0  0
  160.4000  209.8740  157.2590 C   0  0  0  0  0  2  0  0  0  0  0  0
  162.3720  210.3650  154.0600 O   0  0  0  0  0  1  0  0  0  0  0  0
  162.7220  210.2780  156.8120 O   0  0  0  0  0  1  0  0  0  0  0  0
  159.7830  210.8310  156.2290 C   0  0  1  0  0  3  0  0  0  0  0  0
  161.7330  209.2880  156.8350 C   0  0  2  0  0  3  0  0  0  0  0  0
  160.1210  210.6730  154.7750 C   0  0  1  0  0  3  0  0  0  0  0  0
  161.2140  209.6470  154.3730 C   0  0  1  0  0  0  0  0  0  0  0  0
  161.5760  208.6370  155.4690 C   0  0  0  0  0  2  0  0  0  0  0  0
  162.3310  208.1100  149.6420 C   0  0  0  0  0  1  0  0  0  0  0  0
  161.6930  208.9620  150.7310 C   0  0  2  0  0  3  0  0  0  0  0  0
  161.9530  210.4530  150.5300 C   0  0  0  0  0  2  0  0  0  0  0  0
  161.9560  210.8490  149.0880 C   0  0  0  0  0  3  0  0  0  0  0  0
  162.0270  212.1350  148.7470 C   0  0  0  0  0  3  0  0  0  0  0  0
  162.0640  212.5490  147.3100 C   0  0  0  0  0  2  0  0  0  0  0  0
  160.6600  212.5760  146.7400 C   0  0  0  0  0  1  0  0  0  0  0  0
  1 25  1  6  0  0  0
  1 14  1  0  0  0  0
  2  1  1  6  0  0  0
  2  4  1  0  0  0  0
  3  2  1  0  0  0  0
  3  4  1  0  0  0  0
  5  3  1  0  0  0  0
  6  8  2  0  0  0  0
  7  9  1  0  0  0  0
  7  5  1  0  0  0  0
  8  7  2  0  0  0  0
 10  9  1  0  0  0  0
 11 10  1  0  0  0  0
 12 11  1  0  0  0  0
 14 13  1  6  0  0  0
 14 22  1  0  0  0  0
 15 19  1  0  0  0  0
 19 16  1  1  0  0  0
 20 18  1  6  0  0  0
 20 16  1  0  0  0  0
 21 15  1  6  0  0  0
 21 19  1  0  0  0  0
 22 17  1  6  0  0  0
 22 21  1  0  0  0  0
 22 23  1  0  0  0  0
 23 20  1  0  0  0  0
 25 24  1  6  0  0  0
 26 25  1  0  0  0  0
 27 26  1  0  0  0  0
 28 27  2  0  0  0  0
 29 28  1  0  0  0  0
 30 29  1  0  0  0  0
M  END
>  <MODEL>
9

>  <REMARK>
 VINA RESULT:      -5.8      2.649      8.402
  Name = 
  12 active torsions:
  status: ('A' for Active; 'I' for Inactive)
    1  A    between atoms: C_4  and  C_19
    2  A    between atoms: N_6  and  CA_8
    3  A    between atoms: N_6  and  C_21
    4  A    between atoms: C_7  and  C_26
    5  A    between atoms: CA_8  and  C_30
    6  A    between atoms: C_9  and  C_21
    7  A    between atoms: C_10  and  C_15
    8  A    between atoms: C_10  and  C_25
    9  A    between atoms: N_13  and  C_30
   10  A    between atoms: C_19  and  C_24
   11  A    between atoms: C_19  and  C_25
   12  A    between atoms: C_24  and  C_28
                            x       y       z     vdW  Elec       q    Type
                         _______ _______ _______ _____ _____    ______ ____

>  <TORSDO>
F 12

$$$$
