=
 OpenBabel11052422493D

 28 30  0  0  1  0  0  0  0  0999 V2000
  160.6380  204.0960  148.9510 C   0  0  1  0  0  3  0  0  0  0  0  0
  162.7920  205.5560  153.0670 O   0  0  0  0  0  1  0  0  0  0  0  0
  161.3130  207.6320  150.3160 C   0  0  2  0  0  3  0  0  0  0  0  0
  160.6380  208.0530  151.6060 C   0  0  1  0  0  3  0  0  0  0  0  0
  161.4640  204.8270  151.2310 C   0  0  0  0  0  0  0  0  0  0  0  0
  160.5340  206.4850  149.6840 C   0  0  0  0  0  2  0  0  0  0  0  0
  161.0940  202.5160  150.7250 O   0  0  0  0  0  0  0  0  0  0  0  0
  161.7080  205.9020  152.2580 C   0  0  2  0  0  3  0  0  0  0  0  0
  161.3370  203.5560  151.6330 C   0  0  0  0  0  3  0  0  0  0  0  0
  161.9550  207.3040  151.6750 C   0  0  1  0  0  3  0  0  0  0  0  0
  161.1690  202.7090  149.3150 C   0  0  0  0  0  2  0  0  0  0  0  0
  161.3300  205.1960  149.7750 C   0  0  2  0  0  3  0  0  0  0  0  0
  160.6390  204.3450  147.5560 O   0  0  0  0  0  0  0  0  0  0  0  0
  161.7870  203.7700  146.9710 C   0  0  2  0  0  3  0  0  0  0  0  0
  162.3690  206.0830  146.3640 C   0  0  0  0  0  2  0  0  0  0  0  0
  162.7760  204.8460  146.6380 C   0  0  0  0  0  3  0  0  0  0  0  0
  160.5790  203.7530  144.8870 O   0  0  0  0  0  1  0  0  0  0  0  0
  161.4120  202.9890  145.7080 C   0  0  2  0  0  3  0  0  0  0  0  0
  160.7250  201.6780  146.0510 C   0  0  0  0  0  2  0  0  0  0  0  0
  159.8940  201.2480  144.9390 N   0  0  0  0  0  1  0  0  0  0  0  0
  160.8790  209.5360  151.8500 C   0  0  1  0  0  3  0  0  0  0  0  0
  161.0690  208.9540  154.2590 C   0  0  0  0  0  1  0  0  0  0  0  0
  159.9700  211.1160  153.6550 C   0  0  0  0  0  0  0  0  0  0  0  0
  160.6210  209.8960  153.2460 N   0  0  0  0  0  0  0  0  0  0  0  0
  159.7870  211.3520  154.8800 O   0  0  0  0  0  0  0  0  0  0  0  0
  159.4010  212.3360  152.4660 S   0  0  0  0  0  1  0  0  0  0  0  0
  162.2810  209.9410  151.4120 C   0  0  0  0  0  2  0  0  0  0  0  0
  162.2130  210.8340  150.1880 C   0  0  0  0  0  1  0  0  0  0  0  0
  1 13  1  6  0  0  0
  1 11  1  0  0  0  0
  1 12  1  0  0  0  0
  3  6  1  1  0  0  0
  3  4  1  0  0  0  0
  3 10  1  0  0  0  0
  4 10  1  0  0  0  0
  4 21  1  6  0  0  0
  5  9  2  0  0  0  0
  5  8  1  0  0  0  0
  6 12  1  0  0  0  0
  7  9  1  0  0  0  0
  8  2  1  6  0  0  0
 10  8  1  0  0  0  0
 11  7  1  0  0  0  0
 12  5  1  0  0  0  0
 14 13  1  0  0  0  0
 15 16  2  0  0  0  0
 16 14  1  0  0  0  0
 17 18  1  0  0  0  0
 18 19  1  0  0  0  0
 18 14  1  0  0  0  0
 20 19  1  0  0  0  0
 21 24  1  0  0  0  0
 23 25  2  0  0  0  0
 24 23  1  0  0  0  0
 24 22  1  0  0  0  0
 26 23  1  0  0  0  0
 27 21  1  0  0  0  0
 28 27  1  0  0  0  0
M  END
>  <MODEL>
1

>  <REMARK>
 VINA RESULT:      -7.0      0.000      0.000
  Name = 
  8 active torsions:
  status: ('A' for Active; 'I' for Inactive)
    1  A    between atoms: C_1  and  O_2
    2  A    between atoms: O_2  and  C_3
    3  A    between atoms: C_3  and  C_11
    4  A    between atoms: C_3  and  C_22
    5  A    between atoms: C_4  and  C_13
    6  A    between atoms: C_4  and  C_14
    7  A    between atoms: C_4  and  N_15
    8  A    between atoms: C_7  and  C_11
                            x       y       z     vdW  Elec       q    Type
                         _______ _______ _______ _____ _____    ______ ____

>  <TORSDO>
F 8

$$$$
=
 OpenBabel11052422493D

 28 30  0  0  1  0  0  0  0  0999 V2000
  161.2490  206.6680  149.5680 C   0  0  1  0  0  3  0  0  0  0  0  0
  161.2740  211.0410  151.7110 O   0  0  0  0  0  1  0  0  0  0  0  0
  160.4450  207.6960  153.1900 C   0  0  2  0  0  3  0  0  0  0  0  0
  161.5490  208.2970  154.0360 C   0  0  1  0  0  3  0  0  0  0  0  0
  161.5800  208.8900  150.7380 C   0  0  0  0  0  0  0  0  0  0  0  0
  161.0560  206.8880  152.0520 C   0  0  0  0  0  2  0  0  0  0  0  0
  162.2510  208.5730  148.4620 O   0  0  0  0  0  0  0  0  0  0  0  0
  161.6260  209.7200  151.9950 C   0  0  2  0  0  3  0  0  0  0  0  0
  162.2450  209.3090  149.6540 C   0  0  0  0  0  3  0  0  0  0  0  0
  160.7330  209.2060  153.1380 C   0  0  1  0  0  3  0  0  0  0  0  0
  161.3970  207.4500  148.2610 C   0  0  0  0  0  2  0  0  0  0  0  0
  160.8210  207.5880  150.7250 C   0  0  2  0  0  3  0  0  0  0  0  0
  160.4460  205.5090  149.4350 O   0  0  0  0  0  0  0  0  0  0  0  0
  161.2590  204.3570  149.4890 C   0  0  2  0  0  3  0  0  0  0  0  0
  162.0880  204.2620  147.1740 C   0  0  0  0  0  2  0  0  0  0  0  0
  161.3320  203.7280  148.1310 C   0  0  0  0  0  3  0  0  0  0  0  0
  161.6570  203.0770  151.4900 O   0  0  0  0  0  1  0  0  0  0  0  0
  160.7050  203.3560  150.5060 C   0  0  2  0  0  3  0  0  0  0  0  0
  160.2750  202.0630  149.8340 C   0  0  0  0  0  2  0  0  0  0  0  0
  161.2420  201.0150  150.1110 N   0  0  0  0  0  1  0  0  0  0  0  0
  161.0730  208.4380  155.4740 C   0  0  1  0  0  3  0  0  0  0  0  0
  159.1460  210.0030  155.5990 C   0  0  0  0  0  1  0  0  0  0  0  0
  161.4190  210.8910  156.1440 C   0  0  0  0  0  0  0  0  0  0  0  0
  160.5770  209.7900  155.7430 N   0  0  0  0  0  0  0  0  0  0  0  0
  160.9110  212.0250  156.3570 O   0  0  0  0  0  0  0  0  0  0  0  0
  163.1910  210.7040  156.3580 S   0  0  0  0  0  1  0  0  0  0  0  0
  160.0320  207.3770  155.8130 C   0  0  0  0  0  2  0  0  0  0  0  0
  160.1770  206.9390  157.2580 C   0  0  0  0  0  1  0  0  0  0  0  0
  1 13  1  6  0  0  0
  1 12  1  0  0  0  0
  3  6  1  6  0  0  0
  3  4  1  0  0  0  0
  4 21  1  1  0  0  0
  5  8  1  0  0  0  0
  7  9  1  0  0  0  0
  8  2  1  6  0  0  0
  8 10  1  0  0  0  0
  9  5  2  0  0  0  0
 10  3  1  0  0  0  0
 10  4  1  0  0  0  0
 11  7  1  0  0  0  0
 11  1  1  0  0  0  0
 12  5  1  0  0  0  0
 12  6  1  0  0  0  0
 13 14  1  0  0  0  0
 14 18  1  0  0  0  0
 15 16  2  0  0  0  0
 16 14  1  0  0  0  0
 18 17  1  0  0  0  0
 19 20  1  0  0  0  0
 19 18  1  0  0  0  0
 21 24  1  0  0  0  0
 21 27  1  0  0  0  0
 22 24  1  0  0  0  0
 23 25  2  0  0  0  0
 23 26  1  0  0  0  0
 24 23  1  0  0  0  0
 27 28  1  0  0  0  0
M  END
>  <MODEL>
2

>  <REMARK>
 VINA RESULT:      -6.9      2.440      4.306
  Name = 
  8 active torsions:
  status: ('A' for Active; 'I' for Inactive)
    1  A    between atoms: C_1  and  O_2
    2  A    between atoms: O_2  and  C_3
    3  A    between atoms: C_3  and  C_11
    4  A    between atoms: C_3  and  C_22
    5  A    between atoms: C_4  and  C_13
    6  A    between atoms: C_4  and  C_14
    7  A    between atoms: C_4  and  N_15
    8  A    between atoms: C_7  and  C_11
                            x       y       z     vdW  Elec       q    Type
                         _______ _______ _______ _____ _____    ______ ____

>  <TORSDO>
F 8

$$$$
=
 OpenBabel11052422493D

 28 30  0  0  1  0  0  0  0  0999 V2000
  161.2320  203.5260  148.4750 C   0  0  1  0  0  3  0  0  0  0  0  0
  161.2830  204.5490  153.2360 O   0  0  0  0  0  1  0  0  0  0  0  0
  161.7480  206.8640  150.3230 C   0  0  2  0  0  3  0  0  0  0  0  0
  160.6080  207.4170  151.1560 C   0  0  1  0  0  3  0  0  0  0  0  0
  160.9340  204.0880  150.9270 C   0  0  0  0  0  0  0  0  0  0  0  0
  161.1980  205.8910  149.2870 C   0  0  0  0  0  2  0  0  0  0  0  0
  160.4660  201.8950  150.0910 O   0  0  0  0  0  0  0  0  0  0  0  0
  160.8210  205.0990  152.0390 C   0  0  2  0  0  3  0  0  0  0  0  0
  160.4050  202.8700  151.0950 C   0  0  0  0  0  3  0  0  0  0  0  0
  161.5650  206.4220  151.7850 C   0  0  1  0  0  3  0  0  0  0  0  0
  161.2610  202.0620  148.9200 C   0  0  0  0  0  2  0  0  0  0  0  0
  161.6050  204.4700  149.6320 C   0  0  2  0  0  3  0  0  0  0  0  0
  161.9660  203.7620  147.2880 O   0  0  0  0  0  0  0  0  0  0  0  0
  161.1070  203.6860  146.1720 C   0  0  2  0  0  3  0  0  0  0  0  0
  159.9660  201.8020  145.0770 C   0  0  0  0  0  2  0  0  0  0  0  0
  161.0610  202.2770  145.6650 C   0  0  0  0  0  3  0  0  0  0  0  0
  162.7730  205.2600  145.4310 O   0  0  0  0  0  1  0  0  0  0  0  0
  161.5800  204.6320  145.0640 C   0  0  2  0  0  3  0  0  0  0  0  0
  160.5300  205.6810  144.7430 C   0  0  0  0  0  2  0  0  0  0  0  0
  160.3040  206.5270  145.9030 N   0  0  0  0  0  1  0  0  0  0  0  0
  160.9510  208.8230  151.6240 C   0  0  1  0  0  3  0  0  0  0  0  0
  161.1260  207.9190  153.9330 C   0  0  0  0  0  1  0  0  0  0  0  0
  160.0250  210.1420  153.6200 C   0  0  0  0  0  0  0  0  0  0  0  0
  160.6830  208.9890  153.0540 N   0  0  0  0  0  0  0  0  0  0  0  0
  159.8330  210.2080  154.8650 O   0  0  0  0  0  0  0  0  0  0  0  0
  159.4610  211.5100  152.6040 S   0  0  0  0  0  1  0  0  0  0  0  0
  162.3910  209.1800  151.2750 C   0  0  0  0  0  2  0  0  0  0  0  0
  162.4320  210.4450  150.4400 C   0  0  0  0  0  1  0  0  0  0  0  0
  1 13  1  6  0  0  0
  1 11  1  0  0  0  0
  1 12  1  0  0  0  0
  3  6  1  6  0  0  0
  3  4  1  0  0  0  0
  3 10  1  0  0  0  0
  4 21  1  1  0  0  0
  4 10  1  0  0  0  0
  5  9  2  0  0  0  0
  5  8  1  0  0  0  0
  6 12  1  0  0  0  0
  7  9  1  0  0  0  0
  8  2  1  1  0  0  0
 10  8  1  0  0  0  0
 11  7  1  0  0  0  0
 12  5  1  0  0  0  0
 14 13  1  0  0  0  0
 15 16  2  0  0  0  0
 16 14  1  0  0  0  0
 18 17  1  0  0  0  0
 18 14  1  0  0  0  0
 19 18  1  0  0  0  0
 19 20  1  0  0  0  0
 21 24  1  0  0  0  0
 23 25  2  0  0  0  0
 24 23  1  0  0  0  0
 24 22  1  0  0  0  0
 26 23  1  0  0  0  0
 27 21  1  0  0  0  0
 28 27  1  0  0  0  0
M  END
>  <MODEL>
3

>  <REMARK>
 VINA RESULT:      -6.6      1.583      2.046
  Name = 
  8 active torsions:
  status: ('A' for Active; 'I' for Inactive)
    1  A    between atoms: C_1  and  O_2
    2  A    between atoms: O_2  and  C_3
    3  A    between atoms: C_3  and  C_11
    4  A    between atoms: C_3  and  C_22
    5  A    between atoms: C_4  and  C_13
    6  A    between atoms: C_4  and  C_14
    7  A    between atoms: C_4  and  N_15
    8  A    between atoms: C_7  and  C_11
                            x       y       z     vdW  Elec       q    Type
                         _______ _______ _______ _____ _____    ______ ____

>  <TORSDO>
F 8

$$$$
=
 OpenBabel11052422493D

 28 30  0  0  1  0  0  0  0  0999 V2000
  162.3730  207.6660  149.7790 C   0  0  1  0  0  3  0  0  0  0  0  0
  160.1650  211.4000  151.9930 O   0  0  0  0  0  1  0  0  0  0  0  0
  161.0210  208.0170  153.3680 C   0  0  2  0  0  3  0  0  0  0  0  0
  161.6530  209.0450  154.2840 C   0  0  1  0  0  3  0  0  0  0  0  0
  161.5250  209.7160  151.0030 C   0  0  0  0  0  0  0  0  0  0  0  0
  161.9960  207.6600  152.2520 C   0  0  0  0  0  2  0  0  0  0  0  0
  162.3580  209.8620  148.7630 O   0  0  0  0  0  0  0  0  0  0  0  0
  161.1070  210.4090  152.2740 C   0  0  2  0  0  3  0  0  0  0  0  0
  161.9430  210.4510  149.9650 C   0  0  0  0  0  3  0  0  0  0  0  0
  160.5340  209.4770  153.3560 C   0  0  1  0  0  3  0  0  0  0  0  0
  162.1720  208.4750  148.4970 C   0  0  0  0  0  2  0  0  0  0  0  0
  161.5020  208.2100  150.9260 C   0  0  2  0  0  3  0  0  0  0  0  0
  162.2480  206.2690  149.5830 O   0  0  0  0  0  0  0  0  0  0  0  0
  160.9110  205.9500  149.2650 C   0  0  2  0  0  3  0  0  0  0  0  0
  161.1760  204.3670  151.1300 C   0  0  0  0  0  2  0  0  0  0  0  0
  160.3650  204.9930  150.2800 C   0  0  0  0  0  3  0  0  0  0  0  0
  161.8920  204.4680  147.6390 O   0  0  0  0  0  1  0  0  0  0  0  0
  160.8230  205.3400  147.8630 C   0  0  2  0  0  3  0  0  0  0  0  0
  160.8110  206.4160  146.7900 C   0  0  0  0  0  2  0  0  0  0  0  0
  160.6170  205.8100  145.4840 N   0  0  0  0  0  1  0  0  0  0  0  0
  161.1110  208.8750  155.6950 C   0  0  1  0  0  3  0  0  0  0  0  0
  159.2060  210.3850  156.2160 C   0  0  0  0  0  1  0  0  0  0  0  0
  161.5110  211.1530  156.8070 C   0  0  0  0  0  0  0  0  0  0  0  0
  160.6410  210.1490  156.2440 N   0  0  0  0  0  0  0  0  0  0  0  0
  161.0240  212.2240  157.2600 O   0  0  0  0  0  0  0  0  0  0  0  0
  163.2900  210.9310  156.8910 S   0  0  0  0  0  1  0  0  0  0  0  0
  160.0250  207.8060  155.7390 C   0  0  0  0  0  2  0  0  0  0  0  0
  160.1270  207.0040  157.0220 C   0  0  0  0  0  1  0  0  0  0  0  0
  1 13  1  6  0  0  0
  1 12  1  0  0  0  0
  3  6  1  6  0  0  0
  3  4  1  0  0  0  0
  4 21  1  1  0  0  0
  5  8  1  0  0  0  0
  7  9  1  0  0  0  0
  8  2  1  6  0  0  0
  8 10  1  0  0  0  0
  9  5  2  0  0  0  0
 10  3  1  0  0  0  0
 10  4  1  0  0  0  0
 11  7  1  0  0  0  0
 11  1  1  0  0  0  0
 12  5  1  0  0  0  0
 12  6  1  0  0  0  0
 14 13  1  0  0  0  0
 14 16  1  0  0  0  0
 16 15  2  0  0  0  0
 17 18  1  0  0  0  0
 18 14  1  0  0  0  0
 19 18  1  0  0  0  0
 20 19  1  0  0  0  0
 21 27  1  0  0  0  0
 21 24  1  0  0  0  0
 22 24  1  0  0  0  0
 23 26  1  0  0  0  0
 23 25  2  0  0  0  0
 24 23  1  0  0  0  0
 27 28  1  0  0  0  0
M  END
>  <MODEL>
4

>  <REMARK>
 VINA RESULT:      -6.3      2.600      4.683
  Name = 
  8 active torsions:
  status: ('A' for Active; 'I' for Inactive)
    1  A    between atoms: C_1  and  O_2
    2  A    between atoms: O_2  and  C_3
    3  A    between atoms: C_3  and  C_11
    4  A    between atoms: C_3  and  C_22
    5  A    between atoms: C_4  and  C_13
    6  A    between atoms: C_4  and  C_14
    7  A    between atoms: C_4  and  N_15
    8  A    between atoms: C_7  and  C_11
                            x       y       z     vdW  Elec       q    Type
                         _______ _______ _______ _____ _____    ______ ____

>  <TORSDO>
F 8

$$$$
=
 OpenBabel11052422493D

 28 30  0  0  1  0  0  0  0  0999 V2000
  161.1430  208.0240  152.1340 C   0  0  1  0  0  3  0  0  0  0  0  0
  160.7180  203.1780  151.9250 O   0  0  0  0  0  1  0  0  0  0  0  0
  160.6390  205.6730  149.1270 C   0  0  2  0  0  3  0  0  0  0  0  0
  161.7270  204.6690  148.8000 C   0  0  1  0  0  3  0  0  0  0  0  0
  161.2480  205.4970  152.0130 C   0  0  0  0  0  0  0  0  0  0  0  0
  161.2280  206.8150  149.9460 C   0  0  0  0  0  2  0  0  0  0  0  0
  161.6740  206.6600  154.0610 O   0  0  0  0  0  0  0  0  0  0  0  0
  161.3140  204.2210  151.2140 C   0  0  2  0  0  3  0  0  0  0  0  0
  161.6960  205.5010  153.2750 C   0  0  0  0  0  3  0  0  0  0  0  0
  160.6660  204.3000  149.8200 C   0  0  1  0  0  3  0  0  0  0  0  0
  160.9970  207.8440  153.6460 C   0  0  0  0  0  2  0  0  0  0  0  0
  160.7180  206.7550  151.3750 C   0  0  2  0  0  3  0  0  0  0  0  0
  160.5310  209.2070  151.6520 O   0  0  0  0  0  0  0  0  0  0  0  0
  161.3080  210.3280  152.0140 C   0  0  2  0  0  3  0  0  0  0  0  0
  159.1640  211.0780  152.9580 C   0  0  0  0  0  2  0  0  0  0  0  0
  160.4570  211.3160  152.7500 C   0  0  0  0  0  3  0  0  0  0  0  0
  161.1790  212.1000  150.3880 O   0  0  0  0  0  1  0  0  0  0  0  0
  161.9210  210.9800  150.7710 C   0  0  2  0  0  3  0  0  0  0  0  0
  161.9980  210.0010  149.6120 C   0  0  0  0  0  2  0  0  0  0  0  0
  161.9560  210.7210  148.3510 N   0  0  0  0  0  1  0  0  0  0  0  0
  161.4170  203.9930  147.4730 C   0  0  1  0  0  3  0  0  0  0  0  0
  163.6400  204.2210  146.3860 C   0  0  0  0  0  1  0  0  0  0  0  0
  161.6940  205.3880  145.3370 C   0  0  0  0  0  0  0  0  0  0  0  0
  162.2250  204.5530  146.3870 N   0  0  0  0  0  0  0  0  0  0  0  0
  162.4590  205.8280  144.4370 O   0  0  0  0  0  0  0  0  0  0  0  0
  159.9560  205.8300  145.2600 S   0  0  0  0  0  1  0  0  0  0  0  0
  161.5810  202.4810  147.5780 C   0  0  0  0  0  2  0  0  0  0  0  0
  160.8310  201.7910  146.4540 C   0  0  0  0  0  1  0  0  0  0  0  0
  1 13  1  6  0  0  0
  1 11  1  0  0  0  0
  3 10  1  0  0  0  0
  3  6  1  1  0  0  0
  4 21  1  6  0  0  0
  4  3  1  0  0  0  0
  4 10  1  0  0  0  0
  5  9  2  0  0  0  0
  6 12  1  0  0  0  0
  8  2  1  1  0  0  0
  8  5  1  0  0  0  0
  9  7  1  0  0  0  0
 10  8  1  0  0  0  0
 11  7  1  0  0  0  0
 12  5  1  0  0  0  0
 12  1  1  0  0  0  0
 13 14  1  0  0  0  0
 14 16  1  0  0  0  0
 16 15  2  0  0  0  0
 17 18  1  0  0  0  0
 18 14  1  0  0  0  0
 19 18  1  0  0  0  0
 20 19  1  0  0  0  0
 21 27  1  0  0  0  0
 22 24  1  0  0  0  0
 23 24  1  0  0  0  0
 24 21  1  0  0  0  0
 25 23  2  0  0  0  0
 26 23  1  0  0  0  0
 28 27  1  0  0  0  0
M  END
>  <MODEL>
5

>  <REMARK>
 VINA RESULT:      -6.3      2.748      7.452
  Name = 
  8 active torsions:
  status: ('A' for Active; 'I' for Inactive)
    1  A    between atoms: C_1  and  O_2
    2  A    between atoms: O_2  and  C_3
    3  A    between atoms: C_3  and  C_11
    4  A    between atoms: C_3  and  C_22
    5  A    between atoms: C_4  and  C_13
    6  A    between atoms: C_4  and  C_14
    7  A    between atoms: C_4  and  N_15
    8  A    between atoms: C_7  and  C_11
                            x       y       z     vdW  Elec       q    Type
                         _______ _______ _______ _____ _____    ______ ____

>  <TORSDO>
F 8

$$$$
=
 OpenBabel11052422493D

 28 30  0  0  1  0  0  0  0  0999 V2000
  161.3580  207.4480  152.4070 C   0  0  1  0  0  3  0  0  0  0  0  0
  160.3960  209.1940  156.8500 O   0  0  0  0  0  1  0  0  0  0  0  0
  160.4190  210.9990  153.5630 C   0  0  2  0  0  3  0  0  0  0  0  0
  159.0560  211.2230  154.1860 C   0  0  1  0  0  3  0  0  0  0  0  0
  160.5490  208.2610  154.6660 C   0  0  0  0  0  0  0  0  0  0  0  0
  160.3910  209.7340  152.7130 C   0  0  0  0  0  2  0  0  0  0  0  0
  160.9940  205.9430  154.2670 O   0  0  0  0  0  0  0  0  0  0  0  0
  159.9390  209.3280  155.5380 C   0  0  2  0  0  3  0  0  0  0  0  0
  160.4600  206.9790  155.0430 C   0  0  0  0  0  3  0  0  0  0  0  0
  160.2030  210.7700  155.0690 C   0  0  1  0  0  3  0  0  0  0  0  0
  161.8340  206.1940  153.1430 C   0  0  0  0  0  2  0  0  0  0  0  0
  161.2160  208.6410  153.3680 C   0  0  2  0  0  3  0  0  0  0  0  0
  162.1200  207.7380  151.2490 O   0  0  0  0  0  0  0  0  0  0  0  0
  161.3460  207.4910  150.0950 C   0  0  2  0  0  3  0  0  0  0  0  0
  160.4820  205.3290  149.3010 C   0  0  0  0  0  2  0  0  0  0  0  0
  161.5280  206.0690  149.6600 C   0  0  0  0  0  3  0  0  0  0  0  0
  162.6980  207.8490  148.1340 O   0  0  0  0  0  1  0  0  0  0  0  0
  161.7470  208.4450  148.9660 C   0  0  2  0  0  3  0  0  0  0  0  0
  162.2970  209.7510  149.5130 C   0  0  0  0  0  2  0  0  0  0  0  0
  161.9520  210.8460  148.6210 N   0  0  0  0  0  1  0  0  0  0  0  0
  158.8200  212.7130  154.3790 C   0  0  1  0  0  3  0  0  0  0  0  0
  156.3640  213.0770  154.2650 C   0  0  0  0  0  1  0  0  0  0  0  0
  157.7400  213.7170  152.2790 C   0  0  0  0  0  0  0  0  0  0  0  0
  157.6590  213.1740  153.6130 N   0  0  0  0  0  0  0  0  0  0  0  0
  156.6910  214.0930  151.6880 O   0  0  0  0  0  0  0  0  0  0  0  0
  159.3030  213.8830  151.4120 S   0  0  0  0  0  1  0  0  0  0  0  0
  158.6940  213.0600  155.8580 C   0  0  0  0  0  2  0  0  0  0  0  0
  159.6750  214.1570  156.2260 C   0  0  0  0  0  1  0  0  0  0  0  0
  1 13  1  6  0  0  0
  1 11  1  0  0  0  0
  1 12  1  0  0  0  0
  3  6  1  6  0  0  0
  3  4  1  0  0  0  0
  3 10  1  0  0  0  0
  4 21  1  1  0  0  0
  4 10  1  0  0  0  0
  5  9  2  0  0  0  0
  5  8  1  0  0  0  0
  6 12  1  0  0  0  0
  7  9  1  0  0  0  0
  8  2  1  1  0  0  0
 10  8  1  0  0  0  0
 11  7  1  0  0  0  0
 12  5  1  0  0  0  0
 14 13  1  0  0  0  0
 15 16  2  0  0  0  0
 16 14  1  0  0  0  0
 17 18  1  0  0  0  0
 18 19  1  0  0  0  0
 18 14  1  0  0  0  0
 20 19  1  0  0  0  0
 21 27  1  0  0  0  0
 23 24  1  0  0  0  0
 24 22  1  0  0  0  0
 24 21  1  0  0  0  0
 25 23  2  0  0  0  0
 26 23  1  0  0  0  0
 27 28  1  0  0  0  0
M  END
>  <MODEL>
6

>  <REMARK>
 VINA RESULT:      -6.2      3.440      5.522
  Name = 
  8 active torsions:
  status: ('A' for Active; 'I' for Inactive)
    1  A    between atoms: C_1  and  O_2
    2  A    between atoms: O_2  and  C_3
    3  A    between atoms: C_3  and  C_11
    4  A    between atoms: C_3  and  C_22
    5  A    between atoms: C_4  and  C_13
    6  A    between atoms: C_4  and  C_14
    7  A    between atoms: C_4  and  N_15
    8  A    between atoms: C_7  and  C_11
                            x       y       z     vdW  Elec       q    Type
                         _______ _______ _______ _____ _____    ______ ____

>  <TORSDO>
F 8

$$$$
=
 OpenBabel11052422493D

 28 30  0  0  1  0  0  0  0  0999 V2000
  161.2700  207.7870  152.3790 C   0  0  1  0  0  3  0  0  0  0  0  0
  160.4450  203.0250  151.7770 O   0  0  0  0  0  1  0  0  0  0  0  0
  160.6830  205.7230  149.1820 C   0  0  2  0  0  3  0  0  0  0  0  0
  161.6930  204.6560  148.8110 C   0  0  1  0  0  3  0  0  0  0  0  0
  161.1660  205.2760  152.0630 C   0  0  0  0  0  0  0  0  0  0  0  0
  161.3350  206.7440  150.1070 C   0  0  0  0  0  2  0  0  0  0  0  0
  161.6110  206.2400  154.2080 O   0  0  0  0  0  0  0  0  0  0  0  0
  161.1540  204.0630  151.1690 C   0  0  2  0  0  3  0  0  0  0  0  0
  161.5640  205.1460  153.3340 C   0  0  0  0  0  3  0  0  0  0  0  0
  160.5680  204.3040  149.7660 C   0  0  1  0  0  3  0  0  0  0  0  0
  161.0520  207.5060  153.8670 C   0  0  0  0  0  2  0  0  0  0  0  0
  160.7680  206.6210  151.5100 C   0  0  2  0  0  3  0  0  0  0  0  0
  160.7790  209.0520  151.9730 O   0  0  0  0  0  0  0  0  0  0  0  0
  160.3870  209.7970  153.1050 C   0  0  2  0  0  3  0  0  0  0  0  0
  159.3050  211.9240  152.5070 C   0  0  0  0  0  2  0  0  0  0  0  0
  159.1840  210.6260  152.7720 C   0  0  0  0  0  3  0  0  0  0  0  0
  162.7290  210.3370  152.9540 O   0  0  0  0  0  1  0  0  0  0  0  0
  161.5330  210.6950  153.5800 C   0  0  2  0  0  3  0  0  0  0  0  0
  161.7060  210.6230  155.0870 C   0  0  0  0  0  2  0  0  0  0  0  0
  161.0730  211.7710  155.7150 N   0  0  0  0  0  1  0  0  0  0  0  0
  161.3780  204.1110  147.4260 C   0  0  1  0  0  3  0  0  0  0  0  0
  163.6540  204.3160  146.4500 C   0  0  0  0  0  1  0  0  0  0  0  0
  161.7990  205.6110  145.3870 C   0  0  0  0  0  0  0  0  0  0  0  0
  162.2530  204.6990  146.4090 N   0  0  0  0  0  0  0  0  0  0  0  0
  162.6180  206.0710  144.5460 O   0  0  0  0  0  0  0  0  0  0  0  0
  160.0820  206.1210  145.2610 S   0  0  0  0  0  1  0  0  0  0  0  0
  161.4370  202.5880  147.4100 C   0  0  0  0  0  2  0  0  0  0  0  0
  160.8240  202.0500  146.1310 C   0  0  0  0  0  1  0  0  0  0  0  0
  1 13  1  6  0  0  0
  1 11  1  0  0  0  0
  3 10  1  0  0  0  0
  3  6  1  1  0  0  0
  4 21  1  6  0  0  0
  4  3  1  0  0  0  0
  4 10  1  0  0  0  0
  5  9  2  0  0  0  0
  6 12  1  0  0  0  0
  8  2  1  1  0  0  0
  8  5  1  0  0  0  0
  9  7  1  0  0  0  0
 10  8  1  0  0  0  0
 11  7  1  0  0  0  0
 12  5  1  0  0  0  0
 12  1  1  0  0  0  0
 13 14  1  0  0  0  0
 14 18  1  0  0  0  0
 15 16  2  0  0  0  0
 16 14  1  0  0  0  0
 17 18  1  0  0  0  0
 18 19  1  0  0  0  0
 19 20  1  0  0  0  0
 23 24  1  0  0  0  0
 24 22  1  0  0  0  0
 24 21  1  0  0  0  0
 25 23  2  0  0  0  0
 26 23  1  0  0  0  0
 27 21  1  0  0  0  0
 28 27  1  0  0  0  0
M  END
>  <MODEL>
7

>  <REMARK>
 VINA RESULT:      -6.1      2.695      8.001
  Name = 
  8 active torsions:
  status: ('A' for Active; 'I' for Inactive)
    1  A    between atoms: C_1  and  O_2
    2  A    between atoms: O_2  and  C_3
    3  A    between atoms: C_3  and  C_11
    4  A    between atoms: C_3  and  C_22
    5  A    between atoms: C_4  and  C_13
    6  A    between atoms: C_4  and  C_14
    7  A    between atoms: C_4  and  N_15
    8  A    between atoms: C_7  and  C_11
                            x       y       z     vdW  Elec       q    Type
                         _______ _______ _______ _____ _____    ______ ____

>  <TORSDO>
F 8

$$$$
=
 OpenBabel11052422493D

 28 30  0  0  1  0  0  0  0  0999 V2000
  161.5640  206.5530  149.7810 C   0  0  1  0  0  3  0  0  0  0  0  0
  161.9750  210.8420  152.0500 O   0  0  0  0  0  1  0  0  0  0  0  0
  162.2890  210.0710  148.3940 C   0  0  2  0  0  3  0  0  0  0  0  0
  161.2240  211.1410  148.5350 C   0  0  1  0  0  3  0  0  0  0  0  0
  161.4530  208.8070  150.9300 C   0  0  0  0  0  0  0  0  0  0  0  0
  161.6440  208.6930  148.4890 C   0  0  0  0  0  2  0  0  0  0  0  0
  160.8740  206.7930  152.0870 O   0  0  0  0  0  0  0  0  0  0  0  0
  161.4430  210.3130  150.8730 C   0  0  2  0  0  3  0  0  0  0  0  0
  160.9070  208.1900  151.9860 C   0  0  0  0  0  3  0  0  0  0  0  0
  162.1990  210.9160  149.6760 C   0  0  1  0  0  3  0  0  0  0  0  0
  161.5890  205.9510  151.1870 C   0  0  0  0  0  2  0  0  0  0  0  0
  162.0400  208.0160  149.7890 C   0  0  2  0  0  3  0  0  0  0  0  0
  162.2180  205.7470  148.8180 O   0  0  0  0  0  0  0  0  0  0  0  0
  161.2620  205.0960  148.0100 C   0  0  2  0  0  3  0  0  0  0  0  0
  160.7970  203.0000  149.2110 C   0  0  0  0  0  2  0  0  0  0  0  0
  161.3800  203.6130  148.1840 C   0  0  0  0  0  3  0  0  0  0  0  0
  160.4240  206.3100  146.1060 O   0  0  0  0  0  1  0  0  0  0  0  0
  161.4550  205.4730  146.5390 C   0  0  2  0  0  3  0  0  0  0  0  0
  161.5160  204.2410  145.6530 C   0  0  0  0  0  2  0  0  0  0  0  0
  160.6630  204.4230  144.4910 N   0  0  0  0  0  1  0  0  0  0  0  0
  161.6340  212.3770  147.7480 C   0  0  1  0  0  3  0  0  0  0  0  0
  159.2650  212.5880  147.0260 C   0  0  0  0  0  1  0  0  0  0  0  0
  161.0530  213.0460  145.3410 C   0  0  0  0  0  0  0  0  0  0  0  0
  160.6750  212.6730  146.6810 N   0  0  0  0  0  0  0  0  0  0  0  0
  160.1640  213.2870  144.4800 O   0  0  0  0  0  0  0  0  0  0  0  0
  162.7720  213.1870  144.8410 S   0  0  0  0  0  1  0  0  0  0  0  0
  161.8360  213.5710  148.6730 C   0  0  0  0  0  2  0  0  0  0  0  0
  162.9570  214.4530  148.1580 C   0  0  0  0  0  1  0  0  0  0  0  0
  1 13  1  6  0  0  0
  1 12  1  0  0  0  0
  1 11  1  0  0  0  0
  3  6  1  1  0  0  0
  3  4  1  0  0  0  0
  3 10  1  0  0  0  0
  4 21  1  6  0  0  0
  4 10  1  0  0  0  0
  5  9  2  0  0  0  0
  6 12  1  0  0  0  0
  8  5  1  0  0  0  0
  8  2  1  1  0  0  0
  9  7  1  0  0  0  0
 10  8  1  0  0  0  0
 11  7  1  0  0  0  0
 12  5  1  0  0  0  0
 14 16  1  0  0  0  0
 14 13  1  0  0  0  0
 16 15  2  0  0  0  0
 17 18  1  0  0  0  0
 18 14  1  0  0  0  0
 19 18  1  0  0  0  0
 20 19  1  0  0  0  0
 21 27  1  0  0  0  0
 23 24  1  0  0  0  0
 24 22  1  0  0  0  0
 24 21  1  0  0  0  0
 25 23  2  0  0  0  0
 26 23  1  0  0  0  0
 28 27  1  0  0  0  0
M  END
>  <MODEL>
8

>  <REMARK>
 VINA RESULT:      -6.0      3.616      5.007
  Name = 
  8 active torsions:
  status: ('A' for Active; 'I' for Inactive)
    1  A    between atoms: C_1  and  O_2
    2  A    between atoms: O_2  and  C_3
    3  A    between atoms: C_3  and  C_11
    4  A    between atoms: C_3  and  C_22
    5  A    between atoms: C_4  and  C_13
    6  A    between atoms: C_4  and  C_14
    7  A    between atoms: C_4  and  N_15
    8  A    between atoms: C_7  and  C_11
                            x       y       z     vdW  Elec       q    Type
                         _______ _______ _______ _____ _____    ______ ____

>  <TORSDO>
F 8

$$$$
=
 OpenBabel11052422493D

 28 30  0  0  1  0  0  0  0  0999 V2000
  160.9830  207.4860  152.9770 C   0  0  1  0  0  3  0  0  0  0  0  0
  160.4370  211.3230  155.9260 O   0  0  0  0  0  1  0  0  0  0  0  0
  160.6270  211.2370  152.1820 C   0  0  2  0  0  3  0  0  0  0  0  0
  159.3340  211.9370  152.5480 C   0  0  1  0  0  3  0  0  0  0  0  0
  160.3780  209.4190  154.4980 C   0  0  0  0  0  0  0  0  0  0  0  0
  160.3810  209.7370  152.0680 C   0  0  0  0  0  2  0  0  0  0  0  0
  160.4560  207.1720  155.3170 O   0  0  0  0  0  0  0  0  0  0  0  0
  159.9640  210.8540  154.6990 C   0  0  2  0  0  3  0  0  0  0  0  0
  160.1090  208.5220  155.4550 C   0  0  0  0  0  3  0  0  0  0  0  0
  160.4270  211.8180  153.5920 C   0  0  1  0  0  3  0  0  0  0  0  0
  161.2880  206.7070  154.2570 C   0  0  0  0  0  2  0  0  0  0  0  0
  161.0530  209.0050  153.2150 C   0  0  2  0  0  3  0  0  0  0  0  0
  161.7420  207.0490  151.8640 O   0  0  0  0  0  0  0  0  0  0  0  0
  160.9340  206.2660  151.0130 C   0  0  2  0  0  3  0  0  0  0  0  0
  160.9320  203.8930  151.6630 C   0  0  0  0  0  2  0  0  0  0  0  0
  161.4770  204.8710  150.9440 C   0  0  0  0  0  3  0  0  0  0  0  0
  160.4740  205.9280  148.6730 O   0  0  0  0  0  1  0  0  0  0  0  0
  160.8760  206.8810  149.6120 C   0  0  2  0  0  3  0  0  0  0  0  0
  162.2200  207.4610  149.2050 C   0  0  0  0  0  2  0  0  0  0  0  0
  162.0560  208.8400  148.7770 N   0  0  0  0  0  1  0  0  0  0  0  0
  159.3310  213.3440  151.9680 C   0  0  1  0  0  3  0  0  0  0  0  0
  157.1820  213.3100  150.7190 C   0  0  0  0  0  1  0  0  0  0  0  0
  159.3010  213.5180  149.4080 C   0  0  0  0  0  0  0  0  0  0  0  0
  158.6340  213.3890  150.6810 N   0  0  0  0  0  0  0  0  0  0  0  0
  158.6250  213.5510  148.3440 O   0  0  0  0  0  0  0  0  0  0  0  0
  161.0870  213.6370  149.2780 S   0  0  0  0  0  1  0  0  0  0  0  0
  158.7500  214.3440  152.9610 C   0  0  0  0  0  2  0  0  0  0  0  0
  157.7360  213.6640  153.8610 C   0  0  0  0  0  1  0  0  0  0  0  0
  1 13  1  6  0  0  0
  1 12  1  0  0  0  0
  1 11  1  0  0  0  0
  3  6  1  1  0  0  0
  3  4  1  0  0  0  0
  3 10  1  0  0  0  0
  4 21  1  6  0  0  0
  4 10  1  0  0  0  0
  5  8  1  0  0  0  0
  5  9  2  0  0  0  0
  6 12  1  0  0  0  0
  7  9  1  0  0  0  0
  8  2  1  1  0  0  0
 10  8  1  0  0  0  0
 11  7  1  0  0  0  0
 12  5  1  0  0  0  0
 14 13  1  0  0  0  0
 16 14  1  0  0  0  0
 16 15  2  0  0  0  0
 17 18  1  0  0  0  0
 18 14  1  0  0  0  0
 19 18  1  0  0  0  0
 20 19  1  0  0  0  0
 21 27  1  0  0  0  0
 23 24  1  0  0  0  0
 24 22  1  0  0  0  0
 24 21  1  0  0  0  0
 25 23  2  0  0  0  0
 26 23  1  0  0  0  0
 27 28  1  0  0  0  0
M  END
>  <MODEL>
9

>  <REMARK>
 VINA RESULT:      -5.9      3.281      5.661
  Name = 
  8 active torsions:
  status: ('A' for Active; 'I' for Inactive)
    1  A    between atoms: C_1  and  O_2
    2  A    between atoms: O_2  and  C_3
    3  A    between atoms: C_3  and  C_11
    4  A    between atoms: C_3  and  C_22
    5  A    between atoms: C_4  and  C_13
    6  A    between atoms: C_4  and  C_14
    7  A    between atoms: C_4  and  N_15
    8  A    between atoms: C_7  and  C_11
                            x       y       z     vdW  Elec       q    Type
                         _______ _______ _______ _____ _____    ______ ____

>  <TORSDO>
F 8

$$$$
