=
 OpenBabel11052423013D

 28 32  0  0  1  0  0  0  0  0999 V2000
  161.0500  207.2340  151.8260 C   0  0  0  0  0  0  0  0  0  0  0  0
  161.0630  206.1950  146.6810 C   0  0  0  0  0  3  0  0  0  0  0  0
  161.2830  202.2750  151.6710 C   0  0  0  0  0  1  0  0  0  0  0  0
  161.1780  203.7690  146.6940 C   0  0  0  0  0  0  0  0  0  0  0  0
  161.1370  204.9410  148.8690 C   0  0  0  0  0  0  0  0  0  0  0  0
  161.1070  204.9700  144.5920 C   0  0  0  0  0  0  0  0  0  0  0  0
  161.1250  204.9860  147.3930 C   0  0  0  0  0  0  0  0  0  0  0  0
  161.2520  202.5090  148.8000 C   0  0  0  0  0  3  0  0  0  0  0  0
  161.1680  203.7640  145.2960 C   0  0  0  0  0  3  0  0  0  0  0  0
  161.1640  204.7890  151.7450 C   0  0  0  0  0  0  0  0  0  0  0  0
  161.0890  206.0580  149.6000 C   0  0  0  0  0  3  0  0  0  0  0  0
  161.2400  202.5590  147.3970 O   0  0  0  0  0  0  0  0  0  0  0  0
  161.1250  205.9460  153.8820 C   0  0  0  0  0  3  0  0  0  0  0  0
  161.2170  203.5650  150.9850 N   0  0  0  0  0  0  0  0  0  0  0  0
  161.1760  204.7620  153.1480 C   0  0  0  0  0  3  0  0  0  0  0  0
  161.0970  204.9620  143.2370 F   0  0  0  0  0  0  0  0  0  0  0  0
  161.0530  206.1840  145.2830 C   0  0  0  0  0  3  0  0  0  0  0  0
  161.2050  203.6230  149.5440 C   0  0  0  0  0  0  0  0  0  0  0  0
  161.0630  207.1730  153.2230 C   0  0  0  0  0  3  0  0  0  0  0  0
  161.1010  206.0330  151.0780 C   0  0  0  0  0  0  0  0  0  0  0  0
  160.9800  208.5970  151.1970 C   0  0  1  0  0  3  0  0  0  0  0  0
  160.7620  209.6920  152.2480 C   0  0  0  0  0  2  0  0  0  0  0  0
  161.4550  211.2830  150.3510 C   0  0  0  0  0  0  0  0  0  0  0  0
  162.2140  208.8860  150.3380 C   0  0  0  0  0  2  0  0  0  0  0  0
  160.1840  212.0080  152.2180 O   0  0  0  0  0  0  0  0  0  0  0  0
  160.7560  211.0560  151.6240 C   0  0  0  0  0  0  0  0  0  0  0  0
  161.4750  212.4280  149.8250 O   0  0  0  0  0  0  0  0  0  0  0  0
  162.0820  210.1840  149.6860 N   0  0  0  0  0  2  0  0  0  0  0  0
  1 19  1  0  0  0  0
  2  7  1  0  0  0  0
  4  7  2  0  0  0  0
  4 12  1  0  0  0  0
  5 18  1  0  0  0  0
  5 11  2  0  0  0  0
  6 17  1  0  0  0  0
  6  9  2  0  0  0  0
  7  5  1  0  0  0  0
  8 18  2  0  0  0  0
  9  4  1  0  0  0  0
 10 15  2  0  0  0  0
 11 20  1  0  0  0  0
 12  8  1  0  0  0  0
 14  3  1  0  0  0  0
 14 10  1  0  0  0  0
 15 13  1  0  0  0  0
 16  6  1  0  0  0  0
 17  2  2  0  0  0  0
 18 14  1  0  0  0  0
 19 13  2  0  0  0  0
 20 10  1  0  0  0  0
 20  1  2  0  0  0  0
 21  1  1  1  0  0  0
 21 22  1  0  0  0  0
 23 26  1  0  0  0  0
 24 21  1  0  0  0  0
 26 25  2  0  0  0  0
 26 22  1  0  0  0  0
 27 23  2  0  0  0  0
 28 24  1  0  0  0  0
 28 23  1  0  0  0  0
M  END
>  <MODEL>
1

>  <REMARK>
 VINA RESULT:     -10.2      0.000      0.000
  Name = 
  1 active torsions:
  status: ('A' for Active; 'I' for Inactive)
    1  A    between atoms: C_1  and  C_2
                            x       y       z     vdW  Elec       q    Type
                         _______ _______ _______ _____ _____    ______ ____

>  <TORSDO>
F 1

$$$$
=
 OpenBabel11052423013D

 28 32  0  0  1  0  0  0  0  0999 V2000
  161.1390  204.0010  149.0190 C   0  0  0  0  0  0  0  0  0  0  0  0
  161.8230  209.1900  148.6180 C   0  0  0  0  0  3  0  0  0  0  0  0
  161.1970  205.5060  153.7510 C   0  0  0  0  0  1  0  0  0  0  0  0
  161.8400  209.8420  150.9580 C   0  0  0  0  0  0  0  0  0  0  0  0
  161.5450  207.4480  150.4210 C   0  0  0  0  0  0  0  0  0  0  0  0
  162.1060  211.5170  149.2290 C   0  0  0  0  0  0  0  0  0  0  0  0
  161.7380  208.8420  149.9760 C   0  0  0  0  0  0  0  0  0  0  0  0
  161.5730  208.1800  152.7450 C   0  0  0  0  0  3  0  0  0  0  0  0
  162.0230  211.1750  150.5820 C   0  0  0  0  0  3  0  0  0  0  0  0
  161.1680  204.7480  151.3500 C   0  0  0  0  0  0  0  0  0  0  0  0
  161.4410  206.4450  149.5450 C   0  0  0  0  0  3  0  0  0  0  0  0
  161.7570  209.5030  152.3140 O   0  0  0  0  0  0  0  0  0  0  0  0
  160.8780  202.3940  150.8180 C   0  0  0  0  0  3  0  0  0  0  0  0
  161.2770  205.8080  152.3230 N   0  0  0  0  0  0  0  0  0  0  0  0
  160.9830  203.4180  151.7590 C   0  0  0  0  0  3  0  0  0  0  0  0
  162.2850  212.8100  148.8670 F   0  0  0  0  0  0  0  0  0  0  0  0
  162.0070  210.5260  148.2480 C   0  0  0  0  0  3  0  0  0  0  0  0
  161.4660  207.1650  151.8740 C   0  0  0  0  0  0  0  0  0  0  0  0
  160.9550  202.6870  149.4570 C   0  0  0  0  0  3  0  0  0  0  0  0
  161.2460  205.0430  149.9710 C   0  0  0  0  0  0  0  0  0  0  0  0
  161.2110  204.2280  147.5340 C   0  0  1  0  0  3  0  0  0  0  0  0
  160.5790  205.5670  147.1380 C   0  0  0  0  0  2  0  0  0  0  0  0
  161.7910  205.1760  144.9030 C   0  0  0  0  0  0  0  0  0  0  0  0
  162.6470  204.1120  147.0160 C   0  0  0  0  0  2  0  0  0  0  0  0
  159.9130  206.6110  145.0970 O   0  0  0  0  0  0  0  0  0  0  0  0
  160.7100  205.8190  145.6650 C   0  0  0  0  0  0  0  0  0  0  0  0
  161.9250  205.3930  143.6700 O   0  0  0  0  0  0  0  0  0  0  0  0
  162.6720  204.2660  145.5650 N   0  0  0  0  0  2  0  0  0  0  0  0
  1 19  2  0  0  0  0
  1 20  1  0  0  0  0
  2  7  1  0  0  0  0
  4 12  1  0  0  0  0
  5 18  1  0  0  0  0
  6  9  2  0  0  0  0
  7  5  1  0  0  0  0
  7  4  2  0  0  0  0
  9  4  1  0  0  0  0
 10 15  1  0  0  0  0
 10 14  1  0  0  0  0
 11 20  1  0  0  0  0
 11  5  2  0  0  0  0
 12  8  1  0  0  0  0
 13 15  2  0  0  0  0
 14  3  1  0  0  0  0
 16  6  1  0  0  0  0
 17  2  2  0  0  0  0
 17  6  1  0  0  0  0
 18 14  1  0  0  0  0
 18  8  2  0  0  0  0
 19 13  1  0  0  0  0
 20 10  2  0  0  0  0
 21  1  1  1  0  0  0
 22 21  1  0  0  0  0
 23 28  1  0  0  0  0
 23 26  1  0  0  0  0
 24 21  1  0  0  0  0
 25 26  2  0  0  0  0
 26 22  1  0  0  0  0
 27 23  2  0  0  0  0
 28 24  1  0  0  0  0
M  END
>  <MODEL>
2

>  <REMARK>
 VINA RESULT:      -9.5      2.766      6.190
  Name = 
  1 active torsions:
  status: ('A' for Active; 'I' for Inactive)
    1  A    between atoms: C_1  and  C_2
                            x       y       z     vdW  Elec       q    Type
                         _______ _______ _______ _____ _____    ______ ____

>  <TORSDO>
F 1

$$$$
=
 OpenBabel11052423013D

 28 32  0  0  1  0  0  0  0  0999 V2000
  161.3150  204.2210  149.6680 C   0  0  0  0  0  0  0  0  0  0  0  0
  161.8940  209.3600  148.7690 C   0  0  0  0  0  3  0  0  0  0  0  0
  160.9670  206.2120  154.2050 C   0  0  0  0  0  1  0  0  0  0  0  0
  161.7120  210.2520  151.0200 C   0  0  0  0  0  0  0  0  0  0  0  0
  161.5220  207.8060  150.7220 C   0  0  0  0  0  0  0  0  0  0  0  0
  162.0690  211.7460  149.1480 C   0  0  0  0  0  0  0  0  0  0  0  0
  161.7130  209.1520  150.1460 C   0  0  0  0  0  0  0  0  0  0  0  0
  161.3500  208.7770  152.9500 C   0  0  0  0  0  3  0  0  0  0  0  0
  161.8900  211.5440  150.5190 C   0  0  0  0  0  3  0  0  0  0  0  0
  161.1440  205.2070  151.9030 C   0  0  0  0  0  0  0  0  0  0  0  0
  161.5120  206.7140  149.9520 C   0  0  0  0  0  3  0  0  0  0  0  0
  161.5330  210.0530  152.3950 O   0  0  0  0  0  0  0  0  0  0  0  0
  160.9560  202.8020  151.6040 C   0  0  0  0  0  3  0  0  0  0  0  0
  161.1500  206.3650  152.7620 N   0  0  0  0  0  0  0  0  0  0  0  0
  160.9620  203.9210  152.4360 C   0  0  0  0  0  3  0  0  0  0  0  0
  162.2410  212.9990  148.6650 F   0  0  0  0  0  0  0  0  0  0  0  0
  162.0720  210.6550  148.2740 C   0  0  0  0  0  3  0  0  0  0  0  0
  161.3380  207.6740  152.1860 C   0  0  0  0  0  0  0  0  0  0  0  0
  161.1320  202.9530  150.2290 C   0  0  0  0  0  3  0  0  0  0  0  0
  161.3210  205.3590  150.5100 C   0  0  0  0  0  0  0  0  0  0  0  0
  161.4970  204.2930  148.1780 C   0  0  1  0  0  3  0  0  0  0  0  0
  160.9300  203.0520  147.4800 C   0  0  0  0  0  2  0  0  0  0  0  0
  161.1380  204.4780  145.3500 C   0  0  0  0  0  0  0  0  0  0  0  0
  160.9020  205.5800  147.5990 C   0  0  0  0  0  2  0  0  0  0  0  0
  161.0520  202.1090  145.2900 O   0  0  0  0  0  0  0  0  0  0  0  0
  161.0560  203.1560  145.9890 C   0  0  0  0  0  0  0  0  0  0  0  0
  161.2250  204.5820  144.0980 O   0  0  0  0  0  0  0  0  0  0  0  0
  161.1590  205.6530  146.1640 N   0  0  0  0  0  2  0  0  0  0  0  0
  1 19  2  0  0  0  0
  1 20  1  0  0  0  0
  2  7  1  0  0  0  0
  4 12  1  0  0  0  0
  5 18  1  0  0  0  0
  6  9  2  0  0  0  0
  7  5  1  0  0  0  0
  7  4  2  0  0  0  0
  9  4  1  0  0  0  0
 10 15  1  0  0  0  0
 10 14  1  0  0  0  0
 11 20  1  0  0  0  0
 11  5  2  0  0  0  0
 12  8  1  0  0  0  0
 13 15  2  0  0  0  0
 14  3  1  0  0  0  0
 16  6  1  0  0  0  0
 17  2  2  0  0  0  0
 17  6  1  0  0  0  0
 18 14  1  0  0  0  0
 18  8  2  0  0  0  0
 19 13  1  0  0  0  0
 20 10  2  0  0  0  0
 21  1  1  1  0  0  0
 22 21  1  0  0  0  0
 23 26  1  0  0  0  0
 23 28  1  0  0  0  0
 24 21  1  0  0  0  0
 25 26  2  0  0  0  0
 26 22  1  0  0  0  0
 27 23  2  0  0  0  0
 28 24  1  0  0  0  0
M  END
>  <MODEL>
3

>  <REMARK>
 VINA RESULT:      -9.4      2.561      6.554
  Name = 
  1 active torsions:
  status: ('A' for Active; 'I' for Inactive)
    1  A    between atoms: C_1  and  C_2
                            x       y       z     vdW  Elec       q    Type
                         _______ _______ _______ _____ _____    ______ ____

>  <TORSDO>
F 1

$$$$
=
 OpenBabel11052423013D

 28 32  0  0  1  0  0  0  0  0999 V2000
  161.4590  205.9690  151.6920 C   0  0  0  0  0  0  0  0  0  0  0  0
  161.6560  205.9900  146.4470 C   0  0  0  0  0  3  0  0  0  0  0  0
  160.5230  201.2390  150.5030 C   0  0  0  0  0  1  0  0  0  0  0  0
  161.1910  203.6580  145.9510 C   0  0  0  0  0  0  0  0  0  0  0  0
  161.2480  204.3530  148.3230 C   0  0  0  0  0  0  0  0  0  0  0  0
  161.5830  205.2270  144.1490 C   0  0  0  0  0  0  0  0  0  0  0  0
  161.3700  204.6890  146.8900 C   0  0  0  0  0  0  0  0  0  0  0  0
  160.7880  202.0310  147.7460 C   0  0  0  0  0  3  0  0  0  0  0  0
  161.2980  203.9310  144.5850 C   0  0  0  0  0  3  0  0  0  0  0  0
  160.9980  203.6380  151.1010 C   0  0  0  0  0  0  0  0  0  0  0  0
  161.4050  205.2810  149.2710 C   0  0  0  0  0  3  0  0  0  0  0  0
  160.9060  202.3580  146.3860 O   0  0  0  0  0  0  0  0  0  0  0  0
  161.0550  204.3260  153.4320 C   0  0  0  0  0  3  0  0  0  0  0  0
  160.8220  202.6130  150.1020 N   0  0  0  0  0  0  0  0  0  0  0  0
  160.8850  203.3340  152.4670 C   0  0  0  0  0  3  0  0  0  0  0  0
  161.6850  205.4880  142.8240 F   0  0  0  0  0  0  0  0  0  0  0  0
  161.7610  206.2560  145.0790 C   0  0  0  0  0  3  0  0  0  0  0  0
  160.9440  202.9540  148.7070 C   0  0  0  0  0  0  0  0  0  0  0  0
  161.3400  205.6340  153.0440 C   0  0  0  0  0  3  0  0  0  0  0  0
  161.2870  204.9640  150.7100 C   0  0  0  0  0  0  0  0  0  0  0  0
  161.7670  207.4030  151.3630 C   0  0  1  0  0  3  0  0  0  0  0  0
  161.6250  207.6790  149.8610 C   0  0  0  0  0  2  0  0  0  0  0  0
  161.6660  210.1480  150.5800 C   0  0  0  0  0  0  0  0  0  0  0  0
  160.9160  208.3680  152.1910 C   0  0  0  0  0  2  0  0  0  0  0  0
  162.2180  209.4540  148.3800 O   0  0  0  0  0  0  0  0  0  0  0  0
  161.8720  209.1240  149.5450 C   0  0  0  0  0  0  0  0  0  0  0  0
  161.8510  211.3670  150.3230 O   0  0  0  0  0  0  0  0  0  0  0  0
  161.2900  209.7480  151.9000 N   0  0  0  0  0  2  0  0  0  0  0  0
  1 19  1  0  0  0  0
  2  7  1  0  0  0  0
  4 12  1  0  0  0  0
  4  7  2  0  0  0  0
  5 18  1  0  0  0  0
  5 11  2  0  0  0  0
  6  9  2  0  0  0  0
  6 17  1  0  0  0  0
  7  5  1  0  0  0  0
  8 18  2  0  0  0  0
  9  4  1  0  0  0  0
 10 15  2  0  0  0  0
 11 20  1  0  0  0  0
 12  8  1  0  0  0  0
 14  3  1  0  0  0  0
 14 10  1  0  0  0  0
 15 13  1  0  0  0  0
 16  6  1  0  0  0  0
 17  2  2  0  0  0  0
 18 14  1  0  0  0  0
 19 13  2  0  0  0  0
 20 10  1  0  0  0  0
 20  1  2  0  0  0  0
 21  1  1  6  0  0  0
 21 24  1  0  0  0  0
 22 21  1  0  0  0  0
 23 28  1  0  0  0  0
 25 26  2  0  0  0  0
 26 22  1  0  0  0  0
 26 23  1  0  0  0  0
 27 23  2  0  0  0  0
 28 24  1  0  0  0  0
M  END
>  <MODEL>
4

>  <REMARK>
 VINA RESULT:      -9.1      1.249      1.774
  Name = 
  1 active torsions:
  status: ('A' for Active; 'I' for Inactive)
    1  A    between atoms: C_1  and  C_2
                            x       y       z     vdW  Elec       q    Type
                         _______ _______ _______ _____ _____    ______ ____

>  <TORSDO>
F 1

$$$$
=
 OpenBabel11052423013D

 28 32  0  0  1  0  0  0  0  0999 V2000
  160.7520  210.7820  152.2820 C   0  0  0  0  0  0  0  0  0  0  0  0
  161.0160  206.4010  149.4020 C   0  0  0  0  0  3  0  0  0  0  0  0
  160.9280  207.1850  155.7020 C   0  0  0  0  0  1  0  0  0  0  0  0
  161.0980  204.7040  151.1380 C   0  0  0  0  0  0  0  0  0  0  0  0
  160.9610  207.0720  151.8340 C   0  0  0  0  0  0  0  0  0  0  0  0
  161.1510  204.0580  148.8050 C   0  0  0  0  0  0  0  0  0  0  0  0
  161.0250  206.0570  150.7630 C   0  0  0  0  0  0  0  0  0  0  0  0
  161.0480  205.3120  153.5160 C   0  0  0  0  0  3  0  0  0  0  0  0
  161.1600  203.7100  150.1580 C   0  0  0  0  0  3  0  0  0  0  0  0
  160.8390  209.0060  153.9650 C   0  0  0  0  0  0  0  0  0  0  0  0
  160.8900  208.3760  151.5530 C   0  0  0  0  0  3  0  0  0  0  0  0
  161.1080  204.3530  152.4930 O   0  0  0  0  0  0  0  0  0  0  0  0
  160.7050  211.3350  154.6440 C   0  0  0  0  0  3  0  0  0  0  0  0
  160.9150  207.6050  154.3020 N   0  0  0  0  0  0  0  0  0  0  0  0
  160.7780  209.9820  154.9710 C   0  0  0  0  0  3  0  0  0  0  0  0
  161.2110  203.0920  147.8570 F   0  0  0  0  0  0  0  0  0  0  0  0
  161.0780  205.4020  148.4270 C   0  0  0  0  0  3  0  0  0  0  0  0
  160.9770  206.6250  153.2460 C   0  0  0  0  0  0  0  0  0  0  0  0
  160.6920  211.7310  153.3070 C   0  0  0  0  0  3  0  0  0  0  0  0
  160.8260  209.4070  152.6100 C   0  0  0  0  0  0  0  0  0  0  0  0
  160.7320  211.2940  150.8690 C   0  0  1  0  0  3  0  0  0  0  0  0
  160.4330  212.7970  150.8190 C   0  0  0  0  0  2  0  0  0  0  0  0
  161.2730  212.6150  148.3950 C   0  0  0  0  0  0  0  0  0  0  0  0
  162.0290  210.9580  150.1290 C   0  0  0  0  0  2  0  0  0  0  0  0
  159.8610  214.3770  149.1220 O   0  0  0  0  0  0  0  0  0  0  0  0
  160.4770  213.3180  149.4130 C   0  0  0  0  0  0  0  0  0  0  0  0
  161.3340  213.0510  147.2140 O   0  0  0  0  0  0  0  0  0  0  0  0
  161.9490  211.4050  148.7420 N   0  0  0  0  0  2  0  0  0  0  0  0
  1 20  2  0  0  0  0
  1 19  1  0  0  0  0
  2  7  1  0  0  0  0
  4 12  1  0  0  0  0
  5 18  1  0  0  0  0
  6  9  2  0  0  0  0
  7  4  2  0  0  0  0
  7  5  1  0  0  0  0
  9  4  1  0  0  0  0
 10 14  1  0  0  0  0
 10 15  2  0  0  0  0
 11  5  2  0  0  0  0
 11 20  1  0  0  0  0
 12  8  1  0  0  0  0
 13 15  1  0  0  0  0
 14  3  1  0  0  0  0
 16  6  1  0  0  0  0
 17  6  1  0  0  0  0
 17  2  2  0  0  0  0
 18  8  2  0  0  0  0
 18 14  1  0  0  0  0
 19 13  2  0  0  0  0
 20 10  1  0  0  0  0
 21  1  1  1  0  0  0
 22 21  1  0  0  0  0
 23 28  1  0  0  0  0
 23 26  1  0  0  0  0
 24 21  1  0  0  0  0
 25 26  2  0  0  0  0
 26 22  1  0  0  0  0
 27 23  2  0  0  0  0
 28 24  1  0  0  0  0
M  END
>  <MODEL>
5

>  <REMARK>
 VINA RESULT:      -8.9      2.448      4.166
  Name = 
  1 active torsions:
  status: ('A' for Active; 'I' for Inactive)
    1  A    between atoms: C_1  and  C_2
                            x       y       z     vdW  Elec       q    Type
                         _______ _______ _______ _____ _____    ______ ____

>  <TORSDO>
F 1

$$$$
=
 OpenBabel11052423013D

 28 32  0  0  1  0  0  0  0  0999 V2000
  161.2790  205.5270  148.7490 C   0  0  0  0  0  0  0  0  0  0  0  0
  160.6220  206.6180  153.8410 C   0  0  0  0  0  3  0  0  0  0  0  0
  162.2730  210.3870  149.0050 C   0  0  0  0  0  1  0  0  0  0  0  0
  161.1230  208.9950  153.8790 C   0  0  0  0  0  0  0  0  0  0  0  0
  161.2500  207.8150  151.7110 C   0  0  0  0  0  0  0  0  0  0  0  0
  160.5210  207.8480  155.9260 C   0  0  0  0  0  0  0  0  0  0  0  0
  160.9910  207.7920  153.1640 C   0  0  0  0  0  0  0  0  0  0  0  0
  161.7390  210.1990  151.8300 C   0  0  0  0  0  3  0  0  0  0  0  0
  160.8880  209.0190  155.2560 C   0  0  0  0  0  3  0  0  0  0  0  0
  161.7680  207.9230  148.8800 C   0  0  0  0  0  0  0  0  0  0  0  0
  161.1430  206.7110  150.9670 C   0  0  0  0  0  3  0  0  0  0  0  0
  161.4910  210.1690  153.2110 O   0  0  0  0  0  0  0  0  0  0  0  0
  161.8920  206.7590  146.7500 C   0  0  0  0  0  3  0  0  0  0  0  0
  161.8910  209.1330  149.6550 N   0  0  0  0  0  0  0  0  0  0  0  0
  162.0120  207.9290  147.4980 C   0  0  0  0  0  3  0  0  0  0  0  0
  160.2930  207.8750  157.2610 F   0  0  0  0  0  0  0  0  0  0  0  0
  160.3870  206.6490  155.2190 C   0  0  0  0  0  3  0  0  0  0  0  0
  161.6360  209.0960  151.0730 C   0  0  0  0  0  0  0  0  0  0  0  0
  161.5280  205.5660  147.3740 C   0  0  0  0  0  3  0  0  0  0  0  0
  161.3990  206.7140  149.5110 C   0  0  0  0  0  0  0  0  0  0  0  0
  160.8910  204.2010  149.3410 C   0  0  1  0  0  3  0  0  0  0  0  0
  161.2270  203.0420  148.3940 C   0  0  0  0  0  2  0  0  0  0  0  0
  160.8540  201.5810  150.4770 C   0  0  0  0  0  0  0  0  0  0  0  0
  161.5190  203.9940  150.7210 C   0  0  0  0  0  2  0  0  0  0  0  0
  160.6980  200.7180  148.2730 O   0  0  0  0  0  0  0  0  0  0  0  0
  160.8980  201.7160  149.0130 C   0  0  0  0  0  0  0  0  0  0  0  0
  160.5970  200.4690  151.0110 O   0  0  0  0  0  0  0  0  0  0  0  0
  161.0660  202.7320  151.2970 N   0  0  0  0  0  2  0  0  0  0  0  0
  1 20  1  0  0  0  0
  2 17  1  0  0  0  0
  3 14  1  0  0  0  0
  4  9  2  0  0  0  0
  5  7  1  0  0  0  0
  6 16  1  0  0  0  0
  7  2  2  0  0  0  0
  7  4  1  0  0  0  0
  8 12  1  0  0  0  0
  9  6  1  0  0  0  0
 10 20  2  0  0  0  0
 10 14  1  0  0  0  0
 11  5  2  0  0  0  0
 12  4  1  0  0  0  0
 13 19  1  0  0  0  0
 13 15  2  0  0  0  0
 14 18  1  0  0  0  0
 15 10  1  0  0  0  0
 17  6  2  0  0  0  0
 18  5  1  0  0  0  0
 18  8  2  0  0  0  0
 19  1  2  0  0  0  0
 20 11  1  0  0  0  0
 21  1  1  6  0  0  0
 21 24  1  0  0  0  0
 22 26  1  0  0  0  0
 22 21  1  0  0  0  0
 23 27  2  0  0  0  0
 23 28  1  0  0  0  0
 24 28  1  0  0  0  0
 25 26  2  0  0  0  0
 26 23  1  0  0  0  0
M  END
>  <MODEL>
6

>  <REMARK>
 VINA RESULT:      -8.9      3.167      8.168
  Name = 
  1 active torsions:
  status: ('A' for Active; 'I' for Inactive)
    1  A    between atoms: C_1  and  C_2
                            x       y       z     vdW  Elec       q    Type
                         _______ _______ _______ _____ _____    ______ ____

>  <TORSDO>
F 1

$$$$
=
 OpenBabel11052423013D

 28 32  0  0  1  0  0  0  0  0999 V2000
  161.1960  209.9020  151.4350 C   0  0  0  0  0  0  0  0  0  0  0  0
  161.3410  206.5930  147.3630 C   0  0  0  0  0  3  0  0  0  0  0  0
  161.2060  205.4340  153.6040 C   0  0  0  0  0  1  0  0  0  0  0  0
  161.3430  204.4480  148.5030 C   0  0  0  0  0  0  0  0  0  0  0  0
  161.2810  206.4970  149.8840 C   0  0  0  0  0  0  0  0  0  0  0  0
  161.4010  204.5370  146.0830 C   0  0  0  0  0  0  0  0  0  0  0  0
  161.3220  205.8520  148.5560 C   0  0  0  0  0  0  0  0  0  0  0  0
  161.2860  204.3090  150.9530 C   0  0  0  0  0  3  0  0  0  0  0  0
  161.3830  203.7960  147.2680 C   0  0  0  0  0  3  0  0  0  0  0  0
  161.2010  207.6980  152.5000 C   0  0  0  0  0  0  0  0  0  0  0  0
  161.2590  207.8270  150.0110 C   0  0  0  0  0  3  0  0  0  0  0  0
  161.3250  203.7030  149.6880 O   0  0  0  0  0  0  0  0  0  0  0  0
  161.1400  209.7150  153.8540 C   0  0  0  0  0  3  0  0  0  0  0  0
  161.2240  206.2590  152.3970 N   0  0  0  0  0  0  0  0  0  0  0  0
  161.1620  208.3240  153.7550 C   0  0  0  0  0  3  0  0  0  0  0  0
  161.4390  203.9020  144.8880 F   0  0  0  0  0  0  0  0  0  0  0  0
  161.3800  205.9340  146.1310 C   0  0  0  0  0  3  0  0  0  0  0  0
  161.2640  205.6430  151.0940 C   0  0  0  0  0  0  0  0  0  0  0  0
  161.1570  210.4970  152.7000 C   0  0  0  0  0  3  0  0  0  0  0  0
  161.2180  208.4900  151.3310 C   0  0  0  0  0  0  0  0  0  0  0  0
  161.2110  210.8190  150.2440 C   0  0  1  0  0  3  0  0  0  0  0  0
  160.7370  212.2290  150.6120 C   0  0  0  0  0  2  0  0  0  0  0  0
  161.7560  212.8790  148.3420 C   0  0  0  0  0  0  0  0  0  0  0  0
  162.5870  210.8500  149.5730 C   0  0  0  0  0  2  0  0  0  0  0  0
  160.0960  214.1910  149.4130 O   0  0  0  0  0  0  0  0  0  0  0  0
  160.8140  213.1570  149.4360 C   0  0  0  0  0  0  0  0  0  0  0  0
  161.8450  213.6600  147.3580 O   0  0  0  0  0  0  0  0  0  0  0  0
  162.5480  211.6900  148.3820 N   0  0  0  0  0  2  0  0  0  0  0  0
  1 19  1  0  0  0  0
  2  7  1  0  0  0  0
  4  7  2  0  0  0  0
  4 12  1  0  0  0  0
  5 11  2  0  0  0  0
  5 18  1  0  0  0  0
  6 17  1  0  0  0  0
  6  9  2  0  0  0  0
  7  5  1  0  0  0  0
  8 18  2  0  0  0  0
  9  4  1  0  0  0  0
 10 15  2  0  0  0  0
 11 20  1  0  0  0  0
 12  8  1  0  0  0  0
 14 10  1  0  0  0  0
 14  3  1  0  0  0  0
 15 13  1  0  0  0  0
 16  6  1  0  0  0  0
 17  2  2  0  0  0  0
 18 14  1  0  0  0  0
 19 13  2  0  0  0  0
 20  1  2  0  0  0  0
 20 10  1  0  0  0  0
 21 22  1  0  0  0  0
 21  1  1  1  0  0  0
 23 28  1  0  0  0  0
 23 26  1  0  0  0  0
 24 21  1  0  0  0  0
 25 26  2  0  0  0  0
 26 22  1  0  0  0  0
 27 23  2  0  0  0  0
 28 24  1  0  0  0  0
M  END
>  <MODEL>
7

>  <REMARK>
 VINA RESULT:      -8.8      1.562      2.603
  Name = 
  1 active torsions:
  status: ('A' for Active; 'I' for Inactive)
    1  A    between atoms: C_1  and  C_2
                            x       y       z     vdW  Elec       q    Type
                         _______ _______ _______ _____ _____    ______ ____

>  <TORSDO>
F 1

$$$$
=
 OpenBabel11052423013D

 28 32  0  0  1  0  0  0  0  0999 V2000
  159.9210  211.5010  153.0130 C   0  0  0  0  0  0  0  0  0  0  0  0
  160.6540  207.3040  149.9470 C   0  0  0  0  0  3  0  0  0  0  0  0
  161.3250  207.9830  156.2250 C   0  0  0  0  0  1  0  0  0  0  0  0
  161.3330  205.6420  151.5840 C   0  0  0  0  0  0  0  0  0  0  0  0
  160.8170  207.9210  152.3880 C   0  0  0  0  0  0  0  0  0  0  0  0
  161.1770  205.0460  149.2410 C   0  0  0  0  0  0  0  0  0  0  0  0
  160.9320  206.9540  151.2790 C   0  0  0  0  0  0  0  0  0  0  0  0
  161.5050  206.2000  153.9680 C   0  0  0  0  0  3  0  0  0  0  0  0
  161.4540  204.6930  150.5650 C   0  0  0  0  0  3  0  0  0  0  0  0
  160.6130  209.7640  154.5920 C   0  0  0  0  0  0  0  0  0  0  0  0
  160.4410  209.1850  152.1740 C   0  0  0  0  0  3  0  0  0  0  0  0
  161.6110  205.2860  152.9090 O   0  0  0  0  0  0  0  0  0  0  0  0
  160.1070  212.0070  155.3790 C   0  0  0  0  0  3  0  0  0  0  0  0
  161.0220  208.4060  154.8580 N   0  0  0  0  0  0  0  0  0  0  0  0
  160.5020  210.6950  155.6370 C   0  0  0  0  0  3  0  0  0  0  0  0
  161.2950  204.1240  148.2560 F   0  0  0  0  0  0  0  0  0  0  0  0
  160.7760  206.3500  148.9330 C   0  0  0  0  0  3  0  0  0  0  0  0
  161.1290  207.4710  153.7650 C   0  0  0  0  0  0  0  0  0  0  0  0
  159.8190  212.4050  154.0740 C   0  0  0  0  0  3  0  0  0  0  0  0
  160.3220  210.1680  153.2710 C   0  0  0  0  0  0  0  0  0  0  0  0
  159.5930  212.0140  151.6380 C   0  0  1  0  0  3  0  0  0  0  0  0
  158.3020  212.8420  151.6400 C   0  0  0  0  0  2  0  0  0  0  0  0
  159.1070  213.6140  149.3230 C   0  0  0  0  0  0  0  0  0  0  0  0
  160.7590  212.8000  151.0350 C   0  0  0  0  0  2  0  0  0  0  0  0
  156.8320  213.7300  149.9820 O   0  0  0  0  0  0  0  0  0  0  0  0
  158.0110  213.4040  150.2800 C   0  0  0  0  0  0  0  0  0  0  0  0
  158.8800  214.1030  148.1840 O   0  0  0  0  0  0  0  0  0  0  0  0
  160.4350  213.2200  149.6760 N   0  0  0  0  0  2  0  0  0  0  0  0
  1 20  2  0  0  0  0
  1 19  1  0  0  0  0
  2  7  1  0  0  0  0
  4 12  1  0  0  0  0
  5 18  1  0  0  0  0
  6  9  2  0  0  0  0
  7  4  2  0  0  0  0
  7  5  1  0  0  0  0
  9  4  1  0  0  0  0
 10 14  1  0  0  0  0
 10 15  2  0  0  0  0
 11  5  2  0  0  0  0
 11 20  1  0  0  0  0
 12  8  1  0  0  0  0
 13 15  1  0  0  0  0
 14  3  1  0  0  0  0
 16  6  1  0  0  0  0
 17  6  1  0  0  0  0
 17  2  2  0  0  0  0
 18  8  2  0  0  0  0
 18 14  1  0  0  0  0
 19 13  2  0  0  0  0
 20 10  1  0  0  0  0
 21 22  1  0  0  0  0
 21  1  1  1  0  0  0
 23 28  1  0  0  0  0
 23 26  1  0  0  0  0
 24 21  1  0  0  0  0
 25 26  2  0  0  0  0
 26 22  1  0  0  0  0
 27 23  2  0  0  0  0
 28 24  1  0  0  0  0
M  END
>  <MODEL>
8

>  <REMARK>
 VINA RESULT:      -8.3      2.977      4.984
  Name = 
  1 active torsions:
  status: ('A' for Active; 'I' for Inactive)
    1  A    between atoms: C_1  and  C_2
                            x       y       z     vdW  Elec       q    Type
                         _______ _______ _______ _____ _____    ______ ____

>  <TORSDO>
F 1

$$$$
=
 OpenBabel11052423013D

 28 32  0  0  1  0  0  0  0  0999 V2000
  161.5620  208.9480  152.3200 C   0  0  0  0  0  0  0  0  0  0  0  0
  160.9370  203.8030  151.4890 C   0  0  0  0  0  3  0  0  0  0  0  0
  161.9710  208.5370  147.3870 C   0  0  0  0  0  1  0  0  0  0  0  0
  161.1500  203.6890  149.0730 C   0  0  0  0  0  0  0  0  0  0  0  0
  161.3510  205.9030  150.1540 C   0  0  0  0  0  0  0  0  0  0  0  0
  160.7530  201.6720  150.3520 C   0  0  0  0  0  0  0  0  0  0  0  0
  161.1410  204.4450  150.2580 C   0  0  0  0  0  0  0  0  0  0  0  0
  161.5520  205.7080  147.7340 C   0  0  0  0  0  3  0  0  0  0  0  0
  160.9560  202.3070  149.1240 C   0  0  0  0  0  3  0  0  0  0  0  0
  161.7630  208.7410  149.8880 C   0  0  0  0  0  0  0  0  0  0  0  0
  161.3550  206.6850  151.2370 C   0  0  0  0  0  3  0  0  0  0  0  0
  161.3530  204.3230  147.8400 O   0  0  0  0  0  0  0  0  0  0  0  0
  161.9590  210.9160  150.9560 C   0  0  0  0  0  3  0  0  0  0  0  0
  161.7640  207.9250  148.6990 N   0  0  0  0  0  0  0  0  0  0  0  0
  161.9600  210.1280  149.8050 C   0  0  0  0  0  3  0  0  0  0  0  0
  160.5660  200.3320  150.3990 F   0  0  0  0  0  0  0  0  0  0  0  0
  160.7440  202.4190  151.5340 C   0  0  0  0  0  3  0  0  0  0  0  0
  161.5580  206.5030  148.8150 C   0  0  0  0  0  0  0  0  0  0  0  0
  161.7610  210.3270  152.2040 C   0  0  0  0  0  3  0  0  0  0  0  0
  161.5630  208.1450  151.1540 C   0  0  0  0  0  0  0  0  0  0  0  0
  161.3570  208.3960  153.7030 C   0  0  1  0  0  3  0  0  0  0  0  0
  160.5690  209.3700  154.5860 C   0  0  0  0  0  2  0  0  0  0  0  0
  160.2900  207.3320  156.1290 C   0  0  0  0  0  0  0  0  0  0  0  0
  160.6960  207.0160  153.6670 C   0  0  0  0  0  2  0  0  0  0  0  0
  160.0760  209.5590  156.9150 O   0  0  0  0  0  0  0  0  0  0  0  0
  160.3110  208.7910  155.9460 C   0  0  0  0  0  0  0  0  0  0  0  0
  160.0560  206.8300  157.2610 O   0  0  0  0  0  0  0  0  0  0  0  0
  160.5770  206.4790  155.0190 N   0  0  0  0  0  2  0  0  0  0  0  0
  2 17  1  0  0  0  0
  3 14  1  0  0  0  0
  4  9  2  0  0  0  0
  4  7  1  0  0  0  0
  5  7  1  0  0  0  0
  5 11  2  0  0  0  0
  6 16  1  0  0  0  0
  6 17  2  0  0  0  0
  7  2  2  0  0  0  0
  8 12  1  0  0  0  0
  8 18  2  0  0  0  0
  9  6  1  0  0  0  0
 10 20  1  0  0  0  0
 12  4  1  0  0  0  0
 13 19  2  0  0  0  0
 14 18  1  0  0  0  0
 14 10  1  0  0  0  0
 15 10  2  0  0  0  0
 15 13  1  0  0  0  0
 18  5  1  0  0  0  0
 19  1  1  0  0  0  0
 20 11  1  0  0  0  0
 20  1  2  0  0  0  0
 21  1  1  6  0  0  0
 21 22  1  0  0  0  0
 22 26  1  0  0  0  0
 23 27  2  0  0  0  0
 24 21  1  0  0  0  0
 24 28  1  0  0  0  0
 26 23  1  0  0  0  0
 26 25  2  0  0  0  0
 28 23  1  0  0  0  0
M  END
>  <MODEL>
9

>  <REMARK>
 VINA RESULT:      -7.4      2.960      5.073
  Name = 
  1 active torsions:
  status: ('A' for Active; 'I' for Inactive)
    1  A    between atoms: C_1  and  C_2
                            x       y       z     vdW  Elec       q    Type
                         _______ _______ _______ _____ _____    ______ ____

>  <TORSDO>
F 1

$$$$
