=
 OpenBabel11052422483D

 28 29  0  0  1  0  0  0  0  0999 V2000
  161.2730  204.4840  149.9310 C   0  0  2  0  0  3  0  0  0  0  0  0
  161.3570  207.1850  154.0960 O   0  0  0  0  0  1  0  0  0  0  0  0
  161.6480  208.3040  150.4150 C   0  0  0  0  0  2  0  0  0  0  0  0
  161.4180  205.9250  152.0900 C   0  0  0  0  0  0  0  0  0  0  0  0
  160.9850  207.0440  149.8810 C   0  0  0  0  0  2  0  0  0  0  0  0
  161.0460  203.4010  152.1160 C   0  0  0  0  0  2  0  0  0  0  0  0
  161.4410  207.1220  152.7070 C   0  0  0  0  0  0  0  0  0  0  0  0
  161.1200  204.6960  152.9170 C   0  0  0  0  0  2  0  0  0  0  0  0
  161.5020  208.4280  151.9380 C   0  0  2  0  0  3  0  0  0  0  0  0
  160.3520  203.6350  150.7900 C   0  0  0  0  0  2  0  0  0  0  0  0
  161.6120  205.8460  150.5810 C   0  0  2  0  0  3  0  0  0  0  0  0
  160.7400  204.6260  148.6370 O   0  0  0  0  0  0  0  0  0  0  0  0
  161.7140  204.2610  147.6760 C   0  0  1  0  0  3  0  0  0  0  0  0
  161.0780  202.9210  145.5990 C   0  0  0  0  0  1  0  0  0  0  0  0
  161.5220  202.8630  147.0500 C   0  0  2  0  0  3  0  0  0  0  0  0
  161.2930  200.8570  148.5190 C   0  0  0  0  0  1  0  0  0  0  0  0
  160.5580  202.0070  147.8570 C   0  0  0  0  0  2  0  0  0  0  0  0
  162.0690  205.3700  146.6800 C   0  0  0  0  0  2  0  0  0  0  0  0
  160.8720  206.2700  146.4420 C   0  0  0  0  0  1  0  0  0  0  0  0
  160.4060  209.4290  152.3260 C   0  0  0  0  0  2  0  0  0  0  0  0
  160.9090  210.8160  152.7450 C   0  0  0  0  0  2  0  0  0  0  0  0
  162.0840  210.5720  154.8390 C   0  0  0  0  0  3  0  0  0  0  0  0
  160.9680  210.9940  154.2260 C   0  0  0  0  0  0  0  0  0  0  0  0
  158.7300  211.0280  155.3270 C   0  0  0  0  0  2  0  0  0  0  0  0
  159.8160  211.6520  154.8880 C   0  0  0  0  0  3  0  0  0  0  0  0
  162.3860  210.6870  156.2980 C   0  0  0  0  0  2  0  0  0  0  0  0
  162.3710  209.3150  156.9410 C   0  0  0  0  0  2  0  0  0  0  0  0
  161.0600  208.8470  157.0080 O   0  0  0  0  0  1  0  0  0  0  0  0
  1 12  1  6  0  0  0
  1 11  1  0  0  0  0
  1 10  1  0  0  0  0
  3  9  1  0  0  0  0
  4  7  2  0  0  0  0
  4  8  1  0  0  0  0
  5  3  1  0  0  0  0
  6  8  1  0  0  0  0
  7  2  1  0  0  0  0
  9 20  1  6  0  0  0
  9  7  1  0  0  0  0
 10  6  1  0  0  0  0
 11  5  1  6  0  0  0
 11  4  1  0  0  0  0
 13 18  1  6  0  0  0
 13 12  1  0  0  0  0
 15 14  1  6  0  0  0
 15 13  1  0  0  0  0
 15 17  1  0  0  0  0
 17 16  1  0  0  0  0
 19 18  1  0  0  0  0
 20 21  1  0  0  0  0
 21 23  1  0  0  0  0
 22 26  1  0  0  0  0
 23 22  2  0  0  0  0
 23 25  1  0  0  0  0
 25 24  2  0  0  0  0
 26 27  1  0  0  0  0
 27 28  1  0  0  0  0
M  END
>  <MODEL>
1

>  <REMARK>
 VINA RESULT:      -7.9      0.000      0.000
  Name = 
  11 active torsions:
  status: ('A' for Active; 'I' for Inactive)
    1  A    between atoms: C_1  and  O_2
    2  A    between atoms: O_2  and  C_3
    3  A    between atoms: C_3  and  C_7
    4  A    between atoms: C_3  and  C_11
    5  A    between atoms: C_4  and  C_24
    6  A    between atoms: C_11  and  C_22
    7  A    between atoms: C_12  and  C_24
    8  A    between atoms: C_13  and  C_15
    9  A    between atoms: C_13  and  C_18
   10  A    between atoms: C_14  and  C_18
   11  A    between atoms: C_14  and  C_25
                            x       y       z     vdW  Elec       q    Type
                         _______ _______ _______ _____ _____    ______ ____

>  <TORSDO>
F 11

$$$$
=
 OpenBabel11052422483D

 28 29  0  0  1  0  0  0  0  0999 V2000
  161.3860  204.6220  149.9290 C   0  0  2  0  0  3  0  0  0  0  0  0
  161.2210  207.2220  154.1550 O   0  0  0  0  0  1  0  0  0  0  0  0
  161.7230  208.4300  150.5260 C   0  0  0  0  0  2  0  0  0  0  0  0
  161.4010  206.0110  152.1260 C   0  0  0  0  0  0  0  0  0  0  0  0
  161.0960  207.1830  149.9240 C   0  0  0  0  0  2  0  0  0  0  0  0
  161.0340  203.4860  152.0700 C   0  0  0  0  0  2  0  0  0  0  0  0
  161.3850  207.1920  152.7720 C   0  0  0  0  0  0  0  0  0  0  0  0
  161.0580  204.7620  152.9050 C   0  0  0  0  0  2  0  0  0  0  0  0
  161.4890  208.5170  152.0390 C   0  0  2  0  0  3  0  0  0  0  0  0
  160.4170  203.7520  150.7120 C   0  0  0  0  0  2  0  0  0  0  0  0
  161.6830  205.9680  150.6300 C   0  0  2  0  0  3  0  0  0  0  0  0
  160.9290  204.7950  148.6090 O   0  0  0  0  0  0  0  0  0  0  0  0
  161.6340  203.9260  147.7410 C   0  0  1  0  0  3  0  0  0  0  0  0
  161.1060  201.4360  147.9180 C   0  0  0  0  0  1  0  0  0  0  0  0
  160.8120  202.7400  147.1950 C   0  0  2  0  0  3  0  0  0  0  0  0
  160.1030  201.4530  145.1780 C   0  0  0  0  0  1  0  0  0  0  0  0
  161.0000  202.5600  145.6970 C   0  0  0  0  0  2  0  0  0  0  0  0
  162.5060  204.6400  146.7030 C   0  0  0  0  0  2  0  0  0  0  0  0
  162.0480  206.0740  146.5230 C   0  0  0  0  0  1  0  0  0  0  0  0
  160.3700  209.5080  152.3870 C   0  0  0  0  0  2  0  0  0  0  0  0
  160.8240  210.7670  153.1330 C   0  0  0  0  0  2  0  0  0  0  0  0
  159.0600  211.1690  154.7310 C   0  0  0  0  0  3  0  0  0  0  0  0
  160.3420  210.8180  154.5450 C   0  0  0  0  0  0  0  0  0  0  0  0
  162.6110  210.6200  155.5610 C   0  0  0  0  0  2  0  0  0  0  0  0
  161.2970  210.4410  155.6140 C   0  0  0  0  0  3  0  0  0  0  0  0
  158.3480  211.2440  156.0420 C   0  0  0  0  0  2  0  0  0  0  0  0
  156.9070  211.6630  155.8270 C   0  0  0  0  0  2  0  0  0  0  0  0
  156.4350  211.1090  154.6380 O   0  0  0  0  0  1  0  0  0  0  0  0
  1 12  1  6  0  0  0
  1 11  1  0  0  0  0
  1 10  1  0  0  0  0
  3  9  1  0  0  0  0
  4  7  2  0  0  0  0
  4  8  1  0  0  0  0
  5  3  1  0  0  0  0
  6  8  1  0  0  0  0
  7  2  1  0  0  0  0
  9 20  1  6  0  0  0
  9  7  1  0  0  0  0
 10  6  1  0  0  0  0
 11  5  1  6  0  0  0
 11  4  1  0  0  0  0
 13 18  1  6  0  0  0
 13 12  1  0  0  0  0
 15 13  1  0  0  0  0
 15 14  1  1  0  0  0
 16 17  1  0  0  0  0
 17 15  1  0  0  0  0
 19 18  1  0  0  0  0
 20 21  1  0  0  0  0
 21 23  1  0  0  0  0
 22 26  1  0  0  0  0
 23 22  2  0  0  0  0
 23 25  1  0  0  0  0
 24 25  2  0  0  0  0
 27 26  1  0  0  0  0
 28 27  1  0  0  0  0
M  END
>  <MODEL>
2

>  <REMARK>
 VINA RESULT:      -7.9      1.283      2.267
  Name = 
  11 active torsions:
  status: ('A' for Active; 'I' for Inactive)
    1  A    between atoms: C_1  and  O_2
    2  A    between atoms: O_2  and  C_3
    3  A    between atoms: C_3  and  C_7
    4  A    between atoms: C_3  and  C_11
    5  A    between atoms: C_4  and  C_24
    6  A    between atoms: C_11  and  C_22
    7  A    between atoms: C_12  and  C_24
    8  A    between atoms: C_13  and  C_15
    9  A    between atoms: C_13  and  C_18
   10  A    between atoms: C_14  and  C_18
   11  A    between atoms: C_14  and  C_25
                            x       y       z     vdW  Elec       q    Type
                         _______ _______ _______ _____ _____    ______ ____

>  <TORSDO>
F 11

$$$$
=
 OpenBabel11052422483D

 28 29  0  0  1  0  0  0  0  0999 V2000
  161.4440  204.1690  147.6890 C   0  0  2  0  0  3  0  0  0  0  0  0
  161.5720  208.5980  149.9280 O   0  0  0  0  0  1  0  0  0  0  0  0
  160.5470  205.1510  151.3220 C   0  0  0  0  0  2  0  0  0  0  0  0
  161.4050  206.4840  148.8720 C   0  0  0  0  0  0  0  0  0  0  0  0
  161.3110  204.3860  150.2540 C   0  0  0  0  0  2  0  0  0  0  0  0
  162.1720  206.1580  146.4600 C   0  0  0  0  0  2  0  0  0  0  0  0
  161.2880  207.2360  149.9830 C   0  0  0  0  0  0  0  0  0  0  0  0
  162.0180  207.1100  147.6410 C   0  0  0  0  0  2  0  0  0  0  0  0
  160.9020  206.6430  151.3250 C   0  0  2  0  0  3  0  0  0  0  0  0
  162.6090  204.7880  146.9370 C   0  0  0  0  0  2  0  0  0  0  0  0
  160.9970  205.0160  148.9030 C   0  0  2  0  0  3  0  0  0  0  0  0
  161.7430  202.8400  148.0440 O   0  0  0  0  0  0  0  0  0  0  0  0
  160.7250  201.9780  147.5690 C   0  0  1  0  0  3  0  0  0  0  0  0
  160.0450  201.2000  145.2350 C   0  0  0  0  0  1  0  0  0  0  0  0
  161.1030  201.1460  146.3250 C   0  0  2  0  0  3  0  0  0  0  0  0
  161.2110  198.8010  145.4750 C   0  0  0  0  0  1  0  0  0  0  0  0
  161.4130  199.7000  146.6800 C   0  0  0  0  0  2  0  0  0  0  0  0
  159.9890  201.2020  148.6660 C   0  0  0  0  0  2  0  0  0  0  0  0
  160.8630  201.0680  149.8970 C   0  0  0  0  0  1  0  0  0  0  0  0
  161.8720  206.9960  152.4610 C   0  0  0  0  0  2  0  0  0  0  0  0
  161.4140  206.5750  153.8620 C   0  0  0  0  0  2  0  0  0  0  0  0
  161.0470  208.9360  154.2050 C   0  0  0  0  0  3  0  0  0  0  0  0
  160.7900  207.6900  154.6330 C   0  0  0  0  0  0  0  0  0  0  0  0
  160.3380  207.0520  157.0020 C   0  0  0  0  0  2  0  0  0  0  0  0
  159.9150  207.3340  155.7760 C   0  0  0  0  0  3  0  0  0  0  0  0
  160.4990  210.1980  154.7870 C   0  0  0  0  0  2  0  0  0  0  0  0
  159.6090  210.8930  153.7760 C   0  0  0  0  0  2  0  0  0  0  0  0
  160.3760  211.7610  153.0010 O   0  0  0  0  0  1  0  0  0  0  0  0
  1 12  1  1  0  0  0
  1 11  1  0  0  0  0
  2  7  1  0  0  0  0
  3  9  1  0  0  0  0
  4 11  1  0  0  0  0
  4  7  2  0  0  0  0
  5  3  1  0  0  0  0
  6 10  1  0  0  0  0
  6  8  1  0  0  0  0
  7  9  1  0  0  0  0
  8  4  1  0  0  0  0
  9 20  1  1  0  0  0
 10  1  1  0  0  0  0
 11  5  1  1  0  0  0
 13 12  1  0  0  0  0
 13 18  1  1  0  0  0
 15 14  1  6  0  0  0
 15 17  1  0  0  0  0
 15 13  1  0  0  0  0
 16 17  1  0  0  0  0
 18 19  1  0  0  0  0
 20 21  1  0  0  0  0
 21 23  1  0  0  0  0
 22 23  2  0  0  0  0
 22 26  1  0  0  0  0
 23 25  1  0  0  0  0
 25 24  2  0  0  0  0
 27 26  1  0  0  0  0
 28 27  1  0  0  0  0
M  END
>  <MODEL>
3

>  <REMARK>
 VINA RESULT:      -7.9      2.078      3.804
  Name = 
  11 active torsions:
  status: ('A' for Active; 'I' for Inactive)
    1  A    between atoms: C_1  and  O_2
    2  A    between atoms: O_2  and  C_3
    3  A    between atoms: C_3  and  C_7
    4  A    between atoms: C_3  and  C_11
    5  A    between atoms: C_4  and  C_24
    6  A    between atoms: C_11  and  C_22
    7  A    between atoms: C_12  and  C_24
    8  A    between atoms: C_13  and  C_15
    9  A    between atoms: C_13  and  C_18
   10  A    between atoms: C_14  and  C_18
   11  A    between atoms: C_14  and  C_25
                            x       y       z     vdW  Elec       q    Type
                         _______ _______ _______ _____ _____    ______ ____

>  <TORSDO>
F 11

$$$$
=
 OpenBabel11052422483D

 28 29  0  0  1  0  0  0  0  0999 V2000
  161.2280  209.0970  153.7010 C   0  0  2  0  0  3  0  0  0  0  0  0
  162.1670  207.1600  149.2280 O   0  0  0  0  0  1  0  0  0  0  0  0
  161.3990  205.4000  152.5740 C   0  0  0  0  0  2  0  0  0  0  0  0
  161.8090  208.0400  151.3990 C   0  0  0  0  0  0  0  0  0  0  0  0
  160.7270  206.6250  153.1720 C   0  0  0  0  0  2  0  0  0  0  0  0
  161.6660  210.5580  151.7860 C   0  0  0  0  0  2  0  0  0  0  0  0
  161.8920  206.9730  150.5810 C   0  0  0  0  0  0  0  0  0  0  0  0
  161.8380  209.4210  150.7850 C   0  0  0  0  0  2  0  0  0  0  0  0
  161.6450  205.5580  151.0680 C   0  0  2  0  0  3  0  0  0  0  0  0
  160.6340  210.1920  152.8330 C   0  0  0  0  0  2  0  0  0  0  0  0
  161.6110  207.8340  152.8950 C   0  0  2  0  0  3  0  0  0  0  0  0
  160.3670  208.8060  154.7760 O   0  0  0  0  0  0  0  0  0  0  0  0
  161.0460  209.0110  156.0020 C   0  0  1  0  0  3  0  0  0  0  0  0
  159.2870  210.8300  156.3290 C   0  0  0  0  0  1  0  0  0  0  0  0
  160.6320  210.2820  156.7730 C   0  0  2  0  0  3  0  0  0  0  0  0
  163.0620  210.7600  156.4610 C   0  0  0  0  0  1  0  0  0  0  0  0
  161.6920  211.3690  156.6880 C   0  0  0  0  0  2  0  0  0  0  0  0
  161.1930  207.7520  156.8630 C   0  0  0  0  0  2  0  0  0  0  0  0
  159.8900  206.9780  156.8940 C   0  0  0  0  0  1  0  0  0  0  0  0
  160.6080  204.7890  150.2380 C   0  0  0  0  0  2  0  0  0  0  0  0
  160.9770  203.3350  149.9210 C   0  0  0  0  0  2  0  0  0  0  0  0
  161.5280  204.0730  147.6900 C   0  0  0  0  0  3  0  0  0  0  0  0
  161.0870  203.0640  148.4570 C   0  0  0  0  0  0  0  0  0  0  0  0
  161.4140  200.5980  148.2700 C   0  0  0  0  0  2  0  0  0  0  0  0
  160.7400  201.7040  147.9790 C   0  0  0  0  0  3  0  0  0  0  0  0
  161.7620  204.0220  146.2150 C   0  0  0  0  0  2  0  0  0  0  0  0
  161.5000  205.3830  145.6010 C   0  0  0  0  0  2  0  0  0  0  0  0
  160.6530  206.1130  146.4340 O   0  0  0  0  0  1  0  0  0  0  0  0
  1 12  1  1  0  0  0
  2  7  1  0  0  0  0
  3  5  1  0  0  0  0
  4 11  1  0  0  0  0
  6 10  1  0  0  0  0
  7  9  1  0  0  0  0
  7  4  2  0  0  0  0
  8  4  1  0  0  0  0
  8  6  1  0  0  0  0
  9 20  1  6  0  0  0
  9  3  1  0  0  0  0
 10  1  1  0  0  0  0
 11  5  1  6  0  0  0
 11  1  1  0  0  0  0
 12 13  1  0  0  0  0
 13 15  1  0  0  0  0
 13 18  1  1  0  0  0
 15 14  1  6  0  0  0
 16 17  1  0  0  0  0
 17 15  1  0  0  0  0
 18 19  1  0  0  0  0
 21 20  1  0  0  0  0
 22 23  2  0  0  0  0
 23 21  1  0  0  0  0
 25 24  2  0  0  0  0
 25 23  1  0  0  0  0
 26 22  1  0  0  0  0
 27 26  1  0  0  0  0
 27 28  1  0  0  0  0
M  END
>  <MODEL>
4

>  <REMARK>
 VINA RESULT:      -7.9      1.493      9.010
  Name = 
  11 active torsions:
  status: ('A' for Active; 'I' for Inactive)
    1  A    between atoms: C_1  and  O_2
    2  A    between atoms: O_2  and  C_3
    3  A    between atoms: C_3  and  C_7
    4  A    between atoms: C_3  and  C_11
    5  A    between atoms: C_4  and  C_24
    6  A    between atoms: C_11  and  C_22
    7  A    between atoms: C_12  and  C_24
    8  A    between atoms: C_13  and  C_15
    9  A    between atoms: C_13  and  C_18
   10  A    between atoms: C_14  and  C_18
   11  A    between atoms: C_14  and  C_25
                            x       y       z     vdW  Elec       q    Type
                         _______ _______ _______ _____ _____    ______ ____

>  <TORSDO>
F 11

$$$$
=
 OpenBabel11052422483D

 28 29  0  0  1  0  0  0  0  0999 V2000
  161.3900  204.5510  149.9030 C   0  0  2  0  0  3  0  0  0  0  0  0
  161.3010  207.2130  154.0930 O   0  0  0  0  0  1  0  0  0  0  0  0
  161.7350  208.3670  150.4380 C   0  0  0  0  0  2  0  0  0  0  0  0
  161.4450  205.9720  152.0790 C   0  0  0  0  0  0  0  0  0  0  0  0
  161.0980  207.1110  149.8660 C   0  0  0  0  0  2  0  0  0  0  0  0
  161.0790  203.4470  152.0660 C   0  0  0  0  0  2  0  0  0  0  0  0
  161.4400  207.1630  152.7080 C   0  0  0  0  0  0  0  0  0  0  0  0
  161.1180  204.7340  152.8820 C   0  0  0  0  0  2  0  0  0  0  0  0
  161.5290  208.4770  151.9540 C   0  0  2  0  0  3  0  0  0  0  0  0
  160.4370  203.6920  150.7160 C   0  0  0  0  0  2  0  0  0  0  0  0
  161.6990  205.9080  150.5790 C   0  0  2  0  0  3  0  0  0  0  0  0
  160.9080  204.7050  148.5890 O   0  0  0  0  0  0  0  0  0  0  0  0
  161.6320  203.8600  147.7130 C   0  0  1  0  0  3  0  0  0  0  0  0
  161.1700  201.3560  147.8900 C   0  0  0  0  0  1  0  0  0  0  0  0
  160.8410  202.6520  147.1680 C   0  0  2  0  0  3  0  0  0  0  0  0
  160.0070  201.5070  145.1130 C   0  0  0  0  0  1  0  0  0  0  0  0
  161.0310  202.4770  145.6700 C   0  0  0  0  0  2  0  0  0  0  0  0
  162.4760  204.6020  146.6720 C   0  0  0  0  0  2  0  0  0  0  0  0
  161.8690  205.9570  146.3670 C   0  0  0  0  0  1  0  0  0  0  0  0
  160.4160  209.4720  152.3080 C   0  0  0  0  0  2  0  0  0  0  0  0
  160.8150  210.9500  152.2300 C   0  0  0  0  0  2  0  0  0  0  0  0
  158.8270  211.4510  153.5040 C   0  0  0  0  0  3  0  0  0  0  0  0
  159.6970  211.8770  152.5760 C   0  0  0  0  0  0  0  0  0  0  0  0
  159.4130  213.3860  150.6100 C   0  0  0  0  0  2  0  0  0  0  0  0
  159.6610  213.1960  151.9000 C   0  0  0  0  0  3  0  0  0  0  0  0
  157.6640  212.2190  154.0410 C   0  0  0  0  0  2  0  0  0  0  0  0
  156.8060  211.3220  154.9110 C   0  0  0  0  0  2  0  0  0  0  0  0
  155.7040  212.0400  155.3730 O   0  0  0  0  0  1  0  0  0  0  0  0
  1 12  1  6  0  0  0
  1 11  1  0  0  0  0
  1 10  1  0  0  0  0
  3  9  1  0  0  0  0
  4  7  2  0  0  0  0
  4  8  1  0  0  0  0
  5  3  1  0  0  0  0
  6  8  1  0  0  0  0
  7  2  1  0  0  0  0
  9 20  1  6  0  0  0
  9  7  1  0  0  0  0
 10  6  1  0  0  0  0
 11  5  1  6  0  0  0
 11  4  1  0  0  0  0
 13 18  1  6  0  0  0
 13 12  1  0  0  0  0
 15 13  1  0  0  0  0
 15 14  1  1  0  0  0
 16 17  1  0  0  0  0
 17 15  1  0  0  0  0
 19 18  1  0  0  0  0
 21 20  1  0  0  0  0
 21 23  1  0  0  0  0
 22 26  1  0  0  0  0
 23 22  2  0  0  0  0
 24 25  2  0  0  0  0
 25 23  1  0  0  0  0
 26 27  1  0  0  0  0
 27 28  1  0  0  0  0
M  END
>  <MODEL>
5

>  <REMARK>
 VINA RESULT:      -7.8      1.724      2.658
  Name = 
  11 active torsions:
  status: ('A' for Active; 'I' for Inactive)
    1  A    between atoms: C_1  and  O_2
    2  A    between atoms: O_2  and  C_3
    3  A    between atoms: C_3  and  C_7
    4  A    between atoms: C_3  and  C_11
    5  A    between atoms: C_4  and  C_24
    6  A    between atoms: C_11  and  C_22
    7  A    between atoms: C_12  and  C_24
    8  A    between atoms: C_13  and  C_15
    9  A    between atoms: C_13  and  C_18
   10  A    between atoms: C_14  and  C_18
   11  A    between atoms: C_14  and  C_25
                            x       y       z     vdW  Elec       q    Type
                         _______ _______ _______ _____ _____    ______ ____

>  <TORSDO>
F 11

$$$$
=
 OpenBabel11052422483D

 28 29  0  0  1  0  0  0  0  0999 V2000
  161.4240  204.5560  149.9060 C   0  0  2  0  0  3  0  0  0  0  0  0
  161.2330  207.1000  154.1640 O   0  0  0  0  0  1  0  0  0  0  0  0
  161.7280  208.3580  150.5520 C   0  0  0  0  0  2  0  0  0  0  0  0
  161.4260  205.9160  152.1210 C   0  0  0  0  0  0  0  0  0  0  0  0
  161.1120  207.1140  149.9330 C   0  0  0  0  0  2  0  0  0  0  0  0
  161.0800  203.3900  152.0310 C   0  0  0  0  0  2  0  0  0  0  0  0
  161.3990  207.0890  152.7820 C   0  0  0  0  0  0  0  0  0  0  0  0
  161.0920  204.6540  152.8830 C   0  0  0  0  0  2  0  0  0  0  0  0
  161.4920  208.4240  152.0660 C   0  0  2  0  0  3  0  0  0  0  0  0
  160.4620  203.6680  150.6760 C   0  0  0  0  0  2  0  0  0  0  0  0
  161.7090  205.8960  150.6240 C   0  0  2  0  0  3  0  0  0  0  0  0
  160.9660  204.7420  148.5880 O   0  0  0  0  0  0  0  0  0  0  0  0
  161.6610  203.8720  147.7130 C   0  0  1  0  0  3  0  0  0  0  0  0
  161.1280  201.3810  147.8760 C   0  0  0  0  0  1  0  0  0  0  0  0
  160.8290  202.6920  147.1680 C   0  0  2  0  0  3  0  0  0  0  0  0
  160.1020  201.4120  145.1520 C   0  0  0  0  0  1  0  0  0  0  0  0
  160.9960  202.5240  145.6660 C   0  0  0  0  0  2  0  0  0  0  0  0
  162.5320  204.5830  146.6720 C   0  0  0  0  0  2  0  0  0  0  0  0
  162.0980  206.0270  146.5170 C   0  0  0  0  0  1  0  0  0  0  0  0
  160.3640  209.4010  152.4250 C   0  0  0  0  0  2  0  0  0  0  0  0
  160.7870  210.8700  152.5410 C   0  0  0  0  0  2  0  0  0  0  0  0
  159.8070  212.8140  151.4990 C   0  0  0  0  0  3  0  0  0  0  0  0
  159.6470  211.8210  152.3860 C   0  0  0  0  0  0  0  0  0  0  0  0
  158.1760  212.0980  154.3820 C   0  0  0  0  0  2  0  0  0  0  0  0
  158.4260  211.5710  153.1900 C   0  0  0  0  0  3  0  0  0  0  0  0
  158.7930  213.8520  151.1440 C   0  0  0  0  0  2  0  0  0  0  0  0
  158.3730  213.6940  149.6960 C   0  0  0  0  0  2  0  0  0  0  0  0
  157.0640  213.2170  149.6420 O   0  0  0  0  0  1  0  0  0  0  0  0
  1 12  1  6  0  0  0
  1 11  1  0  0  0  0
  1 10  1  0  0  0  0
  3  9  1  0  0  0  0
  4  7  2  0  0  0  0
  4  8  1  0  0  0  0
  5  3  1  0  0  0  0
  6  8  1  0  0  0  0
  7  2  1  0  0  0  0
  9 20  1  6  0  0  0
  9  7  1  0  0  0  0
 10  6  1  0  0  0  0
 11  5  1  6  0  0  0
 11  4  1  0  0  0  0
 13 18  1  6  0  0  0
 13 12  1  0  0  0  0
 15 13  1  0  0  0  0
 15 14  1  1  0  0  0
 16 17  1  0  0  0  0
 17 15  1  0  0  0  0
 19 18  1  0  0  0  0
 20 21  1  0  0  0  0
 22 23  2  0  0  0  0
 23 21  1  0  0  0  0
 23 25  1  0  0  0  0
 25 24  2  0  0  0  0
 26 22  1  0  0  0  0
 27 26  1  0  0  0  0
 28 27  1  0  0  0  0
M  END
>  <MODEL>
6

>  <REMARK>
 VINA RESULT:      -7.8      2.222      3.219
  Name = 
  11 active torsions:
  status: ('A' for Active; 'I' for Inactive)
    1  A    between atoms: C_1  and  O_2
    2  A    between atoms: O_2  and  C_3
    3  A    between atoms: C_3  and  C_7
    4  A    between atoms: C_3  and  C_11
    5  A    between atoms: C_4  and  C_24
    6  A    between atoms: C_11  and  C_22
    7  A    between atoms: C_12  and  C_24
    8  A    between atoms: C_13  and  C_15
    9  A    between atoms: C_13  and  C_18
   10  A    between atoms: C_14  and  C_18
   11  A    between atoms: C_14  and  C_25
                            x       y       z     vdW  Elec       q    Type
                         _______ _______ _______ _____ _____    ______ ____

>  <TORSDO>
F 11

$$$$
=
 OpenBabel11052422483D

 28 29  0  0  1  0  0  0  0  0999 V2000
  161.0090  206.4510  152.1420 C   0  0  2  0  0  3  0  0  0  0  0  0
  161.1460  202.8040  148.7770 O   0  0  0  0  0  1  0  0  0  0  0  0
  161.5640  206.6110  148.3170 C   0  0  0  0  0  2  0  0  0  0  0  0
  160.9930  204.5820  150.3360 C   0  0  0  0  0  0  0  0  0  0  0  0
  161.9400  206.8410  149.7710 C   0  0  0  0  0  2  0  0  0  0  0  0
  160.7070  204.1200  152.8290 C   0  0  0  0  0  2  0  0  0  0  0  0
  161.2060  204.1630  149.0740 C   0  0  0  0  0  0  0  0  0  0  0  0
  160.8750  203.5430  151.4270 C   0  0  0  0  0  2  0  0  0  0  0  0
  161.5640  205.1210  147.9520 C   0  0  2  0  0  3  0  0  0  0  0  0
  161.5830  205.3430  153.0090 C   0  0  0  0  0  2  0  0  0  0  0  0
  160.9560  206.0730  150.6440 C   0  0  2  0  0  3  0  0  0  0  0  0
  161.7020  207.6550  152.3670 O   0  0  0  0  0  0  0  0  0  0  0  0
  160.8570  208.5760  153.0330 C   0  0  1  0  0  3  0  0  0  0  0  0
  160.2590  207.7780  155.3810 C   0  0  0  0  0  1  0  0  0  0  0  0
  161.1120  208.7200  154.5480 C   0  0  2  0  0  3  0  0  0  0  0  0
  159.7290  210.2520  155.9510 C   0  0  0  0  0  1  0  0  0  0  0  0
  160.9240  210.1520  155.0230 C   0  0  0  0  0  2  0  0  0  0  0  0
  160.6480  209.8970  152.2850 C   0  0  0  0  0  2  0  0  0  0  0  0
  161.7990  210.1540  151.3330 C   0  0  0  0  0  1  0  0  0  0  0  0
  162.8280  204.7240  147.1770 C   0  0  0  0  0  2  0  0  0  0  0  0
  162.6650  204.6620  145.6540 C   0  0  0  0  0  2  0  0  0  0  0  0
  161.2030  202.7580  145.4090 C   0  0  0  0  0  3  0  0  0  0  0  0
  161.3590  204.0780  145.2280 C   0  0  0  0  0  0  0  0  0  0  0  0
  160.2190  206.2850  144.9970 C   0  0  0  0  0  2  0  0  0  0  0  0
  160.3360  205.0010  144.6810 C   0  0  0  0  0  3  0  0  0  0  0  0
  159.9740  201.9650  145.1030 C   0  0  0  0  0  2  0  0  0  0  0  0
  160.2500  200.4860  145.2880 C   0  0  0  0  0  2  0  0  0  0  0  0
  161.1660  200.3110  146.3240 O   0  0  0  0  0  1  0  0  0  0  0  0
  1 12  1  6  0  0  0
  1 10  1  0  0  0  0
  2  7  1  0  0  0  0
  3  5  1  0  0  0  0
  4 11  1  0  0  0  0
  4  8  1  0  0  0  0
  6 10  1  0  0  0  0
  7  4  2  0  0  0  0
  8  6  1  0  0  0  0
  9 20  1  1  0  0  0
  9  3  1  0  0  0  0
  9  7  1  0  0  0  0
 11  5  1  6  0  0  0
 11  1  1  0  0  0  0
 12 13  1  0  0  0  0
 13 18  1  6  0  0  0
 13 15  1  0  0  0  0
 15 17  1  0  0  0  0
 15 14  1  1  0  0  0
 17 16  1  0  0  0  0
 19 18  1  0  0  0  0
 21 20  1  0  0  0  0
 23 22  2  0  0  0  0
 23 21  1  0  0  0  0
 25 24  2  0  0  0  0
 25 23  1  0  0  0  0
 26 27  1  0  0  0  0
 26 22  1  0  0  0  0
 27 28  1  0  0  0  0
M  END
>  <MODEL>
7

>  <REMARK>
 VINA RESULT:      -7.6      1.737      8.642
  Name = 
  11 active torsions:
  status: ('A' for Active; 'I' for Inactive)
    1  A    between atoms: C_1  and  O_2
    2  A    between atoms: O_2  and  C_3
    3  A    between atoms: C_3  and  C_7
    4  A    between atoms: C_3  and  C_11
    5  A    between atoms: C_4  and  C_24
    6  A    between atoms: C_11  and  C_22
    7  A    between atoms: C_12  and  C_24
    8  A    between atoms: C_13  and  C_15
    9  A    between atoms: C_13  and  C_18
   10  A    between atoms: C_14  and  C_18
   11  A    between atoms: C_14  and  C_25
                            x       y       z     vdW  Elec       q    Type
                         _______ _______ _______ _____ _____    ______ ____

>  <TORSDO>
F 11

$$$$
=
 OpenBabel11052422483D

 28 29  0  0  1  0  0  0  0  0999 V2000
  161.3730  204.0960  147.6050 C   0  0  2  0  0  3  0  0  0  0  0  0
  161.7410  208.9400  148.6280 O   0  0  0  0  0  1  0  0  0  0  0  0
  160.8310  205.9870  150.9360 C   0  0  0  0  0  2  0  0  0  0  0  0
  161.4610  206.6340  148.1620 C   0  0  0  0  0  0  0  0  0  0  0  0
  161.4850  204.9550  150.0320 C   0  0  0  0  0  2  0  0  0  0  0  0
  161.9940  205.6890  145.8520 C   0  0  0  0  0  2  0  0  0  0  0  0
  161.4550  207.6450  149.0510 C   0  0  0  0  0  0  0  0  0  0  0  0
  161.9580  206.9120  146.7620 C   0  0  0  0  0  2  0  0  0  0  0  0
  161.1940  207.4200  150.5300 C   0  0  2  0  0  3  0  0  0  0  0  0
  162.4660  204.4710  146.6180 C   0  0  0  0  0  2  0  0  0  0  0  0
  161.0490  205.2350  148.6000 C   0  0  2  0  0  3  0  0  0  0  0  0
  161.6960  202.8910  148.2560 O   0  0  0  0  0  0  0  0  0  0  0  0
  160.7830  201.8800  147.8710 C   0  0  1  0  0  3  0  0  0  0  0  0
  160.1380  201.3220  145.4650 C   0  0  0  0  0  1  0  0  0  0  0  0
  161.1530  201.1230  146.5770 C   0  0  2  0  0  3  0  0  0  0  0  0
  161.2090  198.8530  145.5420 C   0  0  0  0  0  1  0  0  0  0  0  0
  161.3680  199.6390  146.8290 C   0  0  0  0  0  2  0  0  0  0  0  0
  160.2980  200.9920  149.0220 C   0  0  0  0  0  2  0  0  0  0  0  0
  161.0690  201.3020  150.2900 C   0  0  0  0  0  1  0  0  0  0  0  0
  162.2700  208.0180  151.4460 C   0  0  0  0  0  2  0  0  0  0  0  0
  161.9380  209.3980  152.0250 C   0  0  0  0  0  2  0  0  0  0  0  0
  161.2030  208.2840  154.0350 C   0  0  0  0  0  3  0  0  0  0  0  0
  161.0410  209.3340  153.2160 C   0  0  0  0  0  0  0  0  0  0  0  0
  159.9730  211.5120  152.6360 C   0  0  0  0  0  2  0  0  0  0  0  0
  160.0780  210.4440  153.4160 C   0  0  0  0  0  3  0  0  0  0  0  0
  160.4560  208.0320  155.3050 C   0  0  0  0  0  2  0  0  0  0  0  0
  161.4090  208.0630  156.4830 C   0  0  0  0  0  2  0  0  0  0  0  0
  161.5890  209.3810  156.9010 O   0  0  0  0  0  1  0  0  0  0  0  0
  1 12  1  1  0  0  0
  1 11  1  0  0  0  0
  2  7  1  0  0  0  0
  4 11  1  0  0  0  0
  4  7  2  0  0  0  0
  5  3  1  0  0  0  0
  6 10  1  0  0  0  0
  6  8  1  0  0  0  0
  7  9  1  0  0  0  0
  8  4  1  0  0  0  0
  9  3  1  0  0  0  0
  9 20  1  1  0  0  0
 10  1  1  0  0  0  0
 11  5  1  1  0  0  0
 13 12  1  0  0  0  0
 13 18  1  1  0  0  0
 15 14  1  6  0  0  0
 15 17  1  0  0  0  0
 15 13  1  0  0  0  0
 16 17  1  0  0  0  0
 18 19  1  0  0  0  0
 20 21  1  0  0  0  0
 21 23  1  0  0  0  0
 22 26  1  0  0  0  0
 23 25  1  0  0  0  0
 23 22  2  0  0  0  0
 24 25  2  0  0  0  0
 26 27  1  0  0  0  0
 27 28  1  0  0  0  0
M  END
>  <MODEL>
8

>  <REMARK>
 VINA RESULT:      -7.5      1.736      3.543
  Name = 
  11 active torsions:
  status: ('A' for Active; 'I' for Inactive)
    1  A    between atoms: C_1  and  O_2
    2  A    between atoms: O_2  and  C_3
    3  A    between atoms: C_3  and  C_7
    4  A    between atoms: C_3  and  C_11
    5  A    between atoms: C_4  and  C_24
    6  A    between atoms: C_11  and  C_22
    7  A    between atoms: C_12  and  C_24
    8  A    between atoms: C_13  and  C_15
    9  A    between atoms: C_13  and  C_18
   10  A    between atoms: C_14  and  C_18
   11  A    between atoms: C_14  and  C_25
                            x       y       z     vdW  Elec       q    Type
                         _______ _______ _______ _____ _____    ______ ____

>  <TORSDO>
F 11

$$$$
=
 OpenBabel11052422483D

 28 29  0  0  1  0  0  0  0  0999 V2000
  161.2520  204.7470  149.9190 C   0  0  2  0  0  3  0  0  0  0  0  0
  161.4690  207.0870  154.2910 O   0  0  0  0  0  1  0  0  0  0  0  0
  161.6340  208.5140  150.7120 C   0  0  0  0  0  2  0  0  0  0  0  0
  161.4660  206.0000  152.1850 C   0  0  0  0  0  0  0  0  0  0  0  0
  160.9570  207.3000  150.0950 C   0  0  0  0  0  2  0  0  0  0  0  0
  161.1010  203.4810  152.0100 C   0  0  0  0  0  2  0  0  0  0  0  0
  161.5060  207.1410  152.9000 C   0  0  0  0  0  0  0  0  0  0  0  0
  161.1980  204.7040  152.9150 C   0  0  0  0  0  2  0  0  0  0  0  0
  161.5390  208.5080  152.2430 C   0  0  2  0  0  3  0  0  0  0  0  0
  160.3620  203.8230  150.7320 C   0  0  0  0  0  2  0  0  0  0  0  0
  161.6100  206.0500  150.6700 C   0  0  2  0  0  3  0  0  0  0  0  0
  160.6760  204.9950  148.6590 O   0  0  0  0  0  0  0  0  0  0  0  0
  161.2150  204.1010  147.7020 C   0  0  1  0  0  3  0  0  0  0  0  0
  162.3300  206.2310  146.8470 C   0  0  0  0  0  1  0  0  0  0  0  0
  162.2600  204.7170  146.7480 C   0  0  2  0  0  3  0  0  0  0  0  0
  161.1980  205.3360  144.5760 C   0  0  0  0  0  1  0  0  0  0  0  0
  162.0300  204.2980  145.3050 C   0  0  0  0  0  2  0  0  0  0  0  0
  161.5820  202.7220  148.2600 C   0  0  0  0  0  2  0  0  0  0  0  0
  160.8320  201.6340  147.5190 C   0  0  0  0  0  1  0  0  0  0  0  0
  160.4540  209.4670  152.7500 C   0  0  0  0  0  2  0  0  0  0  0  0
  160.5910  210.9170  152.2720 C   0  0  0  0  0  2  0  0  0  0  0  0
  158.6170  211.2810  153.6120 C   0  0  0  0  0  3  0  0  0  0  0  0
  159.4430  211.7790  152.6790 C   0  0  0  0  0  0  0  0  0  0  0  0
  159.7240  213.4210  150.8220 C   0  0  0  0  0  2  0  0  0  0  0  0
  159.3290  213.1180  152.0530 C   0  0  0  0  0  3  0  0  0  0  0  0
  157.4340  211.9750  154.2040 C   0  0  0  0  0  2  0  0  0  0  0  0
  157.7140  212.3350  155.6500 C   0  0  0  0  0  2  0  0  0  0  0  0
  156.5100  212.5910  156.3060 O   0  0  0  0  0  1  0  0  0  0  0  0
  1 12  1  6  0  0  0
  1 11  1  0  0  0  0
  1 10  1  0  0  0  0
  3  9  1  0  0  0  0
  4  7  2  0  0  0  0
  4  8  1  0  0  0  0
  5  3  1  0  0  0  0
  6  8  1  0  0  0  0
  7  2  1  0  0  0  0
  9 20  1  6  0  0  0
  9  7  1  0  0  0  0
 10  6  1  0  0  0  0
 11  5  1  6  0  0  0
 11  4  1  0  0  0  0
 13 18  1  1  0  0  0
 13 12  1  0  0  0  0
 15 14  1  6  0  0  0
 15 13  1  0  0  0  0
 16 17  1  0  0  0  0
 17 15  1  0  0  0  0
 19 18  1  0  0  0  0
 21 23  1  0  0  0  0
 21 20  1  0  0  0  0
 22 26  1  0  0  0  0
 23 22  2  0  0  0  0
 24 25  2  0  0  0  0
 25 23  1  0  0  0  0
 26 27  1  0  0  0  0
 27 28  1  0  0  0  0
M  END
>  <MODEL>
9

>  <REMARK>
 VINA RESULT:      -7.2      1.693      3.028
  Name = 
  11 active torsions:
  status: ('A' for Active; 'I' for Inactive)
    1  A    between atoms: C_1  and  O_2
    2  A    between atoms: O_2  and  C_3
    3  A    between atoms: C_3  and  C_7
    4  A    between atoms: C_3  and  C_11
    5  A    between atoms: C_4  and  C_24
    6  A    between atoms: C_11  and  C_22
    7  A    between atoms: C_12  and  C_24
    8  A    between atoms: C_13  and  C_15
    9  A    between atoms: C_13  and  C_18
   10  A    between atoms: C_14  and  C_18
   11  A    between atoms: C_14  and  C_25
                            x       y       z     vdW  Elec       q    Type
                         _______ _______ _______ _____ _____    ______ ____

>  <TORSDO>
F 11

$$$$
