=
 OpenBabel11052422233D

 31 35  0  0  1  0  0  0  0  0999 V2000
  160.7530  201.8550  150.5000 C   0  0  0  0  0  0  0  0  0  0  0  0
  161.4400  205.2910  148.9730 C   0  0  0  0  0  0  0  0  0  0  0  0
  161.6730  205.0780  147.5820 C   0  0  0  0  0  0  0  0  0  0  0  0
  161.0240  203.2300  146.0730 C   0  0  0  0  0  3  0  0  0  0  0  0
  161.2570  204.1810  149.9640 C   0  0  0  0  0  0  0  0  0  0  0  0
  160.8080  202.1460  151.8620 C   0  0  0  0  0  3  0  0  0  0  0  0
  162.0310  203.7210  147.0570 C   0  0  0  0  0  2  0  0  0  0  0  0
  161.1930  206.8600  150.8710 N   0  0  0  0  0  0  0  0  0  0  0  0
  160.4730  200.5300  150.0650 N   0  0  0  0  0  1  0  0  0  0  0  0
  161.5890  207.4750  147.2050 C   0  0  0  0  0  3  0  0  0  0  0  0
  160.8280  203.8200  144.8960 C   0  0  0  0  0  3  0  0  0  0  0  0
  161.5810  205.8440  151.8430 C   0  0  0  0  0  2  0  0  0  0  0  0
  161.3460  206.6160  149.4570 C   0  0  0  0  0  0  0  0  0  0  0  0
  160.9680  202.8660  149.5610 C   0  0  0  0  0  3  0  0  0  0  0  0
  161.5000  205.0540  144.4530 C   0  0  0  0  0  3  0  0  0  0  0  0
  161.2790  204.4670  151.3460 C   0  0  0  0  0  0  0  0  0  0  0  0
  161.0720  203.4500  152.2840 C   0  0  0  0  0  3  0  0  0  0  0  0
  161.4130  207.6910  148.5640 C   0  0  0  0  0  3  0  0  0  0  0  0
  161.7110  206.1830  146.6990 C   0  0  0  0  0  0  0  0  0  0  0  0
  161.8880  206.0690  145.2350 C   0  0  0  0  0  3  0  0  0  0  0  0
  160.7950  208.1650  151.3870 C   0  0  0  0  0  2  0  0  0  0  0  0
  160.7390  208.2700  153.7690 O   0  0  0  0  0  1  0  0  0  0  0  0
  161.5570  208.4940  152.6600 C   0  0  2  0  0  3  0  0  0  0  0  0
  161.9900  209.9500  152.6260 C   0  0  0  0  0  2  0  0  0  0  0  0
  159.2460  212.2790  154.2640 C   0  0  0  0  0  0  0  0  0  0  0  0
  162.2980  210.7800  155.5210 O   0  0  0  0  0  1  0  0  0  0  0  0
  158.0470  213.1340  154.4620 C   0  0  0  0  0  1  0  0  0  0  0  0
  159.6440  211.4960  152.8270 S   0  0  0  0  0  0  0  0  0  0  0  0
  161.2190  211.1790  154.7430 C   0  0  0  0  0  0  0  0  0  0  0  0
  161.0500  210.7910  153.4210 C   0  0  0  0  0  0  0  0  0  0  0  0
  160.2070  212.0140  155.2300 C   0  0  0  0  0  3  0  0  0  0  0  0
  1  6  1  0  0  0  0
  2 13  1  0  0  0  0
  2  5  1  0  0  0  0
  3  2  2  0  0  0  0
  4  7  1  0  0  0  0
  5 16  2  0  0  0  0
  6 17  2  0  0  0  0
  7  3  1  0  0  0  0
  8 21  1  0  0  0  0
  8 12  1  0  0  0  0
  9  1  1  0  0  0  0
 10 18  1  0  0  0  0
 11  4  2  0  0  0  0
 13  8  1  0  0  0  0
 14  5  1  0  0  0  0
 14  1  2  0  0  0  0
 15 11  1  0  0  0  0
 15 20  2  0  0  0  0
 16 12  1  0  0  0  0
 16 17  1  0  0  0  0
 18 13  2  0  0  0  0
 19 10  2  0  0  0  0
 19  3  1  0  0  0  0
 20 19  1  0  0  0  0
 21 23  1  0  0  0  0
 23 22  1  1  0  0  0
 24 23  1  0  0  0  0
 24 30  1  0  0  0  0
 25 27  1  0  0  0  0
 25 31  2  0  0  0  0
 28 30  1  0  0  0  0
 28 25  1  0  0  0  0
 29 31  1  0  0  0  0
 29 26  1  0  0  0  0
 30 29  2  0  0  0  0
M  END
>  <MODEL>
1

>  <REMARK>
 VINA RESULT:      -9.3      0.000      0.000
  Name = 
  4 active torsions:
  status: ('A' for Active; 'I' for Inactive)
    1  A    between atoms: C_3  and  C_9
    2  A    between atoms: C_3  and  C_22
    3  A    between atoms: C_9  and  C_23
    4  A    between atoms: N_15  and  C_23
                            x       y       z     vdW  Elec       q    Type
                         _______ _______ _______ _____ _____    ______ ____

>  <TORSDO>
F 4

$$$$
=
 OpenBabel11052422233D

 31 35  0  0  1  0  0  0  0  0999 V2000
  160.8350  207.7030  154.0040 C   0  0  0  0  0  0  0  0  0  0  0  0
  161.6150  207.2830  150.2860 C   0  0  0  0  0  0  0  0  0  0  0  0
  161.5750  205.8830  150.0190 C   0  0  0  0  0  0  0  0  0  0  0  0
  160.4740  204.0140  151.2070 C   0  0  0  0  0  3  0  0  0  0  0  0
  161.4880  207.8700  151.6600 C   0  0  0  0  0  0  0  0  0  0  0  0
  161.1600  209.0440  154.2010 C   0  0  0  0  0  3  0  0  0  0  0  0
  161.6850  204.8800  151.1270 C   0  0  0  0  0  2  0  0  0  0  0  0
  161.8770  209.5990  149.4550 N   0  0  0  0  0  0  0  0  0  0  0  0
  160.3410  206.9240  155.0860 N   0  0  0  0  0  1  0  0  0  0  0  0
  161.6880  206.3380  147.6370 C   0  0  0  0  0  3  0  0  0  0  0  0
  160.1390  203.1620  150.2420 C   0  0  0  0  0  3  0  0  0  0  0  0
  162.3170  210.0840  150.7580 C   0  0  0  0  0  2  0  0  0  0  0  0
  161.7510  208.1840  149.2050 C   0  0  0  0  0  0  0  0  0  0  0  0
  160.9920  207.1250  152.7430 C   0  0  0  0  0  3  0  0  0  0  0  0
  160.8540  203.0230  148.9600 C   0  0  0  0  0  3  0  0  0  0  0  0
  161.7830  209.2350  151.8670 C   0  0  0  0  0  0  0  0  0  0  0  0
  161.6350  209.8080  153.1340 C   0  0  0  0  0  3  0  0  0  0  0  0
  161.7780  207.6990  147.8930 C   0  0  0  0  0  3  0  0  0  0  0  0
  161.5770  205.4230  148.6810 C   0  0  0  0  0  0  0  0  0  0  0  0
  161.4810  203.9990  148.2930 C   0  0  0  0  0  3  0  0  0  0  0  0
  161.7210  210.5840  148.3900 C   0  0  0  0  0  2  0  0  0  0  0  0
  161.0170  212.6610  149.3300 O   0  0  0  0  0  1  0  0  0  0  0  0
  162.1360  211.9640  148.8690 C   0  0  2  0  0  3  0  0  0  0  0  0
  162.7790  212.7240  147.7220 C   0  0  0  0  0  2  0  0  0  0  0  0
  159.7300  213.4410  145.3090 C   0  0  0  0  0  0  0  0  0  0  0  0
  163.2870  213.0190  144.7520 O   0  0  0  0  0  1  0  0  0  0  0  0
  158.3580  213.6770  144.7900 C   0  0  0  0  0  1  0  0  0  0  0  0
  160.1190  213.2040  146.9300 S   0  0  0  0  0  0  0  0  0  0  0  0
  162.0190  213.1360  145.3050 C   0  0  0  0  0  0  0  0  0  0  0  0
  161.7700  213.0240  146.6670 C   0  0  0  0  0  0  0  0  0  0  0  0
  160.8780  213.3740  144.5300 C   0  0  0  0  0  3  0  0  0  0  0  0
  1  6  1  0  0  0  0
  1  9  1  0  0  0  0
  2  5  1  0  0  0  0
  3  2  1  0  0  0  0
  3  7  1  0  0  0  0
  5 16  2  0  0  0  0
  5 14  1  0  0  0  0
  7  4  1  0  0  0  0
  8 12  1  0  0  0  0
 10 18  2  0  0  0  0
 10 19  1  0  0  0  0
 11  4  2  0  0  0  0
 12 16  1  0  0  0  0
 13  8  1  0  0  0  0
 13  2  2  0  0  0  0
 14  1  2  0  0  0  0
 15 11  1  0  0  0  0
 16 17  1  0  0  0  0
 17  6  2  0  0  0  0
 18 13  1  0  0  0  0
 19  3  2  0  0  0  0
 20 19  1  0  0  0  0
 20 15  2  0  0  0  0
 21 23  1  0  0  0  0
 21  8  1  0  0  0  0
 23 22  1  6  0  0  0
 24 23  1  0  0  0  0
 25 28  1  0  0  0  0
 26 29  1  0  0  0  0
 27 25  1  0  0  0  0
 29 30  2  0  0  0  0
 30 28  1  0  0  0  0
 30 24  1  0  0  0  0
 31 29  1  0  0  0  0
 31 25  2  0  0  0  0
M  END
>  <MODEL>
2

>  <REMARK>
 VINA RESULT:      -9.0      4.016      6.093
  Name = 
  4 active torsions:
  status: ('A' for Active; 'I' for Inactive)
    1  A    between atoms: C_3  and  C_9
    2  A    between atoms: C_3  and  C_22
    3  A    between atoms: C_9  and  C_23
    4  A    between atoms: N_15  and  C_23
                            x       y       z     vdW  Elec       q    Type
                         _______ _______ _______ _____ _____    ______ ____

>  <TORSDO>
F 4

$$$$
=
 OpenBabel11052422233D

 31 35  0  0  1  0  0  0  0  0999 V2000
  161.9990  210.0120  149.2860 C   0  0  0  0  0  0  0  0  0  0  0  0
  161.0920  206.7790  151.1100 C   0  0  0  0  0  0  0  0  0  0  0  0
  160.9500  205.7740  150.1090 C   0  0  0  0  0  0  0  0  0  0  0  0
  161.8330  205.6140  147.8050 C   0  0  0  0  0  3  0  0  0  0  0  0
  161.3210  208.2290  150.8050 C   0  0  0  0  0  0  0  0  0  0  0  0
  161.8500  210.9520  150.3050 C   0  0  0  0  0  3  0  0  0  0  0  0
  160.7390  206.1390  148.6710 C   0  0  0  0  0  2  0  0  0  0  0  0
  161.1050  207.4080  153.5040 N   0  0  0  0  0  0  0  0  0  0  0  0
  162.4150  210.4270  147.9900 N   0  0  0  0  0  1  0  0  0  0  0  0
  160.8430  204.0720  151.8380 C   0  0  0  0  0  3  0  0  0  0  0  0
  162.0370  204.3120  147.6190 C   0  0  0  0  0  3  0  0  0  0  0  0
  160.7580  208.7930  153.2060 C   0  0  0  0  0  2  0  0  0  0  0  0
  161.0460  206.4010  152.4720 C   0  0  0  0  0  0  0  0  0  0  0  0
  161.7430  208.6630  149.5380 C   0  0  0  0  0  3  0  0  0  0  0  0
  161.2830  203.2410  148.2940 C   0  0  0  0  0  3  0  0  0  0  0  0
  161.2050  209.1870  151.8360 C   0  0  0  0  0  0  0  0  0  0  0  0
  161.4510  210.5390  151.5770 C   0  0  0  0  0  3  0  0  0  0  0  0
  160.9310  205.0510  152.8180 C   0  0  0  0  0  3  0  0  0  0  0  0
  160.8600  204.4130  150.4870 C   0  0  0  0  0  0  0  0  0  0  0  0
  160.7680  203.2900  149.5290 C   0  0  0  0  0  3  0  0  0  0  0  0
  161.3610  207.0640  154.8990 C   0  0  0  0  0  2  0  0  0  0  0  0
  162.1870  208.0830  156.8910 O   0  0  0  0  0  1  0  0  0  0  0  0
  161.4000  208.3150  155.7610 C   0  0  2  0  0  3  0  0  0  0  0  0
  159.9880  208.6800  156.1830 C   0  0  0  0  0  2  0  0  0  0  0  0
  160.1020  212.5770  156.8470 C   0  0  0  0  0  0  0  0  0  0  0  0
  157.5720  210.3660  155.4850 O   0  0  0  0  0  1  0  0  0  0  0  0
  160.5500  213.9320  157.2610 C   0  0  0  0  0  1  0  0  0  0  0  0
  161.0260  211.1750  156.9780 S   0  0  0  0  0  0  0  0  0  0  0  0
  158.7300  210.9120  156.0230 C   0  0  0  0  0  0  0  0  0  0  0  0
  159.8540  210.1580  156.3300 C   0  0  0  0  0  0  0  0  0  0  0  0
  158.8590  212.2770  156.3070 C   0  0  0  0  0  3  0  0  0  0  0  0
  1 14  2  0  0  0  0
  1  6  1  0  0  0  0
  2 13  1  0  0  0  0
  3 19  1  0  0  0  0
  3  2  2  0  0  0  0
  4  7  1  0  0  0  0
  5  2  1  0  0  0  0
  5 16  2  0  0  0  0
  6 17  2  0  0  0  0
  7  3  1  0  0  0  0
  8 21  1  0  0  0  0
  9  1  1  0  0  0  0
 10 18  1  0  0  0  0
 11  4  2  0  0  0  0
 11 15  1  0  0  0  0
 12  8  1  0  0  0  0
 13 18  2  0  0  0  0
 13  8  1  0  0  0  0
 14  5  1  0  0  0  0
 15 20  2  0  0  0  0
 16 12  1  0  0  0  0
 17 16  1  0  0  0  0
 19 10  2  0  0  0  0
 20 19  1  0  0  0  0
 21 23  1  0  0  0  0
 23 24  1  0  0  0  0
 23 22  1  1  0  0  0
 24 30  1  0  0  0  0
 25 28  1  0  0  0  0
 25 27  1  0  0  0  0
 26 29  1  0  0  0  0
 29 31  1  0  0  0  0
 29 30  2  0  0  0  0
 30 28  1  0  0  0  0
 31 25  2  0  0  0  0
M  END
>  <MODEL>
3

>  <REMARK>
 VINA RESULT:      -8.7      2.433      4.797
  Name = 
  4 active torsions:
  status: ('A' for Active; 'I' for Inactive)
    1  A    between atoms: C_3  and  C_9
    2  A    between atoms: C_3  and  C_22
    3  A    between atoms: C_9  and  C_23
    4  A    between atoms: N_15  and  C_23
                            x       y       z     vdW  Elec       q    Type
                         _______ _______ _______ _____ _____    ______ ____

>  <TORSDO>
F 4

$$$$
=
 OpenBabel11052422233D

 31 35  0  0  1  0  0  0  0  0999 V2000
  161.6230  210.9690  149.6680 C   0  0  0  0  0  0  0  0  0  0  0  0
  161.4120  208.4560  152.5400 C   0  0  0  0  0  0  0  0  0  0  0  0
  161.1080  209.2060  153.7140 C   0  0  0  0  0  0  0  0  0  0  0  0
  160.0710  211.4300  154.0200 C   0  0  0  0  0  3  0  0  0  0  0  0
  161.7070  209.0810  151.2090 C   0  0  0  0  0  0  0  0  0  0  0  0
  162.1750  210.1830  148.6580 C   0  0  0  0  0  3  0  0  0  0  0  0
  161.3380  210.6860  153.7680 C   0  0  0  0  0  2  0  0  0  0  0  0
  161.7950  206.2640  151.4580 N   0  0  0  0  0  0  0  0  0  0  0  0
  161.2980  212.3300  149.4140 N   0  0  0  0  0  1  0  0  0  0  0  0
  160.7060  207.1400  154.9250 C   0  0  0  0  0  3  0  0  0  0  0  0
  159.3940  211.3230  155.1610 C   0  0  0  0  0  3  0  0  0  0  0  0
  162.6020  206.8570  150.3980 C   0  0  0  0  0  2  0  0  0  0  0  0
  161.4110  207.0440  152.6090 C   0  0  0  0  0  0  0  0  0  0  0  0
  161.3860  210.4190  150.9300 C   0  0  0  0  0  3  0  0  0  0  0  0
  159.7500  210.4150  156.2660 C   0  0  0  0  0  3  0  0  0  0  0  0
  162.2360  208.2880  150.1670 C   0  0  0  0  0  0  0  0  0  0  0  0
  162.4820  208.8450  148.9080 C   0  0  0  0  0  3  0  0  0  0  0  0
  161.0500  206.4050  153.8000 C   0  0  0  0  0  3  0  0  0  0  0  0
  160.7210  208.5330  154.8970 C   0  0  0  0  0  0  0  0  0  0  0  0
  160.3310  209.2160  156.1500 C   0  0  0  0  0  3  0  0  0  0  0  0
  161.5290  204.8320  151.3780 C   0  0  0  0  0  2  0  0  0  0  0  0
  159.4960  204.0660  150.3910 O   0  0  0  0  0  1  0  0  0  0  0  0
  160.7920  204.4930  150.0930 C   0  0  2  0  0  3  0  0  0  0  0  0
  161.5390  203.3960  149.3570 C   0  0  0  0  0  2  0  0  0  0  0  0
  161.3630  204.5030  145.5650 C   0  0  0  0  0  0  0  0  0  0  0  0
  160.9800  201.3080  147.2360 O   0  0  0  0  0  1  0  0  0  0  0  0
  161.3660  205.3230  144.3260 C   0  0  0  0  0  1  0  0  0  0  0  0
  161.6300  205.1000  147.1160 S   0  0  0  0  0  0  0  0  0  0  0  0
  161.1890  202.6460  146.9270 C   0  0  0  0  0  0  0  0  0  0  0  0
  161.4670  203.6130  147.8840 C   0  0  0  0  0  0  0  0  0  0  0  0
  161.1320  203.1350  145.6160 C   0  0  0  0  0  3  0  0  0  0  0  0
  1 14  1  0  0  0  0
  2 13  2  0  0  0  0
  2  3  1  0  0  0  0
  3  7  1  0  0  0  0
  3 19  2  0  0  0  0
  4 11  2  0  0  0  0
  5  2  1  0  0  0  0
  6 17  1  0  0  0  0
  6  1  2  0  0  0  0
  7  4  1  0  0  0  0
  8 13  1  0  0  0  0
  9  1  1  0  0  0  0
 11 15  1  0  0  0  0
 12  8  1  0  0  0  0
 13 18  1  0  0  0  0
 14  5  2  0  0  0  0
 16 12  1  0  0  0  0
 16  5  1  0  0  0  0
 17 16  2  0  0  0  0
 18 10  2  0  0  0  0
 19 10  1  0  0  0  0
 19 20  1  0  0  0  0
 20 15  2  0  0  0  0
 21  8  1  0  0  0  0
 23 22  1  1  0  0  0
 23 21  1  0  0  0  0
 24 23  1  0  0  0  0
 25 31  2  0  0  0  0
 25 28  1  0  0  0  0
 27 25  1  0  0  0  0
 28 30  1  0  0  0  0
 29 26  1  0  0  0  0
 29 30  2  0  0  0  0
 30 24  1  0  0  0  0
 31 29  1  0  0  0  0
M  END
>  <MODEL>
4

>  <REMARK>
 VINA RESULT:      -8.5      3.126      8.899
  Name = 
  4 active torsions:
  status: ('A' for Active; 'I' for Inactive)
    1  A    between atoms: C_3  and  C_9
    2  A    between atoms: C_3  and  C_22
    3  A    between atoms: C_9  and  C_23
    4  A    between atoms: N_15  and  C_23
                            x       y       z     vdW  Elec       q    Type
                         _______ _______ _______ _____ _____    ______ ____

>  <TORSDO>
F 4

$$$$
=
 OpenBabel11052422233D

 31 35  0  0  1  0  0  0  0  0999 V2000
  161.1730  204.1510  149.9820 C   0  0  0  0  0  0  0  0  0  0  0  0
  161.4830  207.4810  151.8310 C   0  0  0  0  0  0  0  0  0  0  0  0
  161.9040  208.4430  150.8660 C   0  0  0  0  0  0  0  0  0  0  0  0
  161.7320  208.4800  148.4000 C   0  0  0  0  0  3  0  0  0  0  0  0
  161.3640  206.0150  151.5440 C   0  0  0  0  0  0  0  0  0  0  0  0
  161.0250  203.2610  151.0450 C   0  0  0  0  0  3  0  0  0  0  0  0
  162.5290  208.0180  149.5720 C   0  0  0  0  0  2  0  0  0  0  0  0
  160.7770  206.9600  154.1440 N   0  0  0  0  0  0  0  0  0  0  0  0
  161.1560  203.6700  148.6440 N   0  0  0  0  0  1  0  0  0  0  0  0
  161.4890  210.2230  152.4650 C   0  0  0  0  0  3  0  0  0  0  0  0
  161.5810  209.7680  148.0990 C   0  0  0  0  0  3  0  0  0  0  0  0
  161.2060  205.5710  154.0300 C   0  0  0  0  0  2  0  0  0  0  0  0
  161.1270  207.9210  153.1270 C   0  0  0  0  0  0  0  0  0  0  0  0
  161.3330  205.5150  150.2310 C   0  0  0  0  0  3  0  0  0  0  0  0
  162.0970  210.8840  148.9110 C   0  0  0  0  0  3  0  0  0  0  0  0
  161.1820  205.1060  152.6090 C   0  0  0  0  0  0  0  0  0  0  0  0
  161.0310  203.7390  152.3570 C   0  0  0  0  0  3  0  0  0  0  0  0
  161.1270  209.2880  153.4240 C   0  0  0  0  0  3  0  0  0  0  0  0
  161.8690  209.8210  151.1870 C   0  0  0  0  0  0  0  0  0  0  0  0
  162.2290  210.9010  150.2420 C   0  0  0  0  0  3  0  0  0  0  0  0
  160.1230  207.3610  155.3860 C   0  0  0  0  0  2  0  0  0  0  0  0
  161.9510  207.7040  156.8800 O   0  0  0  0  0  1  0  0  0  0  0  0
  160.9730  208.3700  156.1400 C   0  0  2  0  0  3  0  0  0  0  0  0
  160.0860  209.1800  157.0700 C   0  0  0  0  0  2  0  0  0  0  0  0
  158.8170  212.4530  155.2510 C   0  0  0  0  0  0  0  0  0  0  0  0
  161.8670  211.6280  157.0290 O   0  0  0  0  0  1  0  0  0  0  0  0
  157.9900  213.4140  154.4760 C   0  0  0  0  0  1  0  0  0  0  0  0
  158.3610  210.8770  155.6290 S   0  0  0  0  0  0  0  0  0  0  0  0
  160.6090  211.6120  156.4390 C   0  0  0  0  0  0  0  0  0  0  0  0
  159.7710  210.5060  156.4660 C   0  0  0  0  0  0  0  0  0  0  0  0
  160.0810  212.7160  155.7600 C   0  0  0  0  0  3  0  0  0  0  0  0
  1 14  2  0  0  0  0
  1  6  1  0  0  0  0
  2 13  1  0  0  0  0
  3 19  1  0  0  0  0
  3  2  2  0  0  0  0
  4  7  1  0  0  0  0
  5  2  1  0  0  0  0
  5 16  2  0  0  0  0
  6 17  2  0  0  0  0
  7  3  1  0  0  0  0
  8 21  1  0  0  0  0
  9  1  1  0  0  0  0
 10 18  1  0  0  0  0
 11  4  2  0  0  0  0
 11 15  1  0  0  0  0
 12  8  1  0  0  0  0
 13 18  2  0  0  0  0
 13  8  1  0  0  0  0
 14  5  1  0  0  0  0
 15 20  2  0  0  0  0
 16 12  1  0  0  0  0
 17 16  1  0  0  0  0
 19 10  2  0  0  0  0
 20 19  1  0  0  0  0
 21 23  1  0  0  0  0
 23 22  1  1  0  0  0
 23 24  1  0  0  0  0
 25 28  1  0  0  0  0
 25 31  2  0  0  0  0
 27 25  1  0  0  0  0
 28 30  1  0  0  0  0
 29 30  2  0  0  0  0
 29 26  1  0  0  0  0
 30 24  1  0  0  0  0
 31 29  1  0  0  0  0
M  END
>  <MODEL>
5

>  <REMARK>
 VINA RESULT:      -8.1      2.420      4.011
  Name = 
  4 active torsions:
  status: ('A' for Active; 'I' for Inactive)
    1  A    between atoms: C_3  and  C_9
    2  A    between atoms: C_3  and  C_22
    3  A    between atoms: C_9  and  C_23
    4  A    between atoms: N_15  and  C_23
                            x       y       z     vdW  Elec       q    Type
                         _______ _______ _______ _____ _____    ______ ____

>  <TORSDO>
F 4

$$$$
=
 OpenBabel11052422233D

 31 35  0  0  1  0  0  0  0  0999 V2000
  161.9480  206.3620  146.7770 C   0  0  0  0  0  0  0  0  0  0  0  0
  161.1110  204.6970  150.1130 C   0  0  0  0  0  0  0  0  0  0  0  0
  160.8230  203.3310  149.8240 C   0  0  0  0  0  0  0  0  0  0  0  0
  161.4500  201.8890  147.9160 C   0  0  0  0  0  3  0  0  0  0  0  0
  161.3640  205.7330  149.0600 C   0  0  0  0  0  0  0  0  0  0  0  0
  161.9450  207.7100  147.1360 C   0  0  0  0  0  3  0  0  0  0  0  0
  160.4760  202.8910  148.4350 C   0  0  0  0  0  2  0  0  0  0  0  0
  161.4020  206.5010  151.7830 N   0  0  0  0  0  0  0  0  0  0  0  0
  162.2410  205.9830  145.4380 N   0  0  0  0  0  1  0  0  0  0  0  0
  160.8320  202.8300  152.2000 C   0  0  0  0  0  3  0  0  0  0  0  0
  161.5810  200.6760  148.4490 C   0  0  0  0  0  3  0  0  0  0  0  0
  161.0810  207.5390  150.8100 C   0  0  0  0  0  2  0  0  0  0  0  0
  161.1940  205.1100  151.4640 C   0  0  0  0  0  0  0  0  0  0  0  0
  161.6670  205.3850  147.7330 C   0  0  0  0  0  3  0  0  0  0  0  0
  160.8600  200.2030  149.6440 C   0  0  0  0  0  3  0  0  0  0  0  0
  161.3950  207.1000  149.4160 C   0  0  0  0  0  0  0  0  0  0  0  0
  161.6680  208.0770  148.4530 C   0  0  0  0  0  3  0  0  0  0  0  0
  161.0620  204.1680  152.4890 C   0  0  0  0  0  3  0  0  0  0  0  0
  160.7200  202.3960  150.8820 C   0  0  0  0  0  0  0  0  0  0  0  0
  160.4820  200.9490  150.6880 C   0  0  0  0  0  3  0  0  0  0  0  0
  161.7900  206.9320  153.1220 C   0  0  0  0  0  2  0  0  0  0  0  0
  161.5810  209.2760  153.5130 O   0  0  0  0  0  1  0  0  0  0  0  0
  160.8960  208.0630  153.6020 C   0  0  2  0  0  3  0  0  0  0  0  0
  160.4890  207.8070  155.0420 C   0  0  0  0  0  2  0  0  0  0  0  0
  159.7700  211.3320  156.6830 C   0  0  0  0  0  0  0  0  0  0  0  0
  162.4300  208.9010  157.0910 O   0  0  0  0  0  1  0  0  0  0  0  0
  159.1510  212.6400  157.0180 C   0  0  0  0  0  1  0  0  0  0  0  0
  159.1450  210.2230  155.5820 S   0  0  0  0  0  0  0  0  0  0  0  0
  161.2840  209.5880  156.7100 C   0  0  0  0  0  0  0  0  0  0  0  0
  160.3730  209.0920  155.7880 C   0  0  0  0  0  0  0  0  0  0  0  0
  160.9540  210.8470  157.2240 C   0  0  0  0  0  3  0  0  0  0  0  0
  1  6  2  0  0  0  0
  1 14  1  0  0  0  0
  2 13  1  0  0  0  0
  3  2  2  0  0  0  0
  3 19  1  0  0  0  0
  4  7  1  0  0  0  0
  4 11  2  0  0  0  0
  5 16  1  0  0  0  0
  5  2  1  0  0  0  0
  6 17  1  0  0  0  0
  7  3  1  0  0  0  0
  8 21  1  0  0  0  0
  9  1  1  0  0  0  0
 10 18  1  0  0  0  0
 11 15  1  0  0  0  0
 12  8  1  0  0  0  0
 13  8  1  0  0  0  0
 13 18  2  0  0  0  0
 14  5  2  0  0  0  0
 15 20  2  0  0  0  0
 16 12  1  0  0  0  0
 17 16  2  0  0  0  0
 19 10  2  0  0  0  0
 20 19  1  0  0  0  0
 21 23  1  0  0  0  0
 23 22  1  1  0  0  0
 23 24  1  0  0  0  0
 24 30  1  0  0  0  0
 25 27  1  0  0  0  0
 25 31  2  0  0  0  0
 28 30  1  0  0  0  0
 28 25  1  0  0  0  0
 29 26  1  0  0  0  0
 29 31  1  0  0  0  0
 30 29  2  0  0  0  0
M  END
>  <MODEL>
6

>  <REMARK>
 VINA RESULT:      -8.0      2.056      4.214
  Name = 
  4 active torsions:
  status: ('A' for Active; 'I' for Inactive)
    1  A    between atoms: C_3  and  C_9
    2  A    between atoms: C_3  and  C_22
    3  A    between atoms: C_9  and  C_23
    4  A    between atoms: N_15  and  C_23
                            x       y       z     vdW  Elec       q    Type
                         _______ _______ _______ _____ _____    ______ ____

>  <TORSDO>
F 4

$$$$
=
 OpenBabel11052422233D

 31 35  0  0  1  0  0  0  0  0999 V2000
  160.7900  202.0950  150.6670 C   0  0  0  0  0  0  0  0  0  0  0  0
  161.4660  205.4730  149.0120 C   0  0  0  0  0  0  0  0  0  0  0  0
  161.6920  205.2090  147.6290 C   0  0  0  0  0  0  0  0  0  0  0  0
  161.0370  203.3070  146.1910 C   0  0  0  0  0  3  0  0  0  0  0  0
  161.2890  204.4000  150.0440 C   0  0  0  0  0  0  0  0  0  0  0  0
  160.8520  202.4360  152.0180 C   0  0  0  0  0  3  0  0  0  0  0  0
  162.0480  203.8340  147.1520 C   0  0  0  0  0  2  0  0  0  0  0  0
  161.2280  207.1100  150.8520 N   0  0  0  0  0  0  0  0  0  0  0  0
  160.5090  200.7550  150.2830 N   0  0  0  0  0  1  0  0  0  0  0  0
  161.6040  207.5910  147.1640 C   0  0  0  0  0  3  0  0  0  0  0  0
  160.8340  203.8520  144.9950 C   0  0  0  0  0  3  0  0  0  0  0  0
  161.6220  206.1310  151.8590 C   0  0  0  0  0  2  0  0  0  0  0  0
  161.3730  206.8150  149.4480 C   0  0  0  0  0  0  0  0  0  0  0  0
  161.0000  203.0710  149.6910 C   0  0  0  0  0  3  0  0  0  0  0  0
  161.5020  205.0710  144.5040 C   0  0  0  0  0  3  0  0  0  0  0  0
  161.3180  204.7370  151.4150 C   0  0  0  0  0  0  0  0  0  0  0  0
  161.1170  203.7540  152.3900 C   0  0  0  0  0  3  0  0  0  0  0  0
  161.4340  207.8560  148.5160 C   0  0  0  0  0  3  0  0  0  0  0  0
  161.7240  206.2810  146.7060 C   0  0  0  0  0  0  0  0  0  0  0  0
  161.8930  206.1130  145.2460 C   0  0  0  0  0  3  0  0  0  0  0  0
  160.8310  208.4330  151.3220 C   0  0  0  0  0  2  0  0  0  0  0  0
  163.0390  209.2850  151.6280 O   0  0  0  0  0  1  0  0  0  0  0  0
  161.8560  209.4780  150.9120 C   0  0  2  0  0  3  0  0  0  0  0  0
  161.3040  210.8640  151.1950 C   0  0  0  0  0  2  0  0  0  0  0  0
  161.8560  212.7860  147.7840 C   0  0  0  0  0  0  0  0  0  0  0  0
  159.7740  213.4260  150.6820 O   0  0  0  0  0  1  0  0  0  0  0  0
  162.3580  213.1730  146.4400 C   0  0  0  0  0  1  0  0  0  0  0  0
  162.3340  211.4120  148.6310 S   0  0  0  0  0  0  0  0  0  0  0  0
  160.6600  212.8900  149.7560 C   0  0  0  0  0  0  0  0  0  0  0  0
  161.3540  211.7060  149.9660 C   0  0  0  0  0  0  0  0  0  0  0  0
  160.9310  213.5060  148.5290 C   0  0  0  0  0  3  0  0  0  0  0  0
  1  6  1  0  0  0  0
  2 13  1  0  0  0  0
  2  5  1  0  0  0  0
  3  2  2  0  0  0  0
  4  7  1  0  0  0  0
  5 16  2  0  0  0  0
  6 17  2  0  0  0  0
  7  3  1  0  0  0  0
  8 21  1  0  0  0  0
  8 12  1  0  0  0  0
  9  1  1  0  0  0  0
 10 18  1  0  0  0  0
 11  4  2  0  0  0  0
 13  8  1  0  0  0  0
 14  5  1  0  0  0  0
 14  1  2  0  0  0  0
 15 11  1  0  0  0  0
 15 20  2  0  0  0  0
 16 12  1  0  0  0  0
 16 17  1  0  0  0  0
 18 13  2  0  0  0  0
 19 10  2  0  0  0  0
 19  3  1  0  0  0  0
 20 19  1  0  0  0  0
 23 24  1  0  0  0  0
 23 21  1  0  0  0  0
 23 22  1  1  0  0  0
 25 31  2  0  0  0  0
 25 28  1  0  0  0  0
 27 25  1  0  0  0  0
 28 30  1  0  0  0  0
 29 30  2  0  0  0  0
 29 26  1  0  0  0  0
 30 24  1  0  0  0  0
 31 29  1  0  0  0  0
M  END
>  <MODEL>
7

>  <REMARK>
 VINA RESULT:      -7.9      2.537      3.119
  Name = 
  4 active torsions:
  status: ('A' for Active; 'I' for Inactive)
    1  A    between atoms: C_3  and  C_9
    2  A    between atoms: C_3  and  C_22
    3  A    between atoms: C_9  and  C_23
    4  A    between atoms: N_15  and  C_23
                            x       y       z     vdW  Elec       q    Type
                         _______ _______ _______ _____ _____    ______ ____

>  <TORSDO>
F 4

$$$$
=
 OpenBabel11052422233D

 31 35  0  0  1  0  0  0  0  0999 V2000
  160.5040  201.8180  150.4710 C   0  0  0  0  0  0  0  0  0  0  0  0
  161.4280  205.2820  149.1460 C   0  0  0  0  0  0  0  0  0  0  0  0
  161.6840  205.1280  147.7520 C   0  0  0  0  0  0  0  0  0  0  0  0
  160.9700  203.4030  146.1310 C   0  0  0  0  0  3  0  0  0  0  0  0
  161.1550  204.1340  150.0720 C   0  0  0  0  0  0  0  0  0  0  0  0
  160.5400  202.0330  151.8480 C   0  0  0  0  0  3  0  0  0  0  0  0
  161.9770  203.7820  147.1630 C   0  0  0  0  0  2  0  0  0  0  0  0
  161.2220  206.7610  151.1190 N   0  0  0  0  0  0  0  0  0  0  0  0
  160.1590  200.5360  149.9600 N   0  0  0  0  0  1  0  0  0  0  0  0
  161.7480  207.5430  147.5020 C   0  0  0  0  0  3  0  0  0  0  0  0
  160.8380  204.0630  144.9830 C   0  0  0  0  0  3  0  0  0  0  0  0
  161.5250  205.6750  152.0440 C   0  0  0  0  0  2  0  0  0  0  0  0
  161.3970  206.5830  149.6990 C   0  0  0  0  0  0  0  0  0  0  0  0
  160.8020  202.8620  149.5930 C   0  0  0  0  0  3  0  0  0  0  0  0
  161.5910  205.2780  144.6230 C   0  0  0  0  0  3  0  0  0  0  0  0
  161.1570  204.3460  151.4680 C   0  0  0  0  0  0  0  0  0  0  0  0
  160.8680  203.2960  152.3450 C   0  0  0  0  0  3  0  0  0  0  0  0
  161.5490  207.6970  148.8660 C   0  0  0  0  0  3  0  0  0  0  0  0
  161.8080  206.2740  146.9310 C   0  0  0  0  0  0  0  0  0  0  0  0
  162.0170  206.2260  145.4670 C   0  0  0  0  0  3  0  0  0  0  0  0
  160.8870  208.0600  151.6950 C   0  0  0  0  0  2  0  0  0  0  0  0
  160.6830  206.9360  153.7900 O   0  0  0  0  0  1  0  0  0  0  0  0
  161.1960  208.0840  153.1830 C   0  0  2  0  0  3  0  0  0  0  0  0
  160.5720  209.3200  153.8070 C   0  0  0  0  0  2  0  0  0  0  0  0
  163.0340  210.6910  156.5810 C   0  0  0  0  0  0  0  0  0  0  0  0
  160.0740  208.6000  156.7050 O   0  0  0  0  0  1  0  0  0  0  0  0
  164.1640  211.3750  157.2610 C   0  0  0  0  0  1  0  0  0  0  0  0
  162.7460  210.7200  154.9230 S   0  0  0  0  0  0  0  0  0  0  0  0
  161.1340  209.4060  156.3100 C   0  0  0  0  0  0  0  0  0  0  0  0
  161.3660  209.7630  154.9880 C   0  0  0  0  0  0  0  0  0  0  0  0
  162.0650  209.9250  157.2170 C   0  0  0  0  0  3  0  0  0  0  0  0
  1  6  1  0  0  0  0
  2 13  1  0  0  0  0
  2  5  1  0  0  0  0
  3  2  2  0  0  0  0
  4  7  1  0  0  0  0
  5 16  2  0  0  0  0
  6 17  2  0  0  0  0
  7  3  1  0  0  0  0
  8 21  1  0  0  0  0
  8 12  1  0  0  0  0
  9  1  1  0  0  0  0
 10 18  1  0  0  0  0
 11  4  2  0  0  0  0
 13  8  1  0  0  0  0
 14  5  1  0  0  0  0
 14  1  2  0  0  0  0
 15 11  1  0  0  0  0
 15 20  2  0  0  0  0
 16 12  1  0  0  0  0
 16 17  1  0  0  0  0
 18 13  2  0  0  0  0
 19 10  2  0  0  0  0
 19  3  1  0  0  0  0
 20 19  1  0  0  0  0
 21 23  1  0  0  0  0
 23 22  1  1  0  0  0
 23 24  1  0  0  0  0
 24 30  1  0  0  0  0
 25 31  2  0  0  0  0
 25 27  1  0  0  0  0
 28 30  1  0  0  0  0
 28 25  1  0  0  0  0
 29 26  1  0  0  0  0
 29 31  1  0  0  0  0
 30 29  2  0  0  0  0
M  END
>  <MODEL>
8

>  <REMARK>
 VINA RESULT:      -7.8      1.571      2.007
  Name = 
  4 active torsions:
  status: ('A' for Active; 'I' for Inactive)
    1  A    between atoms: C_3  and  C_9
    2  A    between atoms: C_3  and  C_22
    3  A    between atoms: C_9  and  C_23
    4  A    between atoms: N_15  and  C_23
                            x       y       z     vdW  Elec       q    Type
                         _______ _______ _______ _____ _____    ______ ____

>  <TORSDO>
F 4

$$$$
=
 OpenBabel11052422233D

 31 35  0  0  1  0  0  0  0  0999 V2000
  160.8990  204.0490  152.1440 C   0  0  0  0  0  0  0  0  0  0  0  0
  161.5520  205.4740  148.6590 C   0  0  0  0  0  0  0  0  0  0  0  0
  161.5460  204.3670  147.7600 C   0  0  0  0  0  0  0  0  0  0  0  0
  160.5510  202.1110  147.9390 C   0  0  0  0  0  3  0  0  0  0  0  0
  161.4580  205.3340  150.1480 C   0  0  0  0  0  0  0  0  0  0  0  0
  161.1880  205.1500  152.9480 C   0  0  0  0  0  3  0  0  0  0  0  0
  161.7300  202.9650  148.2580 C   0  0  0  0  0  2  0  0  0  0  0  0
  161.7100  207.9170  149.0210 N   0  0  0  0  0  0  0  0  0  0  0  0
  160.4700  202.8290  152.7360 N   0  0  0  0  0  1  0  0  0  0  0  0
  161.5570  205.9000  145.8770 C   0  0  0  0  0  3  0  0  0  0  0  0
  160.2070  201.8020  146.6910 C   0  0  0  0  0  3  0  0  0  0  0  0
  162.1820  207.7470  150.3900 C   0  0  0  0  0  2  0  0  0  0  0  0
  161.6200  206.7840  148.1320 C   0  0  0  0  0  0  0  0  0  0  0  0
  161.0260  204.1440  150.7570 C   0  0  0  0  0  3  0  0  0  0  0  0
  160.8770  202.3190  145.4840 C   0  0  0  0  0  3  0  0  0  0  0  0
  161.7170  206.4510  150.9730 C   0  0  0  0  0  0  0  0  0  0  0  0
  161.5980  206.3490  152.3630 C   0  0  0  0  0  3  0  0  0  0  0  0
  161.6130  206.9800  146.7470 C   0  0  0  0  0  3  0  0  0  0  0  0
  161.5140  204.5960  146.3640 C   0  0  0  0  0  0  0  0  0  0  0  0
  161.4490  203.5220  145.3490 C   0  0  0  0  0  3  0  0  0  0  0  0
  161.4830  209.2800  148.5530 C   0  0  0  0  0  2  0  0  0  0  0  0
  162.2560  209.8170  150.7450 O   0  0  0  0  0  1  0  0  0  0  0  0
  162.2230  210.2780  149.4280 C   0  0  2  0  0  3  0  0  0  0  0  0
  161.5150  211.6210  149.3700 C   0  0  0  0  0  2  0  0  0  0  0  0
  161.2970  213.0170  145.6770 C   0  0  0  0  0  0  0  0  0  0  0  0
  164.0300  212.6440  148.0310 O   0  0  0  0  0  1  0  0  0  0  0  0
  160.7860  213.4170  144.3400 C   0  0  0  0  0  1  0  0  0  0  0  0
  160.3580  212.3650  146.9120 S   0  0  0  0  0  0  0  0  0  0  0  0
  162.7930  212.6550  147.3990 C   0  0  0  0  0  0  0  0  0  0  0  0
  161.6260  212.2090  148.0050 C   0  0  0  0  0  0  0  0  0  0  0  0
  162.6200  213.1160  146.0880 C   0  0  0  0  0  3  0  0  0  0  0  0
  1  9  1  0  0  0  0
  1  6  1  0  0  0  0
  2  5  1  0  0  0  0
  3  7  1  0  0  0  0
  3  2  2  0  0  0  0
  4  7  1  0  0  0  0
  5 14  1  0  0  0  0
  5 16  2  0  0  0  0
  8 12  1  0  0  0  0
 10 19  2  0  0  0  0
 10 18  1  0  0  0  0
 11  4  2  0  0  0  0
 12 16  1  0  0  0  0
 13  2  1  0  0  0  0
 13  8  1  0  0  0  0
 14  1  2  0  0  0  0
 15 11  1  0  0  0  0
 16 17  1  0  0  0  0
 17  6  2  0  0  0  0
 18 13  2  0  0  0  0
 19  3  1  0  0  0  0
 20 15  2  0  0  0  0
 20 19  1  0  0  0  0
 21  8  1  0  0  0  0
 21 23  1  0  0  0  0
 23 22  1  1  0  0  0
 24 23  1  0  0  0  0
 25 31  2  0  0  0  0
 25 28  1  0  0  0  0
 27 25  1  0  0  0  0
 28 30  1  0  0  0  0
 29 30  2  0  0  0  0
 29 26  1  0  0  0  0
 30 24  1  0  0  0  0
 31 29  1  0  0  0  0
M  END
>  <MODEL>
9

>  <REMARK>
 VINA RESULT:      -7.8      3.300      4.479
  Name = 
  4 active torsions:
  status: ('A' for Active; 'I' for Inactive)
    1  A    between atoms: C_3  and  C_9
    2  A    between atoms: C_3  and  C_22
    3  A    between atoms: C_9  and  C_23
    4  A    between atoms: N_15  and  C_23
                            x       y       z     vdW  Elec       q    Type
                         _______ _______ _______ _____ _____    ______ ____

>  <TORSDO>
F 4

$$$$
