=
 OpenBabel11052422183D

 25 28  0  0  0  0  0  0  0  0999 V2000
  161.2800  205.6050  149.7970 N   0  0  0  0  0  0  0  0  0  0  0  0
  161.4210  206.6250  150.6920 C   0  0  0  0  0  0  0  0  0  0  0  0
  161.2960  207.0710  147.9330 C   0  0  0  0  0  3  0  0  0  0  0  0
  161.1720  204.2730  149.9480 C   0  0  0  0  0  0  0  0  0  0  0  0
  161.1360  207.1130  153.1230 C   0  0  0  0  0  0  0  0  0  0  0  0
  160.9040  201.5310  149.6900 C   0  0  0  0  0  3  0  0  0  0  0  0
  161.4570  208.1090  148.7970 N   0  0  0  0  0  0  0  0  0  0  0  0
  161.0380  203.7100  148.7050 C   0  0  0  0  0  0  0  0  0  0  0  0
  160.9010  202.3350  148.5340 C   0  0  0  0  0  3  0  0  0  0  0  0
  161.7870  209.1510  150.9790 C   0  0  0  0  0  0  0  0  0  0  0  0
  162.5720  210.1960  150.4140 N   0  0  0  0  0  1  0  0  0  0  0  0
  161.5490  206.3200  152.1360 C   0  0  0  0  0  3  0  0  0  0  0  0
  161.0400  202.1130  150.9700 C   0  0  0  0  0  3  0  0  0  0  0  0
  161.2070  205.7940  148.4620 C   0  0  0  0  0  0  0  0  0  0  0  0
  161.0570  204.6540  147.7410 N   0  0  0  0  0  0  0  0  0  0  0  0
  161.2940  209.3230  152.1690 N   0  0  0  0  0  0  0  0  0  0  0  0
  161.1760  203.5060  151.1130 C   0  0  0  0  0  3  0  0  0  0  0  0
  160.4120  208.3830  152.8420 C   0  0  0  0  0  2  0  0  0  0  0  0
  161.5170  207.9440  150.1560 C   0  0  0  0  0  0  0  0  0  0  0  0
  161.3800  206.7070  154.5380 C   0  0  0  0  0  2  0  0  0  0  0  0
  159.4540  207.3570  155.8780 C   0  0  0  0  0  2  0  0  0  0  0  0
  160.6910  207.6370  155.4870 C   0  0  0  0  0  0  0  0  0  0  0  0
  161.3930  208.8120  156.0290 C   0  0  0  0  0  0  0  0  0  0  0  0
  161.0090  210.0960  155.6570 O   0  0  0  0  0  0  0  0  0  0  0  0
  162.3510  208.6640  156.8330 O   0  0  0  0  0  1  0  0  0  0  0  0
  1  4  1  0  0  0  0
  1  2  1  0  0  0  0
  2 12  1  0  0  0  0
  3 14  1  0  0  0  0
  3  7  2  0  0  0  0
  4 17  1  0  0  0  0
  5 20  1  0  0  0  0
  6 13  1  0  0  0  0
  7 19  1  0  0  0  0
  8  4  2  0  0  0  0
  9  8  1  0  0  0  0
  9  6  2  0  0  0  0
 10 16  2  0  0  0  0
 11 10  1  0  0  0  0
 12  5  2  0  0  0  0
 13 17  2  0  0  0  0
 14  1  1  0  0  0  0
 15 14  2  0  0  0  0
 15  8  1  0  0  0  0
 16 18  1  0  0  0  0
 18  5  1  0  0  0  0
 19  2  2  0  0  0  0
 19 10  1  0  0  0  0
 20 22  1  0  0  0  0
 22 21  2  0  0  0  0
 22 23  1  0  0  0  0
 23 25  1  0  0  0  0
 24 23  2  0  0  0  0
M  END
>  <MODEL>
1

>  <REMARK>
 VINA RESULT:      -9.2      0.000      0.000
  Name = 
  3 active torsions:
  status: ('A' for Active; 'I' for Inactive)
    1  A    between atoms: C_2  and  C_25
    2  A    between atoms: C_6  and  C_15
    3  A    between atoms: C_15  and  C_25
                            x       y       z     vdW  Elec       q    Type
                         _______ _______ _______ _____ _____    ______ ____

>  <TORSDO>
F 3

$$$$
=
 OpenBabel11052422183D

 25 28  0  0  0  0  0  0  0  0999 V2000
  161.1070  204.4800  150.7840 N   0  0  0  0  0  0  0  0  0  0  0  0
  161.1870  205.7820  150.3830 C   0  0  0  0  0  0  0  0  0  0  0  0
  161.1760  205.0530  153.0840 C   0  0  0  0  0  3  0  0  0  0  0  0
  161.0250  203.3240  150.1020 C   0  0  0  0  0  0  0  0  0  0  0  0
  161.7180  207.1500  148.3640 C   0  0  0  0  0  0  0  0  0  0  0  0
  160.8600  200.7060  149.2190 C   0  0  0  0  0  3  0  0  0  0  0  0
  161.2360  206.3630  152.7180 N   0  0  0  0  0  0  0  0  0  0  0  0
  160.9830  202.2940  151.0070 C   0  0  0  0  0  0  0  0  0  0  0  0
  160.8980  200.9650  150.6020 C   0  0  0  0  0  3  0  0  0  0  0  0
  161.2260  208.2320  151.1510 C   0  0  0  0  0  0  0  0  0  0  0  0
  160.5680  209.0770  152.0880 N   0  0  0  0  0  1  0  0  0  0  0  0
  161.1210  206.1090  148.9400 C   0  0  0  0  0  3  0  0  0  0  0  0
  160.9060  201.7680  148.2870 C   0  0  0  0  0  3  0  0  0  0  0  0
  161.1110  204.1010  152.0800 C   0  0  0  0  0  0  0  0  0  0  0  0
  161.0340  202.7600  152.2730 N   0  0  0  0  0  0  0  0  0  0  0  0
  161.8240  208.7830  150.1370 N   0  0  0  0  0  0  0  0  0  0  0  0
  160.9910  203.1020  148.7250 C   0  0  0  0  0  3  0  0  0  0  0  0
  162.6030  208.0600  149.1440 C   0  0  0  0  0  2  0  0  0  0  0  0
  161.2520  206.7700  151.4090 C   0  0  0  0  0  0  0  0  0  0  0  0
  161.5200  207.3950  146.9050 C   0  0  0  0  0  2  0  0  0  0  0  0
  162.7940  205.3790  146.4160 C   0  0  0  0  0  2  0  0  0  0  0  0
  161.7510  206.1440  146.1180 C   0  0  0  0  0  0  0  0  0  0  0  0
  160.8040  205.7310  145.0680 C   0  0  0  0  0  0  0  0  0  0  0  0
  161.2610  205.1150  143.9090 O   0  0  0  0  0  0  0  0  0  0  0  0
  159.5700  205.9390  145.2110 O   0  0  0  0  0  1  0  0  0  0  0  0
  1 14  1  0  0  0  0
  2  1  1  0  0  0  0
  2 19  2  0  0  0  0
  4  1  1  0  0  0  0
  4  8  1  0  0  0  0
  5 12  2  0  0  0  0
  5 18  1  0  0  0  0
  6  9  1  0  0  0  0
  7  3  2  0  0  0  0
  8 15  1  0  0  0  0
  9  8  2  0  0  0  0
 10 19  1  0  0  0  0
 10 11  1  0  0  0  0
 12  2  1  0  0  0  0
 13 17  1  0  0  0  0
 13  6  2  0  0  0  0
 14 15  2  0  0  0  0
 14  3  1  0  0  0  0
 16 10  2  0  0  0  0
 17  4  2  0  0  0  0
 18 16  1  0  0  0  0
 19  7  1  0  0  0  0
 20  5  1  0  0  0  0
 22 21  2  0  0  0  0
 22 20  1  0  0  0  0
 23 25  1  0  0  0  0
 23 22  1  0  0  0  0
 24 23  2  0  0  0  0
M  END
>  <MODEL>
2

>  <REMARK>
 VINA RESULT:      -9.0      3.832      5.958
  Name = 
  3 active torsions:
  status: ('A' for Active; 'I' for Inactive)
    1  A    between atoms: C_2  and  C_25
    2  A    between atoms: C_6  and  C_15
    3  A    between atoms: C_15  and  C_25
                            x       y       z     vdW  Elec       q    Type
                         _______ _______ _______ _____ _____    ______ ____

>  <TORSDO>
F 3

$$$$
=
 OpenBabel11052422183D

 25 28  0  0  0  0  0  0  0  0999 V2000
  161.3060  205.6490  149.7080 N   0  0  0  0  0  0  0  0  0  0  0  0
  161.4510  206.7410  150.5140 C   0  0  0  0  0  0  0  0  0  0  0  0
  161.2760  206.9580  147.7300 C   0  0  0  0  0  3  0  0  0  0  0  0
  161.2130  204.3340  149.9690 C   0  0  0  0  0  0  0  0  0  0  0  0
  161.2010  207.4230  152.9020 C   0  0  0  0  0  0  0  0  0  0  0  0
  160.9680  201.5780  149.9410 C   0  0  0  0  0  3  0  0  0  0  0  0
  161.4420  208.0650  148.5040 N   0  0  0  0  0  0  0  0  0  0  0  0
  161.0640  203.6690  148.7790 C   0  0  0  0  0  0  0  0  0  0  0  0
  160.9390  202.2840  148.7230 C   0  0  0  0  0  3  0  0  0  0  0  0
  161.7970  209.2850  150.5870 C   0  0  0  0  0  0  0  0  0  0  0  0
  162.5620  210.2870  149.9260 N   0  0  0  0  0  1  0  0  0  0  0  0
  161.6060  206.5560  151.9750 C   0  0  0  0  0  3  0  0  0  0  0  0
  161.1190  202.2640  151.1670 C   0  0  0  0  0  3  0  0  0  0  0  0
  161.2090  205.7270  148.3630 C   0  0  0  0  0  0  0  0  0  0  0  0
  161.0590  204.5310  147.7400 N   0  0  0  0  0  0  0  0  0  0  0  0
  161.3220  209.5490  151.7680 N   0  0  0  0  0  0  0  0  0  0  0  0
  161.2440  203.6650  151.1930 C   0  0  0  0  0  3  0  0  0  0  0  0
  160.4600  208.6600  152.5300 C   0  0  0  0  0  2  0  0  0  0  0  0
  161.5250  208.0120  149.8710 C   0  0  0  0  0  0  0  0  0  0  0  0
  161.4720  207.1370  154.3410 C   0  0  0  0  0  2  0  0  0  0  0  0
  161.9230  209.3100  155.3430 C   0  0  0  0  0  2  0  0  0  0  0  0
  161.0770  208.2970  155.2000 C   0  0  0  0  0  0  0  0  0  0  0  0
  159.7460  208.3470  155.8290 C   0  0  0  0  0  0  0  0  0  0  0  0
  159.0900  209.5610  155.9940 O   0  0  0  0  0  0  0  0  0  0  0  0
  159.1930  207.2880  156.2270 O   0  0  0  0  0  1  0  0  0  0  0  0
  1  4  1  0  0  0  0
  1  2  1  0  0  0  0
  2 12  1  0  0  0  0
  3 14  1  0  0  0  0
  3  7  2  0  0  0  0
  4 17  1  0  0  0  0
  5 20  1  0  0  0  0
  6 13  1  0  0  0  0
  7 19  1  0  0  0  0
  8  4  2  0  0  0  0
  9  8  1  0  0  0  0
  9  6  2  0  0  0  0
 10 16  2  0  0  0  0
 11 10  1  0  0  0  0
 12  5  2  0  0  0  0
 13 17  2  0  0  0  0
 14  1  1  0  0  0  0
 15 14  2  0  0  0  0
 15  8  1  0  0  0  0
 16 18  1  0  0  0  0
 18  5  1  0  0  0  0
 19  2  2  0  0  0  0
 19 10  1  0  0  0  0
 20 22  1  0  0  0  0
 22 21  2  0  0  0  0
 22 23  1  0  0  0  0
 23 24  2  0  0  0  0
 23 25  1  0  0  0  0
M  END
>  <MODEL>
3

>  <REMARK>
 VINA RESULT:      -8.5      0.912      1.131
  Name = 
  3 active torsions:
  status: ('A' for Active; 'I' for Inactive)
    1  A    between atoms: C_2  and  C_25
    2  A    between atoms: C_6  and  C_15
    3  A    between atoms: C_15  and  C_25
                            x       y       z     vdW  Elec       q    Type
                         _______ _______ _______ _____ _____    ______ ____

>  <TORSDO>
F 3

$$$$
=
 OpenBabel11052422183D

 25 28  0  0  0  0  0  0  0  0999 V2000
  161.4440  208.2090  150.7880 N   0  0  0  0  0  0  0  0  0  0  0  0
  161.1850  207.1080  150.0240 C   0  0  0  0  0  0  0  0  0  0  0  0
  162.1060  209.5070  148.9170 C   0  0  0  0  0  3  0  0  0  0  0  0
  161.3520  208.4380  152.1100 C   0  0  0  0  0  0  0  0  0  0  0  0
  160.8520  204.6440  150.2390 C   0  0  0  0  0  0  0  0  0  0  0  0
  161.3610  209.4290  154.6940 C   0  0  0  0  0  3  0  0  0  0  0  0
  161.8370  208.4340  148.1240 N   0  0  0  0  0  0  0  0  0  0  0  0
  161.7530  209.7280  152.3510 C   0  0  0  0  0  0  0  0  0  0  0  0
  161.7710  210.2620  153.6360 C   0  0  0  0  0  3  0  0  0  0  0  0
  161.0500  206.1780  147.6340 C   0  0  0  0  0  0  0  0  0  0  0  0
  160.5740  206.5710  146.3510 N   0  0  0  0  0  1  0  0  0  0  0  0
  160.6350  205.8890  150.6600 C   0  0  0  0  0  3  0  0  0  0  0  0
  160.9510  208.1000  154.4450 C   0  0  0  0  0  3  0  0  0  0  0  0
  161.8990  209.3750  150.2810 C   0  0  0  0  0  0  0  0  0  0  0  0
  162.1060  210.3470  151.2040 N   0  0  0  0  0  0  0  0  0  0  0  0
  161.2160  204.9100  147.8690 N   0  0  0  0  0  0  0  0  0  0  0  0
  160.9420  207.5860  153.1360 C   0  0  0  0  0  3  0  0  0  0  0  0
  161.7680  204.3640  149.0990 C   0  0  0  0  0  2  0  0  0  0  0  0
  161.3920  207.2360  148.6190 C   0  0  0  0  0  0  0  0  0  0  0  0
  160.1870  203.5070  150.9410 C   0  0  0  0  0  2  0  0  0  0  0  0
  161.8300  201.7940  151.4840 C   0  0  0  0  0  2  0  0  0  0  0  0
  160.8870  202.2170  150.6500 C   0  0  0  0  0  0  0  0  0  0  0  0
  160.4970  201.3950  149.4920 C   0  0  0  0  0  0  0  0  0  0  0  0
  161.4470  200.6450  148.8090 O   0  0  0  0  0  0  0  0  0  0  0  0
  159.2980  201.3700  149.1080 O   0  0  0  0  0  1  0  0  0  0  0  0
  1  4  1  0  0  0  0
  2 12  1  0  0  0  0
  2  1  1  0  0  0  0
  3 14  1  0  0  0  0
  4  8  2  0  0  0  0
  4 17  1  0  0  0  0
  5 12  2  0  0  0  0
  5 20  1  0  0  0  0
  7 19  1  0  0  0  0
  7  3  2  0  0  0  0
  8  9  1  0  0  0  0
  9  6  2  0  0  0  0
 10 16  2  0  0  0  0
 10 19  1  0  0  0  0
 11 10  1  0  0  0  0
 13  6  1  0  0  0  0
 14  1  1  0  0  0  0
 14 15  2  0  0  0  0
 15  8  1  0  0  0  0
 16 18  1  0  0  0  0
 17 13  2  0  0  0  0
 18  5  1  0  0  0  0
 19  2  2  0  0  0  0
 22 20  1  0  0  0  0
 22 21  2  0  0  0  0
 23 22  1  0  0  0  0
 24 23  2  0  0  0  0
 25 23  1  0  0  0  0
M  END
>  <MODEL>
4

>  <REMARK>
 VINA RESULT:      -8.4      3.391      6.425
  Name = 
  3 active torsions:
  status: ('A' for Active; 'I' for Inactive)
    1  A    between atoms: C_2  and  C_25
    2  A    between atoms: C_6  and  C_15
    3  A    between atoms: C_15  and  C_25
                            x       y       z     vdW  Elec       q    Type
                         _______ _______ _______ _____ _____    ______ ____

>  <TORSDO>
F 3

$$$$
=
 OpenBabel11052422183D

 25 28  0  0  0  0  0  0  0  0999 V2000
  161.3210  205.3520  150.3330 N   0  0  0  0  0  0  0  0  0  0  0  0
  161.2720  204.1400  149.7070 C   0  0  0  0  0  0  0  0  0  0  0  0
  160.8310  204.4150  152.4560 C   0  0  0  0  0  3  0  0  0  0  0  0
  161.5570  206.5960  149.8830 C   0  0  0  0  0  0  0  0  0  0  0  0
  161.0620  203.1540  147.4240 C   0  0  0  0  0  0  0  0  0  0  0  0
  161.9560  209.3080  149.5020 C   0  0  0  0  0  3  0  0  0  0  0  0
  160.7960  203.1890  151.8660 N   0  0  0  0  0  0  0  0  0  0  0  0
  161.4720  207.4600  150.9450 C   0  0  0  0  0  0  0  0  0  0  0  0
  161.6670  208.8300  150.7940 C   0  0  0  0  0  3  0  0  0  0  0  0
  161.0230  201.6030  150.0260 C   0  0  0  0  0  0  0  0  0  0  0  0
  161.4800  200.5780  150.9020 N   0  0  0  0  0  1  0  0  0  0  0  0
  161.5820  204.0500  148.2610 C   0  0  0  0  0  3  0  0  0  0  0  0
  162.0410  208.4180  148.4080 C   0  0  0  0  0  3  0  0  0  0  0  0
  161.1010  205.5130  151.6550 C   0  0  0  0  0  0  0  0  0  0  0  0
  161.1840  206.7970  152.0860 N   0  0  0  0  0  0  0  0  0  0  0  0
  160.5960  201.2620  148.8470 N   0  0  0  0  0  0  0  0  0  0  0  0
  161.8400  207.0380  148.5900 C   0  0  0  0  0  3  0  0  0  0  0  0
  160.0270  202.1840  147.8760 C   0  0  0  0  0  2  0  0  0  0  0  0
  160.9980  203.0030  150.5240 C   0  0  0  0  0  0  0  0  0  0  0  0
  161.5060  203.1400  145.9990 C   0  0  0  0  0  2  0  0  0  0  0  0
  163.3700  204.7030  145.8990 C   0  0  0  0  0  2  0  0  0  0  0  0
  162.0980  204.4580  145.6100 C   0  0  0  0  0  0  0  0  0  0  0  0
  161.3020  205.4470  144.8630 C   0  0  0  0  0  0  0  0  0  0  0  0
  160.3310  206.2030  145.5090 O   0  0  0  0  0  1  0  0  0  0  0  0
  161.4920  205.6120  143.6290 O   0  0  0  0  0  0  0  0  0  0  0  0
  1 14  1  0  0  0  0
  2  1  1  0  0  0  0
  2 19  2  0  0  0  0
  4  1  1  0  0  0  0
  4  8  1  0  0  0  0
  5 18  1  0  0  0  0
  5 12  2  0  0  0  0
  6  9  1  0  0  0  0
  7  3  2  0  0  0  0
  8 15  1  0  0  0  0
  9  8  2  0  0  0  0
 10 19  1  0  0  0  0
 10 11  1  0  0  0  0
 12  2  1  0  0  0  0
 13 17  1  0  0  0  0
 13  6  2  0  0  0  0
 14 15  2  0  0  0  0
 14  3  1  0  0  0  0
 16 10  2  0  0  0  0
 17  4  2  0  0  0  0
 18 16  1  0  0  0  0
 19  7  1  0  0  0  0
 20  5  1  0  0  0  0
 22 21  2  0  0  0  0
 22 20  1  0  0  0  0
 23 24  1  0  0  0  0
 23 22  1  0  0  0  0
 25 23  2  0  0  0  0
M  END
>  <MODEL>
5

>  <REMARK>
 VINA RESULT:      -8.3      3.992      7.604
  Name = 
  3 active torsions:
  status: ('A' for Active; 'I' for Inactive)
    1  A    between atoms: C_2  and  C_25
    2  A    between atoms: C_6  and  C_15
    3  A    between atoms: C_15  and  C_25
                            x       y       z     vdW  Elec       q    Type
                         _______ _______ _______ _____ _____    ______ ____

>  <TORSDO>
F 3

$$$$
=
 OpenBabel11052422183D

 25 28  0  0  0  0  0  0  0  0999 V2000
  161.5760  206.2570  150.7820 N   0  0  0  0  0  0  0  0  0  0  0  0
  161.5010  204.9640  150.3520 C   0  0  0  0  0  0  0  0  0  0  0  0
  161.2810  205.6500  153.0550 C   0  0  0  0  0  3  0  0  0  0  0  0
  161.7490  207.4210  150.1320 C   0  0  0  0  0  0  0  0  0  0  0  0
  161.1250  203.6420  148.2690 C   0  0  0  0  0  0  0  0  0  0  0  0
  162.0600  210.0470  149.3150 C   0  0  0  0  0  3  0  0  0  0  0  0
  161.2230  204.3490  152.6620 N   0  0  0  0  0  0  0  0  0  0  0  0
  161.7330  208.4350  151.0550 C   0  0  0  0  0  0  0  0  0  0  0  0
  161.8870  209.7680  150.6840 C   0  0  0  0  0  3  0  0  0  0  0  0
  161.3310  202.5040  151.0690 C   0  0  0  0  0  0  0  0  0  0  0  0
  161.8790  201.6270  152.0480 N   0  0  0  0  0  1  0  0  0  0  0  0
  161.6930  204.6580  148.9150 C   0  0  0  0  0  3  0  0  0  0  0  0
  162.0740  209.0020  148.3640 C   0  0  0  0  0  3  0  0  0  0  0  0
  161.4620  206.6160  152.0790 C   0  0  0  0  0  0  0  0  0  0  0  0
  161.5530  207.9510  152.3020 N   0  0  0  0  0  0  0  0  0  0  0  0
  160.8150  201.9850  149.9950 N   0  0  0  0  0  0  0  0  0  0  0  0
  161.9160  207.6640  148.7680 C   0  0  0  0  0  3  0  0  0  0  0  0
  160.1500  202.7440  148.9470 C   0  0  0  0  0  2  0  0  0  0  0  0
  161.3180  203.9620  151.3500 C   0  0  0  0  0  0  0  0  0  0  0  0
  161.4510  203.4150  146.8300 C   0  0  0  0  0  2  0  0  0  0  0  0
  163.3020  204.9000  146.2840 C   0  0  0  0  0  2  0  0  0  0  0  0
  161.9990  204.6590  146.2040 C   0  0  0  0  0  0  0  0  0  0  0  0
  161.1190  205.5720  145.4550 C   0  0  0  0  0  0  0  0  0  0  0  0
  161.2230  205.6760  144.0730 O   0  0  0  0  0  0  0  0  0  0  0  0
  160.2660  206.2720  146.0630 O   0  0  0  0  0  1  0  0  0  0  0  0
  1 14  1  0  0  0  0
  2  1  1  0  0  0  0
  2 19  2  0  0  0  0
  4  1  1  0  0  0  0
  4  8  1  0  0  0  0
  5 12  2  0  0  0  0
  5 18  1  0  0  0  0
  6  9  1  0  0  0  0
  7  3  2  0  0  0  0
  8 15  1  0  0  0  0
  9  8  2  0  0  0  0
 10 19  1  0  0  0  0
 10 11  1  0  0  0  0
 12  2  1  0  0  0  0
 13 17  1  0  0  0  0
 13  6  2  0  0  0  0
 14 15  2  0  0  0  0
 14  3  1  0  0  0  0
 16 10  2  0  0  0  0
 17  4  2  0  0  0  0
 18 16  1  0  0  0  0
 19  7  1  0  0  0  0
 20  5  1  0  0  0  0
 22 21  2  0  0  0  0
 22 20  1  0  0  0  0
 23 25  1  0  0  0  0
 23 22  1  0  0  0  0
 24 23  2  0  0  0  0
M  END
>  <MODEL>
6

>  <REMARK>
 VINA RESULT:      -8.2      3.758      7.307
  Name = 
  3 active torsions:
  status: ('A' for Active; 'I' for Inactive)
    1  A    between atoms: C_2  and  C_25
    2  A    between atoms: C_6  and  C_15
    3  A    between atoms: C_15  and  C_25
                            x       y       z     vdW  Elec       q    Type
                         _______ _______ _______ _____ _____    ______ ____

>  <TORSDO>
F 3

$$$$
=
 OpenBabel11052422183D

 25 28  0  0  0  0  0  0  0  0999 V2000
  161.4060  206.5350  149.9520 N   0  0  0  0  0  0  0  0  0  0  0  0
  161.2190  205.7590  148.8450 C   0  0  0  0  0  0  0  0  0  0  0  0
  161.9990  208.4390  148.6700 C   0  0  0  0  0  3  0  0  0  0  0  0
  161.2930  206.2820  151.2670 C   0  0  0  0  0  0  0  0  0  0  0  0
  161.0350  203.3610  148.1780 C   0  0  0  0  0  0  0  0  0  0  0  0
  161.2260  206.3040  154.0340 C   0  0  0  0  0  3  0  0  0  0  0  0
  161.8000  207.6990  147.5450 N   0  0  0  0  0  0  0  0  0  0  0  0
  161.6130  207.4250  151.9530 C   0  0  0  0  0  0  0  0  0  0  0  0
  161.5910  207.4770  153.3440 C   0  0  0  0  0  3  0  0  0  0  0  0
  161.1540  205.7170  146.2780 C   0  0  0  0  0  0  0  0  0  0  0  0
  160.6640  206.5080  145.2000 N   0  0  0  0  0  1  0  0  0  0  0  0
  160.7400  204.3660  149.0000 C   0  0  0  0  0  3  0  0  0  0  0  0
  160.8990  205.1260  153.3250 C   0  0  0  0  0  3  0  0  0  0  0  0
  161.7930  207.8280  149.8950 C   0  0  0  0  0  0  0  0  0  0  0  0
  161.9350  208.4250  151.1050 N   0  0  0  0  0  0  0  0  0  0  0  0
  161.3960  204.4590  146.0600 N   0  0  0  0  0  0  0  0  0  0  0  0
  160.9290  205.1030  151.9200 C   0  0  0  0  0  3  0  0  0  0  0  0
  161.9730  203.5480  147.0360 C   0  0  0  0  0  2  0  0  0  0  0  0
  161.4260  206.3810  147.5780 C   0  0  0  0  0  0  0  0  0  0  0  0
  160.4360  202.0160  148.4200 C   0  0  0  0  0  2  0  0  0  0  0  0
  162.2110  200.3500  148.3580 C   0  0  0  0  0  2  0  0  0  0  0  0
  161.2150  200.9490  147.7160 C   0  0  0  0  0  0  0  0  0  0  0  0
  160.8460  200.5240  146.3550 C   0  0  0  0  0  0  0  0  0  0  0  0
  160.0860  201.3550  145.5400 O   0  0  0  0  0  0  0  0  0  0  0  0
  161.2120  199.4010  145.9200 O   0  0  0  0  0  1  0  0  0  0  0  0
  1  4  1  0  0  0  0
  2 12  1  0  0  0  0
  2  1  1  0  0  0  0
  3 14  1  0  0  0  0
  4 17  2  0  0  0  0
  4  8  1  0  0  0  0
  5 20  1  0  0  0  0
  5 12  2  0  0  0  0
  7 19  1  0  0  0  0
  7  3  2  0  0  0  0
  8  9  2  0  0  0  0
  9  6  1  0  0  0  0
 10 19  1  0  0  0  0
 11 10  1  0  0  0  0
 13  6  2  0  0  0  0
 14  1  1  0  0  0  0
 14 15  2  0  0  0  0
 15  8  1  0  0  0  0
 16 10  2  0  0  0  0
 16 18  1  0  0  0  0
 17 13  1  0  0  0  0
 18  5  1  0  0  0  0
 19  2  2  0  0  0  0
 22 21  2  0  0  0  0
 22 20  1  0  0  0  0
 23 22  1  0  0  0  0
 24 23  2  0  0  0  0
 25 23  1  0  0  0  0
M  END
>  <MODEL>
7

>  <REMARK>
 VINA RESULT:      -8.2      4.197      7.131
  Name = 
  3 active torsions:
  status: ('A' for Active; 'I' for Inactive)
    1  A    between atoms: C_2  and  C_25
    2  A    between atoms: C_6  and  C_15
    3  A    between atoms: C_15  and  C_25
                            x       y       z     vdW  Elec       q    Type
                         _______ _______ _______ _____ _____    ______ ____

>  <TORSDO>
F 3

$$$$
=
 OpenBabel11052422183D

 25 28  0  0  0  0  0  0  0  0999 V2000
  161.4410  207.3030  150.2370 N   0  0  0  0  0  0  0  0  0  0  0  0
  161.1900  206.3560  149.2860 C   0  0  0  0  0  0  0  0  0  0  0  0
  162.2060  208.8820  148.6410 C   0  0  0  0  0  3  0  0  0  0  0  0
  161.3010  207.3060  151.5730 C   0  0  0  0  0  0  0  0  0  0  0  0
  160.7970  203.9020  149.0640 C   0  0  0  0  0  0  0  0  0  0  0  0
  161.2260  207.8410  154.2880 C   0  0  0  0  0  3  0  0  0  0  0  0
  161.9460  207.9680  147.6660 N   0  0  0  0  0  0  0  0  0  0  0  0
  161.7190  208.5240  152.0460 C   0  0  0  0  0  0  0  0  0  0  0  0
  161.6960  208.8310  153.4040 C   0  0  0  0  0  3  0  0  0  0  0  0
  161.1320  205.8510  146.7690 C   0  0  0  0  0  0  0  0  0  0  0  0
  160.7170  206.4690  145.5550 N   0  0  0  0  0  1  0  0  0  0  0  0
  160.5890  205.0620  149.6830 C   0  0  0  0  0  3  0  0  0  0  0  0
  160.7980  206.5860  153.8000 C   0  0  0  0  0  3  0  0  0  0  0  0
  161.9410  208.5250  149.9530 C   0  0  0  0  0  0  0  0  0  0  0  0
  162.1310  209.3190  151.0360 N   0  0  0  0  0  0  0  0  0  0  0  0
  161.2620  204.5580  146.7890 N   0  0  0  0  0  0  0  0  0  0  0  0
  160.8320  206.3030  152.4220 C   0  0  0  0  0  3  0  0  0  0  0  0
  161.7520  203.7940  147.9260 C   0  0  0  0  0  2  0  0  0  0  0  0
  161.4560  206.7160  147.9320 C   0  0  0  0  0  0  0  0  0  0  0  0
  160.0800  202.6810  149.5360 C   0  0  0  0  0  2  0  0  0  0  0  0
  161.3940  200.6390  149.7170 C   0  0  0  0  0  2  0  0  0  0  0  0
  161.0060  201.7740  150.2850 C   0  0  0  0  0  0  0  0  0  0  0  0
  161.5290  202.1610  151.6060 C   0  0  0  0  0  0  0  0  0  0  0  0
  162.7930  201.7500  152.0110 O   0  0  0  0  0  0  0  0  0  0  0  0
  160.8310  202.8650  152.3830 O   0  0  0  0  0  1  0  0  0  0  0  0
  1  4  1  0  0  0  0
  2 12  1  0  0  0  0
  2  1  1  0  0  0  0
  3 14  1  0  0  0  0
  4  8  2  0  0  0  0
  4 17  1  0  0  0  0
  5 20  1  0  0  0  0
  5 12  2  0  0  0  0
  7 19  1  0  0  0  0
  7  3  2  0  0  0  0
  8  9  1  0  0  0  0
  9  6  2  0  0  0  0
 10 16  2  0  0  0  0
 10 19  1  0  0  0  0
 11 10  1  0  0  0  0
 13  6  1  0  0  0  0
 14  1  1  0  0  0  0
 14 15  2  0  0  0  0
 15  8  1  0  0  0  0
 16 18  1  0  0  0  0
 17 13  2  0  0  0  0
 18  5  1  0  0  0  0
 19  2  2  0  0  0  0
 20 22  1  0  0  0  0
 21 22  2  0  0  0  0
 22 23  1  0  0  0  0
 23 24  2  0  0  0  0
 23 25  1  0  0  0  0
M  END
>  <MODEL>
8

>  <REMARK>
 VINA RESULT:      -8.2      2.562      5.916
  Name = 
  3 active torsions:
  status: ('A' for Active; 'I' for Inactive)
    1  A    between atoms: C_2  and  C_25
    2  A    between atoms: C_6  and  C_15
    3  A    between atoms: C_15  and  C_25
                            x       y       z     vdW  Elec       q    Type
                         _______ _______ _______ _____ _____    ______ ____

>  <TORSDO>
F 3

$$$$
=
 OpenBabel11052422183D

 25 28  0  0  0  0  0  0  0  0999 V2000
  161.0590  203.7700  148.2310 N   0  0  0  0  0  0  0  0  0  0  0  0
  160.9640  204.1970  149.5240 C   0  0  0  0  0  0  0  0  0  0  0  0
  161.2140  201.4900  148.8630 C   0  0  0  0  0  3  0  0  0  0  0  0
  161.0650  204.4260  147.0580 C   0  0  0  0  0  0  0  0  0  0  0  0
  161.2010  206.2680  150.8960 C   0  0  0  0  0  0  0  0  0  0  0  0
  161.1420  205.2540  144.4180 C   0  0  0  0  0  3  0  0  0  0  0  0
  161.0990  201.8790  150.1610 N   0  0  0  0  0  0  0  0  0  0  0  0
  161.2000  203.5040  146.0510 C   0  0  0  0  0  0  0  0  0  0  0  0
  161.2410  203.8810  144.7120 C   0  0  0  0  0  3  0  0  0  0  0  0
  160.7730  203.4720  151.9810 C   0  0  0  0  0  0  0  0  0  0  0  0
  160.0860  202.5050  152.7680 N   0  0  0  0  0  1  0  0  0  0  0  0
  160.7650  205.6370  149.8070 C   0  0  0  0  0  3  0  0  0  0  0  0
  161.0050  206.2040  145.4560 C   0  0  0  0  0  3  0  0  0  0  0  0
  161.1910  202.4720  147.8860 C   0  0  0  0  0  0  0  0  0  0  0  0
  161.2810  202.2520  146.5500 N   0  0  0  0  0  0  0  0  0  0  0  0
  161.2370  204.5330  152.5720 N   0  0  0  0  0  0  0  0  0  0  0  0
  160.9660  205.7940  146.8010 C   0  0  0  0  0  3  0  0  0  0  0  0
  162.0250  205.5650  151.9170 C   0  0  0  0  0  2  0  0  0  0  0  0
  160.9820  203.1920  150.5370 C   0  0  0  0  0  0  0  0  0  0  0  0
  160.8810  207.7140  151.0820 C   0  0  0  0  0  2  0  0  0  0  0  0
  162.3590  208.1340  149.1930 C   0  0  0  0  0  2  0  0  0  0  0  0
  161.8510  208.5760  150.3370 C   0  0  0  0  0  0  0  0  0  0  0  0
  162.1910  209.9220  150.8300 C   0  0  0  0  0  0  0  0  0  0  0  0
  161.9540  211.0410  150.0400 O   0  0  0  0  0  0  0  0  0  0  0  0
  162.7040  210.0690  151.9700 O   0  0  0  0  0  1  0  0  0  0  0  0
  1  2  1  0  0  0  0
  2 12  1  0  0  0  0
  2 19  2  0  0  0  0
  3  7  2  0  0  0  0
  4  1  1  0  0  0  0
  5 20  1  0  0  0  0
  5 18  1  0  0  0  0
  6  9  2  0  0  0  0
  6 13  1  0  0  0  0
  7 19  1  0  0  0  0
  8 15  1  0  0  0  0
  8  4  2  0  0  0  0
  9  8  1  0  0  0  0
 10 16  2  0  0  0  0
 10 11  1  0  0  0  0
 12  5  2  0  0  0  0
 13 17  2  0  0  0  0
 14  1  1  0  0  0  0
 14  3  1  0  0  0  0
 15 14  2  0  0  0  0
 17  4  1  0  0  0  0
 18 16  1  0  0  0  0
 19 10  1  0  0  0  0
 21 22  2  0  0  0  0
 22 23  1  0  0  0  0
 22 20  1  0  0  0  0
 23 25  1  0  0  0  0
 24 23  2  0  0  0  0
M  END
>  <MODEL>
9

>  <REMARK>
 VINA RESULT:      -7.8      3.024      4.934
  Name = 
  3 active torsions:
  status: ('A' for Active; 'I' for Inactive)
    1  A    between atoms: C_2  and  C_25
    2  A    between atoms: C_6  and  C_15
    3  A    between atoms: C_15  and  C_25
                            x       y       z     vdW  Elec       q    Type
                         _______ _______ _______ _____ _____    ______ ____

>  <TORSDO>
F 3

$$$$
