=
 OpenBabel11062409303D

 34 37  0  0  1  0  0  0  0  0999 V2000
  160.1160  210.4290  154.0900 C   0  0  2  0  0  3  0  0  0  0  0  0
  160.7960  208.0820  155.8660 C   0  0  0  0  0  2  0  0  0  0  0  0
  161.0340  209.2710  153.6660 C   0  0  0  0  0  2  0  0  0  0  0  0
  160.3380  209.4370  156.4280 C   0  0  2  0  0  3  0  0  0  0  0  0
  160.6460  207.9610  154.3420 C   0  0  1  0  0  3  0  0  0  0  0  0
  159.4340  210.1960  155.4480 C   0  0  1  0  0  3  0  0  0  0  0  0
  157.7620  211.2410  156.3010 O   0  0  0  0  0  1  0  0  0  0  0  0
  159.0320  211.4150  156.0000 O   0  0  0  0  0  0  0  0  0  0  0  0
  161.4540  210.2060  156.7650 O   0  0  0  0  0  0  0  0  0  0  0  0
  162.3890  209.3240  157.0530 O   0  0  0  0  0  1  0  0  0  0  0  0
  161.5180  206.8320  153.7980 C   0  0  0  0  0  2  0  0  0  0  0  0
  160.6730  204.4360  150.8890 C   0  0  0  0  0  2  0  0  0  0  0  0
  161.9160  207.1260  151.3140 C   0  0  0  0  0  2  0  0  0  0  0  0
  161.4360  205.5320  147.3370 C   0  0  0  0  0  0  0  0  0  0  0  0
  161.0400  204.7660  148.4430 C   0  0  0  0  0  3  0  0  0  0  0  0
  161.1790  205.2640  149.7410 C   0  0  0  0  0  0  0  0  0  0  0  0
  162.0920  207.3260  148.8370 C   0  0  0  0  0  3  0  0  0  0  0  0
  161.6920  206.5660  149.9380 C   0  0  0  0  0  0  0  0  0  0  0  0
  161.9610  206.8150  147.5440 C   0  0  0  0  0  3  0  0  0  0  0  0
  161.1320  206.3730  152.3900 C   0  0  1  0  0  3  0  0  0  0  0  0
  161.2830  204.8650  152.2200 C   0  0  0  0  0  2  0  0  0  0  0  0
  161.3000  204.9960  145.9710 C   0  0  0  0  0  0  0  0  0  0  0  0
  160.5910  205.7290  144.9740 N   0  0  0  0  0  1  0  0  0  0  0  0
  161.8140  203.8860  145.6680 O   0  0  0  0  0  0  0  0  0  0  0  0
  159.0570  210.6780  153.0240 C   0  0  0  0  0  2  0  0  0  0  0  0
  157.1930  212.9060  153.5340 O   0  0  0  0  0  0  0  0  0  0  0  0
  158.5040  214.3260  152.0910 C   0  0  0  0  0  2  0  0  0  0  0  0
  159.7970  213.9910  151.3340 C   0  0  1  0  0  3  0  0  0  0  0  0
  160.1310  212.5120  151.5950 C   0  0  0  0  0  2  0  0  0  0  0  0
  158.1960  213.0670  152.7940 C   0  0  0  0  0  0  0  0  0  0  0  0
  159.1370  212.0470  152.5370 N   0  0  0  0  0  0  0  0  0  0  0  0
  160.8410  214.4130  148.9810 C   0  0  0  0  0  1  0  0  0  0  0  0
  158.5280  214.3490  149.3870 O   0  0  0  0  0  0  0  0  0  0  0  0
  159.6460  214.2580  149.8670 C   0  0  0  0  0  0  0  0  0  0  0  0
  1 25  1  6  0  0  0
  1  6  1  0  0  0  0
  2  4  1  0  0  0  0
  3  1  1  0  0  0  0
  3  5  1  0  0  0  0
  4  9  1  6  0  0  0
  5 11  1  6  0  0  0
  5  2  1  0  0  0  0
  6  8  1  1  0  0  0
  6  4  1  0  0  0  0
  8  7  1  0  0  0  0
  9 10  1  0  0  0  0
 12 21  1  0  0  0  0
 13 20  1  0  0  0  0
 14 19  2  0  0  0  0
 14 15  1  0  0  0  0
 15 16  2  0  0  0  0
 16 18  1  0  0  0  0
 16 12  1  0  0  0  0
 17 18  2  0  0  0  0
 18 13  1  0  0  0  0
 19 17  1  0  0  0  0
 20 11  1  1  0  0  0
 21 20  1  0  0  0  0
 22 14  1  0  0  0  0
 23 22  1  0  0  0  0
 24 22  2  0  0  0  0
 27 30  1  0  0  0  0
 28 34  1  6  0  0  0
 28 29  1  0  0  0  0
 28 27  1  0  0  0  0
 29 31  1  0  0  0  0
 30 26  2  0  0  0  0
 31 30  1  0  0  0  0
 31 25  1  0  0  0  0
 32 34  1  0  0  0  0
 33 34  2  0  0  0  0
M  END
>  <MODEL>
1

>  <REMARK>
 VINA RESULT:      -8.4      0.000      0.000
  Name = 
  8 active torsions:
  status: ('A' for Active; 'I' for Inactive)
    1  A    between atoms: C_1  and  C_34
    2  A    between atoms: C_7  and  C_11
    3  A    between atoms: C_10  and  O_12
    4  A    between atoms: C_17  and  C_18
    5  A    between atoms: C_18  and  C_30
    6  A    between atoms: O_19  and  C_20
    7  A    between atoms: C_24  and  C_25
    8  A    between atoms: N_33  and  C_34
                            x       y       z     vdW  Elec       q    Type
                         _______ _______ _______ _____ _____    ______ ____

>  <TORSDO>
F 8

$$$$
=
 OpenBabel11062409303D

 34 37  0  0  1  0  0  0  0  0999 V2000
  159.3630  212.0620  153.1250 C   0  0  2  0  0  3  0  0  0  0  0  0
  160.5350  209.7090  154.6130 C   0  0  0  0  0  2  0  0  0  0  0  0
  160.5470  211.2280  152.6120 C   0  0  0  0  0  2  0  0  0  0  0  0
  159.7440  210.8210  155.3200 C   0  0  2  0  0  3  0  0  0  0  0  0
  160.4670  209.7790  153.0790 C   0  0  1  0  0  3  0  0  0  0  0  0
  158.7150  211.4810  154.3920 C   0  0  1  0  0  3  0  0  0  0  0  0
  157.1070  211.8260  155.7740 O   0  0  0  0  0  1  0  0  0  0  0  0
  158.0130  212.4780  155.0750 O   0  0  0  0  0  0  0  0  0  0  0  0
  160.6300  211.7740  155.8290 O   0  0  0  0  0  0  0  0  0  0  0  0
  161.7430  211.1040  156.0540 O   0  0  0  0  0  1  0  0  0  0  0  0
  161.6030  208.9780  152.4490 C   0  0  0  0  0  2  0  0  0  0  0  0
  161.1440  205.1430  152.4500 C   0  0  0  0  0  2  0  0  0  0  0  0
  161.5430  207.3710  150.4910 C   0  0  0  0  0  2  0  0  0  0  0  0
  161.0320  203.3140  149.1260 C   0  0  0  0  0  0  0  0  0  0  0  0
  161.0490  203.5850  150.5020 C   0  0  0  0  0  3  0  0  0  0  0  0
  161.2050  204.8930  150.9690 C   0  0  0  0  0  0  0  0  0  0  0  0
  161.3050  205.6840  148.6730 C   0  0  0  0  0  3  0  0  0  0  0  0
  161.3150  205.9560  150.0430 C   0  0  0  0  0  0  0  0  0  0  0  0
  161.1600  204.3720  148.2160 C   0  0  0  0  0  3  0  0  0  0  0  0
  161.1860  207.5880  151.9630 C   0  0  1  0  0  3  0  0  0  0  0  0
  161.7690  206.4800  152.8340 C   0  0  0  0  0  2  0  0  0  0  0  0
  160.8810  201.9300  148.6400 C   0  0  0  0  0  0  0  0  0  0  0  0
  160.5340  201.6770  147.2810 N   0  0  0  0  0  1  0  0  0  0  0  0
  161.0610  200.9580  149.4200 O   0  0  0  0  0  0  0  0  0  0  0  0
  158.3100  212.2080  152.0360 C   0  0  0  0  0  2  0  0  0  0  0  0
  156.7590  213.8180  150.1120 O   0  0  0  0  0  0  0  0  0  0  0  0
  158.8050  214.4530  149.0020 C   0  0  0  0  0  2  0  0  0  0  0  0
  160.2480  214.0720  149.3620 C   0  0  1  0  0  3  0  0  0  0  0  0
  160.2020  213.1220  150.5710 C   0  0  0  0  0  2  0  0  0  0  0  0
  158.0130  213.7720  150.0440 C   0  0  0  0  0  0  0  0  0  0  0  0
  158.8090  213.0420  150.9530 N   0  0  0  0  0  0  0  0  0  0  0  0
  162.2370  212.7040  148.3730 C   0  0  0  0  0  1  0  0  0  0  0  0
  160.4350  213.4960  147.0900 O   0  0  0  0  0  0  0  0  0  0  0  0
  160.9400  213.4280  148.1980 C   0  0  0  0  0  0  0  0  0  0  0  0
  1 25  1  6  0  0  0
  1  6  1  0  0  0  0
  2  4  1  0  0  0  0
  3  5  1  0  0  0  0
  3  1  1  0  0  0  0
  4  9  1  6  0  0  0
  5 11  1  6  0  0  0
  5  2  1  0  0  0  0
  6  8  1  1  0  0  0
  6  4  1  0  0  0  0
  8  7  1  0  0  0  0
  9 10  1  0  0  0  0
 12 21  1  0  0  0  0
 13 20  1  0  0  0  0
 14 15  1  0  0  0  0
 15 16  2  0  0  0  0
 16 12  1  0  0  0  0
 17 18  2  0  0  0  0
 18 13  1  0  0  0  0
 18 16  1  0  0  0  0
 19 17  1  0  0  0  0
 19 14  2  0  0  0  0
 20 11  1  1  0  0  0
 20 21  1  0  0  0  0
 22 14  1  0  0  0  0
 22 24  2  0  0  0  0
 23 22  1  0  0  0  0
 27 28  1  0  0  0  0
 27 30  1  0  0  0  0
 28 34  1  6  0  0  0
 28 29  1  0  0  0  0
 29 31  1  0  0  0  0
 30 26  2  0  0  0  0
 30 31  1  0  0  0  0
 31 25  1  0  0  0  0
 33 34  2  0  0  0  0
 34 32  1  0  0  0  0
M  END
>  <MODEL>
2

>  <REMARK>
 VINA RESULT:      -8.0      1.825      2.456
  Name = 
  8 active torsions:
  status: ('A' for Active; 'I' for Inactive)
    1  A    between atoms: C_1  and  C_34
    2  A    between atoms: C_7  and  C_11
    3  A    between atoms: C_10  and  O_12
    4  A    between atoms: C_17  and  C_18
    5  A    between atoms: C_18  and  C_30
    6  A    between atoms: O_19  and  C_20
    7  A    between atoms: C_24  and  C_25
    8  A    between atoms: N_33  and  C_34
                            x       y       z     vdW  Elec       q    Type
                         _______ _______ _______ _____ _____    ______ ____

>  <TORSDO>
F 8

$$$$
=
 OpenBabel11062409303D

 34 37  0  0  1  0  0  0  0  0999 V2000
  160.7960  208.9520  153.4600 C   0  0  2  0  0  3  0  0  0  0  0  0
  162.3270  207.1380  151.5930 C   0  0  0  0  0  2  0  0  0  0  0  0
  160.4780  207.4610  153.2610 C   0  0  0  0  0  2  0  0  0  0  0  0
  162.2900  208.6640  151.4140 C   0  0  2  0  0  3  0  0  0  0  0  0
  161.7250  206.6540  152.9210 C   0  0  1  0  0  3  0  0  0  0  0  0
  162.0810  209.3990  152.7450 C   0  0  1  0  0  3  0  0  0  0  0  0
  160.8500  211.0360  152.0960 O   0  0  0  0  0  1  0  0  0  0  0  0
  162.0630  210.7800  152.5410 O   0  0  0  0  0  0  0  0  0  0  0  0
  161.2880  209.0050  150.5010 O   0  0  0  0  0  0  0  0  0  0  0  0
  161.7370  208.5710  149.3410 O   0  0  0  0  0  1  0  0  0  0  0  0
  161.3670  205.1720  152.8460 C   0  0  0  0  0  2  0  0  0  0  0  0
  161.0110  204.8140  149.0170 C   0  0  0  0  0  2  0  0  0  0  0  0
  161.2080  203.0700  151.4420 C   0  0  0  0  0  2  0  0  0  0  0  0
  160.9400  201.3330  147.5050 C   0  0  0  0  0  0  0  0  0  0  0  0
  160.8960  202.7270  147.6520 C   0  0  0  0  0  3  0  0  0  0  0  0
  160.9890  203.3140  148.9170 C   0  0  0  0  0  0  0  0  0  0  0  0
  161.1980  201.1060  149.9090 C   0  0  0  0  0  3  0  0  0  0  0  0
  161.1610  202.4940  150.0550 C   0  0  0  0  0  0  0  0  0  0  0  0
  161.0920  200.5280  148.6420 C   0  0  0  0  0  3  0  0  0  0  0  0
  161.5120  204.5690  151.4470 C   0  0  1  0  0  3  0  0  0  0  0  0
  160.6570  205.3020  150.4180 C   0  0  0  0  0  2  0  0  0  0  0  0
  160.8270  200.7200  146.1690 C   0  0  0  0  0  0  0  0  0  0  0  0
  160.1880  201.4220  145.1050 N   0  0  0  0  0  1  0  0  0  0  0  0
  161.2980  199.5720  145.9540 O   0  0  0  0  0  0  0  0  0  0  0  0
  160.9000  209.2740  154.9450 C   0  0  0  0  0  2  0  0  0  0  0  0
  161.6620  211.4730  156.7570 O   0  0  0  0  0  0  0  0  0  0  0  0
  159.5460  212.5500  156.3320 C   0  0  0  0  0  2  0  0  0  0  0  0
  158.4100  212.0970  155.4050 C   0  0  1  0  0  3  0  0  0  0  0  0
  158.8080  210.7450  154.7880 C   0  0  0  0  0  2  0  0  0  0  0  0
  160.5580  211.4910  156.1570 C   0  0  0  0  0  0  0  0  0  0  0  0
  160.1520  210.4820  155.2570 N   0  0  0  0  0  0  0  0  0  0  0  0
  156.0060  211.1160  155.6570 C   0  0  0  0  0  1  0  0  0  0  0  0
  156.9680  212.6150  157.1880 O   0  0  0  0  0  0  0  0  0  0  0  0
  157.1170  211.9860  156.1540 C   0  0  0  0  0  0  0  0  0  0  0  0
  1 25  1  1  0  0  0
  2  5  1  0  0  0  0
  3  1  1  0  0  0  0
  4  9  1  6  0  0  0
  4  2  1  0  0  0  0
  4  6  1  0  0  0  0
  5 11  1  6  0  0  0
  5  3  1  0  0  0  0
  6  8  1  6  0  0  0
  6  1  1  0  0  0  0
  7  8  1  0  0  0  0
 10  9  1  0  0  0  0
 12 21  1  0  0  0  0
 13 20  1  0  0  0  0
 14 15  2  0  0  0  0
 14 19  1  0  0  0  0
 15 16  1  0  0  0  0
 16 12  1  0  0  0  0
 16 18  2  0  0  0  0
 17 18  1  0  0  0  0
 18 13  1  0  0  0  0
 19 17  2  0  0  0  0
 20 11  1  1  0  0  0
 21 20  1  0  0  0  0
 22 14  1  0  0  0  0
 23 22  1  0  0  0  0
 24 22  2  0  0  0  0
 25 31  1  0  0  0  0
 28 34  1  1  0  0  0
 28 27  1  0  0  0  0
 29 31  1  0  0  0  0
 29 28  1  0  0  0  0
 30 27  1  0  0  0  0
 30 26  2  0  0  0  0
 31 30  1  0  0  0  0
 32 34  1  0  0  0  0
 34 33  2  0  0  0  0
M  END
>  <MODEL>
3

>  <REMARK>
 VINA RESULT:      -7.9      2.910      4.759
  Name = 
  8 active torsions:
  status: ('A' for Active; 'I' for Inactive)
    1  A    between atoms: C_1  and  C_34
    2  A    between atoms: C_7  and  C_11
    3  A    between atoms: C_10  and  O_12
    4  A    between atoms: C_17  and  C_18
    5  A    between atoms: C_18  and  C_30
    6  A    between atoms: O_19  and  C_20
    7  A    between atoms: C_24  and  C_25
    8  A    between atoms: N_33  and  C_34
                            x       y       z     vdW  Elec       q    Type
                         _______ _______ _______ _____ _____    ______ ____

>  <TORSDO>
F 8

$$$$
=
 OpenBabel11062409303D

 34 37  0  0  1  0  0  0  0  0999 V2000
  160.6730  211.1980  153.0160 C   0  0  2  0  0  3  0  0  0  0  0  0
  160.9310  209.0410  155.1150 C   0  0  0  0  0  2  0  0  0  0  0  0
  161.4490  209.8880  152.8070 C   0  0  0  0  0  2  0  0  0  0  0  0
  160.6280  210.5050  155.4700 C   0  0  2  0  0  3  0  0  0  0  0  0
  160.8520  208.7380  153.6110 C   0  0  1  0  0  3  0  0  0  0  0  0
  159.8910  211.2360  154.3390 C   0  0  1  0  0  3  0  0  0  0  0  0
  158.3150  212.6200  154.8050 O   0  0  0  0  0  1  0  0  0  0  0  0
  159.6270  212.5580  154.7050 O   0  0  0  0  0  0  0  0  0  0  0  0
  161.8170  211.1660  155.7890 O   0  0  0  0  0  0  0  0  0  0  0  0
  162.6340  210.2070  156.1770 O   0  0  0  0  0  1  0  0  0  0  0  0
  161.5930  207.4460  153.2770 C   0  0  0  0  0  2  0  0  0  0  0  0
  160.5880  204.7530  150.6970 C   0  0  0  0  0  2  0  0  0  0  0  0
  162.0660  207.3550  150.7900 C   0  0  0  0  0  2  0  0  0  0  0  0
  161.5190  205.2730  147.0540 C   0  0  0  0  0  0  0  0  0  0  0  0
  161.0330  204.7060  148.2410 C   0  0  0  0  0  3  0  0  0  0  0  0
  161.1910  205.3660  149.4640 C   0  0  0  0  0  0  0  0  0  0  0  0
  162.3090  207.1920  148.3160 C   0  0  0  0  0  3  0  0  0  0  0  0
  161.8190  206.6310  149.4970 C   0  0  0  0  0  0  0  0  0  0  0  0
  162.1570  206.5200  147.1010 C   0  0  0  0  0  3  0  0  0  0  0  0
  161.1940  206.8320  151.9330 C   0  0  1  0  0  3  0  0  0  0  0  0
  161.2080  205.3080  151.9760 C   0  0  0  0  0  2  0  0  0  0  0  0
  161.3620  204.5660  145.7710 C   0  0  0  0  0  0  0  0  0  0  0  0
  160.9090  205.2640  144.6130 N   0  0  0  0  0  1  0  0  0  0  0  0
  161.6320  203.3380  145.6830 O   0  0  0  0  0  0  0  0  0  0  0  0
  159.7190  211.4350  151.8530 C   0  0  0  0  0  2  0  0  0  0  0  0
  159.1850  214.3240  151.5960 O   0  0  0  0  0  0  0  0  0  0  0  0
  160.6630  214.4220  149.6920 C   0  0  0  0  0  2  0  0  0  0  0  0
  161.4870  213.2920  149.0600 C   0  0  1  0  0  3  0  0  0  0  0  0
  161.1760  211.9920  149.8220 C   0  0  0  0  0  2  0  0  0  0  0  0
  159.9800  213.7480  150.8120 C   0  0  0  0  0  0  0  0  0  0  0  0
  160.2960  212.3750  150.9040 N   0  0  0  0  0  0  0  0  0  0  0  0
  161.9800  213.8590  146.5620 C   0  0  0  0  0  1  0  0  0  0  0  0
  160.2420  212.4390  147.2570 O   0  0  0  0  0  0  0  0  0  0  0  0
  161.1730  213.1480  147.6010 C   0  0  0  0  0  0  0  0  0  0  0  0
  1 25  1  6  0  0  0
  1  6  1  0  0  0  0
  2  4  1  0  0  0  0
  3  1  1  0  0  0  0
  3  5  1  0  0  0  0
  4  9  1  6  0  0  0
  5 11  1  1  0  0  0
  5  2  1  0  0  0  0
  6  8  1  1  0  0  0
  6  4  1  0  0  0  0
  8  7  1  0  0  0  0
  9 10  1  0  0  0  0
 12 21  1  0  0  0  0
 13 20  1  0  0  0  0
 14 19  2  0  0  0  0
 14 15  1  0  0  0  0
 15 16  2  0  0  0  0
 16 18  1  0  0  0  0
 16 12  1  0  0  0  0
 17 18  2  0  0  0  0
 18 13  1  0  0  0  0
 19 17  1  0  0  0  0
 20 21  1  0  0  0  0
 20 11  1  1  0  0  0
 22 14  1  0  0  0  0
 23 22  1  0  0  0  0
 24 22  2  0  0  0  0
 27 30  1  0  0  0  0
 28 34  1  6  0  0  0
 28 27  1  0  0  0  0
 28 29  1  0  0  0  0
 29 31  1  0  0  0  0
 30 31  1  0  0  0  0
 30 26  2  0  0  0  0
 31 25  1  0  0  0  0
 32 34  1  0  0  0  0
 33 34  2  0  0  0  0
M  END
>  <MODEL>
4

>  <REMARK>
 VINA RESULT:      -7.8      1.345      1.720
  Name = 
  8 active torsions:
  status: ('A' for Active; 'I' for Inactive)
    1  A    between atoms: C_1  and  C_34
    2  A    between atoms: C_7  and  C_11
    3  A    between atoms: C_10  and  O_12
    4  A    between atoms: C_17  and  C_18
    5  A    between atoms: C_18  and  C_30
    6  A    between atoms: O_19  and  C_20
    7  A    between atoms: C_24  and  C_25
    8  A    between atoms: N_33  and  C_34
                            x       y       z     vdW  Elec       q    Type
                         _______ _______ _______ _____ _____    ______ ____

>  <TORSDO>
F 8

$$$$
=
 OpenBabel11062409303D

 34 37  0  0  1  0  0  0  0  0999 V2000
  161.2240  209.1350  152.5420 C   0  0  2  0  0  3  0  0  0  0  0  0
  162.2250  206.7110  151.0440 C   0  0  0  0  0  2  0  0  0  0  0  0
  160.7540  207.7000  152.8240 C   0  0  0  0  0  2  0  0  0  0  0  0
  162.2800  208.1280  150.4510 C   0  0  2  0  0  3  0  0  0  0  0  0
  161.8450  206.6760  152.5320 C   0  0  1  0  0  3  0  0  0  0  0  0
  162.3850  209.2080  151.5370 C   0  0  1  0  0  3  0  0  0  0  0  0
  161.2020  210.9180  150.9970 O   0  0  0  0  0  1  0  0  0  0  0  0
  162.4420  210.4770  150.9570 O   0  0  0  0  0  0  0  0  0  0  0  0
  161.1570  208.3440  149.6490 O   0  0  0  0  0  0  0  0  0  0  0  0
  161.5150  207.9150  148.4560 O   0  0  0  0  0  1  0  0  0  0  0  0
  161.3590  205.2860  152.9360 C   0  0  0  0  0  2  0  0  0  0  0  0
  160.4320  202.1220  150.9250 C   0  0  0  0  0  2  0  0  0  0  0  0
  161.5620  204.8530  150.4480 C   0  0  0  0  0  2  0  0  0  0  0  0
  160.8790  202.1530  147.1560 C   0  0  0  0  0  0  0  0  0  0  0  0
  160.6050  201.7330  148.4660 C   0  0  0  0  0  3  0  0  0  0  0  0
  160.8110  202.5920  149.5490 C   0  0  0  0  0  0  0  0  0  0  0  0
  161.5490  204.3250  148.0130 C   0  0  0  0  0  3  0  0  0  0  0  0
  161.2690  203.9090  149.3170 C   0  0  0  0  0  0  0  0  0  0  0  0
  161.3510  203.4550  146.9390 C   0  0  0  0  0  3  0  0  0  0  0  0
  160.8970  204.4250  151.7580 C   0  0  1  0  0  3  0  0  0  0  0  0
  161.1130  202.9380  152.0190 C   0  0  0  0  0  2  0  0  0  0  0  0
  160.6740  201.2370  146.0200 C   0  0  0  0  0  0  0  0  0  0  0  0
  159.9210  201.6550  144.8830 N   0  0  0  0  0  1  0  0  0  0  0  0
  161.1660  200.0780  146.0400 O   0  0  0  0  0  0  0  0  0  0  0  0
  161.6310  209.8210  153.8400 C   0  0  0  0  0  2  0  0  0  0  0  0
  159.7270  208.8460  155.8710 O   0  0  0  0  0  0  0  0  0  0  0  0
  158.5010  210.9160  155.7080 C   0  0  0  0  0  2  0  0  0  0  0  0
  158.8050  212.1440  154.8380 C   0  0  1  0  0  3  0  0  0  0  0  0
  160.0480  211.8290  153.9870 C   0  0  0  0  0  2  0  0  0  0  0  0
  159.6020  209.9930  155.3750 C   0  0  0  0  0  0  0  0  0  0  0  0
  160.4970  210.5240  154.4210 N   0  0  0  0  0  0  0  0  0  0  0  0
  157.8050  213.3070  152.7280 C   0  0  0  0  0  1  0  0  0  0  0  0
  156.5210  212.1010  154.2820 O   0  0  0  0  0  0  0  0  0  0  0  0
  157.6330  212.4910  153.9700 C   0  0  0  0  0  0  0  0  0  0  0  0
  1  3  1  0  0  0  0
  1 25  1  1  0  0  0
  2  5  1  0  0  0  0
  4  9  1  1  0  0  0
  4  2  1  0  0  0  0
  4  6  1  0  0  0  0
  5  3  1  0  0  0  0
  5 11  1  6  0  0  0
  6  8  1  6  0  0  0
  6  1  1  0  0  0  0
  8  7  1  0  0  0  0
 10  9  1  0  0  0  0
 12 21  1  0  0  0  0
 13 20  1  0  0  0  0
 14 15  1  0  0  0  0
 15 16  2  0  0  0  0
 16 12  1  0  0  0  0
 17 18  2  0  0  0  0
 18 16  1  0  0  0  0
 18 13  1  0  0  0  0
 19 14  2  0  0  0  0
 19 17  1  0  0  0  0
 20 21  1  0  0  0  0
 20 11  1  1  0  0  0
 22 24  2  0  0  0  0
 22 14  1  0  0  0  0
 23 22  1  0  0  0  0
 25 31  1  0  0  0  0
 28 34  1  6  0  0  0
 28 27  1  0  0  0  0
 29 31  1  0  0  0  0
 29 28  1  0  0  0  0
 30 27  1  0  0  0  0
 30 26  2  0  0  0  0
 31 30  1  0  0  0  0
 32 34  1  0  0  0  0
 34 33  2  0  0  0  0
M  END
>  <MODEL>
5

>  <REMARK>
 VINA RESULT:      -7.5      2.645      4.324
  Name = 
  8 active torsions:
  status: ('A' for Active; 'I' for Inactive)
    1  A    between atoms: C_1  and  C_34
    2  A    between atoms: C_7  and  C_11
    3  A    between atoms: C_10  and  O_12
    4  A    between atoms: C_17  and  C_18
    5  A    between atoms: C_18  and  C_30
    6  A    between atoms: O_19  and  C_20
    7  A    between atoms: C_24  and  C_25
    8  A    between atoms: N_33  and  C_34
                            x       y       z     vdW  Elec       q    Type
                         _______ _______ _______ _____ _____    ______ ____

>  <TORSDO>
F 8

$$$$
=
 OpenBabel11062409303D

 34 37  0  0  1  0  0  0  0  0999 V2000
  159.6750  211.2400  154.0590 C   0  0  2  0  0  3  0  0  0  0  0  0
  162.0200  209.3770  153.6690 C   0  0  0  0  0  2  0  0  0  0  0  0
  160.5740  211.2440  152.8130 C   0  0  0  0  0  2  0  0  0  0  0  0
  161.4700  209.7290  155.0590 C   0  0  2  0  0  3  0  0  0  0  0  0
  161.1340  209.8580  152.5100 C   0  0  1  0  0  3  0  0  0  0  0  0
  159.9760  210.0790  155.0200 C   0  0  1  0  0  3  0  0  0  0  0  0
  159.9430  209.3900  157.0550 O   0  0  0  0  0  1  0  0  0  0  0  0
  159.5140  210.3820  156.3030 O   0  0  0  0  0  0  0  0  0  0  0  0
  162.2080  210.7850  155.6020 O   0  0  0  0  0  0  0  0  0  0  0  0
  163.4010  210.6700  155.0540 O   0  0  0  0  0  1  0  0  0  0  0  0
  161.9230  209.9040  151.2050 C   0  0  0  0  0  2  0  0  0  0  0  0
  162.2480  207.2800  148.3880 C   0  0  0  0  0  2  0  0  0  0  0  0
  161.2120  207.4720  151.1900 C   0  0  0  0  0  2  0  0  0  0  0  0
  161.0740  203.7320  149.0500 C   0  0  0  0  0  0  0  0  0  0  0  0
  161.5730  204.8770  148.4130 C   0  0  0  0  0  3  0  0  0  0  0  0
  161.6360  206.0990  149.0880 C   0  0  0  0  0  0  0  0  0  0  0  0
  160.7160  205.0330  151.0690 C   0  0  0  0  0  3  0  0  0  0  0  0
  161.2210  206.1720  150.4370 C   0  0  0  0  0  0  0  0  0  0  0  0
  160.6470  203.8200  150.3820 C   0  0  0  0  0  3  0  0  0  0  0  0
  162.0940  208.5370  150.5360 C   0  0  1  0  0  3  0  0  0  0  0  0
  161.8440  208.6030  149.0330 C   0  0  0  0  0  2  0  0  0  0  0  0
  160.9980  202.4500  148.3270 C   0  0  0  0  0  0  0  0  0  0  0  0
  161.1820  202.4060  146.9140 N   0  0  0  0  0  1  0  0  0  0  0  0
  160.7740  201.3790  148.9520 O   0  0  0  0  0  0  0  0  0  0  0  0
  158.2090  211.1960  153.6510 C   0  0  0  0  0  2  0  0  0  0  0  0
  156.0230  213.0260  154.4070 O   0  0  0  0  0  0  0  0  0  0  0  0
  156.5440  214.4230  152.5110 C   0  0  0  0  0  2  0  0  0  0  0  0
  157.6570  214.2480  151.4690 C   0  0  1  0  0  3  0  0  0  0  0  0
  158.4070  212.9430  151.7880 C   0  0  0  0  0  2  0  0  0  0  0  0
  156.7430  213.2680  153.4060 C   0  0  0  0  0  0  0  0  0  0  0  0
  157.8210  212.4450  153.0130 N   0  0  0  0  0  0  0  0  0  0  0  0
  155.6190  214.2810  149.8410 C   0  0  0  0  0  1  0  0  0  0  0  0
  157.8530  214.1430  149.1280 O   0  0  0  0  0  0  0  0  0  0  0  0
  157.0940  214.2180  150.0800 C   0  0  0  0  0  0  0  0  0  0  0  0
  1 25  1  6  0  0  0
  1  6  1  0  0  0  0
  2  4  1  0  0  0  0
  3  1  1  0  0  0  0
  4  9  1  6  0  0  0
  5 11  1  6  0  0  0
  5  3  1  0  0  0  0
  5  2  1  0  0  0  0
  6  4  1  0  0  0  0
  6  8  1  1  0  0  0
  8  7  1  0  0  0  0
 10  9  1  0  0  0  0
 12 21  1  0  0  0  0
 12 16  1  0  0  0  0
 14 19  1  0  0  0  0
 15 14  2  0  0  0  0
 15 16  1  0  0  0  0
 16 18  2  0  0  0  0
 18 17  1  0  0  0  0
 18 13  1  0  0  0  0
 19 17  2  0  0  0  0
 20 13  1  0  0  0  0
 20 11  1  1  0  0  0
 21 20  1  0  0  0  0
 22 24  2  0  0  0  0
 22 14  1  0  0  0  0
 23 22  1  0  0  0  0
 27 30  1  0  0  0  0
 28 34  1  6  0  0  0
 28 29  1  0  0  0  0
 28 27  1  0  0  0  0
 29 31  1  0  0  0  0
 30 26  2  0  0  0  0
 31 30  1  0  0  0  0
 31 25  1  0  0  0  0
 32 34  1  0  0  0  0
 33 34  2  0  0  0  0
M  END
>  <MODEL>
6

>  <REMARK>
 VINA RESULT:      -7.2      1.862      2.718
  Name = 
  8 active torsions:
  status: ('A' for Active; 'I' for Inactive)
    1  A    between atoms: C_1  and  C_34
    2  A    between atoms: C_7  and  C_11
    3  A    between atoms: C_10  and  O_12
    4  A    between atoms: C_17  and  C_18
    5  A    between atoms: C_18  and  C_30
    6  A    between atoms: O_19  and  C_20
    7  A    between atoms: C_24  and  C_25
    8  A    between atoms: N_33  and  C_34
                            x       y       z     vdW  Elec       q    Type
                         _______ _______ _______ _____ _____    ______ ____

>  <TORSDO>
F 8

$$$$
=
 OpenBabel11062409303D

 34 37  0  0  1  0  0  0  0  0999 V2000
  160.0090  210.3690  154.0740 C   0  0  2  0  0  3  0  0  0  0  0  0
  160.8570  208.1860  155.9820 C   0  0  0  0  0  2  0  0  0  0  0  0
  160.9170  209.1930  153.6810 C   0  0  0  0  0  2  0  0  0  0  0  0
  160.4130  209.5760  156.4640 C   0  0  2  0  0  3  0  0  0  0  0  0
  160.6030  207.9380  154.4870 C   0  0  1  0  0  3  0  0  0  0  0  0
  159.4290  210.2400  155.4920 C   0  0  1  0  0  3  0  0  0  0  0  0
  158.3220  211.2340  157.0410 O   0  0  0  0  0  1  0  0  0  0  0  0
  159.0430  211.4940  155.9710 O   0  0  0  0  0  0  0  0  0  0  0  0
  161.5360  210.3850  156.6570 O   0  0  0  0  0  0  0  0  0  0  0  0
  162.5220  209.5380  156.8680 O   0  0  0  0  0  1  0  0  0  0  0  0
  161.4560  206.7800  153.9760 C   0  0  0  0  0  2  0  0  0  0  0  0
  160.7340  204.4810  150.9570 C   0  0  0  0  0  2  0  0  0  0  0  0
  162.0030  207.1320  151.5280 C   0  0  0  0  0  2  0  0  0  0  0  0
  161.7220  205.6570  147.4860 C   0  0  0  0  0  0  0  0  0  0  0  0
  161.2490  204.8690  148.5460 C   0  0  0  0  0  3  0  0  0  0  0  0
  161.3210  205.3290  149.8640 C   0  0  0  0  0  0  0  0  0  0  0  0
  162.3260  207.3950  149.0710 C   0  0  0  0  0  3  0  0  0  0  0  0
  161.8480  206.6140  150.1260 C   0  0  0  0  0  0  0  0  0  0  0  0
  162.2590  206.9220  147.7590 C   0  0  0  0  0  3  0  0  0  0  0  0
  161.1430  206.3670  152.5360 C   0  0  1  0  0  3  0  0  0  0  0  0
  161.2740  204.8620  152.3320 C   0  0  0  0  0  2  0  0  0  0  0  0
  161.6550  205.1600  146.1000 C   0  0  0  0  0  0  0  0  0  0  0  0
  162.8020  204.5750  145.4870 N   0  0  0  0  0  1  0  0  0  0  0  0
  160.5830  205.2440  145.4450 O   0  0  0  0  0  0  0  0  0  0  0  0
  158.8730  210.5160  153.0710 C   0  0  0  0  0  2  0  0  0  0  0  0
  159.8380  213.1530  152.1680 O   0  0  0  0  0  0  0  0  0  0  0  0
  157.9020  214.1950  153.1610 C   0  0  0  0  0  2  0  0  0  0  0  0
  156.7290  213.5320  153.8970 C   0  0  1  0  0  3  0  0  0  0  0  0
  157.0050  212.0200  153.9680 C   0  0  0  0  0  2  0  0  0  0  0  0
  158.7500  213.0470  152.7890 C   0  0  0  0  0  0  0  0  0  0  0  0
  158.2250  211.8100  153.2200 N   0  0  0  0  0  0  0  0  0  0  0  0
  155.1990  214.2980  155.8660 C   0  0  0  0  0  1  0  0  0  0  0  0
  157.5440  214.4390  155.9070 O   0  0  0  0  0  0  0  0  0  0  0  0
  156.5580  214.1130  155.2680 C   0  0  0  0  0  0  0  0  0  0  0  0
  1 25  1  6  0  0  0
  1  6  1  0  0  0  0
  2  4  1  0  0  0  0
  3  1  1  0  0  0  0
  3  5  1  0  0  0  0
  4  9  1  6  0  0  0
  5 11  1  6  0  0  0
  5  2  1  0  0  0  0
  6  8  1  1  0  0  0
  6  4  1  0  0  0  0
  8  7  1  0  0  0  0
  9 10  1  0  0  0  0
 12 21  1  0  0  0  0
 13 20  1  0  0  0  0
 14 19  2  0  0  0  0
 14 15  1  0  0  0  0
 15 16  2  0  0  0  0
 16 18  1  0  0  0  0
 16 12  1  0  0  0  0
 17 18  2  0  0  0  0
 18 13  1  0  0  0  0
 19 17  1  0  0  0  0
 20 11  1  1  0  0  0
 21 20  1  0  0  0  0
 22 14  1  0  0  0  0
 23 22  1  0  0  0  0
 24 22  2  0  0  0  0
 25 31  1  0  0  0  0
 26 30  2  0  0  0  0
 27 28  1  0  0  0  0
 28 29  1  0  0  0  0
 28 34  1  1  0  0  0
 30 27  1  0  0  0  0
 30 31  1  0  0  0  0
 31 29  1  0  0  0  0
 34 32  1  0  0  0  0
 34 33  2  0  0  0  0
M  END
>  <MODEL>
7

>  <REMARK>
 VINA RESULT:      -7.1      1.469      2.528
  Name = 
  8 active torsions:
  status: ('A' for Active; 'I' for Inactive)
    1  A    between atoms: C_1  and  C_34
    2  A    between atoms: C_7  and  C_11
    3  A    between atoms: C_10  and  O_12
    4  A    between atoms: C_17  and  C_18
    5  A    between atoms: C_18  and  C_30
    6  A    between atoms: O_19  and  C_20
    7  A    between atoms: C_24  and  C_25
    8  A    between atoms: N_33  and  C_34
                            x       y       z     vdW  Elec       q    Type
                         _______ _______ _______ _____ _____    ______ ____

>  <TORSDO>
F 8

$$$$
=
 OpenBabel11062409303D

 34 37  0  0  1  0  0  0  0  0999 V2000
  161.4850  208.7950  152.7760 C   0  0  2  0  0  3  0  0  0  0  0  0
  160.8770  206.9360  155.0770 C   0  0  0  0  0  2  0  0  0  0  0  0
  161.8260  207.2960  152.7790 C   0  0  0  0  0  2  0  0  0  0  0  0
  161.0210  208.4550  155.2600 C   0  0  2  0  0  3  0  0  0  0  0  0
  160.8320  206.4890  153.6080 C   0  0  1  0  0  3  0  0  0  0  0  0
  160.6480  209.2300  153.9890 C   0  0  1  0  0  3  0  0  0  0  0  0
  159.5480  211.0620  154.2120 O   0  0  0  0  0  1  0  0  0  0  0  0
  160.7830  210.6040  154.2000 O   0  0  0  0  0  0  0  0  0  0  0  0
  162.3260  208.7570  155.6550 O   0  0  0  0  0  0  0  0  0  0  0  0
  162.2320  209.0050  156.9460 O   0  0  0  0  0  1  0  0  0  0  0  0
  161.1550  205.0030  153.4820 C   0  0  0  0  0  2  0  0  0  0  0  0
  160.6310  204.8570  149.6580 C   0  0  0  0  0  2  0  0  0  0  0  0
  161.1960  202.9970  151.9350 C   0  0  0  0  0  2  0  0  0  0  0  0
  160.9370  201.5080  147.8970 C   0  0  0  0  0  0  0  0  0  0  0  0
  160.7160  202.8700  148.1490 C   0  0  0  0  0  3  0  0  0  0  0  0
  160.8030  203.3780  149.4480 C   0  0  0  0  0  0  0  0  0  0  0  0
  161.3600  201.1570  150.2630 C   0  0  0  0  0  3  0  0  0  0  0  0
  161.1480  202.5150  150.5130 C   0  0  0  0  0  0  0  0  0  0  0  0
  161.2600  200.6570  148.9630 C   0  0  0  0  0  3  0  0  0  0  0  0
  161.2990  204.5200  152.0370 C   0  0  1  0  0  3  0  0  0  0  0  0
  160.2970  205.1970  151.1070 C   0  0  0  0  0  2  0  0  0  0  0  0
  160.8300  200.9770  146.5270 C   0  0  0  0  0  0  0  0  0  0  0  0
  161.2060  199.6310  146.2440 N   0  0  0  0  0  1  0  0  0  0  0  0
  160.4010  201.7040  145.5930 O   0  0  0  0  0  0  0  0  0  0  0  0
  160.7540  209.1660  151.4930 C   0  0  0  0  0  2  0  0  0  0  0  0
  161.9560  210.9930  149.5130 O   0  0  0  0  0  0  0  0  0  0  0  0
  162.7920  209.0970  148.2790 C   0  0  0  0  0  2  0  0  0  0  0  0
  162.6590  207.6040  148.6090 C   0  0  1  0  0  3  0  0  0  0  0  0
  161.8150  207.4730  149.8890 C   0  0  0  0  0  2  0  0  0  0  0  0
  162.0900  209.7490  149.4000 C   0  0  0  0  0  0  0  0  0  0  0  0
  161.5620  208.8270  150.3300 N   0  0  0  0  0  0  0  0  0  0  0  0
  162.7080  205.6710  146.8580 C   0  0  0  0  0  1  0  0  0  0  0  0
  160.9500  207.2180  147.0420 O   0  0  0  0  0  0  0  0  0  0  0  0
  162.0320  206.8550  147.4730 C   0  0  0  0  0  0  0  0  0  0  0  0
  1 25  1  6  0  0  0
  1  3  1  0  0  0  0
  1  6  1  0  0  0  0
  2  4  1  0  0  0  0
  3  5  1  0  0  0  0
  4  9  1  6  0  0  0
  5 11  1  1  0  0  0
  5  2  1  0  0  0  0
  6  8  1  1  0  0  0
  6  4  1  0  0  0  0
  8  7  1  0  0  0  0
  9 10  1  0  0  0  0
 12 21  1  0  0  0  0
 13 20  1  0  0  0  0
 14 15  2  0  0  0  0
 14 19  1  0  0  0  0
 15 16  1  0  0  0  0
 16 12  1  0  0  0  0
 16 18  2  0  0  0  0
 17 18  1  0  0  0  0
 18 13  1  0  0  0  0
 19 17  2  0  0  0  0
 20 11  1  1  0  0  0
 21 20  1  0  0  0  0
 22 14  1  0  0  0  0
 23 22  1  0  0  0  0
 24 22  2  0  0  0  0
 27 28  1  0  0  0  0
 27 30  1  0  0  0  0
 28 34  1  6  0  0  0
 28 29  1  0  0  0  0
 29 31  1  0  0  0  0
 30 26  2  0  0  0  0
 30 31  1  0  0  0  0
 31 25  1  0  0  0  0
 32 34  1  0  0  0  0
 33 34  2  0  0  0  0
M  END
>  <MODEL>
8

>  <REMARK>
 VINA RESULT:      -7.0      2.887      4.621
  Name = 
  8 active torsions:
  status: ('A' for Active; 'I' for Inactive)
    1  A    between atoms: C_1  and  C_34
    2  A    between atoms: C_7  and  C_11
    3  A    between atoms: C_10  and  O_12
    4  A    between atoms: C_17  and  C_18
    5  A    between atoms: C_18  and  C_30
    6  A    between atoms: O_19  and  C_20
    7  A    between atoms: C_24  and  C_25
    8  A    between atoms: N_33  and  C_34
                            x       y       z     vdW  Elec       q    Type
                         _______ _______ _______ _____ _____    ______ ____

>  <TORSDO>
F 8

$$$$
=
 OpenBabel11062409303D

 34 37  0  0  1  0  0  0  0  0999 V2000
  161.3850  210.7080  151.3440 C   0  0  2  0  0  3  0  0  0  0  0  0
  161.1270  208.5790  153.4710 C   0  0  0  0  0  2  0  0  0  0  0  0
  162.1920  209.4000  151.3490 C   0  0  0  0  0  2  0  0  0  0  0  0
  160.7430  210.0460  153.7220 C   0  0  2  0  0  3  0  0  0  0  0  0
  161.4180  208.2570  151.9980 C   0  0  1  0  0  3  0  0  0  0  0  0
  160.3040  210.7590  152.4350 C   0  0  1  0  0  3  0  0  0  0  0  0
  158.6450  212.1160  152.5810 O   0  0  0  0  0  1  0  0  0  0  0  0
  159.9550  212.0840  152.7080 O   0  0  0  0  0  0  0  0  0  0  0  0
  161.8170  210.7170  154.3130 O   0  0  0  0  0  0  0  0  0  0  0  0
  161.3620  211.0970  155.4890 O   0  0  0  0  0  1  0  0  0  0  0  0
  162.2210  206.9650  151.8730 C   0  0  0  0  0  2  0  0  0  0  0  0
  160.8590  203.5690  150.6360 C   0  0  0  0  0  2  0  0  0  0  0  0
  162.1900  206.0110  149.5260 C   0  0  0  0  0  2  0  0  0  0  0  0
  161.0130  202.7790  146.9260 C   0  0  0  0  0  0  0  0  0  0  0  0
  160.8050  202.6670  148.3090 C   0  0  0  0  0  3  0  0  0  0  0  0
  161.1700  203.7050  149.1710 C   0  0  0  0  0  0  0  0  0  0  0  0
  161.9400  204.9980  147.2640 C   0  0  0  0  0  3  0  0  0  0  0  0
  161.7260  204.8900  148.6400 C   0  0  0  0  0  0  0  0  0  0  0  0
  161.5820  203.9510  146.4110 C   0  0  0  0  0  3  0  0  0  0  0  0
  161.5930  205.9340  150.9330 C   0  0  1  0  0  3  0  0  0  0  0  0
  161.6940  204.5170  151.4910 C   0  0  0  0  0  2  0  0  0  0  0  0
  160.6380  201.6750  146.0240 C   0  0  0  0  0  0  0  0  0  0  0  0
  159.8160  201.9220  144.8860 N   0  0  0  0  0  1  0  0  0  0  0  0
  161.0450  200.5040  146.2470 O   0  0  0  0  0  0  0  0  0  0  0  0
  160.7440  210.9260  149.9810 C   0  0  0  0  0  2  0  0  0  0  0  0
  160.1960  213.8060  150.3020 O   0  0  0  0  0  0  0  0  0  0  0  0
  161.8000  214.2990  148.5690 C   0  0  0  0  0  2  0  0  0  0  0  0
  162.6780  213.3250  147.7720 C   0  0  1  0  0  3  0  0  0  0  0  0
  162.3310  211.8940  148.2190 C   0  0  0  0  0  2  0  0  0  0  0  0
  161.0490  213.4050  149.4710 C   0  0  0  0  0  0  0  0  0  0  0  0
  161.3740  212.0430  149.2940 N   0  0  0  0  0  0  0  0  0  0  0  0
  163.4510  212.9580  145.3070 C   0  0  0  0  0  1  0  0  0  0  0  0
  161.4720  214.0780  145.8990 O   0  0  0  0  0  0  0  0  0  0  0  0
  162.4660  213.4940  146.2970 C   0  0  0  0  0  0  0  0  0  0  0  0
  1 25  1  6  0  0  0
  1  3  1  0  0  0  0
  1  6  1  0  0  0  0
  2  4  1  0  0  0  0
  3  5  1  0  0  0  0
  4  9  1  6  0  0  0
  5 11  1  1  0  0  0
  5  2  1  0  0  0  0
  6  8  1  1  0  0  0
  6  4  1  0  0  0  0
  7  8  1  0  0  0  0
  9 10  1  0  0  0  0
 12 21  1  0  0  0  0
 13 20  1  0  0  0  0
 14 15  1  0  0  0  0
 15 16  2  0  0  0  0
 16 12  1  0  0  0  0
 17 18  2  0  0  0  0
 18 16  1  0  0  0  0
 18 13  1  0  0  0  0
 19 14  2  0  0  0  0
 19 17  1  0  0  0  0
 20 21  1  0  0  0  0
 20 11  1  1  0  0  0
 22 24  2  0  0  0  0
 22 14  1  0  0  0  0
 23 22  1  0  0  0  0
 27 30  1  0  0  0  0
 28 34  1  6  0  0  0
 28 29  1  0  0  0  0
 28 27  1  0  0  0  0
 29 31  1  0  0  0  0
 30 26  2  0  0  0  0
 31 30  1  0  0  0  0
 31 25  1  0  0  0  0
 32 34  1  0  0  0  0
 33 34  2  0  0  0  0
M  END
>  <MODEL>
9

>  <REMARK>
 VINA RESULT:      -6.9      2.370      3.295
  Name = 
  8 active torsions:
  status: ('A' for Active; 'I' for Inactive)
    1  A    between atoms: C_1  and  C_34
    2  A    between atoms: C_7  and  C_11
    3  A    between atoms: C_10  and  O_12
    4  A    between atoms: C_17  and  C_18
    5  A    between atoms: C_18  and  C_30
    6  A    between atoms: O_19  and  C_20
    7  A    between atoms: C_24  and  C_25
    8  A    between atoms: N_33  and  C_34
                            x       y       z     vdW  Elec       q    Type
                         _______ _______ _______ _____ _____    ______ ____

>  <TORSDO>
F 8

$$$$
