=
 OpenBabel11062409153D

 37 39  0  0  1  0  0  0  0  0999 V2000
  157.8060  213.3100  150.5090 C   0  0  0  0  0  2  0  0  0  0  0  0
  161.7440  212.9210  146.8760 C   0  0  0  0  0  1  0  0  0  0  0  0
  158.6880  212.2020  151.0630 C   0  0  1  0  0  3  0  0  0  0  0  0
  160.3100  207.9100  153.8160 C   0  0  1  0  0  3  0  0  0  0  0  0
  159.5070  212.7160  152.0830 O   0  0  0  0  0  0  0  0  0  0  0  0
  162.3300  210.1150  148.2650 C   0  0  0  0  0  2  0  0  0  0  0  0
  161.1650  210.2880  152.3230 N   0  0  0  0  0  0  0  0  0  0  0  0
  161.3170  209.8070  149.3560 C   0  0  0  0  0  2  0  0  0  0  0  0
  160.1940  210.4200  153.4260 C   0  0  2  0  0  3  0  0  0  0  0  0
  160.7210  214.4520  149.1870 C   0  0  0  0  0  2  0  0  0  0  0  0
  159.4390  213.9850  148.8830 O   0  0  0  0  0  0  0  0  0  0  0  0
  161.6660  213.2960  149.3240 C   0  0  0  0  0  3  0  0  0  0  0  0
  161.9060  208.8700  150.4070 C   0  0  1  0  0  3  0  0  0  0  0  0
  160.3080  209.2950  154.4670 C   0  0  0  0  0  2  0  0  0  0  0  0
  161.0730  208.9530  151.6960 C   0  0  1  0  0  3  0  0  0  0  0  0
  162.1300  212.5920  148.2850 C   0  0  0  0  0  0  0  0  0  0  0  0
  158.3840  211.9730  152.4960 C   0  0  2  0  0  3  0  0  0  0  0  0
  163.0380  211.4320  148.5440 C   0  0  0  0  0  2  0  0  0  0  0  0
  158.6390  214.4480  149.9290 C   0  0  0  0  0  2  0  0  0  0  0  0
  161.3590  207.8340  152.7010 C   0  0  0  0  0  2  0  0  0  0  0  0
  158.7690  210.5410  152.8800 C   0  0  0  0  0  2  0  0  0  0  0  0
  161.0010  207.1590  148.7590 C   0  0  0  0  0  1  0  0  0  0  0  0
  162.0180  207.4420  149.8550 C   0  0  0  0  0  2  0  0  0  0  0  0
  162.5120  210.5360  152.8430 C   0  0  0  0  0  2  0  0  0  0  0  0
  161.4560  211.7480  154.5940 O   0  0  0  0  0  0  0  0  0  0  0  0
  162.4350  211.0360  154.2420 C   0  0  0  0  0  0  0  0  0  0  0  0
  164.6770  211.4070  155.1850 C   0  0  0  0  0  1  0  0  0  0  0  0
  163.4430  210.7060  155.1490 O   0  0  0  0  0  0  0  0  0  0  0  0
  160.4450  206.8540  154.8330 N   0  0  0  0  0  0  0  0  0  0  0  0
  160.2210  205.5310  154.2570 C   0  0  0  0  0  2  0  0  0  0  0  0
  161.2410  205.2690  153.1680 C   0  0  0  0  0  2  0  0  0  0  0  0
  160.8650  204.0080  152.4200 C   0  0  0  0  0  2  0  0  0  0  0  0
  160.8960  204.2770  150.9300 C   0  0  0  0  0  1  0  0  0  0  0  0
  159.4340  207.0610  155.8620 C   0  0  0  0  0  2  0  0  0  0  0  0
  160.0940  207.3530  157.2040 C   0  0  0  0  0  2  0  0  0  0  0  0
  162.1190  208.8110  157.2590 C   0  0  0  0  0  1  0  0  0  0  0  0
  161.6090  207.3940  157.0730 C   0  0  0  0  0  2  0  0  0  0  0  0
  2 16  1  0  0  0  0
  3  1  1  1  0  0  0
  3  5  1  0  0  0  0
  3 17  1  0  0  0  0
  4 14  1  0  0  0  0
  4 29  1  1  0  0  0
  5 17  1  0  0  0  0
  6 18  1  0  0  0  0
  6  8  1  0  0  0  0
  7 24  1  0  0  0  0
  7  9  1  0  0  0  0
  8 13  1  0  0  0  0
  9 21  1  6  0  0  0
  9 14  1  0  0  0  0
 10 12  1  0  0  0  0
 11 10  1  0  0  0  0
 11 19  1  0  0  0  0
 13 23  1  6  0  0  0
 13 15  1  0  0  0  0
 15  7  1  0  0  0  0
 15 20  1  1  0  0  0
 16 18  1  0  0  0  0
 16 12  2  0  0  0  0
 17 21  1  6  0  0  0
 19  1  1  0  0  0  0
 20  4  1  0  0  0  0
 22 23  1  0  0  0  0
 24 26  1  0  0  0  0
 26 25  2  0  0  0  0
 26 28  1  0  0  0  0
 28 27  1  0  0  0  0
 29 34  1  0  0  0  0
 30 29  1  0  0  0  0
 31 30  1  0  0  0  0
 32 31  1  0  0  0  0
 33 32  1  0  0  0  0
 34 35  1  0  0  0  0
 37 35  1  0  0  0  0
 37 36  1  0  0  0  0
M  END
>  <MODEL>
1

>  <REMARK>
 VINA RESULT:      -1.0      0.000      0.000
  Name = 
  11 active torsions:
  status: ('A' for Active; 'I' for Inactive)
    1  A    between atoms: C_1  and  C_23
    2  A    between atoms: C_1  and  N_33
    3  A    between atoms: C_4  and  N_10
    4  A    between atoms: C_4  and  C_24
    5  A    between atoms: C_5  and  C_23
    6  A    between atoms: C_7  and  N_33
    7  A    between atoms: C_17  and  C_26
    8  A    between atoms: C_17  and  N_33
    9  A    between atoms: C_20  and  C_25
   10  A    between atoms: C_24  and  O_28
   11  A    between atoms: C_26  and  C_34
                            x       y       z     vdW  Elec       q    Type
                         _______ _______ _______ _____ _____    ______ ____

>  <TORSDO>
F 11

$$$$
=
 OpenBabel11062409153D

 37 39  0  0  1  0  0  0  0  0999 V2000
  157.7430  213.0660  150.9300 C   0  0  0  0  0  2  0  0  0  0  0  0
  161.5400  213.3450  147.1410 C   0  0  0  0  0  1  0  0  0  0  0  0
  158.6540  211.8920  151.2580 C   0  0  1  0  0  3  0  0  0  0  0  0
  160.4110  207.2210  153.1860 C   0  0  1  0  0  3  0  0  0  0  0  0
  159.5080  212.2380  152.3180 O   0  0  0  0  0  0  0  0  0  0  0  0
  162.1990  210.3540  148.0150 C   0  0  0  0  0  2  0  0  0  0  0  0
  161.1910  209.8270  152.0840 N   0  0  0  0  0  0  0  0  0  0  0  0
  161.2310  209.8540  149.0750 C   0  0  0  0  0  2  0  0  0  0  0  0
  160.2630  209.7590  153.2290 C   0  0  2  0  0  3  0  0  0  0  0  0
  160.5960  214.4520  149.7130 C   0  0  0  0  0  2  0  0  0  0  0  0
  159.3070  214.0260  149.3820 O   0  0  0  0  0  0  0  0  0  0  0  0
  161.5540  213.3030  149.6190 C   0  0  0  0  0  3  0  0  0  0  0  0
  161.8670  208.7620  149.9300 C   0  0  1  0  0  3  0  0  0  0  0  0
  160.4250  208.4760  154.0610 C   0  0  0  0  0  2  0  0  0  0  0  0
  161.0850  208.6160  151.2460 C   0  0  1  0  0  3  0  0  0  0  0  0
  161.9820  212.7900  148.4590 C   0  0  0  0  0  0  0  0  0  0  0  0
  158.4070  211.4210  152.6410 C   0  0  2  0  0  3  0  0  0  0  0  0
  162.9080  211.6160  148.4850 C   0  0  0  0  0  2  0  0  0  0  0  0
  158.5450  214.2960  150.5200 C   0  0  0  0  0  2  0  0  0  0  0  0
  161.4170  207.3480  152.0360 C   0  0  0  0  0  2  0  0  0  0  0  0
  158.8170  209.9510  152.7640 C   0  0  0  0  0  2  0  0  0  0  0  0
  160.6860  206.6300  149.2060 C   0  0  0  0  0  1  0  0  0  0  0  0
  161.9680  207.4490  149.1430 C   0  0  0  0  0  2  0  0  0  0  0  0
  162.5550  210.0020  152.5880 C   0  0  0  0  0  2  0  0  0  0  0  0
  161.5660  211.4770  154.1670 O   0  0  0  0  0  0  0  0  0  0  0  0
  162.5290  210.7120  153.8960 C   0  0  0  0  0  0  0  0  0  0  0  0
  163.4430  210.8810  156.1740 C   0  0  0  0  0  1  0  0  0  0  0  0
  163.5680  210.5170  154.8070 O   0  0  0  0  0  0  0  0  0  0  0  0
  160.5930  206.0110  154.0050 N   0  0  0  0  0  0  0  0  0  0  0  0
  161.0140  206.3470  155.3620 C   0  0  0  0  0  2  0  0  0  0  0  0
  159.8920  207.0700  156.0810 C   0  0  0  0  0  2  0  0  0  0  0  0
  160.4590  207.8330  157.2590 C   0  0  0  0  0  2  0  0  0  0  0  0
  160.5450  209.3040  156.9120 C   0  0  0  0  0  1  0  0  0  0  0  0
  161.6430  205.1940  153.4100 C   0  0  0  0  0  2  0  0  0  0  0  0
  161.0420  203.9810  152.7140 C   0  0  0  0  0  2  0  0  0  0  0  0
  161.2850  202.5350  150.6930 C   0  0  0  0  0  1  0  0  0  0  0  0
  161.4300  203.9420  151.2430 C   0  0  0  0  0  2  0  0  0  0  0  0
  2 16  1  0  0  0  0
  3  1  1  1  0  0  0
  3  5  1  0  0  0  0
  3 17  1  0  0  0  0
  4 29  1  1  0  0  0
  4 14  1  0  0  0  0
  5 17  1  0  0  0  0
  6 18  1  0  0  0  0
  6  8  1  0  0  0  0
  7 24  1  0  0  0  0
  7  9  1  0  0  0  0
  8 13  1  0  0  0  0
  9 21  1  6  0  0  0
  9 14  1  0  0  0  0
 11 10  1  0  0  0  0
 11 19  1  0  0  0  0
 12 10  1  0  0  0  0
 13 23  1  6  0  0  0
 13 15  1  0  0  0  0
 15 20  1  1  0  0  0
 15  7  1  0  0  0  0
 16 18  1  0  0  0  0
 16 12  2  0  0  0  0
 17 21  1  6  0  0  0
 19  1  1  0  0  0  0
 20  4  1  0  0  0  0
 23 22  1  0  0  0  0
 24 26  1  0  0  0  0
 26 25  2  0  0  0  0
 26 28  1  0  0  0  0
 28 27  1  0  0  0  0
 29 30  1  0  0  0  0
 30 31  1  0  0  0  0
 31 32  1  0  0  0  0
 33 32  1  0  0  0  0
 34 29  1  0  0  0  0
 35 34  1  0  0  0  0
 36 37  1  0  0  0  0
 37 35  1  0  0  0  0
M  END
>  <MODEL>
2

>  <REMARK>
 VINA RESULT:      -0.9      0.783      2.869
  Name = 
  11 active torsions:
  status: ('A' for Active; 'I' for Inactive)
    1  A    between atoms: C_1  and  C_23
    2  A    between atoms: C_1  and  N_33
    3  A    between atoms: C_4  and  N_10
    4  A    between atoms: C_4  and  C_24
    5  A    between atoms: C_5  and  C_23
    6  A    between atoms: C_7  and  N_33
    7  A    between atoms: C_17  and  C_26
    8  A    between atoms: C_17  and  N_33
    9  A    between atoms: C_20  and  C_25
   10  A    between atoms: C_24  and  O_28
   11  A    between atoms: C_26  and  C_34
                            x       y       z     vdW  Elec       q    Type
                         _______ _______ _______ _____ _____    ______ ____

>  <TORSDO>
F 11

$$$$
=
 OpenBabel11062409153D

 37 39  0  0  1  0  0  0  0  0999 V2000
  160.7680  208.8140  139.5870 C   0  0  0  0  0  2  0  0  0  0  0  0
  164.0600  212.1860  137.0110 C   0  0  0  0  0  1  0  0  0  0  0  0
  160.7720  210.0490  140.4760 C   0  0  1  0  0  3  0  0  0  0  0  0
  160.3020  213.2100  144.7670 C   0  0  1  0  0  3  0  0  0  0  0  0
  159.6110  210.8030  140.2430 O   0  0  0  0  0  0  0  0  0  0  0  0
  164.1280  213.7520  139.7840 C   0  0  0  0  0  2  0  0  0  0  0  0
  160.4900  213.1220  141.8390 N   0  0  0  0  0  0  0  0  0  0  0  0
  163.3330  213.0250  140.8580 C   0  0  0  0  0  2  0  0  0  0  0  0
  159.4780  212.3060  142.5370 C   0  0  2  0  0  3  0  0  0  0  0  0
  161.3290  211.0630  137.1030 C   0  0  0  0  0  2  0  0  0  0  0  0
  161.8480  209.9490  137.7690 O   0  0  0  0  0  0  0  0  0  0  0  0
  161.7230  212.3180  137.8240 C   0  0  0  0  0  3  0  0  0  0  0  0
  162.8270  213.9950  141.9210 C   0  0  1  0  0  3  0  0  0  0  0  0
  159.0800  212.8820  143.9060 C   0  0  0  0  0  2  0  0  0  0  0  0
  161.6690  213.3490  142.6990 C   0  0  1  0  0  3  0  0  0  0  0  0
  162.9590  212.8310  137.7940 C   0  0  0  0  0  0  0  0  0  0  0  0
  159.6210  210.0140  141.4090 C   0  0  2  0  0  3  0  0  0  0  0  0
  163.2480  214.0680  138.5840 C   0  0  0  0  0  2  0  0  0  0  0  0
  160.7280  209.1900  138.1100 C   0  0  0  0  0  2  0  0  0  0  0  0
  161.2970  214.0810  143.9910 C   0  0  0  0  0  2  0  0  0  0  0  0
  159.9400  210.8520  142.6500 C   0  0  0  0  0  2  0  0  0  0  0  0
  163.8430  213.9310  144.2500 C   0  0  0  0  0  1  0  0  0  0  0  0
  163.9780  214.4530  142.8260 C   0  0  0  0  0  2  0  0  0  0  0  0
  159.8800  214.3900  141.4330 C   0  0  0  0  0  2  0  0  0  0  0  0
  159.2840  214.3940  139.1320 O   0  0  0  0  0  0  0  0  0  0  0  0
  158.9220  214.1620  140.3160 C   0  0  0  0  0  0  0  0  0  0  0  0
  156.7000  213.4220  139.5640 C   0  0  0  0  0  1  0  0  0  0  0  0
  157.6400  213.6880  140.5940 O   0  0  0  0  0  0  0  0  0  0  0  0
  159.8930  213.7810  146.0600 N   0  0  0  0  0  0  0  0  0  0  0  0
  160.6750  213.2220  147.1590 C   0  0  0  0  0  2  0  0  0  0  0  0
  162.0890  213.7660  147.1080 C   0  0  0  0  0  2  0  0  0  0  0  0
  162.9770  212.9420  148.0150 C   0  0  0  0  0  2  0  0  0  0  0  0
  162.3100  211.6140  148.3030 C   0  0  0  0  0  1  0  0  0  0  0  0
  158.4950  213.4450  146.3020 C   0  0  0  0  0  2  0  0  0  0  0  0
  157.8720  214.4330  147.2790 C   0  0  0  0  0  2  0  0  0  0  0  0
  158.5260  214.2530  149.6820 C   0  0  0  0  0  1  0  0  0  0  0  0
  157.5640  213.7690  148.6130 C   0  0  0  0  0  2  0  0  0  0  0  0
  2 16  1  0  0  0  0
  3  1  1  6  0  0  0
  3 17  1  0  0  0  0
  4 29  1  1  0  0  0
  5  3  1  0  0  0  0
  5 17  1  0  0  0  0
  6  8  1  0  0  0  0
  7  9  1  0  0  0  0
  7 15  1  0  0  0  0
  8 13  1  0  0  0  0
  9 21  1  1  0  0  0
  9 14  1  0  0  0  0
 10 11  1  0  0  0  0
 10 12  1  0  0  0  0
 11 19  1  0  0  0  0
 13 15  1  0  0  0  0
 13 23  1  1  0  0  0
 14  4  1  0  0  0  0
 15 20  1  1  0  0  0
 16 12  2  0  0  0  0
 16 18  1  0  0  0  0
 17 21  1  1  0  0  0
 18  6  1  0  0  0  0
 19  1  1  0  0  0  0
 20  4  1  0  0  0  0
 23 22  1  0  0  0  0
 24  7  1  0  0  0  0
 25 26  2  0  0  0  0
 26 28  1  0  0  0  0
 26 24  1  0  0  0  0
 27 28  1  0  0  0  0
 29 34  1  0  0  0  0
 29 30  1  0  0  0  0
 31 30  1  0  0  0  0
 31 32  1  0  0  0  0
 32 33  1  0  0  0  0
 34 35  1  0  0  0  0
 35 37  1  0  0  0  0
 37 36  1  0  0  0  0
M  END
>  <MODEL>
3

>  <REMARK>
 VINA RESULT:      -0.7      7.161     11.544
  Name = 
  11 active torsions:
  status: ('A' for Active; 'I' for Inactive)
    1  A    between atoms: C_1  and  C_23
    2  A    between atoms: C_1  and  N_33
    3  A    between atoms: C_4  and  N_10
    4  A    between atoms: C_4  and  C_24
    5  A    between atoms: C_5  and  C_23
    6  A    between atoms: C_7  and  N_33
    7  A    between atoms: C_17  and  C_26
    8  A    between atoms: C_17  and  N_33
    9  A    between atoms: C_20  and  C_25
   10  A    between atoms: C_24  and  O_28
   11  A    between atoms: C_26  and  C_34
                            x       y       z     vdW  Elec       q    Type
                         _______ _______ _______ _____ _____    ______ ____

>  <TORSDO>
F 11

$$$$
=
 OpenBabel11062409153D

 37 39  0  0  1  0  0  0  0  0999 V2000
  156.2680  209.4960  156.1180 C   0  0  0  0  0  2  0  0  0  0  0  0
  156.7130  214.4510  154.0940 C   0  0  0  0  0  1  0  0  0  0  0  0
  157.5750  209.4420  155.3400 C   0  0  1  0  0  3  0  0  0  0  0  0
  161.7920  207.5660  152.6350 C   0  0  1  0  0  3  0  0  0  0  0  0
  158.6570  209.5700  156.2260 O   0  0  0  0  0  0  0  0  0  0  0  0
  158.8730  213.1340  152.1580 C   0  0  0  0  0  2  0  0  0  0  0  0
  160.6870  209.8530  154.1060 N   0  0  0  0  0  0  0  0  0  0  0  0
  158.9830  211.6340  152.3790 C   0  0  0  0  0  2  0  0  0  0  0  0
  160.7030  208.5160  154.7280 C   0  0  2  0  0  3  0  0  0  0  0  0
  157.0690  212.7750  156.5010 C   0  0  0  0  0  2  0  0  0  0  0  0
  156.1240  211.8880  155.9790 O   0  0  0  0  0  0  0  0  0  0  0  0
  158.1590  213.0090  155.4980 C   0  0  0  0  0  3  0  0  0  0  0  0
  160.3620  211.1180  151.9790 C   0  0  1  0  0  3  0  0  0  0  0  0
  161.8050  207.6020  154.1640 C   0  0  0  0  0  2  0  0  0  0  0  0
  160.6120  209.7500  152.6340 C   0  0  1  0  0  3  0  0  0  0  0  0
  158.0050  213.7600  154.4010 C   0  0  0  0  0  0  0  0  0  0  0  0
  158.3770  208.2690  155.7640 C   0  0  2  0  0  3  0  0  0  0  0  0
  159.1510  213.8920  153.4480 C   0  0  0  0  0  2  0  0  0  0  0  0
  156.1210  210.8130  156.8710 C   0  0  0  0  0  2  0  0  0  0  0  0
  161.8050  208.9860  152.0560 C   0  0  0  0  0  2  0  0  0  0  0  0
  159.3240  207.8590  154.6330 C   0  0  0  0  0  2  0  0  0  0  0  0
  161.0050  212.4090  149.8850 C   0  0  0  0  0  1  0  0  0  0  0  0
  160.5050  211.0870  150.4510 C   0  0  0  0  0  2  0  0  0  0  0  0
  161.8850  210.5850  154.5230 C   0  0  0  0  0  2  0  0  0  0  0  0
  160.9320  212.1520  156.0330 O   0  0  0  0  0  0  0  0  0  0  0  0
  161.6880  211.1570  155.8830 C   0  0  0  0  0  0  0  0  0  0  0  0
  163.7030  210.8410  157.2580 C   0  0  0  0  0  1  0  0  0  0  0  0
  162.3370  210.5790  156.9750 O   0  0  0  0  0  0  0  0  0  0  0  0
  162.8710  206.7050  152.1230 N   0  0  0  0  0  0  0  0  0  0  0  0
  162.9820  206.8000  150.6700 C   0  0  0  0  0  2  0  0  0  0  0  0
  161.7210  206.2610  150.0250 C   0  0  0  0  0  2  0  0  0  0  0  0
  161.5960  206.8170  148.6230 C   0  0  0  0  0  2  0  0  0  0  0  0
  162.2200  208.1950  148.5700 C   0  0  0  0  0  1  0  0  0  0  0  0
  162.5600  205.3180  152.4490 C   0  0  0  0  0  2  0  0  0  0  0  0
  161.0760  205.1650  152.7540 C   0  0  0  0  0  2  0  0  0  0  0  0
  161.6690  203.0050  151.6520 C   0  0  0  0  0  1  0  0  0  0  0  0
  160.5450  203.8330  152.2450 C   0  0  0  0  0  2  0  0  0  0  0  0
  1 19  1  0  0  0  0
  2 16  1  0  0  0  0
  3 17  1  0  0  0  0
  3  1  1  1  0  0  0
  3  5  1  0  0  0  0
  4 29  1  6  0  0  0
  4 14  1  0  0  0  0
  6  8  1  0  0  0  0
  6 18  1  0  0  0  0
  7 24  1  0  0  0  0
  7  9  1  0  0  0  0
  9 14  1  6  0  0  0
 11 10  1  0  0  0  0
 11 19  1  0  0  0  0
 12 10  1  0  0  0  0
 13 23  1  6  0  0  0
 13  8  1  0  0  0  0
 13 15  1  0  0  0  0
 15 20  1  6  0  0  0
 15  7  1  0  0  0  0
 16 12  2  0  0  0  0
 17 21  1  6  0  0  0
 17  5  1  0  0  0  0
 18 16  1  0  0  0  0
 20  4  1  0  0  0  0
 21  9  1  0  0  0  0
 22 23  1  0  0  0  0
 24 26  1  0  0  0  0
 26 25  2  0  0  0  0
 26 28  1  0  0  0  0
 28 27  1  0  0  0  0
 29 34  1  0  0  0  0
 30 29  1  0  0  0  0
 31 30  1  0  0  0  0
 32 31  1  0  0  0  0
 33 32  1  0  0  0  0
 34 35  1  0  0  0  0
 36 37  1  0  0  0  0
 37 35  1  0  0  0  0
M  END
>  <MODEL>
4

>  <REMARK>
 VINA RESULT:      -0.3      2.359      5.112
  Name = 
  11 active torsions:
  status: ('A' for Active; 'I' for Inactive)
    1  A    between atoms: C_1  and  C_23
    2  A    between atoms: C_1  and  N_33
    3  A    between atoms: C_4  and  N_10
    4  A    between atoms: C_4  and  C_24
    5  A    between atoms: C_5  and  C_23
    6  A    between atoms: C_7  and  N_33
    7  A    between atoms: C_17  and  C_26
    8  A    between atoms: C_17  and  N_33
    9  A    between atoms: C_20  and  C_25
   10  A    between atoms: C_24  and  O_28
   11  A    between atoms: C_26  and  C_34
                            x       y       z     vdW  Elec       q    Type
                         _______ _______ _______ _____ _____    ______ ____

>  <TORSDO>
F 11

$$$$
=
 OpenBabel11062409153D

 37 39  0  0  1  0  0  0  0  0999 V2000
  161.8390  201.9210  152.0040 C   0  0  0  0  0  2  0  0  0  0  0  0
  161.3170  200.1840  146.9480 C   0  0  0  0  0  1  0  0  0  0  0  0
  161.7720  203.2080  151.1940 C   0  0  1  0  0  3  0  0  0  0  0  0
  162.3400  208.3310  149.7590 C   0  0  1  0  0  3  0  0  0  0  0  0
  160.4790  203.7510  151.2760 O   0  0  0  0  0  0  0  0  0  0  0  0
  162.1630  203.1530  146.1650 C   0  0  0  0  0  2  0  0  0  0  0  0
  160.9390  205.8100  149.2150 N   0  0  0  0  0  0  0  0  0  0  0  0
  162.4930  203.9840  147.3950 C   0  0  0  0  0  2  0  0  0  0  0  0
  160.9510  206.3660  150.5810 C   0  0  2  0  0  3  0  0  0  0  0  0
  159.9070  200.6890  149.4950 C   0  0  0  0  0  2  0  0  0  0  0  0
  161.1310  200.5600  150.1570 O   0  0  0  0  0  0  0  0  0  0  0  0
  160.0200  201.7120  148.4050 C   0  0  0  0  0  3  0  0  0  0  0  0
  162.2710  205.4710  147.1310 C   0  0  1  0  0  3  0  0  0  0  0  0
  161.1470  207.8910  150.6090 C   0  0  0  0  0  2  0  0  0  0  0  0
  162.1460  206.2190  148.4680 C   0  0  1  0  0  3  0  0  0  0  0  0
  160.6630  201.4950  147.2510 C   0  0  0  0  0  0  0  0  0  0  0  0
  161.4640  204.3560  152.0800 C   0  0  2  0  0  3  0  0  0  0  0  0
  160.7470  202.6040  146.2500 C   0  0  0  0  0  2  0  0  0  0  0  0
  160.8490  200.8840  151.4850 C   0  0  0  0  0  2  0  0  0  0  0  0
  162.2500  207.7410  148.3470 C   0  0  0  0  0  2  0  0  0  0  0  0
  161.9890  205.6480  151.4480 C   0  0  0  0  0  2  0  0  0  0  0  0
  163.0870  205.8280  144.7500 C   0  0  0  0  0  1  0  0  0  0  0  0
  163.3800  206.0310  146.2300 C   0  0  0  0  0  2  0  0  0  0  0  0
  159.7210  206.2520  148.5320 C   0  0  0  0  0  2  0  0  0  0  0  0
  160.5340  207.6680  146.8060 O   0  0  0  0  0  0  0  0  0  0  0  0
  160.0180  206.5590  147.1060 C   0  0  0  0  0  0  0  0  0  0  0  0
  160.0160  205.8470  144.7520 C   0  0  0  0  0  1  0  0  0  0  0  0
  159.7260  205.6140  146.1220 O   0  0  0  0  0  0  0  0  0  0  0  0
  162.4890  209.7950  149.7850 N   0  0  0  0  0  0  0  0  0  0  0  0
  161.7330  210.3860  150.8860 C   0  0  0  0  0  2  0  0  0  0  0  0
  162.5360  210.2870  152.1680 C   0  0  0  0  0  2  0  0  0  0  0  0
  161.5960  210.3220  153.3530 C   0  0  0  0  0  2  0  0  0  0  0  0
  160.2190  210.7510  152.8920 C   0  0  0  0  0  1  0  0  0  0  0  0
  161.9570  210.3430  148.5440 C   0  0  0  0  0  2  0  0  0  0  0  0
  161.8320  211.8580  148.6430 C   0  0  0  0  0  2  0  0  0  0  0  0
  162.5960  214.0300  147.6780 C   0  0  0  0  0  1  0  0  0  0  0  0
  162.9120  212.5540  147.8270 C   0  0  0  0  0  2  0  0  0  0  0  0
  2 16  1  0  0  0  0
  3  5  1  0  0  0  0
  3  1  1  1  0  0  0
  3 17  1  0  0  0  0
  4 29  1  6  0  0  0
  4 14  1  0  0  0  0
  5 17  1  0  0  0  0
  6 18  1  0  0  0  0
  6  8  1  0  0  0  0
  7  9  1  0  0  0  0
  9 14  1  6  0  0  0
  9 21  1  0  0  0  0
 10 11  1  0  0  0  0
 11 19  1  0  0  0  0
 12 10  1  0  0  0  0
 13 23  1  1  0  0  0
 13  8  1  0  0  0  0
 13 15  1  0  0  0  0
 15 20  1  6  0  0  0
 15  7  1  0  0  0  0
 16 12  2  0  0  0  0
 17 21  1  6  0  0  0
 18 16  1  0  0  0  0
 19  1  1  0  0  0  0
 20  4  1  0  0  0  0
 22 23  1  0  0  0  0
 24  7  1  0  0  0  0
 25 26  2  0  0  0  0
 26 24  1  0  0  0  0
 27 28  1  0  0  0  0
 28 26  1  0  0  0  0
 29 30  1  0  0  0  0
 30 31  1  0  0  0  0
 31 32  1  0  0  0  0
 33 32  1  0  0  0  0
 34 35  1  0  0  0  0
 34 29  1  0  0  0  0
 36 37  1  0  0  0  0
 37 35  1  0  0  0  0
M  END
>  <MODEL>
5

>  <REMARK>
 VINA RESULT:       0.4      4.101      8.800
  Name = 
  11 active torsions:
  status: ('A' for Active; 'I' for Inactive)
    1  A    between atoms: C_1  and  C_23
    2  A    between atoms: C_1  and  N_33
    3  A    between atoms: C_4  and  N_10
    4  A    between atoms: C_4  and  C_24
    5  A    between atoms: C_5  and  C_23
    6  A    between atoms: C_7  and  N_33
    7  A    between atoms: C_17  and  C_26
    8  A    between atoms: C_17  and  N_33
    9  A    between atoms: C_20  and  C_25
   10  A    between atoms: C_24  and  O_28
   11  A    between atoms: C_26  and  C_34
                            x       y       z     vdW  Elec       q    Type
                         _______ _______ _______ _____ _____    ______ ____

>  <TORSDO>
F 11

$$$$
=
 OpenBabel11062409153D

 37 39  0  0  1  0  0  0  0  0999 V2000
  159.2710  207.9740  156.1510 C   0  0  0  0  0  2  0  0  0  0  0  0
  158.7920  213.3230  156.0120 C   0  0  0  0  0  1  0  0  0  0  0  0
  159.9180  208.3510  154.8270 C   0  0  1  0  0  3  0  0  0  0  0  0
  161.8010  208.0270  149.8300 C   0  0  1  0  0  3  0  0  0  0  0  0
  161.3150  208.3530  154.9670 O   0  0  0  0  0  0  0  0  0  0  0  0
  159.4300  212.9920  152.9090 C   0  0  0  0  0  2  0  0  0  0  0  0
  161.8330  209.5660  152.3290 N   0  0  0  0  0  0  0  0  0  0  0  0
  159.5590  211.5290  152.5170 C   0  0  0  0  0  2  0  0  0  0  0  0
  162.1170  208.1180  152.3510 C   0  0  2  0  0  3  0  0  0  0  0  0
  160.3330  211.0550  157.1140 C   0  0  0  0  0  2  0  0  0  0  0  0
  159.2090  210.2460  156.9260 O   0  0  0  0  0  0  0  0  0  0  0  0
  160.6900  211.7410  155.8290 C   0  0  0  0  0  3  0  0  0  0  0  0
  160.4500  211.3650  151.2890 C   0  0  1  0  0  3  0  0  0  0  0  0
  162.6650  207.5910  151.0140 C   0  0  0  0  0  2  0  0  0  0  0  0
  160.9450  209.9120  151.2000 C   0  0  1  0  0  3  0  0  0  0  0  0
  159.9950  212.7630  155.3190 C   0  0  0  0  0  0  0  0  0  0  0  0
  160.7520  207.2330  154.3260 C   0  0  2  0  0  3  0  0  0  0  0  0
  160.4200  213.3450  154.0080 C   0  0  0  0  0  2  0  0  0  0  0  0
  159.6420  208.9600  157.2540 C   0  0  0  0  0  2  0  0  0  0  0  0
  161.5690  209.5420  149.8530 C   0  0  0  0  0  2  0  0  0  0  0  0
  160.8850  207.3320  152.8040 C   0  0  0  0  0  2  0  0  0  0  0  0
  160.3930  213.0180  149.3590 C   0  0  0  0  0  1  0  0  0  0  0  0
  159.7160  211.8270  150.0230 C   0  0  0  0  0  2  0  0  0  0  0  0
  163.0990  210.2970  152.2480 C   0  0  0  0  0  2  0  0  0  0  0  0
  162.7200  210.6960  154.5600 O   0  0  0  0  0  0  0  0  0  0  0  0
  163.5480  210.6940  153.6110 C   0  0  0  0  0  0  0  0  0  0  0  0
  165.3280  211.5740  155.0630 C   0  0  0  0  0  1  0  0  0  0  0  0
  164.8800  211.0540  153.8210 O   0  0  0  0  0  0  0  0  0  0  0  0
  162.3610  207.5300  148.5620 N   0  0  0  0  0  0  0  0  0  0  0  0
  161.4280  207.7240  147.4560 C   0  0  0  0  0  2  0  0  0  0  0  0
  161.0240  206.3790  146.8860 C   0  0  0  0  0  2  0  0  0  0  0  0
  160.6510  206.5430  145.4280 C   0  0  0  0  0  2  0  0  0  0  0  0
  160.9800  205.2700  144.6780 C   0  0  0  0  0  1  0  0  0  0  0  0
  162.6030  206.0980  148.6850 C   0  0  0  0  0  2  0  0  0  0  0  0
  161.5410  205.4540  149.5670 C   0  0  0  0  0  2  0  0  0  0  0  0
  160.8290  203.1350  150.1560 C   0  0  0  0  0  1  0  0  0  0  0  0
  161.1190  204.0990  149.0200 C   0  0  0  0  0  2  0  0  0  0  0  0
  1 19  1  0  0  0  0
  3  5  1  0  0  0  0
  3  1  1  1  0  0  0
  4 29  1  6  0  0  0
  4 20  1  0  0  0  0
  4 14  1  0  0  0  0
  6 18  1  0  0  0  0
  7  9  1  0  0  0  0
  8  6  1  0  0  0  0
  9 14  1  6  0  0  0
  9 21  1  0  0  0  0
 11 10  1  0  0  0  0
 11 19  1  0  0  0  0
 12 10  1  0  0  0  0
 13 23  1  6  0  0  0
 13  8  1  0  0  0  0
 15 20  1  6  0  0  0
 15 13  1  0  0  0  0
 15  7  1  0  0  0  0
 16 12  2  0  0  0  0
 16  2  1  0  0  0  0
 17 21  1  6  0  0  0
 17  3  1  0  0  0  0
 17  5  1  0  0  0  0
 18 16  1  0  0  0  0
 22 23  1  0  0  0  0
 24  7  1  0  0  0  0
 24 26  1  0  0  0  0
 26 28  1  0  0  0  0
 26 25  2  0  0  0  0
 28 27  1  0  0  0  0
 29 34  1  0  0  0  0
 30 29  1  0  0  0  0
 31 30  1  0  0  0  0
 32 31  1  0  0  0  0
 33 32  1  0  0  0  0
 34 35  1  0  0  0  0
 37 35  1  0  0  0  0
 37 36  1  0  0  0  0
M  END
>  <MODEL>
6

>  <REMARK>
 VINA RESULT:       0.6      2.223      6.049
  Name = 
  11 active torsions:
  status: ('A' for Active; 'I' for Inactive)
    1  A    between atoms: C_1  and  C_23
    2  A    between atoms: C_1  and  N_33
    3  A    between atoms: C_4  and  N_10
    4  A    between atoms: C_4  and  C_24
    5  A    between atoms: C_5  and  C_23
    6  A    between atoms: C_7  and  N_33
    7  A    between atoms: C_17  and  C_26
    8  A    between atoms: C_17  and  N_33
    9  A    between atoms: C_20  and  C_25
   10  A    between atoms: C_24  and  O_28
   11  A    between atoms: C_26  and  C_34
                            x       y       z     vdW  Elec       q    Type
                         _______ _______ _______ _____ _____    ______ ____

>  <TORSDO>
F 11

$$$$
=
 OpenBabel11062409153D

 37 39  0  0  1  0  0  0  0  0999 V2000
  158.9230  204.1380  144.5230 C   0  0  0  0  0  2  0  0  0  0  0  0
  160.1780  200.0310  147.7480 C   0  0  0  0  0  1  0  0  0  0  0  0
  159.6310  204.8110  145.6900 C   0  0  1  0  0  3  0  0  0  0  0  0
  161.2150  208.5240  149.2000 C   0  0  1  0  0  3  0  0  0  0  0  0
  160.9580  205.1010  145.3330 O   0  0  0  0  0  0  0  0  0  0  0  0
  160.6160  202.2930  149.9480 C   0  0  0  0  0  2  0  0  0  0  0  0
  161.7860  205.8830  148.0530 N   0  0  0  0  0  0  0  0  0  0  0  0
  160.2640  203.6710  149.4120 C   0  0  0  0  0  2  0  0  0  0  0  0
  161.5920  207.0460  147.1660 C   0  0  2  0  0  3  0  0  0  0  0  0
  160.9330  201.5140  145.3070 C   0  0  0  0  0  2  0  0  0  0  0  0
  159.6060  201.9380  145.1970 O   0  0  0  0  0  0  0  0  0  0  0  0
  161.4660  201.8500  146.6670 C   0  0  0  0  0  3  0  0  0  0  0  0
  161.0320  204.7630  150.1520 C   0  0  1  0  0  3  0  0  0  0  0  0
  161.9160  208.3860  147.8480 C   0  0  0  0  0  2  0  0  0  0  0  0
  161.0340  206.0510  149.3140 C   0  0  1  0  0  3  0  0  0  0  0  0
  161.1250  201.1900  147.7790 C   0  0  0  0  0  0  0  0  0  0  0  0
  160.0540  206.1810  145.3130 C   0  0  2  0  0  3  0  0  0  0  0  0
  161.6890  201.6390  149.0900 C   0  0  0  0  0  2  0  0  0  0  0  0
  159.6110  202.8360  144.1280 C   0  0  0  0  0  2  0  0  0  0  0  0
  161.4810  207.2980  150.0800 C   0  0  0  0  0  2  0  0  0  0  0  0
  160.1810  207.0430  146.5710 C   0  0  0  0  0  2  0  0  0  0  0  0
  161.5050  204.7590  152.6500 C   0  0  0  0  0  1  0  0  0  0  0  0
  160.4600  204.9640  151.5620 C   0  0  0  0  0  2  0  0  0  0  0  0
  163.2170  205.7160  148.3110 C   0  0  0  0  0  2  0  0  0  0  0  0
  165.1040  204.8400  147.1620 O   0  0  0  0  0  0  0  0  0  0  0  0
  163.8500  204.9480  147.2040 C   0  0  0  0  0  0  0  0  0  0  0  0
  163.4520  204.2730  144.8720 C   0  0  0  0  0  1  0  0  0  0  0  0
  163.0460  204.3540  146.2300 O   0  0  0  0  0  0  0  0  0  0  0  0
  161.5620  209.8040  149.8400 N   0  0  0  0  0  0  0  0  0  0  0  0
  162.3670  210.6400  148.9540 C   0  0  0  0  0  2  0  0  0  0  0  0
  161.8760  212.0720  149.0160 C   0  0  0  0  0  2  0  0  0  0  0  0
  162.7040  212.9290  148.0840 C   0  0  0  0  0  2  0  0  0  0  0  0
  162.0700  212.9360  146.7090 C   0  0  0  0  0  1  0  0  0  0  0  0
  162.3600  209.5320  151.0300 C   0  0  0  0  0  2  0  0  0  0  0  0
  161.7730  210.2520  152.2380 C   0  0  0  0  0  2  0  0  0  0  0  0
  160.8290  208.3150  153.4970 C   0  0  0  0  0  1  0  0  0  0  0  0
  160.4980  209.5730  152.7170 C   0  0  0  0  0  2  0  0  0  0  0  0
  2 16  1  0  0  0  0
  3  1  1  6  0  0  0
  4 29  1  1  0  0  0
  4 20  1  0  0  0  0
  5  3  1  0  0  0  0
  7 24  1  0  0  0  0
  7 15  1  0  0  0  0
  8  6  1  0  0  0  0
  8 13  1  0  0  0  0
  9 21  1  1  0  0  0
  9 14  1  0  0  0  0
  9  7  1  0  0  0  0
 10 12  1  0  0  0  0
 11 10  1  0  0  0  0
 12 16  2  0  0  0  0
 13 23  1  1  0  0  0
 14  4  1  0  0  0  0
 15 20  1  1  0  0  0
 15 13  1  0  0  0  0
 16 18  1  0  0  0  0
 17  5  1  0  0  0  0
 17  3  1  0  0  0  0
 17 21  1  1  0  0  0
 18  6  1  0  0  0  0
 19  1  1  0  0  0  0
 19 11  1  0  0  0  0
 23 22  1  0  0  0  0
 25 26  2  0  0  0  0
 26 24  1  0  0  0  0
 27 28  1  0  0  0  0
 28 26  1  0  0  0  0
 29 34  1  0  0  0  0
 30 31  1  0  0  0  0
 30 29  1  0  0  0  0
 32 31  1  0  0  0  0
 33 32  1  0  0  0  0
 34 35  1  0  0  0  0
 35 37  1  0  0  0  0
 37 36  1  0  0  0  0
M  END
>  <MODEL>
7

>  <REMARK>
 VINA RESULT:       1.0      4.711      8.753
  Name = 
  11 active torsions:
  status: ('A' for Active; 'I' for Inactive)
    1  A    between atoms: C_1  and  C_23
    2  A    between atoms: C_1  and  N_33
    3  A    between atoms: C_4  and  N_10
    4  A    between atoms: C_4  and  C_24
    5  A    between atoms: C_5  and  C_23
    6  A    between atoms: C_7  and  N_33
    7  A    between atoms: C_17  and  C_26
    8  A    between atoms: C_17  and  N_33
    9  A    between atoms: C_20  and  C_25
   10  A    between atoms: C_24  and  O_28
   11  A    between atoms: C_26  and  C_34
                            x       y       z     vdW  Elec       q    Type
                         _______ _______ _______ _____ _____    ______ ____

>  <TORSDO>
F 11

$$$$
=
 OpenBabel11062409153D

 37 39  0  0  1  0  0  0  0  0999 V2000
  160.4570  206.4520  145.2790 C   0  0  0  0  0  2  0  0  0  0  0  0
  160.7250  201.3560  146.9570 C   0  0  0  0  0  1  0  0  0  0  0  0
  160.7280  206.5860  146.7700 C   0  0  1  0  0  3  0  0  0  0  0  0
  160.9750  208.6090  151.7170 C   0  0  1  0  0  3  0  0  0  0  0  0
  162.0890  206.8600  146.9800 O   0  0  0  0  0  0  0  0  0  0  0  0
  160.3580  202.6150  149.8600 C   0  0  0  0  0  2  0  0  0  0  0  0
  161.9680  206.5220  149.9070 N   0  0  0  0  0  0  0  0  0  0  0  0
  160.1560  204.1210  149.7960 C   0  0  0  0  0  2  0  0  0  0  0  0
  162.0360  207.9390  149.5050 C   0  0  2  0  0  3  0  0  0  0  0  0
  162.1840  203.5450  145.6110 C   0  0  0  0  0  2  0  0  0  0  0  0
  160.9510  204.1030  145.2600 O   0  0  0  0  0  0  0  0  0  0  0  0
  162.2380  203.3140  147.0920 C   0  0  0  0  0  3  0  0  0  0  0  0
  160.6090  204.7930  151.0890 C   0  0  1  0  0  3  0  0  0  0  0  0
  162.0810  208.9040  150.7020 C   0  0  0  0  0  2  0  0  0  0  0  0
  160.8430  206.2910  150.8370 C   0  0  1  0  0  3  0  0  0  0  0  0
  161.5750  202.3310  147.7110 C   0  0  0  0  0  0  0  0  0  0  0  0
  161.2080  207.9530  147.0840 C   0  0  2  0  0  3  0  0  0  0  0  0
  161.6710  202.2190  149.2000 C   0  0  0  0  0  2  0  0  0  0  0  0
  161.2750  205.3230  144.6630 C   0  0  0  0  0  2  0  0  0  0  0  0
  160.9790  207.1270  152.1120 C   0  0  0  0  0  2  0  0  0  0  0  0
  160.8950  208.2850  148.5460 C   0  0  0  0  0  2  0  0  0  0  0  0
  159.9800  203.3040  153.0510 C   0  0  0  0  0  1  0  0  0  0  0  0
  159.6060  204.5230  152.2180 C   0  0  0  0  0  2  0  0  0  0  0  0
  163.2430  206.1380  150.5160 C   0  0  0  0  0  2  0  0  0  0  0  0
  162.7780  204.2210  151.8410 O   0  0  0  0  0  0  0  0  0  0  0  0
  163.0030  205.4600  151.8190 C   0  0  0  0  0  0  0  0  0  0  0  0
  162.1150  205.9740  154.0550 C   0  0  0  0  0  1  0  0  0  0  0  0
  163.0370  206.2020  153.0000 O   0  0  0  0  0  0  0  0  0  0  0  0
  161.0570  209.5300  152.8630 N   0  0  0  0  0  0  0  0  0  0  0  0
  160.2370  209.0650  153.9780 C   0  0  0  0  0  2  0  0  0  0  0  0
  160.9890  209.2550  155.2790 C   0  0  0  0  0  2  0  0  0  0  0  0
  160.1400  208.7560  156.4280 C   0  0  0  0  0  2  0  0  0  0  0  0
  159.6920  207.3380  156.1440 C   0  0  0  0  0  1  0  0  0  0  0  0
  160.5460  210.8330  152.4550 C   0  0  0  0  0  2  0  0  0  0  0  0
  159.0740  210.9640  152.8250 C   0  0  0  0  0  2  0  0  0  0  0  0
  158.2050  212.1020  154.8700 C   0  0  0  0  0  1  0  0  0  0  0  0
  158.7900  212.3060  153.4850 C   0  0  0  0  0  2  0  0  0  0  0  0
  2 16  1  0  0  0  0
  3  1  1  6  0  0  0
  3  5  1  0  0  0  0
  3 17  1  0  0  0  0
  4 20  1  0  0  0  0
  4 29  1  1  0  0  0
  5 17  1  0  0  0  0
  7 24  1  0  0  0  0
  7 15  1  0  0  0  0
  8  6  1  0  0  0  0
  8 13  1  0  0  0  0
  9 21  1  6  0  0  0
  9  7  1  0  0  0  0
  9 14  1  0  0  0  0
 10 12  1  0  0  0  0
 11 10  1  0  0  0  0
 12 16  2  0  0  0  0
 13 23  1  1  0  0  0
 14  4  1  0  0  0  0
 15 13  1  0  0  0  0
 15 20  1  1  0  0  0
 16 18  1  0  0  0  0
 17 21  1  1  0  0  0
 18  6  1  0  0  0  0
 19 11  1  0  0  0  0
 19  1  1  0  0  0  0
 23 22  1  0  0  0  0
 24 26  1  0  0  0  0
 26 25  2  0  0  0  0
 26 28  1  0  0  0  0
 28 27  1  0  0  0  0
 29 30  1  0  0  0  0
 30 31  1  0  0  0  0
 31 32  1  0  0  0  0
 33 32  1  0  0  0  0
 34 35  1  0  0  0  0
 34 29  1  0  0  0  0
 35 37  1  0  0  0  0
 37 36  1  0  0  0  0
M  END
>  <MODEL>
8

>  <REMARK>
 VINA RESULT:       1.1      3.464      6.933
  Name = 
  11 active torsions:
  status: ('A' for Active; 'I' for Inactive)
    1  A    between atoms: C_1  and  C_23
    2  A    between atoms: C_1  and  N_33
    3  A    between atoms: C_4  and  N_10
    4  A    between atoms: C_4  and  C_24
    5  A    between atoms: C_5  and  C_23
    6  A    between atoms: C_7  and  N_33
    7  A    between atoms: C_17  and  C_26
    8  A    between atoms: C_17  and  N_33
    9  A    between atoms: C_20  and  C_25
   10  A    between atoms: C_24  and  O_28
   11  A    between atoms: C_26  and  C_34
                            x       y       z     vdW  Elec       q    Type
                         _______ _______ _______ _____ _____    ______ ____

>  <TORSDO>
F 11

$$$$
=
 OpenBabel11062409153D

 37 39  0  0  1  0  0  0  0  0999 V2000
  158.8550  204.6820  144.5910 C   0  0  0  0  0  2  0  0  0  0  0  0
  159.7660  200.3990  147.7020 C   0  0  0  0  0  1  0  0  0  0  0  0
  159.6660  205.2520  145.7450 C   0  0  1  0  0  3  0  0  0  0  0  0
  161.7440  208.7040  149.2640 C   0  0  1  0  0  3  0  0  0  0  0  0
  161.0050  205.4080  145.3490 O   0  0  0  0  0  0  0  0  0  0  0  0
  160.5100  202.5560  149.9240 C   0  0  0  0  0  2  0  0  0  0  0  0
  161.9950  206.0420  148.0540 N   0  0  0  0  0  0  0  0  0  0  0  0
  160.2900  203.9750  149.4250 C   0  0  0  0  0  2  0  0  0  0  0  0
  161.8980  207.2360  147.1940 C   0  0  2  0  0  3  0  0  0  0  0  0
  160.5980  201.8440  145.2620 C   0  0  0  0  0  2  0  0  0  0  0  0
  159.3210  202.4080  145.2040 O   0  0  0  0  0  0  0  0  0  0  0  0
  161.2060  202.0950  146.6100 C   0  0  0  0  0  3  0  0  0  0  0  0
  161.1920  204.9640  150.1570 C   0  0  1  0  0  3  0  0  0  0  0  0
  162.3840  208.5200  147.8870 C   0  0  0  0  0  2  0  0  0  0  0  0
  161.3040  206.2620  149.3410 C   0  0  1  0  0  3  0  0  0  0  0  0
  160.8310  201.4510  147.7210 C   0  0  0  0  0  0  0  0  0  0  0  0
  160.2200  206.5770  145.3780 C   0  0  2  0  0  3  0  0  0  0  0  0
  161.4810  201.8110  149.0200 C   0  0  0  0  0  2  0  0  0  0  0  0
  159.3880  203.3230  144.1510 C   0  0  0  0  0  2  0  0  0  0  0  0
  161.9050  207.4380  150.1140 C   0  0  0  0  0  2  0  0  0  0  0  0
  160.4780  207.3950  146.6460 C   0  0  0  0  0  2  0  0  0  0  0  0
  161.7370  204.8510  152.6380 C   0  0  0  0  0  1  0  0  0  0  0  0
  160.6890  205.1960  151.5890 C   0  0  0  0  0  2  0  0  0  0  0  0
  163.4080  205.7190  148.2620 C   0  0  0  0  0  2  0  0  0  0  0  0
  165.1230  204.5410  147.1130 O   0  0  0  0  0  0  0  0  0  0  0  0
  163.9070  204.8690  147.1460 C   0  0  0  0  0  0  0  0  0  0  0  0
  163.4620  204.1270  144.8430 C   0  0  0  0  0  1  0  0  0  0  0  0
  163.0220  204.4410  146.1560 O   0  0  0  0  0  0  0  0  0  0  0  0
  162.2450  209.9260  149.9150 N   0  0  0  0  0  0  0  0  0  0  0  0
  162.0670  209.8670  151.3630 C   0  0  0  0  0  2  0  0  0  0  0  0
  160.8760  210.7130  151.7660 C   0  0  0  0  0  2  0  0  0  0  0  0
  160.0840  209.9900  152.8340 C   0  0  0  0  0  2  0  0  0  0  0  0
  160.8580  208.7760  153.3000 C   0  0  0  0  0  1  0  0  0  0  0  0
  161.4810  211.0670  149.4250 C   0  0  0  0  0  2  0  0  0  0  0  0
  162.3700  211.9850  148.5970 C   0  0  0  0  0  2  0  0  0  0  0  0
  162.3370  213.8280  146.9140 C   0  0  0  0  0  1  0  0  0  0  0  0
  161.5910  212.6230  147.4560 C   0  0  0  0  0  2  0  0  0  0  0  0
  2 16  1  0  0  0  0
  3  1  1  6  0  0  0
  4 29  1  1  0  0  0
  4 20  1  0  0  0  0
  5 17  1  0  0  0  0
  5  3  1  0  0  0  0
  7 24  1  0  0  0  0
  7 15  1  0  0  0  0
  8  6  1  0  0  0  0
  8 13  1  0  0  0  0
  9 21  1  1  0  0  0
  9 14  1  0  0  0  0
  9  7  1  0  0  0  0
 10 12  1  0  0  0  0
 11 10  1  0  0  0  0
 12 16  2  0  0  0  0
 13 23  1  1  0  0  0
 14  4  1  0  0  0  0
 15 20  1  1  0  0  0
 15 13  1  0  0  0  0
 16 18  1  0  0  0  0
 17  3  1  0  0  0  0
 17 21  1  1  0  0  0
 18  6  1  0  0  0  0
 19  1  1  0  0  0  0
 19 11  1  0  0  0  0
 23 22  1  0  0  0  0
 25 26  2  0  0  0  0
 26 24  1  0  0  0  0
 27 28  1  0  0  0  0
 28 26  1  0  0  0  0
 29 30  1  0  0  0  0
 30 31  1  0  0  0  0
 31 32  1  0  0  0  0
 32 33  1  0  0  0  0
 34 29  1  0  0  0  0
 35 34  1  0  0  0  0
 36 37  1  0  0  0  0
 37 35  1  0  0  0  0
M  END
>  <MODEL>
9

>  <REMARK>
 VINA RESULT:       1.1      4.637      8.791
  Name = 
  11 active torsions:
  status: ('A' for Active; 'I' for Inactive)
    1  A    between atoms: C_1  and  C_23
    2  A    between atoms: C_1  and  N_33
    3  A    between atoms: C_4  and  N_10
    4  A    between atoms: C_4  and  C_24
    5  A    between atoms: C_5  and  C_23
    6  A    between atoms: C_7  and  N_33
    7  A    between atoms: C_17  and  C_26
    8  A    between atoms: C_17  and  N_33
    9  A    between atoms: C_20  and  C_25
   10  A    between atoms: C_24  and  O_28
   11  A    between atoms: C_26  and  C_34
                            x       y       z     vdW  Elec       q    Type
                         _______ _______ _______ _____ _____    ______ ____

>  <TORSDO>
F 11

$$$$
