=
 OpenBabel11062408103D

 34 36  0  0  1  0  0  0  0  0999 V2000
  161.2700  207.5290  150.0300 C   0  0  1  0  0  3  0  0  0  0  0  0
  160.3750  206.4640  149.4120 C   0  0  2  0  0  3  0  0  0  0  0  0
  161.2900  204.9770  148.0650 N   0  0  0  0  0  0  0  0  0  0  0  0
  162.1490  204.2340  146.0490 O   0  0  0  0  0  0  0  0  0  0  0  0
  161.4810  202.5820  147.4890 O   0  0  0  0  0  0  0  0  0  0  0  0
  160.4470  200.8900  148.6310 O   0  0  0  0  0  0  0  0  0  0  0  0
  161.0480  205.1380  149.4990 C   0  0  2  0  0  3  0  0  0  0  0  0
  161.6810  203.9340  147.1780 C   0  0  0  0  0  0  0  0  0  0  0  0
  160.9470  202.7550  149.9920 C   0  0  0  0  0  2  0  0  0  0  0  0
  160.9240  202.0540  148.6670 C   0  0  0  0  0  0  0  0  0  0  0  0
  160.1340  204.0340  149.9820 C   0  0  0  0  0  2  0  0  0  0  0  0
  160.6940  206.3160  147.9590 C   0  0  0  0  0  2  0  0  0  0  0  0
  162.1390  206.9350  151.0350 N   0  0  0  0  0  2  0  0  0  0  0  0
  161.8600  207.0280  152.4340 C   0  0  0  0  0  0  0  0  0  0  0  0
  162.6800  206.5520  153.2620 O   0  0  0  0  0  0  0  0  0  0  0  0
  160.5870  207.6310  152.9250 C   0  0  0  0  0  2  0  0  0  0  0  0
  160.8840  208.5440  154.1020 C   0  0  0  0  0  2  0  0  0  0  0  0
  162.4600  210.2780  155.9100 C   0  0  0  0  0  1  0  0  0  0  0  0
  161.4130  209.8950  153.6230 C   0  0  2  0  0  3  0  0  0  0  0  0
  161.6310  210.8770  154.7870 C   0  0  1  0  0  3  0  0  0  0  0  0
  159.5950  212.0460  154.2790 O   0  0  0  0  0  0  0  0  0  0  0  0
  159.2090  211.0670  153.3450 C   0  0  0  0  0  2  0  0  0  0  0  0
  160.4410  210.5180  152.6150 C   0  0  0  0  0  2  0  0  0  0  0  0
  160.2840  211.3820  155.3100 C   0  0  0  0  0  2  0  0  0  0  0  0
  162.2870  208.3270  148.7490 S   0  0  0  0  0  0  0  0  0  0  0  0
  161.9870  209.9940  149.4130 C   0  0  0  0  0  2  0  0  0  0  0  0
  162.3460  211.0570  148.3790 C   0  0  0  0  0  2  0  0  0  0  0  0
  161.7140  212.4290  148.6620 C   0  0  1  0  0  3  0  0  0  0  0  0
  160.2320  212.0740  146.7810 O   0  0  0  0  0  1  0  0  0  0  0  0
  161.9630  213.6940  146.5050 C   0  0  0  0  0  1  0  0  0  0  0  0
  160.9860  213.0350  147.4600 C   0  0  2  0  0  3  0  0  0  0  0  0
  160.8760  212.3920  149.7800 O   0  0  0  0  0  0  0  0  0  0  0  0
  160.3350  213.6770  149.8700 C   0  0  0  0  0  2  0  0  0  0  0  0
  159.0420  213.5980  150.3860 O   0  0  0  0  0  1  0  0  0  0  0  0
  1 25  1  6  0  0  0
  1 13  1  0  0  0  0
  2  7  1  0  0  0  0
  2  1  1  1  0  0  0
  3  7  1  0  0  0  0
  4  8  2  0  0  0  0
  5 10  1  0  0  0  0
  6 10  2  0  0  0  0
  7 11  1  6  0  0  0
  8  5  1  0  0  0  0
  8  3  1  0  0  0  0
 10  9  1  0  0  0  0
 11  9  1  0  0  0  0
 12  3  1  0  0  0  0
 12  2  1  0  0  0  0
 13 14  1  0  0  0  0
 14 16  1  0  0  0  0
 14 15  2  0  0  0  0
 16 17  1  0  0  0  0
 19 17  1  1  0  0  0
 19 20  1  0  0  0  0
 20 24  1  0  0  0  0
 20 18  1  1  0  0  0
 21 24  1  0  0  0  0
 22 21  1  0  0  0  0
 23 22  1  0  0  0  0
 23 19  1  0  0  0  0
 25 26  1  0  0  0  0
 27 26  1  0  0  0  0
 28 27  1  6  0  0  0
 28 32  1  0  0  0  0
 29 31  1  0  0  0  0
 31 30  1  6  0  0  0
 31 28  1  0  0  0  0
 32 33  1  0  0  0  0
 33 34  1  0  0  0  0
M  END
>  <MODEL>
1

>  <REMARK>
 VINA RESULT:      -6.6      0.000      0.000
  Name = 
  12 active torsions:
  status: ('A' for Active; 'I' for Inactive)
    1  A    between atoms: O_1  and  C_15
    2  A    between atoms: O_1  and  C_24
    3  A    between atoms: C_2  and  C_15
    4  A    between atoms: C_2  and  C_25
    5  A    between atoms: C_3  and  C_13
    6  A    between atoms: C_3  and  C_17
    7  A    between atoms: C_4  and  C_31
    8  A    between atoms: N_5  and  C_31
    9  A    between atoms: S_10  and  C_25
   10  A    between atoms: S_10  and  C_31
   11  A    between atoms: C_15  and  C_19
   12  A    between atoms: C_17  and  C_18
                            x       y       z     vdW  Elec       q    Type
                         _______ _______ _______ _____ _____    ______ ____

>  <TORSDO>
F 12

$$$$
=
 OpenBabel11062408103D

 34 36  0  0  1  0  0  0  0  0999 V2000
  161.3090  207.5240  149.8190 C   0  0  1  0  0  3  0  0  0  0  0  0
  160.4290  206.4960  149.1230 C   0  0  2  0  0  3  0  0  0  0  0  0
  161.3130  205.2720  147.5150 N   0  0  0  0  0  0  0  0  0  0  0  0
  162.0460  204.8720  145.3580 O   0  0  0  0  0  0  0  0  0  0  0  0
  161.5910  202.9970  146.5930 O   0  0  0  0  0  0  0  0  0  0  0  0
  160.7510  201.0990  147.5550 O   0  0  0  0  0  0  0  0  0  0  0  0
  161.1800  205.2180  148.9710 C   0  0  2  0  0  3  0  0  0  0  0  0
  161.6890  204.3890  146.4630 C   0  0  0  0  0  0  0  0  0  0  0  0
  161.2540  202.7890  149.1280 C   0  0  0  0  0  2  0  0  0  0  0  0
  161.1620  202.2760  147.7220 C   0  0  0  0  0  0  0  0  0  0  0  0
  160.3720  204.0000  149.3580 C   0  0  0  0  0  2  0  0  0  0  0  0
  160.6360  206.5700  147.6440 C   0  0  0  0  0  2  0  0  0  0  0  0
  162.2100  206.8640  150.7520 N   0  0  0  0  0  2  0  0  0  0  0  0
  161.9950  206.8890  152.1650 C   0  0  0  0  0  0  0  0  0  0  0  0
  162.8410  206.3590  152.9300 O   0  0  0  0  0  0  0  0  0  0  0  0
  160.7570  207.4880  152.7430 C   0  0  0  0  0  2  0  0  0  0  0  0
  161.0930  208.8240  153.3810 C   0  0  0  0  0  2  0  0  0  0  0  0
  159.1670  211.0650  153.5530 C   0  0  0  0  0  1  0  0  0  0  0  0
  160.2650  209.0470  154.6460 C   0  0  2  0  0  3  0  0  0  0  0  0
  159.8310  210.5150  154.8030 C   0  0  1  0  0  3  0  0  0  0  0  0
  161.5410  210.9210  156.4400 O   0  0  0  0  0  0  0  0  0  0  0  0
  162.1380  209.6710  156.1970 C   0  0  0  0  0  2  0  0  0  0  0  0
  161.0630  208.6230  155.8840 C   0  0  0  0  0  2  0  0  0  0  0  0
  161.0280  211.3770  155.2120 C   0  0  0  0  0  2  0  0  0  0  0  0
  162.2830  208.4580  148.5980 S   0  0  0  0  0  0  0  0  0  0  0  0
  161.8730  210.0610  149.3550 C   0  0  0  0  0  2  0  0  0  0  0  0
  162.2190  211.2060  148.4080 C   0  0  0  0  0  2  0  0  0  0  0  0
  161.0070  212.0600  148.0060 C   0  0  1  0  0  3  0  0  0  0  0  0
  162.4290  213.9690  148.4530 O   0  0  0  0  0  1  0  0  0  0  0  0
  160.4920  213.7160  149.8250 C   0  0  0  0  0  1  0  0  0  0  0  0
  161.1050  213.5220  148.4510 C   0  0  2  0  0  3  0  0  0  0  0  0
  160.7470  211.9780  146.6350 O   0  0  0  0  0  0  0  0  0  0  0  0
  159.4410  212.4480  146.4840 C   0  0  0  0  0  2  0  0  0  0  0  0
  159.3590  213.2240  145.3280 O   0  0  0  0  0  1  0  0  0  0  0  0
  1 25  1  6  0  0  0
  1 13  1  0  0  0  0
  2  1  1  1  0  0  0
  3 12  1  0  0  0  0
  3  7  1  0  0  0  0
  4  8  2  0  0  0  0
  5 10  1  0  0  0  0
  6 10  2  0  0  0  0
  7  2  1  0  0  0  0
  7 11  1  6  0  0  0
  8  5  1  0  0  0  0
  8  3  1  0  0  0  0
  9 11  1  0  0  0  0
 10  9  1  0  0  0  0
 12  2  1  0  0  0  0
 13 14  1  0  0  0  0
 14 16  1  0  0  0  0
 14 15  2  0  0  0  0
 16 17  1  0  0  0  0
 19 17  1  6  0  0  0
 19 20  1  0  0  0  0
 19 23  1  0  0  0  0
 20 18  1  6  0  0  0
 20 24  1  0  0  0  0
 22 21  1  0  0  0  0
 23 22  1  0  0  0  0
 24 21  1  0  0  0  0
 25 26  1  0  0  0  0
 27 26  1  0  0  0  0
 28 27  1  6  0  0  0
 28 31  1  0  0  0  0
 31 29  1  0  0  0  0
 31 30  1  1  0  0  0
 32 28  1  0  0  0  0
 33 32  1  0  0  0  0
 34 33  1  0  0  0  0
M  END
>  <MODEL>
2

>  <REMARK>
 VINA RESULT:      -6.3      1.251      2.113
  Name = 
  12 active torsions:
  status: ('A' for Active; 'I' for Inactive)
    1  A    between atoms: O_1  and  C_15
    2  A    between atoms: O_1  and  C_24
    3  A    between atoms: C_2  and  C_15
    4  A    between atoms: C_2  and  C_25
    5  A    between atoms: C_3  and  C_13
    6  A    between atoms: C_3  and  C_17
    7  A    between atoms: C_4  and  C_31
    8  A    between atoms: N_5  and  C_31
    9  A    between atoms: S_10  and  C_25
   10  A    between atoms: S_10  and  C_31
   11  A    between atoms: C_15  and  C_19
   12  A    between atoms: C_17  and  C_18
                            x       y       z     vdW  Elec       q    Type
                         _______ _______ _______ _____ _____    ______ ____

>  <TORSDO>
F 12

$$$$
=
 OpenBabel11062408103D

 34 36  0  0  1  0  0  0  0  0999 V2000
  161.4970  208.9590  151.2590 C   0  0  1  0  0  3  0  0  0  0  0  0
  162.2990  207.7950  150.6960 C   0  0  2  0  0  3  0  0  0  0  0  0
  161.5090  205.7520  150.9540 N   0  0  0  0  0  0  0  0  0  0  0  0
  161.0950  203.8060  152.1360 O   0  0  0  0  0  0  0  0  0  0  0  0
  161.0180  203.5940  149.8560 O   0  0  0  0  0  0  0  0  0  0  0  0
  161.3560  203.1660  147.6340 O   0  0  0  0  0  0  0  0  0  0  0  0
  161.3830  206.8510  149.9970 C   0  0  2  0  0  3  0  0  0  0  0  0
  161.1750  204.3690  151.0140 C   0  0  0  0  0  0  0  0  0  0  0  0
  160.8820  205.4380  148.0780 C   0  0  0  0  0  2  0  0  0  0  0  0
  161.1240  204.0270  148.5230 C   0  0  0  0  0  0  0  0  0  0  0  0
  161.9000  206.4050  148.6480 C   0  0  0  0  0  2  0  0  0  0  0  0
  162.3600  206.6890  151.7010 C   0  0  0  0  0  2  0  0  0  0  0  0
  161.4000  208.8490  152.7080 N   0  0  0  0  0  2  0  0  0  0  0  0
  160.5150  209.6680  153.4750 C   0  0  0  0  0  0  0  0  0  0  0  0
  160.5190  209.5770  154.7300 O   0  0  0  0  0  0  0  0  0  0  0  0
  159.5490  210.5900  152.8100 C   0  0  0  0  0  2  0  0  0  0  0  0
  159.1750  211.7060  153.7690 C   0  0  0  0  0  2  0  0  0  0  0  0
  157.4450  213.8790  152.7450 C   0  0  0  0  0  1  0  0  0  0  0  0
  157.6720  211.7040  154.0460 C   0  0  2  0  0  3  0  0  0  0  0  0
  157.0740  213.1210  154.0090 C   0  0  1  0  0  3  0  0  0  0  0  0
  157.0220  213.2420  156.4070 O   0  0  0  0  0  0  0  0  0  0  0  0
  157.7650  212.0540  156.5310 C   0  0  0  0  0  2  0  0  0  0  0  0
  157.3870  211.0740  155.4140 C   0  0  0  0  0  2  0  0  0  0  0  0
  157.4910  213.9020  155.2570 C   0  0  0  0  0  2  0  0  0  0  0  0
  162.2840  210.5420  150.8270 S   0  0  0  0  0  0  0  0  0  0  0  0
  161.9710  210.3210  149.0480 C   0  0  0  0  0  2  0  0  0  0  0  0
  162.3060  211.5970  148.2810 C   0  0  0  0  0  2  0  0  0  0  0  0
  161.0680  212.3590  147.7850 C   0  0  1  0  0  3  0  0  0  0  0  0
  162.0350  214.3650  148.7350 O   0  0  0  0  0  1  0  0  0  0  0  0
  160.0940  213.4850  149.8090 C   0  0  0  0  0  1  0  0  0  0  0  0
  160.8340  213.6920  148.5010 C   0  0  2  0  0  3  0  0  0  0  0  0
  161.0930  212.5420  146.3990 O   0  0  0  0  0  0  0  0  0  0  0  0
  159.7810  212.3150  145.9790 C   0  0  0  0  0  2  0  0  0  0  0  0
  159.7750  212.0340  144.6130 O   0  0  0  0  0  1  0  0  0  0  0  0
  1 25  1  1  0  0  0
  1 13  1  0  0  0  0
  2  1  1  1  0  0  0
  2 12  1  0  0  0  0
  3  8  1  0  0  0  0
  3 12  1  0  0  0  0
  5  8  1  0  0  0  0
  6 10  2  0  0  0  0
  7 11  1  6  0  0  0
  7  2  1  0  0  0  0
  7  3  1  0  0  0  0
  8  4  2  0  0  0  0
  9 10  1  0  0  0  0
  9 11  1  0  0  0  0
 10  5  1  0  0  0  0
 13 14  1  0  0  0  0
 14 15  2  0  0  0  0
 16 14  1  0  0  0  0
 16 17  1  0  0  0  0
 19 17  1  1  0  0  0
 19 23  1  0  0  0  0
 20 18  1  6  0  0  0
 20 19  1  0  0  0  0
 20 24  1  0  0  0  0
 21 22  1  0  0  0  0
 23 22  1  0  0  0  0
 24 21  1  0  0  0  0
 26 25  1  0  0  0  0
 27 26  1  0  0  0  0
 28 27  1  1  0  0  0
 28 31  1  0  0  0  0
 31 29  1  0  0  0  0
 31 30  1  1  0  0  0
 32 28  1  0  0  0  0
 33 32  1  0  0  0  0
 34 33  1  0  0  0  0
M  END
>  <MODEL>
3

>  <REMARK>
 VINA RESULT:      -6.2      2.067      3.606
  Name = 
  12 active torsions:
  status: ('A' for Active; 'I' for Inactive)
    1  A    between atoms: O_1  and  C_15
    2  A    between atoms: O_1  and  C_24
    3  A    between atoms: C_2  and  C_15
    4  A    between atoms: C_2  and  C_25
    5  A    between atoms: C_3  and  C_13
    6  A    between atoms: C_3  and  C_17
    7  A    between atoms: C_4  and  C_31
    8  A    between atoms: N_5  and  C_31
    9  A    between atoms: S_10  and  C_25
   10  A    between atoms: S_10  and  C_31
   11  A    between atoms: C_15  and  C_19
   12  A    between atoms: C_17  and  C_18
                            x       y       z     vdW  Elec       q    Type
                         _______ _______ _______ _____ _____    ______ ____

>  <TORSDO>
F 12

$$$$
=
 OpenBabel11062408103D

 34 36  0  0  1  0  0  0  0  0999 V2000
  161.6850  208.6050  150.9620 C   0  0  1  0  0  3  0  0  0  0  0  0
  160.5980  208.7380  152.0200 C   0  0  2  0  0  3  0  0  0  0  0  0
  161.1890  209.3050  154.0680 N   0  0  0  0  0  0  0  0  0  0  0  0
  162.0320  208.9050  156.1850 O   0  0  0  0  0  0  0  0  0  0  0  0
  160.7270  210.7790  155.9960 O   0  0  0  0  0  0  0  0  0  0  0  0
  159.1020  212.3890  156.0350 O   0  0  0  0  0  0  0  0  0  0  0  0
  160.8290  209.9750  152.8180 C   0  0  2  0  0  3  0  0  0  0  0  0
  161.3590  209.6600  155.4360 C   0  0  0  0  0  0  0  0  0  0  0  0
  159.9610  211.9920  153.8700 C   0  0  0  0  0  2  0  0  0  0  0  0
  159.8960  211.7030  155.3390 C   0  0  0  0  0  0  0  0  0  0  0  0
  159.5750  210.7930  153.0280 C   0  0  0  0  0  2  0  0  0  0  0  0
  161.0370  208.0710  153.2840 C   0  0  0  0  0  2  0  0  0  0  0  0
  161.1030  208.2040  149.6900 N   0  0  0  0  0  2  0  0  0  0  0  0
  160.7950  206.8410  149.3900 C   0  0  0  0  0  0  0  0  0  0  0  0
  160.3540  206.5420  148.2500 O   0  0  0  0  0  0  0  0  0  0  0  0
  160.9400  205.7750  150.4230 C   0  0  0  0  0  2  0  0  0  0  0  0
  160.4000  204.4650  149.8760 C   0  0  0  0  0  2  0  0  0  0  0  0
  161.8170  203.9510  147.3280 C   0  0  0  0  0  1  0  0  0  0  0  0
  161.5040  203.4120  149.7950 C   0  0  2  0  0  3  0  0  0  0  0  0
  161.6710  202.8560  148.3710 C   0  0  1  0  0  3  0  0  0  0  0  0
  160.4750  200.8510  148.9350 O   0  0  0  0  0  0  0  0  0  0  0  0
  160.0880  201.3750  150.1820 C   0  0  0  0  0  2  0  0  0  0  0  0
  161.2050  202.2550  150.7560 C   0  0  0  0  0  2  0  0  0  0  0  0
  160.5050  201.9260  148.0290 C   0  0  0  0  0  2  0  0  0  0  0  0
  162.5640  210.1850  150.7520 S   0  0  0  0  0  0  0  0  0  0  0  0
  162.1580  210.2840  148.9810 C   0  0  0  0  0  2  0  0  0  0  0  0
  162.2650  211.7230  148.4850 C   0  0  0  0  0  2  0  0  0  0  0  0
  160.9630  212.2620  147.8730 C   0  0  1  0  0  3  0  0  0  0  0  0
  160.3870  213.2240  150.0190 O   0  0  0  0  0  1  0  0  0  0  0  0
  158.9400  213.7200  148.1870 C   0  0  0  0  0  1  0  0  0  0  0  0
  160.3610  213.4430  148.6400 C   0  0  2  0  0  3  0  0  0  0  0  0
  161.1180  212.5800  146.5210 O   0  0  0  0  0  0  0  0  0  0  0  0
  162.2760  213.3560  146.4610 C   0  0  0  0  0  2  0  0  0  0  0  0
  162.8530  213.2290  145.1970 O   0  0  0  0  0  1  0  0  0  0  0  0
  1 13  1  6  0  0  0
  2  1  1  6  0  0  0
  2  7  1  0  0  0  0
  2 12  1  0  0  0  0
  3  8  1  0  0  0  0
  7 11  1  1  0  0  0
  7  3  1  0  0  0  0
  8  5  1  0  0  0  0
  8  4  2  0  0  0  0
  9 10  1  0  0  0  0
 10  5  1  0  0  0  0
 10  6  2  0  0  0  0
 11  9  1  0  0  0  0
 12  3  1  0  0  0  0
 14 13  1  0  0  0  0
 14 16  1  0  0  0  0
 15 14  2  0  0  0  0
 17 16  1  0  0  0  0
 19 17  1  6  0  0  0
 19 23  1  0  0  0  0
 20 18  1  6  0  0  0
 20 19  1  0  0  0  0
 21 22  1  0  0  0  0
 22 23  1  0  0  0  0
 24 20  1  0  0  0  0
 24 21  1  0  0  0  0
 25  1  1  0  0  0  0
 26 25  1  0  0  0  0
 27 26  1  0  0  0  0
 28 27  1  1  0  0  0
 28 31  1  0  0  0  0
 31 30  1  6  0  0  0
 31 29  1  0  0  0  0
 32 28  1  0  0  0  0
 33 32  1  0  0  0  0
 34 33  1  0  0  0  0
M  END
>  <MODEL>
4

>  <REMARK>
 VINA RESULT:      -6.1      1.744      7.531
  Name = 
  12 active torsions:
  status: ('A' for Active; 'I' for Inactive)
    1  A    between atoms: O_1  and  C_15
    2  A    between atoms: O_1  and  C_24
    3  A    between atoms: C_2  and  C_15
    4  A    between atoms: C_2  and  C_25
    5  A    between atoms: C_3  and  C_13
    6  A    between atoms: C_3  and  C_17
    7  A    between atoms: C_4  and  C_31
    8  A    between atoms: N_5  and  C_31
    9  A    between atoms: S_10  and  C_25
   10  A    between atoms: S_10  and  C_31
   11  A    between atoms: C_15  and  C_19
   12  A    between atoms: C_17  and  C_18
                            x       y       z     vdW  Elec       q    Type
                         _______ _______ _______ _____ _____    ______ ____

>  <TORSDO>
F 12

$$$$
=
 OpenBabel11062408103D

 34 36  0  0  1  0  0  0  0  0999 V2000
  161.7350  207.7690  150.9150 C   0  0  1  0  0  3  0  0  0  0  0  0
  160.8070  206.9960  149.9900 C   0  0  2  0  0  3  0  0  0  0  0  0
  161.6820  205.9560  148.2530 N   0  0  0  0  0  0  0  0  0  0  0  0
  162.5510  205.8330  146.1120 O   0  0  0  0  0  0  0  0  0  0  0  0
  161.7730  203.8520  146.9610 O   0  0  0  0  0  0  0  0  0  0  0  0
  160.6360  201.9440  147.5120 O   0  0  0  0  0  0  0  0  0  0  0  0
  161.4150  205.6750  149.6640 C   0  0  2  0  0  3  0  0  0  0  0  0
  162.0440  205.2210  147.0880 C   0  0  0  0  0  0  0  0  0  0  0  0
  161.1910  203.2660  149.3900 C   0  0  0  0  0  2  0  0  0  0  0  0
  161.1650  203.0140  147.9130 C   0  0  0  0  0  0  0  0  0  0  0  0
  160.4400  204.5250  149.7730 C   0  0  0  0  0  2  0  0  0  0  0  0
  161.1510  207.2910  148.5650 C   0  0  0  0  0  2  0  0  0  0  0  0
  161.0330  208.9000  151.5030 N   0  0  0  0  0  2  0  0  0  0  0  0
  161.3270  210.2510  151.1400 C   0  0  0  0  0  0  0  0  0  0  0  0
  160.7340  211.1930  151.7280 O   0  0  0  0  0  0  0  0  0  0  0  0
  162.2850  210.5600  150.0400 C   0  0  0  0  0  2  0  0  0  0  0  0
  161.5630  211.3150  148.9390 C   0  0  0  0  0  2  0  0  0  0  0  0
  159.7880  213.5570  149.7050 C   0  0  0  0  0  1  0  0  0  0  0  0
  162.0520  212.7610  148.8600 C   0  0  2  0  0  3  0  0  0  0  0  0
  160.8920  213.7560  148.6810 C   0  0  1  0  0  3  0  0  0  0  0  0
  161.3550  213.9860  146.3350 O   0  0  0  0  0  0  0  0  0  0  0  0
  162.2810  212.9270  146.3650 C   0  0  0  0  0  2  0  0  0  0  0  0
  163.0390  212.9240  147.6980 C   0  0  0  0  0  2  0  0  0  0  0  0
  160.3400  213.6700  147.2560 C   0  0  0  0  0  2  0  0  0  0  0  0
  162.3550  206.6880  152.2430 S   0  0  0  0  0  0  0  0  0  0  0  0
  161.0200  207.1640  153.3840 C   0  0  0  0  0  2  0  0  0  0  0  0
  161.4610  206.9800  154.8330 C   0  0  0  0  0  2  0  0  0  0  0  0
  161.3340  208.2540  155.6810 C   0  0  1  0  0  3  0  0  0  0  0  0
  159.1620  207.3060  156.1810 O   0  0  0  0  0  1  0  0  0  0  0  0
  159.2260  209.6220  155.6090 C   0  0  0  0  0  1  0  0  0  0  0  0
  159.9390  208.4630  156.2790 C   0  0  2  0  0  3  0  0  0  0  0  0
  162.3110  208.3130  156.6790 O   0  0  0  0  0  0  0  0  0  0  0  0
  162.4930  209.6740  156.9290 C   0  0  0  0  0  2  0  0  0  0  0  0
  162.7370  210.3370  155.7260 O   0  0  0  0  0  1  0  0  0  0  0  0
  1 13  1  1  0  0  0
  1 25  1  0  0  0  0
  2  1  1  1  0  0  0
  3 12  1  0  0  0  0
  3  7  1  0  0  0  0
  4  8  2  0  0  0  0
  5  8  1  0  0  0  0
  5 10  1  0  0  0  0
  6 10  2  0  0  0  0
  7 11  1  6  0  0  0
  7  2  1  0  0  0  0
  8  3  1  0  0  0  0
  9 11  1  0  0  0  0
 10  9  1  0  0  0  0
 12  2  1  0  0  0  0
 14 13  1  0  0  0  0
 14 15  2  0  0  0  0
 16 14  1  0  0  0  0
 17 16  1  0  0  0  0
 19 17  1  6  0  0  0
 20 19  1  0  0  0  0
 20 18  1  1  0  0  0
 21 22  1  0  0  0  0
 21 24  1  0  0  0  0
 22 23  1  0  0  0  0
 23 19  1  0  0  0  0
 24 20  1  0  0  0  0
 25 26  1  0  0  0  0
 26 27  1  0  0  0  0
 28 27  1  1  0  0  0
 28 31  1  0  0  0  0
 28 32  1  0  0  0  0
 29 31  1  0  0  0  0
 31 30  1  6  0  0  0
 32 33  1  0  0  0  0
 34 33  1  0  0  0  0
M  END
>  <MODEL>
5

>  <REMARK>
 VINA RESULT:      -6.0      1.922      5.848
  Name = 
  12 active torsions:
  status: ('A' for Active; 'I' for Inactive)
    1  A    between atoms: O_1  and  C_15
    2  A    between atoms: O_1  and  C_24
    3  A    between atoms: C_2  and  C_15
    4  A    between atoms: C_2  and  C_25
    5  A    between atoms: C_3  and  C_13
    6  A    between atoms: C_3  and  C_17
    7  A    between atoms: C_4  and  C_31
    8  A    between atoms: N_5  and  C_31
    9  A    between atoms: S_10  and  C_25
   10  A    between atoms: S_10  and  C_31
   11  A    between atoms: C_15  and  C_19
   12  A    between atoms: C_17  and  C_18
                            x       y       z     vdW  Elec       q    Type
                         _______ _______ _______ _____ _____    ______ ____

>  <TORSDO>
F 12

$$$$
=
 OpenBabel11062408103D

 34 36  0  0  1  0  0  0  0  0999 V2000
  161.9140  208.7080  150.5370 C   0  0  1  0  0  3  0  0  0  0  0  0
  162.3330  208.6410  151.9980 C   0  0  2  0  0  3  0  0  0  0  0  0
  160.9180  209.3570  153.5310 N   0  0  0  0  0  0  0  0  0  0  0  0
  159.8380  210.9750  154.7830 O   0  0  0  0  0  0  0  0  0  0  0  0
  159.8290  208.8720  155.6950 O   0  0  0  0  0  0  0  0  0  0  0  0
  160.1410  206.9530  156.9000 O   0  0  0  0  0  0  0  0  0  0  0  0
  161.2060  208.1130  152.8160 C   0  0  2  0  0  3  0  0  0  0  0  0
  160.1580  209.7640  154.6640 C   0  0  0  0  0  0  0  0  0  0  0  0
  160.3920  206.6350  154.5730 C   0  0  0  0  0  2  0  0  0  0  0  0
  160.1440  207.5040  155.7690 C   0  0  0  0  0  0  0  0  0  0  0  0
  161.6310  207.0510  153.8050 C   0  0  0  0  0  2  0  0  0  0  0  0
  161.9800  209.9210  152.6850 C   0  0  0  0  0  2  0  0  0  0  0  0
  160.8730  207.7270  150.2670 N   0  0  0  0  0  2  0  0  0  0  0  0
  160.8470  206.9550  149.0640 C   0  0  0  0  0  0  0  0  0  0  0  0
  159.8870  206.1690  148.8530 O   0  0  0  0  0  0  0  0  0  0  0  0
  161.9650  207.0290  148.0800 C   0  0  0  0  0  2  0  0  0  0  0  0
  161.4910  206.5010  146.7380 C   0  0  0  0  0  2  0  0  0  0  0  0
  161.5250  205.8250  143.8560 C   0  0  0  0  0  1  0  0  0  0  0  0
  162.4600  205.4520  146.1930 C   0  0  2  0  0  3  0  0  0  0  0  0
  161.9420  204.8020  144.8980 C   0  0  1  0  0  3  0  0  0  0  0  0
  161.2440  202.8310  146.0820 O   0  0  0  0  0  0  0  0  0  0  0  0
  161.4850  203.4360  147.3290 C   0  0  0  0  0  2  0  0  0  0  0  0
  162.7050  204.3610  147.2410 C   0  0  0  0  0  2  0  0  0  0  0  0
  160.7920  203.8430  145.2150 C   0  0  0  0  0  2  0  0  0  0  0  0
  161.2960  210.3700  150.1280 S   0  0  0  0  0  0  0  0  0  0  0  0
  162.3310  210.4930  148.6360 C   0  0  0  0  0  2  0  0  0  0  0  0
  162.4020  211.9370  148.1490 C   0  0  0  0  0  2  0  0  0  0  0  0
  161.1000  212.4310  147.4990 C   0  0  1  0  0  3  0  0  0  0  0  0
  161.2060  214.0270  149.3170 O   0  0  0  0  0  1  0  0  0  0  0  0
  159.0500  213.5760  148.3960 C   0  0  0  0  0  1  0  0  0  0  0  0
  160.5390  213.7070  148.1320 C   0  0  2  0  0  3  0  0  0  0  0  0
  161.2370  212.5860  146.1170 O   0  0  0  0  0  0  0  0  0  0  0  0
  162.4080  213.3280  145.9480 C   0  0  0  0  0  2  0  0  0  0  0  0
  162.8980  213.1320  144.6570 O   0  0  0  0  0  1  0  0  0  0  0  0
  1 25  1  1  0  0  0
  2  1  1  6  0  0  0
  2 12  1  0  0  0  0
  2  7  1  0  0  0  0
  3  8  1  0  0  0  0
  5 10  1  0  0  0  0
  7  3  1  0  0  0  0
  7 11  1  1  0  0  0
  8  4  2  0  0  0  0
  8  5  1  0  0  0  0
  9 10  1  0  0  0  0
 10  6  2  0  0  0  0
 11  9  1  0  0  0  0
 12  3  1  0  0  0  0
 13  1  1  0  0  0  0
 14 13  1  0  0  0  0
 15 14  2  0  0  0  0
 16 14  1  0  0  0  0
 17 16  1  0  0  0  0
 19 17  1  1  0  0  0
 19 23  1  0  0  0  0
 20 18  1  6  0  0  0
 20 24  1  0  0  0  0
 20 19  1  0  0  0  0
 21 22  1  0  0  0  0
 23 22  1  0  0  0  0
 24 21  1  0  0  0  0
 26 25  1  0  0  0  0
 27 26  1  0  0  0  0
 28 31  1  0  0  0  0
 28 27  1  1  0  0  0
 31 30  1  1  0  0  0
 31 29  1  0  0  0  0
 32 28  1  0  0  0  0
 33 32  1  0  0  0  0
 34 33  1  0  0  0  0
M  END
>  <MODEL>
6

>  <REMARK>
 VINA RESULT:      -5.8      2.137      7.289
  Name = 
  12 active torsions:
  status: ('A' for Active; 'I' for Inactive)
    1  A    between atoms: O_1  and  C_15
    2  A    between atoms: O_1  and  C_24
    3  A    between atoms: C_2  and  C_15
    4  A    between atoms: C_2  and  C_25
    5  A    between atoms: C_3  and  C_13
    6  A    between atoms: C_3  and  C_17
    7  A    between atoms: C_4  and  C_31
    8  A    between atoms: N_5  and  C_31
    9  A    between atoms: S_10  and  C_25
   10  A    between atoms: S_10  and  C_31
   11  A    between atoms: C_15  and  C_19
   12  A    between atoms: C_17  and  C_18
                            x       y       z     vdW  Elec       q    Type
                         _______ _______ _______ _____ _____    ______ ____

>  <TORSDO>
F 12

$$$$
=
 OpenBabel11062408103D

 34 36  0  0  1  0  0  0  0  0999 V2000
  161.8500  208.5210  150.3270 C   0  0  1  0  0  3  0  0  0  0  0  0
  162.4850  207.1440  150.1930 C   0  0  2  0  0  3  0  0  0  0  0  0
  161.3780  205.3980  150.9590 N   0  0  0  0  0  0  0  0  0  0  0  0
  160.6200  203.9650  152.6100 O   0  0  0  0  0  0  0  0  0  0  0  0
  160.6040  203.0990  150.4890 O   0  0  0  0  0  0  0  0  0  0  0  0
  160.9640  201.9890  148.5220 O   0  0  0  0  0  0  0  0  0  0  0  0
  161.4630  206.1690  149.7190 C   0  0  2  0  0  3  0  0  0  0  0  0
  160.8320  204.1530  151.3850 C   0  0  0  0  0  0  0  0  0  0  0  0
  160.8290  204.3320  148.2510 C   0  0  0  0  0  2  0  0  0  0  0  0
  160.8310  203.0980  149.1020 C   0  0  0  0  0  0  0  0  0  0  0  0
  161.9610  205.2770  148.6040 C   0  0  0  0  0  2  0  0  0  0  0  0
  162.3330  206.3890  151.4740 C   0  0  0  0  0  2  0  0  0  0  0  0
  162.5210  209.2850  151.3680 N   0  0  0  0  0  2  0  0  0  0  0  0
  161.8160  209.8380  152.4820 C   0  0  0  0  0  0  0  0  0  0  0  0
  162.4350  210.5460  153.3180 O   0  0  0  0  0  0  0  0  0  0  0  0
  160.3680  209.5460  152.6960 C   0  0  0  0  0  2  0  0  0  0  0  0
  159.9730  209.9600  154.1020 C   0  0  0  0  0  2  0  0  0  0  0  0
  160.9520  211.6730  156.3090 C   0  0  0  0  0  1  0  0  0  0  0  0
  159.6210  211.4470  154.1520 C   0  0  2  0  0  3  0  0  0  0  0  0
  159.6560  212.0020  155.5870 C   0  0  1  0  0  3  0  0  0  0  0  0
  157.2610  211.9290  155.7530 O   0  0  0  0  0  0  0  0  0  0  0  0
  157.1510  211.2170  154.5450 C   0  0  0  0  0  2  0  0  0  0  0  0
  158.2280  211.6820  153.5570 C   0  0  0  0  0  2  0  0  0  0  0  0
  158.4460  211.4980  156.3770 C   0  0  0  0  0  2  0  0  0  0  0  0
  161.9570  209.4270  148.7520 S   0  0  0  0  0  0  0  0  0  0  0  0
  161.9560  211.0490  149.5750 C   0  0  0  0  0  2  0  0  0  0  0  0
  162.4730  212.1310  148.6300 C   0  0  0  0  0  2  0  0  0  0  0  0
  161.4440  213.2330  148.3350 C   0  0  1  0  0  3  0  0  0  0  0  0
  160.1800  212.2080  146.5420 O   0  0  0  0  0  1  0  0  0  0  0  0
  162.1980  213.3330  145.9390 C   0  0  0  0  0  1  0  0  0  0  0  0
  161.0010  213.2900  146.8710 C   0  0  2  0  0  3  0  0  0  0  0  0
  160.3360  213.1470  149.1830 O   0  0  0  0  0  0  0  0  0  0  0  0
  160.2710  214.3860  149.8220 C   0  0  0  0  0  2  0  0  0  0  0  0
  159.7090  214.2240  151.0890 O   0  0  0  0  0  1  0  0  0  0  0  0
  1 25  1  6  0  0  0
  1 13  1  0  0  0  0
  2  1  1  1  0  0  0
  2 12  1  0  0  0  0
  3  8  1  0  0  0  0
  3 12  1  0  0  0  0
  5  8  1  0  0  0  0
  6 10  2  0  0  0  0
  7 11  1  6  0  0  0
  7  2  1  0  0  0  0
  7  3  1  0  0  0  0
  8  4  2  0  0  0  0
  9 11  1  0  0  0  0
  9 10  1  0  0  0  0
 10  5  1  0  0  0  0
 13 14  1  0  0  0  0
 14 16  1  0  0  0  0
 14 15  2  0  0  0  0
 16 17  1  0  0  0  0
 19 17  1  1  0  0  0
 19 20  1  0  0  0  0
 20 18  1  1  0  0  0
 20 24  1  0  0  0  0
 21 24  1  0  0  0  0
 22 21  1  0  0  0  0
 23 19  1  0  0  0  0
 23 22  1  0  0  0  0
 25 26  1  0  0  0  0
 27 26  1  0  0  0  0
 28 27  1  6  0  0  0
 28 32  1  0  0  0  0
 29 31  1  0  0  0  0
 31 30  1  6  0  0  0
 31 28  1  0  0  0  0
 32 33  1  0  0  0  0
 33 34  1  0  0  0  0
M  END
>  <MODEL>
7

>  <REMARK>
 VINA RESULT:      -5.6      1.622      2.466
  Name = 
  12 active torsions:
  status: ('A' for Active; 'I' for Inactive)
    1  A    between atoms: O_1  and  C_15
    2  A    between atoms: O_1  and  C_24
    3  A    between atoms: C_2  and  C_15
    4  A    between atoms: C_2  and  C_25
    5  A    between atoms: C_3  and  C_13
    6  A    between atoms: C_3  and  C_17
    7  A    between atoms: C_4  and  C_31
    8  A    between atoms: N_5  and  C_31
    9  A    between atoms: S_10  and  C_25
   10  A    between atoms: S_10  and  C_31
   11  A    between atoms: C_15  and  C_19
   12  A    between atoms: C_17  and  C_18
                            x       y       z     vdW  Elec       q    Type
                         _______ _______ _______ _____ _____    ______ ____

>  <TORSDO>
F 12

$$$$
=
 OpenBabel11062408103D

 34 36  0  0  1  0  0  0  0  0999 V2000
  161.3100  207.5280  151.3490 C   0  0  1  0  0  3  0  0  0  0  0  0
  160.4160  208.1000  152.4400 C   0  0  2  0  0  3  0  0  0  0  0  0
  161.3390  209.3460  154.0080 N   0  0  0  0  0  0  0  0  0  0  0  0
  162.5300  209.7050  155.9590 O   0  0  0  0  0  0  0  0  0  0  0  0
  161.1980  211.4490  155.2980 O   0  0  0  0  0  0  0  0  0  0  0  0
  159.5910  213.0480  154.9940 O   0  0  0  0  0  0  0  0  0  0  0  0
  160.7690  209.5290  152.6740 C   0  0  2  0  0  3  0  0  0  0  0  0
  161.7350  210.1690  155.1010 C   0  0  0  0  0  0  0  0  0  0  0  0
  160.0750  211.8370  153.0240 C   0  0  0  0  0  2  0  0  0  0  0  0
  160.2610  212.1110  154.4860 C   0  0  0  0  0  0  0  0  0  0  0  0
  159.5620  210.4350  152.7620 C   0  0  0  0  0  2  0  0  0  0  0  0
  161.0670  207.9210  153.7740 C   0  0  0  0  0  2  0  0  0  0  0  0
  161.9760  208.6030  150.6290 N   0  0  0  0  0  2  0  0  0  0  0  0
  161.9900  208.6680  149.2010 C   0  0  0  0  0  0  0  0  0  0  0  0
  162.6370  209.5830  148.6290 O   0  0  0  0  0  0  0  0  0  0  0  0
  161.2080  207.6990  148.3800 C   0  0  0  0  0  2  0  0  0  0  0  0
  162.1580  206.8820  147.5230 C   0  0  0  0  0  2  0  0  0  0  0  0
  163.8320  204.7040  146.4180 C   0  0  0  0  0  1  0  0  0  0  0  0
  161.5440  205.5270  147.1700 C   0  0  2  0  0  3  0  0  0  0  0  0
  162.3510  204.7900  146.0870 C   0  0  1  0  0  3  0  0  0  0  0  0
  160.7670  205.4010  144.3880 O   0  0  0  0  0  0  0  0  0  0  0  0
  160.0950  206.2750  145.2610 C   0  0  0  0  0  2  0  0  0  0  0  0
  160.1010  205.7090  146.6860 C   0  0  0  0  0  2  0  0  0  0  0  0
  162.1320  205.4530  144.7250 C   0  0  0  0  0  2  0  0  0  0  0  0
  162.5610  206.4190  152.0690 S   0  0  0  0  0  0  0  0  0  0  0  0
  161.4730  204.9650  151.9630 C   0  0  0  0  0  2  0  0  0  0  0  0
  161.0550  204.7120  150.5170 C   0  0  0  0  0  2  0  0  0  0  0  0
  161.2480  203.2560  150.0670 C   0  0  1  0  0  3  0  0  0  0  0  0
  162.3290  201.7630  151.6370 O   0  0  0  0  0  1  0  0  0  0  0  0
  160.2210  201.0680  150.7590 C   0  0  0  0  0  1  0  0  0  0  0  0
  161.0890  202.2330  151.1950 C   0  0  2  0  0  3  0  0  0  0  0  0
  160.4190  202.9330  148.9890 O   0  0  0  0  0  0  0  0  0  0  0  0
  161.2250  202.1940  148.1200 C   0  0  0  0  0  2  0  0  0  0  0  0
  160.4540  201.7380  147.0500 O   0  0  0  0  0  1  0  0  0  0  0  0
  1 13  1  1  0  0  0
  1 25  1  0  0  0  0
  2  1  1  6  0  0  0
  2  7  1  0  0  0  0
  2 12  1  0  0  0  0
  3  8  1  0  0  0  0
  7 11  1  1  0  0  0
  7  3  1  0  0  0  0
  8  5  1  0  0  0  0
  8  4  2  0  0  0  0
  9 10  1  0  0  0  0
 10  6  2  0  0  0  0
 10  5  1  0  0  0  0
 11  9  1  0  0  0  0
 12  3  1  0  0  0  0
 14 13  1  0  0  0  0
 15 14  2  0  0  0  0
 16 14  1  0  0  0  0
 17 16  1  0  0  0  0
 19 17  1  6  0  0  0
 20 18  1  1  0  0  0
 20 19  1  0  0  0  0
 21 24  1  0  0  0  0
 21 22  1  0  0  0  0
 22 23  1  0  0  0  0
 23 19  1  0  0  0  0
 24 20  1  0  0  0  0
 26 25  1  0  0  0  0
 27 26  1  0  0  0  0
 28 27  1  1  0  0  0
 28 31  1  0  0  0  0
 31 30  1  6  0  0  0
 31 29  1  0  0  0  0
 32 28  1  0  0  0  0
 33 32  1  0  0  0  0
 34 33  1  0  0  0  0
M  END
>  <MODEL>
8

>  <REMARK>
 VINA RESULT:      -5.6      2.607      9.121
  Name = 
  12 active torsions:
  status: ('A' for Active; 'I' for Inactive)
    1  A    between atoms: O_1  and  C_15
    2  A    between atoms: O_1  and  C_24
    3  A    between atoms: C_2  and  C_15
    4  A    between atoms: C_2  and  C_25
    5  A    between atoms: C_3  and  C_13
    6  A    between atoms: C_3  and  C_17
    7  A    between atoms: C_4  and  C_31
    8  A    between atoms: N_5  and  C_31
    9  A    between atoms: S_10  and  C_25
   10  A    between atoms: S_10  and  C_31
   11  A    between atoms: C_15  and  C_19
   12  A    between atoms: C_17  and  C_18
                            x       y       z     vdW  Elec       q    Type
                         _______ _______ _______ _____ _____    ______ ____

>  <TORSDO>
F 12

$$$$
=
 OpenBabel11062408103D

 34 36  0  0  1  0  0  0  0  0999 V2000
  161.3720  208.2840  151.4210 C   0  0  1  0  0  3  0  0  0  0  0  0
  161.5440  209.6120  152.1450 C   0  0  2  0  0  3  0  0  0  0  0  0
  160.6280  211.4140  151.2640 N   0  0  0  0  0  0  0  0  0  0  0  0
  160.5150  213.1900  149.7860 O   0  0  0  0  0  0  0  0  0  0  0  0
  159.2540  213.4240  151.6840 O   0  0  0  0  0  0  0  0  0  0  0  0
  158.3330  213.9630  153.7080 O   0  0  0  0  0  0  0  0  0  0  0  0
  160.2420  210.3350  152.1740 C   0  0  2  0  0  3  0  0  0  0  0  0
  160.1190  212.6830  150.8670 C   0  0  0  0  0  0  0  0  0  0  0  0
  158.5840  211.6350  153.3950 C   0  0  0  0  0  2  0  0  0  0  0  0
  158.7490  213.0540  152.9430 C   0  0  0  0  0  0  0  0  0  0  0  0
  159.9110  210.9150  153.5300 C   0  0  0  0  0  2  0  0  0  0  0  0
  161.8980  210.6820  151.1620 C   0  0  0  0  0  2  0  0  0  0  0  0
  162.0870  208.3060  150.1530 N   0  0  0  0  0  2  0  0  0  0  0  0
  161.6980  207.4900  149.0460 C   0  0  0  0  0  0  0  0  0  0  0  0
  162.3910  207.5000  147.9960 O   0  0  0  0  0  0  0  0  0  0  0  0
  160.4540  206.6670  149.0970 C   0  0  0  0  0  2  0  0  0  0  0  0
  160.5640  205.5250  148.1030 C   0  0  0  0  0  2  0  0  0  0  0  0
  162.2360  204.1650  146.0730 C   0  0  0  0  0  1  0  0  0  0  0  0
  161.6580  204.5430  148.5220 C   0  0  2  0  0  3  0  0  0  0  0  0
  161.9670  203.5150  147.4200 C   0  0  1  0  0  3  0  0  0  0  0  0
  160.6920  201.8180  148.5430 O   0  0  0  0  0  0  0  0  0  0  0  0
  160.1820  202.7450  149.4690 C   0  0  0  0  0  2  0  0  0  0  0  0
  161.2430  203.8020  149.7990 C   0  0  0  0  0  2  0  0  0  0  0  0
  160.8310  202.4950  147.3170 C   0  0  0  0  0  2  0  0  0  0  0  0
  162.0010  206.9160  152.4440 S   0  0  0  0  0  0  0  0  0  0  0  0
  160.8340  207.2630  153.7960 C   0  0  0  0  0  2  0  0  0  0  0  0
  161.5670  207.3410  155.1320 C   0  0  0  0  0  2  0  0  0  0  0  0
  161.3030  208.6430  155.9030 C   0  0  1  0  0  3  0  0  0  0  0  0
  159.7300  207.2170  157.0670 O   0  0  0  0  0  1  0  0  0  0  0  0
  159.0180  209.4420  156.5790 C   0  0  0  0  0  1  0  0  0  0  0  0
  160.1790  208.5340  156.9370 C   0  0  2  0  0  3  0  0  0  0  0  0
  162.4680  209.1410  156.4930 O   0  0  0  0  0  0  0  0  0  0  0  0
  162.6960  210.3680  155.8670 C   0  0  0  0  0  2  0  0  0  0  0  0
  162.0110  211.3710  156.5530 O   0  0  0  0  0  1  0  0  0  0  0  0
  1 13  1  6  0  0  0
  1 25  1  0  0  0  0
  2  1  1  6  0  0  0
  2  7  1  0  0  0  0
  3  7  1  0  0  0  0
  4  8  2  0  0  0  0
  5 10  1  0  0  0  0
  7 11  1  1  0  0  0
  8  3  1  0  0  0  0
  8  5  1  0  0  0  0
  9 11  1  0  0  0  0
 10  9  1  0  0  0  0
 10  6  2  0  0  0  0
 12  3  1  0  0  0  0
 12  2  1  0  0  0  0
 14 16  1  0  0  0  0
 14 13  1  0  0  0  0
 15 14  2  0  0  0  0
 17 16  1  0  0  0  0
 19 17  1  6  0  0  0
 19 23  1  0  0  0  0
 20 18  1  6  0  0  0
 20 19  1  0  0  0  0
 21 22  1  0  0  0  0
 22 23  1  0  0  0  0
 24 20  1  0  0  0  0
 24 21  1  0  0  0  0
 25 26  1  0  0  0  0
 26 27  1  0  0  0  0
 28 27  1  1  0  0  0
 28 32  1  0  0  0  0
 28 31  1  0  0  0  0
 31 30  1  6  0  0  0
 31 29  1  0  0  0  0
 33 32  1  0  0  0  0
 33 34  1  0  0  0  0
M  END
>  <MODEL>
9

>  <REMARK>
 VINA RESULT:      -5.4      2.218      8.564
  Name = 
  12 active torsions:
  status: ('A' for Active; 'I' for Inactive)
    1  A    between atoms: O_1  and  C_15
    2  A    between atoms: O_1  and  C_24
    3  A    between atoms: C_2  and  C_15
    4  A    between atoms: C_2  and  C_25
    5  A    between atoms: C_3  and  C_13
    6  A    between atoms: C_3  and  C_17
    7  A    between atoms: C_4  and  C_31
    8  A    between atoms: N_5  and  C_31
    9  A    between atoms: S_10  and  C_25
   10  A    between atoms: S_10  and  C_31
   11  A    between atoms: C_15  and  C_19
   12  A    between atoms: C_17  and  C_18
                            x       y       z     vdW  Elec       q    Type
                         _______ _______ _______ _____ _____    ______ ____

>  <TORSDO>
F 12

$$$$
