=
 OpenBabel11052423093D

 27 30  0  0  1  0  0  0  0  0999 V2000
  162.0990  210.7030  153.4540 C   0  0  0  0  0  2  0  0  0  0  0  0
  161.2760  209.2000  151.4830 C   0  0  0  0  0  0  0  0  0  0  0  0
  160.6720  208.0070  153.4980 O   0  0  0  0  0  0  0  0  0  0  0  0
  161.3710  205.7430  149.1710 C   0  0  0  0  0  3  0  0  0  0  0  0
  161.1200  203.2790  148.8630 C   0  0  0  0  0  1  0  0  0  0  0  0
  161.5810  209.2080  150.1600 N   0  0  0  0  0  0  0  0  0  0  0  0
  160.7040  205.5270  151.8730 C   0  0  0  0  0  3  0  0  0  0  0  0
  161.9400  207.6430  156.0520 N   0  0  0  0  0  2  0  0  0  0  0  0
  160.7430  204.3850  151.0690 C   0  0  0  0  0  3  0  0  0  0  0  0
  161.9760  208.4600  157.2590 C   0  0  0  0  0  2  0  0  0  0  0  0
  160.9710  207.9790  152.1230 C   0  0  0  0  0  0  0  0  0  0  0  0
  161.2330  210.5310  152.1870 C   0  0  1  0  0  3  0  0  0  0  0  0
  161.0780  204.4920  149.7180 C   0  0  0  0  0  0  0  0  0  0  0  0
  161.3320  206.8870  149.9740 C   0  0  0  0  0  0  0  0  0  0  0  0
  161.3340  210.5180  154.7510 C   0  0  0  0  0  2  0  0  0  0  0  0
  160.9990  206.7940  151.3440 C   0  0  0  0  0  0  0  0  0  0  0  0
  160.5580  207.2750  155.7850 C   0  0  0  0  0  2  0  0  0  0  0  0
  161.6130  208.0940  149.4300 N   0  0  0  0  0  0  0  0  0  0  0  0
  161.5090  209.8880  156.9800 C   0  0  0  0  0  2  0  0  0  0  0  0
  162.2540  210.4660  155.8720 N   0  0  0  0  0  2  0  0  0  0  0  0
  160.4160  206.8800  154.3270 C   0  0  0  0  0  2  0  0  0  0  0  0
  157.9660  213.2300  152.7650 C   0  0  0  0  0  2  0  0  0  0  0  0
  159.9240  211.2030  152.1210 N   0  0  0  0  0  0  0  0  0  0  0  0
  160.0960  212.5800  151.6450 C   0  0  0  0  0  2  0  0  0  0  0  0
  158.7350  213.2390  151.4480 C   0  0  0  0  0  2  0  0  0  0  0  0
  157.8640  211.8080  153.3060 C   0  0  0  0  0  2  0  0  0  0  0  0
  159.2620  211.2070  153.4290 C   0  0  0  0  0  2  0  0  0  0  0  0
  1 15  1  0  0  0  0
  2 11  1  0  0  0  0
  2 12  1  0  0  0  0
  3 21  1  0  0  0  0
  4 13  2  0  0  0  0
  4 14  1  0  0  0  0
  5 13  1  0  0  0  0
  6  2  2  0  0  0  0
  8 10  1  0  0  0  0
  9  7  2  0  0  0  0
 11  3  1  0  0  0  0
 12 23  1  1  0  0  0
 12  1  1  0  0  0  0
 13  9  1  0  0  0  0
 14 16  1  0  0  0  0
 15 20  1  0  0  0  0
 16  7  1  0  0  0  0
 16 11  2  0  0  0  0
 17  8  1  0  0  0  0
 18 14  2  0  0  0  0
 18  6  1  0  0  0  0
 19 10  1  0  0  0  0
 20 19  1  0  0  0  0
 21 17  1  0  0  0  0
 22 26  1  0  0  0  0
 23 27  1  0  0  0  0
 24 23  1  0  0  0  0
 25 24  1  0  0  0  0
 25 22  1  0  0  0  0
 26 27  1  0  0  0  0
M  END
>  <MODEL>
1

>  <REMARK>
 VINA RESULT:      -7.8      0.000      0.000
  Name = 
  1 active torsions:
  status: ('A' for Active; 'I' for Inactive)
    1  A    between atoms: N_9  and  C_15
                            x       y       z     vdW  Elec       q    Type
                         _______ _______ _______ _____ _____    ______ ____

>  <TORSDO>
F 1

$$$$
=
 OpenBabel11052423093D

 27 30  0  0  1  0  0  0  0  0999 V2000
  162.7960  210.7020  150.2760 C   0  0  0  0  0  2  0  0  0  0  0  0
  161.4460  210.4570  152.4980 C   0  0  0  0  0  0  0  0  0  0  0  0
  160.1070  211.8940  151.0870 O   0  0  0  0  0  0  0  0  0  0  0  0
  159.7900  211.9500  156.0090 C   0  0  0  0  0  3  0  0  0  0  0  0
  158.2300  213.4450  157.2610 C   0  0  0  0  0  1  0  0  0  0  0  0
  161.8150  210.0210  153.7300 N   0  0  0  0  0  0  0  0  0  0  0  0
  158.8860  212.9610  153.5700 C   0  0  0  0  0  3  0  0  0  0  0  0
  160.7290  213.9770  149.2060 N   0  0  0  0  0  2  0  0  0  0  0  0
  158.3490  213.4400  154.7670 C   0  0  0  0  0  3  0  0  0  0  0  0
  161.1120  213.9510  147.7990 C   0  0  0  0  0  2  0  0  0  0  0  0
  160.4570  211.4570  152.3780 C   0  0  0  0  0  0  0  0  0  0  0  0
  162.0940  209.7950  151.3100 C   0  0  1  0  0  3  0  0  0  0  0  0
  158.8010  212.9360  155.9870 C   0  0  0  0  0  0  0  0  0  0  0  0
  160.3280  211.4690  154.8130 C   0  0  0  0  0  0  0  0  0  0  0  0
  161.9500  211.0090  149.0540 C   0  0  0  0  0  2  0  0  0  0  0  0
  159.8830  211.9720  153.5700 C   0  0  0  0  0  0  0  0  0  0  0  0
  159.4070  213.3840  149.3350 C   0  0  0  0  0  2  0  0  0  0  0  0
  161.2820  210.5090  154.8470 N   0  0  0  0  0  0  0  0  0  0  0  0
  161.5500  212.5540  147.3650 C   0  0  0  0  0  2  0  0  0  0  0  0
  162.5830  212.0390  148.2520 N   0  0  0  0  0  2  0  0  0  0  0  0
  159.1950  212.9370  150.7700 C   0  0  0  0  0  2  0  0  0  0  0  0
  161.1880  205.8500  149.9320 C   0  0  0  0  0  2  0  0  0  0  0  0
  161.3970  208.5850  150.8420 N   0  0  0  0  0  0  0  0  0  0  0  0
  161.6570  207.4750  151.7630 C   0  0  0  0  0  2  0  0  0  0  0  0
  160.8340  206.2560  151.3580 C   0  0  0  0  0  2  0  0  0  0  0  0
  161.0030  207.0320  148.9860 C   0  0  0  0  0  2  0  0  0  0  0  0
  161.8220  208.2190  149.4870 C   0  0  0  0  0  2  0  0  0  0  0  0
  2  6  1  0  0  0  0
  3 11  1  0  0  0  0
  6 18  2  0  0  0  0
  7  9  1  0  0  0  0
  8 17  1  0  0  0  0
  9 13  2  0  0  0  0
 10  8  1  0  0  0  0
 11  2  2  0  0  0  0
 11 16  1  0  0  0  0
 12  1  1  6  0  0  0
 12  2  1  0  0  0  0
 13  4  1  0  0  0  0
 13  5  1  0  0  0  0
 14 18  1  0  0  0  0
 14  4  2  0  0  0  0
 15  1  1  0  0  0  0
 16  7  2  0  0  0  0
 16 14  1  0  0  0  0
 17 21  1  0  0  0  0
 19 10  1  0  0  0  0
 19 20  1  0  0  0  0
 20 15  1  0  0  0  0
 21  3  1  0  0  0  0
 22 25  1  0  0  0  0
 23 12  1  0  0  0  0
 23 24  1  0  0  0  0
 25 24  1  0  0  0  0
 26 27  1  0  0  0  0
 26 22  1  0  0  0  0
 27 23  1  0  0  0  0
M  END
>  <MODEL>
2

>  <REMARK>
 VINA RESULT:      -6.0      2.498      7.467
  Name = 
  1 active torsions:
  status: ('A' for Active; 'I' for Inactive)
    1  A    between atoms: N_9  and  C_15
                            x       y       z     vdW  Elec       q    Type
                         _______ _______ _______ _____ _____    ______ ____

>  <TORSDO>
F 1

$$$$
=
 OpenBabel11052423093D

 27 30  0  0  1  0  0  0  0  0999 V2000
  159.3270  210.0560  154.2010 C   0  0  0  0  0  2  0  0  0  0  0  0
  160.7950  208.3540  152.8700 C   0  0  0  0  0  0  0  0  0  0  0  0
  161.0490  210.4640  151.7150 O   0  0  0  0  0  0  0  0  0  0  0  0
  161.7230  206.1130  149.4910 C   0  0  0  0  0  3  0  0  0  0  0  0
  162.3690  205.8910  147.0900 C   0  0  0  0  0  1  0  0  0  0  0  0
  160.8210  206.9960  152.8720 N   0  0  0  0  0  0  0  0  0  0  0  0
  161.7410  208.8960  149.2950 C   0  0  0  0  0  3  0  0  0  0  0  0
  159.2620  212.6360  151.1220 N   0  0  0  0  0  2  0  0  0  0  0  0
  162.0510  208.1150  148.1790 C   0  0  0  0  0  3  0  0  0  0  0  0
  158.8270  213.7930  151.8960 C   0  0  0  0  0  2  0  0  0  0  0  0
  161.0970  209.0570  151.6830 C   0  0  0  0  0  0  0  0  0  0  0  0
  160.4890  209.0380  154.1760 C   0  0  1  0  0  3  0  0  0  0  0  0
  162.0410  206.7230  148.2760 C   0  0  0  0  0  0  0  0  0  0  0  0
  161.4150  206.8920  150.6090 C   0  0  0  0  0  0  0  0  0  0  0  0
  159.7740  211.5010  154.0840 C   0  0  0  0  0  2  0  0  0  0  0  0
  161.4170  208.3030  150.5250 C   0  0  0  0  0  0  0  0  0  0  0  0
  160.7040  212.7150  150.9460 C   0  0  0  0  0  2  0  0  0  0  0  0
  161.1150  206.2890  151.7830 N   0  0  0  0  0  0  0  0  0  0  0  0
  159.1520  213.6260  153.3800 C   0  0  0  0  0  2  0  0  0  0  0  0
  158.6260  212.3660  153.8830 N   0  0  0  0  0  2  0  0  0  0  0  0
  161.2450  211.3370  150.6110 C   0  0  0  0  0  2  0  0  0  0  0  0
  163.1640  210.4930  157.1790 C   0  0  0  0  0  2  0  0  0  0  0  0
  161.6730  209.2870  155.0170 N   0  0  0  0  0  0  0  0  0  0  0  0
  161.3760  208.9360  156.4090 C   0  0  0  0  0  2  0  0  0  0  0  0
  162.6360  209.0650  157.2600 C   0  0  0  0  0  2  0  0  0  0  0  0
  163.3880  210.8900  155.7230 C   0  0  0  0  0  2  0  0  0  0  0  0
  162.0970  210.6880  154.9350 C   0  0  0  0  0  2  0  0  0  0  0  0
  2  6  1  0  0  0  0
  2 12  1  0  0  0  0
  4 14  1  0  0  0  0
  5 13  1  0  0  0  0
  7 16  1  0  0  0  0
  8 10  1  0  0  0  0
  9 13  1  0  0  0  0
  9  7  2  0  0  0  0
 10 19  1  0  0  0  0
 11  3  1  0  0  0  0
 11  2  2  0  0  0  0
 12  1  1  6  0  0  0
 12 23  1  0  0  0  0
 13  4  2  0  0  0  0
 14 18  1  0  0  0  0
 15  1  1  0  0  0  0
 16 14  2  0  0  0  0
 16 11  1  0  0  0  0
 17  8  1  0  0  0  0
 18  6  2  0  0  0  0
 19 20  1  0  0  0  0
 20 15  1  0  0  0  0
 21 17  1  0  0  0  0
 21  3  1  0  0  0  0
 22 25  1  0  0  0  0
 23 24  1  0  0  0  0
 24 25  1  0  0  0  0
 26 22  1  0  0  0  0
 27 23  1  0  0  0  0
 27 26  1  0  0  0  0
M  END
>  <MODEL>
3

>  <REMARK>
 VINA RESULT:      -5.5      1.806      4.738
  Name = 
  1 active torsions:
  status: ('A' for Active; 'I' for Inactive)
    1  A    between atoms: N_9  and  C_15
                            x       y       z     vdW  Elec       q    Type
                         _______ _______ _______ _____ _____    ______ ____

>  <TORSDO>
F 1

$$$$
=
 OpenBabel11052423093D

 27 30  0  0  1  0  0  0  0  0999 V2000
  158.4340  210.3870  155.3730 C   0  0  0  0  0  2  0  0  0  0  0  0
  160.2830  208.9970  154.1600 C   0  0  0  0  0  0  0  0  0  0  0  0
  160.2610  211.1450  153.0500 O   0  0  0  0  0  0  0  0  0  0  0  0
  161.8690  207.0310  150.8550 C   0  0  0  0  0  3  0  0  0  0  0  0
  162.7430  206.9810  148.5170 C   0  0  0  0  0  1  0  0  0  0  0  0
  160.5450  207.6650  154.1520 N   0  0  0  0  0  0  0  0  0  0  0  0
  161.4170  209.7800  150.6860 C   0  0  0  0  0  3  0  0  0  0  0  0
  158.1790  212.9900  152.3230 N   0  0  0  0  0  2  0  0  0  0  0  0
  161.9510  209.0900  149.5940 C   0  0  0  0  0  3  0  0  0  0  0  0
  157.4860  214.0350  153.0670 C   0  0  0  0  0  2  0  0  0  0  0  0
  160.5560  209.7700  153.0100 C   0  0  0  0  0  0  0  0  0  0  0  0
  159.7530  209.5870  155.4410 C   0  0  1  0  0  3  0  0  0  0  0  0
  162.1760  207.7150  149.6780 C   0  0  0  0  0  0  0  0  0  0  0  0
  161.3360  207.7190  151.9490 C   0  0  0  0  0  0  0  0  0  0  0  0
  158.6310  211.8900  155.3080 C   0  0  0  0  0  2  0  0  0  0  0  0
  161.0990  209.1100  151.8780 C   0  0  0  0  0  0  0  0  0  0  0  0
  159.5950  213.3210  152.2740 C   0  0  0  0  0  2  0  0  0  0  0  0
  161.0480  207.0440  153.0870 N   0  0  0  0  0  0  0  0  0  0  0  0
  157.7090  213.8910  154.5710 C   0  0  0  0  0  2  0  0  0  0  0  0
  157.3700  212.5480  155.0160 N   0  0  0  0  0  2  0  0  0  0  0  0
  160.3940  212.0660  151.9740 C   0  0  0  0  0  2  0  0  0  0  0  0
  163.3580  211.1200  157.1570 C   0  0  0  0  0  2  0  0  0  0  0  0
  160.8010  210.0160  156.3830 N   0  0  0  0  0  0  0  0  0  0  0  0
  161.0800  211.4440  156.1980 C   0  0  0  0  0  2  0  0  0  0  0  0
  162.0660  211.9250  157.2570 C   0  0  0  0  0  2  0  0  0  0  0  0
  163.0570  209.6280  157.2600 C   0  0  0  0  0  2  0  0  0  0  0  0
  162.0310  209.2400  156.1990 C   0  0  0  0  0  2  0  0  0  0  0  0
  2 12  1  0  0  0  0
  4 14  1  0  0  0  0
  5 13  1  0  0  0  0
  6  2  1  0  0  0  0
  7 16  1  0  0  0  0
  8 10  1  0  0  0  0
  9 13  1  0  0  0  0
  9  7  2  0  0  0  0
 10 19  1  0  0  0  0
 11  3  1  0  0  0  0
 11  2  2  0  0  0  0
 12  1  1  6  0  0  0
 12 23  1  0  0  0  0
 13  4  2  0  0  0  0
 14 18  1  0  0  0  0
 15  1  1  0  0  0  0
 16 14  2  0  0  0  0
 16 11  1  0  0  0  0
 17  8  1  0  0  0  0
 18  6  2  0  0  0  0
 19 20  1  0  0  0  0
 20 15  1  0  0  0  0
 21 17  1  0  0  0  0
 21  3  1  0  0  0  0
 22 25  1  0  0  0  0
 22 26  1  0  0  0  0
 24 23  1  0  0  0  0
 24 25  1  0  0  0  0
 27 23  1  0  0  0  0
 27 26  1  0  0  0  0
M  END
>  <MODEL>
4

>  <REMARK>
 VINA RESULT:      -5.3      2.194      4.974
  Name = 
  1 active torsions:
  status: ('A' for Active; 'I' for Inactive)
    1  A    between atoms: N_9  and  C_15
                            x       y       z     vdW  Elec       q    Type
                         _______ _______ _______ _____ _____    ______ ____

>  <TORSDO>
F 1

$$$$
=
 OpenBabel11052423093D

 27 30  0  0  1  0  0  0  0  0999 V2000
  159.4410  211.5440  153.0870 C   0  0  0  0  0  2  0  0  0  0  0  0
  160.3920  209.1900  153.6980 C   0  0  0  0  0  0  0  0  0  0  0  0
  161.6070  209.8820  151.7250 O   0  0  0  0  0  0  0  0  0  0  0  0
  161.0190  205.1440  152.9640 C   0  0  0  0  0  3  0  0  0  0  0  0
  161.9560  203.2560  151.6270 C   0  0  0  0  0  1  0  0  0  0  0  0
  159.9160  208.2120  154.5110 N   0  0  0  0  0  0  0  0  0  0  0  0
  162.0950  207.0070  151.1870 C   0  0  0  0  0  3  0  0  0  0  0  0
  160.8820  211.3210  149.3440 N   0  0  0  0  0  2  0  0  0  0  0  0
  162.2890  205.6410  150.9700 C   0  0  0  0  0  3  0  0  0  0  0  0
  160.7720  212.7440  149.0480 C   0  0  0  0  0  2  0  0  0  0  0  0
  161.1390  208.8430  152.5510 C   0  0  0  0  0  0  0  0  0  0  0  0
  160.1310  210.6150  154.1100 C   0  0  1  0  0  3  0  0  0  0  0  0
  161.7510  204.7090  151.8580 C   0  0  0  0  0  0  0  0  0  0  0  0
  160.8240  206.5100  153.1840 C   0  0  0  0  0  0  0  0  0  0  0  0
  160.4020  212.4330  152.3200 C   0  0  0  0  0  2  0  0  0  0  0  0
  161.3600  207.4660  152.2920 C   0  0  0  0  0  0  0  0  0  0  0  0
  162.2580  211.0310  149.7170 C   0  0  0  0  0  2  0  0  0  0  0  0
  160.1180  206.9200  154.2640 N   0  0  0  0  0  0  0  0  0  0  0  0
  160.7420  213.5790  150.3270 C   0  0  0  0  0  2  0  0  0  0  0  0
  159.7080  213.0980  151.2320 N   0  0  0  0  0  2  0  0  0  0  0  0
  162.3050  209.7300  150.4960 C   0  0  0  0  0  2  0  0  0  0  0  0
  162.9720  211.1830  157.2550 C   0  0  0  0  0  2  0  0  0  0  0  0
  161.1520  211.1780  155.0100 N   0  0  0  0  0  0  0  0  0  0  0  0
  162.3460  210.3270  154.9990 C   0  0  0  0  0  2  0  0  0  0  0  0
  163.4550  210.9720  155.8240 C   0  0  0  0  0  2  0  0  0  0  0  0
  161.6800  211.9940  157.2600 C   0  0  0  0  0  2  0  0  0  0  0  0
  160.6420  211.3050  156.3780 C   0  0  0  0  0  2  0  0  0  0  0  0
  2 12  1  0  0  0  0
  2  6  1  0  0  0  0
  3 11  1  0  0  0  0
  4 14  1  0  0  0  0
  5 13  1  0  0  0  0
  7 16  1  0  0  0  0
  8 17  1  0  0  0  0
  9  7  2  0  0  0  0
  9 13  1  0  0  0  0
 10  8  1  0  0  0  0
 10 19  1  0  0  0  0
 11  2  2  0  0  0  0
 12  1  1  6  0  0  0
 12 23  1  0  0  0  0
 13  4  2  0  0  0  0
 14 18  1  0  0  0  0
 15  1  1  0  0  0  0
 16 11  1  0  0  0  0
 16 14  2  0  0  0  0
 17 21  1  0  0  0  0
 18  6  2  0  0  0  0
 19 20  1  0  0  0  0
 20 15  1  0  0  0  0
 21  3  1  0  0  0  0
 22 26  1  0  0  0  0
 23 27  1  0  0  0  0
 24 23  1  0  0  0  0
 24 25  1  0  0  0  0
 25 22  1  0  0  0  0
 27 26  1  0  0  0  0
M  END
>  <MODEL>
5

>  <REMARK>
 VINA RESULT:      -4.9      1.952      4.810
  Name = 
  1 active torsions:
  status: ('A' for Active; 'I' for Inactive)
    1  A    between atoms: N_9  and  C_15
                            x       y       z     vdW  Elec       q    Type
                         _______ _______ _______ _____ _____    ______ ____

>  <TORSDO>
F 1

$$$$
