=
 OpenBabel11052422203D

 25 28  0  0  1  0  0  0  0  0999 V2000
  161.3380  205.1200  150.5510 C   0  0  0  0  0  0  0  0  0  0  0  0
  161.8280  206.3900  150.2140 C   0  0  0  0  0  0  0  0  0  0  0  0
  160.5510  205.8820  152.7060 C   0  0  0  0  0  3  0  0  0  0  0  0
  161.3120  203.9190  149.8800 C   0  0  0  0  0  0  0  0  0  0  0  0
  161.7010  207.6140  148.1250 C   0  0  0  0  0  0  0  0  0  0  0  0
  161.2310  201.1870  149.2660 C   0  0  0  0  0  2  0  0  0  0  0  0
  161.0500  207.1580  152.4010 C   0  0  0  0  0  3  0  0  0  0  0  0
  160.6960  203.0260  150.7270 C   0  0  0  0  0  0  0  0  0  0  0  0
  160.5820  201.7600  150.4570 N   0  0  0  0  0  0  0  0  0  0  0  0
  162.2120  208.7870  150.9280 C   0  0  0  0  0  0  0  0  0  0  0  0
  162.6970  209.4170  151.9070 O   0  0  0  0  0  0  0  0  0  0  0  0
  161.0470  207.2500  147.0200 C   0  0  0  0  0  3  0  0  0  0  0  0
  162.5060  206.6350  148.9110 C   0  0  0  0  0  2  0  0  0  0  0  0
  161.3840  202.2230  148.1280 C   0  0  0  0  0  2  0  0  0  0  0  0
  160.7050  204.8790  151.7560 C   0  0  0  0  0  0  0  0  0  0  0  0
  160.2970  203.5960  151.8850 N   0  0  0  0  0  2  0  0  0  0  0  0
  162.1530  209.4470  149.6900 O   0  0  0  0  0  0  0  0  0  0  0  0
  161.7270  203.5950  148.6570 C   0  0  0  0  0  3  0  0  0  0  0  0
  161.6210  208.9470  148.5290 O   0  0  0  0  0  0  0  0  0  0  0  0
  161.6770  207.4290  151.1620 C   0  0  0  0  0  0  0  0  0  0  0  0
  162.4950  205.3990  146.2330 C   0  0  0  0  0  1  0  0  0  0  0  0
  161.0660  205.8640  146.4570 C   0  0  2  0  0  3  0  0  0  0  0  0
  160.2940  205.8060  145.1820 C   0  0  0  0  0  0  0  0  0  0  0  0
  160.9740  205.7360  143.9730 O   0  0  0  0  0  0  0  0  0  0  0  0
  159.0340  205.8210  145.1900 O   0  0  0  0  0  1  0  0  0  0  0  0
  1 15  1  0  0  0  0
  2  1  2  0  0  0  0
  2 20  1  0  0  0  0
  4  1  1  0  0  0  0
  4  8  1  0  0  0  0
  5 19  1  0  0  0  0
  5 13  1  0  0  0  0
  6  9  1  0  0  0  0
  7  3  1  0  0  0  0
  8 16  1  0  0  0  0
  9  8  2  0  0  0  0
 10 20  1  0  0  0  0
 10 11  2  0  0  0  0
 12  5  2  0  0  0  0
 13  2  1  0  0  0  0
 14 18  1  0  0  0  0
 14  6  1  0  0  0  0
 15 16  1  0  0  0  0
 15  3  2  0  0  0  0
 17 10  1  0  0  0  0
 18  4  2  0  0  0  0
 19 17  1  0  0  0  0
 20  7  2  0  0  0  0
 22 21  1  6  0  0  0
 22 12  1  0  0  0  0
 23 25  1  0  0  0  0
 23 22  1  0  0  0  0
 24 23  2  0  0  0  0
M  END
>  <MODEL>
1

>  <REMARK>
 VINA RESULT:      -8.0      0.000      0.000
  Name = 
  2 active torsions:
  status: ('A' for Active; 'I' for Inactive)
    1  A    between atoms: C_2  and  C_25
    2  A    between atoms: C_15  and  C_25
                            x       y       z     vdW  Elec       q    Type
                         _______ _______ _______ _____ _____    ______ ____

>  <TORSDO>
F 2

$$$$
=
 OpenBabel11052422203D

 25 28  0  0  1  0  0  0  0  0999 V2000
  161.5880  207.4320  150.1230 C   0  0  0  0  0  0  0  0  0  0  0  0
  161.6710  206.5770  151.2310 C   0  0  0  0  0  0  0  0  0  0  0  0
  160.7470  205.6710  148.6970 C   0  0  0  0  0  3  0  0  0  0  0  0
  161.8690  208.7680  149.9500 C   0  0  0  0  0  0  0  0  0  0  0  0
  161.0710  206.9550  153.5500 C   0  0  0  0  0  0  0  0  0  0  0  0
  162.5400  211.2480  148.8340 C   0  0  0  0  0  2  0  0  0  0  0  0
  160.8380  204.7900  149.7850 C   0  0  0  0  0  3  0  0  0  0  0  0
  161.5890  209.0450  148.6310 C   0  0  0  0  0  0  0  0  0  0  0  0
  161.8270  210.2000  148.0850 N   0  0  0  0  0  0  0  0  0  0  0  0
  161.3910  204.2330  152.1430 C   0  0  0  0  0  0  0  0  0  0  0  0
  161.7320  203.0560  151.8480 O   0  0  0  0  0  0  0  0  0  0  0  0
  160.4840  208.0400  154.0600 C   0  0  0  0  0  3  0  0  0  0  0  0
  162.1700  207.0640  152.5470 C   0  0  0  0  0  2  0  0  0  0  0  0
  162.3200  211.1300  150.3590 C   0  0  0  0  0  2  0  0  0  0  0  0
  161.1250  206.9930  148.8970 C   0  0  0  0  0  0  0  0  0  0  0  0
  161.1130  207.9710  147.9620 N   0  0  0  0  0  2  0  0  0  0  0  0
  161.0700  204.5040  153.4830 O   0  0  0  0  0  0  0  0  0  0  0  0
  162.2840  209.6910  150.8150 C   0  0  0  0  0  3  0  0  0  0  0  0
  160.6350  205.7040  153.9860 O   0  0  0  0  0  0  0  0  0  0  0  0
  161.2850  205.2280  151.0550 C   0  0  0  0  0  0  0  0  0  0  0  0
  161.8920  209.9810  154.6890 C   0  0  0  0  0  1  0  0  0  0  0  0
  160.8670  209.4420  153.7050 C   0  0  2  0  0  3  0  0  0  0  0  0
  159.6630  210.3220  153.6740 C   0  0  0  0  0  0  0  0  0  0  0  0
  158.9720  210.5770  154.8510 O   0  0  0  0  0  1  0  0  0  0  0  0
  159.2670  210.8350  152.5930 O   0  0  0  0  0  0  0  0  0  0  0  0
  1  2  1  0  0  0  0
  2 13  1  0  0  0  0
  3 15  1  0  0  0  0
  3  7  2  0  0  0  0
  4  1  1  0  0  0  0
  4 18  2  0  0  0  0
  5 19  1  0  0  0  0
  5 12  2  0  0  0  0
  6 14  1  0  0  0  0
  7 20  1  0  0  0  0
  8  4  1  0  0  0  0
  9  8  2  0  0  0  0
  9  6  1  0  0  0  0
 10 17  1  0  0  0  0
 11 10  2  0  0  0  0
 13  5  1  0  0  0  0
 14 18  1  0  0  0  0
 15  1  2  0  0  0  0
 16  8  1  0  0  0  0
 16 15  1  0  0  0  0
 17 19  1  0  0  0  0
 20  2  2  0  0  0  0
 20 10  1  0  0  0  0
 22 12  1  0  0  0  0
 22 21  1  1  0  0  0
 23 22  1  0  0  0  0
 23 24  1  0  0  0  0
 25 23  2  0  0  0  0
M  END
>  <MODEL>
2

>  <REMARK>
 VINA RESULT:      -7.4      3.690      6.868
  Name = 
  2 active torsions:
  status: ('A' for Active; 'I' for Inactive)
    1  A    between atoms: C_2  and  C_25
    2  A    between atoms: C_15  and  C_25
                            x       y       z     vdW  Elec       q    Type
                         _______ _______ _______ _____ _____    ______ ____

>  <TORSDO>
F 2

$$$$
=
 OpenBabel11052422203D

 25 28  0  0  1  0  0  0  0  0999 V2000
  161.4440  206.7640  150.9060 C   0  0  0  0  0  0  0  0  0  0  0  0
  160.9400  205.4680  150.7300 C   0  0  0  0  0  0  0  0  0  0  0  0
  162.0370  206.3340  153.2090 C   0  0  0  0  0  3  0  0  0  0  0  0
  161.5610  207.8440  150.0600 C   0  0  0  0  0  0  0  0  0  0  0  0
  161.1870  203.9280  148.8730 C   0  0  0  0  0  0  0  0  0  0  0  0
  161.7800  210.4430  149.0400 C   0  0  0  0  0  2  0  0  0  0  0  0
  161.5210  205.0360  153.0660 C   0  0  0  0  0  3  0  0  0  0  0  0
  162.1390  208.8460  150.8060 C   0  0  0  0  0  0  0  0  0  0  0  0
  162.3160  210.0510  150.3540 N   0  0  0  0  0  0  0  0  0  0  0  0
  160.4220  203.2200  151.7720 C   0  0  0  0  0  0  0  0  0  0  0  0
  159.8430  202.7620  152.7940 O   0  0  0  0  0  0  0  0  0  0  0  0
  161.9360  204.1010  147.7820 C   0  0  0  0  0  3  0  0  0  0  0  0
  160.3560  205.0340  149.4300 C   0  0  0  0  0  2  0  0  0  0  0  0
  161.6810  209.2450  148.0680 C   0  0  0  0  0  2  0  0  0  0  0  0
  161.9900  207.1780  152.1060 C   0  0  0  0  0  0  0  0  0  0  0  0
  162.4290  208.4560  152.0670 N   0  0  0  0  0  2  0  0  0  0  0  0
  160.5550  202.3730  150.6600 O   0  0  0  0  0  0  0  0  0  0  0  0
  161.2530  207.9800  148.7720 C   0  0  0  0  0  3  0  0  0  0  0  0
  161.1910  202.6730  149.4830 O   0  0  0  0  0  0  0  0  0  0  0  0
  160.9830  204.5870  151.8360 C   0  0  0  0  0  0  0  0  0  0  0  0
  160.6280  205.7790  146.5110 C   0  0  0  0  0  1  0  0  0  0  0  0
  162.0060  205.3810  147.0110 C   0  0  2  0  0  3  0  0  0  0  0  0
  162.9580  205.2540  145.8690 C   0  0  0  0  0  0  0  0  0  0  0  0
  164.0980  204.4740  146.0140 O   0  0  0  0  0  1  0  0  0  0  0  0
  162.7380  205.8430  144.7780 O   0  0  0  0  0  0  0  0  0  0  0  0
  1 15  1  0  0  0  0
  2  1  2  0  0  0  0
  2 20  1  0  0  0  0
  4  8  1  0  0  0  0
  4  1  1  0  0  0  0
  5 13  1  0  0  0  0
  5 19  1  0  0  0  0
  6  9  1  0  0  0  0
  7  3  1  0  0  0  0
  8 16  1  0  0  0  0
  9  8  2  0  0  0  0
 10 20  1  0  0  0  0
 10 11  2  0  0  0  0
 12  5  2  0  0  0  0
 13  2  1  0  0  0  0
 14 18  1  0  0  0  0
 14  6  1  0  0  0  0
 15  3  2  0  0  0  0
 16 15  1  0  0  0  0
 17 10  1  0  0  0  0
 18  4  2  0  0  0  0
 19 17  1  0  0  0  0
 20  7  2  0  0  0  0
 22 21  1  6  0  0  0
 22 12  1  0  0  0  0
 23 24  1  0  0  0  0
 23 22  1  0  0  0  0
 25 23  2  0  0  0  0
M  END
>  <MODEL>
3

>  <REMARK>
 VINA RESULT:      -7.0      3.160      4.869
  Name = 
  2 active torsions:
  status: ('A' for Active; 'I' for Inactive)
    1  A    between atoms: C_2  and  C_25
    2  A    between atoms: C_15  and  C_25
                            x       y       z     vdW  Elec       q    Type
                         _______ _______ _______ _____ _____    ______ ____

>  <TORSDO>
F 2

$$$$
=
 OpenBabel11052422203D

 25 28  0  0  1  0  0  0  0  0999 V2000
  160.7210  210.2040  152.6770 C   0  0  0  0  0  0  0  0  0  0  0  0
  161.4210  210.1690  151.4620 C   0  0  0  0  0  0  0  0  0  0  0  0
  159.6540  212.2990  152.1220 C   0  0  0  0  0  3  0  0  0  0  0  0
  160.6690  209.3440  153.7500 C   0  0  0  0  0  0  0  0  0  0  0  0
  161.8350  208.3230  149.9450 C   0  0  0  0  0  0  0  0  0  0  0  0
  160.3600  208.2730  156.3200 C   0  0  0  0  0  2  0  0  0  0  0  0
  160.3570  212.2990  150.9070 C   0  0  0  0  0  3  0  0  0  0  0  0
  159.8010  209.9170  154.6510 C   0  0  0  0  0  0  0  0  0  0  0  0
  159.5800  209.4230  155.8320 N   0  0  0  0  0  0  0  0  0  0  0  0
  161.9660  211.3290  149.2790 C   0  0  0  0  0  0  0  0  0  0  0  0
  162.3370  212.4650  148.8790 O   0  0  0  0  0  0  0  0  0  0  0  0
  161.3550  207.0820  150.0410 C   0  0  0  0  0  3  0  0  0  0  0  0
  162.3530  209.0530  151.1380 C   0  0  0  0  0  2  0  0  0  0  0  0
  160.8490  207.3670  155.1670 C   0  0  0  0  0  2  0  0  0  0  0  0
  159.8530  211.2320  152.9890 C   0  0  0  0  0  0  0  0  0  0  0  0
  159.2700  211.0750  154.1990 N   0  0  0  0  0  2  0  0  0  0  0  0
  162.2180  210.2270  148.4480 O   0  0  0  0  0  0  0  0  0  0  0  0
  161.2580  208.1670  153.9540 C   0  0  0  0  0  3  0  0  0  0  0  0
  161.8500  208.9270  148.6870 O   0  0  0  0  0  0  0  0  0  0  0  0
  161.2300  211.2410  150.5590 C   0  0  0  0  0  0  0  0  0  0  0  0
  162.6890  206.1900  151.9310 C   0  0  0  0  0  1  0  0  0  0  0  0
  161.3030  206.3040  151.3190 C   0  0  2  0  0  3  0  0  0  0  0  0
  160.7260  204.9480  151.0830 C   0  0  0  0  0  0  0  0  0  0  0  0
  160.6060  204.0620  152.1450 O   0  0  0  0  0  1  0  0  0  0  0  0
  160.3470  204.6010  149.9320 O   0  0  0  0  0  0  0  0  0  0  0  0
  1 15  1  0  0  0  0
  1  4  1  0  0  0  0
  2  1  2  0  0  0  0
  3 15  2  0  0  0  0
  4 18  2  0  0  0  0
  4  8  1  0  0  0  0
  5 12  2  0  0  0  0
  5 13  1  0  0  0  0
  7  3  1  0  0  0  0
  8  9  2  0  0  0  0
  9  6  1  0  0  0  0
 10 20  1  0  0  0  0
 11 10  2  0  0  0  0
 12 22  1  0  0  0  0
 13  2  1  0  0  0  0
 14  6  1  0  0  0  0
 15 16  1  0  0  0  0
 16  8  1  0  0  0  0
 17 19  1  0  0  0  0
 17 10  1  0  0  0  0
 18 14  1  0  0  0  0
 19  5  1  0  0  0  0
 20  7  2  0  0  0  0
 20  2  1  0  0  0  0
 22 21  1  6  0  0  0
 23 22  1  0  0  0  0
 23 24  1  0  0  0  0
 25 23  2  0  0  0  0
M  END
>  <MODEL>
4

>  <REMARK>
 VINA RESULT:      -7.0      3.706      6.013
  Name = 
  2 active torsions:
  status: ('A' for Active; 'I' for Inactive)
    1  A    between atoms: C_2  and  C_25
    2  A    between atoms: C_15  and  C_25
                            x       y       z     vdW  Elec       q    Type
                         _______ _______ _______ _____ _____    ______ ____

>  <TORSDO>
F 2

$$$$
=
 OpenBabel11052422203D

 25 28  0  0  1  0  0  0  0  0999 V2000
  161.0520  209.4400  151.9350 C   0  0  0  0  0  0  0  0  0  0  0  0
  160.3310  210.5900  152.2860 C   0  0  0  0  0  0  0  0  0  0  0  0
  161.9830  210.4980  149.9710 C   0  0  0  0  0  3  0  0  0  0  0  0
  161.1770  208.2000  152.5180 C   0  0  0  0  0  0  0  0  0  0  0  0
  159.9950  211.6270  154.4520 C   0  0  0  0  0  0  0  0  0  0  0  0
  161.6030  205.4650  152.9470 C   0  0  0  0  0  2  0  0  0  0  0  0
  161.2560  211.6560  150.2900 C   0  0  0  0  0  3  0  0  0  0  0  0
  162.0290  207.4850  151.7070 C   0  0  0  0  0  0  0  0  0  0  0  0
  162.3030  206.2300  151.9020 N   0  0  0  0  0  0  0  0  0  0  0  0
  159.6740  212.9610  151.6930 C   0  0  0  0  0  0  0  0  0  0  0  0
  159.2280  213.5990  150.7020 O   0  0  0  0  0  0  0  0  0  0  0  0
  160.5500  211.2640  155.6100 C   0  0  0  0  0  3  0  0  0  0  0  0
  159.4600  210.6170  153.4940 C   0  0  0  0  0  2  0  0  0  0  0  0
  161.1440  206.3610  154.1200 C   0  0  0  0  0  2  0  0  0  0  0  0
  161.8650  209.4020  150.8180 C   0  0  0  0  0  0  0  0  0  0  0  0
  162.4810  208.2090  150.6590 N   0  0  0  0  0  2  0  0  0  0  0  0
  159.4700  213.5080  152.9700 O   0  0  0  0  0  0  0  0  0  0  0  0
  160.6640  207.7110  153.6450 C   0  0  0  0  0  3  0  0  0  0  0  0
  159.9180  212.9890  154.1570 O   0  0  0  0  0  0  0  0  0  0  0  0
  160.4400  211.7210  151.4440 C   0  0  0  0  0  0  0  0  0  0  0  0
  159.7450  209.5790  157.2400 C   0  0  0  0  0  1  0  0  0  0  0  0
  160.6740  209.8440  156.0680 C   0  0  2  0  0  3  0  0  0  0  0  0
  162.0850  209.5360  156.4420 C   0  0  0  0  0  0  0  0  0  0  0  0
  163.0620  210.5100  156.2820 O   0  0  0  0  0  0  0  0  0  0  0  0
  162.3980  208.4050  156.8990 O   0  0  0  0  0  1  0  0  0  0  0  0
  1  2  1  0  0  0  0
  1  4  1  0  0  0  0
  2 13  1  0  0  0  0
  3  7  2  0  0  0  0
  3 15  1  0  0  0  0
  4 18  2  0  0  0  0
  5 12  2  0  0  0  0
  6 14  1  0  0  0  0
  7 20  1  0  0  0  0
  8  9  2  0  0  0  0
  8  4  1  0  0  0  0
  9  6  1  0  0  0  0
 10 17  1  0  0  0  0
 11 10  2  0  0  0  0
 12 22  1  0  0  0  0
 13  5  1  0  0  0  0
 15  1  2  0  0  0  0
 16 15  1  0  0  0  0
 16  8  1  0  0  0  0
 17 19  1  0  0  0  0
 18 14  1  0  0  0  0
 19  5  1  0  0  0  0
 20 10  1  0  0  0  0
 20  2  2  0  0  0  0
 22 23  1  0  0  0  0
 22 21  1  1  0  0  0
 23 25  1  0  0  0  0
 24 23  2  0  0  0  0
M  END
>  <MODEL>
5

>  <REMARK>
 VINA RESULT:      -6.6      4.878      7.590
  Name = 
  2 active torsions:
  status: ('A' for Active; 'I' for Inactive)
    1  A    between atoms: C_2  and  C_25
    2  A    between atoms: C_15  and  C_25
                            x       y       z     vdW  Elec       q    Type
                         _______ _______ _______ _____ _____    ______ ____

>  <TORSDO>
F 2

$$$$
=
 OpenBabel11052422203D

 25 28  0  0  1  0  0  0  0  0999 V2000
  160.9230  205.5700  151.4880 C   0  0  0  0  0  0  0  0  0  0  0  0
  160.7960  205.3170  150.1150 C   0  0  0  0  0  0  0  0  0  0  0  0
  161.6140  203.3010  151.9490 C   0  0  0  0  0  3  0  0  0  0  0  0
  160.7350  206.7000  152.2510 C   0  0  0  0  0  0  0  0  0  0  0  0
  161.4570  206.6590  148.2060 C   0  0  0  0  0  0  0  0  0  0  0  0
  160.2250  208.4480  154.3800 C   0  0  0  0  0  2  0  0  0  0  0  0
  161.4770  203.0150  150.5810 C   0  0  0  0  0  3  0  0  0  0  0  0
  161.0140  206.3300  153.5480 C   0  0  0  0  0  0  0  0  0  0  0  0
  160.8500  207.1270  154.5600 N   0  0  0  0  0  0  0  0  0  0  0  0
  160.9220  203.6250  148.2360 C   0  0  0  0  0  0  0  0  0  0  0  0
  160.4930  202.4690  147.9750 O   0  0  0  0  0  0  0  0  0  0  0  0
  162.1290  207.8120  148.2310 C   0  0  0  0  0  3  0  0  0  0  0  0
  160.3540  206.3800  149.1700 C   0  0  0  0  0  2  0  0  0  0  0  0
  160.4600  209.0170  152.9620 C   0  0  0  0  0  2  0  0  0  0  0  0
  161.3340  204.5930  152.3750 C   0  0  0  0  0  0  0  0  0  0  0  0
  161.4020  205.0400  153.6500 N   0  0  0  0  0  2  0  0  0  0  0  0
  161.2830  204.4490  147.1590 O   0  0  0  0  0  0  0  0  0  0  0  0
  160.4000  207.9410  151.9050 C   0  0  0  0  0  3  0  0  0  0  0  0
  161.8100  205.7120  147.2440 O   0  0  0  0  0  0  0  0  0  0  0  0
  161.0830  204.0100  149.6550 C   0  0  0  0  0  0  0  0  0  0  0  0
  162.0310  210.2730  148.5130 C   0  0  0  0  0  1  0  0  0  0  0  0
  161.8410  208.9260  149.1890 C   0  0  2  0  0  3  0  0  0  0  0  0
  162.7150  208.8190  150.3930 C   0  0  0  0  0  0  0  0  0  0  0  0
  162.9000  209.9320  151.2030 O   0  0  0  0  0  1  0  0  0  0  0  0
  163.2840  207.7330  150.6820 O   0  0  0  0  0  0  0  0  0  0  0  0
  1  4  1  0  0  0  0
  1 15  1  0  0  0  0
  2  1  2  0  0  0  0
  3 15  2  0  0  0  0
  4  8  1  0  0  0  0
  5 12  2  0  0  0  0
  5 13  1  0  0  0  0
  6  9  1  0  0  0  0
  7  3  1  0  0  0  0
  8 16  1  0  0  0  0
  8  9  2  0  0  0  0
 10 20  1  0  0  0  0
 11 10  2  0  0  0  0
 12 22  1  0  0  0  0
 13  2  1  0  0  0  0
 14  6  1  0  0  0  0
 15 16  1  0  0  0  0
 17 19  1  0  0  0  0
 17 10  1  0  0  0  0
 18  4  2  0  0  0  0
 18 14  1  0  0  0  0
 19  5  1  0  0  0  0
 20  2  1  0  0  0  0
 20  7  2  0  0  0  0
 22 21  1  6  0  0  0
 22 23  1  0  0  0  0
 23 25  2  0  0  0  0
 23 24  1  0  0  0  0
M  END
>  <MODEL>
6

>  <REMARK>
 VINA RESULT:      -6.5      2.092      5.235
  Name = 
  2 active torsions:
  status: ('A' for Active; 'I' for Inactive)
    1  A    between atoms: C_2  and  C_25
    2  A    between atoms: C_15  and  C_25
                            x       y       z     vdW  Elec       q    Type
                         _______ _______ _______ _____ _____    ______ ____

>  <TORSDO>
F 2

$$$$
=
 OpenBabel11052422203D

 25 28  0  0  1  0  0  0  0  0999 V2000
  161.3410  204.9400  150.3410 C   0  0  0  0  0  0  0  0  0  0  0  0
  160.7850  203.7710  149.8020 C   0  0  0  0  0  0  0  0  0  0  0  0
  161.9850  203.8190  152.3820 C   0  0  0  0  0  3  0  0  0  0  0  0
  161.4710  206.2220  149.8570 C   0  0  0  0  0  0  0  0  0  0  0  0
  160.9230  202.8600  147.5590 C   0  0  0  0  0  0  0  0  0  0  0  0
  161.7520  209.0030  149.6600 C   0  0  0  0  0  2  0  0  0  0  0  0
  161.4190  202.6390  151.8740 C   0  0  0  0  0  3  0  0  0  0  0  0
  162.1060  206.9370  150.8470 C   0  0  0  0  0  0  0  0  0  0  0  0
  162.3120  208.2180  150.7730 N   0  0  0  0  0  0  0  0  0  0  0  0
  160.2190  201.3270  150.1370 C   0  0  0  0  0  0  0  0  0  0  0  0
  159.6550  200.5960  150.9950 O   0  0  0  0  0  0  0  0  0  0  0  0
  161.6450  203.3360  146.5430 C   0  0  0  0  0  3  0  0  0  0  0  0
  160.1490  203.7670  148.4550 C   0  0  0  0  0  2  0  0  0  0  0  0
  161.5810  208.1580  148.3760 C   0  0  0  0  0  2  0  0  0  0  0  0
  161.9360  204.9580  151.5870 C   0  0  0  0  0  0  0  0  0  0  0  0
  162.4190  206.1770  151.9200 N   0  0  0  0  0  2  0  0  0  0  0  0
  160.2890  200.8540  148.8170 O   0  0  0  0  0  0  0  0  0  0  0  0
  161.1300  206.7500  148.6830 C   0  0  0  0  0  3  0  0  0  0  0  0
  160.9010  201.4800  147.7620 O   0  0  0  0  0  0  0  0  0  0  0  0
  160.8300  202.5960  150.5880 C   0  0  0  0  0  0  0  0  0  0  0  0
  160.5760  205.1980  145.3030 C   0  0  0  0  0  1  0  0  0  0  0  0
  161.7380  204.7880  146.1920 C   0  0  2  0  0  3  0  0  0  0  0  0
  163.0370  205.0820  145.5190 C   0  0  0  0  0  0  0  0  0  0  0  0
  164.2060  204.5220  146.0160 O   0  0  0  0  0  1  0  0  0  0  0  0
  163.0830  205.8310  144.5060 O   0  0  0  0  0  0  0  0  0  0  0  0
  1 15  1  0  0  0  0
  2  1  2  0  0  0  0
  2 20  1  0  0  0  0
  4  1  1  0  0  0  0
  4  8  1  0  0  0  0
  5 19  1  0  0  0  0
  5 13  1  0  0  0  0
  6  9  1  0  0  0  0
  7  3  1  0  0  0  0
  8 16  1  0  0  0  0
  9  8  2  0  0  0  0
 10 20  1  0  0  0  0
 10 11  2  0  0  0  0
 12  5  2  0  0  0  0
 13  2  1  0  0  0  0
 14 18  1  0  0  0  0
 14  6  1  0  0  0  0
 15 16  1  0  0  0  0
 15  3  2  0  0  0  0
 17 10  1  0  0  0  0
 18  4  2  0  0  0  0
 19 17  1  0  0  0  0
 20  7  2  0  0  0  0
 22 21  1  6  0  0  0
 22 12  1  0  0  0  0
 23 24  1  0  0  0  0
 23 22  1  0  0  0  0
 25 23  2  0  0  0  0
M  END
>  <MODEL>
7

>  <REMARK>
 VINA RESULT:      -6.3      2.921      5.024
  Name = 
  2 active torsions:
  status: ('A' for Active; 'I' for Inactive)
    1  A    between atoms: C_2  and  C_25
    2  A    between atoms: C_15  and  C_25
                            x       y       z     vdW  Elec       q    Type
                         _______ _______ _______ _____ _____    ______ ____

>  <TORSDO>
F 2

$$$$
=
 OpenBabel11052422203D

 25 28  0  0  1  0  0  0  0  0999 V2000
  161.4600  205.6900  149.1590 C   0  0  0  0  0  0  0  0  0  0  0  0
  161.7770  205.0040  147.9780 C   0  0  0  0  0  0  0  0  0  0  0  0
  161.1760  207.7850  147.9880 C   0  0  0  0  0  3  0  0  0  0  0  0
  161.3450  205.2900  150.4710 C   0  0  0  0  0  0  0  0  0  0  0  0
  161.0730  202.8170  147.2000 C   0  0  0  0  0  0  0  0  0  0  0  0
  161.2810  205.2520  153.2710 C   0  0  0  0  0  2  0  0  0  0  0  0
  161.5080  207.1260  146.7940 C   0  0  0  0  0  3  0  0  0  0  0  0
  161.0080  206.4190  151.1820 C   0  0  0  0  0  0  0  0  0  0  0  0
  160.9070  206.4350  152.4770 N   0  0  0  0  0  0  0  0  0  0  0  0
  162.1780  205.1240  145.4820 C   0  0  0  0  0  0  0  0  0  0  0  0
  162.8470  205.8110  144.6640 O   0  0  0  0  0  0  0  0  0  0  0  0
  160.1930  202.0030  147.7860 C   0  0  0  0  0  3  0  0  0  0  0  0
  162.1030  203.5500  147.9930 C   0  0  0  0  0  2  0  0  0  0  0  0
  161.0920  203.9360  152.4840 C   0  0  0  0  0  2  0  0  0  0  0  0
  161.1540  207.0380  149.1600 C   0  0  0  0  0  0  0  0  0  0  0  0
  160.8680  207.5090  150.3950 N   0  0  0  0  0  2  0  0  0  0  0  0
  161.7810  203.8370  145.0860 O   0  0  0  0  0  0  0  0  0  0  0  0
  161.4690  204.0880  151.0300 C   0  0  0  0  0  3  0  0  0  0  0  0
  161.0140  202.9640  145.8140 O   0  0  0  0  0  0  0  0  0  0  0  0
  161.7980  205.7410  146.7710 C   0  0  0  0  0  0  0  0  0  0  0  0
  161.3450  200.8740  149.6690 C   0  0  0  0  0  1  0  0  0  0  0  0
  160.1590  201.7290  149.2570 C   0  0  2  0  0  3  0  0  0  0  0  0
  158.8790  201.0620  149.6350 C   0  0  0  0  0  0  0  0  0  0  0  0
  157.7410  201.2840  148.8710 O   0  0  0  0  0  0  0  0  0  0  0  0
  158.8210  200.3010  150.6380 O   0  0  0  0  0  1  0  0  0  0  0  0
  1 15  1  0  0  0  0
  1  4  1  0  0  0  0
  2 13  1  0  0  0  0
  2  1  2  0  0  0  0
  3 15  2  0  0  0  0
  4 18  2  0  0  0  0
  4  8  1  0  0  0  0
  5 12  2  0  0  0  0
  5 13  1  0  0  0  0
  7  3  1  0  0  0  0
  8  9  2  0  0  0  0
  9  6  1  0  0  0  0
 10 20  1  0  0  0  0
 11 10  2  0  0  0  0
 12 22  1  0  0  0  0
 14  6  1  0  0  0  0
 15 16  1  0  0  0  0
 16  8  1  0  0  0  0
 17 10  1  0  0  0  0
 17 19  1  0  0  0  0
 18 14  1  0  0  0  0
 19  5  1  0  0  0  0
 20  7  2  0  0  0  0
 20  2  1  0  0  0  0
 22 23  1  0  0  0  0
 22 21  1  6  0  0  0
 23 25  1  0  0  0  0
 24 23  2  0  0  0  0
M  END
>  <MODEL>
8

>  <REMARK>
 VINA RESULT:      -6.3      2.895      5.314
  Name = 
  2 active torsions:
  status: ('A' for Active; 'I' for Inactive)
    1  A    between atoms: C_2  and  C_25
    2  A    between atoms: C_15  and  C_25
                            x       y       z     vdW  Elec       q    Type
                         _______ _______ _______ _____ _____    ______ ____

>  <TORSDO>
F 2

$$$$
=
 OpenBabel11052422203D

 25 28  0  0  1  0  0  0  0  0999 V2000
  161.5060  205.9160  148.9350 C   0  0  0  0  0  0  0  0  0  0  0  0
  161.0160  205.4970  150.1790 C   0  0  0  0  0  0  0  0  0  0  0  0
  162.9050  207.6120  149.9400 C   0  0  0  0  0  3  0  0  0  0  0  0
  161.2740  205.4900  147.6470 C   0  0  0  0  0  0  0  0  0  0  0  0
  160.6260  203.2640  151.0390 C   0  0  0  0  0  0  0  0  0  0  0  0
  161.0230  205.3800  144.8590 C   0  0  0  0  0  2  0  0  0  0  0  0
  162.4160  207.2250  151.1970 C   0  0  0  0  0  3  0  0  0  0  0  0
  162.0490  206.2910  146.8380 C   0  0  0  0  0  0  0  0  0  0  0  0
  162.0110  206.2330  145.5410 N   0  0  0  0  0  0  0  0  0  0  0  0
  160.9850  205.8420  152.6870 C   0  0  0  0  0  0  0  0  0  0  0  0
  160.8300  206.7840  153.5100 O   0  0  0  0  0  0  0  0  0  0  0  0
  160.9250  202.1100  150.4380 C   0  0  0  0  0  3  0  0  0  0  0  0
  160.0170  204.3980  150.2860 C   0  0  0  0  0  2  0  0  0  0  0  0
  160.6190  204.1560  145.7120 C   0  0  0  0  0  2  0  0  0  0  0  0
  162.4350  206.9330  148.8210 C   0  0  0  0  0  0  0  0  0  0  0  0
  162.7880  207.1800  147.5390 N   0  0  0  0  0  2  0  0  0  0  0  0
  160.7350  204.5340  153.1320 O   0  0  0  0  0  0  0  0  0  0  0  0
  160.5170  204.5000  147.1790 C   0  0  0  0  0  3  0  0  0  0  0  0
  160.8930  203.3840  152.4030 O   0  0  0  0  0  0  0  0  0  0  0  0
  161.4850  206.1670  151.3330 C   0  0  0  0  0  0  0  0  0  0  0  0
  159.2340  201.3790  148.7790 C   0  0  0  0  0  1  0  0  0  0  0  0
  160.6690  201.8310  148.9900 C   0  0  2  0  0  3  0  0  0  0  0  0
  161.6200  200.8010  148.4790 C   0  0  0  0  0  0  0  0  0  0  0  0
  161.3430  200.1490  147.2850 O   0  0  0  0  0  0  0  0  0  0  0  0
  162.6680  200.5190  149.1180 O   0  0  0  0  0  1  0  0  0  0  0  0
  1  2  1  0  0  0  0
  2 13  1  0  0  0  0
  2 20  2  0  0  0  0
  3  7  2  0  0  0  0
  4  1  1  0  0  0  0
  5 19  1  0  0  0  0
  6  9  1  0  0  0  0
  6 14  1  0  0  0  0
  7 20  1  0  0  0  0
  8 16  1  0  0  0  0
  8  4  1  0  0  0  0
  9  8  2  0  0  0  0
 10 17  1  0  0  0  0
 10 11  2  0  0  0  0
 12  5  2  0  0  0  0
 13  5  1  0  0  0  0
 14 18  1  0  0  0  0
 15  1  2  0  0  0  0
 15  3  1  0  0  0  0
 16 15  1  0  0  0  0
 18  4  2  0  0  0  0
 19 17  1  0  0  0  0
 20 10  1  0  0  0  0
 22 21  1  1  0  0  0
 22 12  1  0  0  0  0
 23 22  1  0  0  0  0
 23 25  1  0  0  0  0
 24 23  2  0  0  0  0
M  END
>  <MODEL>
9

>  <REMARK>
 VINA RESULT:      -6.2      3.404      4.883
  Name = 
  2 active torsions:
  status: ('A' for Active; 'I' for Inactive)
    1  A    between atoms: C_2  and  C_25
    2  A    between atoms: C_15  and  C_25
                            x       y       z     vdW  Elec       q    Type
                         _______ _______ _______ _____ _____    ______ ____

>  <TORSDO>
F 2

$$$$
