=
 OpenBabel11062409043D

 37 44  0  0  1  0  0  0  0  0999 V2000
  159.7440  210.4850  155.2420 O   0  0  0  0  0  0  0  0  0  0  0  0
  158.6520  212.9730  151.8840 C   0  0  0  0  0  0  0  0  0  0  0  0
  161.3650  210.5630  151.2150 C   0  0  0  0  0  0  0  0  0  0  0  0
  160.8570  210.5450  156.1000 C   0  0  2  0  0  3  0  0  0  0  0  0
  161.1670  206.9130  152.6950 C   0  0  0  0  0  2  0  0  0  0  0  0
  160.0940  213.1580  149.8720 C   0  0  0  0  0  3  0  0  0  0  0  0
  161.7060  209.3740  152.1080 C   0  0  2  0  0  3  0  0  0  0  0  0
  160.3940  208.0180  156.4540 C   0  0  2  0  0  3  0  0  0  0  0  0
  160.5380  211.5170  151.7080 C   0  0  2  0  0  3  0  0  0  0  0  0
  160.9880  208.0530  151.6590 C   0  0  1  0  0  3  0  0  0  0  0  0
  161.2390  212.8930  149.0060 C   0  0  0  0  0  3  0  0  0  0  0  0
  160.8640  209.3510  157.0600 C   0  0  0  0  0  2  0  0  0  0  0  0
  160.0930  211.6170  153.1320 C   0  0  1  0  0  3  0  0  0  0  0  0
  157.3210  212.6860  151.2110 C   0  0  0  0  0  1  0  0  0  0  0  0
  162.5330  209.5550  149.2310 C   0  0  0  0  0  2  0  0  0  0  0  0
  162.0120  211.8140  148.9920 C   0  0  0  0  0  3  0  0  0  0  0  0
  158.7480  212.1900  153.1200 N   0  0  0  0  0  2  0  0  0  0  0  0
  161.2640  207.3670  155.3580 C   0  0  1  0  0  3  0  0  0  0  0  0
  160.6560  207.4980  153.9890 C   0  0  1  0  0  3  0  0  0  0  0  0
  161.9340  210.6030  149.8210 C   0  0  0  0  0  0  0  0  0  0  0  0
  161.5280  209.6540  153.6250 C   0  0  2  0  0  3  0  0  0  0  0  0
  159.7870  212.5390  151.0100 C   0  0  0  0  0  0  0  0  0  0  0  0
  161.3330  207.6460  150.2150 C   0  0  1  0  0  3  0  0  0  0  0  0
  158.7440  214.4530  152.2210 C   0  0  0  0  0  1  0  0  0  0  0  0
  161.8740  208.3520  154.3630 C   0  0  1  0  0  3  0  0  0  0  0  0
  159.0270  208.0190  156.1560 O   0  0  0  0  0  1  0  0  0  0  0  0
  160.1450  210.3010  153.8900 C   0  0  1  0  0  3  0  0  0  0  0  0
  162.6890  208.1680  149.7700 C   0  0  0  0  0  2  0  0  0  0  0  0
  160.6020  205.2980  150.8220 C   0  0  0  0  0  3  0  0  0  0  0  0
  161.1060  206.2010  149.8740 C   0  0  0  0  0  0  0  0  0  0  0  0
  161.3700  205.7600  148.5720 C   0  0  0  0  0  3  0  0  0  0  0  0
  161.4790  203.8810  146.5940 Cl  0  0  0  0  0  0  0  0  0  0  0  0
  160.6480  203.5280  149.1710 C   0  0  0  0  0  3  0  0  0  0  0  0
  161.1440  204.4260  148.2230 C   0  0  0  0  0  0  0  0  0  0  0  0
  160.3760  203.9640  150.4710 C   0  0  0  0  0  3  0  0  0  0  0  0
  159.4910  212.5230  156.7560 C   0  0  0  0  0  1  0  0  0  0  0  0
  160.8330  211.8320  156.9060 C   0  0  0  0  0  2  0  0  0  0  0  0
  1  4  1  0  0  0  0
  2 24  1  0  0  0  0
  2 17  1  0  0  0  0
  3  9  1  0  0  0  0
  4 37  1  1  0  0  0
  4 12  1  0  0  0  0
  5 19  1  0  0  0  0
  6 22  2  0  0  0  0
  7  3  1  6  0  0  0
  7 21  1  0  0  0  0
  8 26  1  6  0  0  0
  8 12  1  0  0  0  0
  9 22  1  6  0  0  0
  9 13  1  0  0  0  0
 10  7  1  0  0  0  0
 10  5  1  1  0  0  0
 11  6  1  0  0  0  0
 13 17  1  6  0  0  0
 13 27  1  0  0  0  0
 14  2  1  0  0  0  0
 15 28  1  0  0  0  0
 15 20  1  0  0  0  0
 16 11  2  0  0  0  0
 16 20  1  0  0  0  0
 18  8  1  0  0  0  0
 19 25  1  0  0  0  0
 19 18  1  0  0  0  0
 20  3  2  0  0  0  0
 21 27  1  0  0  0  0
 21 25  1  0  0  0  0
 22  2  1  0  0  0  0
 23 10  1  0  0  0  0
 25 18  1  0  0  0  0
 27  1  1  0  0  0  0
 28 23  1  0  0  0  0
 30 23  1  0  0  0  0
 30 29  2  0  0  0  0
 31 30  1  0  0  0  0
 32 34  1  0  0  0  0
 33 35  2  0  0  0  0
 34 31  2  0  0  0  0
 34 33  1  0  0  0  0
 35 29  1  0  0  0  0
 36 37  1  0  0  0  0
M  END
>  <MODEL>
1

>  <REMARK>
 VINA RESULT:      -8.2      0.000      0.000
  Name = 
  2 active torsions:
  status: ('A' for Active; 'I' for Inactive)
    1  A    between atoms: C_5  and  C_23
    2  A    between atoms: C_6  and  C_31
                            x       y       z     vdW  Elec       q    Type
                         _______ _______ _______ _____ _____    ______ ____

>  <TORSDO>
F 2

$$$$
