=
 OpenBabel11052422243D

 31 35  0  0  1  0  0  0  0  0999 V2000
  161.1580  201.5370  149.7380 C   0  0  0  0  0  0  0  0  0  0  0  0
  161.5340  205.1910  148.8840 N   0  0  0  0  0  0  0  0  0  0  0  0
  162.0130  205.2160  147.5210 C   0  0  0  0  0  0  0  0  0  0  0  0
  161.2820  203.9620  149.6040 C   0  0  0  0  0  0  0  0  0  0  0  0
  160.7440  201.6270  151.0690 C   0  0  0  0  0  3  0  0  0  0  0  0
  162.5900  204.2160  147.0140 O   0  0  0  0  0  0  0  0  0  0  0  0
  160.9230  206.4910  150.8430 C   0  0  0  0  0  0  0  0  0  0  0  0
  161.3020  200.3230  149.1540 F   0  0  0  0  0  0  0  0  0  0  0  0
  161.8360  207.6950  147.5010 C   0  0  0  0  0  3  0  0  0  0  0  0
  160.6880  205.2920  151.5330 O   0  0  0  0  0  0  0  0  0  0  0  0
  161.3140  206.4580  149.5490 C   0  0  0  0  0  0  0  0  0  0  0  0
  161.4230  202.6990  149.0080 C   0  0  0  0  0  3  0  0  0  0  0  0
  160.8550  204.0420  150.9380 C   0  0  0  0  0  0  0  0  0  0  0  0
  160.5930  202.8800  151.6690 C   0  0  0  0  0  3  0  0  0  0  0  0
  161.5740  207.7050  148.8080 C   0  0  0  0  0  3  0  0  0  0  0  0
  161.8120  206.4380  146.6760 C   0  0  2  0  0  3  0  0  0  0  0  0
  160.8560  207.5550  153.0700 C   0  0  0  0  0  2  0  0  0  0  0  0
  161.9600  208.2320  152.2920 C   0  0  1  0  0  3  0  0  0  0  0  0
  160.6940  207.7860  151.5780 C   0  0  1  0  0  3  0  0  0  0  0  0
  161.9060  209.7220  152.6050 C   0  0  0  0  0  2  0  0  0  0  0  0
  159.1200  211.3620  154.8100 C   0  0  0  0  0  0  0  0  0  0  0  0
  162.1060  209.6580  155.8860 C   0  0  0  0  0  1  0  0  0  0  0  0
  158.1580  210.6990  155.3330 N   0  0  0  0  0  2  0  0  0  0  0  0
  159.5460  211.0920  153.1120 S   0  0  0  0  0  0  0  0  0  0  0  0
  161.6110  210.7290  154.9360 C   0  0  1  0  0  3  0  0  0  0  0  0
  160.9280  210.0810  153.7240 C   0  0  2  0  0  3  0  0  0  0  0  0
  160.4890  211.8690  155.8240 S   0  0  0  0  0  0  0  0  0  0  0  0
  160.4870  206.3230  145.9310 C   0  0  0  0  0  2  0  0  0  0  0  0
  160.6720  205.6900  144.5590 C   0  0  0  0  0  2  0  0  0  0  0  0
  160.2840  203.0990  144.6840 N   0  0  0  0  0  0  0  0  0  0  0  0
  160.4550  204.2430  144.6290 C   0  0  0  0  0  0  0  0  0  0  0  0
  1  5  1  0  0  0  0
  2 11  1  0  0  0  0
  2  4  1  0  0  0  0
  3  2  1  0  0  0  0
  4 13  2  0  0  0  0
  5 14  2  0  0  0  0
  6  3  2  0  0  0  0
  7 10  1  0  0  0  0
  8  1  1  0  0  0  0
  9 15  2  0  0  0  0
 11  7  2  0  0  0  0
 12  4  1  0  0  0  0
 12  1  2  0  0  0  0
 13 10  1  0  0  0  0
 13 14  1  0  0  0  0
 15 11  1  0  0  0  0
 16 28  1  1  0  0  0
 16  9  1  0  0  0  0
 16  3  1  0  0  0  0
 18 20  1  1  0  0  0
 18 17  1  0  0  0  0
 19  7  1  6  0  0  0
 19 18  1  0  0  0  0
 19 17  1  0  0  0  0
 21 23  2  0  0  0  0
 21 27  1  0  0  0  0
 24 26  1  0  0  0  0
 24 21  1  0  0  0  0
 25 27  1  0  0  0  0
 25 22  1  1  0  0  0
 26 20  1  6  0  0  0
 26 25  1  0  0  0  0
 29 31  1  0  0  0  0
 29 28  1  0  0  0  0
 31 30  3  0  0  0  0
M  END
>  <MODEL>
1

>  <REMARK>
 VINA RESULT:      -7.9      0.000      0.000
  Name = 
  6 active torsions:
  status: ('A' for Active; 'I' for Inactive)
    1  A    between atoms: C_3  and  C_9
    2  A    between atoms: C_3  and  C_22
    3  A    between atoms: C_15  and  C_23
    4  A    between atoms: C_18  and  C_26
    5  A    between atoms: C_26  and  C_31
    6  A    between atoms: C_30  and  C_31
                            x       y       z     vdW  Elec       q    Type
                         _______ _______ _______ _____ _____    ______ ____

>  <TORSDO>
F 6

$$$$
=
 OpenBabel11052422243D

 31 35  0  0  1  0  0  0  0  0999 V2000
  161.8430  211.3880  149.7100 C   0  0  0  0  0  0  0  0  0  0  0  0
  161.6630  208.6530  152.2990 N   0  0  0  0  0  0  0  0  0  0  0  0
  161.5920  209.3360  153.5700 C   0  0  0  0  0  0  0  0  0  0  0  0
  161.7710  209.3520  151.0380 C   0  0  0  0  0  0  0  0  0  0  0  0
  161.9560  210.6290  148.5430 C   0  0  0  0  0  3  0  0  0  0  0  0
  161.9910  210.5250  153.6940 O   0  0  0  0  0  0  0  0  0  0  0  0
  161.7630  206.5160  151.1490 C   0  0  0  0  0  0  0  0  0  0  0  0
  161.8250  212.7410  149.6380 F   0  0  0  0  0  0  0  0  0  0  0  0
  161.2810  207.1580  154.7280 C   0  0  0  0  0  3  0  0  0  0  0  0
  161.8720  207.2060  149.9310 O   0  0  0  0  0  0  0  0  0  0  0  0
  161.6390  207.2050  152.3050 C   0  0  0  0  0  0  0  0  0  0  0  0
  161.7470  210.7530  150.9510 C   0  0  0  0  0  3  0  0  0  0  0  0
  161.8730  208.5990  149.8590 C   0  0  0  0  0  0  0  0  0  0  0  0
  161.9710  209.2330  148.6180 C   0  0  0  0  0  3  0  0  0  0  0  0
  161.5290  206.5000  153.5950 C   0  0  0  0  0  3  0  0  0  0  0  0
  161.0190  208.6390  154.7680 C   0  0  2  0  0  3  0  0  0  0  0  0
  160.4530  204.4970  151.7000 C   0  0  0  0  0  2  0  0  0  0  0  0
  160.6440  204.5010  150.2020 C   0  0  1  0  0  3  0  0  0  0  0  0
  161.7540  205.0100  151.1080 C   0  0  1  0  0  3  0  0  0  0  0  0
  160.9200  203.0690  149.7620 C   0  0  0  0  0  2  0  0  0  0  0  0
  161.5670  203.6020  145.9400 C   0  0  0  0  0  0  0  0  0  0  0  0
  161.5500  200.5130  147.7930 C   0  0  0  0  0  1  0  0  0  0  0  0
  162.7390  203.6710  145.4290 N   0  0  0  0  0  2  0  0  0  0  0  0
  161.1990  204.5170  147.4110 S   0  0  0  0  0  0  0  0  0  0  0  0
  160.7510  201.7790  147.5610 C   0  0  1  0  0  3  0  0  0  0  0  0
  161.3960  202.9520  148.3130 C   0  0  2  0  0  3  0  0  0  0  0  0
  160.6220  202.1060  145.7660 S   0  0  0  0  0  0  0  0  0  0  0  0
  159.5200  208.9060  154.8370 C   0  0  0  0  0  2  0  0  0  0  0  0
  159.2050  210.0830  155.7490 C   0  0  0  0  0  2  0  0  0  0  0  0
  157.9120  211.9460  154.4310 N   0  0  0  0  0  0  0  0  0  0  0  0
  158.4830  211.1240  155.0120 C   0  0  0  0  0  0  0  0  0  0  0  0
  1 12  1  0  0  0  0
  2 11  1  0  0  0  0
  2  3  1  0  0  0  0
  3  6  2  0  0  0  0
  3 16  1  0  0  0  0
  4  2  1  0  0  0  0
  5 14  1  0  0  0  0
  5  1  2  0  0  0  0
  7 11  2  0  0  0  0
  8  1  1  0  0  0  0
  9 16  1  0  0  0  0
 10  7  1  0  0  0  0
 11 15  1  0  0  0  0
 12  4  2  0  0  0  0
 13 10  1  0  0  0  0
 13  4  1  0  0  0  0
 14 13  2  0  0  0  0
 15  9  2  0  0  0  0
 16 28  1  6  0  0  0
 18 20  1  1  0  0  0
 18 19  1  0  0  0  0
 18 17  1  0  0  0  0
 19  7  1  6  0  0  0
 19 17  1  0  0  0  0
 21 24  1  0  0  0  0
 23 21  2  0  0  0  0
 24 26  1  0  0  0  0
 25 22  1  6  0  0  0
 25 26  1  0  0  0  0
 26 20  1  1  0  0  0
 27 21  1  0  0  0  0
 27 25  1  0  0  0  0
 28 29  1  0  0  0  0
 30 31  3  0  0  0  0
 31 29  1  0  0  0  0
M  END
>  <MODEL>
2

>  <REMARK>
 VINA RESULT:      -7.4      4.055      8.911
  Name = 
  6 active torsions:
  status: ('A' for Active; 'I' for Inactive)
    1  A    between atoms: C_3  and  C_9
    2  A    between atoms: C_3  and  C_22
    3  A    between atoms: C_15  and  C_23
    4  A    between atoms: C_18  and  C_26
    5  A    between atoms: C_26  and  C_31
    6  A    between atoms: C_30  and  C_31
                            x       y       z     vdW  Elec       q    Type
                         _______ _______ _______ _____ _____    ______ ____

>  <TORSDO>
F 6

$$$$
=
 OpenBabel11052422243D

 31 35  0  0  1  0  0  0  0  0999 V2000
  161.2720  204.3800  145.7820 C   0  0  0  0  0  0  0  0  0  0  0  0
  161.1100  204.9910  149.5000 N   0  0  0  0  0  0  0  0  0  0  0  0
  160.4500  203.8290  150.0480 C   0  0  0  0  0  0  0  0  0  0  0  0
  161.3480  205.1630  148.0840 C   0  0  0  0  0  0  0  0  0  0  0  0
  161.8730  205.5660  145.3540 C   0  0  0  0  0  3  0  0  0  0  0  0
  159.7220  203.0930  149.3290 O   0  0  0  0  0  0  0  0  0  0  0  0
  162.0990  207.1630  149.9510 C   0  0  0  0  0  0  0  0  0  0  0  0
  160.9410  203.4250  144.8800 F   0  0  0  0  0  0  0  0  0  0  0  0
  160.8430  204.6870  152.3480 C   0  0  0  0  0  3  0  0  0  0  0  0
  162.3210  207.3200  148.5740 O   0  0  0  0  0  0  0  0  0  0  0  0
  161.5320  206.0280  150.4180 C   0  0  0  0  0  0  0  0  0  0  0  0
  161.0140  204.1770  147.1410 C   0  0  0  0  0  3  0  0  0  0  0  0
  161.9610  206.3460  147.6440 C   0  0  0  0  0  0  0  0  0  0  0  0
  162.2180  206.5490  146.2860 C   0  0  0  0  0  3  0  0  0  0  0  0
  161.2850  205.8460  151.8600 C   0  0  0  0  0  3  0  0  0  0  0  0
  160.6400  203.4670  151.4910 C   0  0  2  0  0  3  0  0  0  0  0  0
  162.0990  209.6070  150.2990 C   0  0  0  0  0  2  0  0  0  0  0  0
  161.3440  208.9990  151.4560 C   0  0  1  0  0  3  0  0  0  0  0  0
  162.5440  208.2730  150.8690 C   0  0  1  0  0  3  0  0  0  0  0  0
  161.7360  209.7560  152.7190 C   0  0  0  0  0  2  0  0  0  0  0  0
  159.1880  210.9070  155.4570 C   0  0  0  0  0  0  0  0  0  0  0  0
  160.5930  207.6290  154.9510 C   0  0  0  0  0  1  0  0  0  0  0  0
  157.9230  210.7410  155.3520 N   0  0  0  0  0  2  0  0  0  0  0  0
  160.1030  211.5410  154.0790 S   0  0  0  0  0  0  0  0  0  0  0  0
  160.9690  209.0920  155.0660 C   0  0  1  0  0  3  0  0  0  0  0  0
  160.6220  209.8270  153.7640 C   0  0  2  0  0  3  0  0  0  0  0  0
  160.1300  209.8320  156.5130 S   0  0  0  0  0  0  0  0  0  0  0  0
  161.8340  202.5280  151.6220 C   0  0  0  0  0  2  0  0  0  0  0  0
  161.4510  201.0920  151.2940 C   0  0  0  0  0  2  0  0  0  0  0  0
  161.5280  200.6890  148.7040 N   0  0  0  0  0  0  0  0  0  0  0  0
  161.4940  200.8670  149.8470 C   0  0  0  0  0  0  0  0  0  0  0  0
  1 12  1  0  0  0  0
  2  3  1  0  0  0  0
  2 11  1  0  0  0  0
  3 16  1  0  0  0  0
  4  2  1  0  0  0  0
  5  1  2  0  0  0  0
  5 14  1  0  0  0  0
  6  3  2  0  0  0  0
  7 11  2  0  0  0  0
  8  1  1  0  0  0  0
 10  7  1  0  0  0  0
 11 15  1  0  0  0  0
 12  4  2  0  0  0  0
 13  4  1  0  0  0  0
 13 10  1  0  0  0  0
 14 13  2  0  0  0  0
 15  9  2  0  0  0  0
 16 28  1  6  0  0  0
 16  9  1  0  0  0  0
 17 19  1  0  0  0  0
 17 18  1  0  0  0  0
 18 20  1  1  0  0  0
 19  7  1  6  0  0  0
 19 18  1  0  0  0  0
 21 27  1  0  0  0  0
 23 21  2  0  0  0  0
 24 21  1  0  0  0  0
 25 22  1  6  0  0  0
 25 27  1  0  0  0  0
 26 20  1  6  0  0  0
 26 24  1  0  0  0  0
 26 25  1  0  0  0  0
 29 28  1  0  0  0  0
 30 31  3  0  0  0  0
 31 29  1  0  0  0  0
M  END
>  <MODEL>
3

>  <REMARK>
 VINA RESULT:      -6.7      1.912      4.072
  Name = 
  6 active torsions:
  status: ('A' for Active; 'I' for Inactive)
    1  A    between atoms: C_3  and  C_9
    2  A    between atoms: C_3  and  C_22
    3  A    between atoms: C_15  and  C_23
    4  A    between atoms: C_18  and  C_26
    5  A    between atoms: C_26  and  C_31
    6  A    between atoms: C_30  and  C_31
                            x       y       z     vdW  Elec       q    Type
                         _______ _______ _______ _____ _____    ______ ____

>  <TORSDO>
F 6

$$$$
=
 OpenBabel11052422243D

 31 35  0  0  1  0  0  0  0  0999 V2000
  161.6050  205.3150  145.2550 C   0  0  0  0  0  0  0  0  0  0  0  0
  160.8130  203.4270  148.4210 N   0  0  0  0  0  0  0  0  0  0  0  0
  160.2800  202.1580  147.9840 C   0  0  0  0  0  0  0  0  0  0  0  0
  161.2220  204.4650  147.5010 C   0  0  0  0  0  0  0  0  0  0  0  0
  162.0610  206.5240  145.7850 C   0  0  0  0  0  3  0  0  0  0  0  0
  159.7910  202.0190  146.8310 O   0  0  0  0  0  0  0  0  0  0  0  0
  161.3620  204.8550  150.3080 C   0  0  0  0  0  0  0  0  0  0  0  0
  161.5660  205.1360  143.9120 F   0  0  0  0  0  0  0  0  0  0  0  0
  160.1940  201.3780  150.3430 C   0  0  0  0  0  3  0  0  0  0  0  0
  161.7510  205.8570  149.4050 O   0  0  0  0  0  0  0  0  0  0  0  0
  160.9260  203.6620  149.8460 C   0  0  0  0  0  0  0  0  0  0  0  0
  161.1910  204.2890  146.1080 C   0  0  0  0  0  3  0  0  0  0  0  0
  161.6920  205.6800  148.0230 C   0  0  0  0  0  0  0  0  0  0  0  0
  162.1040  206.7060  147.1700 C   0  0  0  0  0  3  0  0  0  0  0  0
  160.5060  202.5990  150.7770 C   0  0  0  0  0  3  0  0  0  0  0  0
  160.3160  200.9710  148.9010 C   0  0  2  0  0  3  0  0  0  0  0  0
  162.7050  206.0160  152.0240 C   0  0  0  0  0  2  0  0  0  0  0  0
  161.3280  206.6350  152.0510 C   0  0  1  0  0  3  0  0  0  0  0  0
  161.4840  205.1470  151.7820 C   0  0  1  0  0  3  0  0  0  0  0  0
  160.9550  206.8840  153.5070 C   0  0  0  0  0  2  0  0  0  0  0  0
  161.2460  210.7810  153.7190 C   0  0  0  0  0  0  0  0  0  0  0  0
  160.1730  208.4780  156.2740 C   0  0  0  0  0  1  0  0  0  0  0  0
  160.2510  211.5690  153.5500 N   0  0  0  0  0  2  0  0  0  0  0  0
  161.5040  209.4440  152.5860 S   0  0  0  0  0  0  0  0  0  0  0  0
  161.2710  208.7190  155.2580 C   0  0  1  0  0  3  0  0  0  0  0  0
  160.7730  208.3630  153.8510 C   0  0  2  0  0  3  0  0  0  0  0  0
  161.8370  210.4550  155.3640 S   0  0  0  0  0  0  0  0  0  0  0  0
  161.6150  200.2050  148.6790 C   0  0  0  0  0  2  0  0  0  0  0  0
  162.1340  200.3860  147.2590 C   0  0  0  0  0  2  0  0  0  0  0  0
  161.2050  198.4960  145.6960 N   0  0  0  0  0  0  0  0  0  0  0  0
  161.6150  199.3300  146.3860 C   0  0  0  0  0  0  0  0  0  0  0  0
  1  5  2  0  0  0  0
  1 12  1  0  0  0  0
  2 11  1  0  0  0  0
  3  2  1  0  0  0  0
  3 16  1  0  0  0  0
  4 13  1  0  0  0  0
  4  2  1  0  0  0  0
  5 14  1  0  0  0  0
  6  3  2  0  0  0  0
  8  1  1  0  0  0  0
  9 15  2  0  0  0  0
 10  7  1  0  0  0  0
 11  7  2  0  0  0  0
 11 15  1  0  0  0  0
 12  4  2  0  0  0  0
 13 10  1  0  0  0  0
 14 13  2  0  0  0  0
 16 28  1  1  0  0  0
 16  9  1  0  0  0  0
 17 18  1  0  0  0  0
 18 20  1  1  0  0  0
 19  7  1  6  0  0  0
 19 17  1  0  0  0  0
 19 18  1  0  0  0  0
 21 27  1  0  0  0  0
 23 21  2  0  0  0  0
 24 21  1  0  0  0  0
 24 26  1  0  0  0  0
 25 27  1  0  0  0  0
 25 22  1  1  0  0  0
 26 20  1  6  0  0  0
 26 25  1  0  0  0  0
 29 28  1  0  0  0  0
 30 31  3  0  0  0  0
 31 29  1  0  0  0  0
M  END
>  <MODEL>
4

>  <REMARK>
 VINA RESULT:      -6.4      2.388      4.285
  Name = 
  6 active torsions:
  status: ('A' for Active; 'I' for Inactive)
    1  A    between atoms: C_3  and  C_9
    2  A    between atoms: C_3  and  C_22
    3  A    between atoms: C_15  and  C_23
    4  A    between atoms: C_18  and  C_26
    5  A    between atoms: C_26  and  C_31
    6  A    between atoms: C_30  and  C_31
                            x       y       z     vdW  Elec       q    Type
                         _______ _______ _______ _____ _____    ______ ____

>  <TORSDO>
F 6

$$$$
=
 OpenBabel11052422243D

 31 35  0  0  1  0  0  0  0  0999 V2000
  160.1390  209.2580  155.3180 C   0  0  0  0  0  0  0  0  0  0  0  0
  161.6290  208.2980  151.9900 N   0  0  0  0  0  0  0  0  0  0  0  0
  161.8220  206.8680  152.0580 C   0  0  0  0  0  0  0  0  0  0  0  0
  161.0940  209.0700  153.0900 C   0  0  0  0  0  0  0  0  0  0  0  0
  160.0420  210.6430  155.1650 C   0  0  0  0  0  3  0  0  0  0  0  0
  161.8970  206.2720  153.1660 O   0  0  0  0  0  0  0  0  0  0  0  0
  161.9010  210.3210  150.6730 C   0  0  0  0  0  0  0  0  0  0  0  0
  159.7280  208.6740  156.4700 F   0  0  0  0  0  0  0  0  0  0  0  0
  162.5420  206.8490  149.6780 C   0  0  0  0  0  3  0  0  0  0  0  0
  161.3860  211.0600  151.7490 O   0  0  0  0  0  0  0  0  0  0  0  0
  162.0050  208.9770  150.7670 C   0  0  0  0  0  0  0  0  0  0  0  0
  160.6600  208.4750  154.2850 C   0  0  0  0  0  3  0  0  0  0  0  0
  160.9810  210.4610  152.9420 C   0  0  0  0  0  0  0  0  0  0  0  0
  160.4630  211.2440  153.9760 C   0  0  0  0  0  3  0  0  0  0  0  0
  162.5490  208.1820  149.6510 C   0  0  0  0  0  3  0  0  0  0  0  0
  161.9170  206.0620  150.7970 C   0  0  2  0  0  3  0  0  0  0  0  0
  161.3190  210.7300  148.3090 C   0  0  0  0  0  2  0  0  0  0  0  0
  161.2040  212.0540  149.0250 C   0  0  1  0  0  3  0  0  0  0  0  0
  162.2910  211.0690  149.4250 C   0  0  1  0  0  3  0  0  0  0  0  0
  161.7640  213.1330  148.1070 C   0  0  0  0  0  2  0  0  0  0  0  0
  161.3060  213.4430  144.2330 C   0  0  0  0  0  0  0  0  0  0  0  0
  158.7650  213.0870  146.7610 C   0  0  0  0  0  1  0  0  0  0  0  0
  161.1460  212.4330  143.4620 N   0  0  0  0  0  2  0  0  0  0  0  0
  162.5760  213.4070  145.4670 S   0  0  0  0  0  0  0  0  0  0  0  0
  160.0060  213.8820  146.4090 C   0  0  1  0  0  3  0  0  0  0  0  0
  161.2610  213.0370  146.6660 C   0  0  2  0  0  3  0  0  0  0  0  0
  159.9050  214.4440  144.6710 S   0  0  0  0  0  0  0  0  0  0  0  0
  160.5230  205.5920  150.3940 C   0  0  0  0  0  2  0  0  0  0  0  0
  160.4800  204.0830  150.1950 C   0  0  0  0  0  2  0  0  0  0  0  0
  161.6010  203.4260  147.9160 N   0  0  0  0  0  0  0  0  0  0  0  0
  161.1060  203.7160  148.9220 C   0  0  0  0  0  0  0  0  0  0  0  0
  1  8  1  0  0  0  0
  2  3  1  0  0  0  0
  2  4  1  0  0  0  0
  3  6  2  0  0  0  0
  4 12  1  0  0  0  0
  5  1  1  0  0  0  0
  7 11  2  0  0  0  0
  7 10  1  0  0  0  0
  9 16  1  0  0  0  0
 10 13  1  0  0  0  0
 11  2  1  0  0  0  0
 12  1  2  0  0  0  0
 13  4  2  0  0  0  0
 13 14  1  0  0  0  0
 14  5  2  0  0  0  0
 15  9  2  0  0  0  0
 15 11  1  0  0  0  0
 16 28  1  6  0  0  0
 16  3  1  0  0  0  0
 17 18  1  0  0  0  0
 17 19  1  0  0  0  0
 18 20  1  6  0  0  0
 18 19  1  0  0  0  0
 19  7  1  1  0  0  0
 21 27  1  0  0  0  0
 21 24  1  0  0  0  0
 23 21  2  0  0  0  0
 24 26  1  0  0  0  0
 25 26  1  0  0  0  0
 25 22  1  6  0  0  0
 26 20  1  1  0  0  0
 27 25  1  0  0  0  0
 29 28  1  0  0  0  0
 30 31  3  0  0  0  0
 31 29  1  0  0  0  0
M  END
>  <MODEL>
5

>  <REMARK>
 VINA RESULT:      -6.3      4.679      7.246
  Name = 
  6 active torsions:
  status: ('A' for Active; 'I' for Inactive)
    1  A    between atoms: C_3  and  C_9
    2  A    between atoms: C_3  and  C_22
    3  A    between atoms: C_15  and  C_23
    4  A    between atoms: C_18  and  C_26
    5  A    between atoms: C_26  and  C_31
    6  A    between atoms: C_30  and  C_31
                            x       y       z     vdW  Elec       q    Type
                         _______ _______ _______ _____ _____    ______ ____

>  <TORSDO>
F 6

$$$$
=
 OpenBabel11052422243D

 31 35  0  0  1  0  0  0  0  0999 V2000
  161.3230  200.8830  148.3690 C   0  0  0  0  0  0  0  0  0  0  0  0
  161.5360  204.6440  148.5390 N   0  0  0  0  0  0  0  0  0  0  0  0
  162.0510  205.0550  147.2530 C   0  0  0  0  0  0  0  0  0  0  0  0
  161.3270  203.2580  148.8940 C   0  0  0  0  0  0  0  0  0  0  0  0
  160.8680  200.5940  149.6580 C   0  0  0  0  0  3  0  0  0  0  0  0
  162.6910  204.2530  146.5210 O   0  0  0  0  0  0  0  0  0  0  0  0
  160.8060  205.3430  150.7480 C   0  0  0  0  0  0  0  0  0  0  0  0
  161.5450  199.8780  147.4880 F   0  0  0  0  0  0  0  0  0  0  0  0
  161.7480  207.4390  147.8900 C   0  0  0  0  0  3  0  0  0  0  0  0
  160.6120  203.9930  151.0830 O   0  0  0  0  0  0  0  0  0  0  0  0
  161.2330  205.6750  149.5100 C   0  0  0  0  0  0  0  0  0  0  0  0
  161.5480  202.2090  147.9880 C   0  0  0  0  0  3  0  0  0  0  0  0
  160.8590  202.9570  150.1820 C   0  0  0  0  0  0  0  0  0  0  0  0
  160.6360  201.6330  150.5640 C   0  0  0  0  0  3  0  0  0  0  0  0
  161.4490  207.0860  149.1400 C   0  0  0  0  0  3  0  0  0  0  0  0
  161.8110  206.4500  146.7580 C   0  0  2  0  0  3  0  0  0  0  0  0
  161.0040  205.9120  153.1420 C   0  0  0  0  0  2  0  0  0  0  0  0
  161.7670  206.9650  152.3750 C   0  0  1  0  0  3  0  0  0  0  0  0
  160.4900  206.3820  151.7930 C   0  0  1  0  0  3  0  0  0  0  0  0
  161.4940  208.3130  153.0330 C   0  0  0  0  0  2  0  0  0  0  0  0
  161.6030  211.2760  150.4790 C   0  0  0  0  0  0  0  0  0  0  0  0
  158.9850  210.4240  152.8020 C   0  0  0  0  0  1  0  0  0  0  0  0
  161.0460  211.2300  149.3270 N   0  0  0  0  0  2  0  0  0  0  0  0
  162.5770  209.9040  151.0340 S   0  0  0  0  0  0  0  0  0  0  0  0
  160.4820  210.6370  152.7050 C   0  0  1  0  0  3  0  0  0  0  0  0
  161.1430  209.4210  152.0400 C   0  0  2  0  0  3  0  0  0  0  0  0
  160.8260  212.1850  151.7940 S   0  0  0  0  0  0  0  0  0  0  0  0
  160.5150  206.4840  145.9570 C   0  0  0  0  0  2  0  0  0  0  0  0
  160.7190  205.9590  144.5430 C   0  0  0  0  0  2  0  0  0  0  0  0
  159.9970  203.4420  144.3870 N   0  0  0  0  0  0  0  0  0  0  0  0
  160.3160  204.5530  144.4560 C   0  0  0  0  0  0  0  0  0  0  0  0
  1  5  1  0  0  0  0
  2  4  1  0  0  0  0
  2 11  1  0  0  0  0
  3  2  1  0  0  0  0
  4 13  2  0  0  0  0
  5 14  2  0  0  0  0
  6  3  2  0  0  0  0
  7 10  1  0  0  0  0
  8  1  1  0  0  0  0
  9 15  2  0  0  0  0
 11  7  2  0  0  0  0
 12  1  2  0  0  0  0
 12  4  1  0  0  0  0
 13 14  1  0  0  0  0
 13 10  1  0  0  0  0
 15 11  1  0  0  0  0
 16 28  1  1  0  0  0
 16  3  1  0  0  0  0
 16  9  1  0  0  0  0
 18 20  1  1  0  0  0
 18 17  1  0  0  0  0
 19  7  1  6  0  0  0
 19 18  1  0  0  0  0
 19 17  1  0  0  0  0
 21 24  1  0  0  0  0
 21 27  1  0  0  0  0
 23 21  2  0  0  0  0
 24 26  1  0  0  0  0
 25 22  1  6  0  0  0
 26 25  1  0  0  0  0
 26 20  1  1  0  0  0
 27 25  1  0  0  0  0
 29 28  1  0  0  0  0
 30 31  3  0  0  0  0
 31 29  1  0  0  0  0
M  END
>  <MODEL>
6

>  <REMARK>
 VINA RESULT:      -5.9      1.874      2.274
  Name = 
  6 active torsions:
  status: ('A' for Active; 'I' for Inactive)
    1  A    between atoms: C_3  and  C_9
    2  A    between atoms: C_3  and  C_22
    3  A    between atoms: C_15  and  C_23
    4  A    between atoms: C_18  and  C_26
    5  A    between atoms: C_26  and  C_31
    6  A    between atoms: C_30  and  C_31
                            x       y       z     vdW  Elec       q    Type
                         _______ _______ _______ _____ _____    ______ ____

>  <TORSDO>
F 6

$$$$
=
 OpenBabel11052422243D

 31 35  0  0  1  0  0  0  0  0999 V2000
  161.1000  205.0020  146.2270 C   0  0  0  0  0  0  0  0  0  0  0  0
  161.0920  205.4080  149.9760 N   0  0  0  0  0  0  0  0  0  0  0  0
  160.4690  204.2100  150.4870 C   0  0  0  0  0  0  0  0  0  0  0  0
  161.2670  205.6590  148.5620 C   0  0  0  0  0  0  0  0  0  0  0  0
  161.6690  206.2160  145.8390 C   0  0  0  0  0  3  0  0  0  0  0  0
  159.7170  203.5050  149.7610 O   0  0  0  0  0  0  0  0  0  0  0  0
  162.0790  207.5650  150.5030 C   0  0  0  0  0  0  0  0  0  0  0  0
  160.7390  204.0930  145.2890 F   0  0  0  0  0  0  0  0  0  0  0  0
  160.9530  204.9460  152.8120 C   0  0  0  0  0  3  0  0  0  0  0  0
  162.2380  207.7990  149.1280 O   0  0  0  0  0  0  0  0  0  0  0  0
  161.5430  206.3990  150.9300 C   0  0  0  0  0  0  0  0  0  0  0  0
  160.9020  204.7230  147.5820 C   0  0  0  0  0  3  0  0  0  0  0  0
  161.8490  206.8720  148.1620 C   0  0  0  0  0  0  0  0  0  0  0  0
  162.0440  207.1510  146.8070 C   0  0  0  0  0  3  0  0  0  0  0  0
  161.3610  206.1360  152.3690 C   0  0  0  0  0  3  0  0  0  0  0  0
  160.7250  203.7730  151.8990 C   0  0  2  0  0  3  0  0  0  0  0  0
  162.2570  209.9990  150.8770 C   0  0  0  0  0  2  0  0  0  0  0  0
  161.3790  209.4490  151.9750 C   0  0  1  0  0  3  0  0  0  0  0  0
  162.5510  208.6280  151.4600 C   0  0  1  0  0  3  0  0  0  0  0  0
  161.7470  210.1620  153.2700 C   0  0  0  0  0  2  0  0  0  0  0  0
  158.5950  211.3810  155.2410 C   0  0  0  0  0  0  0  0  0  0  0  0
  159.8890  212.6150  152.1140 C   0  0  0  0  0  1  0  0  0  0  0  0
  158.6050  212.3960  156.0230 N   0  0  0  0  0  2  0  0  0  0  0  0
  159.9010  210.1890  155.3420 S   0  0  0  0  0  0  0  0  0  0  0  0
  159.5180  211.3380  152.8410 C   0  0  1  0  0  3  0  0  0  0  0  0
  160.6040  210.9840  153.8660 C   0  0  2  0  0  3  0  0  0  0  0  0
  157.8760  211.5280  153.6230 S   0  0  0  0  0  0  0  0  0  0  0  0
  161.9320  202.8430  151.9270 C   0  0  0  0  0  2  0  0  0  0  0  0
  161.5260  201.3950  151.6930 C   0  0  0  0  0  2  0  0  0  0  0  0
  161.3380  200.8970  149.1250 N   0  0  0  0  0  0  0  0  0  0  0  0
  161.4210  201.1170  150.2580 C   0  0  0  0  0  0  0  0  0  0  0  0
  1 12  1  0  0  0  0
  2  3  1  0  0  0  0
  2 11  1  0  0  0  0
  3 16  1  0  0  0  0
  4  2  1  0  0  0  0
  5  1  2  0  0  0  0
  5 14  1  0  0  0  0
  6  3  2  0  0  0  0
  7 11  2  0  0  0  0
  8  1  1  0  0  0  0
 10  7  1  0  0  0  0
 11 15  1  0  0  0  0
 12  4  2  0  0  0  0
 13  4  1  0  0  0  0
 13 10  1  0  0  0  0
 14 13  2  0  0  0  0
 15  9  2  0  0  0  0
 16 28  1  6  0  0  0
 16  9  1  0  0  0  0
 17 19  1  0  0  0  0
 17 18  1  0  0  0  0
 18 20  1  1  0  0  0
 19  7  1  6  0  0  0
 19 18  1  0  0  0  0
 21 24  1  0  0  0  0
 21 23  2  0  0  0  0
 25 22  1  1  0  0  0
 25 27  1  0  0  0  0
 25 26  1  0  0  0  0
 26 20  1  6  0  0  0
 26 24  1  0  0  0  0
 27 21  1  0  0  0  0
 29 28  1  0  0  0  0
 30 31  3  0  0  0  0
 31 29  1  0  0  0  0
M  END
>  <MODEL>
7

>  <REMARK>
 VINA RESULT:      -5.7      2.057      4.318
  Name = 
  6 active torsions:
  status: ('A' for Active; 'I' for Inactive)
    1  A    between atoms: C_3  and  C_9
    2  A    between atoms: C_3  and  C_22
    3  A    between atoms: C_15  and  C_23
    4  A    between atoms: C_18  and  C_26
    5  A    between atoms: C_26  and  C_31
    6  A    between atoms: C_30  and  C_31
                            x       y       z     vdW  Elec       q    Type
                         _______ _______ _______ _____ _____    ______ ____

>  <TORSDO>
F 6

$$$$
=
 OpenBabel11052422243D

 31 35  0  0  1  0  0  0  0  0999 V2000
  160.6430  202.5460  151.0920 C   0  0  0  0  0  0  0  0  0  0  0  0
  161.7910  205.6250  149.2430 N   0  0  0  0  0  0  0  0  0  0  0  0
  161.8790  205.2270  147.8580 C   0  0  0  0  0  0  0  0  0  0  0  0
  161.4050  204.7150  150.2980 C   0  0  0  0  0  0  0  0  0  0  0  0
  160.6390  203.0230  152.4050 C   0  0  0  0  0  3  0  0  0  0  0  0
  161.9950  204.0140  147.5340 O   0  0  0  0  0  0  0  0  0  0  0  0
  162.1140  207.4040  150.8660 C   0  0  0  0  0  0  0  0  0  0  0  0
  160.2790  201.2660  150.8350 F   0  0  0  0  0  0  0  0  0  0  0  0
  162.4080  207.5690  147.2130 C   0  0  0  0  0  3  0  0  0  0  0  0
  161.7420  206.5100  151.8820 O   0  0  0  0  0  0  0  0  0  0  0  0
  162.1210  206.9950  149.5780 C   0  0  0  0  0  0  0  0  0  0  0  0
  161.0200  203.3890  150.0430 C   0  0  0  0  0  3  0  0  0  0  0  0
  161.3870  205.1870  151.6190 C   0  0  0  0  0  0  0  0  0  0  0  0
  161.0110  204.3440  152.6680 C   0  0  0  0  0  3  0  0  0  0  0  0
  162.5150  207.9160  148.4960 C   0  0  0  0  0  3  0  0  0  0  0  0
  161.8140  206.2600  146.7720 C   0  0  2  0  0  3  0  0  0  0  0  0
  161.6770  209.7880  150.3980 C   0  0  0  0  0  2  0  0  0  0  0  0
  161.2440  209.5340  151.8210 C   0  0  1  0  0  3  0  0  0  0  0  0
  162.4610  208.8160  151.2600 C   0  0  1  0  0  3  0  0  0  0  0  0
  161.6640  210.7350  152.6600 C   0  0  0  0  0  2  0  0  0  0  0  0
  160.8270  210.2270  156.4480 C   0  0  0  0  0  0  0  0  0  0  0  0
  158.5520  210.8040  153.7160 C   0  0  0  0  0  1  0  0  0  0  0  0
  160.6200  211.1970  157.2580 N   0  0  0  0  0  2  0  0  0  0  0  0
  162.2110  210.2900  155.3440 S   0  0  0  0  0  0  0  0  0  0  0  0
  159.7310  209.9510  154.1380 C   0  0  1  0  0  3  0  0  0  0  0  0
  161.0270  210.7680  154.0500 C   0  0  2  0  0  3  0  0  0  0  0  0
  159.4470  209.2970  155.8220 S   0  0  0  0  0  0  0  0  0  0  0  0
  160.3610  206.4570  146.3520 C   0  0  0  0  0  2  0  0  0  0  0  0
  159.9760  205.5150  145.2200 C   0  0  0  0  0  2  0  0  0  0  0  0
  161.7320  205.6500  143.2760 N   0  0  0  0  0  0  0  0  0  0  0  0
  160.9570  205.5910  144.1340 C   0  0  0  0  0  0  0  0  0  0  0  0
  1  5  1  0  0  0  0
  2 11  1  0  0  0  0
  2  4  1  0  0  0  0
  3  2  1  0  0  0  0
  4 13  2  0  0  0  0
  5 14  2  0  0  0  0
  6  3  2  0  0  0  0
  7 10  1  0  0  0  0
  8  1  1  0  0  0  0
  9 15  2  0  0  0  0
 11  7  2  0  0  0  0
 12  4  1  0  0  0  0
 12  1  2  0  0  0  0
 13 10  1  0  0  0  0
 13 14  1  0  0  0  0
 15 11  1  0  0  0  0
 16 28  1  1  0  0  0
 16  9  1  0  0  0  0
 16  3  1  0  0  0  0
 17 19  1  0  0  0  0
 17 18  1  0  0  0  0
 18 20  1  1  0  0  0
 19  7  1  6  0  0  0
 19 18  1  0  0  0  0
 21 23  2  0  0  0  0
 24 21  1  0  0  0  0
 25 22  1  1  0  0  0
 25 27  1  0  0  0  0
 26 20  1  6  0  0  0
 26 25  1  0  0  0  0
 26 24  1  0  0  0  0
 27 21  1  0  0  0  0
 29 28  1  0  0  0  0
 30 31  3  0  0  0  0
 31 29  1  0  0  0  0
M  END
>  <MODEL>
8

>  <REMARK>
 VINA RESULT:      -5.7      1.583      2.003
  Name = 
  6 active torsions:
  status: ('A' for Active; 'I' for Inactive)
    1  A    between atoms: C_3  and  C_9
    2  A    between atoms: C_3  and  C_22
    3  A    between atoms: C_15  and  C_23
    4  A    between atoms: C_18  and  C_26
    5  A    between atoms: C_26  and  C_31
    6  A    between atoms: C_30  and  C_31
                            x       y       z     vdW  Elec       q    Type
                         _______ _______ _______ _____ _____    ______ ____

>  <TORSDO>
F 6

$$$$
=
 OpenBabel11052422243D

 31 35  0  0  1  0  0  0  0  0999 V2000
  159.3770  212.9480  153.6510 C   0  0  0  0  0  0  0  0  0  0  0  0
  160.9700  210.6030  151.1640 N   0  0  0  0  0  0  0  0  0  0  0  0
  160.9390  211.3070  149.9040 C   0  0  0  0  0  0  0  0  0  0  0  0
  160.4250  211.1550  152.3850 C   0  0  0  0  0  0  0  0  0  0  0  0
  159.4140  212.1610  154.8040 C   0  0  0  0  0  3  0  0  0  0  0  0
  160.1260  212.2490  149.7020 O   0  0  0  0  0  0  0  0  0  0  0  0
  161.5640  208.5560  152.3300 C   0  0  0  0  0  0  0  0  0  0  0  0
  158.8510  214.1960  153.6990 F   0  0  0  0  0  0  0  0  0  0  0  0
  162.2370  209.4710  148.8430 C   0  0  0  0  0  3  0  0  0  0  0  0
  161.0270  209.1010  153.5070 O   0  0  0  0  0  0  0  0  0  0  0  0
  161.5630  209.2820  151.1900 C   0  0  0  0  0  0  0  0  0  0  0  0
  159.8830  212.4490  152.4470 C   0  0  0  0  0  3  0  0  0  0  0  0
  160.4680  210.3780  153.5520 C   0  0  0  0  0  0  0  0  0  0  0  0
  159.9600  210.8750  154.7540 C   0  0  0  0  0  3  0  0  0  0  0  0
  162.1160  208.7260  149.9410 C   0  0  0  0  0  3  0  0  0  0  0  0
  161.8980  210.9360  148.8110 C   0  0  2  0  0  3  0  0  0  0  0  0
  161.4730  206.3840  153.4990 C   0  0  0  0  0  2  0  0  0  0  0  0
  161.1180  206.1210  152.0550 C   0  0  1  0  0  3  0  0  0  0  0  0
  162.1590  207.1740  152.3990 C   0  0  1  0  0  3  0  0  0  0  0  0
  161.7860  204.8160  151.6390 C   0  0  0  0  0  2  0  0  0  0  0  0
  160.4080  202.0850  149.1990 C   0  0  0  0  0  0  0  0  0  0  0  0
  160.6350  205.6420  148.6720 C   0  0  0  0  0  1  0  0  0  0  0  0
  159.1620  201.8150  149.0800 N   0  0  0  0  0  2  0  0  0  0  0  0
  161.1140  202.2530  150.8150 S   0  0  0  0  0  0  0  0  0  0  0  0
  161.4370  204.4420  149.1350 C   0  0  1  0  0  3  0  0  0  0  0  0
  161.0210  204.0500  150.5590 C   0  0  2  0  0  3  0  0  0  0  0  0
  161.2170  203.0620  147.9540 S   0  0  0  0  0  0  0  0  0  0  0  0
  163.1650  211.7730  148.9490 C   0  0  0  0  0  2  0  0  0  0  0  0
  163.4840  212.5180  147.6600 C   0  0  0  0  0  2  0  0  0  0  0  0
  161.4860  214.0770  146.9840 N   0  0  0  0  0  0  0  0  0  0  0  0
  162.3670  213.3890  147.2830 C   0  0  0  0  0  0  0  0  0  0  0  0
  1  8  1  0  0  0  0
  1  5  1  0  0  0  0
  2 11  1  0  0  0  0
  2  4  1  0  0  0  0
  3  2  1  0  0  0  0
  4 12  1  0  0  0  0
  4 13  2  0  0  0  0
  6  3  2  0  0  0  0
  7 10  1  0  0  0  0
  9 15  2  0  0  0  0
 10 13  1  0  0  0  0
 11  7  2  0  0  0  0
 12  1  2  0  0  0  0
 13 14  1  0  0  0  0
 14  5  2  0  0  0  0
 15 11  1  0  0  0  0
 16  9  1  0  0  0  0
 16 28  1  1  0  0  0
 16  3  1  0  0  0  0
 18 20  1  6  0  0  0
 18 19  1  0  0  0  0
 18 17  1  0  0  0  0
 19  7  1  1  0  0  0
 19 17  1  0  0  0  0
 21 24  1  0  0  0  0
 23 21  2  0  0  0  0
 25 22  1  6  0  0  0
 25 26  1  0  0  0  0
 26 24  1  0  0  0  0
 26 20  1  1  0  0  0
 27 25  1  0  0  0  0
 27 21  1  0  0  0  0
 29 28  1  0  0  0  0
 30 31  3  0  0  0  0
 31 29  1  0  0  0  0
M  END
>  <MODEL>
9

>  <REMARK>
 VINA RESULT:      -5.7      4.850      8.095
  Name = 
  6 active torsions:
  status: ('A' for Active; 'I' for Inactive)
    1  A    between atoms: C_3  and  C_9
    2  A    between atoms: C_3  and  C_22
    3  A    between atoms: C_15  and  C_23
    4  A    between atoms: C_18  and  C_26
    5  A    between atoms: C_26  and  C_31
    6  A    between atoms: C_30  and  C_31
                            x       y       z     vdW  Elec       q    Type
                         _______ _______ _______ _____ _____    ______ ____

>  <TORSDO>
F 6

$$$$
