=
 OpenBabel11062408083D

 34 38  0  0  1  0  0  0  0  0999 V2000
  160.9110  201.4880  149.1250 C   0  0  0  0  0  0  0  0  0  0  0  0
  161.2900  202.4700  146.9270 C   0  0  0  0  0  0  0  0  0  0  0  0
  160.5130  203.9800  148.7620 C   0  0  1  0  0  3  0  0  0  0  0  0
  161.0850  206.4060  148.5900 N   0  0  0  0  0  0  0  0  0  0  0  0
  161.5480  200.0850  147.2500 C   0  0  0  0  0  3  0  0  0  0  0  0
  161.5930  201.2070  146.4140 C   0  0  0  0  0  3  0  0  0  0  0  0
  161.4170  204.8950  146.6390 C   0  0  0  0  0  3  0  0  0  0  0  0
  160.9150  202.6080  148.2760 C   0  0  0  0  0  0  0  0  0  0  0  0
  162.6540  207.4290  147.1780 O   0  0  0  0  0  0  0  0  0  0  0  0
  161.2130  200.2260  148.6020 C   0  0  0  0  0  3  0  0  0  0  0  0
  160.2970  204.1040  150.2840 C   0  0  2  0  0  3  0  0  0  0  0  0
  160.5450  201.6280  150.5720 C   0  0  0  0  0  2  0  0  0  0  0  0
  161.3960  203.6760  146.0790 C   0  0  0  0  0  3  0  0  0  0  0  0
  160.2120  206.5960  149.7530 C   0  0  0  0  0  2  0  0  0  0  0  0
  160.4720  205.5340  150.8320 C   0  0  2  0  0  3  0  0  0  0  0  0
  161.7550  207.5620  148.0540 C   0  0  0  0  0  0  0  0  0  0  0  0
  161.4330  205.0440  148.1450 C   0  0  2  0  0  3  0  0  0  0  0  0
  160.9640  202.9960  151.1050 C   0  0  0  0  0  2  0  0  0  0  0  0
  162.2030  209.8870  148.4010 C   0  0  0  0  0  3  0  0  0  0  0  0
  161.4170  208.8680  148.5400 N   0  0  0  0  0  0  0  0  0  0  0  0
  163.2930  212.5190  147.5560 F   0  0  0  0  0  0  0  0  0  0  0  0
  161.8370  211.2100  148.9190 C   0  0  0  0  0  0  0  0  0  0  0  0
  162.0070  212.4500  148.0590 C   0  0  1  0  0  3  0  0  0  0  0  0
  160.4600  213.5930  149.6720 C   0  0  0  0  0  2  0  0  0  0  0  0
  160.7670  212.5460  150.7320 C   0  0  0  0  0  2  0  0  0  0  0  0
  161.2130  211.2580  150.1010 C   0  0  0  0  0  3  0  0  0  0  0  0
  161.6890  213.7590  148.7900 C   0  0  0  0  0  2  0  0  0  0  0  0
  161.7490  205.7690  151.6630 C   0  0  1  0  0  3  0  0  0  0  0  0
  162.7910  206.7280  151.0580 C   0  0  1  0  0  3  0  0  0  0  0  0
  162.6530  208.1670  151.5240 C   0  0  0  0  0  1  0  0  0  0  0  0
  164.0780  206.2690  151.3360 O   0  0  0  0  0  1  0  0  0  0  0  0
  160.8070  204.5340  153.6960 C   0  0  0  0  0  1  0  0  0  0  0  0
  160.7850  207.0280  153.6390 C   0  0  0  0  0  1  0  0  0  0  0  0
  161.5160  205.7780  153.1850 C   0  0  0  0  0  3  0  0  0  0  0  0
  1 12  1  0  0  0  0
  2  8  1  0  0  0  0
  3  8  1  1  0  0  0
  3 11  1  0  0  0  0
  4 14  1  0  0  0  0
  5 10  2  0  0  0  0
  6  2  2  0  0  0  0
  6  5  1  0  0  0  0
  8  1  2  0  0  0  0
  9 16  2  0  0  0  0
 10  1  1  0  0  0  0
 11 15  1  0  0  0  0
 11 18  1  1  0  0  0
 12 18  1  0  0  0  0
 13  7  2  0  0  0  0
 13  2  1  0  0  0  0
 14 15  1  0  0  0  0
 15 28  1  6  0  0  0
 16 20  1  0  0  0  0
 16  4  1  0  0  0  0
 17  7  1  6  0  0  0
 17  4  1  0  0  0  0
 17  3  1  0  0  0  0
 19 20  2  0  0  0  0
 19 22  1  0  0  0  0
 22 26  2  0  0  0  0
 23 21  1  1  0  0  0
 23 27  1  0  0  0  0
 23 22  1  0  0  0  0
 24 25  1  0  0  0  0
 26 25  1  0  0  0  0
 27 24  1  0  0  0  0
 28 34  1  1  0  0  0
 29 31  1  0  0  0  0
 29 30  1  1  0  0  0
 29 28  1  0  0  0  0
 34 33  1  0  0  0  0
 34 32  1  0  0  0  0
M  END
>  <MODEL>
1

>  <REMARK>
 VINA RESULT:      -5.1      0.000      0.000
  Name = 
  5 active torsions:
  status: ('A' for Active; 'I' for Inactive)
    1  A    between atoms: C_3  and  C_13
    2  A    between atoms: C_7  and  C_23
    3  A    between atoms: N_17  and  C_29
    4  A    between atoms: C_23  and  C_27
    5  A    between atoms: C_23  and  C_28
                            x       y       z     vdW  Elec       q    Type
                         _______ _______ _______ _____ _____    ______ ____

>  <TORSDO>
F 5

$$$$
=
 OpenBabel11062408083D

 34 38  0  0  1  0  0  0  0  0999 V2000
  160.7660  202.3160  150.0940 C   0  0  0  0  0  0  0  0  0  0  0  0
  161.4220  202.8940  147.8190 C   0  0  0  0  0  0  0  0  0  0  0  0
  160.5290  204.7190  149.2770 C   0  0  1  0  0  3  0  0  0  0  0  0
  161.2330  207.0620  148.7650 N   0  0  0  0  0  0  0  0  0  0  0  0
  161.5280  200.5940  148.5650 C   0  0  0  0  0  3  0  0  0  0  0  0
  161.7150  201.5530  147.5620 C   0  0  0  0  0  3  0  0  0  0  0  0
  161.6950  205.2280  147.1440 C   0  0  0  0  0  3  0  0  0  0  0  0
  160.9140  203.2730  149.0750 C   0  0  0  0  0  0  0  0  0  0  0  0
  162.9900  207.7790  147.3860 O   0  0  0  0  0  0  0  0  0  0  0  0
  161.0600  200.9750  149.8280 C   0  0  0  0  0  3  0  0  0  0  0  0
  160.1610  205.1100  150.7210 C   0  0  2  0  0  3  0  0  0  0  0  0
  160.2570  202.7150  151.4470 C   0  0  0  0  0  2  0  0  0  0  0  0
  161.6740  203.9330  146.7980 C   0  0  0  0  0  3  0  0  0  0  0  0
  160.2530  207.4750  149.7750 C   0  0  0  0  0  2  0  0  0  0  0  0
  160.3470  206.6070  151.0380 C   0  0  2  0  0  3  0  0  0  0  0  0
  162.0110  208.0880  148.1210 C   0  0  0  0  0  0  0  0  0  0  0  0
  161.5600  205.6340  148.5960 C   0  0  2  0  0  3  0  0  0  0  0  0
  160.6840  204.1410  151.7870 C   0  0  0  0  0  2  0  0  0  0  0  0
  162.5790  210.4050  148.3060 C   0  0  0  0  0  3  0  0  0  0  0  0
  161.6870  209.4670  148.3400 N   0  0  0  0  0  0  0  0  0  0  0  0
  164.3350  212.7860  148.0280 F   0  0  0  0  0  0  0  0  0  0  0  0
  162.2220  211.8080  148.5450 C   0  0  0  0  0  0  0  0  0  0  0  0
  162.9720  212.9270  147.8440 C   0  0  1  0  0  3  0  0  0  0  0  0
  161.0430  214.4050  148.4720 C   0  0  0  0  0  2  0  0  0  0  0  0
  160.6400  213.4370  149.5750 C   0  0  0  0  0  2  0  0  0  0  0  0
  161.1260  212.0490  149.2750 C   0  0  0  0  0  3  0  0  0  0  0  0
  162.5520  214.3300  148.2940 C   0  0  0  0  0  2  0  0  0  0  0  0
  161.5380  206.9430  151.9560 C   0  0  1  0  0  3  0  0  0  0  0  0
  161.6290  208.3990  152.4520 C   0  0  1  0  0  3  0  0  0  0  0  0
  162.4610  209.3060  151.5630 C   0  0  0  0  0  1  0  0  0  0  0  0
  160.3490  208.9330  152.5950 O   0  0  0  0  0  1  0  0  0  0  0  0
  161.6340  206.0920  154.3660 C   0  0  0  0  0  1  0  0  0  0  0  0
  163.3990  205.4140  152.7400 C   0  0  0  0  0  1  0  0  0  0  0  0
  161.9420  205.8020  152.9060 C   0  0  0  0  0  3  0  0  0  0  0  0
  1 12  1  0  0  0  0
  2  8  1  0  0  0  0
  3  8  1  1  0  0  0
  3 11  1  0  0  0  0
  4 14  1  0  0  0  0
  5 10  2  0  0  0  0
  6  2  2  0  0  0  0
  6  5  1  0  0  0  0
  8  1  2  0  0  0  0
  9 16  2  0  0  0  0
 10  1  1  0  0  0  0
 11 15  1  0  0  0  0
 11 18  1  1  0  0  0
 12 18  1  0  0  0  0
 13  7  2  0  0  0  0
 13  2  1  0  0  0  0
 14 15  1  0  0  0  0
 15 28  1  6  0  0  0
 16 20  1  0  0  0  0
 16  4  1  0  0  0  0
 17  7  1  6  0  0  0
 17  4  1  0  0  0  0
 17  3  1  0  0  0  0
 19 20  2  0  0  0  0
 19 22  1  0  0  0  0
 22 26  2  0  0  0  0
 23 21  1  1  0  0  0
 23 27  1  0  0  0  0
 23 22  1  0  0  0  0
 24 25  1  0  0  0  0
 26 25  1  0  0  0  0
 27 24  1  0  0  0  0
 28 29  1  0  0  0  0
 28 34  1  1  0  0  0
 29 30  1  6  0  0  0
 29 31  1  0  0  0  0
 33 34  1  0  0  0  0
 34 32  1  0  0  0  0
M  END
>  <MODEL>
2

>  <REMARK>
 VINA RESULT:      -4.7      1.257      1.504
  Name = 
  5 active torsions:
  status: ('A' for Active; 'I' for Inactive)
    1  A    between atoms: C_3  and  C_13
    2  A    between atoms: C_7  and  C_23
    3  A    between atoms: N_17  and  C_29
    4  A    between atoms: C_23  and  C_27
    5  A    between atoms: C_23  and  C_28
                            x       y       z     vdW  Elec       q    Type
                         _______ _______ _______ _____ _____    ______ ____

>  <TORSDO>
F 5

$$$$
=
 OpenBabel11062408083D

 34 38  0  0  1  0  0  0  0  0999 V2000
  161.4260  203.6220  146.8570 C   0  0  0  0  0  0  0  0  0  0  0  0
  161.8040  205.9260  146.1550 C   0  0  0  0  0  0  0  0  0  0  0  0
  160.7440  205.5430  148.3880 C   0  0  1  0  0  3  0  0  0  0  0  0
  161.0210  207.3200  150.1230 N   0  0  0  0  0  0  0  0  0  0  0  0
  162.3350  204.0990  144.6580 C   0  0  0  0  0  3  0  0  0  0  0  0
  162.2880  205.4720  144.9260 C   0  0  0  0  0  3  0  0  0  0  0  0
  161.6450  207.7680  147.7540 C   0  0  0  0  0  3  0  0  0  0  0  0
  161.3390  205.0020  147.1100 C   0  0  0  0  0  0  0  0  0  0  0  0
  162.5280  209.1170  150.1300 O   0  0  0  0  0  0  0  0  0  0  0  0
  161.9100  203.1770  145.6230 C   0  0  0  0  0  3  0  0  0  0  0  0
  160.4290  204.4900  149.4680 C   0  0  2  0  0  3  0  0  0  0  0  0
  160.9650  202.6280  147.8800 C   0  0  0  0  0  2  0  0  0  0  0  0
  161.8070  207.3660  146.4850 C   0  0  0  0  0  3  0  0  0  0  0  0
  160.0670  206.5480  150.9270 C   0  0  0  0  0  2  0  0  0  0  0  0
  160.3960  205.0480  150.9050 C   0  0  2  0  0  3  0  0  0  0  0  0
  161.5720  208.5190  150.6980 C   0  0  0  0  0  0  0  0  0  0  0  0
  161.5590  206.7520  148.8730 C   0  0  2  0  0  3  0  0  0  0  0  0
  161.1820  203.1660  149.2920 C   0  0  0  0  0  2  0  0  0  0  0  0
  161.6740  209.8980  152.6500 C   0  0  0  0  0  3  0  0  0  0  0  0
  161.0490  209.0190  151.9350 N   0  0  0  0  0  0  0  0  0  0  0  0
  159.0340  211.1890  153.0900 F   0  0  0  0  0  0  0  0  0  0  0  0
  161.1210  210.3840  153.9200 C   0  0  0  0  0  0  0  0  0  0  0  0
  159.6180  210.4780  154.1220 C   0  0  1  0  0  3  0  0  0  0  0  0
  160.1130  210.6210  156.5790 C   0  0  0  0  0  2  0  0  0  0  0  0
  161.5380  211.0660  156.2820 C   0  0  0  0  0  2  0  0  0  0  0  0
  161.9770  210.5900  154.9270 C   0  0  0  0  0  3  0  0  0  0  0  0
  159.2130  211.1130  155.4560 C   0  0  0  0  0  2  0  0  0  0  0  0
  161.5850  204.6420  151.7970 C   0  0  1  0  0  3  0  0  0  0  0  0
  162.2920  205.7830  152.5540 C   0  0  1  0  0  3  0  0  0  0  0  0
  161.6800  206.1020  153.9070 C   0  0  0  0  0  1  0  0  0  0  0  0
  163.6440  205.4810  152.7130 O   0  0  0  0  0  1  0  0  0  0  0  0
  162.2430  202.1710  151.8520 C   0  0  0  0  0  1  0  0  0  0  0  0
  159.9590  202.8630  152.5780 C   0  0  0  0  0  1  0  0  0  0  0  0
  161.4160  203.2770  152.4870 C   0  0  0  0  0  3  0  0  0  0  0  0
  1  8  1  0  0  0  0
  1 12  1  0  0  0  0
  2 13  1  0  0  0  0
  2  8  2  0  0  0  0
  3  8  1  6  0  0  0
  3 17  1  0  0  0  0
  3 11  1  0  0  0  0
  4 16  1  0  0  0  0
  4 14  1  0  0  0  0
  5  6  2  0  0  0  0
  5 10  1  0  0  0  0
  6  2  1  0  0  0  0
  9 16  2  0  0  0  0
 10  1  2  0  0  0  0
 11 18  1  1  0  0  0
 11 15  1  0  0  0  0
 12 18  1  0  0  0  0
 13  7  2  0  0  0  0
 15 14  1  0  0  0  0
 15 28  1  6  0  0  0
 16 20  1  0  0  0  0
 17  7  1  6  0  0  0
 17  4  1  0  0  0  0
 19 22  1  0  0  0  0
 20 19  2  0  0  0  0
 22 23  1  0  0  0  0
 22 26  2  0  0  0  0
 23 21  1  6  0  0  0
 23 27  1  0  0  0  0
 25 24  1  0  0  0  0
 26 25  1  0  0  0  0
 27 24  1  0  0  0  0
 28 34  1  1  0  0  0
 28 29  1  0  0  0  0
 29 31  1  0  0  0  0
 29 30  1  1  0  0  0
 32 34  1  0  0  0  0
 34 33  1  0  0  0  0
M  END
>  <MODEL>
3

>  <REMARK>
 VINA RESULT:      -4.4      2.601      3.983
  Name = 
  5 active torsions:
  status: ('A' for Active; 'I' for Inactive)
    1  A    between atoms: C_3  and  C_13
    2  A    between atoms: C_7  and  C_23
    3  A    between atoms: N_17  and  C_29
    4  A    between atoms: C_23  and  C_27
    5  A    between atoms: C_23  and  C_28
                            x       y       z     vdW  Elec       q    Type
                         _______ _______ _______ _____ _____    ______ ____

>  <TORSDO>
F 5

$$$$
=
 OpenBabel11062408083D

 34 38  0  0  1  0  0  0  0  0999 V2000
  160.2480  209.9920  154.8890 C   0  0  0  0  0  0  0  0  0  0  0  0
  159.1900  212.0820  154.2170 C   0  0  0  0  0  0  0  0  0  0  0  0
  160.9610  211.1360  152.7260 C   0  0  1  0  0  3  0  0  0  0  0  0
  160.8830  211.7430  150.3030 N   0  0  0  0  0  0  0  0  0  0  0  0
  158.6070  211.0520  156.3280 C   0  0  0  0  0  3  0  0  0  0  0  0
  158.4470  212.0870  155.3990 C   0  0  0  0  0  3  0  0  0  0  0  0
  159.4570  212.9520  151.9470 C   0  0  0  0  0  3  0  0  0  0  0  0
  160.1180  211.0520  153.9750 C   0  0  0  0  0  0  0  0  0  0  0  0
  159.1140  212.7130  149.1070 O   0  0  0  0  0  0  0  0  0  0  0  0
  159.5010  210.0060  156.0710 C   0  0  0  0  0  3  0  0  0  0  0  0
  161.8180  209.8920  152.4210 C   0  0  2  0  0  3  0  0  0  0  0  0
  161.2100  208.8720  154.6270 C   0  0  0  0  0  2  0  0  0  0  0  0
  158.9880  213.1280  153.1910 C   0  0  0  0  0  3  0  0  0  0  0  0
  162.1830  211.0730  150.1920 C   0  0  0  0  0  2  0  0  0  0  0  0
  162.1880  209.7280  150.9340 C   0  0  2  0  0  3  0  0  0  0  0  0
  160.3040  212.2930  149.1050 C   0  0  0  0  0  0  0  0  0  0  0  0
  160.1070  211.6440  151.5530 C   0  0  2  0  0  3  0  0  0  0  0  0
  161.3460  208.6160  153.1280 C   0  0  0  0  0  2  0  0  0  0  0  0
  160.6360  212.8800  146.8090 C   0  0  0  0  0  3  0  0  0  0  0  0
  161.0770  212.3360  147.8980 N   0  0  0  0  0  0  0  0  0  0  0  0
  160.0820  211.4580  144.2590 F   0  0  0  0  0  0  0  0  0  0  0  0
  161.4440  212.9010  145.5840 C   0  0  0  0  0  0  0  0  0  0  0  0
  160.8040  212.6360  144.2320 C   0  0  1  0  0  3  0  0  0  0  0  0
  162.8640  213.6600  143.2290 C   0  0  0  0  0  2  0  0  0  0  0  0
  163.6400  213.3940  144.5110 C   0  0  0  0  0  2  0  0  0  0  0  0
  162.7140  213.3070  145.6900 C   0  0  0  0  0  3  0  0  0  0  0  0
  161.8060  212.5790  143.0750 C   0  0  0  0  0  2  0  0  0  0  0  0
  161.4600  208.5890  150.1950 C   0  0  1  0  0  3  0  0  0  0  0  0
  161.6730  208.5170  148.6710 C   0  0  1  0  0  3  0  0  0  0  0  0
  163.0750  208.0980  148.2610 C   0  0  0  0  0  1  0  0  0  0  0  0
  160.7420  207.6500  148.1000 O   0  0  0  0  0  1  0  0  0  0  0  0
  162.7070  206.6550  151.3100 C   0  0  0  0  0  1  0  0  0  0  0  0
  160.4470  206.2710  150.3290 C   0  0  0  0  0  1  0  0  0  0  0  0
  161.3570  207.2810  151.0000 C   0  0  0  0  0  3  0  0  0  0  0  0
  1 10  1  0  0  0  0
  2  6  2  0  0  0  0
  3  8  1  1  0  0  0
  4 17  1  0  0  0  0
  6  5  1  0  0  0  0
  7 13  2  0  0  0  0
  8  2  1  0  0  0  0
  8  1  2  0  0  0  0
 10  5  2  0  0  0  0
 11  3  1  0  0  0  0
 11 18  1  6  0  0  0
 12  1  1  0  0  0  0
 13  2  1  0  0  0  0
 14  4  1  0  0  0  0
 14 15  1  0  0  0  0
 15 28  1  6  0  0  0
 15 11  1  0  0  0  0
 16  9  2  0  0  0  0
 16  4  1  0  0  0  0
 17  7  1  1  0  0  0
 17  3  1  0  0  0  0
 18 12  1  0  0  0  0
 19 20  2  0  0  0  0
 20 16  1  0  0  0  0
 22 26  2  0  0  0  0
 22 19  1  0  0  0  0
 23 21  1  1  0  0  0
 23 22  1  0  0  0  0
 24 25  1  0  0  0  0
 25 26  1  0  0  0  0
 27 24  1  0  0  0  0
 27 23  1  0  0  0  0
 28 34  1  1  0  0  0
 29 30  1  1  0  0  0
 29 28  1  0  0  0  0
 31 29  1  0  0  0  0
 33 34  1  0  0  0  0
 34 32  1  0  0  0  0
M  END
>  <MODEL>
4

>  <REMARK>
 VINA RESULT:      -3.9      3.574      7.504
  Name = 
  5 active torsions:
  status: ('A' for Active; 'I' for Inactive)
    1  A    between atoms: C_3  and  C_13
    2  A    between atoms: C_7  and  C_23
    3  A    between atoms: N_17  and  C_29
    4  A    between atoms: C_23  and  C_27
    5  A    between atoms: C_23  and  C_28
                            x       y       z     vdW  Elec       q    Type
                         _______ _______ _______ _____ _____    ______ ____

>  <TORSDO>
F 5

$$$$
=
 OpenBabel11062408083D

 34 38  0  0  1  0  0  0  0  0999 V2000
  161.3280  209.8640  154.2420 C   0  0  0  0  0  0  0  0  0  0  0  0
  161.2410  207.6000  155.1400 C   0  0  0  0  0  0  0  0  0  0  0  0
  160.6420  207.9260  152.7350 C   0  0  1  0  0  3  0  0  0  0  0  0
  160.9470  205.9860  151.1900 N   0  0  0  0  0  0  0  0  0  0  0  0
  161.7720  209.4620  156.5930 C   0  0  0  0  0  3  0  0  0  0  0  0
  161.5710  208.0890  156.4060 C   0  0  0  0  0  3  0  0  0  0  0  0
  161.0890  205.6640  153.6550 C   0  0  0  0  0  3  0  0  0  0  0  0
  161.0850  208.4910  154.0630 C   0  0  0  0  0  0  0  0  0  0  0  0
  162.1550  204.0100  151.5640 O   0  0  0  0  0  0  0  0  0  0  0  0
  161.6560  210.3450  155.5140 C   0  0  0  0  0  3  0  0  0  0  0  0
  160.6720  208.9150  151.5530 C   0  0  2  0  0  3  0  0  0  0  0  0
  161.1970  210.8190  153.0930 C   0  0  0  0  0  2  0  0  0  0  0  0
  161.0900  206.1480  154.9050 C   0  0  0  0  0  3  0  0  0  0  0  0
  160.2660  206.8060  150.1810 C   0  0  0  0  0  2  0  0  0  0  0  0
  160.8020  208.2450  150.1700 C   0  0  2  0  0  3  0  0  0  0  0  0
  161.4060  204.6790  150.7980 C   0  0  0  0  0  0  0  0  0  0  0  0
  161.3430  206.5820  152.4790 C   0  0  2  0  0  3  0  0  0  0  0  0
  161.5690  210.1370  151.7790 C   0  0  0  0  0  2  0  0  0  0  0  0
  161.7150  203.2240  148.9240 C   0  0  0  0  0  3  0  0  0  0  0  0
  161.0330  204.1480  149.5200 N   0  0  0  0  0  0  0  0  0  0  0  0
  161.5710  200.3800  148.0720 F   0  0  0  0  0  0  0  0  0  0  0  0
  161.3160  202.7070  147.6100 C   0  0  0  0  0  0  0  0  0  0  0  0
  160.7400  201.3080  147.4720 C   0  0  1  0  0  3  0  0  0  0  0  0
  159.9080  202.0400  145.2190 C   0  0  0  0  0  2  0  0  0  0  0  0
  160.9330  203.1640  145.1890 C   0  0  0  0  0  2  0  0  0  0  0  0
  161.3370  203.5600  146.5800 C   0  0  0  0  0  3  0  0  0  0  0  0
  160.4870  200.8840  146.0220 C   0  0  0  0  0  2  0  0  0  0  0  0
  162.1710  208.4110  149.4830 C   0  0  1  0  0  3  0  0  0  0  0  0
  162.7830  207.1400  148.8630 C   0  0  1  0  0  3  0  0  0  0  0  0
  162.3010  206.8440  147.4530 C   0  0  0  0  0  1  0  0  0  0  0  0
  164.1740  207.2290  148.8720 O   0  0  0  0  0  1  0  0  0  0  0  0
  162.7050  210.9020  149.7000 C   0  0  0  0  0  1  0  0  0  0  0  0
  161.1460  210.1190  147.9170 C   0  0  0  0  0  1  0  0  0  0  0  0
  162.3540  209.7590  148.7620 C   0  0  0  0  0  3  0  0  0  0  0  0
  1 10  1  0  0  0  0
  2  6  2  0  0  0  0
  3  8  1  1  0  0  0
  4 17  1  0  0  0  0
  6  5  1  0  0  0  0
  7 13  2  0  0  0  0
  8  1  2  0  0  0  0
  8  2  1  0  0  0  0
 10  5  2  0  0  0  0
 11 18  1  1  0  0  0
 11  3  1  0  0  0  0
 12  1  1  0  0  0  0
 13  2  1  0  0  0  0
 14  4  1  0  0  0  0
 15 28  1  1  0  0  0
 15 14  1  0  0  0  0
 15 11  1  0  0  0  0
 16  4  1  0  0  0  0
 16  9  2  0  0  0  0
 17  3  1  0  0  0  0
 17  7  1  1  0  0  0
 18 12  1  0  0  0  0
 19 20  2  0  0  0  0
 20 16  1  0  0  0  0
 22 19  1  0  0  0  0
 23 22  1  0  0  0  0
 23 21  1  6  0  0  0
 24 27  1  0  0  0  0
 25 24  1  0  0  0  0
 25 26  1  0  0  0  0
 26 22  2  0  0  0  0
 27 23  1  0  0  0  0
 28 34  1  6  0  0  0
 29 30  1  6  0  0  0
 29 31  1  0  0  0  0
 29 28  1  0  0  0  0
 33 34  1  0  0  0  0
 34 32  1  0  0  0  0
M  END
>  <MODEL>
5

>  <REMARK>
 VINA RESULT:      -3.9      2.874      8.166
  Name = 
  5 active torsions:
  status: ('A' for Active; 'I' for Inactive)
    1  A    between atoms: C_3  and  C_13
    2  A    between atoms: C_7  and  C_23
    3  A    between atoms: N_17  and  C_29
    4  A    between atoms: C_23  and  C_27
    5  A    between atoms: C_23  and  C_28
                            x       y       z     vdW  Elec       q    Type
                         _______ _______ _______ _____ _____    ______ ____

>  <TORSDO>
F 5

$$$$
=
 OpenBabel11062408083D

 34 38  0  0  1  0  0  0  0  0999 V2000
  160.6970  208.5340  155.3840 C   0  0  0  0  0  0  0  0  0  0  0  0
  159.9110  210.8340  155.2080 C   0  0  0  0  0  0  0  0  0  0  0  0
  161.3760  209.9580  153.3820 C   0  0  1  0  0  3  0  0  0  0  0  0
  161.1730  211.0120  151.1250 N   0  0  0  0  0  0  0  0  0  0  0  0
  159.3720  209.5140  157.1640 C   0  0  0  0  0  3  0  0  0  0  0  0
  159.2860  210.7160  156.4520 C   0  0  0  0  0  3  0  0  0  0  0  0
  160.1010  212.0700  153.1070 C   0  0  0  0  0  3  0  0  0  0  0  0
  160.6470  209.7540  154.6870 C   0  0  0  0  0  0  0  0  0  0  0  0
  159.4710  212.4140  150.3270 O   0  0  0  0  0  0  0  0  0  0  0  0
  160.0700  208.4250  156.6290 C   0  0  0  0  0  3  0  0  0  0  0  0
  162.0050  208.6900  152.7700 C   0  0  2  0  0  3  0  0  0  0  0  0
  161.4500  207.3650  154.8230 C   0  0  0  0  0  2  0  0  0  0  0  0
  159.7780  212.0710  154.4090 C   0  0  0  0  0  3  0  0  0  0  0  0
  162.3420  210.2080  150.7510 C   0  0  0  0  0  2  0  0  0  0  0  0
  162.2110  208.7590  151.2440 C   0  0  2  0  0  3  0  0  0  0  0  0
  160.5790  211.8480  150.1150 C   0  0  0  0  0  0  0  0  0  0  0  0
  160.5070  210.7840  152.4200 C   0  0  2  0  0  3  0  0  0  0  0  0
  161.4100  207.3790  153.2960 C   0  0  0  0  0  2  0  0  0  0  0  0
  160.6920  212.6410  147.8610 C   0  0  0  0  0  3  0  0  0  0  0  0
  161.2370  212.0130  148.8520 N   0  0  0  0  0  0  0  0  0  0  0  0
  159.7040  211.8260  145.1780 F   0  0  0  0  0  0  0  0  0  0  0  0
  161.3840  212.7860  146.5740 C   0  0  0  0  0  0  0  0  0  0  0  0
  160.5960  212.8770  145.2790 C   0  0  1  0  0  3  0  0  0  0  0  0
  162.6960  213.7830  144.2450 C   0  0  0  0  0  2  0  0  0  0  0  0
  163.5290  213.1710  145.3630 C   0  0  0  0  0  2  0  0  0  0  0  0
  162.7060  212.9870  146.6050 C   0  0  0  0  0  3  0  0  0  0  0  0
  161.4730  212.9070  144.0230 C   0  0  0  0  0  2  0  0  0  0  0  0
  161.2540  207.8850  150.4100 C   0  0  1  0  0  3  0  0  0  0  0  0
  161.2720  208.1150  148.8860 C   0  0  1  0  0  3  0  0  0  0  0  0
  162.6610  208.0850  148.2710 C   0  0  0  0  0  1  0  0  0  0  0  0
  160.4600  207.1750  148.2530 O   0  0  0  0  0  1  0  0  0  0  0  0
  162.3930  205.7410  151.2130 C   0  0  0  0  0  1  0  0  0  0  0  0
  160.1910  205.6140  150.0500 C   0  0  0  0  0  1  0  0  0  0  0  0
  161.0780  206.4550  150.9490 C   0  0  0  0  0  3  0  0  0  0  0  0
  1 10  1  0  0  0  0
  2  6  2  0  0  0  0
  3  8  1  1  0  0  0
  4 17  1  0  0  0  0
  6  5  1  0  0  0  0
  7 13  2  0  0  0  0
  8  2  1  0  0  0  0
  8  1  2  0  0  0  0
 10  5  2  0  0  0  0
 11 18  1  6  0  0  0
 11  3  1  0  0  0  0
 12  1  1  0  0  0  0
 13  2  1  0  0  0  0
 14  4  1  0  0  0  0
 14 15  1  0  0  0  0
 15 28  1  6  0  0  0
 15 11  1  0  0  0  0
 16  9  2  0  0  0  0
 16  4  1  0  0  0  0
 17  7  1  1  0  0  0
 17  3  1  0  0  0  0
 18 12  1  0  0  0  0
 19 20  2  0  0  0  0
 20 16  1  0  0  0  0
 22 26  2  0  0  0  0
 22 19  1  0  0  0  0
 23 21  1  6  0  0  0
 23 22  1  0  0  0  0
 24 25  1  0  0  0  0
 25 26  1  0  0  0  0
 27 24  1  0  0  0  0
 27 23  1  0  0  0  0
 28 34  1  6  0  0  0
 29 30  1  6  0  0  0
 29 28  1  0  0  0  0
 31 29  1  0  0  0  0
 33 34  1  0  0  0  0
 34 32  1  0  0  0  0
M  END
>  <MODEL>
6

>  <REMARK>
 VINA RESULT:      -3.5      3.212      7.019
  Name = 
  5 active torsions:
  status: ('A' for Active; 'I' for Inactive)
    1  A    between atoms: C_3  and  C_13
    2  A    between atoms: C_7  and  C_23
    3  A    between atoms: N_17  and  C_29
    4  A    between atoms: C_23  and  C_27
    5  A    between atoms: C_23  and  C_28
                            x       y       z     vdW  Elec       q    Type
                         _______ _______ _______ _____ _____    ______ ____

>  <TORSDO>
F 5

$$$$
=
 OpenBabel11062408083D

 34 38  0  0  1  0  0  0  0  0999 V2000
  160.3520  211.3080  154.7080 C   0  0  0  0  0  0  0  0  0  0  0  0
  160.9180  209.4130  156.1330 C   0  0  0  0  0  0  0  0  0  0  0  0
  160.3570  208.9500  153.7400 C   0  0  1  0  0  3  0  0  0  0  0  0
  161.3070  206.8840  152.7050 N   0  0  0  0  0  0  0  0  0  0  0  0
  160.7910  211.6410  157.0710 C   0  0  0  0  0  3  0  0  0  0  0  0
  161.0270  210.2700  157.2300 C   0  0  0  0  0  3  0  0  0  0  0  0
  161.4300  207.2250  155.1680 C   0  0  0  0  0  3  0  0  0  0  0  0
  160.5470  209.9260  154.8760 C   0  0  0  0  0  0  0  0  0  0  0  0
  163.0410  205.5250  153.5090 O   0  0  0  0  0  0  0  0  0  0  0  0
  160.4600  212.1590  155.8130 C   0  0  0  0  0  3  0  0  0  0  0  0
  160.1380  209.5850  152.3530 C   0  0  2  0  0  3  0  0  0  0  0  0
  159.9880  211.8710  153.3670 C   0  0  0  0  0  2  0  0  0  0  0  0
  161.2270  207.9730  156.2630 C   0  0  0  0  0  3  0  0  0  0  0  0
  160.4550  207.1870  151.5500 C   0  0  0  0  0  2  0  0  0  0  0  0
  160.5270  208.6740  151.1720 C   0  0  2  0  0  3  0  0  0  0  0  0
  162.1590  205.7260  152.6280 C   0  0  0  0  0  0  0  0  0  0  0  0
  161.4440  207.8650  153.7970 C   0  0  2  0  0  3  0  0  0  0  0  0
  160.6080  211.0400  152.2460 C   0  0  0  0  0  2  0  0  0  0  0  0
  160.9570  204.1060  151.3420 C   0  0  0  0  0  3  0  0  0  0  0  0
  162.0230  204.8150  151.5300 N   0  0  0  0  0  0  0  0  0  0  0  0
  160.5360  204.7770  148.4770 F   0  0  0  0  0  0  0  0  0  0  0  0
  160.8490  203.1720  150.2150 C   0  0  0  0  0  0  0  0  0  0  0  0
  161.2090  203.6150  148.8070 C   0  0  1  0  0  3  0  0  0  0  0  0
  161.3210  201.1740  148.2340 C   0  0  0  0  0  2  0  0  0  0  0  0
  160.4570  200.8350  149.4400 C   0  0  0  0  0  2  0  0  0  0  0  0
  160.5740  201.8940  150.4980 C   0  0  0  0  0  3  0  0  0  0  0  0
  160.9290  202.5570  147.7360 C   0  0  0  0  0  2  0  0  0  0  0  0
  161.8100  209.0800  150.4210 C   0  0  1  0  0  3  0  0  0  0  0  0
  162.0450  208.4050  149.0560 C   0  0  1  0  0  3  0  0  0  0  0  0
  163.0580  207.2740  149.0910 C   0  0  0  0  0  1  0  0  0  0  0  0
  160.8370  207.9340  148.5440 O   0  0  0  0  0  1  0  0  0  0  0  0
  162.3320  211.3160  149.2950 C   0  0  0  0  0  1  0  0  0  0  0  0
  163.4710  210.7060  151.4280 C   0  0  0  0  0  1  0  0  0  0  0  0
  162.2060  210.5560  150.6050 C   0  0  0  0  0  3  0  0  0  0  0  0
  1  8  2  0  0  0  0
  1 10  1  0  0  0  0
  2 13  1  0  0  0  0
  2  6  2  0  0  0  0
  3 17  1  0  0  0  0
  3  8  1  1  0  0  0
  4 17  1  0  0  0  0
  5  6  1  0  0  0  0
  7 13  2  0  0  0  0
  8  2  1  0  0  0  0
 10  5  2  0  0  0  0
 11 18  1  1  0  0  0
 11  3  1  0  0  0  0
 12  1  1  0  0  0  0
 14  4  1  0  0  0  0
 15 28  1  1  0  0  0
 15 14  1  0  0  0  0
 15 11  1  0  0  0  0
 16  4  1  0  0  0  0
 16  9  2  0  0  0  0
 17  7  1  1  0  0  0
 18 12  1  0  0  0  0
 19 20  2  0  0  0  0
 20 16  1  0  0  0  0
 22 26  2  0  0  0  0
 22 19  1  0  0  0  0
 23 21  1  6  0  0  0
 23 22  1  0  0  0  0
 24 25  1  0  0  0  0
 25 26  1  0  0  0  0
 27 24  1  0  0  0  0
 27 23  1  0  0  0  0
 28 34  1  6  0  0  0
 29 30  1  1  0  0  0
 29 28  1  0  0  0  0
 31 29  1  0  0  0  0
 32 34  1  0  0  0  0
 34 33  1  0  0  0  0
M  END
>  <MODEL>
7

>  <REMARK>
 VINA RESULT:      -3.4      2.965      8.664
  Name = 
  5 active torsions:
  status: ('A' for Active; 'I' for Inactive)
    1  A    between atoms: C_3  and  C_13
    2  A    between atoms: C_7  and  C_23
    3  A    between atoms: N_17  and  C_29
    4  A    between atoms: C_23  and  C_27
    5  A    between atoms: C_23  and  C_28
                            x       y       z     vdW  Elec       q    Type
                         _______ _______ _______ _____ _____    ______ ____

>  <TORSDO>
F 5

$$$$
