=
 OpenBabel11062410563D

 32 36  0  0  1  0  0  0  0  0999 V2000
  162.3510  207.0310  150.0630 C   0  0  1  0  0  3  0  0  0  0  0  0
  160.0580  210.3630  153.1060 C   0  0  1  0  0  3  0  0  0  0  0  0
  158.1490  211.8510  153.8750 C   0  0  0  0  0  0  0  0  0  0  0  0
  157.5570  212.6970  154.9360 C   0  0  0  0  0  0  0  0  0  0  0  0
  160.5220  208.7100  151.6330 C   0  0  1  0  0  3  0  0  0  0  0  0
  162.4290  210.1800  152.2710 C   0  0  0  0  0  2  0  0  0  0  0  0
  156.4640  214.2840  156.9240 N   0  0  0  0  0  0  0  0  0  0  0  0
  162.7680  208.4190  150.5390 C   0  0  0  0  0  2  0  0  0  0  0  0
  161.5420  210.6660  153.4210 C   0  0  2  0  0  3  0  0  0  0  0  0
  161.9780  210.0830  154.7910 C   0  0  2  0  0  3  0  0  0  0  0  0
  159.9180  211.1960  155.5100 C   0  0  2  0  0  3  0  0  0  0  0  0
  156.0550  214.4520  155.6390 C   0  0  0  0  0  3  0  0  0  0  0  0
  160.8380  206.9840  149.8500 C   0  0  0  0  0  2  0  0  0  0  0  0
  162.0450  208.7700  151.8350 C   0  0  2  0  0  3  0  0  0  0  0  0
  156.5940  213.6620  154.6220 C   0  0  0  0  0  3  0  0  0  0  0  0
  160.1120  207.3230  151.1480 C   0  0  0  0  0  2  0  0  0  0  0  0
  160.9720  210.2280  155.8630 N   0  0  0  0  0  0  0  0  0  0  0  0
  158.9820  211.5060  156.6770 C   0  0  0  0  0  2  0  0  0  0  0  0
  159.8760  208.9900  152.8490 O   0  0  0  0  0  0  0  0  0  0  0  0
  157.7770  211.9790  152.6760 O   0  0  0  0  0  0  0  0  0  0  0  0
  157.4010  213.3560  157.2600 C   0  0  0  0  0  3  0  0  0  0  0  0
  159.1320  210.7760  154.2560 C   0  0  2  0  0  3  0  0  0  0  0  0
  157.9760  212.5500  156.2770 C   0  0  0  0  0  0  0  0  0  0  0  0
  163.3290  210.7580  156.7050 N   0  0  0  0  0  1  0  0  0  0  0  0
  163.2840  210.7100  155.2550 C   0  0  0  0  0  2  0  0  0  0  0  0
  161.3830  207.8290  155.7200 C   0  0  0  0  0  1  0  0  0  0  0  0
  160.3980  208.9090  156.1250 C   0  0  0  0  0  2  0  0  0  0  0  0
  163.0720  206.7080  148.7680 C   0  0  0  0  0  2  0  0  0  0  0  0
  162.0730  205.8140  146.6340 C   0  0  0  0  0  0  0  0  0  0  0  0
  162.1530  206.8170  147.6460 N   0  0  0  0  0  2  0  0  0  0  0  0
  161.1790  205.9660  145.5840 O   0  0  0  0  0  0  0  0  0  0  0  0
  162.8080  204.7910  146.6860 O   0  0  0  0  0  1  0  0  0  0  0  0
  1 28  1  6  0  0  0
  1  8  1  0  0  0  0
  2 19  1  1  0  0  0
  2  9  1  0  0  0  0
  2 22  1  0  0  0  0
  3  4  1  0  0  0  0
  4 23  1  0  0  0  0
  5 16  1  1  0  0  0
  5 14  1  0  0  0  0
  5 19  1  0  0  0  0
  7 21  1  0  0  0  0
  9  6  1  6  0  0  0
  9 10  1  0  0  0  0
 10 25  1  1  0  0  0
 10 17  1  0  0  0  0
 11 17  1  0  0  0  0
 11 18  1  1  0  0  0
 12  7  2  0  0  0  0
 13  1  1  0  0  0  0
 13 16  1  0  0  0  0
 14  8  1  6  0  0  0
 14  6  1  0  0  0  0
 15  4  2  0  0  0  0
 15 12  1  0  0  0  0
 17 27  1  0  0  0  0
 20  3  2  0  0  0  0
 22  3  1  6  0  0  0
 22 11  1  0  0  0  0
 23 18  1  0  0  0  0
 23 21  2  0  0  0  0
 25 24  1  0  0  0  0
 26 27  1  0  0  0  0
 29 32  1  0  0  0  0
 29 30  1  0  0  0  0
 30 28  1  0  0  0  0
 31 29  2  0  0  0  0
M  END
>  <MODEL>
1

>  <REMARK>
 VINA RESULT:      -3.2      0.000      0.000
  Name = 
  4 active torsions:
  status: ('A' for Active; 'I' for Inactive)
    1  A    between atoms: C_2  and  C_24
    2  A    between atoms: N_10  and  C_24
    3  A    between atoms: C_13  and  C_15
    4  A    between atoms: C_25  and  N_26
                            x       y       z     vdW  Elec       q    Type
                         _______ _______ _______ _____ _____    ______ ____

>  <TORSDO>
F 4

$$$$
=
 OpenBabel11062410563D

 32 36  0  0  1  0  0  0  0  0999 V2000
  161.5880  204.4930  151.5610 C   0  0  1  0  0  3  0  0  0  0  0  0
  160.0220  208.7690  153.7720 C   0  0  1  0  0  3  0  0  0  0  0  0
  158.5970  210.1650  155.3440 C   0  0  0  0  0  0  0  0  0  0  0  0
  158.3610  211.4630  156.0150 C   0  0  0  0  0  0  0  0  0  0  0  0
  160.5250  206.6160  153.2910 C   0  0  1  0  0  3  0  0  0  0  0  0
  160.7080  208.2360  151.4060 C   0  0  0  0  0  2  0  0  0  0  0  0
  157.9240  213.8980  157.2590 N   0  0  0  0  0  0  0  0  0  0  0  0
  161.0820  205.8090  150.9750 C   0  0  0  0  0  2  0  0  0  0  0  0
  160.6430  209.3330  152.4720 C   0  0  2  0  0  3  0  0  0  0  0  0
  162.0230  209.9940  152.7250 C   0  0  2  0  0  3  0  0  0  0  0  0
  160.7630  211.0900  154.5160 C   0  0  2  0  0  3  0  0  0  0  0  0
  156.8900  213.0240  157.1260 C   0  0  0  0  0  3  0  0  0  0  0  0
  160.8360  204.1730  152.8520 C   0  0  0  0  0  2  0  0  0  0  0  0
  161.2660  206.9380  151.9830 C   0  0  2  0  0  3  0  0  0  0  0  0
  157.0910  211.7920  156.5020 C   0  0  0  0  0  3  0  0  0  0  0  0
  161.0280  205.2960  153.8670 C   0  0  0  0  0  2  0  0  0  0  0  0
  162.0970  210.7960  153.9640 N   0  0  0  0  0  0  0  0  0  0  0  0
  160.8070  212.0790  155.6800 C   0  0  0  0  0  2  0  0  0  0  0  0
  160.7450  207.6460  154.2200 O   0  0  0  0  0  0  0  0  0  0  0  0
  157.6580  209.3320  155.2180 O   0  0  0  0  0  0  0  0  0  0  0  0
  159.1690  213.6080  156.7940 C   0  0  0  0  0  3  0  0  0  0  0  0
  159.9900  209.8150  154.8930 C   0  0  2  0  0  3  0  0  0  0  0  0
  159.4150  212.3930  156.1530 C   0  0  0  0  0  0  0  0  0  0  0  0
  161.2540  211.4900  150.9600 N   0  0  0  0  0  1  0  0  0  0  0  0
  162.4270  210.8700  151.5480 C   0  0  0  0  0  2  0  0  0  0  0  0
  163.6310  211.0330  155.8430 C   0  0  0  0  0  1  0  0  0  0  0  0
  162.9100  210.0600  154.9310 C   0  0  0  0  0  2  0  0  0  0  0  0
  161.3840  203.3830  150.5470 C   0  0  0  0  0  2  0  0  0  0  0  0
  161.3440  203.0950  148.0440 C   0  0  0  0  0  0  0  0  0  0  0  0
  161.3960  203.9310  149.2000 N   0  0  0  0  0  2  0  0  0  0  0  0
  161.3580  203.6680  146.7810 O   0  0  0  0  0  0  0  0  0  0  0  0
  161.2860  201.8420  148.1610 O   0  0  0  0  0  1  0  0  0  0  0  0
  1 28  1  6  0  0  0
  1 13  1  0  0  0  0
  2 19  1  1  0  0  0
  2 22  1  0  0  0  0
  3  4  1  0  0  0  0
  4 23  2  0  0  0  0
  4 15  1  0  0  0  0
  5 16  1  1  0  0  0
  5 19  1  0  0  0  0
  6 14  1  0  0  0  0
  8  1  1  0  0  0  0
  9  6  1  6  0  0  0
  9 10  1  0  0  0  0
  9  2  1  0  0  0  0
 10 25  1  6  0  0  0
 10 17  1  0  0  0  0
 11 22  1  0  0  0  0
 11 18  1  1  0  0  0
 12  7  1  0  0  0  0
 13 16  1  0  0  0  0
 14  8  1  6  0  0  0
 14  5  1  0  0  0  0
 15 12  2  0  0  0  0
 17 11  1  0  0  0  0
 17 27  1  0  0  0  0
 18 23  1  0  0  0  0
 20  3  2  0  0  0  0
 21  7  2  0  0  0  0
 22  3  1  6  0  0  0
 23 21  1  0  0  0  0
 24 25  1  0  0  0  0
 27 26  1  0  0  0  0
 29 32  1  0  0  0  0
 29 30  1  0  0  0  0
 30 28  1  0  0  0  0
 31 29  2  0  0  0  0
M  END
>  <MODEL>
2

>  <REMARK>
 VINA RESULT:      -2.6      2.261      2.920
  Name = 
  4 active torsions:
  status: ('A' for Active; 'I' for Inactive)
    1  A    between atoms: C_2  and  C_24
    2  A    between atoms: N_10  and  C_24
    3  A    between atoms: C_13  and  C_15
    4  A    between atoms: C_25  and  N_26
                            x       y       z     vdW  Elec       q    Type
                         _______ _______ _______ _____ _____    ______ ____

>  <TORSDO>
F 4

$$$$
=
 OpenBabel11062410563D

 32 36  0  0  1  0  0  0  0  0999 V2000
  160.8560  203.6260  151.7550 C   0  0  1  0  0  3  0  0  0  0  0  0
  161.7720  208.3970  150.3310 C   0  0  1  0  0  3  0  0  0  0  0  0
  162.1190  210.2800  148.6620 C   0  0  0  0  0  0  0  0  0  0  0  0
  162.2360  211.7330  148.4060 C   0  0  0  0  0  0  0  0  0  0  0  0
  161.0810  206.2450  150.4430 C   0  0  1  0  0  3  0  0  0  0  0  0
  162.7220  206.9650  152.1740 C   0  0  0  0  0  2  0  0  0  0  0  0
  162.4590  214.4530  147.9390 N   0  0  0  0  0  0  0  0  0  0  0  0
  162.0000  204.5800  152.0890 C   0  0  0  0  0  2  0  0  0  0  0  0
  162.3960  208.3990  151.7460 C   0  0  2  0  0  3  0  0  0  0  0  0
  161.5010  209.1350  152.7770 C   0  0  2  0  0  3  0  0  0  0  0  0
  161.4980  210.8360  151.0150 C   0  0  2  0  0  3  0  0  0  0  0  0
  162.9740  213.5790  147.0350 C   0  0  0  0  0  3  0  0  0  0  0  0
  160.4020  203.8410  150.3120 C   0  0  0  0  0  2  0  0  0  0  0  0
  161.5550  206.0250  151.8890 C   0  0  2  0  0  3  0  0  0  0  0  0
  162.8710  212.2040  147.2520 C   0  0  0  0  0  3  0  0  0  0  0  0
  159.9450  205.2830  150.1120 C   0  0  0  0  0  2  0  0  0  0  0  0
  160.8740  210.3720  152.2670 N   0  0  0  0  0  0  0  0  0  0  0  0
  160.9990  212.2120  150.5790 C   0  0  0  0  0  2  0  0  0  0  0  0
  160.6330  207.5680  150.2930 O   0  0  0  0  0  0  0  0  0  0  0  0
  162.5770  209.4470  147.8320 O   0  0  0  0  0  0  0  0  0  0  0  0
  161.8390  214.0260  149.0720 C   0  0  0  0  0  3  0  0  0  0  0  0
  161.3700  209.8070  149.8790 C   0  0  2  0  0  3  0  0  0  0  0  0
  161.7210  212.6610  149.3380 C   0  0  0  0  0  0  0  0  0  0  0  0
  161.5090  209.1350  155.2160 N   0  0  0  0  0  1  0  0  0  0  0  0
  162.2880  209.4670  154.0370 C   0  0  0  0  0  2  0  0  0  0  0  0
  158.6280  211.0790  152.8970 C   0  0  0  0  0  1  0  0  0  0  0  0
  159.4500  210.1080  152.0720 C   0  0  0  0  0  2  0  0  0  0  0  0
  161.3250  202.1960  151.9490 C   0  0  0  0  0  2  0  0  0  0  0  0
  160.9490  200.9550  149.7890 C   0  0  0  0  0  0  0  0  0  0  0  0
  161.8070  201.6550  150.6880 N   0  0  0  0  0  2  0  0  0  0  0  0
  161.4600  200.4580  148.5980 O   0  0  0  0  0  0  0  0  0  0  0  0
  159.7320  200.7830  150.0660 O   0  0  0  0  0  1  0  0  0  0  0  0
  1 28  1  6  0  0  0
  1  8  1  0  0  0  0
  2 19  1  1  0  0  0
  2  9  1  0  0  0  0
  4  3  1  0  0  0  0
  4 23  1  0  0  0  0
  5 16  1  1  0  0  0
  5 14  1  0  0  0  0
  7 21  1  0  0  0  0
  9  6  1  1  0  0  0
  9 10  1  0  0  0  0
 10 25  1  1  0  0  0
 11 18  1  6  0  0  0
 11 17  1  0  0  0  0
 12 15  1  0  0  0  0
 12  7  2  0  0  0  0
 13  1  1  0  0  0  0
 14  8  1  6  0  0  0
 14  6  1  0  0  0  0
 15  4  2  0  0  0  0
 16 13  1  0  0  0  0
 17 10  1  0  0  0  0
 19  5  1  0  0  0  0
 20  3  2  0  0  0  0
 21 23  2  0  0  0  0
 22  3  1  6  0  0  0
 22  2  1  0  0  0  0
 22 11  1  0  0  0  0
 23 18  1  0  0  0  0
 25 24  1  0  0  0  0
 27 17  1  0  0  0  0
 27 26  1  0  0  0  0
 29 32  1  0  0  0  0
 29 30  1  0  0  0  0
 30 28  1  0  0  0  0
 31 29  2  0  0  0  0
M  END
>  <MODEL>
3

>  <REMARK>
 VINA RESULT:      -0.9      3.792      5.869
  Name = 
  4 active torsions:
  status: ('A' for Active; 'I' for Inactive)
    1  A    between atoms: C_2  and  C_24
    2  A    between atoms: N_10  and  C_24
    3  A    between atoms: C_13  and  C_15
    4  A    between atoms: C_25  and  N_26
                            x       y       z     vdW  Elec       q    Type
                         _______ _______ _______ _____ _____    ______ ____

>  <TORSDO>
F 4

$$$$
=
 OpenBabel11062410563D

 32 36  0  0  1  0  0  0  0  0999 V2000
  162.0470  206.3920  152.7770 C   0  0  1  0  0  3  0  0  0  0  0  0
  158.8220  209.9210  154.4420 C   0  0  1  0  0  3  0  0  0  0  0  0
  156.8010  210.7810  155.7170 C   0  0  0  0  0  0  0  0  0  0  0  0
  156.0440  211.9360  156.2510 C   0  0  0  0  0  0  0  0  0  0  0  0
  160.0920  208.0650  154.1950 C   0  0  1  0  0  3  0  0  0  0  0  0
  159.9730  209.5850  152.2250 C   0  0  0  0  0  2  0  0  0  0  0  0
  154.6330  214.1030  157.2390 N   0  0  0  0  0  0  0  0  0  0  0  0
  161.2100  207.4290  152.0330 C   0  0  0  0  0  2  0  0  0  0  0  0
  159.3880  210.6250  153.1860 C   0  0  2  0  0  3  0  0  0  0  0  0
  160.4100  211.7330  153.5500 C   0  0  2  0  0  3  0  0  0  0  0  0
  158.6140  212.3770  155.0850 C   0  0  2  0  0  3  0  0  0  0  0  0
  153.9890  212.9200  157.0510 C   0  0  0  0  0  3  0  0  0  0  0  0
  161.2770  205.8710  153.9900 C   0  0  0  0  0  2  0  0  0  0  0  0
  160.8540  208.5840  152.9650 C   0  0  2  0  0  3  0  0  0  0  0  0
  154.6840  211.8160  156.5540 C   0  0  0  0  0  3  0  0  0  0  0  0
  160.9300  207.0220  154.9290 C   0  0  0  0  0  2  0  0  0  0  0  0
  160.0320  212.5500  154.7220 N   0  0  0  0  0  0  0  0  0  0  0  0
  158.1550  213.3560  156.1650 C   0  0  0  0  0  2  0  0  0  0  0  0
  159.8150  209.1360  155.0610 O   0  0  0  0  0  0  0  0  0  0  0  0
  156.2310  209.6690  155.5450 O   0  0  0  0  0  0  0  0  0  0  0  0
  155.9540  214.2520  156.9510 C   0  0  0  0  0  3  0  0  0  0  0  0
  158.2790  210.9250  155.4660 C   0  0  2  0  0  3  0  0  0  0  0  0
  156.6870  213.1790  156.4420 C   0  0  0  0  0  0  0  0  0  0  0  0
  159.5220  212.6080  151.4550 N   0  0  0  0  0  1  0  0  0  0  0  0
  160.6510  212.6570  152.3660 C   0  0  0  0  0  2  0  0  0  0  0  0
  160.7640  213.1820  156.9600 C   0  0  0  0  0  1  0  0  0  0  0  0
  160.9030  212.1750  155.8340 C   0  0  0  0  0  2  0  0  0  0  0  0
  162.3790  205.2490  151.8370 C   0  0  0  0  0  2  0  0  0  0  0  0
  160.9420  204.6750  149.8470 C   0  0  0  0  0  0  0  0  0  0  0  0
  161.8710  205.5370  150.5050 N   0  0  0  0  0  2  0  0  0  0  0  0
  160.4890  204.9960  148.5760 O   0  0  0  0  0  0  0  0  0  0  0  0
  160.5310  203.6260  150.4120 O   0  0  0  0  0  1  0  0  0  0  0  0
  1 28  1  6  0  0  0
  1 13  1  0  0  0  0
  2 19  1  1  0  0  0
  2 22  1  0  0  0  0
  3  4  1  0  0  0  0
  4 23  2  0  0  0  0
  4 15  1  0  0  0  0
  5 16  1  1  0  0  0
  5 19  1  0  0  0  0
  6 14  1  0  0  0  0
  8  1  1  0  0  0  0
  9  6  1  6  0  0  0
  9 10  1  0  0  0  0
  9  2  1  0  0  0  0
 10 25  1  6  0  0  0
 10 17  1  0  0  0  0
 11 22  1  0  0  0  0
 11 18  1  1  0  0  0
 12  7  1  0  0  0  0
 13 16  1  0  0  0  0
 14  8  1  6  0  0  0
 14  5  1  0  0  0  0
 15 12  2  0  0  0  0
 17 11  1  0  0  0  0
 17 27  1  0  0  0  0
 18 23  1  0  0  0  0
 20  3  2  0  0  0  0
 21  7  2  0  0  0  0
 22  3  1  6  0  0  0
 23 21  1  0  0  0  0
 24 25  1  0  0  0  0
 27 26  1  0  0  0  0
 29 32  1  0  0  0  0
 29 30  1  0  0  0  0
 30 28  1  0  0  0  0
 31 29  2  0  0  0  0
M  END
>  <MODEL>
4

>  <REMARK>
 VINA RESULT:      -0.8      2.412      3.198
  Name = 
  4 active torsions:
  status: ('A' for Active; 'I' for Inactive)
    1  A    between atoms: C_2  and  C_24
    2  A    between atoms: N_10  and  C_24
    3  A    between atoms: C_13  and  C_15
    4  A    between atoms: C_25  and  N_26
                            x       y       z     vdW  Elec       q    Type
                         _______ _______ _______ _____ _____    ______ ____

>  <TORSDO>
F 4

$$$$
=
 OpenBabel11062410563D

 32 36  0  0  1  0  0  0  0  0999 V2000
  161.6380  208.4950  150.2780 C   0  0  1  0  0  3  0  0  0  0  0  0
  161.6030  204.0670  147.8250 C   0  0  1  0  0  3  0  0  0  0  0  0
  161.3750  201.5470  147.6180 C   0  0  0  0  0  0  0  0  0  0  0  0
  161.2380  200.3590  146.7450 C   0  0  0  0  0  0  0  0  0  0  0  0
  161.2520  205.7560  149.2900 C   0  0  1  0  0  3  0  0  0  0  0  0
  163.0630  206.1110  147.6160 C   0  0  0  0  0  2  0  0  0  0  0  0
  160.9910  198.1450  145.1010 N   0  0  0  0  0  0  0  0  0  0  0  0
  162.6780  207.8250  149.3850 C   0  0  0  0  0  2  0  0  0  0  0  0
  162.4680  204.9170  146.8640 C   0  0  2  0  0  3  0  0  0  0  0  0
  161.6810  205.3480  145.5990 C   0  0  2  0  0  3  0  0  0  0  0  0
  161.1200  202.9640  145.5800 C   0  0  2  0  0  3  0  0  0  0  0  0
  161.4500  197.9830  146.3700 C   0  0  0  0  0  3  0  0  0  0  0  0
  160.9030  207.4410  151.1060 C   0  0  0  0  0  2  0  0  0  0  0  0
  162.0060  206.8110  148.4650 C   0  0  2  0  0  3  0  0  0  0  0  0
  161.5810  199.0870  147.2140 C   0  0  0  0  0  3  0  0  0  0  0  0
  160.2200  206.4310  150.1880 C   0  0  0  0  0  2  0  0  0  0  0  0
  160.8050  204.2980  145.0390 N   0  0  0  0  0  0  0  0  0  0  0  0
  160.3630  201.8430  144.8710 C   0  0  0  0  0  2  0  0  0  0  0  0
  160.6040  204.8590  148.4240 O   0  0  0  0  0  0  0  0  0  0  0  0
  161.7860  201.4220  148.8050 O   0  0  0  0  0  0  0  0  0  0  0  0
  160.6530  199.3700  144.6140 C   0  0  0  0  0  3  0  0  0  0  0  0
  160.9330  202.8910  147.1050 C   0  0  2  0  0  3  0  0  0  0  0  0
  160.7770  200.5040  145.4180 C   0  0  0  0  0  0  0  0  0  0  0  0
  161.9560  205.8280  143.2240 N   0  0  0  0  0  1  0  0  0  0  0  0
  162.6290  205.8290  144.5100 C   0  0  0  0  0  2  0  0  0  0  0  0
  159.3300  206.1470  145.6280 C   0  0  0  0  0  1  0  0  0  0  0  0
  159.4200  204.6630  145.3290 C   0  0  0  0  0  2  0  0  0  0  0  0
  162.3290  209.4890  151.1920 C   0  0  0  0  0  2  0  0  0  0  0  0
  160.7370  210.5380  152.8400 C   0  0  0  0  0  0  0  0  0  0  0  0
  161.6690  209.5160  152.4880 N   0  0  0  0  0  2  0  0  0  0  0  0
  160.1350  210.5180  154.0900 O   0  0  0  0  0  1  0  0  0  0  0  0
  160.4560  211.4590  152.0270 O   0  0  0  0  0  0  0  0  0  0  0  0
  1 13  1  0  0  0  0
  1 28  1  1  0  0  0
  2 19  1  6  0  0  0
  3 20  2  0  0  0  0
  4 15  1  0  0  0  0
  4  3  1  0  0  0  0
  5 16  1  1  0  0  0
  7 12  1  0  0  0  0
  8  1  1  0  0  0  0
  9  6  1  1  0  0  0
  9  2  1  0  0  0  0
 10 25  1  6  0  0  0
 10  9  1  0  0  0  0
 11 18  1  6  0  0  0
 11 22  1  0  0  0  0
 12 15  2  0  0  0  0
 14  6  1  1  0  0  0
 14  5  1  0  0  0  0
 14  8  1  0  0  0  0
 16 13  1  0  0  0  0
 17 27  1  0  0  0  0
 17 11  1  0  0  0  0
 17 10  1  0  0  0  0
 18 23  1  0  0  0  0
 19  5  1  0  0  0  0
 21  7  2  0  0  0  0
 21 23  1  0  0  0  0
 22  3  1  1  0  0  0
 22  2  1  0  0  0  0
 23  4  2  0  0  0  0
 24 25  1  0  0  0  0
 27 26  1  0  0  0  0
 28 30  1  0  0  0  0
 29 31  1  0  0  0  0
 30 29  1  0  0  0  0
 32 29  2  0  0  0  0
M  END
>  <MODEL>
5

>  <REMARK>
 VINA RESULT:      -0.3      3.900     11.427
  Name = 
  4 active torsions:
  status: ('A' for Active; 'I' for Inactive)
    1  A    between atoms: C_2  and  C_24
    2  A    between atoms: N_10  and  C_24
    3  A    between atoms: C_13  and  C_15
    4  A    between atoms: C_25  and  N_26
                            x       y       z     vdW  Elec       q    Type
                         _______ _______ _______ _____ _____    ______ ____

>  <TORSDO>
F 4

$$$$
=
 OpenBabel11062410563D

 32 36  0  0  1  0  0  0  0  0999 V2000
  161.3830  201.8580  149.3850 C   0  0  1  0  0  3  0  0  0  0  0  0
  160.8410  206.1270  152.0530 C   0  0  1  0  0  3  0  0  0  0  0  0
  160.4410  207.5000  154.1510 C   0  0  0  0  0  0  0  0  0  0  0  0
  160.4660  208.8220  154.8170 C   0  0  0  0  0  0  0  0  0  0  0  0
  161.2600  204.0050  151.3870 C   0  0  1  0  0  3  0  0  0  0  0  0
  160.0640  205.4540  149.7510 C   0  0  0  0  0  2  0  0  0  0  0  0
  160.5100  211.2990  156.0530 N   0  0  0  0  0  0  0  0  0  0  0  0
  160.4490  203.0520  149.2060 C   0  0  0  0  0  2  0  0  0  0  0  0
  160.4870  206.6320  150.6340 C   0  0  2  0  0  3  0  0  0  0  0  0
  161.6400  207.4580  150.0050 C   0  0  2  0  0  3  0  0  0  0  0  0
  161.5420  208.5720  152.1840 C   0  0  2  0  0  3  0  0  0  0  0  0
  159.7340  210.3110  156.5720 C   0  0  0  0  0  3  0  0  0  0  0  0
  161.5930  201.5790  150.8730 C   0  0  0  0  0  2  0  0  0  0  0  0
  161.0310  204.2830  149.8920 C   0  0  2  0  0  3  0  0  0  0  0  0
  159.6980  209.0560  155.9640 C   0  0  0  0  0  3  0  0  0  0  0  0
  162.1860  202.8050  151.5610 C   0  0  0  0  0  2  0  0  0  0  0  0
  162.3170  208.3740  150.9460 N   0  0  0  0  0  0  0  0  0  0  0  0
  162.1250  209.6630  153.0800 C   0  0  0  0  0  2  0  0  0  0  0  0
  161.8390  205.1340  151.9910 O   0  0  0  0  0  0  0  0  0  0  0  0
  159.7380  206.5630  154.6190 O   0  0  0  0  0  0  0  0  0  0  0  0
  161.2660  211.1040  154.9380 C   0  0  0  0  0  3  0  0  0  0  0  0
  161.3310  207.2620  152.9600 C   0  0  2  0  0  3  0  0  0  0  0  0
  161.2540  209.8680  154.2890 C   0  0  0  0  0  0  0  0  0  0  0  0
  161.9530  209.4510  148.6350 N   0  0  0  0  0  1  0  0  0  0  0  0
  161.1420  208.2600  148.8120 C   0  0  0  0  0  2  0  0  0  0  0  0
  163.8730  206.5750  150.4120 C   0  0  0  0  0  1  0  0  0  0  0  0
  163.6370  207.8210  151.2430 C   0  0  0  0  0  2  0  0  0  0  0  0
  160.7790  200.6440  148.7060 C   0  0  0  0  0  2  0  0  0  0  0  0
  160.7140  200.3590  146.2030 C   0  0  0  0  0  0  0  0  0  0  0  0
  160.2710  201.0100  147.3930 N   0  0  0  0  0  2  0  0  0  0  0  0
  160.1980  200.7460  144.9740 O   0  0  0  0  0  0  0  0  0  0  0  0
  161.5710  199.4360  146.2570 O   0  0  0  0  0  1  0  0  0  0  0  0
  1 28  1  6  0  0  0
  1 13  1  0  0  0  0
  2 19  1  6  0  0  0
  2 22  1  0  0  0  0
  3 20  2  0  0  0  0
  3  4  1  0  0  0  0
  4 15  1  0  0  0  0
  5 16  1  6  0  0  0
  5 19  1  0  0  0  0
  6 14  1  0  0  0  0
  7 12  1  0  0  0  0
  8  1  1  0  0  0  0
  9  6  1  6  0  0  0
  9  2  1  0  0  0  0
 10 25  1  6  0  0  0
 10  9  1  0  0  0  0
 10 17  1  0  0  0  0
 11 22  1  0  0  0  0
 11 18  1  1  0  0  0
 13 16  1  0  0  0  0
 14  8  1  6  0  0  0
 14  5  1  0  0  0  0
 15 12  2  0  0  0  0
 17 27  1  0  0  0  0
 17 11  1  0  0  0  0
 18 23  1  0  0  0  0
 21  7  2  0  0  0  0
 22  3  1  1  0  0  0
 23  4  2  0  0  0  0
 23 21  1  0  0  0  0
 24 25  1  0  0  0  0
 26 27  1  0  0  0  0
 29 32  1  0  0  0  0
 29 30  1  0  0  0  0
 30 28  1  0  0  0  0
 31 29  2  0  0  0  0
M  END
>  <MODEL>
6

>  <REMARK>
 VINA RESULT:      -0.2      3.301      5.522
  Name = 
  4 active torsions:
  status: ('A' for Active; 'I' for Inactive)
    1  A    between atoms: C_2  and  C_24
    2  A    between atoms: N_10  and  C_24
    3  A    between atoms: C_13  and  C_15
    4  A    between atoms: C_25  and  N_26
                            x       y       z     vdW  Elec       q    Type
                         _______ _______ _______ _____ _____    ______ ____

>  <TORSDO>
F 4

$$$$
