=
 OpenBabel11062410523D

 32 38  0  0  1  0  0  0  0  0999 V2000
  161.0760  201.8700  148.7340 C   0  0  1  0  0  3  0  0  0  0  0  0
  161.3560  206.1510  151.6170 C   0  0  0  0  0  0  0  0  0  0  0  0
  161.6600  209.8130  148.2720 C   0  0  0  0  0  2  0  0  0  0  0  0
  162.3190  210.6680  149.3370 C   0  0  0  0  0  2  0  0  0  0  0  0
  161.0660  206.7350  154.0860 C   0  0  0  0  0  0  0  0  0  0  0  0
  160.7040  207.7720  155.0640 C   0  0  0  0  0  0  0  0  0  0  0  0
  161.2750  203.8270  150.8620 C   0  0  0  0  0  0  0  0  0  0  0  0
  161.6140  205.6030  149.2560 C   0  0  0  0  0  3  0  0  0  0  0  0
  159.9700  209.7590  156.8990 C   0  0  0  0  0  3  0  0  0  0  0  0
  161.6190  203.2610  148.4050 C   0  0  0  0  0  2  0  0  0  0  0  0
  161.9790  208.3500  148.5430 C   0  0  0  0  0  2  0  0  0  0  0  0
  161.5510  206.5670  150.2760 C   0  0  0  0  0  0  0  0  0  0  0  0
  161.6760  207.9320  149.9680 C   0  0  0  0  0  0  0  0  0  0  0  0
  161.4170  208.4870  152.3370 C   0  0  0  0  0  0  0  0  0  0  0  0
  159.8530  208.4110  157.2470 C   0  0  0  0  0  3  0  0  0  0  0  0
  161.5360  201.4340  150.1280 C   0  0  0  0  0  2  0  0  0  0  0  0
  161.4660  204.2450  149.5330 C   0  0  0  0  0  0  0  0  0  0  0  0
  160.2190  207.4200  156.3320 C   0  0  0  0  0  3  0  0  0  0  0  0
  161.0260  202.3870  151.2090 C   0  0  0  0  0  2  0  0  0  0  0  0
  161.6700  210.3710  150.6810 C   0  0  0  0  0  2  0  0  0  0  0  0
  161.6220  208.8930  151.0020 C   0  0  0  0  0  0  0  0  0  0  0  0
  161.4360  209.5450  153.4190 C   0  0  0  0  0  2  0  0  0  0  0  0
  161.2080  204.7780  151.8790 C   0  0  0  0  0  3  0  0  0  0  0  0
  161.1700  205.5390  154.4730 O   0  0  0  0  0  0  0  0  0  0  0  0
  160.4570  210.1140  155.6390 C   0  0  0  0  0  3  0  0  0  0  0  0
  161.2980  207.1130  152.6590 C   0  0  0  0  0  0  0  0  0  0  0  0
  160.8160  209.1270  154.7170 C   0  0  0  0  0  0  0  0  0  0  0  0
  159.5580  201.8360  148.5860 C   0  0  0  0  0  2  0  0  0  0  0  0
  159.1690  201.6750  147.1290 C   0  0  0  0  0  2  0  0  0  0  0  0
  160.4120  201.4570  146.2920 C   0  0  0  0  0  3  0  0  0  0  0  0
  160.4200  202.4440  145.1430 C   0  0  0  0  0  2  0  0  0  0  0  0
  160.0020  201.0090  144.9060 C   0  0  0  0  0  2  0  0  0  0  0  0
  1 28  1  1  0  0  0
  1 16  1  0  0  0  0
  2 23  2  0  0  0  0
  2 26  1  0  0  0  0
  3 11  1  0  0  0  0
  3  4  1  0  0  0  0
  4 20  1  0  0  0  0
  5 24  2  0  0  0  0
  5  6  1  0  0  0  0
  6 18  1  0  0  0  0
  7 19  1  0  0  0  0
  7 23  1  0  0  0  0
  8 17  1  0  0  0  0
  8 12  2  0  0  0  0
  9 15  1  0  0  0  0
 10  1  1  0  0  0  0
 10 17  1  0  0  0  0
 11 13  1  0  0  0  0
 12  2  1  0  0  0  0
 13 12  1  0  0  0  0
 13 21  2  0  0  0  0
 14 26  2  0  0  0  0
 14 22  1  0  0  0  0
 16 19  1  0  0  0  0
 17  7  2  0  0  0  0
 18 15  2  0  0  0  0
 20 21  1  0  0  0  0
 21 14  1  0  0  0  0
 22 27  1  0  0  0  0
 25  9  2  0  0  0  0
 26  5  1  0  0  0  0
 27  6  2  0  0  0  0
 27 25  1  0  0  0  0
 29 28  1  0  0  0  0
 30 29  1  0  0  0  0
 31 30  1  0  0  0  0
 32 31  1  0  0  0  0
 32 30  1  0  0  0  0
M  END
>  <MODEL>
1

>  <REMARK>
 VINA RESULT:      -9.0      0.000      0.000
  Name = 
  3 active torsions:
  status: ('A' for Active; 'I' for Inactive)
    1  A    between atoms: C_1  and  C_10
    2  A    between atoms: C_2  and  C_24
    3  A    between atoms: C_10  and  C_24
                            x       y       z     vdW  Elec       q    Type
                         _______ _______ _______ _____ _____    ______ ____

>  <TORSDO>
F 3

$$$$
=
 OpenBabel11062410523D

 32 38  0  0  1  0  0  0  0  0999 V2000
  160.9940  209.8360  154.0930 C   0  0  1  0  0  3  0  0  0  0  0  0
  161.4180  206.4080  150.2480 C   0  0  0  0  0  0  0  0  0  0  0  0
  160.2410  202.0790  152.3860 C   0  0  0  0  0  2  0  0  0  0  0  0
  161.0320  201.3810  151.2980 C   0  0  0  0  0  2  0  0  0  0  0  0
  161.7360  206.5060  147.7160 C   0  0  0  0  0  0  0  0  0  0  0  0
  161.5070  205.8360  146.4270 C   0  0  0  0  0  0  0  0  0  0  0  0
  161.4790  208.4460  151.5970 C   0  0  0  0  0  0  0  0  0  0  0  0
  161.0940  206.3090  152.6620 C   0  0  0  0  0  3  0  0  0  0  0  0
  161.0220  204.5510  143.9850 C   0  0  0  0  0  3  0  0  0  0  0  0
  161.2130  208.3230  154.1250 C   0  0  0  0  0  2  0  0  0  0  0  0
  160.8360  203.4600  152.6230 C   0  0  0  0  0  2  0  0  0  0  0  0
  161.1720  205.6530  151.4220 C   0  0  0  0  0  0  0  0  0  0  0  0
  161.0030  204.2600  151.3470 C   0  0  0  0  0  0  0  0  0  0  0  0
  161.3280  204.3550  148.9240 C   0  0  0  0  0  0  0  0  0  0  0  0
  161.2060  205.9350  144.0200 C   0  0  0  0  0  3  0  0  0  0  0  0
  161.8800  210.4810  153.0230 C   0  0  0  0  0  2  0  0  0  0  0  0
  161.2320  207.6930  152.7590 C   0  0  0  0  0  0  0  0  0  0  0  0
  161.4490  206.5760  145.2370 C   0  0  0  0  0  3  0  0  0  0  0  0
  161.5520  209.9460  151.6300 C   0  0  0  0  0  2  0  0  0  0  0  0
  160.8310  202.1230  149.9850 C   0  0  0  0  0  2  0  0  0  0  0  0
  161.0930  203.6090  150.0970 C   0  0  0  0  0  0  0  0  0  0  0  0
  161.4860  203.6070  147.6180 C   0  0  0  0  0  2  0  0  0  0  0  0
  161.5540  207.8030  150.3630 C   0  0  0  0  0  3  0  0  0  0  0  0
  162.1200  207.7080  147.7220 O   0  0  0  0  0  0  0  0  0  0  0  0
  161.0840  203.8090  145.1670 C   0  0  0  0  0  3  0  0  0  0  0  0
  161.5070  205.7590  148.9900 C   0  0  0  0  0  0  0  0  0  0  0  0
  161.3170  204.4460  146.3890 C   0  0  0  0  0  0  0  0  0  0  0  0
  159.5170  210.1630  153.8990 C   0  0  0  0  0  2  0  0  0  0  0  0
  159.3060  211.6640  153.8500 C   0  0  0  0  0  2  0  0  0  0  0  0
  158.5890  212.0340  152.5680 C   0  0  0  0  0  3  0  0  0  0  0  0
  159.4000  213.0760  151.8260 C   0  0  0  0  0  2  0  0  0  0  0  0
  158.1880  213.4920  152.6310 C   0  0  0  0  0  2  0  0  0  0  0  0
  1 28  1  6  0  0  0
  1 10  1  0  0  0  0
  2 23  1  0  0  0  0
  2 12  1  0  0  0  0
  3 11  1  0  0  0  0
  4  3  1  0  0  0  0
  5 24  2  0  0  0  0
  5 26  1  0  0  0  0
  6  5  1  0  0  0  0
  7 19  1  0  0  0  0
  7 17  1  0  0  0  0
  8 17  2  0  0  0  0
  9 15  2  0  0  0  0
  9 25  1  0  0  0  0
 12  8  1  0  0  0  0
 13 12  2  0  0  0  0
 13 11  1  0  0  0  0
 14 26  1  0  0  0  0
 14 21  2  0  0  0  0
 15 18  1  0  0  0  0
 16  1  1  0  0  0  0
 17 10  1  0  0  0  0
 18  6  2  0  0  0  0
 19 16  1  0  0  0  0
 20 21  1  0  0  0  0
 20  4  1  0  0  0  0
 21 13  1  0  0  0  0
 22 14  1  0  0  0  0
 23  7  2  0  0  0  0
 25 27  2  0  0  0  0
 26  2  2  0  0  0  0
 27  6  1  0  0  0  0
 27 22  1  0  0  0  0
 29 28  1  0  0  0  0
 30 32  1  0  0  0  0
 30 29  1  0  0  0  0
 31 30  1  0  0  0  0
 31 32  1  0  0  0  0
M  END
>  <MODEL>
2

>  <REMARK>
 VINA RESULT:      -8.9      2.404      8.841
  Name = 
  3 active torsions:
  status: ('A' for Active; 'I' for Inactive)
    1  A    between atoms: C_1  and  C_10
    2  A    between atoms: C_2  and  C_24
    3  A    between atoms: C_10  and  C_24
                            x       y       z     vdW  Elec       q    Type
                         _______ _______ _______ _____ _____    ______ ____

>  <TORSDO>
F 3

$$$$
=
 OpenBabel11062410523D

 32 38  0  0  1  0  0  0  0  0999 V2000
  160.9860  210.0060  154.0210 C   0  0  1  0  0  3  0  0  0  0  0  0
  161.4160  206.5040  150.2440 C   0  0  0  0  0  0  0  0  0  0  0  0
  160.2460  202.2160  152.4670 C   0  0  0  0  0  2  0  0  0  0  0  0
  161.0390  201.4970  151.3930 C   0  0  0  0  0  2  0  0  0  0  0  0
  161.7340  206.5520  147.7110 C   0  0  0  0  0  0  0  0  0  0  0  0
  161.5070  205.8560  146.4350 C   0  0  0  0  0  0  0  0  0  0  0  0
  161.4740  208.5680  151.5520 C   0  0  0  0  0  0  0  0  0  0  0  0
  161.0920  206.4520  152.6600 C   0  0  0  0  0  3  0  0  0  0  0  0
  161.0230  204.5220  144.0190 C   0  0  0  0  0  3  0  0  0  0  0  0
  161.2070  208.4940  154.0820 C   0  0  0  0  0  2  0  0  0  0  0  0
  160.8390  203.6020  152.6770 C   0  0  0  0  0  2  0  0  0  0  0  0
  161.1710  205.7710  151.4330 C   0  0  0  0  0  0  0  0  0  0  0  0
  161.0050  204.3770  151.3860 C   0  0  0  0  0  0  0  0  0  0  0  0
  161.3290  204.4250  148.9610 C   0  0  0  0  0  0  0  0  0  0  0  0
  161.2050  205.9070  144.0260 C   0  0  0  0  0  3  0  0  0  0  0  0
  161.8710  210.6310  152.9390 C   0  0  0  0  0  2  0  0  0  0  0  0
  161.2270  207.8370  152.7290 C   0  0  0  0  0  0  0  0  0  0  0  0
  161.4470  206.5730  145.2310 C   0  0  0  0  0  3  0  0  0  0  0  0
  161.5440  210.0680  151.5560 C   0  0  0  0  0  2  0  0  0  0  0  0
  160.8360  202.2130  150.0650 C   0  0  0  0  0  2  0  0  0  0  0  0
  161.0960  203.7010  150.1480 C   0  0  0  0  0  0  0  0  0  0  0  0
  161.4890  203.6510  147.6700 C   0  0  0  0  0  2  0  0  0  0  0  0
  161.5490  207.9000  150.3310 C   0  0  0  0  0  3  0  0  0  0  0  0
  162.1160  207.7540  147.6930 O   0  0  0  0  0  0  0  0  0  0  0  0
  161.0870  203.8040  145.2150 C   0  0  0  0  0  3  0  0  0  0  0  0
  161.5060  205.8300  148.9990 C   0  0  0  0  0  0  0  0  0  0  0  0
  161.3180  204.4650  146.4240 C   0  0  0  0  0  0  0  0  0  0  0  0
  159.5090  210.3260  153.8200 C   0  0  0  0  0  2  0  0  0  0  0  0
  158.9030  210.8720  155.0990 C   0  0  0  0  0  2  0  0  0  0  0  0
  160.0010  211.4130  155.9900 C   0  0  0  0  0  3  0  0  0  0  0  0
  159.3860  211.9770  157.2540 C   0  0  0  0  0  2  0  0  0  0  0  0
  159.8220  212.9080  156.1430 C   0  0  0  0  0  2  0  0  0  0  0  0
  1 28  1  6  0  0  0
  1 10  1  0  0  0  0
  2 23  1  0  0  0  0
  2 12  1  0  0  0  0
  3 11  1  0  0  0  0
  4  3  1  0  0  0  0
  5 26  1  0  0  0  0
  6  5  1  0  0  0  0
  7 19  1  0  0  0  0
  7 17  1  0  0  0  0
  8 17  2  0  0  0  0
  9 15  2  0  0  0  0
  9 25  1  0  0  0  0
 12  8  1  0  0  0  0
 13 12  2  0  0  0  0
 13 11  1  0  0  0  0
 14 26  1  0  0  0  0
 14 21  2  0  0  0  0
 15 18  1  0  0  0  0
 16  1  1  0  0  0  0
 17 10  1  0  0  0  0
 18  6  2  0  0  0  0
 19 16  1  0  0  0  0
 20 21  1  0  0  0  0
 20  4  1  0  0  0  0
 21 13  1  0  0  0  0
 22 14  1  0  0  0  0
 23  7  2  0  0  0  0
 24  5  2  0  0  0  0
 25 27  2  0  0  0  0
 26  2  2  0  0  0  0
 27  6  1  0  0  0  0
 27 22  1  0  0  0  0
 28 29  1  0  0  0  0
 29 30  1  0  0  0  0
 30 32  1  0  0  0  0
 30 31  1  0  0  0  0
 32 31  1  0  0  0  0
M  END
>  <MODEL>
3

>  <REMARK>
 VINA RESULT:      -8.7      2.112      9.139
  Name = 
  3 active torsions:
  status: ('A' for Active; 'I' for Inactive)
    1  A    between atoms: C_1  and  C_10
    2  A    between atoms: C_2  and  C_24
    3  A    between atoms: C_10  and  C_24
                            x       y       z     vdW  Elec       q    Type
                         _______ _______ _______ _____ _____    ______ ____

>  <TORSDO>
F 3

$$$$
=
 OpenBabel11062410523D

 32 38  0  0  1  0  0  0  0  0999 V2000
  162.3210  205.7750  151.5650 C   0  0  1  0  0  3  0  0  0  0  0  0
  160.2520  210.3560  152.7680 C   0  0  0  0  0  0  0  0  0  0  0  0
  161.0770  213.1260  148.7250 C   0  0  0  0  0  2  0  0  0  0  0  0
  160.9720  214.3560  149.6040 C   0  0  0  0  0  2  0  0  0  0  0  0
  158.7800  211.2810  154.6380 C   0  0  0  0  0  0  0  0  0  0  0  0
  157.7850  212.2930  155.0250 C   0  0  0  0  0  0  0  0  0  0  0  0
  161.0840  208.0580  152.8500 C   0  0  0  0  0  0  0  0  0  0  0  0
  161.6420  209.4740  150.9700 C   0  0  0  0  0  3  0  0  0  0  0  0
  155.8610  214.2080  155.7190 C   0  0  0  0  0  3  0  0  0  0  0  0
  162.5940  207.1710  151.0040 C   0  0  0  0  0  2  0  0  0  0  0  0
  161.5940  211.9630  149.5600 C   0  0  0  0  0  2  0  0  0  0  0  0
  160.9050  210.5350  151.5220 C   0  0  0  0  0  0  0  0  0  0  0  0
  160.8130  211.7610  150.8420 C   0  0  0  0  0  0  0  0  0  0  0  0
  159.4180  212.6510  152.6450 C   0  0  0  0  0  0  0  0  0  0  0  0
  155.9380  213.0080  156.4300 C   0  0  0  0  0  3  0  0  0  0  0  0
  162.2180  205.8250  153.0920 C   0  0  0  0  0  2  0  0  0  0  0  0
  161.7270  208.2400  151.6120 C   0  0  0  0  0  0  0  0  0  0  0  0
  156.8980  212.0530  156.0850 C   0  0  0  0  0  3  0  0  0  0  0  0
  161.0710  206.7270  153.5450 C   0  0  0  0  0  2  0  0  0  0  0  0
  159.8960  214.1230  150.6550 C   0  0  0  0  0  2  0  0  0  0  0  0
  160.0770  212.8250  151.4110 C   0  0  0  0  0  0  0  0  0  0  0  0
  158.7020  213.8390  153.2490 C   0  0  0  0  0  2  0  0  0  0  0  0
  160.3480  209.1050  153.4020 C   0  0  0  0  0  3  0  0  0  0  0  0
  158.9960  210.3080  155.4100 O   0  0  0  0  0  0  0  0  0  0  0  0
  156.7450  214.4530  154.6660 C   0  0  0  0  0  3  0  0  0  0  0  0
  159.5110  211.4210  153.3420 C   0  0  0  0  0  0  0  0  0  0  0  0
  157.7000  213.4970  154.3090 C   0  0  0  0  0  0  0  0  0  0  0  0
  161.0820  205.1670  150.9180 C   0  0  0  0  0  2  0  0  0  0  0  0
  161.1880  203.6540  150.8800 C   0  0  0  0  0  2  0  0  0  0  0  0
  160.3730  203.1170  149.7230 C   0  0  0  0  0  3  0  0  0  0  0  0
  161.0620  201.8950  149.1510 C   0  0  0  0  0  2  0  0  0  0  0  0
  161.1850  203.2310  148.4510 C   0  0  0  0  0  2  0  0  0  0  0  0
  1 28  1  6  0  0  0
  1 16  1  0  0  0  0
  2 26  1  0  0  0  0
  2 23  2  0  0  0  0
  3 11  1  0  0  0  0
  3  4  1  0  0  0  0
  4 20  1  0  0  0  0
  5  6  1  0  0  0  0
  5 24  2  0  0  0  0
  6 18  1  0  0  0  0
  7 23  1  0  0  0  0
  7 19  1  0  0  0  0
  8 12  2  0  0  0  0
  8 17  1  0  0  0  0
  9 15  1  0  0  0  0
 10  1  1  0  0  0  0
 10 17  1  0  0  0  0
 11 13  1  0  0  0  0
 12  2  1  0  0  0  0
 13 21  2  0  0  0  0
 13 12  1  0  0  0  0
 14 22  1  0  0  0  0
 14 26  2  0  0  0  0
 16 19  1  0  0  0  0
 17  7  2  0  0  0  0
 18 15  2  0  0  0  0
 20 21  1  0  0  0  0
 21 14  1  0  0  0  0
 22 27  1  0  0  0  0
 25  9  2  0  0  0  0
 26  5  1  0  0  0  0
 27 25  1  0  0  0  0
 27  6  2  0  0  0  0
 29 28  1  0  0  0  0
 30 29  1  0  0  0  0
 31 30  1  0  0  0  0
 32 31  1  0  0  0  0
 32 30  1  0  0  0  0
M  END
>  <MODEL>
4

>  <REMARK>
 VINA RESULT:      -8.6      3.041      4.769
  Name = 
  3 active torsions:
  status: ('A' for Active; 'I' for Inactive)
    1  A    between atoms: C_1  and  C_10
    2  A    between atoms: C_2  and  C_24
    3  A    between atoms: C_10  and  C_24
                            x       y       z     vdW  Elec       q    Type
                         _______ _______ _______ _____ _____    ______ ____

>  <TORSDO>
F 3

$$$$
=
 OpenBabel11062410523D

 32 38  0  0  1  0  0  0  0  0999 V2000
  161.4070  202.6360  150.0500 C   0  0  1  0  0  3  0  0  0  0  0  0
  161.3210  207.3540  152.1590 C   0  0  0  0  0  0  0  0  0  0  0  0
  161.7870  210.4020  148.2610 C   0  0  0  0  0  2  0  0  0  0  0  0
  162.3300  211.4530  149.2080 C   0  0  0  0  0  2  0  0  0  0  0  0
  160.8130  208.3370  154.4600 C   0  0  0  0  0  0  0  0  0  0  0  0
  160.3400  209.5090  155.2130 C   0  0  0  0  0  0  0  0  0  0  0  0
  161.3730  204.9340  151.8150 C   0  0  0  0  0  0  0  0  0  0  0  0
  161.7880  206.4230  149.9550 C   0  0  0  0  0  3  0  0  0  0  0  0
  159.4000  211.7460  156.6150 C   0  0  0  0  0  3  0  0  0  0  0  0
  161.9340  203.9730  149.5260 C   0  0  0  0  0  2  0  0  0  0  0  0
  162.1270  209.0220  148.8060 C   0  0  0  0  0  2  0  0  0  0  0  0
  161.6130  207.5440  150.7840 C   0  0  0  0  0  0  0  0  0  0  0  0
  161.7210  208.8400  150.2540 C   0  0  0  0  0  0  0  0  0  0  0  0
  161.2530  209.7790  152.4650 C   0  0  0  0  0  0  0  0  0  0  0  0
  159.2950  210.4730  157.1810 C   0  0  0  0  0  3  0  0  0  0  0  0
  161.7650  202.4640  151.5290 C   0  0  0  0  0  2  0  0  0  0  0  0
  161.6590  205.1270  150.4510 C   0  0  0  0  0  0  0  0  0  0  0  0
  159.7640  209.3570  156.4830 C   0  0  0  0  0  3  0  0  0  0  0  0
  161.1400  203.5650  152.3860 C   0  0  0  0  0  2  0  0  0  0  0  0
  161.5830  211.3620  150.5310 C   0  0  0  0  0  2  0  0  0  0  0  0
  161.5530  209.9600  151.0990 C   0  0  0  0  0  0  0  0  0  0  0  0
  161.1510  211.0060  153.3450 C   0  0  0  0  0  2  0  0  0  0  0  0
  161.1940  206.0410  152.6430 C   0  0  0  0  0  3  0  0  0  0  0  0
  160.9220  207.2300  155.0550 O   0  0  0  0  0  0  0  0  0  0  0  0
  159.9770  211.9020  155.3530 C   0  0  0  0  0  3  0  0  0  0  0  0
  161.1490  208.4760  153.0110 C   0  0  0  0  0  0  0  0  0  0  0  0
  160.4390  210.7890  154.6450 C   0  0  0  0  0  0  0  0  0  0  0  0
  159.9090  202.5100  149.7960 C   0  0  0  0  0  2  0  0  0  0  0  0
  159.6480  201.7020  148.5390 C   0  0  0  0  0  2  0  0  0  0  0  0
  160.8530  201.7780  147.6270 C   0  0  0  0  0  3  0  0  0  0  0  0
  160.4560  201.3280  146.2350 C   0  0  0  0  0  2  0  0  0  0  0  0
  161.2020  200.3830  147.1530 C   0  0  0  0  0  2  0  0  0  0  0  0
  1 28  1  1  0  0  0
  1 16  1  0  0  0  0
  2 23  2  0  0  0  0
  2 26  1  0  0  0  0
  3 11  1  0  0  0  0
  3  4  1  0  0  0  0
  4 20  1  0  0  0  0
  5 24  2  0  0  0  0
  5  6  1  0  0  0  0
  6 18  1  0  0  0  0
  7 19  1  0  0  0  0
  7 23  1  0  0  0  0
  8 17  1  0  0  0  0
  8 12  2  0  0  0  0
  9 15  1  0  0  0  0
 10  1  1  0  0  0  0
 10 17  1  0  0  0  0
 11 13  1  0  0  0  0
 12  2  1  0  0  0  0
 13 12  1  0  0  0  0
 13 21  2  0  0  0  0
 14 26  2  0  0  0  0
 14 22  1  0  0  0  0
 16 19  1  0  0  0  0
 17  7  2  0  0  0  0
 18 15  2  0  0  0  0
 20 21  1  0  0  0  0
 21 14  1  0  0  0  0
 22 27  1  0  0  0  0
 25  9  2  0  0  0  0
 26  5  1  0  0  0  0
 27  6  2  0  0  0  0
 27 25  1  0  0  0  0
 29 28  1  0  0  0  0
 30 29  1  0  0  0  0
 31 32  1  0  0  0  0
 31 30  1  0  0  0  0
 32 30  1  0  0  0  0
M  END
>  <MODEL>
5

>  <REMARK>
 VINA RESULT:      -8.3      1.070      1.531
  Name = 
  3 active torsions:
  status: ('A' for Active; 'I' for Inactive)
    1  A    between atoms: C_1  and  C_10
    2  A    between atoms: C_2  and  C_24
    3  A    between atoms: C_10  and  C_24
                            x       y       z     vdW  Elec       q    Type
                         _______ _______ _______ _____ _____    ______ ____

>  <TORSDO>
F 3

$$$$
=
 OpenBabel11062410523D

 32 38  0  0  1  0  0  0  0  0999 V2000
  161.8600  210.6860  156.8290 C   0  0  1  0  0  3  0  0  0  0  0  0
  161.2260  207.8190  152.5740 C   0  0  0  0  0  0  0  0  0  0  0  0
  162.3830  210.9250  148.8710 C   0  0  0  0  0  2  0  0  0  0  0  0
  161.5380  210.0670  147.9500 C   0  0  0  0  0  2  0  0  0  0  0  0
  160.8210  205.3520  152.0560 C   0  0  0  0  0  0  0  0  0  0  0  0
  160.9890  204.2630  151.0820 C   0  0  0  0  0  0  0  0  0  0  0  0
  161.2570  208.6250  154.8830 C   0  0  0  0  0  0  0  0  0  0  0  0
  161.6320  210.1730  153.0630 C   0  0  0  0  0  3  0  0  0  0  0  0
  161.3600  202.2000  149.2220 C   0  0  0  0  0  3  0  0  0  0  0  0
  161.6090  211.0960  155.3770 C   0  0  0  0  0  2  0  0  0  0  0  0
  161.8270  210.8310  150.2850 C   0  0  0  0  0  2  0  0  0  0  0  0
  161.4960  209.1360  152.1240 C   0  0  0  0  0  0  0  0  0  0  0  0
  161.6320  209.4030  150.7510 C   0  0  0  0  0  0  0  0  0  0  0  0
  161.2250  207.0410  150.2570 C   0  0  0  0  0  0  0  0  0  0  0  0
  161.2070  201.8970  150.5780 C   0  0  0  0  0  3  0  0  0  0  0  0
  160.9500  209.5160  157.2160 C   0  0  0  0  0  2  0  0  0  0  0  0
  161.5280  209.9290  154.4310 C   0  0  0  0  0  0  0  0  0  0  0  0
  161.0220  202.9250  151.5050 C   0  0  0  0  0  3  0  0  0  0  0  0
  161.2170  208.2890  156.3460 C   0  0  0  0  0  2  0  0  0  0  0  0
  161.7100  208.6050  148.3400 C   0  0  0  0  0  2  0  0  0  0  0  0
  161.4840  208.3550  149.8150 C   0  0  0  0  0  0  0  0  0  0  0  0
  161.0030  205.9660  149.2150 C   0  0  0  0  0  2  0  0  0  0  0  0
  161.1240  207.5910  153.9580 C   0  0  0  0  0  3  0  0  0  0  0  0
  160.4630  205.0720  153.2330 O   0  0  0  0  0  0  0  0  0  0  0  0
  161.3230  203.5290  148.7960 C   0  0  0  0  0  3  0  0  0  0  0  0
  161.0780  206.7630  151.6380 C   0  0  0  0  0  0  0  0  0  0  0  0
  161.1480  204.5630  149.7210 C   0  0  0  0  0  0  0  0  0  0  0  0
  163.3350  210.3740  157.0530 C   0  0  0  0  0  2  0  0  0  0  0  0
  164.2080  211.4240  156.3920 C   0  0  0  0  0  2  0  0  0  0  0  0
  165.4170  211.6990  157.2610 C   0  0  0  0  0  3  0  0  0  0  0  0
  165.7580  213.1740  157.1910 C   0  0  0  0  0  2  0  0  0  0  0  0
  166.5570  212.1730  156.3840 C   0  0  0  0  0  2  0  0  0  0  0  0
  1 28  1  6  0  0  0
  1 16  1  0  0  0  0
  2 23  1  0  0  0  0
  3 11  1  0  0  0  0
  4 20  1  0  0  0  0
  4  3  1  0  0  0  0
  5 24  2  0  0  0  0
  6 18  1  0  0  0  0
  6  5  1  0  0  0  0
  7 19  1  0  0  0  0
  8 17  2  0  0  0  0
  9 15  1  0  0  0  0
 10  1  1  0  0  0  0
 11 13  1  0  0  0  0
 12  2  1  0  0  0  0
 12  8  1  0  0  0  0
 13 12  2  0  0  0  0
 14 26  1  0  0  0  0
 15 18  2  0  0  0  0
 17  7  1  0  0  0  0
 17 10  1  0  0  0  0
 19 16  1  0  0  0  0
 20 21  1  0  0  0  0
 21 14  2  0  0  0  0
 21 13  1  0  0  0  0
 22 27  1  0  0  0  0
 22 14  1  0  0  0  0
 23  7  2  0  0  0  0
 25  9  2  0  0  0  0
 25 27  1  0  0  0  0
 26  5  1  0  0  0  0
 26  2  2  0  0  0  0
 27  6  2  0  0  0  0
 29 28  1  0  0  0  0
 29 30  1  0  0  0  0
 31 30  1  0  0  0  0
 32 31  1  0  0  0  0
 32 30  1  0  0  0  0
M  END
>  <MODEL>
6

>  <REMARK>
 VINA RESULT:      -8.3      2.229      8.443
  Name = 
  3 active torsions:
  status: ('A' for Active; 'I' for Inactive)
    1  A    between atoms: C_1  and  C_10
    2  A    between atoms: C_2  and  C_24
    3  A    between atoms: C_10  and  C_24
                            x       y       z     vdW  Elec       q    Type
                         _______ _______ _______ _____ _____    ______ ____

>  <TORSDO>
F 3

$$$$
=
 OpenBabel11062410523D

 32 38  0  0  1  0  0  0  0  0999 V2000
  161.8350  204.0880  150.5910 C   0  0  1  0  0  3  0  0  0  0  0  0
  160.8850  208.9140  152.1810 C   0  0  0  0  0  0  0  0  0  0  0  0
  161.4900  211.6520  148.0780 C   0  0  0  0  0  2  0  0  0  0  0  0
  161.7670  212.8450  148.9720 C   0  0  0  0  0  2  0  0  0  0  0  0
  159.9550  210.0120  154.2900 C   0  0  0  0  0  0  0  0  0  0  0  0
  159.2450  211.1690  154.8570 C   0  0  0  0  0  0  0  0  0  0  0  0
  161.2810  206.5030  152.0950 C   0  0  0  0  0  0  0  0  0  0  0  0
  161.7550  207.8700  150.1570 C   0  0  0  0  0  3  0  0  0  0  0  0
  157.8570  213.3690  155.8980 C   0  0  0  0  0  3  0  0  0  0  0  0
  162.2580  205.4340  150.0020 C   0  0  0  0  0  2  0  0  0  0  0  0
  161.9210  210.3830  148.7980 C   0  0  0  0  0  2  0  0  0  0  0  0
  161.3330  209.0230  150.8400 C   0  0  0  0  0  0  0  0  0  0  0  0
  161.3510  210.2720  150.1980 C   0  0  0  0  0  0  0  0  0  0  0  0
  160.4780  211.3240  152.2270 C   0  0  0  0  0  0  0  0  0  0  0  0
  157.8350  212.1470  156.5740 C   0  0  0  0  0  3  0  0  0  0  0  0
  162.0100  204.0940  152.1130 C   0  0  0  0  0  2  0  0  0  0  0  0
  161.7210  206.6160  150.7640 C   0  0  0  0  0  0  0  0  0  0  0  0
  158.5270  211.0490  156.0560 C   0  0  0  0  0  3  0  0  0  0  0  0
  161.1440  205.1680  152.7700 C   0  0  0  0  0  2  0  0  0  0  0  0
  160.8660  212.7660  150.1960 C   0  0  0  0  0  2  0  0  0  0  0  0
  160.9340  211.4270  150.8970 C   0  0  0  0  0  0  0  0  0  0  0  0
  160.1090  212.5970  152.9580 C   0  0  0  0  0  2  0  0  0  0  0  0
  160.8570  207.6410  152.7780 C   0  0  0  0  0  3  0  0  0  0  0  0
  160.1190  208.9840  155.0040 O   0  0  0  0  0  0  0  0  0  0  0  0
  158.5740  213.4940  154.7060 C   0  0  0  0  0  3  0  0  0  0  0  0
  160.4630  210.0700  152.8870 C   0  0  0  0  0  0  0  0  0  0  0  0
  159.2610  212.3970  154.1770 C   0  0  0  0  0  0  0  0  0  0  0  0
  160.4110  203.7390  150.1710 C   0  0  0  0  0  2  0  0  0  0  0  0
  160.1970  202.2380  150.2110 C   0  0  0  0  0  2  0  0  0  0  0  0
  160.0260  201.7120  148.8010 C   0  0  0  0  0  3  0  0  0  0  0  0
  161.2100  200.8360  148.4480 C   0  0  0  0  0  2  0  0  0  0  0  0
  161.1410  202.2570  147.9330 C   0  0  0  0  0  2  0  0  0  0  0  0
  1 28  1  1  0  0  0
  1 16  1  0  0  0  0
  2 23  2  0  0  0  0
  2 26  1  0  0  0  0
  3 11  1  0  0  0  0
  3  4  1  0  0  0  0
  4 20  1  0  0  0  0
  5  6  1  0  0  0  0
  5 24  2  0  0  0  0
  6 18  1  0  0  0  0
  7 19  1  0  0  0  0
  7 23  1  0  0  0  0
  8 17  1  0  0  0  0
  8 12  2  0  0  0  0
  9 15  1  0  0  0  0
 10  1  1  0  0  0  0
 10 17  1  0  0  0  0
 11 13  1  0  0  0  0
 12  2  1  0  0  0  0
 13 12  1  0  0  0  0
 13 21  2  0  0  0  0
 14 26  2  0  0  0  0
 14 22  1  0  0  0  0
 16 19  1  0  0  0  0
 17  7  2  0  0  0  0
 18 15  2  0  0  0  0
 20 21  1  0  0  0  0
 21 14  1  0  0  0  0
 22 27  1  0  0  0  0
 25  9  2  0  0  0  0
 26  5  1  0  0  0  0
 27 25  1  0  0  0  0
 27  6  2  0  0  0  0
 28 29  1  0  0  0  0
 30 29  1  0  0  0  0
 31 30  1  0  0  0  0
 32 31  1  0  0  0  0
 32 30  1  0  0  0  0
M  END
>  <MODEL>
7

>  <REMARK>
 VINA RESULT:      -7.4      1.942      3.147
  Name = 
  3 active torsions:
  status: ('A' for Active; 'I' for Inactive)
    1  A    between atoms: C_1  and  C_10
    2  A    between atoms: C_2  and  C_24
    3  A    between atoms: C_10  and  C_24
                            x       y       z     vdW  Elec       q    Type
                         _______ _______ _______ _____ _____    ______ ____

>  <TORSDO>
F 3

$$$$
=
 OpenBabel11062410523D

 32 38  0  0  1  0  0  0  0  0999 V2000
  160.8710  208.7430  156.3950 C   0  0  1  0  0  3  0  0  0  0  0  0
  160.8270  206.3240  151.8270 C   0  0  0  0  0  0  0  0  0  0  0  0
  162.4110  209.7900  148.6370 C   0  0  0  0  0  2  0  0  0  0  0  0
  161.7030  209.0300  147.5330 C   0  0  0  0  0  2  0  0  0  0  0  0
  160.5230  203.9230  151.0150 C   0  0  0  0  0  0  0  0  0  0  0  0
  160.8290  202.9370  149.9660 C   0  0  0  0  0  0  0  0  0  0  0  0
  160.5500  206.8910  154.1890 C   0  0  0  0  0  0  0  0  0  0  0  0
  161.1370  208.6160  152.5990 C   0  0  0  0  0  3  0  0  0  0  0  0
  161.4630  201.0740  147.9710 C   0  0  0  0  0  3  0  0  0  0  0  0
  160.8040  209.2990  154.9720 C   0  0  0  0  0  2  0  0  0  0  0  0
  161.6780  209.5530  149.9500 C   0  0  0  0  0  2  0  0  0  0  0  0
  161.1360  207.6800  151.5510 C   0  0  0  0  0  0  0  0  0  0  0  0
  161.4440  208.0840  150.2410 C   0  0  0  0  0  0  0  0  0  0  0  0
  161.1330  205.7850  149.4630 C   0  0  0  0  0  0  0  0  0  0  0  0
  161.1410  200.6360  149.2580 C   0  0  0  0  0  3  0  0  0  0  0  0
  159.9350  207.5400  156.5420 C   0  0  0  0  0  2  0  0  0  0  0  0
  160.8610  208.2340  153.9100 C   0  0  0  0  0  0  0  0  0  0  0  0
  160.8240  201.5640  150.2530 C   0  0  0  0  0  3  0  0  0  0  0  0
  160.3270  206.4080  155.5940 C   0  0  0  0  0  2  0  0  0  0  0  0
  161.8410  207.5360  147.7920 C   0  0  0  0  0  2  0  0  0  0  0  0
  161.4300  207.1370  149.1930 C   0  0  0  0  0  0  0  0  0  0  0  0
  161.0620  204.8210  148.2980 C   0  0  0  0  0  2  0  0  0  0  0  0
  160.5510  205.9560  153.1560 C   0  0  0  0  0  3  0  0  0  0  0  0
  160.0210  203.5250  152.1020 O   0  0  0  0  0  0  0  0  0  0  0  0
  161.4640  202.4400  147.6800 C   0  0  0  0  0  3  0  0  0  0  0  0
  160.8140  205.3690  150.7780 C   0  0  0  0  0  0  0  0  0  0  0  0
  161.1580  203.3740  148.6740 C   0  0  0  0  0  0  0  0  0  0  0  0
  162.3090  208.4100  156.7760 C   0  0  0  0  0  2  0  0  0  0  0  0
  163.0410  209.6560  157.2380 C   0  0  0  0  0  2  0  0  0  0  0  0
  162.5860  210.8450  156.4170 C   0  0  0  0  0  3  0  0  0  0  0  0
  163.1090  212.1180  157.0500 C   0  0  0  0  0  2  0  0  0  0  0  0
  161.6690  211.7050  157.2610 C   0  0  0  0  0  2  0  0  0  0  0  0
  1 16  1  0  0  0  0
  1 28  1  6  0  0  0
  2 23  1  0  0  0  0
  3 11  1  0  0  0  0
  4 20  1  0  0  0  0
  4  3  1  0  0  0  0
  5 24  2  0  0  0  0
  6 18  1  0  0  0  0
  6  5  1  0  0  0  0
  7 19  1  0  0  0  0
  8 17  2  0  0  0  0
  9 15  1  0  0  0  0
 10  1  1  0  0  0  0
 11 13  1  0  0  0  0
 12  2  1  0  0  0  0
 12  8  1  0  0  0  0
 13 12  2  0  0  0  0
 14 26  1  0  0  0  0
 15 18  2  0  0  0  0
 17  7  1  0  0  0  0
 17 10  1  0  0  0  0
 19 16  1  0  0  0  0
 20 21  1  0  0  0  0
 21 14  2  0  0  0  0
 21 13  1  0  0  0  0
 22 27  1  0  0  0  0
 22 14  1  0  0  0  0
 23  7  2  0  0  0  0
 25  9  2  0  0  0  0
 25 27  1  0  0  0  0
 26  5  1  0  0  0  0
 26  2  2  0  0  0  0
 27  6  2  0  0  0  0
 28 29  1  0  0  0  0
 30 31  1  0  0  0  0
 30 29  1  0  0  0  0
 30 32  1  0  0  0  0
 31 32  1  0  0  0  0
M  END
>  <MODEL>
8

>  <REMARK>
 VINA RESULT:      -7.1      1.554      8.147
  Name = 
  3 active torsions:
  status: ('A' for Active; 'I' for Inactive)
    1  A    between atoms: C_1  and  C_10
    2  A    between atoms: C_2  and  C_24
    3  A    between atoms: C_10  and  C_24
                            x       y       z     vdW  Elec       q    Type
                         _______ _______ _______ _____ _____    ______ ____

>  <TORSDO>
F 3

$$$$
=
 OpenBabel11062410523D

 32 38  0  0  1  0  0  0  0  0999 V2000
  161.8710  204.3600  145.6590 C   0  0  1  0  0  3  0  0  0  0  0  0
  161.6760  207.2830  149.9180 C   0  0  0  0  0  0  0  0  0  0  0  0
  161.4970  211.9270  148.1590 C   0  0  0  0  0  2  0  0  0  0  0  0
  162.0620  212.4010  149.4840 C   0  0  0  0  0  2  0  0  0  0  0  0
  161.3510  206.8800  152.4180 C   0  0  0  0  0  0  0  0  0  0  0  0
  160.8800  207.4350  153.6960 C   0  0  0  0  0  0  0  0  0  0  0  0
  161.8640  205.4070  148.3620 C   0  0  0  0  0  0  0  0  0  0  0  0
  161.9670  207.6750  147.5300 C   0  0  0  0  0  3  0  0  0  0  0  0
  159.9390  208.5090  156.1080 C   0  0  0  0  0  3  0  0  0  0  0  0
  162.2400  205.8280  145.8800 C   0  0  0  0  0  2  0  0  0  0  0  0
  161.9920  210.5140  147.8860 C   0  0  0  0  0  2  0  0  0  0  0  0
  161.8030  208.1830  148.8300 C   0  0  0  0  0  0  0  0  0  0  0  0
  161.7600  209.5700  149.0470 C   0  0  0  0  0  0  0  0  0  0  0  0
  161.4680  209.1800  151.4450 C   0  0  0  0  0  0  0  0  0  0  0  0
  159.9880  207.1240  155.9330 C   0  0  0  0  0  3  0  0  0  0  0  0
  162.3980  203.4990  146.8100 C   0  0  0  0  0  2  0  0  0  0  0  0
  161.9860  206.3040  147.2850 C   0  0  0  0  0  0  0  0  0  0  0  0
  160.4580  206.5880  154.7310 C   0  0  0  0  0  3  0  0  0  0  0  0
  161.7930  203.9220  148.1480 C   0  0  0  0  0  2  0  0  0  0  0  0
  161.4710  211.5570  150.6040 C   0  0  0  0  0  2  0  0  0  0  0  0
  161.6040  210.0700  150.3600 C   0  0  0  0  0  0  0  0  0  0  0  0
  161.3740  209.7610  152.8400 C   0  0  0  0  0  2  0  0  0  0  0  0
  161.6960  205.9020  149.6540 C   0  0  0  0  0  3  0  0  0  0  0  0
  161.6030  205.6460  152.3420 O   0  0  0  0  0  0  0  0  0  0  0  0
  160.3640  209.3560  155.0820 C   0  0  0  0  0  3  0  0  0  0  0  0
  161.5170  207.7800  151.2370 C   0  0  0  0  0  0  0  0  0  0  0  0
  160.8250  208.8270  153.8740 C   0  0  0  0  0  0  0  0  0  0  0  0
  160.3670  204.2080  145.4610 C   0  0  0  0  0  2  0  0  0  0  0  0
  160.0680  203.0640  144.5090 C   0  0  0  0  0  2  0  0  0  0  0  0
  159.4660  201.9080  145.2790 C   0  0  0  0  0  3  0  0  0  0  0  0
  160.5700  200.9640  145.7080 C   0  0  0  0  0  2  0  0  0  0  0  0
  159.7060  200.6260  144.5120 C   0  0  0  0  0  2  0  0  0  0  0  0
  1 28  1  1  0  0  0
  1 10  1  0  0  0  0
  1 16  1  0  0  0  0
  2 26  1  0  0  0  0
  3  4  1  0  0  0  0
  4 20  1  0  0  0  0
  5  6  1  0  0  0  0
  6 27  2  0  0  0  0
  6 18  1  0  0  0  0
  7 23  1  0  0  0  0
  8 12  2  0  0  0  0
 10 17  1  0  0  0  0
 11  3  1  0  0  0  0
 11 13  1  0  0  0  0
 12 13  1  0  0  0  0
 12  2  1  0  0  0  0
 13 21  2  0  0  0  0
 14 22  1  0  0  0  0
 15  9  1  0  0  0  0
 16 19  1  0  0  0  0
 17  8  1  0  0  0  0
 17  7  2  0  0  0  0
 18 15  2  0  0  0  0
 19  7  1  0  0  0  0
 21 20  1  0  0  0  0
 21 14  1  0  0  0  0
 22 27  1  0  0  0  0
 23  2  2  0  0  0  0
 24  5  2  0  0  0  0
 25  9  2  0  0  0  0
 26 14  2  0  0  0  0
 26  5  1  0  0  0  0
 27 25  1  0  0  0  0
 29 30  1  0  0  0  0
 29 28  1  0  0  0  0
 30 31  1  0  0  0  0
 32 30  1  0  0  0  0
 32 31  1  0  0  0  0
M  END
>  <MODEL>
9

>  <REMARK>
 VINA RESULT:      -6.7      1.533      2.333
  Name = 
  3 active torsions:
  status: ('A' for Active; 'I' for Inactive)
    1  A    between atoms: C_1  and  C_10
    2  A    between atoms: C_2  and  C_24
    3  A    between atoms: C_10  and  C_24
                            x       y       z     vdW  Elec       q    Type
                         _______ _______ _______ _____ _____    ______ ____

>  <TORSDO>
F 3

$$$$
