=
 OpenBabel11052423093D

 27 31  0  0  1  0  0  0  0  0999 V2000
  162.2020  211.3250  149.0380 N   0  0  0  0  0  2  0  0  0  0  0  0
  162.2480  213.5190  148.2240 O   0  0  0  0  0  0  0  0  0  0  0  0
  161.2760  208.8120  151.7130 C   0  0  1  0  0  3  0  0  0  0  0  0
  159.9870  210.9920  151.9980 C   0  0  0  0  0  2  0  0  0  0  0  0
  160.4090  213.0660  150.1250 S   0  0  0  0  0  0  0  0  0  0  0  0
  160.6450  209.8050  152.7260 C   0  0  2  0  0  3  0  0  0  0  0  0
  161.7180  212.6590  148.9730 C   0  0  0  0  0  0  0  0  0  0  0  0
  161.4400  210.6010  150.0300 C   0  0  2  0  0  3  0  0  0  0  0  0
  161.0040  211.6240  151.0580 C   0  0  2  0  0  3  0  0  0  0  0  0
  162.2250  209.5000  150.7220 C   0  0  0  0  0  2  0  0  0  0  0  0
  161.9600  207.6210  152.3750 C   0  0  0  0  0  2  0  0  0  0  0  0
  160.6790  203.9310  150.6010 C   0  0  0  0  0  3  0  0  0  0  0  0
  161.5110  206.3390  151.7600 C   0  0  0  0  0  0  0  0  0  0  0  0
  161.3160  205.2050  152.5590 C   0  0  0  0  0  3  0  0  0  0  0  0
  160.9010  204.0030  151.9790 C   0  0  0  0  0  3  0  0  0  0  0  0
  160.8730  205.0620  149.8010 C   0  0  0  0  0  3  0  0  0  0  0  0
  161.2880  206.2640  150.3810 C   0  0  0  0  0  3  0  0  0  0  0  0
  161.6600  210.3260  153.7420 C   0  0  0  0  0  2  0  0  0  0  0  0
  161.8990  210.5240  156.2210 C   0  0  2  0  0  0  0  0  0  0  0  0
  160.0530  207.8960  156.2120 C   0  0  0  0  0  1  0  0  0  0  0  0
  159.0930  210.1580  155.6520 C   0  0  0  0  0  2  0  0  0  0  0  0
  162.5490  209.8420  157.2610 O   0  0  0  0  0  0  0  0  0  0  0  0
  163.3270  210.7480  156.5070 C   0  0  0  0  0  2  0  0  0  0  0  0
  160.0860  209.0620  155.2380 C   0  0  1  0  0  3  0  0  0  0  0  0
  159.5350  210.8660  156.9360 C   0  0  0  0  0  2  0  0  0  0  0  0
  160.8900  211.5390  156.7410 C   0  0  0  0  0  2  0  0  0  0  0  0
  161.5180  209.5950  155.0700 C   0  0  1  0  0  3  0  0  0  0  0  0
  1  8  1  0  0  0  0
  2  7  2  0  0  0  0
  3 11  1  1  0  0  0
  3  6  1  0  0  0  0
  4  6  1  0  0  0  0
  5  9  1  0  0  0  0
  6 18  1  1  0  0  0
  7  1  1  0  0  0  0
  7  5  1  0  0  0  0
  8 10  1  1  0  0  0
  8  9  1  0  0  0  0
  9  4  1  6  0  0  0
 10  3  1  0  0  0  0
 12 15  1  0  0  0  0
 13 11  1  0  0  0  0
 13 14  1  0  0  0  0
 15 14  2  0  0  0  0
 16 17  1  0  0  0  0
 16 12  2  0  0  0  0
 17 13  2  0  0  0  0
 19 23  1  6  0  0  0
 19 26  1  0  0  0  0
 19 22  1  0  0  0  0
 21 25  1  0  0  0  0
 23 22  1  0  0  0  0
 24 21  1  0  0  0  0
 24 20  1  1  0  0  0
 26 25  1  0  0  0  0
 27 18  1  6  0  0  0
 27 24  1  0  0  0  0
 27 19  1  0  0  0  0
M  END
>  <MODEL>
1

>  <REMARK>
 VINA RESULT:      -7.0      0.000      0.000
  Name = 
  4 active torsions:
  status: ('A' for Active; 'I' for Inactive)
    1  A    between atoms: C_2  and  C_6
    2  A    between atoms: C_2  and  C_9
    3  A    between atoms: C_3  and  C_14
    4  A    between atoms: C_3  and  C_26
                            x       y       z     vdW  Elec       q    Type
                         _______ _______ _______ _____ _____    ______ ____

>  <TORSDO>
F 4

$$$$
=
 OpenBabel11052423093D

 27 31  0  0  1  0  0  0  0  0999 V2000
  162.5070  210.0780  149.1990 N   0  0  0  0  0  2  0  0  0  0  0  0
  162.7890  212.3130  148.5650 O   0  0  0  0  0  0  0  0  0  0  0  0
  161.2480  207.4670  151.6330 C   0  0  1  0  0  3  0  0  0  0  0  0
  160.1590  209.7330  152.0520 C   0  0  0  0  0  2  0  0  0  0  0  0
  160.8440  211.8940  150.3650 S   0  0  0  0  0  0  0  0  0  0  0  0
  160.6740  208.4360  152.7030 C   0  0  2  0  0  3  0  0  0  0  0  0
  162.1520  211.4530  149.2250 C   0  0  0  0  0  0  0  0  0  0  0  0
  161.6430  209.3560  150.1050 C   0  0  2  0  0  3  0  0  0  0  0  0
  161.2650  210.3350  151.1980 C   0  0  2  0  0  3  0  0  0  0  0  0
  162.2950  208.1360  150.7310 C   0  0  0  0  0  2  0  0  0  0  0  0
  161.7920  206.1690  152.2190 C   0  0  0  0  0  2  0  0  0  0  0  0
  160.7350  202.8180  149.7580 C   0  0  0  0  0  3  0  0  0  0  0  0
  161.4280  205.0040  151.3610 C   0  0  0  0  0  0  0  0  0  0  0  0
  161.1820  205.1860  149.9940 C   0  0  0  0  0  3  0  0  0  0  0  0
  160.8350  204.0930  149.1940 C   0  0  0  0  0  3  0  0  0  0  0  0
  160.9820  202.6340  151.1220 C   0  0  0  0  0  3  0  0  0  0  0  0
  161.3280  203.7260  151.9220 C   0  0  0  0  0  3  0  0  0  0  0  0
  161.6930  208.7770  153.7880 C   0  0  0  0  0  2  0  0  0  0  0  0
  161.0800  208.6510  156.2070 C   0  0  2  0  0  0  0  0  0  0  0  0
  160.7530  211.8290  155.8820 C   0  0  0  0  0  1  0  0  0  0  0  0
  163.0330  210.7570  155.9220 C   0  0  0  0  0  2  0  0  0  0  0  0
  159.9280  208.7970  156.9960 O   0  0  0  0  0  0  0  0  0  0  0  0
  160.1110  207.5520  156.3560 C   0  0  0  0  0  2  0  0  0  0  0  0
  161.6970  210.8740  155.1720 C   0  0  1  0  0  3  0  0  0  0  0  0
  162.8690  210.0310  157.2600 C   0  0  0  0  0  2  0  0  0  0  0  0
  162.3510  208.6120  157.0440 C   0  0  0  0  0  2  0  0  0  0  0  0
  161.0270  209.5090  154.9450 C   0  0  1  0  0  3  0  0  0  0  0  0
  1  7  1  0  0  0  0
  1  8  1  0  0  0  0
  2  7  2  0  0  0  0
  3 11  1  1  0  0  0
  3  6  1  0  0  0  0
  4  6  1  0  0  0  0
  5  9  1  0  0  0  0
  6 18  1  1  0  0  0
  7  5  1  0  0  0  0
  8 10  1  1  0  0  0
  8  9  1  0  0  0  0
  9  4  1  6  0  0  0
 10  3  1  0  0  0  0
 12 16  1  0  0  0  0
 13 17  1  0  0  0  0
 13 11  1  0  0  0  0
 14 13  2  0  0  0  0
 15 12  2  0  0  0  0
 15 14  1  0  0  0  0
 16 17  2  0  0  0  0
 19 23  1  6  0  0  0
 19 22  1  0  0  0  0
 19 26  1  0  0  0  0
 21 25  1  0  0  0  0
 23 22  1  0  0  0  0
 24 20  1  1  0  0  0
 24 21  1  0  0  0  0
 26 25  1  0  0  0  0
 27 18  1  6  0  0  0
 27 24  1  0  0  0  0
 27 19  1  0  0  0  0
M  END
>  <MODEL>
2

>  <REMARK>
 VINA RESULT:      -6.8      1.271      2.360
  Name = 
  4 active torsions:
  status: ('A' for Active; 'I' for Inactive)
    1  A    between atoms: C_2  and  C_6
    2  A    between atoms: C_2  and  C_9
    3  A    between atoms: C_3  and  C_14
    4  A    between atoms: C_3  and  C_26
                            x       y       z     vdW  Elec       q    Type
                         _______ _______ _______ _____ _____    ______ ____

>  <TORSDO>
F 4

$$$$
=
 OpenBabel11052423093D

 27 31  0  0  1  0  0  0  0  0999 V2000
  160.5040  206.8870  155.0540 N   0  0  0  0  0  2  0  0  0  0  0  0
  159.7270  206.8490  157.2610 O   0  0  0  0  0  0  0  0  0  0  0  0
  161.6520  208.7860  151.9860 C   0  0  1  0  0  3  0  0  0  0  0  0
  161.7130  210.2550  154.0680 C   0  0  0  0  0  2  0  0  0  0  0  0
  160.9640  209.1200  156.5460 S   0  0  0  0  0  0  0  0  0  0  0  0
  161.4710  210.2220  152.5480 C   0  0  2  0  0  3  0  0  0  0  0  0
  160.3490  207.4510  156.3480 C   0  0  0  0  0  0  0  0  0  0  0  0
  161.1960  207.8360  154.2120 C   0  0  2  0  0  3  0  0  0  0  0  0
  160.8300  209.2100  154.7360 C   0  0  2  0  0  3  0  0  0  0  0  0
  160.8170  207.7440  152.7440 C   0  0  0  0  0  2  0  0  0  0  0  0
  161.4070  208.6840  150.4860 C   0  0  0  0  0  2  0  0  0  0  0  0
  161.0610  204.5850  149.2670 C   0  0  0  0  0  3  0  0  0  0  0  0
  161.2900  207.2600  150.0600 C   0  0  0  0  0  0  0  0  0  0  0  0
  160.8540  206.9450  148.7660 C   0  0  0  0  0  3  0  0  0  0  0  0
  160.7390  205.6090  148.3720 C   0  0  0  0  0  3  0  0  0  0  0  0
  161.4980  204.8970  150.5580 C   0  0  0  0  0  3  0  0  0  0  0  0
  161.6130  206.2330  150.9530 C   0  0  0  0  0  3  0  0  0  0  0  0
  160.0910  210.8000  152.2360 C   0  0  0  0  0  2  0  0  0  0  0  0
  159.3670  213.1210  151.6620 C   0  0  2  0  0  0  0  0  0  0  0  0
  159.4790  213.5190  154.8470 C   0  0  0  0  0  1  0  0  0  0  0  0
  157.6380  212.1760  153.7710 C   0  0  0  0  0  2  0  0  0  0  0  0
  159.9170  214.4120  151.6650 O   0  0  0  0  0  0  0  0  0  0  0  0
  160.2270  213.5880  150.5610 C   0  0  0  0  0  2  0  0  0  0  0  0
  159.1480  212.2780  154.0360 C   0  0  1  0  0  3  0  0  0  0  0  0
  157.1570  213.2640  152.8080 C   0  0  0  0  0  2  0  0  0  0  0  0
  157.8580  213.1380  151.4590 C   0  0  0  0  0  2  0  0  0  0  0  0
  159.9780  212.2310  152.7430 C   0  0  1  0  0  3  0  0  0  0  0  0
  1  7  1  0  0  0  0
  3 11  1  6  0  0  0
  3  6  1  0  0  0  0
  3 10  1  0  0  0  0
  6 18  1  1  0  0  0
  6  4  1  0  0  0  0
  7  5  1  0  0  0  0
  7  2  2  0  0  0  0
  8 10  1  6  0  0  0
  8  9  1  0  0  0  0
  8  1  1  0  0  0  0
  9  4  1  6  0  0  0
  9  5  1  0  0  0  0
 12 16  1  0  0  0  0
 13 11  1  0  0  0  0
 13 17  1  0  0  0  0
 14 13  2  0  0  0  0
 15 14  1  0  0  0  0
 15 12  2  0  0  0  0
 16 17  2  0  0  0  0
 19 23  1  6  0  0  0
 19 22  1  0  0  0  0
 19 27  1  0  0  0  0
 21 24  1  0  0  0  0
 23 22  1  0  0  0  0
 24 20  1  6  0  0  0
 25 21  1  0  0  0  0
 26 19  1  0  0  0  0
 26 25  1  0  0  0  0
 27 18  1  6  0  0  0
 27 24  1  0  0  0  0
M  END
>  <MODEL>
3

>  <REMARK>
 VINA RESULT:      -5.9      2.915      5.201
  Name = 
  4 active torsions:
  status: ('A' for Active; 'I' for Inactive)
    1  A    between atoms: C_2  and  C_6
    2  A    between atoms: C_2  and  C_9
    3  A    between atoms: C_3  and  C_14
    4  A    between atoms: C_3  and  C_26
                            x       y       z     vdW  Elec       q    Type
                         _______ _______ _______ _____ _____    ______ ____

>  <TORSDO>
F 4

$$$$
=
 OpenBabel11052423093D

 27 31  0  0  1  0  0  0  0  0999 V2000
  160.1480  213.1800  149.6390 N   0  0  0  0  0  2  0  0  0  0  0  0
  160.5060  213.7370  147.3940 O   0  0  0  0  0  0  0  0  0  0  0  0
  160.7640  210.9390  152.6260 C   0  0  1  0  0  3  0  0  0  0  0  0
  162.5270  210.5870  150.8190 C   0  0  0  0  0  2  0  0  0  0  0  0
  162.3850  212.1530  148.4710 S   0  0  0  0  0  0  0  0  0  0  0  0
  161.7020  209.9140  151.9310 C   0  0  2  0  0  3  0  0  0  0  0  0
  160.9070  213.1620  148.4380 C   0  0  0  0  0  0  0  0  0  0  0  0
  160.8290  212.3810  150.6320 C   0  0  2  0  0  3  0  0  0  0  0  0
  161.5850  211.3130  149.8690 C   0  0  2  0  0  3  0  0  0  0  0  0
  159.8950  211.7170  151.6290 C   0  0  0  0  0  2  0  0  0  0  0  0
  159.9060  210.3270  153.7270 C   0  0  0  0  0  2  0  0  0  0  0  0
  162.3300  208.9650  156.9940 C   0  0  0  0  0  3  0  0  0  0  0  0
  160.7510  209.8510  154.8600 C   0  0  0  0  0  0  0  0  0  0  0  0
  160.6630  208.5220  155.2940 C   0  0  0  0  0  3  0  0  0  0  0  0
  161.4530  208.0810  156.3610 C   0  0  0  0  0  3  0  0  0  0  0  0
  162.4200  210.2920  156.5620 C   0  0  0  0  0  3  0  0  0  0  0  0
  161.6310  210.7330  155.4960 C   0  0  0  0  0  3  0  0  0  0  0  0
  160.9380  208.7240  151.3530 C   0  0  0  0  0  2  0  0  0  0  0  0
  161.7190  206.3570  151.5280 C   0  0  2  0  0  0  0  0  0  0  0  0
  162.9350  206.9590  148.6180 C   0  0  0  0  0  1  0  0  0  0  0  0
  160.4560  206.6580  148.9510 C   0  0  0  0  0  2  0  0  0  0  0  0
  162.9340  205.6730  151.6930 O   0  0  0  0  0  0  0  0  0  0  0  0
  162.3310  206.1960  152.8590 C   0  0  0  0  0  2  0  0  0  0  0  0
  161.6870  207.5150  149.2810 C   0  0  1  0  0  3  0  0  0  0  0  0
  160.5270  205.2830  149.6210 C   0  0  0  0  0  2  0  0  0  0  0  0
  160.5810  205.4240  151.1380 C   0  0  0  0  0  2  0  0  0  0  0  0
  161.9000  207.6840  150.7940 C   0  0  1  0  0  3  0  0  0  0  0  0
  1  8  1  0  0  0  0
  2  7  2  0  0  0  0
  3 11  1  1  0  0  0
  4  6  1  0  0  0  0
  5  9  1  0  0  0  0
  6 18  1  6  0  0  0
  6  3  1  0  0  0  0
  7  5  1  0  0  0  0
  7  1  1  0  0  0  0
  8 10  1  1  0  0  0
  9  8  1  0  0  0  0
  9  4  1  1  0  0  0
 10  3  1  0  0  0  0
 11 13  1  0  0  0  0
 13 14  2  0  0  0  0
 13 17  1  0  0  0  0
 14 15  1  0  0  0  0
 15 12  2  0  0  0  0
 16 12  1  0  0  0  0
 17 16  2  0  0  0  0
 19 26  1  6  0  0  0
 19 22  1  0  0  0  0
 19 23  1  0  0  0  0
 21 24  1  0  0  0  0
 21 25  1  0  0  0  0
 22 23  1  0  0  0  0
 24 20  1  1  0  0  0
 24 27  1  0  0  0  0
 25 26  1  0  0  0  0
 27 18  1  1  0  0  0
 27 19  1  0  0  0  0
M  END
>  <MODEL>
4

>  <REMARK>
 VINA RESULT:      -5.7      1.971      5.474
  Name = 
  4 active torsions:
  status: ('A' for Active; 'I' for Inactive)
    1  A    between atoms: C_2  and  C_6
    2  A    between atoms: C_2  and  C_9
    3  A    between atoms: C_3  and  C_14
    4  A    between atoms: C_3  and  C_26
                            x       y       z     vdW  Elec       q    Type
                         _______ _______ _______ _____ _____    ______ ____

>  <TORSDO>
F 4

$$$$
=
 OpenBabel11052423093D

 27 31  0  0  1  0  0  0  0  0999 V2000
  160.6090  208.0230  153.1780 N   0  0  0  0  0  2  0  0  0  0  0  0
  160.0780  208.9450  155.2630 O   0  0  0  0  0  0  0  0  0  0  0  0
  161.9930  208.3620  149.6710 C   0  0  1  0  0  3  0  0  0  0  0  0
  162.7160  210.3090  151.1490 C   0  0  0  0  0  2  0  0  0  0  0  0
  161.8920  210.3310  153.8520 S   0  0  0  0  0  0  0  0  0  0  0  0
  162.3290  209.8770  149.7230 C   0  0  2  0  0  3  0  0  0  0  0  0
  160.7660  208.9860  154.2100 C   0  0  0  0  0  0  0  0  0  0  0  0
  161.4800  208.3730  152.0780 C   0  0  2  0  0  3  0  0  0  0  0  0
  161.6180  209.8820  152.1130 C   0  0  2  0  0  3  0  0  0  0  0  0
  160.9490  207.9510  150.7190 C   0  0  0  0  0  2  0  0  0  0  0  0
  161.5840  207.8770  148.2850 C   0  0  0  0  0  2  0  0  0  0  0  0
  161.4340  203.5920  148.1370 C   0  0  0  0  0  3  0  0  0  0  0  0
  161.5360  206.3870  148.2340 C   0  0  0  0  0  0  0  0  0  0  0  0
  162.1160  205.7000  147.1600 C   0  0  0  0  0  3  0  0  0  0  0  0
  162.0640  204.3030  147.1130 C   0  0  0  0  0  3  0  0  0  0  0  0
  160.8550  204.2750  149.2110 C   0  0  0  0  0  3  0  0  0  0  0  0
  160.9070  205.6710  149.2590 C   0  0  0  0  0  3  0  0  0  0  0  0
  161.1780  210.7470  149.2180 C   0  0  0  0  0  2  0  0  0  0  0  0
  162.1520  212.5760  147.8220 C   0  0  2  0  0  0  0  0  0  0  0  0
  160.8430  214.4530  150.0740 C   0  0  0  0  0  1  0  0  0  0  0  0
  159.4080  213.2790  148.3690 C   0  0  0  0  0  2  0  0  0  0  0  0
  163.1980  213.5070  147.9130 O   0  0  0  0  0  0  0  0  0  0  0  0
  163.5420  212.1970  147.5140 C   0  0  0  0  0  2  0  0  0  0  0  0
  160.3800  213.1070  149.5450 C   0  0  1  0  0  3  0  0  0  0  0  0
  160.1130  213.8290  147.1260 C   0  0  0  0  0  2  0  0  0  0  0  0
  161.2110  212.8770  146.6640 C   0  0  0  0  0  2  0  0  0  0  0  0
  161.5810  212.2150  149.1920 C   0  0  1  0  0  3  0  0  0  0  0  0
  1  7  1  0  0  0  0
  3 11  1  6  0  0  0
  3  6  1  0  0  0  0
  3 10  1  0  0  0  0
  5  7  1  0  0  0  0
  6 18  1  1  0  0  0
  6  4  1  0  0  0  0
  7  2  2  0  0  0  0
  8 10  1  6  0  0  0
  8  9  1  0  0  0  0
  8  1  1  0  0  0  0
  9  4  1  6  0  0  0
  9  5  1  0  0  0  0
 12 16  1  0  0  0  0
 13 11  1  0  0  0  0
 13 17  1  0  0  0  0
 14 13  2  0  0  0  0
 15 14  1  0  0  0  0
 15 12  2  0  0  0  0
 16 17  2  0  0  0  0
 19 26  1  6  0  0  0
 19 22  1  0  0  0  0
 19 27  1  0  0  0  0
 21 24  1  0  0  0  0
 23 19  1  0  0  0  0
 23 22  1  0  0  0  0
 24 20  1  6  0  0  0
 25 21  1  0  0  0  0
 26 25  1  0  0  0  0
 27 18  1  6  0  0  0
 27 24  1  0  0  0  0
M  END
>  <MODEL>
5

>  <REMARK>
 VINA RESULT:      -5.6      2.519      6.181
  Name = 
  4 active torsions:
  status: ('A' for Active; 'I' for Inactive)
    1  A    between atoms: C_2  and  C_6
    2  A    between atoms: C_2  and  C_9
    3  A    between atoms: C_3  and  C_14
    4  A    between atoms: C_3  and  C_26
                            x       y       z     vdW  Elec       q    Type
                         _______ _______ _______ _____ _____    ______ ____

>  <TORSDO>
F 4

$$$$
=
 OpenBabel11052423093D

 27 31  0  0  1  0  0  0  0  0999 V2000
  160.7810  208.0140  152.7260 N   0  0  0  0  0  2  0  0  0  0  0  0
  160.2370  208.8760  154.8330 O   0  0  0  0  0  0  0  0  0  0  0  0
  162.0510  208.4830  149.1910 C   0  0  1  0  0  3  0  0  0  0  0  0
  162.6690  210.4630  150.6730 C   0  0  0  0  0  2  0  0  0  0  0  0
  161.9130  210.4000  153.3950 S   0  0  0  0  0  0  0  0  0  0  0  0
  162.2790  210.0180  149.2510 C   0  0  2  0  0  3  0  0  0  0  0  0
  160.8940  208.9750  153.7650 C   0  0  0  0  0  0  0  0  0  0  0  0
  161.5970  208.4350  151.6100 C   0  0  2  0  0  3  0  0  0  0  0  0
  161.6280  209.9490  151.6580 C   0  0  2  0  0  3  0  0  0  0  0  0
  161.0650  207.9890  150.2600 C   0  0  0  0  0  2  0  0  0  0  0  0
  161.6430  207.9830  147.8100 C   0  0  0  0  0  2  0  0  0  0  0  0
  161.6960  203.6950  147.6610 C   0  0  0  0  0  3  0  0  0  0  0  0
  161.6580  206.4920  147.7570 C   0  0  0  0  0  0  0  0  0  0  0  0
  160.9850  205.7470  148.7340 C   0  0  0  0  0  3  0  0  0  0  0  0
  161.0060  204.3490  148.6850 C   0  0  0  0  0  3  0  0  0  0  0  0
  162.3670  204.4380  146.6840 C   0  0  0  0  0  3  0  0  0  0  0  0
  162.3470  205.8350  146.7330 C   0  0  0  0  0  3  0  0  0  0  0  0
  161.0570  210.8080  148.7840 C   0  0  0  0  0  2  0  0  0  0  0  0
  160.3210  212.4250  147.0270 C   0  0  2  0  0  0  0  0  0  0  0  0
  162.8660  214.0910  148.0560 C   0  0  0  0  0  1  0  0  0  0  0  0
  160.7730  213.9300  149.4480 C   0  0  0  0  0  2  0  0  0  0  0  0
  160.7670  212.8700  145.7730 O   0  0  0  0  0  0  0  0  0  0  0  0
  160.0570  211.6490  145.8030 C   0  0  0  0  0  2  0  0  0  0  0  0
  161.9440  213.1580  148.8220 C   0  0  1  0  0  3  0  0  0  0  0  0
  159.8050  214.4520  148.3830 C   0  0  0  0  0  2  0  0  0  0  0  0
  159.2060  213.2970  147.5860 C   0  0  0  0  0  2  0  0  0  0  0  0
  161.4760  211.9970  147.9300 C   0  0  1  0  0  3  0  0  0  0  0  0
  1  7  1  0  0  0  0
  3 11  1  6  0  0  0
  3  6  1  0  0  0  0
  3 10  1  0  0  0  0
  5  7  1  0  0  0  0
  6 18  1  1  0  0  0
  6  4  1  0  0  0  0
  7  2  2  0  0  0  0
  8 10  1  6  0  0  0
  8  9  1  0  0  0  0
  8  1  1  0  0  0  0
  9  4  1  6  0  0  0
  9  5  1  0  0  0  0
 12 15  1  0  0  0  0
 13 11  1  0  0  0  0
 13 14  1  0  0  0  0
 15 14  2  0  0  0  0
 16 17  1  0  0  0  0
 16 12  2  0  0  0  0
 17 13  2  0  0  0  0
 19 23  1  6  0  0  0
 19 26  1  0  0  0  0
 19 27  1  0  0  0  0
 22 23  1  0  0  0  0
 22 19  1  0  0  0  0
 24 20  1  6  0  0  0
 24 21  1  0  0  0  0
 25 21  1  0  0  0  0
 26 25  1  0  0  0  0
 27 18  1  1  0  0  0
 27 24  1  0  0  0  0
M  END
>  <MODEL>
6

>  <REMARK>
 VINA RESULT:      -5.0      2.705      6.518
  Name = 
  4 active torsions:
  status: ('A' for Active; 'I' for Inactive)
    1  A    between atoms: C_2  and  C_6
    2  A    between atoms: C_2  and  C_9
    3  A    between atoms: C_3  and  C_14
    4  A    between atoms: C_3  and  C_26
                            x       y       z     vdW  Elec       q    Type
                         _______ _______ _______ _____ _____    ______ ____

>  <TORSDO>
F 4

$$$$
=
 OpenBabel11052423093D

 27 31  0  0  1  0  0  0  0  0999 V2000
  159.9040  213.0560  150.1230 N   0  0  0  0  0  2  0  0  0  0  0  0
  160.0620  213.7660  147.8990 O   0  0  0  0  0  0  0  0  0  0  0  0
  160.8240  210.6510  152.8990 C   0  0  1  0  0  3  0  0  0  0  0  0
  162.4430  210.4740  150.9380 C   0  0  0  0  0  2  0  0  0  0  0  0
  162.0670  212.1790  148.7160 S   0  0  0  0  0  0  0  0  0  0  0  0
  161.7300  209.7050  152.0650 C   0  0  2  0  0  3  0  0  0  0  0  0
  160.5630  213.1390  148.8680 C   0  0  0  0  0  0  0  0  0  0  0  0
  160.6850  212.2180  151.0050 C   0  0  2  0  0  3  0  0  0  0  0  0
  161.4070  211.2260  150.1160 C   0  0  2  0  0  3  0  0  0  0  0  0
  159.8550  211.4620  152.0260 C   0  0  0  0  0  2  0  0  0  0  0  0
  160.0750  209.9430  154.0210 C   0  0  0  0  0  2  0  0  0  0  0  0
  158.6310  212.7510  156.9260 C   0  0  0  0  0  3  0  0  0  0  0  0
  159.5740  210.9220  155.0280 C   0  0  0  0  0  0  0  0  0  0  0  0
  160.4600  211.8180  155.6410 C   0  0  0  0  0  3  0  0  0  0  0  0
  159.9880  212.7300  156.5900 C   0  0  0  0  0  3  0  0  0  0  0  0
  157.7450  211.8590  156.3140 C   0  0  0  0  0  3  0  0  0  0  0  0
  158.2170  210.9460  155.3670 C   0  0  0  0  0  3  0  0  0  0  0  0
  160.9550  208.5280  151.4720 C   0  0  0  0  0  2  0  0  0  0  0  0
  161.7090  206.1470  151.5120 C   0  0  2  0  0  0  0  0  0  0  0  0
  162.9340  206.9010  148.6410 C   0  0  0  0  0  1  0  0  0  0  0  0
  160.4520  206.6100  148.9560 C   0  0  0  0  0  2  0  0  0  0  0  0
  162.9160  205.4410  151.6380 O   0  0  0  0  0  0  0  0  0  0  0  0
  162.3180  205.9030  152.8310 C   0  0  0  0  0  2  0  0  0  0  0  0
  161.6920  207.4320  149.3350 C   0  0  1  0  0  3  0  0  0  0  0  0
  160.5070  205.1980  149.5450 C   0  0  0  0  0  2  0  0  0  0  0  0
  160.5610  205.2510  151.0690 C   0  0  0  0  0  2  0  0  0  0  0  0
  161.9060  207.5120  150.8550 C   0  0  1  0  0  3  0  0  0  0  0  0
  1  8  1  0  0  0  0
  2  7  2  0  0  0  0
  3 11  1  1  0  0  0
  4  6  1  0  0  0  0
  5  7  1  0  0  0  0
  5  9  1  0  0  0  0
  6 18  1  6  0  0  0
  6  3  1  0  0  0  0
  7  1  1  0  0  0  0
  8 10  1  1  0  0  0
  9  4  1  1  0  0  0
  9  8  1  0  0  0  0
 10  3  1  0  0  0  0
 11 13  1  0  0  0  0
 13 17  2  0  0  0  0
 13 14  1  0  0  0  0
 14 15  2  0  0  0  0
 15 12  1  0  0  0  0
 16 12  2  0  0  0  0
 17 16  1  0  0  0  0
 19 26  1  6  0  0  0
 19 22  1  0  0  0  0
 19 23  1  0  0  0  0
 21 24  1  0  0  0  0
 21 25  1  0  0  0  0
 22 23  1  0  0  0  0
 24 20  1  6  0  0  0
 24 27  1  0  0  0  0
 25 26  1  0  0  0  0
 27 18  1  1  0  0  0
 27 19  1  0  0  0  0
M  END
>  <MODEL>
7

>  <REMARK>
 VINA RESULT:      -5.0      2.129      6.132
  Name = 
  4 active torsions:
  status: ('A' for Active; 'I' for Inactive)
    1  A    between atoms: C_2  and  C_6
    2  A    between atoms: C_2  and  C_9
    3  A    between atoms: C_3  and  C_14
    4  A    between atoms: C_3  and  C_26
                            x       y       z     vdW  Elec       q    Type
                         _______ _______ _______ _____ _____    ______ ____

>  <TORSDO>
F 4

$$$$
=
 OpenBabel11052423093D

 27 31  0  0  1  0  0  0  0  0999 V2000
  162.7060  209.0320  150.0850 N   0  0  0  0  0  2  0  0  0  0  0  0
  162.5930  209.8740  152.2660 O   0  0  0  0  0  0  0  0  0  0  0  0
  161.7130  206.4800  147.4720 C   0  0  1  0  0  3  0  0  0  0  0  0
  160.1240  206.4380  149.4660 C   0  0  0  0  0  2  0  0  0  0  0  0
  160.5570  208.2670  151.5760 S   0  0  0  0  0  0  0  0  0  0  0  0
  160.8100  205.5950  148.3750 C   0  0  2  0  0  3  0  0  0  0  0  0
  162.0690  209.1980  151.3440 C   0  0  0  0  0  0  0  0  0  0  0  0
  161.9010  208.1540  149.2670 C   0  0  2  0  0  3  0  0  0  0  0  0
  161.1830  207.2250  150.2250 C   0  0  2  0  0  3  0  0  0  0  0  0
  162.7060  207.3280  148.2790 C   0  0  0  0  0  2  0  0  0  0  0  0
  162.4350  205.6970  146.3820 C   0  0  0  0  0  2  0  0  0  0  0  0
  159.7780  202.9070  144.4940 C   0  0  0  0  0  3  0  0  0  0  0  0
  161.5130  204.7280  145.7220 C   0  0  0  0  0  0  0  0  0  0  0  0
  160.4580  205.1910  144.9250 C   0  0  0  0  0  3  0  0  0  0  0  0
  159.5910  204.2800  144.3130 C   0  0  0  0  0  3  0  0  0  0  0  0
  160.8310  202.4430  145.2890 C   0  0  0  0  0  3  0  0  0  0  0  0
  161.6970  203.3530  145.9010 C   0  0  0  0  0  3  0  0  0  0  0  0
  161.5810  204.4470  149.0240 C   0  0  0  0  0  2  0  0  0  0  0  0
  160.5810  202.2000  149.4660 C   0  0  2  0  0  0  0  0  0  0  0  0
  160.0810  203.4370  152.3870 C   0  0  0  0  0  1  0  0  0  0  0  0
  162.3940  202.7780  151.6360 C   0  0  0  0  0  2  0  0  0  0  0  0
  159.3050  201.6550  149.6790 O   0  0  0  0  0  0  0  0  0  0  0  0
  159.6830  201.8920  148.3390 C   0  0  0  0  0  2  0  0  0  0  0  0
  161.1990  203.7120  151.3960 C   0  0  1  0  0  3  0  0  0  0  0  0
  162.0620  201.3290  151.2720 C   0  0  0  0  0  2  0  0  0  0  0  0
  161.6920  201.2140  149.7960 C   0  0  0  0  0  2  0  0  0  0  0  0
  160.6780  203.6450  149.9510 C   0  0  1  0  0  3  0  0  0  0  0  0
  1  7  1  0  0  0  0
  3 11  1  6  0  0  0
  3 10  1  0  0  0  0
  3  6  1  0  0  0  0
  6 18  1  1  0  0  0
  6  4  1  0  0  0  0
  7  5  1  0  0  0  0
  7  2  2  0  0  0  0
  8 10  1  6  0  0  0
  8  1  1  0  0  0  0
  8  9  1  0  0  0  0
  9  4  1  6  0  0  0
  9  5  1  0  0  0  0
 12 16  1  0  0  0  0
 13 17  1  0  0  0  0
 13 11  1  0  0  0  0
 14 13  2  0  0  0  0
 15 12  2  0  0  0  0
 15 14  1  0  0  0  0
 16 17  2  0  0  0  0
 19 23  1  6  0  0  0
 19 22  1  0  0  0  0
 19 26  1  0  0  0  0
 19 27  1  0  0  0  0
 23 22  1  0  0  0  0
 24 21  1  0  0  0  0
 24 20  1  1  0  0  0
 25 21  1  0  0  0  0
 26 25  1  0  0  0  0
 27 18  1  6  0  0  0
 27 24  1  0  0  0  0
M  END
>  <MODEL>
8

>  <REMARK>
 VINA RESULT:      -4.9      3.971      7.386
  Name = 
  4 active torsions:
  status: ('A' for Active; 'I' for Inactive)
    1  A    between atoms: C_2  and  C_6
    2  A    between atoms: C_2  and  C_9
    3  A    between atoms: C_3  and  C_14
    4  A    between atoms: C_3  and  C_26
                            x       y       z     vdW  Elec       q    Type
                         _______ _______ _______ _____ _____    ______ ____

>  <TORSDO>
F 4

$$$$
=
 OpenBabel11052423093D

 27 31  0  0  1  0  0  0  0  0999 V2000
  161.3010  207.3110  148.1680 N   0  0  0  0  0  2  0  0  0  0  0  0
  160.6740  205.0570  148.2010 O   0  0  0  0  0  0  0  0  0  0  0  0
  162.1960  210.5190  149.9680 C   0  0  1  0  0  3  0  0  0  0  0  0
  162.3610  208.5040  151.5200 C   0  0  0  0  0  2  0  0  0  0  0  0
  161.8070  205.9400  150.4680 S   0  0  0  0  0  0  0  0  0  0  0  0
  162.0190  210.0010  151.4210 C   0  0  2  0  0  3  0  0  0  0  0  0
  161.2190  206.0320  148.7790 C   0  0  0  0  0  0  0  0  0  0  0  0
  161.9120  208.2340  149.0980 C   0  0  2  0  0  3  0  0  0  0  0  0
  161.5500  207.7390  150.4840 C   0  0  2  0  0  3  0  0  0  0  0  0
  161.4380  209.6670  148.9400 C   0  0  0  0  0  2  0  0  0  0  0  0
  161.8540  211.9950  149.8020 C   0  0  0  0  0  2  0  0  0  0  0  0
  161.6960  213.0860  145.6560 C   0  0  0  0  0  3  0  0  0  0  0  0
  161.8010  212.3710  148.3600 C   0  0  0  0  0  0  0  0  0  0  0  0
  162.9760  212.7060  147.6750 C   0  0  0  0  0  3  0  0  0  0  0  0
  162.9220  213.0640  146.3250 C   0  0  0  0  0  3  0  0  0  0  0  0
  160.5210  212.7510  146.3370 C   0  0  0  0  0  3  0  0  0  0  0  0
  160.5750  212.3940  147.6860 C   0  0  0  0  0  3  0  0  0  0  0  0
  160.6080  210.2420  151.9570 C   0  0  0  0  0  2  0  0  0  0  0  0
  159.3310  211.9810  153.2170 C   0  0  2  0  0  0  0  0  0  0  0  0
  161.4690  211.3160  155.5190 C   0  0  0  0  0  1  0  0  0  0  0  0
  159.6230  209.6970  154.9570 C   0  0  0  0  0  2  0  0  0  0  0  0
  159.5310  213.2960  153.6650 O   0  0  0  0  0  0  0  0  0  0  0  0
  159.1520  213.1310  152.3140 C   0  0  0  0  0  2  0  0  0  0  0  0
  160.8840  210.4110  154.4490 C   0  0  1  0  0  3  0  0  0  0  0  0
  158.4590  210.6730  155.1510 C   0  0  0  0  0  2  0  0  0  0  0  0
  158.0920  211.3440  153.8320 C   0  0  0  0  0  2  0  0  0  0  0  0
  160.6360  211.1910  153.1470 C   0  0  1  0  0  3  0  0  0  0  0  0
  1  7  1  0  0  0  0
  1  8  1  0  0  0  0
  2  7  2  0  0  0  0
  3 11  1  1  0  0  0
  3  6  1  0  0  0  0
  5  9  1  0  0  0  0
  6  4  1  0  0  0  0
  6 18  1  6  0  0  0
  7  5  1  0  0  0  0
  8 10  1  6  0  0  0
  8  9  1  0  0  0  0
  9  4  1  1  0  0  0
 10  3  1  0  0  0  0
 12 15  2  0  0  0  0
 12 16  1  0  0  0  0
 13 11  1  0  0  0  0
 14 13  2  0  0  0  0
 15 14  1  0  0  0  0
 16 17  2  0  0  0  0
 17 13  1  0  0  0  0
 19 23  1  6  0  0  0
 19 22  1  0  0  0  0
 19 26  1  0  0  0  0
 21 25  1  0  0  0  0
 23 22  1  0  0  0  0
 24 21  1  0  0  0  0
 24 20  1  1  0  0  0
 26 25  1  0  0  0  0
 27 18  1  6  0  0  0
 27 19  1  0  0  0  0
 27 24  1  0  0  0  0
M  END
>  <MODEL>
9

>  <REMARK>
 VINA RESULT:      -4.8      3.035      5.712
  Name = 
  4 active torsions:
  status: ('A' for Active; 'I' for Inactive)
    1  A    between atoms: C_2  and  C_6
    2  A    between atoms: C_2  and  C_9
    3  A    between atoms: C_3  and  C_14
    4  A    between atoms: C_3  and  C_26
                            x       y       z     vdW  Elec       q    Type
                         _______ _______ _______ _____ _____    ______ ____

>  <TORSDO>
F 4

$$$$
