=
 OpenBabel11052423123D

 27 31  0  0  1  0  0  0  0  0999 V2000
  160.0890  212.2940  154.5300 N   0  0  0  0  0  2  0  0  0  0  0  0
  160.0950  209.7970  154.7140 C   0  0  0  0  0  0  0  0  0  0  0  0
  160.4610  210.4900  152.2810 N   0  0  0  0  0  0  0  0  0  0  0  0
  161.2320  205.8810  153.6560 C   0  0  0  0  0  3  0  0  0  0  0  0
  161.9280  204.3080  152.0070 F   0  0  0  0  0  0  0  0  0  0  0  0
  160.1610  208.7690  155.6630 C   0  0  0  0  0  3  0  0  0  0  0  0
  161.1450  207.8650  151.6880 C   0  0  0  0  0  3  0  0  0  0  0  0
  159.7900  213.7460  150.7770 C   0  0  0  0  0  0  0  0  0  0  0  0
  161.5200  206.5610  151.3520 C   0  0  0  0  0  3  0  0  0  0  0  0
  159.9770  214.3620  149.6210 C   0  0  0  0  0  2  0  0  0  0  0  0
  160.8060  208.1950  153.0110 C   0  0  0  0  0  0  0  0  0  0  0  0
  159.6450  211.1230  155.2760 C   0  0  2  0  0  3  0  0  0  0  0  0
  161.5630  205.5700  152.3340 C   0  0  0  0  0  0  0  0  0  0  0  0
  160.8560  207.1830  153.9980 C   0  0  0  0  0  0  0  0  0  0  0  0
  159.3080  212.3900  153.3130 C   0  0  1  0  0  3  0  0  0  0  0  0
  160.4240  209.5160  153.3510 C   0  0  0  0  0  0  0  0  0  0  0  0
  160.2290  212.4010  150.9510 N   0  0  0  0  0  2  0  0  0  0  0  0
  160.5350  207.4780  155.3150 C   0  0  0  0  0  3  0  0  0  0  0  0
  159.1670  214.4530  151.8950 C   0  0  0  0  0  3  0  0  0  0  0  0
  158.9590  213.8360  153.0570 C   0  0  0  0  0  3  0  0  0  0  0  0
  160.0410  211.7150  152.1920 C   0  0  0  0  0  0  0  0  0  0  0  0
  155.5500  211.3660  156.5060 C   0  0  0  0  0  3  0  0  0  0  0  0
  158.1980  211.1790  155.6930 C   0  0  0  0  0  0  0  0  0  0  0  0
  157.1830  210.6260  154.9010 C   0  0  0  0  0  3  0  0  0  0  0  0
  155.8520  210.7160  155.3080 C   0  0  0  0  0  3  0  0  0  0  0  0
  156.5450  211.9050  157.2610 N   0  0  0  0  0  0  0  0  0  0  0  0
  157.8490  211.8270  156.8810 C   0  0  0  0  0  3  0  0  0  0  0  0
  1 12  1  0  0  0  0
  2 12  1  0  0  0  0
  2  6  1  0  0  0  0
  3 16  1  0  0  0  0
  4 14  1  0  0  0  0
  5 13  1  0  0  0  0
  7 11  1  0  0  0  0
  8 17  1  0  0  0  0
  8 19  1  0  0  0  0
  9  7  2  0  0  0  0
  9 13  1  0  0  0  0
 10  8  2  0  0  0  0
 11 16  1  0  0  0  0
 11 14  2  0  0  0  0
 12 23  1  6  0  0  0
 13  4  2  0  0  0  0
 14 18  1  0  0  0  0
 15 20  1  6  0  0  0
 15  1  1  0  0  0  0
 16  2  2  0  0  0  0
 17 21  1  0  0  0  0
 18  6  2  0  0  0  0
 19 20  2  0  0  0  0
 21  3  2  0  0  0  0
 21 15  1  0  0  0  0
 22 26  1  0  0  0  0
 23 27  1  0  0  0  0
 24 25  1  0  0  0  0
 24 23  2  0  0  0  0
 25 22  2  0  0  0  0
 27 26  2  0  0  0  0
M  END
>  <MODEL>
1

>  <REMARK>
 VINA RESULT:      -7.6      0.000      0.000
  Name = 
  1 active torsions:
  status: ('A' for Active; 'I' for Inactive)
    1  A    between atoms: C_9  and  C_15
                            x       y       z     vdW  Elec       q    Type
                         _______ _______ _______ _____ _____    ______ ____

>  <TORSDO>
F 1

$$$$
=
 OpenBabel11052423123D

 27 31  0  0  1  0  0  0  0  0999 V2000
  162.4410  210.2920  151.7630 N   0  0  0  0  0  2  0  0  0  0  0  0
  161.6210  207.9600  152.1590 C   0  0  0  0  0  0  0  0  0  0  0  0
  161.6040  208.4730  149.6550 N   0  0  0  0  0  0  0  0  0  0  0  0
  161.0300  203.8950  151.2180 C   0  0  0  0  0  3  0  0  0  0  0  0
  160.7130  202.1770  149.5990 F   0  0  0  0  0  0  0  0  0  0  0  0
  161.5530  206.9770  153.1550 C   0  0  0  0  0  3  0  0  0  0  0  0
  161.1650  205.7770  149.1550 C   0  0  0  0  0  3  0  0  0  0  0  0
  161.7670  211.7520  148.0620 C   0  0  0  0  0  0  0  0  0  0  0  0
  160.9690  204.4260  148.8580 C   0  0  0  0  0  3  0  0  0  0  0  0
  161.8700  212.2590  146.8440 C   0  0  0  0  0  2  0  0  0  0  0  0
  161.2940  206.2080  150.4860 C   0  0  0  0  0  0  0  0  0  0  0  0
  161.8120  209.3590  152.6890 C   0  0  2  0  0  3  0  0  0  0  0  0
  160.9010  203.4860  149.8880 C   0  0  0  0  0  0  0  0  0  0  0  0
  161.2250  205.2460  151.5210 C   0  0  0  0  0  0  0  0  0  0  0  0
  161.4730  210.6620  150.7500 C   0  0  1  0  0  3  0  0  0  0  0  0
  161.4900  207.5780  150.7870 C   0  0  0  0  0  0  0  0  0  0  0  0
  161.7380  210.3400  148.2500 N   0  0  0  0  0  2  0  0  0  0  0  0
  161.3570  205.6370  152.8450 C   0  0  0  0  0  3  0  0  0  0  0  0
  161.7200  212.6360  149.2250 C   0  0  0  0  0  3  0  0  0  0  0  0
  161.5980  212.1360  150.4540 C   0  0  0  0  0  3  0  0  0  0  0  0
  161.6290  209.7670  149.5560 C   0  0  0  0  0  0  0  0  0  0  0  0
  158.4890  211.0100  154.8280 C   0  0  0  0  0  3  0  0  0  0  0  0
  160.6220  209.9310  153.4160 C   0  0  0  0  0  0  0  0  0  0  0  0
  159.5410  210.4950  152.7250 C   0  0  0  0  0  3  0  0  0  0  0  0
  158.4670  211.0360  153.4320 C   0  0  0  0  0  3  0  0  0  0  0  0
  159.5490  210.4660  155.4840 N   0  0  0  0  0  0  0  0  0  0  0  0
  160.6050  209.9340  154.8130 C   0  0  0  0  0  3  0  0  0  0  0  0
  1 12  1  0  0  0  0
  2 12  1  0  0  0  0
  2  6  1  0  0  0  0
  3 16  1  0  0  0  0
  4 14  1  0  0  0  0
  5 13  1  0  0  0  0
  7 11  1  0  0  0  0
  8 17  1  0  0  0  0
  8 19  1  0  0  0  0
  9  7  2  0  0  0  0
  9 13  1  0  0  0  0
 10  8  2  0  0  0  0
 11 16  1  0  0  0  0
 11 14  2  0  0  0  0
 12 23  1  6  0  0  0
 13  4  2  0  0  0  0
 14 18  1  0  0  0  0
 15 20  1  6  0  0  0
 15  1  1  0  0  0  0
 16  2  2  0  0  0  0
 17 21  1  0  0  0  0
 18  6  2  0  0  0  0
 19 20  2  0  0  0  0
 21  3  2  0  0  0  0
 21 15  1  0  0  0  0
 22 26  1  0  0  0  0
 23 27  1  0  0  0  0
 24 23  2  0  0  0  0
 24 25  1  0  0  0  0
 25 22  2  0  0  0  0
 27 26  2  0  0  0  0
M  END
>  <MODEL>
2

>  <REMARK>
 VINA RESULT:      -6.9      2.319      3.573
  Name = 
  1 active torsions:
  status: ('A' for Active; 'I' for Inactive)
    1  A    between atoms: C_9  and  C_15
                            x       y       z     vdW  Elec       q    Type
                         _______ _______ _______ _____ _____    ______ ____

>  <TORSDO>
F 1

$$$$
=
 OpenBabel11052423123D

 27 31  0  0  1  0  0  0  0  0999 V2000
  162.7940  208.5410  151.8360 N   0  0  0  0  0  2  0  0  0  0  0  0
  161.8740  206.2120  151.8100 C   0  0  0  0  0  0  0  0  0  0  0  0
  161.5910  207.2840  149.5070 N   0  0  0  0  0  0  0  0  0  0  0  0
  160.9050  202.4950  150.0770 C   0  0  0  0  0  3  0  0  0  0  0  0
  160.2820  201.2050  148.1740 F   0  0  0  0  0  0  0  0  0  0  0  0
  161.8610  205.0310  152.5630 C   0  0  0  0  0  3  0  0  0  0  0  0
  160.9170  204.7920  148.4840 C   0  0  0  0  0  3  0  0  0  0  0  0
  161.7800  210.8320  148.6730 C   0  0  0  0  0  0  0  0  0  0  0  0
  160.5970  203.5520  147.9230 C   0  0  0  0  0  3  0  0  0  0  0  0
  161.7700  211.5990  147.5950 C   0  0  0  0  0  2  0  0  0  0  0  0
  161.2330  204.9020  149.8480 C   0  0  0  0  0  0  0  0  0  0  0  0
  162.2210  207.4450  152.6070 C   0  0  2  0  0  3  0  0  0  0  0  0
  160.5910  202.4060  148.7190 C   0  0  0  0  0  0  0  0  0  0  0  0
  161.2250  203.7320  150.6440 C   0  0  0  0  0  0  0  0  0  0  0  0
  161.7390  209.1680  151.0670 C   0  0  1  0  0  3  0  0  0  0  0  0
  161.5550  206.1590  150.4170 C   0  0  0  0  0  0  0  0  0  0  0  0
  161.6800  209.4150  148.5450 N   0  0  0  0  0  2  0  0  0  0  0  0
  161.5400  203.8060  151.9930 C   0  0  0  0  0  3  0  0  0  0  0  0
  161.9320  211.4280  149.9980 C   0  0  0  0  0  3  0  0  0  0  0  0
  161.9250  210.6650  151.0910 C   0  0  0  0  0  3  0  0  0  0  0  0
  161.6900  208.5650  149.6940 C   0  0  0  0  0  0  0  0  0  0  0  0
  159.2560  208.6120  155.4690 C   0  0  0  0  0  3  0  0  0  0  0  0
  161.1670  207.8810  153.5930 C   0  0  0  0  0  0  0  0  0  0  0  0
  160.7730  209.2210  153.7030 C   0  0  0  0  0  3  0  0  0  0  0  0
  159.8110  209.5910  154.6430 C   0  0  0  0  0  3  0  0  0  0  0  0
  159.6540  207.3160  155.3550 N   0  0  0  0  0  0  0  0  0  0  0  0
  160.5900  206.9360  154.4450 C   0  0  0  0  0  3  0  0  0  0  0  0
  1 12  1  0  0  0  0
  2  6  1  0  0  0  0
  2 12  1  0  0  0  0
  3 21  2  0  0  0  0
  3 16  1  0  0  0  0
  4 14  1  0  0  0  0
  5 13  1  0  0  0  0
  7 11  1  0  0  0  0
  8 19  1  0  0  0  0
  9  7  2  0  0  0  0
  9 13  1  0  0  0  0
 10  8  2  0  0  0  0
 11 16  1  0  0  0  0
 11 14  2  0  0  0  0
 12 23  1  6  0  0  0
 13  4  2  0  0  0  0
 14 18  1  0  0  0  0
 15 20  1  6  0  0  0
 15  1  1  0  0  0  0
 16  2  2  0  0  0  0
 17  8  1  0  0  0  0
 17 21  1  0  0  0  0
 18  6  2  0  0  0  0
 19 20  2  0  0  0  0
 21 15  1  0  0  0  0
 23 24  2  0  0  0  0
 23 27  1  0  0  0  0
 24 25  1  0  0  0  0
 25 22  2  0  0  0  0
 26 22  1  0  0  0  0
 27 26  2  0  0  0  0
M  END
>  <MODEL>
3

>  <REMARK>
 VINA RESULT:      -5.8      3.172      4.784
  Name = 
  1 active torsions:
  status: ('A' for Active; 'I' for Inactive)
    1  A    between atoms: C_9  and  C_15
                            x       y       z     vdW  Elec       q    Type
                         _______ _______ _______ _____ _____    ______ ____

>  <TORSDO>
F 1

$$$$
=
 OpenBabel11052423123D

 27 31  0  0  1  0  0  0  0  0999 V2000
  161.0710  214.0410  138.9960 N   0  0  0  0  0  2  0  0  0  0  0  0
  160.4020  213.2000  141.2580 C   0  0  0  0  0  0  0  0  0  0  0  0
  162.9110  213.6860  141.2190 N   0  0  0  0  0  0  0  0  0  0  0  0
  160.6390  212.8880  145.4530 C   0  0  0  0  0  3  0  0  0  0  0  0
  161.9270  212.9400  147.4570 F   0  0  0  0  0  0  0  0  0  0  0  0
  159.2690  212.9470  142.0420 C   0  0  0  0  0  3  0  0  0  0  0  0
  162.9590  213.4080  143.9820 C   0  0  0  0  0  3  0  0  0  0  0  0
  165.0420  214.1120  138.2880 C   0  0  0  0  0  0  0  0  0  0  0  0
  163.0220  213.3020  145.3740 C   0  0  0  0  0  3  0  0  0  0  0  0
  166.2910  214.4530  138.0100 C   0  0  0  0  0  2  0  0  0  0  0  0
  161.7370  213.2540  143.3050 C   0  0  0  0  0  0  0  0  0  0  0  0
  160.1240  213.2530  139.7760 C   0  0  2  0  0  3  0  0  0  0  0  0
  161.8640  213.0410  146.1090 C   0  0  0  0  0  0  0  0  0  0  0  0
  160.5700  212.9920  144.0610 C   0  0  0  0  0  0  0  0  0  0  0  0
  162.3060  213.2940  138.8770 C   0  0  1  0  0  3  0  0  0  0  0  0
  161.6730  213.3600  141.8940 C   0  0  0  0  0  0  0  0  0  0  0  0
  164.5950  214.0710  139.6410 N   0  0  0  0  0  2  0  0  0  0  0  0
  159.3470  212.8430  143.4250 C   0  0  0  0  0  3  0  0  0  0  0  0
  164.1050  213.8120  137.2080 C   0  0  0  0  0  3  0  0  0  0  0  0
  162.8510  213.4500  137.4780 C   0  0  0  0  0  3  0  0  0  0  0  0
  163.2510  213.7070  139.9660 C   0  0  0  0  0  0  0  0  0  0  0  0
  159.1050  209.5360  137.9070 C   0  0  0  0  0  3  0  0  0  0  0  0
  159.7710  211.9290  139.1480 C   0  0  0  0  0  0  0  0  0  0  0  0
  160.3600  210.7320  139.5770 C   0  0  0  0  0  3  0  0  0  0  0  0
  160.0260  209.5280  138.9570 C   0  0  0  0  0  3  0  0  0  0  0  0
  158.5470  210.7080  137.4970 N   0  0  0  0  0  0  0  0  0  0  0  0
  158.8610  211.8910  138.0890 C   0  0  0  0  0  3  0  0  0  0  0  0
  1 12  1  0  0  0  0
  2 16  2  0  0  0  0
  2  6  1  0  0  0  0
  3 16  1  0  0  0  0
  4 13  1  0  0  0  0
  6 18  2  0  0  0  0
  7  9  1  0  0  0  0
  8 17  1  0  0  0  0
  9 13  2  0  0  0  0
 10  8  2  0  0  0  0
 11  7  2  0  0  0  0
 11 14  1  0  0  0  0
 12 23  1  6  0  0  0
 12  2  1  0  0  0  0
 13  5  1  0  0  0  0
 14  4  2  0  0  0  0
 15 20  1  6  0  0  0
 15  1  1  0  0  0  0
 15 21  1  0  0  0  0
 16 11  1  0  0  0  0
 17 21  1  0  0  0  0
 18 14  1  0  0  0  0
 19 20  2  0  0  0  0
 19  8  1  0  0  0  0
 21  3  2  0  0  0  0
 22 25  1  0  0  0  0
 23 24  1  0  0  0  0
 25 24  2  0  0  0  0
 26 22  2  0  0  0  0
 26 27  1  0  0  0  0
 27 23  2  0  0  0  0
M  END
>  <MODEL>
4

>  <REMARK>
 VINA RESULT:      -5.4     10.097     14.129
  Name = 
  1 active torsions:
  status: ('A' for Active; 'I' for Inactive)
    1  A    between atoms: C_9  and  C_15
                            x       y       z     vdW  Elec       q    Type
                         _______ _______ _______ _____ _____    ______ ____

>  <TORSDO>
F 1

$$$$
=
 OpenBabel11052423123D

 27 31  0  0  1  0  0  0  0  0999 V2000
  162.7120  204.1920  148.0550 N   0  0  0  0  0  2  0  0  0  0  0  0
  162.3150  206.6020  148.6080 C   0  0  0  0  0  0  0  0  0  0  0  0
  161.2240  205.1140  150.3770 N   0  0  0  0  0  0  0  0  0  0  0  0
  161.7080  209.8960  151.1640 C   0  0  0  0  0  3  0  0  0  0  0  0
  160.8860  210.7960  153.2110 F   0  0  0  0  0  0  0  0  0  0  0  0
  162.7420  207.8900  148.2610 C   0  0  0  0  0  3  0  0  0  0  0  0
  160.8310  207.3630  151.9570 C   0  0  0  0  0  3  0  0  0  0  0  0
  160.4570  201.5560  150.1140 C   0  0  0  0  0  0  0  0  0  0  0  0
  160.6360  208.4650  152.7940 C   0  0  0  0  0  3  0  0  0  0  0  0
  160.0080  200.5780  150.8860 C   0  0  0  0  0  1  0  0  0  0  0  0
  161.4640  207.5110  150.7110 C   0  0  0  0  0  0  0  0  0  0  0  0
  162.5980  205.5570  147.5570 C   0  0  2  0  0  3  0  0  0  0  0  0
  161.0740  209.7300  152.3980 C   0  0  0  0  0  0  0  0  0  0  0  0
  161.9050  208.7980  150.3220 C   0  0  0  0  0  0  0  0  0  0  0  0
  161.3870  203.7050  148.3780 C   0  0  1  0  0  3  0  0  0  0  0  0
  161.6590  206.3950  149.8620 C   0  0  0  0  0  0  0  0  0  0  0  0
  160.6190  202.8690  150.6440 N   0  0  0  0  0  0  0  0  0  0  0  0
  162.5410  208.9770  149.1030 C   0  0  0  0  0  3  0  0  0  0  0  0
  160.8260  201.2860  148.7260 C   0  0  0  0  0  3  0  0  0  0  0  0
  161.2620  202.2680  147.9370 C   0  0  0  0  0  3  0  0  0  0  0  0
  161.1050  203.9410  149.8320 C   0  0  0  0  0  0  0  0  0  0  0  0
  160.3050  205.8320  143.9500 C   0  0  0  0  0  3  0  0  0  0  0  0
  161.7740  205.6800  146.3010 C   0  0  0  0  0  0  0  0  0  0  0  0
  160.4450  206.1240  146.3350 C   0  0  0  0  0  3  0  0  0  0  0  0
  159.7060  206.2030  145.1550 C   0  0  0  0  0  3  0  0  0  0  0  0
  161.5940  205.3960  143.9340 N   0  0  0  0  0  0  0  0  0  0  0  0
  162.3310  205.3120  145.0740 C   0  0  0  0  0  3  0  0  0  0  0  0
  1 15  1  0  0  0  0
  2 16  1  0  0  0  0
  4 13  2  0  0  0  0
  6  2  2  0  0  0  0
  6 18  1  0  0  0  0
  7  9  2  0  0  0  0
  8 17  2  0  0  0  0
  8 10  1  0  0  0  0
 11  7  1  0  0  0  0
 12 23  1  6  0  0  0
 12  1  1  0  0  0  0
 12  2  1  0  0  0  0
 13  9  1  0  0  0  0
 13  5  1  0  0  0  0
 14 11  1  0  0  0  0
 14  4  1  0  0  0  0
 15 20  1  1  0  0  0
 15 21  1  0  0  0  0
 16  3  1  0  0  0  0
 16 11  2  0  0  0  0
 18 14  2  0  0  0  0
 19  8  1  0  0  0  0
 20 19  2  0  0  0  0
 21  3  2  0  0  0  0
 21 17  1  0  0  0  0
 22 25  1  0  0  0  0
 23 24  1  0  0  0  0
 25 24  2  0  0  0  0
 26 22  2  0  0  0  0
 26 27  1  0  0  0  0
 27 23  2  0  0  0  0
M  END
>  <MODEL>
5

>  <REMARK>
 VINA RESULT:      -5.1      5.062      9.684
  Name = 
  1 active torsions:
  status: ('A' for Active; 'I' for Inactive)
    1  A    between atoms: C_9  and  C_15
                            x       y       z     vdW  Elec       q    Type
                         _______ _______ _______ _____ _____    ______ ____

>  <TORSDO>
F 1

$$$$
=
 OpenBabel11052423123D

 27 31  0  0  1  0  0  0  0  0999 V2000
  161.2340  211.1130  138.5890 N   0  0  0  0  0  2  0  0  0  0  0  0
  159.1170  209.8750  138.0810 C   0  0  0  0  0  0  0  0  0  0  0  0
  158.6800  211.6460  139.8720 N   0  0  0  0  0  0  0  0  0  0  0  0
  154.9480  209.4270  137.6650 C   0  0  0  0  0  3  0  0  0  0  0  0
  152.7340  210.0170  138.3160 F   0  0  0  0  0  0  0  0  0  0  0  0
  158.5620  208.9900  137.1480 C   0  0  0  0  0  3  0  0  0  0  0  0
  155.9530  211.2310  139.5490 C   0  0  0  0  0  3  0  0  0  0  0  0
  161.1490  213.3790  141.9260 C   0  0  0  0  0  0  0  0  0  0  0  0
  154.5730  211.0710  139.4000 C   0  0  0  0  0  3  0  0  0  0  0  0
  161.1890  214.3630  142.8100 C   0  0  0  0  0  1  0  0  0  0  0  0
  156.8510  210.4900  138.7610 C   0  0  0  0  0  0  0  0  0  0  0  0
  160.6250  209.8810  138.1010 C   0  0  2  0  0  3  0  0  0  0  0  0
  154.0710  210.1700  138.4600 C   0  0  0  0  0  0  0  0  0  0  0  0
  156.3290  209.5810  137.8100 C   0  0  0  0  0  0  0  0  0  0  0  0
  161.0780  211.1670  140.0280 C   0  0  1  0  0  3  0  0  0  0  0  0
  158.2500  210.6510  138.9140 C   0  0  0  0  0  0  0  0  0  0  0  0
  159.9100  213.0010  141.3310 N   0  0  0  0  0  0  0  0  0  0  0  0
  157.1880  208.8410  137.0110 C   0  0  0  0  0  3  0  0  0  0  0  0
  162.3800  212.7020  141.5240 C   0  0  0  0  0  3  0  0  0  0  0  0
  162.3470  211.6980  140.6470 C   0  0  0  0  0  3  0  0  0  0  0  0
  159.8410  211.9430  140.3710 C   0  0  0  0  0  0  0  0  0  0  0  0
  162.4840  206.3220  139.5910 C   0  0  0  0  0  3  0  0  0  0  0  0
  161.2580  208.6290  138.6520 C   0  0  0  0  0  0  0  0  0  0  0  0
  161.3490  208.3980  140.0310 C   0  0  0  0  0  3  0  0  0  0  0  0
  161.9620  207.2390  140.5060 C   0  0  0  0  0  3  0  0  0  0  0  0
  162.3940  206.5640  138.2550 N   0  0  0  0  0  0  0  0  0  0  0  0
  161.8000  207.6890  137.7740 C   0  0  0  0  0  3  0  0  0  0  0  0
  1 15  1  0  0  0  0
  2 12  1  0  0  0  0
  2 16  1  0  0  0  0
  3 21  2  0  0  0  0
  4 14  1  0  0  0  0
  4 13  2  0  0  0  0
  5 13  1  0  0  0  0
  6  2  2  0  0  0  0
  8 10  1  0  0  0  0
  9  7  2  0  0  0  0
 11 16  2  0  0  0  0
 11  7  1  0  0  0  0
 12  1  1  0  0  0  0
 12 23  1  1  0  0  0
 13  9  1  0  0  0  0
 14 11  1  0  0  0  0
 15 21  1  0  0  0  0
 15 20  1  1  0  0  0
 16  3  1  0  0  0  0
 17  8  2  0  0  0  0
 18  6  1  0  0  0  0
 18 14  2  0  0  0  0
 19  8  1  0  0  0  0
 20 19  2  0  0  0  0
 21 17  1  0  0  0  0
 22 25  1  0  0  0  0
 23 24  1  0  0  0  0
 24 25  2  0  0  0  0
 26 22  2  0  0  0  0
 27 26  1  0  0  0  0
 27 23  2  0  0  0  0
M  END
>  <MODEL>
6

>  <REMARK>
 VINA RESULT:      -5.0     12.529     15.543
  Name = 
  1 active torsions:
  status: ('A' for Active; 'I' for Inactive)
    1  A    between atoms: C_9  and  C_15
                            x       y       z     vdW  Elec       q    Type
                         _______ _______ _______ _____ _____    ______ ____

>  <TORSDO>
F 1

$$$$
=
 OpenBabel11052423123D

 27 31  0  0  1  0  0  0  0  0999 V2000
  159.7070  209.0010  153.4570 N   0  0  0  0  0  2  0  0  0  0  0  0
  160.2980  211.1920  152.3990 C   0  0  0  0  0  0  0  0  0  0  0  0
  161.3240  209.2740  151.0560 N   0  0  0  0  0  0  0  0  0  0  0  0
  161.2190  213.7760  149.2010 C   0  0  0  0  0  3  0  0  0  0  0  0
  162.1620  214.1350  147.0430 F   0  0  0  0  0  0  0  0  0  0  0  0
  159.9580  212.5500  152.4300 C   0  0  0  0  0  3  0  0  0  0  0  0
  161.9270  211.0770  149.0330 C   0  0  0  0  0  3  0  0  0  0  0  0
  161.8170  205.8240  152.1400 C   0  0  0  0  0  0  0  0  0  0  0  0
  162.2260  211.9460  147.9800 C   0  0  0  0  0  3  0  0  0  0  0  0
  162.2140  204.6700  151.6260 C   0  0  0  0  0  1  0  0  0  0  0  0
  161.2720  211.5440  150.1850 C   0  0  0  0  0  0  0  0  0  0  0  0
  159.9080  210.4320  153.6430 C   0  0  2  0  0  3  0  0  0  0  0  0
  161.8730  213.2940  148.0640 C   0  0  0  0  0  0  0  0  0  0  0  0
  160.9170  212.9120  150.2570 C   0  0  0  0  0  0  0  0  0  0  0  0
  161.0010  208.3670  153.3100 C   0  0  1  0  0  3  0  0  0  0  0  0
  160.9710  210.6640  151.2530 C   0  0  0  0  0  0  0  0  0  0  0  0
  161.7680  206.9920  151.3230 N   0  0  0  0  0  0  0  0  0  0  0  0
  160.2620  213.4030  151.3770 C   0  0  0  0  0  3  0  0  0  0  0  0
  161.3900  205.9000  153.5350 C   0  0  0  0  0  3  0  0  0  0  0  0
  161.0060  207.0610  154.0650 C   0  0  0  0  0  3  0  0  0  0  0  0
  161.3410  208.2490  151.8540 C   0  0  0  0  0  0  0  0  0  0  0  0
  162.0930  211.3990  157.1980 C   0  0  0  0  0  3  0  0  0  0  0  0
  160.7040  210.7810  154.8750 C   0  0  0  0  0  0  0  0  0  0  0  0
  162.0930  210.6040  154.9260 C   0  0  0  0  0  3  0  0  0  0  0  0
  162.7930  210.9160  156.0910 C   0  0  0  0  0  3  0  0  0  0  0  0
  160.7430  211.5580  157.1350 N   0  0  0  0  0  0  0  0  0  0  0  0
  160.0420  211.2600  156.0080 C   0  0  0  0  0  3  0  0  0  0  0  0
  1 12  1  0  0  0  0
  2  6  1  0  0  0  0
  2 12  1  0  0  0  0
  3 16  1  0  0  0  0
  3 21  2  0  0  0  0
  4 14  1  0  0  0  0
  5 13  1  0  0  0  0
  7 11  1  0  0  0  0
  8 19  1  0  0  0  0
  9 13  1  0  0  0  0
  9  7  2  0  0  0  0
 10  8  1  0  0  0  0
 11 14  2  0  0  0  0
 11 16  1  0  0  0  0
 12 23  1  1  0  0  0
 13  4  2  0  0  0  0
 14 18  1  0  0  0  0
 15  1  1  0  0  0  0
 15 20  1  6  0  0  0
 16  2  2  0  0  0  0
 17 21  1  0  0  0  0
 17  8  2  0  0  0  0
 18  6  2  0  0  0  0
 19 20  2  0  0  0  0
 21 15  1  0  0  0  0
 23 24  2  0  0  0  0
 23 27  1  0  0  0  0
 24 25  1  0  0  0  0
 25 22  2  0  0  0  0
 26 22  1  0  0  0  0
 27 26  2  0  0  0  0
M  END
>  <MODEL>
7

>  <REMARK>
 VINA RESULT:      -5.0      2.986      6.175
  Name = 
  1 active torsions:
  status: ('A' for Active; 'I' for Inactive)
    1  A    between atoms: C_9  and  C_15
                            x       y       z     vdW  Elec       q    Type
                         _______ _______ _______ _____ _____    ______ ____

>  <TORSDO>
F 1

$$$$
=
 OpenBabel11052423123D

 27 31  0  0  1  0  0  0  0  0999 V2000
  161.8820  210.0040  153.3440 N   0  0  0  0  0  2  0  0  0  0  0  0
  161.8270  210.4010  150.8730 C   0  0  0  0  0  0  0  0  0  0  0  0
  160.0980  211.8860  152.0300 N   0  0  0  0  0  0  0  0  0  0  0  0
  161.2740  212.6780  147.3700 C   0  0  0  0  0  3  0  0  0  0  0  0
  160.1850  214.4520  146.2130 F   0  0  0  0  0  0  0  0  0  0  0  0
  162.5560  210.1420  149.7050 C   0  0  0  0  0  3  0  0  0  0  0  0
  159.7780  213.2850  149.6530 C   0  0  0  0  0  3  0  0  0  0  0  0
  158.7590  211.5140  155.4050 C   0  0  0  0  0  0  0  0  0  0  0  0
  159.6060  214.0310  148.4840 C   0  0  0  0  0  3  0  0  0  0  0  0
  157.9690  212.1740  156.2370 C   0  0  0  0  0  1  0  0  0  0  0  0
  160.6990  212.2240  149.6980 C   0  0  0  0  0  0  0  0  0  0  0  0
  162.1440  209.4680  152.0150 C   0  0  2  0  0  3  0  0  0  0  0  0
  160.3520  213.7270  147.3440 C   0  0  0  0  0  0  0  0  0  0  0  0
  161.4510  211.9270  148.5360 C   0  0  0  0  0  0  0  0  0  0  0  0
  160.4510  210.0100  153.5670 C   0  0  1  0  0  3  0  0  0  0  0  0
  160.8720  211.4660  150.8820 C   0  0  0  0  0  0  0  0  0  0  0  0
  159.0380  212.0430  154.1110 N   0  0  0  0  0  0  0  0  0  0  0  0
  162.3730  210.8920  148.5500 C   0  0  0  0  0  3  0  0  0  0  0  0
  159.3820  210.2590  155.8210 C   0  0  0  0  0  3  0  0  0  0  0  0
  160.1640  209.5790  154.9850 C   0  0  0  0  0  3  0  0  0  0  0  0
  159.8900  211.3500  153.1950 C   0  0  0  0  0  0  0  0  0  0  0  0
  160.8230  205.4430  151.3850 C   0  0  0  0  0  3  0  0  0  0  0  0
  161.6710  208.0490  151.8260 C   0  0  0  0  0  0  0  0  0  0  0  0
  161.7640  207.1010  152.8530 C   0  0  0  0  0  3  0  0  0  0  0  0
  161.3360  205.7910  152.6350 C   0  0  0  0  0  3  0  0  0  0  0  0
  160.7460  206.3730  150.3950 N   0  0  0  0  0  0  0  0  0  0  0  0
  161.1570  207.6550  150.5880 C   0  0  0  0  0  3  0  0  0  0  0  0
  1 15  1  0  0  0  0
  2 16  1  0  0  0  0
  2 12  1  0  0  0  0
  3 21  2  0  0  0  0
  4 14  1  0  0  0  0
  5 13  1  0  0  0  0
  6  2  2  0  0  0  0
  7 11  1  0  0  0  0
  8 19  1  0  0  0  0
  8 10  1  0  0  0  0
  9  7  2  0  0  0  0
 11 16  2  0  0  0  0
 12 23  1  6  0  0  0
 12  1  1  0  0  0  0
 13  4  2  0  0  0  0
 13  9  1  0  0  0  0
 14 18  2  0  0  0  0
 14 11  1  0  0  0  0
 15 20  1  1  0  0  0
 16  3  1  0  0  0  0
 17  8  2  0  0  0  0
 18  6  1  0  0  0  0
 20 19  2  0  0  0  0
 21 15  1  0  0  0  0
 21 17  1  0  0  0  0
 22 25  1  0  0  0  0
 23 24  1  0  0  0  0
 25 24  2  0  0  0  0
 26 27  1  0  0  0  0
 26 22  2  0  0  0  0
 27 23  2  0  0  0  0
M  END
>  <MODEL>
8

>  <REMARK>
 VINA RESULT:      -4.9      3.042      6.693
  Name = 
  1 active torsions:
  status: ('A' for Active; 'I' for Inactive)
    1  A    between atoms: C_9  and  C_15
                            x       y       z     vdW  Elec       q    Type
                         _______ _______ _______ _____ _____    ______ ____

>  <TORSDO>
F 1

$$$$
=
 OpenBabel11052423123D

 27 31  0  0  1  0  0  0  0  0999 V2000
  162.4590  207.1940  153.0810 N   0  0  0  0  0  2  0  0  0  0  0  0
  162.2120  208.2650  150.8300 C   0  0  0  0  0  0  0  0  0  0  0  0
  161.0610  209.6990  152.6060 N   0  0  0  0  0  0  0  0  0  0  0  0
  161.8360  211.4880  148.1420 C   0  0  0  0  0  3  0  0  0  0  0  0
  161.0980  213.7020  147.6650 F   0  0  0  0  0  0  0  0  0  0  0  0
  162.7090  208.1930  149.5230 C   0  0  0  0  0  3  0  0  0  0  0  0
  160.8230  211.7380  150.7360 C   0  0  0  0  0  3  0  0  0  0  0  0
  160.0830  208.6950  155.9750 C   0  0  0  0  0  0  0  0  0  0  0  0
  160.7060  212.7980  149.8330 C   0  0  0  0  0  3  0  0  0  0  0  0
  159.5880  209.2490  157.0710 C   0  0  0  0  0  1  0  0  0  0  0  0
  161.4460  210.5370  150.3550 C   0  0  0  0  0  0  0  0  0  0  0  0
  162.4180  207.0060  151.6360 C   0  0  2  0  0  3  0  0  0  0  0  0
  161.2110  212.6730  148.5380 C   0  0  0  0  0  0  0  0  0  0  0  0
  161.9560  210.4230  149.0400 C   0  0  0  0  0  0  0  0  0  0  0  0
  161.1120  207.4390  153.5540 C   0  0  1  0  0  3  0  0  0  0  0  0
  161.5630  209.4620  151.2700 C   0  0  0  0  0  0  0  0  0  0  0  0
  160.3290  209.4920  154.8190 N   0  0  0  0  0  0  0  0  0  0  0  0
  162.5840  209.2550  148.6360 C   0  0  0  0  0  3  0  0  0  0  0  0
  160.4160  207.2720  155.9560 C   0  0  0  0  0  3  0  0  0  0  0  0
  160.8970  206.7020  154.8520 C   0  0  0  0  0  3  0  0  0  0  0  0
  160.8650  208.9170  153.6240 C   0  0  0  0  0  0  0  0  0  0  0  0
  160.0610  203.6880  150.3010 C   0  0  0  0  0  3  0  0  0  0  0  0
  161.5850  205.8290  151.1990 C   0  0  0  0  0  0  0  0  0  0  0  0
  161.5810  204.6250  151.9160 C   0  0  0  0  0  3  0  0  0  0  0  0
  160.8150  203.5490  151.4680 C   0  0  0  0  0  3  0  0  0  0  0  0
  160.0810  204.8610  149.6120 N   0  0  0  0  0  0  0  0  0  0  0  0
  160.8220  205.9220  150.0320 C   0  0  0  0  0  3  0  0  0  0  0  0
  1 15  1  0  0  0  0
  2 16  1  0  0  0  0
  2 12  1  0  0  0  0
  3 21  2  0  0  0  0
  4 13  2  0  0  0  0
  4 14  1  0  0  0  0
  5 13  1  0  0  0  0
  6  2  2  0  0  0  0
  8 10  1  0  0  0  0
  9  7  2  0  0  0  0
 11  7  1  0  0  0  0
 11 16  2  0  0  0  0
 12 23  1  1  0  0  0
 12  1  1  0  0  0  0
 13  9  1  0  0  0  0
 14 11  1  0  0  0  0
 15 21  1  0  0  0  0
 15 20  1  1  0  0  0
 16  3  1  0  0  0  0
 17  8  2  0  0  0  0
 18 14  2  0  0  0  0
 18  6  1  0  0  0  0
 19  8  1  0  0  0  0
 20 19  2  0  0  0  0
 21 17  1  0  0  0  0
 22 25  1  0  0  0  0
 23 24  1  0  0  0  0
 25 24  2  0  0  0  0
 26 27  1  0  0  0  0
 26 22  2  0  0  0  0
 27 23  2  0  0  0  0
M  END
>  <MODEL>
9

>  <REMARK>
 VINA RESULT:      -4.8      3.229      7.219
  Name = 
  1 active torsions:
  status: ('A' for Active; 'I' for Inactive)
    1  A    between atoms: C_9  and  C_15
                            x       y       z     vdW  Elec       q    Type
                         _______ _______ _______ _____ _____    ______ ____

>  <TORSDO>
F 1

$$$$
