=
 OpenBabel11052422233D

 31 36  0  0  1  0  0  0  0  0999 V2000
  160.6700  202.4510  150.9990 C   0  0  0  0  0  0  0  0  0  0  0  0
  161.4560  205.6560  149.1580 N   0  0  0  0  0  0  0  0  0  0  0  0
  161.3460  205.3360  147.7400 C   0  0  0  0  0  0  0  0  0  0  0  0
  161.6850  203.5010  145.9920 C   0  0  0  0  0  3  0  0  0  0  0  0
  161.2820  204.6810  150.2210 C   0  0  0  0  0  0  0  0  0  0  0  0
  160.8680  202.8500  152.3210 C   0  0  0  0  0  3  0  0  0  0  0  0
  161.6640  204.1010  147.3310 C   0  0  0  0  0  3  0  0  0  0  0  0
  162.2360  207.3440  150.9170 C   0  0  1  0  0  3  0  0  0  0  0  0
  160.2800  201.1850  150.7250 F   0  0  0  0  0  0  0  0  0  0  0  0
  161.1410  207.7060  147.2580 C   0  0  0  0  0  3  0  0  0  0  0  0
  161.2260  203.9940  144.8490 C   0  0  0  0  0  3  0  0  0  0  0  0
  161.8050  206.3870  151.8810 O   0  0  0  0  0  0  0  0  0  0  0  0
  161.7010  207.0300  149.5360 C   0  0  0  0  0  0  0  0  0  0  0  0
  160.8660  203.3630  149.9600 C   0  0  0  0  0  3  0  0  0  0  0  0
  160.5900  205.2890  144.6140 C   0  0  0  0  0  3  0  0  0  0  0  0
  161.4600  205.0740  151.5630 C   0  0  0  0  0  0  0  0  0  0  0  0
  161.2580  204.1600  152.6020 C   0  0  0  0  0  3  0  0  0  0  0  0
  161.5720  208.0030  148.6280 C   0  0  0  0  0  3  0  0  0  0  0  0
  161.0330  206.4550  146.8070 C   0  0  0  0  0  0  0  0  0  0  0  0
  160.5210  206.3270  145.4380 C   0  0  0  0  0  3  0  0  0  0  0  0
  160.4650  208.7370  151.8900 N   0  0  0  0  0  2  0  0  0  0  0  0
  161.5930  208.7050  152.8300 C   0  0  1  0  0  3  0  0  0  0  0  0
  161.8500  208.7390  151.3960 C   0  0  1  0  0  3  0  0  0  0  0  0
  161.8130  210.0910  153.4100 C   0  0  0  0  0  2  0  0  0  0  0  0
  158.7450  210.7880  155.8050 C   0  0  2  0  0  3  0  0  0  0  0  0
  159.8940  212.3530  152.6220 C   0  0  0  0  0  1  0  0  0  0  0  0
  158.7660  211.5670  157.0270 N   0  0  0  0  0  1  0  0  0  0  0  0
  160.2420  209.7330  155.7270 S   0  0  0  0  0  0  0  0  0  0  0  0
  159.7390  211.5120  153.8420 C   0  0  0  0  0  0  0  0  0  0  0  0
  160.6570  210.4930  154.1980 N   0  0  0  0  0  0  0  0  0  0  0  0
  158.7550  211.6860  154.6540 N   0  0  0  0  0  0  0  0  0  0  0  0
  1  6  1  0  0  0  0
  2 13  1  0  0  0  0
  2  5  1  0  0  0  0
  3  2  1  0  0  0  0
  4  7  1  0  0  0  0
  5 16  2  0  0  0  0
  6 17  2  0  0  0  0
  7  3  2  0  0  0  0
  8 13  1  6  0  0  0
  8 23  1  0  0  0  0
  8 12  1  0  0  0  0
  9  1  1  0  0  0  0
 10 18  1  0  0  0  0
 11  4  2  0  0  0  0
 14  5  1  0  0  0  0
 14  1  2  0  0  0  0
 15 11  1  0  0  0  0
 15 20  2  0  0  0  0
 16 12  1  0  0  0  0
 16 17  1  0  0  0  0
 18 13  2  0  0  0  0
 19 10  2  0  0  0  0
 19  3  1  0  0  0  0
 20 19  1  0  0  0  0
 21 22  1  0  0  0  0
 22 24  1  1  0  0  0
 23 21  1  6  0  0  0
 23 22  1  0  0  0  0
 24 30  1  0  0  0  0
 25 27  1  1  0  0  0
 26 29  1  0  0  0  0
 28 25  1  0  0  0  0
 29 30  1  0  0  0  0
 29 31  2  0  0  0  0
 30 28  1  0  0  0  0
 31 25  1  0  0  0  0
M  END
>  <MODEL>
1

>  <REMARK>
 VINA RESULT:      -9.6      0.000      0.000
  Name = 
  3 active torsions:
  status: ('A' for Active; 'I' for Inactive)
    1  A    between atoms: C_3  and  C_9
    2  A    between atoms: C_3  and  N_22
    3  A    between atoms: C_15  and  C_23
                            x       y       z     vdW  Elec       q    Type
                         _______ _______ _______ _____ _____    ______ ____

>  <TORSDO>
F 3

$$$$
=
 OpenBabel11052422233D

 31 36  0  0  1  0  0  0  0  0999 V2000
  161.6000  210.9080  149.9630 C   0  0  0  0  0  0  0  0  0  0  0  0
  161.4880  208.3190  152.7120 N   0  0  0  0  0  0  0  0  0  0  0  0
  161.1530  209.0470  153.9300 C   0  0  0  0  0  0  0  0  0  0  0  0
  161.4290  211.2690  155.1630 C   0  0  0  0  0  3  0  0  0  0  0  0
  161.6830  208.9530  151.4200 C   0  0  0  0  0  0  0  0  0  0  0  0
  161.9880  210.1240  148.8760 C   0  0  0  0  0  3  0  0  0  0  0  0
  161.5770  210.3110  154.0630 C   0  0  0  0  0  3  0  0  0  0  0  0
  162.3190  206.1240  151.6920 C   0  0  1  0  0  3  0  0  0  0  0  0
  161.3700  212.2320  149.7960 F   0  0  0  0  0  0  0  0  0  0  0  0
  160.4820  206.9520  154.9560 C   0  0  0  0  0  3  0  0  0  0  0  0
  160.6810  211.1790  156.2560 C   0  0  0  0  0  3  0  0  0  0  0  0
  162.2440  206.7950  150.4370 O   0  0  0  0  0  0  0  0  0  0  0  0
  161.5800  206.8770  152.7770 C   0  0  0  0  0  0  0  0  0  0  0  0
  161.4390  210.3240  151.2210 C   0  0  0  0  0  3  0  0  0  0  0  0
  159.8140  210.0760  156.6670 C   0  0  0  0  0  3  0  0  0  0  0  0
  162.0570  208.1710  150.3090 C   0  0  0  0  0  0  0  0  0  0  0  0
  162.2120  208.7570  149.0490 C   0  0  0  0  0  3  0  0  0  0  0  0
  161.1210  206.2290  153.8520 C   0  0  0  0  0  3  0  0  0  0  0  0
  160.4880  208.2840  155.0240 C   0  0  0  0  0  0  0  0  0  0  0  0
  159.7440  208.8550  156.1520 C   0  0  0  0  0  3  0  0  0  0  0  0
  160.3680  204.6360  151.7560 N   0  0  0  0  0  2  0  0  0  0  0  0
  160.9010  204.6350  150.3880 C   0  0  1  0  0  3  0  0  0  0  0  0
  161.8170  204.6940  151.5190 C   0  0  1  0  0  3  0  0  0  0  0  0
  160.8820  203.2220  149.8340 C   0  0  0  0  0  2  0  0  0  0  0  0
  161.3550  203.7560  145.9450 C   0  0  2  0  0  3  0  0  0  0  0  0
  161.0610  200.7120  148.0760 C   0  0  0  0  0  1  0  0  0  0  0  0
  162.6030  204.0230  145.2570 N   0  0  0  0  0  1  0  0  0  0  0  0
  161.2850  204.7400  147.4890 S   0  0  0  0  0  0  0  0  0  0  0  0
  161.1420  202.1050  147.5550 C   0  0  0  0  0  0  0  0  0  0  0  0
  161.0870  203.2460  148.3930 N   0  0  0  0  0  0  0  0  0  0  0  0
  161.2860  202.3410  146.2970 N   0  0  0  0  0  0  0  0  0  0  0  0
  1 14  1  0  0  0  0
  2 13  1  0  0  0  0
  2  3  1  0  0  0  0
  3  7  2  0  0  0  0
  3 19  1  0  0  0  0
  4 11  2  0  0  0  0
  5  2  1  0  0  0  0
  6 17  1  0  0  0  0
  6  1  2  0  0  0  0
  7  4  1  0  0  0  0
  8 12  1  6  0  0  0
  8 13  1  0  0  0  0
  9  1  1  0  0  0  0
 10 19  2  0  0  0  0
 11 15  1  0  0  0  0
 13 18  2  0  0  0  0
 14  5  2  0  0  0  0
 16 12  1  0  0  0  0
 16  5  1  0  0  0  0
 17 16  2  0  0  0  0
 18 10  1  0  0  0  0
 19 20  1  0  0  0  0
 20 15  2  0  0  0  0
 22 24  1  1  0  0  0
 22 23  1  0  0  0  0
 22 21  1  0  0  0  0
 23  8  1  0  0  0  0
 23 21  1  1  0  0  0
 25 27  1  1  0  0  0
 25 31  1  0  0  0  0
 25 28  1  0  0  0  0
 28 30  1  0  0  0  0
 29 26  1  0  0  0  0
 29 30  1  0  0  0  0
 30 24  1  0  0  0  0
 31 29  2  0  0  0  0
M  END
>  <MODEL>
2

>  <REMARK>
 VINA RESULT:      -8.8      3.417      8.876
  Name = 
  3 active torsions:
  status: ('A' for Active; 'I' for Inactive)
    1  A    between atoms: C_3  and  C_9
    2  A    between atoms: C_3  and  N_22
    3  A    between atoms: C_15  and  C_23
                            x       y       z     vdW  Elec       q    Type
                         _______ _______ _______ _____ _____    ______ ____

>  <TORSDO>
F 3

$$$$
=
 OpenBabel11052422233D

 31 36  0  0  1  0  0  0  0  0999 V2000
  160.8370  202.6710  151.1070 C   0  0  0  0  0  0  0  0  0  0  0  0
  161.3460  205.8530  149.1330 N   0  0  0  0  0  0  0  0  0  0  0  0
  161.3130  205.4590  147.7300 C   0  0  0  0  0  0  0  0  0  0  0  0
  161.8910  203.5920  146.0830 C   0  0  0  0  0  3  0  0  0  0  0  0
  161.2400  204.9150  150.2380 C   0  0  0  0  0  0  0  0  0  0  0  0
  160.9530  203.1490  152.4130 C   0  0  0  0  0  3  0  0  0  0  0  0
  161.7680  204.2460  147.3890 C   0  0  0  0  0  3  0  0  0  0  0  0
  161.8950  207.6920  150.8270 C   0  0  1  0  0  3  0  0  0  0  0  0
  160.5880  201.3600  150.8850 F   0  0  0  0  0  0  0  0  0  0  0  0
  160.8800  207.7710  147.1280 C   0  0  0  0  0  3  0  0  0  0  0  0
  161.4190  203.9810  144.9050 C   0  0  0  0  0  3  0  0  0  0  0  0
  161.5340  206.7400  151.8260 O   0  0  0  0  0  0  0  0  0  0  0  0
  161.4370  207.2610  149.4500 C   0  0  0  0  0  0  0  0  0  0  0  0
  160.9700  203.5500  150.0300 C   0  0  0  0  0  3  0  0  0  0  0  0
  160.6610  205.1910  144.5920 C   0  0  0  0  0  3  0  0  0  0  0  0
  161.3360  205.3850  151.5630 C   0  0  0  0  0  0  0  0  0  0  0  0
  161.1970  204.5040  152.6400 C   0  0  0  0  0  3  0  0  0  0  0  0
  161.2360  208.1720  148.4930 C   0  0  0  0  0  3  0  0  0  0  0  0
  160.9150  206.4960  146.7360 C   0  0  0  0  0  0  0  0  0  0  0  0
  160.4600  206.2530  145.3620 C   0  0  0  0  0  3  0  0  0  0  0  0
  162.4010  209.8410  151.8990 N   0  0  0  0  0  2  0  0  0  0  0  0
  162.0620  210.0980  150.4930 C   0  0  1  0  0  3  0  0  0  0  0  0
  161.3520  209.0590  151.2280 C   0  0  1  0  0  3  0  0  0  0  0  0
  161.1830  211.3320  150.3970 C   0  0  0  0  0  2  0  0  0  0  0  0
  162.6760  213.2890  147.3030 C   0  0  2  0  0  3  0  0  0  0  0  0
  159.6790  213.8350  149.4520 C   0  0  0  0  0  1  0  0  0  0  0  0
  162.4950  212.9560  145.9030 N   0  0  0  0  0  1  0  0  0  0  0  0
  162.9790  211.7570  148.2610 S   0  0  0  0  0  0  0  0  0  0  0  0
  160.9250  213.3190  148.8190 C   0  0  0  0  0  0  0  0  0  0  0  0
  161.5830  212.1430  149.2570 N   0  0  0  0  0  0  0  0  0  0  0  0
  161.4630  213.9200  147.8150 N   0  0  0  0  0  0  0  0  0  0  0  0
  1  6  1  0  0  0  0
  2 13  1  0  0  0  0
  2  5  1  0  0  0  0
  3  2  1  0  0  0  0
  4  7  1  0  0  0  0
  5 16  2  0  0  0  0
  6 17  2  0  0  0  0
  7  3  2  0  0  0  0
  8 13  1  6  0  0  0
  8 23  1  0  0  0  0
  8 12  1  0  0  0  0
  9  1  1  0  0  0  0
 10 18  1  0  0  0  0
 11  4  2  0  0  0  0
 14  5  1  0  0  0  0
 14  1  2  0  0  0  0
 15 11  1  0  0  0  0
 15 20  2  0  0  0  0
 16 12  1  0  0  0  0
 16 17  1  0  0  0  0
 18 13  2  0  0  0  0
 19 10  2  0  0  0  0
 19  3  1  0  0  0  0
 20 19  1  0  0  0  0
 22 24  1  1  0  0  0
 22 23  1  0  0  0  0
 22 21  1  0  0  0  0
 23 21  1  1  0  0  0
 25 27  1  6  0  0  0
 25 31  1  0  0  0  0
 25 28  1  0  0  0  0
 28 30  1  0  0  0  0
 29 30  1  0  0  0  0
 29 26  1  0  0  0  0
 30 24  1  0  0  0  0
 31 29  2  0  0  0  0
M  END
>  <MODEL>
3

>  <REMARK>
 VINA RESULT:      -8.7      2.932      3.835
  Name = 
  3 active torsions:
  status: ('A' for Active; 'I' for Inactive)
    1  A    between atoms: C_3  and  C_9
    2  A    between atoms: C_3  and  N_22
    3  A    between atoms: C_15  and  C_23
                            x       y       z     vdW  Elec       q    Type
                         _______ _______ _______ _____ _____    ______ ____

>  <TORSDO>
F 3

$$$$
=
 OpenBabel11052422233D

 31 36  0  0  1  0  0  0  0  0999 V2000
  161.9370  206.1610  146.0420 C   0  0  0  0  0  0  0  0  0  0  0  0
  161.0320  203.4640  148.5280 N   0  0  0  0  0  0  0  0  0  0  0  0
  161.0120  202.2180  147.7710 C   0  0  0  0  0  0  0  0  0  0  0  0
  160.4950  201.1790  145.4930 C   0  0  0  0  0  3  0  0  0  0  0  0
  161.2880  204.7650  147.9340 C   0  0  0  0  0  0  0  0  0  0  0  0
  161.8620  207.2990  146.8460 C   0  0  0  0  0  3  0  0  0  0  0  0
  160.6430  202.2500  146.4840 C   0  0  0  0  0  3  0  0  0  0  0  0
  160.4340  204.6490  150.7160 C   0  0  1  0  0  3  0  0  0  0  0  0
  162.2840  206.2750  144.7380 F   0  0  0  0  0  0  0  0  0  0  0  0
  161.2040  200.9900  149.8570 C   0  0  0  0  0  3  0  0  0  0  0  0
  160.8570  199.9060  145.5790 C   0  0  0  0  0  3  0  0  0  0  0  0
  160.9370  205.8300  150.0970 O   0  0  0  0  0  0  0  0  0  0  0  0
  160.8400  203.4020  149.9590 C   0  0  0  0  0  0  0  0  0  0  0  0
  161.6610  204.9050  146.5850 C   0  0  0  0  0  3  0  0  0  0  0  0
  161.4860  199.2200  146.7070 C   0  0  0  0  0  3  0  0  0  0  0  0
  161.2350  205.9210  148.7380 C   0  0  0  0  0  0  0  0  0  0  0  0
  161.5160  207.1770  148.1930 C   0  0  0  0  0  3  0  0  0  0  0  0
  160.9010  202.2240  150.5890 C   0  0  0  0  0  3  0  0  0  0  0  0
  161.2550  200.9550  148.5240 C   0  0  0  0  0  0  0  0  0  0  0  0
  161.6420  199.6620  147.9490 C   0  0  0  0  0  3  0  0  0  0  0  0
  162.3100  204.9510  152.2700 N   0  0  0  0  0  2  0  0  0  0  0  0
  161.2920  205.9640  152.5770 C   0  0  1  0  0  3  0  0  0  0  0  0
  160.8800  204.6260  152.1740 C   0  0  1  0  0  3  0  0  0  0  0  0
  161.1460  206.1010  154.0820 C   0  0  0  0  0  2  0  0  0  0  0  0
  160.6050  209.9780  154.6360 C   0  0  2  0  0  3  0  0  0  0  0  0
  160.0680  206.9990  156.8110 C   0  0  0  0  0  1  0  0  0  0  0  0
  159.4610  210.7590  154.2060 N   0  0  0  0  0  1  0  0  0  0  0  0
  161.0850  208.8140  153.3050 S   0  0  0  0  0  0  0  0  0  0  0  0
  160.3950  207.9290  155.6940 C   0  0  0  0  0  0  0  0  0  0  0  0
  160.8630  207.4850  154.4330 N   0  0  0  0  0  0  0  0  0  0  0  0
  160.2480  209.2020  155.8200 N   0  0  0  0  0  0  0  0  0  0  0  0
  1 14  2  0  0  0  0
  1  6  1  0  0  0  0
  2 13  1  0  0  0  0
  3 19  1  0  0  0  0
  3  2  1  0  0  0  0
  4 11  2  0  0  0  0
  4  7  1  0  0  0  0
  5  2  1  0  0  0  0
  5 16  2  0  0  0  0
  6 17  2  0  0  0  0
  7  3  2  0  0  0  0
  8 13  1  6  0  0  0
  8 23  1  0  0  0  0
  9  1  1  0  0  0  0
 10 18  1  0  0  0  0
 11 15  1  0  0  0  0
 12  8  1  0  0  0  0
 13 18  2  0  0  0  0
 14  5  1  0  0  0  0
 15 20  2  0  0  0  0
 16 12  1  0  0  0  0
 17 16  1  0  0  0  0
 19 10  2  0  0  0  0
 20 19  1  0  0  0  0
 21 22  1  0  0  0  0
 22 24  1  1  0  0  0
 23 21  1  6  0  0  0
 23 22  1  0  0  0  0
 24 30  1  0  0  0  0
 25 27  1  6  0  0  0
 25 31  1  0  0  0  0
 28 30  1  0  0  0  0
 28 25  1  0  0  0  0
 29 31  2  0  0  0  0
 29 26  1  0  0  0  0
 30 29  1  0  0  0  0
M  END
>  <MODEL>
4

>  <REMARK>
 VINA RESULT:      -8.7      2.727      4.644
  Name = 
  3 active torsions:
  status: ('A' for Active; 'I' for Inactive)
    1  A    between atoms: C_3  and  C_9
    2  A    between atoms: C_3  and  N_22
    3  A    between atoms: C_15  and  C_23
                            x       y       z     vdW  Elec       q    Type
                         _______ _______ _______ _____ _____    ______ ____

>  <TORSDO>
F 3

$$$$
=
 OpenBabel11052422233D

 31 36  0  0  1  0  0  0  0  0999 V2000
  160.6210  207.4640  154.3560 C   0  0  0  0  0  0  0  0  0  0  0  0
  161.5350  206.8370  150.7440 N   0  0  0  0  0  0  0  0  0  0  0  0
  161.4050  205.3990  150.5450 C   0  0  0  0  0  0  0  0  0  0  0  0
  161.6560  203.1160  151.6680 C   0  0  0  0  0  3  0  0  0  0  0  0
  161.3240  207.4990  152.0200 C   0  0  0  0  0  0  0  0  0  0  0  0
  160.8430  208.8380  154.4510 C   0  0  0  0  0  3  0  0  0  0  0  0
  161.6670  204.5800  151.5720 C   0  0  0  0  0  3  0  0  0  0  0  0
  162.3960  209.0580  149.8050 C   0  0  1  0  0  3  0  0  0  0  0  0
  160.1760  206.7740  155.4320 F   0  0  0  0  0  0  0  0  0  0  0  0
  161.2990  205.7750  148.1500 C   0  0  0  0  0  3  0  0  0  0  0  0
  161.2120  202.2250  150.7910 C   0  0  0  0  0  3  0  0  0  0  0  0
  161.9280  209.6370  151.0200 O   0  0  0  0  0  0  0  0  0  0  0  0
  161.8410  207.6640  149.5980 C   0  0  0  0  0  0  0  0  0  0  0  0
  160.8510  206.8030  153.1480 C   0  0  0  0  0  3  0  0  0  0  0  0
  160.6320  202.4680  149.4710 C   0  0  0  0  0  3  0  0  0  0  0  0
  161.5260  208.8890  152.1270 C   0  0  0  0  0  0  0  0  0  0  0  0
  161.2900  209.5500  153.3360 C   0  0  0  0  0  3  0  0  0  0  0  0
  161.7490  207.1540  148.3660 C   0  0  0  0  0  3  0  0  0  0  0  0
  161.1350  204.9200  149.1600 C   0  0  0  0  0  0  0  0  0  0  0  0
  160.6110  203.6020  148.7830 C   0  0  0  0  0  3  0  0  0  0  0  0
  160.9790  210.9070  149.0310 N   0  0  0  0  0  2  0  0  0  0  0  0
  162.3720  211.3710  149.0440 C   0  0  1  0  0  3  0  0  0  0  0  0
  162.0710  210.0000  148.6510 C   0  0  1  0  0  3  0  0  0  0  0  0
  162.6460  212.1980  147.8010 C   0  0  0  0  0  2  0  0  0  0  0  0
  159.3950  213.7630  146.1850 C   0  0  2  0  0  3  0  0  0  0  0  0
  161.2470  214.4520  149.3450 C   0  0  0  0  0  1  0  0  0  0  0  0
  158.0510  213.2200  146.2530 N   0  0  0  0  0  1  0  0  0  0  0  0
  160.5870  212.4050  145.8810 S   0  0  0  0  0  0  0  0  0  0  0  0
  160.7770  213.9180  148.0370 C   0  0  0  0  0  0  0  0  0  0  0  0
  161.4250  212.8550  147.3590 N   0  0  0  0  0  0  0  0  0  0  0  0
  159.7300  214.3940  147.4570 N   0  0  0  0  0  0  0  0  0  0  0  0
  1  6  1  0  0  0  0
  1  9  1  0  0  0  0
  2  5  1  0  0  0  0
  3  2  1  0  0  0  0
  3  7  2  0  0  0  0
  5 16  2  0  0  0  0
  5 14  1  0  0  0  0
  7  4  1  0  0  0  0
  8 13  1  6  0  0  0
  8 12  1  0  0  0  0
 10 18  1  0  0  0  0
 10 19  2  0  0  0  0
 11  4  2  0  0  0  0
 12 16  1  0  0  0  0
 13  2  1  0  0  0  0
 14  1  2  0  0  0  0
 15 11  1  0  0  0  0
 16 17  1  0  0  0  0
 17  6  2  0  0  0  0
 18 13  2  0  0  0  0
 19  3  1  0  0  0  0
 20 19  1  0  0  0  0
 20 15  2  0  0  0  0
 21 22  1  0  0  0  0
 22 24  1  6  0  0  0
 23 21  1  1  0  0  0
 23 22  1  0  0  0  0
 23  8  1  0  0  0  0
 25 27  1  1  0  0  0
 25 31  1  0  0  0  0
 28 25  1  0  0  0  0
 28 30  1  0  0  0  0
 29 26  1  0  0  0  0
 30 24  1  0  0  0  0
 30 29  1  0  0  0  0
 31 29  2  0  0  0  0
M  END
>  <MODEL>
5

>  <REMARK>
 VINA RESULT:      -8.5      3.929      5.579
  Name = 
  3 active torsions:
  status: ('A' for Active; 'I' for Inactive)
    1  A    between atoms: C_3  and  C_9
    2  A    between atoms: C_3  and  N_22
    3  A    between atoms: C_15  and  C_23
                            x       y       z     vdW  Elec       q    Type
                         _______ _______ _______ _____ _____    ______ ____

>  <TORSDO>
F 3

$$$$
=
 OpenBabel11052422233D

 31 36  0  0  1  0  0  0  0  0999 V2000
  161.1440  200.9690  149.3440 C   0  0  0  0  0  0  0  0  0  0  0  0
  161.2610  204.7290  148.9900 N   0  0  0  0  0  0  0  0  0  0  0  0
  161.3420  204.9910  147.5590 C   0  0  0  0  0  0  0  0  0  0  0  0
  162.2530  204.1170  145.3360 C   0  0  0  0  0  3  0  0  0  0  0  0
  161.2490  203.3970  149.5680 C   0  0  0  0  0  0  0  0  0  0  0  0
  161.1360  200.8340  150.7330 C   0  0  0  0  0  3  0  0  0  0  0  0
  161.9820  204.1120  146.7780 C   0  0  0  0  0  3  0  0  0  0  0  0
  161.4660  205.6860  151.3560 C   0  0  1  0  0  3  0  0  0  0  0  0
  161.0980  199.8700  148.5560 F   0  0  0  0  0  0  0  0  0  0  0  0
  160.6000  207.2660  147.9690 C   0  0  0  0  0  3  0  0  0  0  0  0
  161.7760  204.9270  144.3990 C   0  0  0  0  0  3  0  0  0  0  0  0
  161.2090  204.3590  151.8070 O   0  0  0  0  0  0  0  0  0  0  0  0
  161.1320  205.8550  149.8890 C   0  0  0  0  0  0  0  0  0  0  0  0
  161.1900  202.2410  148.7680 C   0  0  0  0  0  3  0  0  0  0  0  0
  160.8620  206.0570  144.5620 C   0  0  0  0  0  3  0  0  0  0  0  0
  161.2210  203.2440  150.9690 C   0  0  0  0  0  0  0  0  0  0  0  0
  161.1700  201.9700  151.5430 C   0  0  0  0  0  3  0  0  0  0  0  0
  160.8380  207.0650  149.4020 C   0  0  0  0  0  3  0  0  0  0  0  0
  160.8360  206.3070  147.0730 C   0  0  0  0  0  0  0  0  0  0  0  0
  160.4780  206.6420  145.6900 C   0  0  0  0  0  3  0  0  0  0  0  0
  161.0940  206.4640  153.6540 N   0  0  0  0  0  2  0  0  0  0  0  0
  161.6620  207.5750  152.8800 C   0  0  1  0  0  3  0  0  0  0  0  0
  160.7130  206.6670  152.2490 C   0  0  1  0  0  3  0  0  0  0  0  0
  160.9520  208.8660  153.2440 C   0  0  0  0  0  2  0  0  0  0  0  0
  161.9280  211.3640  150.3390 C   0  0  2  0  0  3  0  0  0  0  0  0
  159.1420  211.3070  152.8140 C   0  0  0  0  0  1  0  0  0  0  0  0
  161.6290  211.2050  148.9290 N   0  0  0  0  0  1  0  0  0  0  0  0
  162.4660  209.7550  151.0340 S   0  0  0  0  0  0  0  0  0  0  0  0
  160.3540  211.0110  152.0000 C   0  0  0  0  0  0  0  0  0  0  0  0
  161.1550  209.8600  152.2010 N   0  0  0  0  0  0  0  0  0  0  0  0
  160.7270  211.7930  151.0470 N   0  0  0  0  0  0  0  0  0  0  0  0
  1  6  1  0  0  0  0
  2  5  1  0  0  0  0
  2 13  1  0  0  0  0
  3  2  1  0  0  0  0
  4  7  1  0  0  0  0
  5 16  2  0  0  0  0
  6 17  2  0  0  0  0
  7  3  2  0  0  0  0
  8 13  1  6  0  0  0
  8 12  1  0  0  0  0
  8 23  1  0  0  0  0
  9  1  1  0  0  0  0
 10 18  1  0  0  0  0
 11 15  1  0  0  0  0
 11  4  2  0  0  0  0
 14  1  2  0  0  0  0
 14  5  1  0  0  0  0
 15 20  2  0  0  0  0
 16 17  1  0  0  0  0
 16 12  1  0  0  0  0
 18 13  2  0  0  0  0
 19  3  1  0  0  0  0
 19 10  2  0  0  0  0
 20 19  1  0  0  0  0
 22 24  1  1  0  0  0
 22 21  1  0  0  0  0
 23 22  1  0  0  0  0
 23 21  1  1  0  0  0
 25 27  1  6  0  0  0
 25 28  1  0  0  0  0
 25 31  1  0  0  0  0
 28 30  1  0  0  0  0
 29 30  1  0  0  0  0
 29 26  1  0  0  0  0
 30 24  1  0  0  0  0
 31 29  2  0  0  0  0
M  END
>  <MODEL>
6

>  <REMARK>
 VINA RESULT:      -8.2      2.056      2.773
  Name = 
  3 active torsions:
  status: ('A' for Active; 'I' for Inactive)
    1  A    between atoms: C_3  and  C_9
    2  A    between atoms: C_3  and  N_22
    3  A    between atoms: C_15  and  C_23
                            x       y       z     vdW  Elec       q    Type
                         _______ _______ _______ _____ _____    ______ ____

>  <TORSDO>
F 3

$$$$
=
 OpenBabel11052422233D

 31 36  0  0  1  0  0  0  0  0999 V2000
  161.1430  200.6220  148.6560 C   0  0  0  0  0  0  0  0  0  0  0  0
  161.2550  204.3940  148.8450 N   0  0  0  0  0  0  0  0  0  0  0  0
  161.2880  204.8600  147.4650 C   0  0  0  0  0  0  0  0  0  0  0  0
  162.1200  204.3190  145.1090 C   0  0  0  0  0  3  0  0  0  0  0  0
  161.2610  202.9920  149.2250 C   0  0  0  0  0  0  0  0  0  0  0  0
  161.1830  200.2880  150.0100 C   0  0  0  0  0  3  0  0  0  0  0  0
  161.8990  204.1050  146.5430 C   0  0  0  0  0  3  0  0  0  0  0  0
  161.5440  205.0000  151.3160 C   0  0  1  0  0  3  0  0  0  0  0  0
  161.0680  199.6480  147.7200 F   0  0  0  0  0  0  0  0  0  0  0  0
  160.5650  207.0500  148.2240 C   0  0  0  0  0  3  0  0  0  0  0  0
  161.6130  205.2540  144.3160 C   0  0  0  0  0  3  0  0  0  0  0  0
  161.3000  203.6210  151.5790 O   0  0  0  0  0  0  0  0  0  0  0  0
  161.1600  205.3780  149.9010 C   0  0  0  0  0  0  0  0  0  0  0  0
  161.1720  201.9640  148.2690 C   0  0  0  0  0  3  0  0  0  0  0  0
  160.7080  206.3460  144.6720 C   0  0  0  0  0  3  0  0  0  0  0  0
  161.2810  202.6380  150.5890 C   0  0  0  0  0  0  0  0  0  0  0  0
  161.2470  201.2950  150.9740 C   0  0  0  0  0  3  0  0  0  0  0  0
  160.8520  206.6450  149.6040 C   0  0  0  0  0  3  0  0  0  0  0  0
  160.7690  206.2300  147.1910 C   0  0  0  0  0  0  0  0  0  0  0  0
  160.3640  206.7610  145.8850 C   0  0  0  0  0  3  0  0  0  0  0  0
  161.7490  206.1840  153.4560 N   0  0  0  0  0  2  0  0  0  0  0  0
  161.4200  207.1680  152.4170 C   0  0  1  0  0  3  0  0  0  0  0  0
  160.8250  205.8390  152.3670 C   0  0  1  0  0  3  0  0  0  0  0  0
  160.3970  208.1540  152.9530 C   0  0  0  0  0  2  0  0  0  0  0  0
  161.7380  210.3120  155.9830 C   0  0  2  0  0  3  0  0  0  0  0  0
  162.4320  210.3620  152.3210 C   0  0  0  0  0  1  0  0  0  0  0  0
  162.7970  209.9430  156.9020 N   0  0  0  0  0  1  0  0  0  0  0  0
  160.6640  208.8590  155.6730 S   0  0  0  0  0  0  0  0  0  0  0  0
  161.9260  210.0580  153.6880 C   0  0  0  0  0  0  0  0  0  0  0  0
  161.0080  209.0130  153.9570 N   0  0  0  0  0  0  0  0  0  0  0  0
  162.3190  210.7340  154.7120 N   0  0  0  0  0  0  0  0  0  0  0  0
  1  6  1  0  0  0  0
  2  5  1  0  0  0  0
  2 13  1  0  0  0  0
  3  2  1  0  0  0  0
  4  7  1  0  0  0  0
  5 16  2  0  0  0  0
  6 17  2  0  0  0  0
  7  3  2  0  0  0  0
  8 13  1  6  0  0  0
  8 12  1  0  0  0  0
  8 23  1  0  0  0  0
  9  1  1  0  0  0  0
 10 18  1  0  0  0  0
 11 15  1  0  0  0  0
 11  4  2  0  0  0  0
 14  1  2  0  0  0  0
 14  5  1  0  0  0  0
 15 20  2  0  0  0  0
 16 17  1  0  0  0  0
 16 12  1  0  0  0  0
 18 13  2  0  0  0  0
 19  3  1  0  0  0  0
 19 10  2  0  0  0  0
 20 19  1  0  0  0  0
 22 24  1  1  0  0  0
 22 21  1  0  0  0  0
 23 22  1  0  0  0  0
 23 21  1  1  0  0  0
 24 30  1  0  0  0  0
 25 27  1  1  0  0  0
 26 29  1  0  0  0  0
 28 25  1  0  0  0  0
 29 30  1  0  0  0  0
 29 31  2  0  0  0  0
 30 28  1  0  0  0  0
 31 25  1  0  0  0  0
M  END
>  <MODEL>
7

>  <REMARK>
 VINA RESULT:      -7.9      1.910      2.424
  Name = 
  3 active torsions:
  status: ('A' for Active; 'I' for Inactive)
    1  A    between atoms: C_3  and  C_9
    2  A    between atoms: C_3  and  N_22
    3  A    between atoms: C_15  and  C_23
                            x       y       z     vdW  Elec       q    Type
                         _______ _______ _______ _____ _____    ______ ____

>  <TORSDO>
F 3

$$$$
=
 OpenBabel11052422233D

 31 36  0  0  1  0  0  0  0  0999 V2000
  161.7840  204.5540  145.5460 C   0  0  0  0  0  0  0  0  0  0  0  0
  161.3290  205.0280  149.2670 N   0  0  0  0  0  0  0  0  0  0  0  0
  161.0350  203.7050  149.8020 C   0  0  0  0  0  0  0  0  0  0  0  0
  159.9030  201.4670  149.3060 C   0  0  0  0  0  3  0  0  0  0  0  0
  161.5220  205.3020  147.8530 C   0  0  0  0  0  0  0  0  0  0  0  0
  161.9890  205.8710  145.1340 C   0  0  0  0  0  3  0  0  0  0  0  0
  160.3650  202.8330  149.0380 C   0  0  0  0  0  3  0  0  0  0  0  0
  161.3710  207.5510  149.6990 C   0  0  1  0  0  3  0  0  0  0  0  0
  161.8080  203.5490  144.6390 F   0  0  0  0  0  0  0  0  0  0  0  0
  161.6470  204.5020  152.0120 C   0  0  0  0  0  3  0  0  0  0  0  0
  160.1840  200.6770  150.3340 C   0  0  0  0  0  3  0  0  0  0  0  0
  161.7890  207.6750  148.3420 O   0  0  0  0  0  0  0  0  0  0  0  0
  161.4900  206.1250  150.1950 C   0  0  0  0  0  0  0  0  0  0  0  0
  161.5620  204.2720  146.8960 C   0  0  0  0  0  3  0  0  0  0  0  0
  161.0220  200.9700  151.4960 C   0  0  0  0  0  3  0  0  0  0  0  0
  161.7500  206.6250  147.4240 C   0  0  0  0  0  0  0  0  0  0  0  0
  161.9770  206.9030  146.0730 C   0  0  0  0  0  3  0  0  0  0  0  0
  161.6210  205.8770  151.5020 C   0  0  0  0  0  3  0  0  0  0  0  0
  161.3670  203.4560  151.2340 C   0  0  0  0  0  0  0  0  0  0  0  0
  161.5080  202.1440  151.8780 C   0  0  0  0  0  3  0  0  0  0  0  0
  161.8610  209.9170  150.1320 N   0  0  0  0  0  2  0  0  0  0  0  0
  161.2340  209.3500  151.3340 C   0  0  1  0  0  3  0  0  0  0  0  0
  162.1590  208.5400  150.5520 C   0  0  1  0  0  3  0  0  0  0  0  0
  161.9460  209.8660  152.5720 C   0  0  0  0  0  2  0  0  0  0  0  0
  159.3670  210.9350  155.3720 C   0  0  2  0  0  3  0  0  0  0  0  0
  161.1320  207.7370  154.6270 C   0  0  0  0  0  1  0  0  0  0  0  0
  157.9250  210.9990  155.2360 N   0  0  0  0  0  1  0  0  0  0  0  0
  160.1530  211.6210  153.8650 S   0  0  0  0  0  0  0  0  0  0  0  0
  160.6170  209.1350  154.6220 C   0  0  0  0  0  0  0  0  0  0  0  0
  160.9860  210.0900  153.6430 N   0  0  0  0  0  0  0  0  0  0  0  0
  159.7830  209.5430  155.5150 N   0  0  0  0  0  0  0  0  0  0  0  0
  1 14  1  0  0  0  0
  2  3  1  0  0  0  0
  2 13  1  0  0  0  0
  3 19  1  0  0  0  0
  4 11  2  0  0  0  0
  5  2  1  0  0  0  0
  6  1  2  0  0  0  0
  6 17  1  0  0  0  0
  7  4  1  0  0  0  0
  7  3  2  0  0  0  0
  8 12  1  6  0  0  0
  8 13  1  0  0  0  0
  8 23  1  0  0  0  0
  9  1  1  0  0  0  0
 11 15  1  0  0  0  0
 13 18  2  0  0  0  0
 14  5  2  0  0  0  0
 15 20  2  0  0  0  0
 16  5  1  0  0  0  0
 16 12  1  0  0  0  0
 17 16  2  0  0  0  0
 18 10  1  0  0  0  0
 19 20  1  0  0  0  0
 19 10  2  0  0  0  0
 21 22  1  0  0  0  0
 22 24  1  1  0  0  0
 23 21  1  6  0  0  0
 23 22  1  0  0  0  0
 24 30  1  0  0  0  0
 25 27  1  6  0  0  0
 25 31  1  0  0  0  0
 28 25  1  0  0  0  0
 29 26  1  0  0  0  0
 29 31  2  0  0  0  0
 30 28  1  0  0  0  0
 30 29  1  0  0  0  0
M  END
>  <MODEL>
8

>  <REMARK>
 VINA RESULT:      -7.8      1.918      4.346
  Name = 
  3 active torsions:
  status: ('A' for Active; 'I' for Inactive)
    1  A    between atoms: C_3  and  C_9
    2  A    between atoms: C_3  and  N_22
    3  A    between atoms: C_15  and  C_23
                            x       y       z     vdW  Elec       q    Type
                         _______ _______ _______ _____ _____    ______ ____

>  <TORSDO>
F 3

$$$$
=
 OpenBabel11052422233D

 31 36  0  0  1  0  0  0  0  0999 V2000
  161.8050  204.5470  145.5390 C   0  0  0  0  0  0  0  0  0  0  0  0
  161.2930  204.9730  149.2590 N   0  0  0  0  0  0  0  0  0  0  0  0
  160.9980  203.6420  149.7740 C   0  0  0  0  0  0  0  0  0  0  0  0
  159.8830  201.4060  149.2320 C   0  0  0  0  0  3  0  0  0  0  0  0
  161.5060  205.2660  147.8520 C   0  0  0  0  0  0  0  0  0  0  0  0
  162.0110  205.8700  145.1470 C   0  0  0  0  0  3  0  0  0  0  0  0
  160.3430  202.7770  148.9880 C   0  0  0  0  0  3  0  0  0  0  0  0
  161.3180  207.4900  149.7230 C   0  0  1  0  0  3  0  0  0  0  0  0
  161.8470  203.5540  144.6210 F   0  0  0  0  0  0  0  0  0  0  0  0
  161.5730  204.4150  152.0020 C   0  0  0  0  0  3  0  0  0  0  0  0
  160.1530  200.6040  150.2550 C   0  0  0  0  0  3  0  0  0  0  0  0
  161.7550  207.6330  148.3740 O   0  0  0  0  0  0  0  0  0  0  0  0
  161.4360  206.0590  150.2020 C   0  0  0  0  0  0  0  0  0  0  0  0
  161.5650  204.2480  146.8820 C   0  0  0  0  0  3  0  0  0  0  0  0
  160.9710  200.8870  151.4330 C   0  0  0  0  0  3  0  0  0  0  0  0
  161.7340  206.5950  147.4420 C   0  0  0  0  0  0  0  0  0  0  0  0
  161.9800  206.8910  146.0980 C   0  0  0  0  0  3  0  0  0  0  0  0
  161.5480  205.7960  151.5090 C   0  0  0  0  0  3  0  0  0  0  0  0
  161.3090  203.3770  151.2070 C   0  0  0  0  0  0  0  0  0  0  0  0
  161.4470  202.0580  151.8360 C   0  0  0  0  0  3  0  0  0  0  0  0
  161.6600  209.8490  150.3120 N   0  0  0  0  0  2  0  0  0  0  0  0
  161.1650  209.1450  151.5030 C   0  0  1  0  0  3  0  0  0  0  0  0
  162.0890  208.4720  150.5990 C   0  0  1  0  0  3  0  0  0  0  0  0
  161.9220  209.6210  152.7290 C   0  0  0  0  0  2  0  0  0  0  0  0
  159.8340  208.5120  155.8980 C   0  0  2  0  0  3  0  0  0  0  0  0
  160.3550  211.7990  154.2190 C   0  0  0  0  0  1  0  0  0  0  0  0
  160.3450  208.3110  157.2400 N   0  0  0  0  0  1  0  0  0  0  0  0
  161.0090  207.8020  154.6840 S   0  0  0  0  0  0  0  0  0  0  0  0
  160.3750  210.3640  154.6160 C   0  0  0  0  0  0  0  0  0  0  0  0
  161.1320  209.3830  153.9280 N   0  0  0  0  0  0  0  0  0  0  0  0
  159.7070  209.9420  155.6330 N   0  0  0  0  0  0  0  0  0  0  0  0
  1 14  1  0  0  0  0
  2  3  1  0  0  0  0
  2 13  1  0  0  0  0
  3 19  1  0  0  0  0
  4 11  2  0  0  0  0
  5  2  1  0  0  0  0
  6  1  2  0  0  0  0
  6 17  1  0  0  0  0
  7  4  1  0  0  0  0
  7  3  2  0  0  0  0
  8 12  1  6  0  0  0
  8 13  1  0  0  0  0
  8 23  1  0  0  0  0
  9  1  1  0  0  0  0
 11 15  1  0  0  0  0
 13 18  2  0  0  0  0
 14  5  2  0  0  0  0
 15 20  2  0  0  0  0
 16  5  1  0  0  0  0
 16 12  1  0  0  0  0
 17 16  2  0  0  0  0
 18 10  1  0  0  0  0
 19 20  1  0  0  0  0
 19 10  2  0  0  0  0
 21 22  1  0  0  0  0
 22 24  1  1  0  0  0
 23 21  1  6  0  0  0
 23 22  1  0  0  0  0
 24 30  1  0  0  0  0
 25 27  1  1  0  0  0
 26 29  1  0  0  0  0
 28 25  1  0  0  0  0
 29 31  2  0  0  0  0
 30 29  1  0  0  0  0
 30 28  1  0  0  0  0
 31 25  1  0  0  0  0
M  END
>  <MODEL>
9

>  <REMARK>
 VINA RESULT:      -7.6      2.007      4.279
  Name = 
  3 active torsions:
  status: ('A' for Active; 'I' for Inactive)
    1  A    between atoms: C_3  and  C_9
    2  A    between atoms: C_3  and  N_22
    3  A    between atoms: C_15  and  C_23
                            x       y       z     vdW  Elec       q    Type
                         _______ _______ _______ _____ _____    ______ ____

>  <TORSDO>
F 3

$$$$
