=
 OpenBabel11062410493D

 32 36  0  0  1  0  0  0  0  0999 V2000
  161.6060  208.1120  155.7900 C   0  0  0  0  0  2  0  0  0  0  0  0
  161.1740  206.7980  150.9740 C   0  0  0  0  0  0  0  0  0  0  0  0
  161.0810  201.9060  151.5560 C   0  0  0  0  0  3  0  0  0  0  0  0
  161.3860  201.8060  150.2620 C   0  0  0  0  0  3  0  0  0  0  0  0
  160.9400  208.3060  152.8740 C   0  0  0  0  0  0  0  0  0  0  0  0
  160.7410  205.9040  153.1860 C   0  0  0  0  0  3  0  0  0  0  0  0
  160.4710  207.3310  155.1750 C   0  0  0  0  0  2  0  0  0  0  0  0
  160.7460  203.2170  152.2140 C   0  0  0  0  0  3  0  0  0  0  0  0
  160.9690  205.6780  151.8210 C   0  0  0  0  0  0  0  0  0  0  0  0
  161.0020  204.4200  151.3300 C   0  0  0  0  0  0  0  0  0  0  0  0
  161.3810  205.3990  149.0640 N   0  0  0  0  0  0  0  0  0  0  0  0
  160.4650  211.8360  154.7340 S   0  0  0  0  0  0  0  0  0  0  0  0
  160.8740  210.2500  154.6360 C   0  0  0  0  0  0  0  0  0  0  0  0
  160.7200  207.1960  153.7180 C   0  0  0  0  0  0  0  0  0  0  0  0
  160.9070  209.6710  153.3210 N   0  0  0  0  0  2  0  0  0  0  0  0
  161.2590  209.5210  155.8250 N   0  0  0  0  0  0  0  0  0  0  0  0
  161.4520  202.9940  149.3960 C   0  0  0  0  0  3  0  0  0  0  0  0
  161.2570  204.2240  149.8860 C   0  0  1  0  0  3  0  0  0  0  0  0
  161.1550  208.0860  151.5120 C   0  0  0  0  0  3  0  0  0  0  0  0
  161.3660  206.6580  149.6930 N   0  0  0  0  0  0  0  0  0  0  0  0
  162.9330  204.6730  145.7460 C   0  0  0  0  0  0  0  0  0  0  0  0
  162.0120  205.2550  144.8720 C   0  0  0  0  0  3  0  0  0  0  0  0
  160.6550  205.9470  146.7580 C   0  0  0  0  0  0  0  0  0  0  0  0
  159.9950  206.4700  144.5210 F   0  0  0  0  0  0  0  0  0  0  0  0
  160.8750  205.8930  145.3760 C   0  0  0  0  0  0  0  0  0  0  0  0
  162.7160  204.7230  147.1250 C   0  0  0  0  0  3  0  0  0  0  0  0
  164.0390  204.0630  145.2560 F   0  0  0  0  0  0  0  0  0  0  0  0
  159.5750  206.6170  147.2350 F   0  0  0  0  0  0  0  0  0  0  0  0
  161.5710  205.3440  147.6410 C   0  0  0  0  0  0  0  0  0  0  0  0
  161.2460  210.1450  157.1450 C   0  0  0  0  0  2  0  0  0  0  0  0
  162.3240  211.2130  157.2510 C   0  0  0  0  0  2  0  0  0  0  0  0
  163.6380  210.5930  157.2610 N   0  0  0  0  0  1  0  0  0  0  0  0
  1 16  1  0  0  0  0
  2 19  1  0  0  0  0
  2  9  1  0  0  0  0
  3  8  2  0  0  0  0
  4  3  1  0  0  0  0
  5 15  1  0  0  0  0
  5 14  1  0  0  0  0
  6 14  2  0  0  0  0
  7  1  1  0  0  0  0
  9  6  1  0  0  0  0
 10  9  2  0  0  0  0
 10  8  1  0  0  0  0
 11 20  1  0  0  0  0
 11 18  1  0  0  0  0
 13 12  2  0  0  0  0
 13 16  1  0  0  0  0
 14  7  1  0  0  0  0
 15 13  1  0  0  0  0
 16 30  1  0  0  0  0
 17  4  2  0  0  0  0
 18 17  1  1  0  0  0
 18 10  1  0  0  0  0
 19  5  2  0  0  0  0
 20  2  2  0  0  0  0
 21 26  1  0  0  0  0
 22 25  1  0  0  0  0
 22 21  2  0  0  0  0
 23 28  1  0  0  0  0
 23 29  1  0  0  0  0
 24 25  1  0  0  0  0
 25 23  2  0  0  0  0
 26 29  2  0  0  0  0
 27 21  1  0  0  0  0
 29 11  1  0  0  0  0
 30 31  1  0  0  0  0
 31 32  1  0  0  0  0
M  END
>  <MODEL>
1

>  <REMARK>
 VINA RESULT:      -9.9      0.000      0.000
  Name = 
  3 active torsions:
  status: ('A' for Active; 'I' for Inactive)
    1  A    between atoms: C_1  and  C_10
    2  A    between atoms: C_10  and  N_24
    3  A    between atoms: N_16  and  C_32
                            x       y       z     vdW  Elec       q    Type
                         _______ _______ _______ _____ _____    ______ ____

>  <TORSDO>
F 3

$$$$
=
 OpenBabel11062410493D

 32 36  0  0  1  0  0  0  0  0999 V2000
  160.8000  203.8880  150.0920 C   0  0  0  0  0  2  0  0  0  0  0  0
  160.6800  208.4050  152.2580 C   0  0  0  0  0  0  0  0  0  0  0  0
  160.4890  206.9550  156.9630 C   0  0  0  0  0  3  0  0  0  0  0  0
  160.0560  208.1810  157.2610 C   0  0  0  0  0  3  0  0  0  0  0  0
  161.1970  206.8350  150.4670 C   0  0  0  0  0  0  0  0  0  0  0  0
  161.2580  206.1100  152.7860 C   0  0  0  0  0  3  0  0  0  0  0  0
  161.8140  204.4420  151.0620 C   0  0  0  0  0  2  0  0  0  0  0  0
  160.9750  206.5750  155.5900 C   0  0  0  0  0  3  0  0  0  0  0  0
  160.8860  207.3890  153.2260 C   0  0  0  0  0  0  0  0  0  0  0  0
  160.7190  207.6390  154.5430 C   0  0  0  0  0  0  0  0  0  0  0  0
  160.1950  210.0070  153.9450 N   0  0  0  0  0  0  0  0  0  0  0  0
  162.0900  205.6910  146.7200 S   0  0  0  0  0  0  0  0  0  0  0  0
  161.5650  205.4660  148.2580 C   0  0  0  0  0  0  0  0  0  0  0  0
  161.4180  205.8250  151.4280 C   0  0  0  0  0  0  0  0  0  0  0  0
  161.3670  206.6470  149.0530 N   0  0  0  0  0  2  0  0  0  0  0  0
  161.2440  204.1380  148.7330 N   0  0  0  0  0  0  0  0  0  0  0  0
  159.9900  209.2390  156.2410 C   0  0  0  0  0  3  0  0  0  0  0  0
  160.3150  208.9980  154.9660 C   0  0  1  0  0  3  0  0  0  0  0  0
  160.8380  208.1130  150.9020 C   0  0  0  0  0  3  0  0  0  0  0  0
  160.3570  209.6190  152.6020 N   0  0  0  0  0  0  0  0  0  0  0  0
  159.9890  213.2750  155.7390 C   0  0  0  0  0  0  0  0  0  0  0  0
  159.2100  214.0290  154.8600 C   0  0  0  0  0  3  0  0  0  0  0  0
  159.0640  212.1330  153.3570 C   0  0  0  0  0  0  0  0  0  0  0  0
  157.9750  214.1940  152.8310 F   0  0  0  0  0  0  0  0  0  0  0  0
  158.7460  213.4590  153.6710 C   0  0  0  0  0  0  0  0  0  0  0  0
  160.3120  211.9520  155.4280 C   0  0  0  0  0  3  0  0  0  0  0  0
  160.4320  213.8270  156.8950 F   0  0  0  0  0  0  0  0  0  0  0  0
  158.5610  211.5770  152.2260 F   0  0  0  0  0  0  0  0  0  0  0  0
  159.8670  211.3750  154.2320 C   0  0  0  0  0  0  0  0  0  0  0  0
  161.4260  202.9580  147.8920 C   0  0  0  0  0  2  0  0  0  0  0  0
  160.7230  201.7500  148.4930 C   0  0  0  0  0  2  0  0  0  0  0  0
  161.5630  200.5720  148.3640 N   0  0  0  0  0  1  0  0  0  0  0  0
  1  7  1  0  0  0  0
  2 20  2  0  0  0  0
  2  9  1  0  0  0  0
  3  4  1  0  0  0  0
  5 19  2  0  0  0  0
  5 14  1  0  0  0  0
  6  9  1  0  0  0  0
  7 14  1  0  0  0  0
  8  3  2  0  0  0  0
  9 10  2  0  0  0  0
 10 18  1  0  0  0  0
 10  8  1  0  0  0  0
 11 29  1  0  0  0  0
 11 18  1  0  0  0  0
 12 13  2  0  0  0  0
 13 16  1  0  0  0  0
 13 15  1  0  0  0  0
 14  6  2  0  0  0  0
 15  5  1  0  0  0  0
 16  1  1  0  0  0  0
 17  4  2  0  0  0  0
 18 17  1  6  0  0  0
 19  2  1  0  0  0  0
 20 11  1  0  0  0  0
 21 27  1  0  0  0  0
 22 21  2  0  0  0  0
 23 25  2  0  0  0  0
 23 29  1  0  0  0  0
 24 25  1  0  0  0  0
 25 22  1  0  0  0  0
 26 21  1  0  0  0  0
 28 23  1  0  0  0  0
 29 26  2  0  0  0  0
 30 31  1  0  0  0  0
 30 16  1  0  0  0  0
 32 31  1  0  0  0  0
M  END
>  <MODEL>
2

>  <REMARK>
 VINA RESULT:      -8.8      3.963      8.804
  Name = 
  3 active torsions:
  status: ('A' for Active; 'I' for Inactive)
    1  A    between atoms: C_1  and  C_10
    2  A    between atoms: C_10  and  N_24
    3  A    between atoms: N_16  and  C_32
                            x       y       z     vdW  Elec       q    Type
                         _______ _______ _______ _____ _____    ______ ____

>  <TORSDO>
F 3

$$$$
=
 OpenBabel11062410493D

 32 36  0  0  0  0  0  0  0  0999 V2000
  160.3120  210.6230  153.7950 C   0  0  0  0  0  2  0  0  0  0  0  0
  161.1840  206.2310  151.5440 C   0  0  0  0  0  0  0  0  0  0  0  0
  161.2940  207.8100  146.8780 C   0  0  0  0  0  3  0  0  0  0  0  0
  161.1050  206.5430  146.5070 C   0  0  0  0  0  3  0  0  0  0  0  0
  161.2280  207.7950  153.4130 C   0  0  0  0  0  0  0  0  0  0  0  0
  161.4330  208.6080  151.1320 C   0  0  0  0  0  3  0  0  0  0  0  0
  161.5070  210.2770  152.9410 C   0  0  0  0  0  2  0  0  0  0  0  0
  161.5510  208.2110  148.3050 C   0  0  0  0  0  2  0  0  0  0  0  0
  161.3290  207.3040  150.6260 C   0  0  0  0  0  0  0  0  0  0  0  0
  161.3560  207.0800  149.2950 C   0  0  0  0  0  0  0  0  0  0  0  0
  161.1650  204.6390  149.7810 N   0  0  0  0  0  0  0  0  0  0  0  0
  161.4890  208.9240  157.2610 S   0  0  0  0  0  0  0  0  0  0  0  0
  161.1120  209.1200  155.6760 C   0  0  0  0  0  0  0  0  0  0  0  0
  161.3890  208.8640  152.5050 C   0  0  0  0  0  0  0  0  0  0  0  0
  161.2030  207.9530  154.8410 N   0  0  0  0  0  2  0  0  0  0  0  0
  160.6340  210.3970  155.1920 N   0  0  0  0  0  0  0  0  0  0  0  0
  161.0990  205.4500  147.4920 C   0  0  0  0  0  3  0  0  0  0  0  0
  161.2320  205.6910  148.8010 C   0  0  0  0  0  0  0  0  0  0  0  0
  161.1370  206.4930  152.9140 C   0  0  0  0  0  3  0  0  0  0  0  0
  161.1070  204.9950  151.1410 N   0  0  0  0  0  0  0  0  0  0  0  0
  161.0620  201.5300  147.7150 C   0  0  0  0  0  0  0  0  0  0  0  0
  160.9290  200.5450  148.6960 C   0  0  0  0  0  3  0  0  0  0  0  0
  160.9470  202.2520  150.4170 C   0  0  0  0  0  0  0  0  0  0  0  0
  160.7230  199.9430  150.9900 F   0  0  0  0  0  0  0  0  0  0  0  0
  160.8700  200.9050  150.0450 C   0  0  0  0  0  0  0  0  0  0  0  0
  161.1420  202.8750  148.0820 C   0  0  0  0  0  3  0  0  0  0  0  0
  161.1120  201.1790  146.4070 F   0  0  0  0  0  0  0  0  0  0  0  0
  160.8320  202.5900  151.7260 F   0  0  0  0  0  0  0  0  0  0  0  0
  161.1010  203.2470  149.4320 C   0  0  0  0  0  0  0  0  0  0  0  0
  160.5230  211.5570  156.0700 C   0  0  0  0  0  2  0  0  0  0  0  0
  159.1650  212.2260  155.9160 C   0  0  0  0  0  2  0  0  0  0  0  0
  158.1680  211.5100  156.6920 N   0  0  0  0  0  1  0  0  0  0  0  0
  1 16  1  0  0  0  0
  2 19  1  0  0  0  0
  3  8  1  0  0  0  0
  4  3  2  0  0  0  0
  4 17  1  0  0  0  0
  5 15  1  0  0  0  0
  6 14  2  0  0  0  0
  7  1  1  0  0  0  0
  8 10  1  0  0  0  0
  9  6  1  0  0  0  0
  9  2  1  0  0  0  0
 10  9  2  0  0  0  0
 11 20  1  0  0  0  0
 13 12  2  0  0  0  0
 14  7  1  0  0  0  0
 14  5  1  0  0  0  0
 15 13  1  0  0  0  0
 16 13  1  0  0  0  0
 16 30  1  0  0  0  0
 17 18  2  0  0  0  0
 18 10  1  0  0  0  0
 18 11  1  0  0  0  0
 19  5  2  0  0  0  0
 20  2  2  0  0  0  0
 21 26  2  0  0  0  0
 21 22  1  0  0  0  0
 22 25  2  0  0  0  0
 23 28  1  0  0  0  0
 25 23  1  0  0  0  0
 25 24  1  0  0  0  0
 26 29  1  0  0  0  0
 27 21  1  0  0  0  0
 29 11  1  0  0  0  0
 29 23  2  0  0  0  0
 31 30  1  0  0  0  0
 31 32  1  0  0  0  0
M  END
>  <MODEL>
3

>  <REMARK>
 VINA RESULT:      -7.8      2.553      4.242
  Name = 
  3 active torsions:
  status: ('A' for Active; 'I' for Inactive)
    1  A    between atoms: C_1  and  C_10
    2  A    between atoms: C_10  and  N_24
    3  A    between atoms: N_16  and  C_32
                            x       y       z     vdW  Elec       q    Type
                         _______ _______ _______ _____ _____    ______ ____

>  <TORSDO>
F 3

$$$$
=
 OpenBabel11062410493D

 32 36  0  0  0  0  0  0  0  0999 V2000
  161.9700  203.7640  147.4790 C   0  0  0  0  0  2  0  0  0  0  0  0
  161.1080  207.2380  150.9870 C   0  0  0  0  0  0  0  0  0  0  0  0
  162.2360  211.2410  148.3450 C   0  0  0  0  0  3  0  0  0  0  0  0
  162.3510  211.8970  149.5000 C   0  0  0  0  0  3  0  0  0  0  0  0
  160.8320  205.0580  149.9320 C   0  0  0  0  0  0  0  0  0  0  0  0
  161.2420  207.0310  148.5750 C   0  0  0  0  0  3  0  0  0  0  0  0
  160.9640  204.8850  147.3990 C   0  0  0  0  0  2  0  0  0  0  0  0
  161.7150  209.8310  148.2590 C   0  0  0  0  0  2  0  0  0  0  0  0
  161.3020  207.8420  149.7180 C   0  0  0  0  0  0  0  0  0  0  0  0
  161.5470  209.1660  149.6090 C   0  0  0  0  0  0  0  0  0  0  0  0
  161.3330  209.3290  152.0920 N   0  0  0  0  0  0  0  0  0  0  0  0
  159.8520  201.1660  149.7270 S   0  0  0  0  0  0  0  0  0  0  0  0
  160.5950  202.5410  149.2270 C   0  0  0  0  0  0  0  0  0  0  0  0
  161.0080  205.6570  148.6660 C   0  0  0  0  0  0  0  0  0  0  0  0
  160.5550  203.6610  150.1260 N   0  0  0  0  0  2  0  0  0  0  0  0
  161.3180  202.5650  147.9740 N   0  0  0  0  0  0  0  0  0  0  0  0
  162.0060  211.2610  150.7810 C   0  0  0  0  0  3  0  0  0  0  0  0
  161.6120  209.9840  150.8400 C   0  0  0  0  0  0  0  0  0  0  0  0
  160.8770  205.8630  151.0730 C   0  0  0  0  0  3  0  0  0  0  0  0
  161.1260  207.9370  152.0860 N   0  0  0  0  0  0  0  0  0  0  0  0
  162.4310  210.6410  155.4110 C   0  0  0  0  0  0  0  0  0  0  0  0
  161.2870  211.3200  155.8370 C   0  0  0  0  0  3  0  0  0  0  0  0
  160.1480  210.6920  153.7910 C   0  0  0  0  0  0  0  0  0  0  0  0
  159.0350  211.9910  155.4580 F   0  0  0  0  0  0  0  0  0  0  0  0
  160.1470  211.3440  155.0290 C   0  0  0  0  0  0  0  0  0  0  0  0
  162.4380  209.9900  154.1750 C   0  0  0  0  0  3  0  0  0  0  0  0
  163.5330  210.6110  156.1990 F   0  0  0  0  0  0  0  0  0  0  0  0
  159.0160  210.6780  153.0430 F   0  0  0  0  0  0  0  0  0  0  0  0
  161.3070  210.0230  153.3490 C   0  0  0  0  0  0  0  0  0  0  0  0
  161.3670  201.4010  147.0940 C   0  0  0  0  0  2  0  0  0  0  0  0
  160.8560  201.7500  145.7040 C   0  0  0  0  0  2  0  0  0  0  0  0
  160.1380  200.6190  145.1410 N   0  0  0  0  0  1  0  0  0  0  0  0
  1 16  1  0  0  0  0
  2 19  1  0  0  0  0
  2 20  2  0  0  0  0
  3  4  2  0  0  0  0
  4 17  1  0  0  0  0
  5 15  1  0  0  0  0
  5 19  2  0  0  0  0
  6 14  2  0  0  0  0
  6  9  1  0  0  0  0
  7  1  1  0  0  0  0
  7 14  1  0  0  0  0
  8  3  1  0  0  0  0
  8 10  1  0  0  0  0
  9  2  1  0  0  0  0
 10  9  2  0  0  0  0
 10 18  1  0  0  0  0
 11 29  1  0  0  0  0
 13 12  2  0  0  0  0
 13 15  1  0  0  0  0
 14  5  1  0  0  0  0
 16 13  1  0  0  0  0
 17 18  2  0  0  0  0
 18 11  1  0  0  0  0
 20 11  1  0  0  0  0
 21 22  1  0  0  0  0
 21 27  1  0  0  0  0
 23 25  1  0  0  0  0
 25 24  1  0  0  0  0
 25 22  2  0  0  0  0
 26 21  2  0  0  0  0
 28 23  1  0  0  0  0
 29 23  2  0  0  0  0
 29 26  1  0  0  0  0
 30 16  1  0  0  0  0
 31 30  1  0  0  0  0
 32 31  1  0  0  0  0
M  END
>  <MODEL>
4

>  <REMARK>
 VINA RESULT:      -7.6      4.264      9.167
  Name = 
  3 active torsions:
  status: ('A' for Active; 'I' for Inactive)
    1  A    between atoms: C_1  and  C_10
    2  A    between atoms: C_10  and  N_24
    3  A    between atoms: N_16  and  C_32
                            x       y       z     vdW  Elec       q    Type
                         _______ _______ _______ _____ _____    ______ ____

>  <TORSDO>
F 3

$$$$
=
 OpenBabel11062410493D

 32 36  0  0  1  0  0  0  0  0999 V2000
  161.5910  209.1280  155.6130 C   0  0  0  0  0  2  0  0  0  0  0  0
  160.9650  207.4100  150.9480 C   0  0  0  0  0  0  0  0  0  0  0  0
  161.2660  202.5840  151.8990 C   0  0  0  0  0  3  0  0  0  0  0  0
  161.4990  202.4030  150.5980 C   0  0  0  0  0  3  0  0  0  0  0  0
  160.7370  209.0440  152.7420 C   0  0  0  0  0  0  0  0  0  0  0  0
  160.7330  206.6660  153.2440 C   0  0  0  0  0  3  0  0  0  0  0  0
  160.4810  208.2250  155.1340 C   0  0  0  0  0  2  0  0  0  0  0  0
  160.8760  203.9180  152.4780 C   0  0  0  0  0  3  0  0  0  0  0  0
  160.8950  206.3490  151.8880 C   0  0  0  0  0  0  0  0  0  0  0  0
  160.9900  205.0610  151.4910 C   0  0  0  0  0  0  0  0  0  0  0  0
  161.1580  205.8820  149.1380 N   0  0  0  0  0  0  0  0  0  0  0  0
  160.1180  212.6700  154.3590 S   0  0  0  0  0  0  0  0  0  0  0  0
  160.6360  211.1120  154.3540 C   0  0  0  0  0  0  0  0  0  0  0  0
  160.6510  207.9920  153.6780 C   0  0  0  0  0  0  0  0  0  0  0  0
  160.6310  210.4350  153.0860 N   0  0  0  0  0  2  0  0  0  0  0  0
  161.1450  210.5080  155.5660 N   0  0  0  0  0  0  0  0  0  0  0  0
  161.4240  203.5200  149.6440 C   0  0  0  0  0  3  0  0  0  0  0  0
  161.1700  204.7690  150.0520 C   0  0  1  0  0  3  0  0  0  0  0  0
  160.8840  208.7320  151.3880 C   0  0  0  0  0  3  0  0  0  0  0  0
  161.0890  207.1830  149.6710 N   0  0  0  0  0  0  0  0  0  0  0  0
  160.2600  205.9430  145.5140 C   0  0  0  0  0  0  0  0  0  0  0  0
  161.4050  205.3960  144.9320 C   0  0  0  0  0  3  0  0  0  0  0  0
  162.4090  205.1560  147.1250 C   0  0  0  0  0  0  0  0  0  0  0  0
  163.5790  204.4540  145.1630 F   0  0  0  0  0  0  0  0  0  0  0  0
  162.4780  205.0010  145.7350 C   0  0  0  0  0  0  0  0  0  0  0  0
  160.1880  206.1030  146.9000 C   0  0  0  0  0  3  0  0  0  0  0  0
  159.2170  206.3180  144.7340 F   0  0  0  0  0  0  0  0  0  0  0  0
  163.4360  204.7180  147.8960 F   0  0  0  0  0  0  0  0  0  0  0  0
  161.2640  205.7270  147.7140 C   0  0  0  0  0  0  0  0  0  0  0  0
  161.1660  211.2320  156.8330 C   0  0  0  0  0  2  0  0  0  0  0  0
  159.8020  211.8350  157.1360 C   0  0  0  0  0  2  0  0  0  0  0  0
  158.8100  210.7820  157.2600 N   0  0  0  0  0  1  0  0  0  0  0  0
  2 19  1  0  0  0  0
  2  9  1  0  0  0  0
  3  8  2  0  0  0  0
  4  3  1  0  0  0  0
  5 15  1  0  0  0  0
  5 14  1  0  0  0  0
  6 14  2  0  0  0  0
  7  1  1  0  0  0  0
  9  6  1  0  0  0  0
 10  9  2  0  0  0  0
 10  8  1  0  0  0  0
 11 20  1  0  0  0  0
 11 18  1  0  0  0  0
 13 12  2  0  0  0  0
 13 16  1  0  0  0  0
 14  7  1  0  0  0  0
 15 13  1  0  0  0  0
 16  1  1  0  0  0  0
 16 30  1  0  0  0  0
 17  4  2  0  0  0  0
 18 17  1  1  0  0  0
 18 10  1  0  0  0  0
 19  5  2  0  0  0  0
 20  2  2  0  0  0  0
 21 26  1  0  0  0  0
 22 21  2  0  0  0  0
 22 25  1  0  0  0  0
 23 29  1  0  0  0  0
 23 28  1  0  0  0  0
 24 25  1  0  0  0  0
 25 23  2  0  0  0  0
 26 29  2  0  0  0  0
 27 21  1  0  0  0  0
 29 11  1  0  0  0  0
 30 31  1  0  0  0  0
 31 32  1  0  0  0  0
M  END
>  <MODEL>
5

>  <REMARK>
 VINA RESULT:      -7.2      1.098      2.042
  Name = 
  3 active torsions:
  status: ('A' for Active; 'I' for Inactive)
    1  A    between atoms: C_1  and  C_10
    2  A    between atoms: C_10  and  N_24
    3  A    between atoms: N_16  and  C_32
                            x       y       z     vdW  Elec       q    Type
                         _______ _______ _______ _____ _____    ______ ____

>  <TORSDO>
F 3

$$$$
