=
 OpenBabel11062408043D

 34 38  0  0  1  0  0  0  0  0999 V2000
  161.6100  205.4770  150.4620 C   0  0  0  0  0  0  0  0  0  0  0  0
  160.8030  207.1230  148.7710 C   0  0  0  0  0  3  0  0  0  0  0  0
  162.1880  207.8070  150.8680 C   0  0  2  0  0  3  0  0  0  0  0  0
  161.5230  210.1840  151.3110 C   0  0  0  0  0  0  0  0  0  0  0  0
  161.2410  204.0930  148.4480 C   0  0  0  0  0  3  0  0  0  0  0  0
  161.1020  204.9950  147.4790 C   0  0  0  0  0  3  0  0  0  0  0  0
  162.3050  209.6990  149.1970 N   0  0  0  0  0  0  0  0  0  0  0  0
  161.5360  206.7430  150.0060 C   0  0  0  0  0  0  0  0  0  0  0  0
  161.4900  211.6790  150.5490 S   0  0  0  0  0  0  0  0  0  0  0  0
  160.8320  204.3550  149.8580 C   0  0  0  0  0  2  0  0  0  0  0  0
  161.8360  207.5770  152.2920 N   0  0  0  0  0  0  0  0  0  0  0  0
  162.3700  205.2000  151.7280 C   0  0  0  0  0  2  0  0  0  0  0  0
  160.6210  206.3740  147.6770 C   0  0  0  0  0  3  0  0  0  0  0  0
  161.2100  209.8890  152.7000 C   0  0  0  0  0  3  0  0  0  0  0  0
  161.3520  208.6400  153.1650 C   0  0  0  0  0  0  0  0  0  0  0  0
  162.0700  211.0290  149.1020 C   0  0  0  0  0  0  0  0  0  0  0  0
  161.9730  209.2280  150.4280 C   0  0  0  0  0  0  0  0  0  0  0  0
  161.9810  206.2070  152.8180 C   0  0  0  0  0  2  0  0  0  0  0  0
  159.6170  207.2570  156.2410 C   0  0  0  0  0  0  0  0  0  0  0  0
  160.2570  207.9670  157.2610 C   0  0  0  0  0  3  0  0  0  0  0  0
  160.9870  208.3890  154.5800 C   0  0  0  0  0  0  0  0  0  0  0  0
  161.2570  208.8920  156.9460 C   0  0  0  0  0  3  0  0  0  0  0  0
  159.9770  207.4720  154.9080 C   0  0  0  0  0  3  0  0  0  0  0  0
  161.6170  209.1040  155.6120 C   0  0  0  0  0  3  0  0  0  0  0  0
  158.6450  206.3650  156.5450 F   0  0  0  0  0  0  0  0  0  0  0  0
  162.3810  211.8280  147.8820 C   0  0  0  0  0  2  0  0  0  0  0  0
  161.1250  212.1680  147.1440 C   0  0  0  0  0  3  0  0  0  0  0  0
  161.1050  212.9470  146.0590 C   0  0  0  0  0  0  0  0  0  0  0  0
  159.1650  214.2600  145.6460 O   0  0  0  0  0  0  0  0  0  0  0  0
  159.8050  213.2020  145.3900 C   0  0  0  0  0  0  0  0  0  0  0  0
  159.8540  212.1130  143.1810 C   0  0  0  0  0  1  0  0  0  0  0  0
  159.2880  212.2860  144.4710 O   0  0  0  0  0  0  0  0  0  0  0  0
  162.8410  213.3100  144.3010 C   0  0  0  0  0  1  0  0  0  0  0  0
  162.3140  213.4990  145.6050 O   0  0  0  0  0  0  0  0  0  0  0  0
  1 12  1  0  0  0  0
  2  8  1  0  0  0  0
  3  8  1  6  0  0  0
  3 11  1  0  0  0  0
  4 14  1  0  0  0  0
  5 10  1  0  0  0  0
  6 13  1  0  0  0  0
  6  5  2  0  0  0  0
  7 17  1  0  0  0  0
  8  1  2  0  0  0  0
  9  4  1  0  0  0  0
 10  1  1  0  0  0  0
 11 18  1  0  0  0  0
 11 15  1  0  0  0  0
 12 18  1  0  0  0  0
 13  2  2  0  0  0  0
 14 15  2  0  0  0  0
 15 21  1  0  0  0  0
 16  7  2  0  0  0  0
 16  9  1  0  0  0  0
 17  3  1  0  0  0  0
 17  4  2  0  0  0  0
 19 25  1  0  0  0  0
 19 20  1  0  0  0  0
 21 23  1  0  0  0  0
 21 24  2  0  0  0  0
 22 20  2  0  0  0  0
 23 19  2  0  0  0  0
 24 22  1  0  0  0  0
 26 16  1  0  0  0  0
 27 26  1  0  0  0  0
 28 27  2  0  0  0  0
 30 29  2  0  0  0  0
 30 28  1  0  0  0  0
 31 32  1  0  0  0  0
 32 30  1  0  0  0  0
 33 34  1  0  0  0  0
 34 28  1  0  0  0  0
M  END
>  <MODEL>
1

>  <REMARK>
 VINA RESULT:      -8.1      0.000      0.000
  Name = 
  6 active torsions:
  status: ('A' for Active; 'I' for Inactive)
    1  A    between atoms: C_3  and  C_17
    2  A    between atoms: C_12  and  C_28
    3  A    between atoms: C_13  and  C_14
    4  A    between atoms: C_13  and  O_33
    5  A    between atoms: C_14  and  O_34
    6  A    between atoms: C_17  and  C_29
                            x       y       z     vdW  Elec       q    Type
                         _______ _______ _______ _____ _____    ______ ____

>  <TORSDO>
F 6

$$$$
=
 OpenBabel11062408043D

 34 38  0  0  1  0  0  0  0  0999 V2000
  161.5070  211.7590  149.2750 C   0  0  0  0  0  0  0  0  0  0  0  0
  160.2050  212.1060  151.3750 C   0  0  0  0  0  3  0  0  0  0  0  0
  161.9370  210.1830  151.0800 C   0  0  2  0  0  3  0  0  0  0  0  0
  161.1630  208.3950  152.6590 C   0  0  0  0  0  0  0  0  0  0  0  0
  160.8470  214.1380  149.1520 C   0  0  0  0  0  3  0  0  0  0  0  0
  160.4190  214.4010  150.3850 C   0  0  0  0  0  3  0  0  0  0  0  0
  161.5150  210.4900  153.5530 N   0  0  0  0  0  0  0  0  0  0  0  0
  161.2180  211.4060  150.5440 C   0  0  0  0  0  0  0  0  0  0  0  0
  160.8270  208.1670  154.2870 S   0  0  0  0  0  0  0  0  0  0  0  0
  160.7270  212.7890  148.5270 C   0  0  0  0  0  2  0  0  0  0  0  0
  161.9210  209.1080  150.0560 N   0  0  0  0  0  0  0  0  0  0  0  0
  162.5430  210.9790  148.5170 C   0  0  0  0  0  2  0  0  0  0  0  0
  159.8640  213.3990  151.3140 C   0  0  0  0  0  3  0  0  0  0  0  0
  161.1840  207.3900  151.6070 C   0  0  0  0  0  3  0  0  0  0  0  0
  161.5380  207.7340  150.3620 C   0  0  0  0  0  0  0  0  0  0  0  0
  161.1420  209.7860  154.6470 C   0  0  0  0  0  0  0  0  0  0  0  0
  161.5010  209.7110  152.4400 C   0  0  0  0  0  0  0  0  0  0  0  0
  162.3040  209.4720  148.6800 C   0  0  0  0  0  2  0  0  0  0  0  0
  161.1310  204.3670  148.6660 C   0  0  0  0  0  0  0  0  0  0  0  0
  161.5240  204.6670  147.3590 C   0  0  0  0  0  3  0  0  0  0  0  0
  161.5100  206.6780  149.3230 C   0  0  0  0  0  0  0  0  0  0  0  0
  161.9170  205.9680  147.0310 C   0  0  0  0  0  3  0  0  0  0  0  0
  161.1290  205.3660  149.6430 C   0  0  0  0  0  3  0  0  0  0  0  0
  161.9150  206.9670  148.0080 C   0  0  0  0  0  3  0  0  0  0  0  0
  160.7540  203.1060  148.9870 F   0  0  0  0  0  0  0  0  0  0  0  0
  161.1070  210.3680  156.0210 C   0  0  0  0  0  2  0  0  0  0  0  0
  160.7110  211.8090  155.9690 C   0  0  0  0  0  3  0  0  0  0  0  0
  159.4630  212.2300  156.1950 C   0  0  0  0  0  0  0  0  0  0  0  0
  159.0920  214.3470  157.2140 O   0  0  0  0  0  0  0  0  0  0  0  0
  159.1830  213.6870  156.1410 C   0  0  0  0  0  0  0  0  0  0  0  0
  157.7710  214.4400  154.2680 C   0  0  0  0  0  1  0  0  0  0  0  0
  159.0310  214.3370  154.9140 O   0  0  0  0  0  0  0  0  0  0  0  0
  157.0970  211.4330  156.1370 C   0  0  0  0  0  1  0  0  0  0  0  0
  158.4690  211.2750  156.4630 O   0  0  0  0  0  0  0  0  0  0  0  0
  1  8  2  0  0  0  0
  3  8  1  6  0  0  0
  3 17  1  0  0  0  0
  4  9  1  0  0  0  0
  5  6  2  0  0  0  0
  6 13  1  0  0  0  0
  7 16  2  0  0  0  0
  8  2  1  0  0  0  0
  9 16  1  0  0  0  0
 10  5  1  0  0  0  0
 10  1  1  0  0  0  0
 11 15  1  0  0  0  0
 11  3  1  0  0  0  0
 12 18  1  0  0  0  0
 12  1  1  0  0  0  0
 13  2  2  0  0  0  0
 14  4  1  0  0  0  0
 15 14  2  0  0  0  0
 16 26  1  0  0  0  0
 17  4  2  0  0  0  0
 17  7  1  0  0  0  0
 18 11  1  0  0  0  0
 19 25  1  0  0  0  0
 19 23  1  0  0  0  0
 20 19  2  0  0  0  0
 21 23  2  0  0  0  0
 21 15  1  0  0  0  0
 22 20  1  0  0  0  0
 22 24  2  0  0  0  0
 24 21  1  0  0  0  0
 27 26  1  0  0  0  0
 27 28  2  0  0  0  0
 28 34  1  0  0  0  0
 30 28  1  0  0  0  0
 30 29  2  0  0  0  0
 31 32  1  0  0  0  0
 32 30  1  0  0  0  0
 33 34  1  0  0  0  0
M  END
>  <MODEL>
2

>  <REMARK>
 VINA RESULT:      -6.9      4.299      7.989
  Name = 
  6 active torsions:
  status: ('A' for Active; 'I' for Inactive)
    1  A    between atoms: C_3  and  C_17
    2  A    between atoms: C_12  and  C_28
    3  A    between atoms: C_13  and  C_14
    4  A    between atoms: C_13  and  O_33
    5  A    between atoms: C_14  and  O_34
    6  A    between atoms: C_17  and  C_29
                            x       y       z     vdW  Elec       q    Type
                         _______ _______ _______ _____ _____    ______ ____

>  <TORSDO>
F 6

$$$$
=
 OpenBabel11062408043D

 34 38  0  0  1  0  0  0  0  0999 V2000
  161.1500  208.1710  154.8030 C   0  0  0  0  0  0  0  0  0  0  0  0
  162.5440  209.9460  153.7410 C   0  0  0  0  0  3  0  0  0  0  0  0
  160.8230  208.5090  152.4150 C   0  0  2  0  0  3  0  0  0  0  0  0
  161.6910  208.5050  150.0620 C   0  0  0  0  0  0  0  0  0  0  0  0
  161.7750  209.6200  156.7050 C   0  0  0  0  0  3  0  0  0  0  0  0
  162.2560  210.7110  156.1120 C   0  0  0  0  0  3  0  0  0  0  0  0
  161.3560  210.5640  151.0430 N   0  0  0  0  0  0  0  0  0  0  0  0
  161.5020  208.8880  153.7170 C   0  0  0  0  0  0  0  0  0  0  0  0
  162.1050  209.5740  148.8360 S   0  0  0  0  0  0  0  0  0  0  0  0
  161.8830  208.2610  156.1010 C   0  0  0  0  0  2  0  0  0  0  0  0
  160.8040  207.0310  152.2750 N   0  0  0  0  0  0  0  0  0  0  0  0
  160.0900  207.1150  154.6700 C   0  0  0  0  0  2  0  0  0  0  0  0
  162.8660  210.7390  154.7690 C   0  0  0  0  0  3  0  0  0  0  0  0
  161.6340  207.0530  149.9920 C   0  0  0  0  0  3  0  0  0  0  0  0
  161.2180  206.3500  151.0530 C   0  0  0  0  0  0  0  0  0  0  0  0
  161.7870  210.9170  149.8090 C   0  0  0  0  0  0  0  0  0  0  0  0
  161.3280  209.2120  151.1850 C   0  0  0  0  0  0  0  0  0  0  0  0
  160.3540  206.2430  153.4360 C   0  0  0  0  0  2  0  0  0  0  0  0
  160.7760  202.8530  149.6530 C   0  0  0  0  0  0  0  0  0  0  0  0
  161.1360  202.0690  150.7520 C   0  0  0  0  0  3  0  0  0  0  0  0
  161.2100  204.8720  150.9380 C   0  0  0  0  0  0  0  0  0  0  0  0
  161.5280  202.6800  151.9470 C   0  0  0  0  0  3  0  0  0  0  0  0
  160.8080  204.2470  149.7480 C   0  0  0  0  0  3  0  0  0  0  0  0
  161.5600  204.0740  152.0410 C   0  0  0  0  0  3  0  0  0  0  0  0
  160.3910  202.2620  148.4970 F   0  0  0  0  0  0  0  0  0  0  0  0
  161.8780  212.3330  149.3500 C   0  0  0  0  0  2  0  0  0  0  0  0
  161.9540  212.3960  147.8580 C   0  0  0  0  0  3  0  0  0  0  0  0
  161.0890  213.0910  147.1130 C   0  0  0  0  0  0  0  0  0  0  0  0
  160.4830  212.4420  144.9060 O   0  0  0  0  0  0  0  0  0  0  0  0
  161.2700  213.1040  145.6400 C   0  0  0  0  0  0  0  0  0  0  0  0
  163.2220  213.2760  144.1470 C   0  0  0  0  0  1  0  0  0  0  0  0
  162.2950  213.8510  145.0560 O   0  0  0  0  0  0  0  0  0  0  0  0
  158.6870  213.3460  147.7470 C   0  0  0  0  0  1  0  0  0  0  0  0
  160.0420  213.7700  147.7560 O   0  0  0  0  0  0  0  0  0  0  0  0
  1 10  1  0  0  0  0
  2 13  2  0  0  0  0
  3 17  1  6  0  0  0
  3  8  1  0  0  0  0
  4 17  2  0  0  0  0
  6  5  2  0  0  0  0
  7 17  1  0  0  0  0
  8  2  1  0  0  0  0
  8  1  2  0  0  0  0
  9 16  1  0  0  0  0
  9  4  1  0  0  0  0
 10  5  1  0  0  0  0
 11  3  1  0  0  0  0
 11 18  1  0  0  0  0
 12  1  1  0  0  0  0
 13  6  1  0  0  0  0
 14  4  1  0  0  0  0
 14 15  2  0  0  0  0
 15 11  1  0  0  0  0
 16  7  2  0  0  0  0
 18 12  1  0  0  0  0
 19 23  2  0  0  0  0
 19 20  1  0  0  0  0
 20 22  2  0  0  0  0
 21 15  1  0  0  0  0
 21 24  2  0  0  0  0
 22 24  1  0  0  0  0
 23 21  1  0  0  0  0
 25 19  1  0  0  0  0
 26 16  1  0  0  0  0
 27 26  1  0  0  0  0
 28 34  1  0  0  0  0
 28 27  2  0  0  0  0
 29 30  2  0  0  0  0
 30 28  1  0  0  0  0
 31 32  1  0  0  0  0
 32 30  1  0  0  0  0
 33 34  1  0  0  0  0
M  END
>  <MODEL>
3

>  <REMARK>
 VINA RESULT:      -6.8      2.150      5.307
  Name = 
  6 active torsions:
  status: ('A' for Active; 'I' for Inactive)
    1  A    between atoms: C_3  and  C_17
    2  A    between atoms: C_12  and  C_28
    3  A    between atoms: C_13  and  C_14
    4  A    between atoms: C_13  and  O_33
    5  A    between atoms: C_14  and  O_34
    6  A    between atoms: C_17  and  C_29
                            x       y       z     vdW  Elec       q    Type
                         _______ _______ _______ _____ _____    ______ ____

>  <TORSDO>
F 6

$$$$
=
 OpenBabel11062408043D

 34 38  0  0  1  0  0  0  0  0999 V2000
  159.9170  212.6570  150.5730 C   0  0  0  0  0  0  0  0  0  0  0  0
  161.8280  211.0570  150.6940 C   0  0  0  0  0  3  0  0  0  0  0  0
  159.6560  210.7850  152.1070 C   0  0  2  0  0  3  0  0  0  0  0  0
  160.3820  209.4920  154.1300 C   0  0  0  0  0  0  0  0  0  0  0  0
  161.0940  213.0080  148.4280 C   0  0  0  0  0  3  0  0  0  0  0  0
  161.9210  211.9660  148.3590 C   0  0  0  0  0  3  0  0  0  0  0  0
  160.8580  208.5620  152.0750 N   0  0  0  0  0  0  0  0  0  0  0  0
  160.4700  211.5310  151.0680 C   0  0  0  0  0  0  0  0  0  0  0  0
  161.1180  208.0400  154.5390 S   0  0  0  0  0  0  0  0  0  0  0  0
  160.6750  213.6210  149.7210 C   0  0  0  0  0  2  0  0  0  0  0  0
  159.0920  211.7510  153.0840 N   0  0  0  0  0  0  0  0  0  0  0  0
  158.5400  213.0530  151.0220 C   0  0  0  0  0  2  0  0  0  0  0  0
  162.4520  211.2370  149.5250 C   0  0  0  0  0  3  0  0  0  0  0  0
  159.7950  210.4740  155.0280 C   0  0  0  0  0  3  0  0  0  0  0  0
  159.1860  211.5570  154.5270 C   0  0  0  0  0  0  0  0  0  0  0  0
  161.3470  207.6230  152.9190 C   0  0  0  0  0  0  0  0  0  0  0  0
  160.3410  209.6160  152.7600 C   0  0  0  0  0  0  0  0  0  0  0  0
  158.4240  212.9500  152.5490 C   0  0  0  0  0  2  0  0  0  0  0  0
  156.7410  213.5070  156.6730 C   0  0  0  0  0  0  0  0  0  0  0  0
  157.5850  214.4530  157.2610 C   0  0  0  0  0  3  0  0  0  0  0  0
  158.6330  212.5410  155.4880 C   0  0  0  0  0  0  0  0  0  0  0  0
  158.9510  214.4520  156.9610 C   0  0  0  0  0  3  0  0  0  0  0  0
  157.2630  212.5600  155.7870 C   0  0  0  0  0  3  0  0  0  0  0  0
  159.4710  213.5030  156.0760 C   0  0  0  0  0  3  0  0  0  0  0  0
  155.4180  213.5100  156.9580 F   0  0  0  0  0  0  0  0  0  0  0  0
  161.9350  206.3330  152.4540 C   0  0  0  0  0  2  0  0  0  0  0  0
  161.7560  206.1780  150.9770 C   0  0  0  0  0  3  0  0  0  0  0  0
  161.1020  205.1510  150.4270 C   0  0  0  0  0  0  0  0  0  0  0  0
  160.3640  206.0420  148.3480 O   0  0  0  0  0  0  0  0  0  0  0  0
  160.9630  205.1070  148.9490 C   0  0  0  0  0  0  0  0  0  0  0  0
  161.9220  204.1990  146.8700 C   0  0  0  0  0  1  0  0  0  0  0  0
  161.4990  204.0460  148.2170 O   0  0  0  0  0  0  0  0  0  0  0  0
  161.0560  202.8160  151.3110 C   0  0  0  0  0  1  0  0  0  0  0  0
  160.5840  204.1540  151.2690 O   0  0  0  0  0  0  0  0  0  0  0  0
  1 12  1  0  0  0  0
  1  8  2  0  0  0  0
  2  8  1  0  0  0  0
  3  8  1  6  0  0  0
  3 17  1  0  0  0  0
  3 11  1  0  0  0  0
  4  9  1  0  0  0  0
  4 14  1  0  0  0  0
  5 10  1  0  0  0  0
  6  5  2  0  0  0  0
  6 13  1  0  0  0  0
  7 17  1  0  0  0  0
  7 16  2  0  0  0  0
 10  1  1  0  0  0  0
 11 15  1  0  0  0  0
 12 18  1  0  0  0  0
 13  2  2  0  0  0  0
 15 14  2  0  0  0  0
 15 21  1  0  0  0  0
 16  9  1  0  0  0  0
 17  4  2  0  0  0  0
 18 11  1  0  0  0  0
 19 25  1  0  0  0  0
 19 20  1  0  0  0  0
 21 23  1  0  0  0  0
 21 24  2  0  0  0  0
 22 20  2  0  0  0  0
 23 19  2  0  0  0  0
 24 22  1  0  0  0  0
 26 16  1  0  0  0  0
 27 26  1  0  0  0  0
 28 27  2  0  0  0  0
 28 34  1  0  0  0  0
 29 30  2  0  0  0  0
 30 28  1  0  0  0  0
 31 32  1  0  0  0  0
 32 30  1  0  0  0  0
 34 33  1  0  0  0  0
M  END
>  <MODEL>
4

>  <REMARK>
 VINA RESULT:      -6.1      4.421      7.067
  Name = 
  6 active torsions:
  status: ('A' for Active; 'I' for Inactive)
    1  A    between atoms: C_3  and  C_17
    2  A    between atoms: C_12  and  C_28
    3  A    between atoms: C_13  and  C_14
    4  A    between atoms: C_13  and  O_33
    5  A    between atoms: C_14  and  O_34
    6  A    between atoms: C_17  and  C_29
                            x       y       z     vdW  Elec       q    Type
                         _______ _______ _______ _____ _____    ______ ____

>  <TORSDO>
F 6

$$$$
=
 OpenBabel11062408043D

 34 38  0  0  1  0  0  0  0  0999 V2000
  162.0880  209.9040  149.2570 C   0  0  0  0  0  0  0  0  0  0  0  0
  160.7890  211.1680  150.9710 C   0  0  0  0  0  3  0  0  0  0  0  0
  162.1710  209.0320  151.5290 C   0  0  2  0  0  3  0  0  0  0  0  0
  161.0400  208.0640  153.5470 C   0  0  0  0  0  0  0  0  0  0  0  0
  161.8560  212.1500  148.2540 C   0  0  0  0  0  3  0  0  0  0  0  0
  161.4340  212.8980  149.2730 C   0  0  0  0  0  3  0  0  0  0  0  0
  161.7170  210.2630  153.6900 N   0  0  0  0  0  0  0  0  0  0  0  0
  161.6960  210.0750  150.5360 C   0  0  0  0  0  0  0  0  0  0  0  0
  160.6100  208.4860  155.1130 S   0  0  0  0  0  0  0  0  0  0  0  0
  161.5270  210.7010  148.1270 C   0  0  0  0  0  2  0  0  0  0  0  0
  162.0080  207.6770  150.9440 N   0  0  0  0  0  0  0  0  0  0  0  0
  163.0010  208.7590  148.9200 C   0  0  0  0  0  2  0  0  0  0  0  0
  160.6800  212.3890  150.4330 C   0  0  0  0  0  3  0  0  0  0  0  0
  160.9260  206.7580  152.9160 C   0  0  0  0  0  3  0  0  0  0  0  0
  161.3810  206.5770  151.6690 C   0  0  0  0  0  0  0  0  0  0  0  0
  161.1870  210.0610  154.9180 C   0  0  0  0  0  0  0  0  0  0  0  0
  161.6100  209.1480  152.9190 C   0  0  0  0  0  0  0  0  0  0  0  0
  162.4990  207.4640  149.5710 C   0  0  0  0  0  2  0  0  0  0  0  0
  160.9230  203.8210  149.1040 C   0  0  0  0  0  0  0  0  0  0  0  0
  160.8180  202.6960  149.9260 C   0  0  0  0  0  3  0  0  0  0  0  0
  161.2090  205.2360  151.0630 C   0  0  0  0  0  0  0  0  0  0  0  0
  160.9010  202.8350  151.3140 C   0  0  0  0  0  3  0  0  0  0  0  0
  161.1120  205.0850  149.6710 C   0  0  0  0  0  3  0  0  0  0  0  0
  161.0920  204.0990  151.8800 C   0  0  0  0  0  3  0  0  0  0  0  0
  160.8370  203.6880  147.7600 F   0  0  0  0  0  0  0  0  0  0  0  0
  161.2030  211.0930  155.9950 C   0  0  0  0  0  2  0  0  0  0  0  0
  160.4430  212.3080  155.5660 C   0  0  0  0  0  3  0  0  0  0  0  0
  159.1140  212.4100  155.6660 C   0  0  0  0  0  0  0  0  0  0  0  0
  158.5450  214.0350  154.0250 O   0  0  0  0  0  0  0  0  0  0  0  0
  158.4630  213.6710  155.2320 C   0  0  0  0  0  0  0  0  0  0  0  0
  157.0820  213.8870  157.2600 C   0  0  0  0  0  1  0  0  0  0  0  0
  157.7500  214.4530  156.1430 O   0  0  0  0  0  0  0  0  0  0  0  0
  157.2980  210.7050  155.5040 C   0  0  0  0  0  1  0  0  0  0  0  0
  158.3920  211.3160  156.1690 O   0  0  0  0  0  0  0  0  0  0  0  0
  1  8  2  0  0  0  0
  3  8  1  6  0  0  0
  3 17  1  0  0  0  0
  4  9  1  0  0  0  0
  5  6  2  0  0  0  0
  6 13  1  0  0  0  0
  7 16  2  0  0  0  0
  8  2  1  0  0  0  0
 10  5  1  0  0  0  0
 10  1  1  0  0  0  0
 11  3  1  0  0  0  0
 11 15  1  0  0  0  0
 12  1  1  0  0  0  0
 12 18  1  0  0  0  0
 13  2  2  0  0  0  0
 14  4  1  0  0  0  0
 15 14  2  0  0  0  0
 16  9  1  0  0  0  0
 16 26  1  0  0  0  0
 17  4  2  0  0  0  0
 17  7  1  0  0  0  0
 18 11  1  0  0  0  0
 19 23  2  0  0  0  0
 19 20  1  0  0  0  0
 20 22  2  0  0  0  0
 21 15  1  0  0  0  0
 21 24  2  0  0  0  0
 22 24  1  0  0  0  0
 23 21  1  0  0  0  0
 25 19  1  0  0  0  0
 27 28  2  0  0  0  0
 27 26  1  0  0  0  0
 28 34  1  0  0  0  0
 29 30  2  0  0  0  0
 30 28  1  0  0  0  0
 30 32  1  0  0  0  0
 32 31  1  0  0  0  0
 33 34  1  0  0  0  0
M  END
>  <MODEL>
5

>  <REMARK>
 VINA RESULT:      -6.0      4.185      7.442
  Name = 
  6 active torsions:
  status: ('A' for Active; 'I' for Inactive)
    1  A    between atoms: C_3  and  C_17
    2  A    between atoms: C_12  and  C_28
    3  A    between atoms: C_13  and  C_14
    4  A    between atoms: C_13  and  O_33
    5  A    between atoms: C_14  and  O_34
    6  A    between atoms: C_17  and  C_29
                            x       y       z     vdW  Elec       q    Type
                         _______ _______ _______ _____ _____    ______ ____

>  <TORSDO>
F 6

$$$$
=
 OpenBabel11062408043D

 34 38  0  0  1  0  0  0  0  0999 V2000
  161.8910  209.4050  153.8020 C   0  0  0  0  0  0  0  0  0  0  0  0
  160.4560  207.4060  153.3960 C   0  0  0  0  0  3  0  0  0  0  0  0
  162.2500  208.2340  151.6980 C   0  0  2  0  0  3  0  0  0  0  0  0
  161.4250  207.4280  149.4710 C   0  0  0  0  0  0  0  0  0  0  0  0
  161.1820  208.7400  156.0740 C   0  0  0  0  0  3  0  0  0  0  0  0
  160.6730  207.5230  155.8910 C   0  0  0  0  0  3  0  0  0  0  0  0
  161.6700  205.8420  151.1260 N   0  0  0  0  0  0  0  0  0  0  0  0
  161.5350  208.3600  153.0300 C   0  0  0  0  0  0  0  0  0  0  0  0
  160.9970  206.0050  148.6910 S   0  0  0  0  0  0  0  0  0  0  0  0
  161.1330  209.8000  155.0260 C   0  0  0  0  0  2  0  0  0  0  0  0
  162.3230  209.5660  151.0460 N   0  0  0  0  0  0  0  0  0  0  0  0
  162.9910  210.3170  153.3360 C   0  0  0  0  0  2  0  0  0  0  0  0
  160.0880  207.0370  154.6280 C   0  0  0  0  0  3  0  0  0  0  0  0
  161.5350  208.7590  148.8950 C   0  0  0  0  0  3  0  0  0  0  0  0
  161.9560  209.7810  149.6510 C   0  0  0  0  0  0  0  0  0  0  0  0
  161.2490  205.0860  150.0850 C   0  0  0  0  0  0  0  0  0  0  0  0
  161.7430  207.1550  150.7820 C   0  0  0  0  0  0  0  0  0  0  0  0
  162.7790  210.7030  151.8660 C   0  0  0  0  0  2  0  0  0  0  0  0
  161.0320  213.3040  148.5930 C   0  0  0  0  0  0  0  0  0  0  0  0
  162.1110  213.6370  147.7700 C   0  0  0  0  0  3  0  0  0  0  0  0
  162.0170  211.1220  149.0210 C   0  0  0  0  0  0  0  0  0  0  0  0
  163.1420  212.7150  147.5640 C   0  0  0  0  0  3  0  0  0  0  0  0
  160.9840  212.0510  149.2110 C   0  0  0  0  0  3  0  0  0  0  0  0
  163.0930  211.4620  148.1830 C   0  0  0  0  0  3  0  0  0  0  0  0
  160.0310  214.1940  148.7890 F   0  0  0  0  0  0  0  0  0  0  0  0
  161.1170  203.6020  150.1530 C   0  0  0  0  0  2  0  0  0  0  0  0
  161.3390  202.9940  148.8050 C   0  0  0  0  0  3  0  0  0  0  0  0
  160.8420  201.8050  148.4510 C   0  0  0  0  0  0  0  0  0  0  0  0
  161.5680  200.1410  146.9140 O   0  0  0  0  0  0  0  0  0  0  0  0
  161.1040  201.3040  147.0790 C   0  0  0  0  0  0  0  0  0  0  0  0
  159.9120  201.7060  144.9610 C   0  0  0  0  0  1  0  0  0  0  0  0
  160.8310  202.1040  145.9670 O   0  0  0  0  0  0  0  0  0  0  0  0
  158.6870  200.9570  149.3870 C   0  0  0  0  0  1  0  0  0  0  0  0
  160.1010  201.0770  149.3970 O   0  0  0  0  0  0  0  0  0  0  0  0
  1 10  1  0  0  0  0
  2 13  2  0  0  0  0
  3 17  1  6  0  0  0
  3  8  1  0  0  0  0
  4 17  2  0  0  0  0
  6  5  2  0  0  0  0
  8  2  1  0  0  0  0
  8  1  2  0  0  0  0
  9  4  1  0  0  0  0
  9 16  1  0  0  0  0
 10  5  1  0  0  0  0
 11  3  1  0  0  0  0
 11 18  1  0  0  0  0
 12  1  1  0  0  0  0
 13  6  1  0  0  0  0
 14  4  1  0  0  0  0
 14 15  2  0  0  0  0
 15 11  1  0  0  0  0
 16 26  1  0  0  0  0
 16  7  2  0  0  0  0
 17  7  1  0  0  0  0
 18 12  1  0  0  0  0
 19 25  1  0  0  0  0
 19 23  1  0  0  0  0
 20 19  2  0  0  0  0
 21 23  2  0  0  0  0
 21 15  1  0  0  0  0
 22 20  1  0  0  0  0
 22 24  2  0  0  0  0
 24 21  1  0  0  0  0
 27 26  1  0  0  0  0
 28 27  2  0  0  0  0
 28 34  1  0  0  0  0
 29 30  2  0  0  0  0
 30 28  1  0  0  0  0
 31 32  1  0  0  0  0
 32 30  1  0  0  0  0
 33 34  1  0  0  0  0
M  END
>  <MODEL>
6

>  <REMARK>
 VINA RESULT:      -5.9      4.430      8.331
  Name = 
  6 active torsions:
  status: ('A' for Active; 'I' for Inactive)
    1  A    between atoms: C_3  and  C_17
    2  A    between atoms: C_12  and  C_28
    3  A    between atoms: C_13  and  C_14
    4  A    between atoms: C_13  and  O_33
    5  A    between atoms: C_14  and  O_34
    6  A    between atoms: C_17  and  C_29
                            x       y       z     vdW  Elec       q    Type
                         _______ _______ _______ _____ _____    ______ ____

>  <TORSDO>
F 6

$$$$
=
 OpenBabel11062408043D

 34 38  0  0  1  0  0  0  0  0999 V2000
  160.7740  213.0020  150.0960 C   0  0  0  0  0  0  0  0  0  0  0  0
  162.3480  211.6670  148.6950 C   0  0  0  0  0  3  0  0  0  0  0  0
  160.7940  210.5990  150.4920 C   0  0  2  0  0  3  0  0  0  0  0  0
  161.9830  208.5020  151.1830 C   0  0  0  0  0  0  0  0  0  0  0  0
  161.1630  214.4530  148.1340 C   0  0  0  0  0  3  0  0  0  0  0  0
  161.7510  213.6370  147.2620 C   0  0  0  0  0  3  0  0  0  0  0  0
  161.5670  208.7680  148.9310 N   0  0  0  0  0  0  0  0  0  0  0  0
  161.2930  211.8120  149.7300 C   0  0  0  0  0  0  0  0  0  0  0  0
  162.5920  207.0860  150.5210 S   0  0  0  0  0  0  0  0  0  0  0  0
  161.3190  214.3040  149.6100 C   0  0  0  0  0  2  0  0  0  0  0  0
  160.7560  210.9050  151.9440 N   0  0  0  0  0  0  0  0  0  0  0  0
  159.7150  213.0400  151.1610 C   0  0  0  0  0  2  0  0  0  0  0  0
  162.5430  212.4480  147.6250 C   0  0  0  0  0  3  0  0  0  0  0  0
  161.8980  208.8600  152.5900 C   0  0  0  0  0  3  0  0  0  0  0  0
  161.3190  210.0130  152.9520 C   0  0  0  0  0  0  0  0  0  0  0  0
  162.1760  207.5590  148.9550 C   0  0  0  0  0  0  0  0  0  0  0  0
  161.4840  209.3010  150.1780 C   0  0  0  0  0  0  0  0  0  0  0  0
  160.1280  212.1730  152.3580 C   0  0  0  0  0  2  0  0  0  0  0  0
  162.4450  210.9130  156.4600 C   0  0  0  0  0  0  0  0  0  0  0  0
  161.2300  210.9040  157.1490 C   0  0  0  0  0  3  0  0  0  0  0  0
  161.2890  210.3430  154.3960 C   0  0  0  0  0  0  0  0  0  0  0  0
  160.0440  210.6100  156.4700 C   0  0  0  0  0  3  0  0  0  0  0  0
  162.4740  210.6280  155.0910 C   0  0  0  0  0  3  0  0  0  0  0  0
  160.0740  210.3270  155.1020 C   0  0  0  0  0  3  0  0  0  0  0  0
  163.5950  211.1920  157.1170 F   0  0  0  0  0  0  0  0  0  0  0  0
  162.3670  206.7170  147.7380 C   0  0  0  0  0  2  0  0  0  0  0  0
  161.8940  205.3200  147.9890 C   0  0  0  0  0  3  0  0  0  0  0  0
  161.6290  204.4540  147.0070 C   0  0  0  0  0  0  0  0  0  0  0  0
  161.1480  202.1840  146.4820 O   0  0  0  0  0  0  0  0  0  0  0  0
  161.1870  203.0830  147.3680 C   0  0  0  0  0  0  0  0  0  0  0  0
  160.5380  201.4480  149.0920 C   0  0  0  0  0  1  0  0  0  0  0  0
  160.8240  202.7770  148.6810 O   0  0  0  0  0  0  0  0  0  0  0  0
  160.7480  205.5100  144.9230 C   0  0  0  0  0  1  0  0  0  0  0  0
  161.7720  204.8800  145.6770 O   0  0  0  0  0  0  0  0  0  0  0  0
  1 12  1  0  0  0  0
  2  8  1  0  0  0  0
  3  8  1  6  0  0  0
  3 11  1  0  0  0  0
  4 14  1  0  0  0  0
  5 10  1  0  0  0  0
  6 13  1  0  0  0  0
  6  5  2  0  0  0  0
  7 16  2  0  0  0  0
  7 17  1  0  0  0  0
  8  1  2  0  0  0  0
  9  4  1  0  0  0  0
 10  1  1  0  0  0  0
 11 18  1  0  0  0  0
 11 15  1  0  0  0  0
 12 18  1  0  0  0  0
 13  2  2  0  0  0  0
 14 15  2  0  0  0  0
 15 21  1  0  0  0  0
 16  9  1  0  0  0  0
 17  3  1  0  0  0  0
 17  4  2  0  0  0  0
 19 25  1  0  0  0  0
 19 20  1  0  0  0  0
 21 23  1  0  0  0  0
 21 24  2  0  0  0  0
 22 20  2  0  0  0  0
 23 19  2  0  0  0  0
 24 22  1  0  0  0  0
 26 27  1  0  0  0  0
 26 16  1  0  0  0  0
 28 30  1  0  0  0  0
 28 27  2  0  0  0  0
 29 30  2  0  0  0  0
 30 32  1  0  0  0  0
 32 31  1  0  0  0  0
 33 34  1  0  0  0  0
 34 28  1  0  0  0  0
M  END
>  <MODEL>
7

>  <REMARK>
 VINA RESULT:      -5.9      3.690      6.678
  Name = 
  6 active torsions:
  status: ('A' for Active; 'I' for Inactive)
    1  A    between atoms: C_3  and  C_17
    2  A    between atoms: C_12  and  C_28
    3  A    between atoms: C_13  and  C_14
    4  A    between atoms: C_13  and  O_33
    5  A    between atoms: C_14  and  O_34
    6  A    between atoms: C_17  and  C_29
                            x       y       z     vdW  Elec       q    Type
                         _______ _______ _______ _____ _____    ______ ____

>  <TORSDO>
F 6

$$$$
=
 OpenBabel11062408043D

 34 38  0  0  1  0  0  0  0  0999 V2000
  162.1160  209.1760  149.2230 C   0  0  0  0  0  0  0  0  0  0  0  0
  160.8600  210.0780  151.1810 C   0  0  0  0  0  3  0  0  0  0  0  0
  162.1950  207.8430  151.2580 C   0  0  2  0  0  3  0  0  0  0  0  0
  161.0570  206.4940  153.0400 C   0  0  0  0  0  0  0  0  0  0  0  0
  161.9300  211.5890  148.7210 C   0  0  0  0  0  3  0  0  0  0  0  0
  161.5340  212.1130  149.8790 C   0  0  0  0  0  3  0  0  0  0  0  0
  161.7870  208.5980  153.6360 N   0  0  0  0  0  0  0  0  0  0  0  0
  161.7370  209.0820  150.5140 C   0  0  0  0  0  0  0  0  0  0  0  0
  160.6480  206.5840  154.6650 S   0  0  0  0  0  0  0  0  0  0  0  0
  161.5650  210.2070  148.2940 C   0  0  0  0  0  2  0  0  0  0  0  0
  161.9950  206.6460  150.4020 N   0  0  0  0  0  0  0  0  0  0  0  0
  162.9990  208.1090  148.6400 C   0  0  0  0  0  2  0  0  0  0  0  0
  160.7760  211.3860  150.9150 C   0  0  0  0  0  3  0  0  0  0  0  0
  160.9070  205.3540  152.1490 C   0  0  0  0  0  3  0  0  0  0  0  0
  161.3480  205.4310  150.8860 C   0  0  0  0  0  0  0  0  0  0  0  0
  161.2620  208.1510  154.8000 C   0  0  0  0  0  0  0  0  0  0  0  0
  161.6470  207.6740  152.6480 C   0  0  0  0  0  0  0  0  0  0  0  0
  162.4700  206.7170  149.0090 C   0  0  0  0  0  2  0  0  0  0  0  0
  161.0580  203.2500  147.7970 C   0  0  0  0  0  0  0  0  0  0  0  0
  160.6770  202.0280  148.3570 C   0  0  0  0  0  3  0  0  0  0  0  0
  161.1390  204.2520  150.0120 C   0  0  0  0  0  0  0  0  0  0  0  0
  160.5200  201.9140  149.7420 C   0  0  0  0  0  3  0  0  0  0  0  0
  161.2830  204.3570  148.6200 C   0  0  0  0  0  3  0  0  0  0  0  0
  160.7450  203.0220  150.5640 C   0  0  0  0  0  3  0  0  0  0  0  0
  161.2070  203.3630  146.4560 F   0  0  0  0  0  0  0  0  0  0  0  0
  161.3100  208.9330  156.0710 C   0  0  0  0  0  2  0  0  0  0  0  0
  160.5980  210.2380  155.9100 C   0  0  0  0  0  3  0  0  0  0  0  0
  161.0300  211.3760  156.4630 C   0  0  0  0  0  0  0  0  0  0  0  0
  160.2950  213.5560  157.0700 O   0  0  0  0  0  0  0  0  0  0  0  0
  160.2590  212.6210  156.2210 C   0  0  0  0  0  0  0  0  0  0  0  0
  158.1580  213.2280  155.0870 C   0  0  0  0  0  1  0  0  0  0  0  0
  159.5030  212.7730  155.0570 O   0  0  0  0  0  0  0  0  0  0  0  0
  163.4910  211.0780  156.7610 C   0  0  0  0  0  1  0  0  0  0  0  0
  162.1870  211.3410  157.2570 O   0  0  0  0  0  0  0  0  0  0  0  0
  1  8  2  0  0  0  0
  3  8  1  6  0  0  0
  3 17  1  0  0  0  0
  4  9  1  0  0  0  0
  5  6  2  0  0  0  0
  6 13  1  0  0  0  0
  7 16  2  0  0  0  0
  8  2  1  0  0  0  0
  9 16  1  0  0  0  0
 10  5  1  0  0  0  0
 10  1  1  0  0  0  0
 11 15  1  0  0  0  0
 11  3  1  0  0  0  0
 12 18  1  0  0  0  0
 12  1  1  0  0  0  0
 13  2  2  0  0  0  0
 14  4  1  0  0  0  0
 15 14  2  0  0  0  0
 16 26  1  0  0  0  0
 17  4  2  0  0  0  0
 17  7  1  0  0  0  0
 18 11  1  0  0  0  0
 19 20  2  0  0  0  0
 19 23  1  0  0  0  0
 20 22  1  0  0  0  0
 21 24  1  0  0  0  0
 21 15  1  0  0  0  0
 22 24  2  0  0  0  0
 23 21  2  0  0  0  0
 25 19  1  0  0  0  0
 27 26  1  0  0  0  0
 27 28  2  0  0  0  0
 28 34  1  0  0  0  0
 30 28  1  0  0  0  0
 30 29  2  0  0  0  0
 32 31  1  0  0  0  0
 32 30  1  0  0  0  0
 33 34  1  0  0  0  0
M  END
>  <MODEL>
8

>  <REMARK>
 VINA RESULT:      -5.7      4.289      7.820
  Name = 
  6 active torsions:
  status: ('A' for Active; 'I' for Inactive)
    1  A    between atoms: C_3  and  C_17
    2  A    between atoms: C_12  and  C_28
    3  A    between atoms: C_13  and  C_14
    4  A    between atoms: C_13  and  O_33
    5  A    between atoms: C_14  and  O_34
    6  A    between atoms: C_17  and  C_29
                            x       y       z     vdW  Elec       q    Type
                         _______ _______ _______ _____ _____    ______ ____

>  <TORSDO>
F 6

$$$$
=
 OpenBabel11062408043D

 34 38  0  0  1  0  0  0  0  0999 V2000
  161.2390  206.3620  151.4920 C   0  0  0  0  0  0  0  0  0  0  0  0
  160.8300  207.5930  149.3610 C   0  0  0  0  0  3  0  0  0  0  0  0
  161.8310  208.7230  151.4830 C   0  0  2  0  0  3  0  0  0  0  0  0
  161.2000  211.1400  151.2620 C   0  0  0  0  0  0  0  0  0  0  0  0
  161.1890  204.5660  149.7960 C   0  0  0  0  0  3  0  0  0  0  0  0
  161.2710  205.2300  148.6450 C   0  0  0  0  0  3  0  0  0  0  0  0
  162.3370  210.1970  149.4930 N   0  0  0  0  0  0  0  0  0  0  0  0
  161.3050  207.4950  150.7650 C   0  0  0  0  0  0  0  0  0  0  0  0
  161.3730  212.4280  150.2010 S   0  0  0  0  0  0  0  0  0  0  0  0
  160.5380  205.1350  151.0110 C   0  0  0  0  0  2  0  0  0  0  0  0
  161.2130  208.8160  152.8290 N   0  0  0  0  0  0  0  0  0  0  0  0
  161.7390  206.3720  152.9090 C   0  0  0  0  0  2  0  0  0  0  0  0
  160.8210  206.6200  148.4430 C   0  0  0  0  0  3  0  0  0  0  0  0
  160.6230  211.1610  152.5970 C   0  0  0  0  0  3  0  0  0  0  0  0
  160.6220  210.0480  153.3420 C   0  0  0  0  0  0  0  0  0  0  0  0
  162.1820  211.4730  149.0680 C   0  0  0  0  0  0  0  0  0  0  0  0
  161.7640  210.0120  150.7110 C   0  0  0  0  0  0  0  0  0  0  0  0
  161.1990  207.5970  153.6580 C   0  0  0  0  0  2  0  0  0  0  0  0
  158.1850  210.8560  156.1330 C   0  0  0  0  0  0  0  0  0  0  0  0
  158.8360  210.3000  157.2370 C   0  0  0  0  0  3  0  0  0  0  0  0
  159.9910  210.1170  154.6810 C   0  0  0  0  0  0  0  0  0  0  0  0
  160.0660  209.6580  157.0700 C   0  0  0  0  0  3  0  0  0  0  0  0
  158.7630  210.7690  154.8630 C   0  0  0  0  0  3  0  0  0  0  0  0
  160.6430  209.5700  155.8000 C   0  0  0  0  0  3  0  0  0  0  0  0
  156.9950  211.4830  156.2930 F   0  0  0  0  0  0  0  0  0  0  0  0
  162.7470  211.9810  147.7840 C   0  0  0  0  0  2  0  0  0  0  0  0
  161.6500  212.2940  146.8160 C   0  0  0  0  0  3  0  0  0  0  0  0
  161.8530  212.9600  145.6760 C   0  0  0  0  0  0  0  0  0  0  0  0
  160.2650  214.3720  144.6060 O   0  0  0  0  0  0  0  0  0  0  0  0
  160.6970  213.1970  144.7760 C   0  0  0  0  0  0  0  0  0  0  0  0
  159.6800  212.2340  142.7490 C   0  0  0  0  0  1  0  0  0  0  0  0
  160.0880  212.1340  144.1050 O   0  0  0  0  0  0  0  0  0  0  0  0
  163.4450  214.4520  144.4620 C   0  0  0  0  0  1  0  0  0  0  0  0
  163.1490  213.4140  145.3830 O   0  0  0  0  0  0  0  0  0  0  0  0
  1 12  1  0  0  0  0
  2  8  1  0  0  0  0
  3 17  1  6  0  0  0
  3 11  1  0  0  0  0
  4 14  1  0  0  0  0
  5 10  1  0  0  0  0
  6  5  2  0  0  0  0
  7 17  1  0  0  0  0
  8  3  1  0  0  0  0
  8  1  2  0  0  0  0
  9  4  1  0  0  0  0
 10  1  1  0  0  0  0
 11 15  1  0  0  0  0
 11 18  1  0  0  0  0
 12 18  1  0  0  0  0
 13  6  1  0  0  0  0
 13  2  2  0  0  0  0
 14 15  2  0  0  0  0
 15 21  1  0  0  0  0
 16  7  2  0  0  0  0
 16  9  1  0  0  0  0
 17  4  2  0  0  0  0
 19 25  1  0  0  0  0
 19 20  1  0  0  0  0
 21 23  1  0  0  0  0
 21 24  2  0  0  0  0
 22 20  2  0  0  0  0
 23 19  2  0  0  0  0
 24 22  1  0  0  0  0
 26 16  1  0  0  0  0
 27 26  1  0  0  0  0
 28 27  2  0  0  0  0
 29 30  2  0  0  0  0
 30 28  1  0  0  0  0
 31 32  1  0  0  0  0
 32 30  1  0  0  0  0
 33 34  1  0  0  0  0
 34 28  1  0  0  0  0
M  END
>  <MODEL>
9

>  <REMARK>
 VINA RESULT:      -5.7      1.661      1.771
  Name = 
  6 active torsions:
  status: ('A' for Active; 'I' for Inactive)
    1  A    between atoms: C_3  and  C_17
    2  A    between atoms: C_12  and  C_28
    3  A    between atoms: C_13  and  C_14
    4  A    between atoms: C_13  and  O_33
    5  A    between atoms: C_14  and  O_34
    6  A    between atoms: C_17  and  C_29
                            x       y       z     vdW  Elec       q    Type
                         _______ _______ _______ _____ _____    ______ ____

>  <TORSDO>
F 6

$$$$
