=
 OpenBabel11062409473D

 34 39  0  0  0  0  0  0  0  0999 V2000
  160.8800  208.9980  152.5490 C   0  0  0  0  0  0  0  0  0  0  0  0
  160.6690  212.5790  151.6180 C   0  0  0  0  0  3  0  0  0  0  0  0
  160.6970  211.5650  153.6780 N   0  0  0  0  0  0  0  0  0  0  0  0
  160.9320  206.6100  153.1660 C   0  0  0  0  0  0  0  0  0  0  0  0
  161.0190  207.6400  152.1800 C   0  0  0  0  0  3  0  0  0  0  0  0
  160.6090  208.2990  154.8520 C   0  0  0  0  0  0  0  0  0  0  0  0
  160.4930  208.9490  156.1240 N   0  0  0  0  0  2  0  0  0  0  0  0
  160.7400  206.9480  154.5320 C   0  0  0  0  0  3  0  0  0  0  0  0
  160.6280  210.4460  154.4350 C   0  0  0  0  0  0  0  0  0  0  0  0
  160.6740  209.2330  153.8820 C   0  0  0  0  0  0  0  0  0  0  0  0
  160.5060  210.3070  155.8150 O   0  0  0  0  0  0  0  0  0  0  0  0
  160.4550  212.6750  150.1450 C   0  0  0  0  0  2  0  0  0  0  0  0
  161.6040  212.1570  149.3580 C   0  0  0  0  0  0  0  0  0  0  0  0
  161.9840  210.8870  149.4670 C   0  0  0  0  0  3  0  0  0  0  0  0
  160.8360  211.4490  152.3130 C   0  0  0  0  0  0  0  0  0  0  0  0
  161.5140  209.9170  150.4720 C   0  0  0  0  0  3  0  0  0  0  0  0
  161.0280  210.1360  151.7100 C   0  0  0  0  0  0  0  0  0  0  0  0
  160.6650  204.7010  149.1320 C   0  0  0  0  0  3  0  0  0  0  0  0
  161.2190  203.2650  151.4320 N   0  0  0  0  0  0  0  0  0  0  0  0
  161.0630  201.2790  147.7720 C   0  0  0  0  0  0  0  0  0  0  0  0
  160.8360  202.6610  147.8320 C   0  0  0  0  0  3  0  0  0  0  0  0
  160.8890  203.3280  149.0590 C   0  0  0  0  0  0  0  0  0  0  0  0
  161.0690  205.2220  152.8250 N   0  0  0  0  0  2  0  0  0  0  0  0
  161.3940  201.2350  150.1820 C   0  0  0  0  0  3  0  0  0  0  0  0
  161.1690  202.6130  150.2410 C   0  0  0  0  0  0  0  0  0  0  0  0
  161.3420  200.5710  148.9520 C   0  0  0  0  0  3  0  0  0  0  0  0
  161.0060  204.6070  151.5290 C   0  0  0  0  0  0  0  0  0  0  0  0
  160.7220  205.3440  150.3700 C   0  0  0  0  0  3  0  0  0  0  0  0
  161.0080  200.5790  146.4780 C   0  0  0  0  0  0  0  0  0  0  0  0
  161.5260  199.4380  146.3470 O   0  0  0  0  0  1  0  0  0  0  0  0
  160.3830  201.1710  145.3870 O   0  0  0  0  0  0  0  0  0  0  0  0
  162.2090  213.0190  148.3280 C   0  0  0  0  0  0  0  0  0  0  0  0
  161.7510  214.3200  148.1530 O   0  0  0  0  0  1  0  0  0  0  0  0
  163.1460  212.5930  147.6010 O   0  0  0  0  0  0  0  0  0  0  0  0
  1 10  1  0  0  0  0
  2 15  2  0  0  0  0
  3  9  2  0  0  0  0
  4  8  2  0  0  0  0
  5  1  2  0  0  0  0
  5  4  1  0  0  0  0
  6  7  1  0  0  0  0
  8  6  1  0  0  0  0
  9 11  1  0  0  0  0
 10  9  1  0  0  0  0
 10  6  2  0  0  0  0
 11  7  1  0  0  0  0
 12  2  1  0  0  0  0
 13 14  2  0  0  0  0
 13 12  1  0  0  0  0
 14 16  1  0  0  0  0
 15  3  1  0  0  0  0
 16 17  2  0  0  0  0
 17 15  1  0  0  0  0
 17  1  1  0  0  0  0
 18 28  2  0  0  0  0
 19 27  2  0  0  0  0
 20 21  2  0  0  0  0
 20 26  1  0  0  0  0
 21 22  1  0  0  0  0
 22 18  1  0  0  0  0
 22 25  2  0  0  0  0
 23  4  1  0  0  0  0
 24 25  1  0  0  0  0
 25 19  1  0  0  0  0
 26 24  2  0  0  0  0
 27 23  1  0  0  0  0
 28 27  1  0  0  0  0
 29 20  1  0  0  0  0
 30 29  1  0  0  0  0
 31 29  2  0  0  0  0
 32 13  1  0  0  0  0
 33 32  1  0  0  0  0
 34 32  2  0  0  0  0
M  END
>  <MODEL>
1

>  <REMARK>
 VINA RESULT:      -9.9      0.000      0.000
  Name = 
  3 active torsions:
  status: ('A' for Active; 'I' for Inactive)
    1  A    between atoms: C_3  and  C_25
    2  A    between atoms: C_7  and  C_11
    3  A    between atoms: C_8  and  N_18
                            x       y       z     vdW  Elec       q    Type
                         _______ _______ _______ _____ _____    ______ ____

>  <TORSDO>
F 3

$$$$
=
 OpenBabel11062409473D

 34 39  0  0  0  0  0  0  0  0999 V2000
  160.7470  209.0030  153.5340 C   0  0  0  0  0  0  0  0  0  0  0  0
  160.2170  212.6290  152.9780 C   0  0  0  0  0  3  0  0  0  0  0  0
  160.7710  211.4690  154.8810 N   0  0  0  0  0  0  0  0  0  0  0  0
  161.0130  206.5810  153.9220 C   0  0  0  0  0  0  0  0  0  0  0  0
  160.8300  207.6840  153.0320 C   0  0  0  0  0  3  0  0  0  0  0  0
  161.0600  208.1250  155.7690 C   0  0  0  0  0  0  0  0  0  0  0  0
  161.2380  208.6740  157.0810 N   0  0  0  0  0  2  0  0  0  0  0  0
  161.1480  206.8090  155.3170 C   0  0  0  0  0  3  0  0  0  0  0  0
  160.9180  210.2950  155.5380 C   0  0  0  0  0  0  0  0  0  0  0  0
  160.8630  209.1300  154.8910 C   0  0  0  0  0  0  0  0  0  0  0  0
  161.1380  210.0510  156.8910 O   0  0  0  0  0  0  0  0  0  0  0  0
  159.6510  212.8220  151.6120 C   0  0  0  0  0  2  0  0  0  0  0  0
  160.5900  212.4180  150.5330 C   0  0  0  0  0  0  0  0  0  0  0  0
  161.0200  211.1610  150.4430 C   0  0  0  0  0  3  0  0  0  0  0  0
  160.5790  211.4600  153.5170 C   0  0  0  0  0  0  0  0  0  0  0  0
  160.8340  210.1000  151.4490 C   0  0  0  0  0  3  0  0  0  0  0  0
  160.6560  210.2050  152.7800 C   0  0  0  0  0  0  0  0  0  0  0  0
  160.7720  205.1000  149.7100 C   0  0  0  0  0  3  0  0  0  0  0  0
  161.2080  203.4180  151.8650 N   0  0  0  0  0  0  0  0  0  0  0  0
  161.0650  201.8170  148.0190 C   0  0  0  0  0  0  0  0  0  0  0  0
  160.8940  203.1950  148.2140 C   0  0  0  0  0  3  0  0  0  0  0  0
  160.9420  203.7330  149.5030 C   0  0  0  0  0  0  0  0  0  0  0  0
  161.1020  205.2290  153.4450 N   0  0  0  0  0  2  0  0  0  0  0  0
  161.3330  201.5180  150.4190 C   0  0  0  0  0  3  0  0  0  0  0  0
  161.1620  202.8910  150.6130 C   0  0  0  0  0  0  0  0  0  0  0  0
  161.2850  200.9840  149.1280 C   0  0  0  0  0  3  0  0  0  0  0  0
  161.0470  204.7510  152.0920 C   0  0  0  0  0  0  0  0  0  0  0  0
  160.8240  205.6120  151.0080 C   0  0  0  0  0  3  0  0  0  0  0  0
  161.0150  201.2540  146.6600 C   0  0  0  0  0  0  0  0  0  0  0  0
  161.2960  200.0420  146.4610 O   0  0  0  0  0  1  0  0  0  0  0  0
  160.6560  202.0550  145.5830 O   0  0  0  0  0  0  0  0  0  0  0  0
  160.9030  213.3800  149.4630 C   0  0  0  0  0  0  0  0  0  0  0  0
  162.0540  213.2240  148.7000 O   0  0  0  0  0  0  0  0  0  0  0  0
  160.1320  214.3490  149.2230 O   0  0  0  0  0  1  0  0  0  0  0  0
  1 10  1  0  0  0  0
  2 15  2  0  0  0  0
  3  9  2  0  0  0  0
  4  8  2  0  0  0  0
  5  1  2  0  0  0  0
  5  4  1  0  0  0  0
  6  7  1  0  0  0  0
  8  6  1  0  0  0  0
  9 11  1  0  0  0  0
 10  9  1  0  0  0  0
 10  6  2  0  0  0  0
 11  7  1  0  0  0  0
 12  2  1  0  0  0  0
 13 12  1  0  0  0  0
 14 13  2  0  0  0  0
 14 16  1  0  0  0  0
 15  3  1  0  0  0  0
 16 17  2  0  0  0  0
 17 15  1  0  0  0  0
 17  1  1  0  0  0  0
 18 28  2  0  0  0  0
 19 27  2  0  0  0  0
 20 21  2  0  0  0  0
 20 26  1  0  0  0  0
 21 22  1  0  0  0  0
 22 18  1  0  0  0  0
 22 25  2  0  0  0  0
 23  4  1  0  0  0  0
 24 25  1  0  0  0  0
 25 19  1  0  0  0  0
 26 24  2  0  0  0  0
 27 23  1  0  0  0  0
 28 27  1  0  0  0  0
 29 20  1  0  0  0  0
 30 29  1  0  0  0  0
 31 29  2  0  0  0  0
 32 13  1  0  0  0  0
 33 32  2  0  0  0  0
 34 32  1  0  0  0  0
M  END
>  <MODEL>
2

>  <REMARK>
 VINA RESULT:      -9.3      0.957      1.210
  Name = 
  3 active torsions:
  status: ('A' for Active; 'I' for Inactive)
    1  A    between atoms: C_3  and  C_25
    2  A    between atoms: C_7  and  C_11
    3  A    between atoms: C_8  and  N_18
                            x       y       z     vdW  Elec       q    Type
                         _______ _______ _______ _____ _____    ______ ____

>  <TORSDO>
F 3

$$$$
=
 OpenBabel11062409473D

 34 39  0  0  0  0  0  0  0  0999 V2000
  159.7310  210.1770  155.5220 C   0  0  0  0  0  0  0  0  0  0  0  0
  158.0660  213.3980  156.2890 C   0  0  0  0  0  3  0  0  0  0  0  0
  160.2120  212.6860  156.6920 N   0  0  0  0  0  0  0  0  0  0  0  0
  160.8120  208.0010  155.0900 C   0  0  0  0  0  0  0  0  0  0  0  0
  159.7020  208.8880  154.9410 C   0  0  0  0  0  3  0  0  0  0  0  0
  161.9550  209.7020  156.3550 C   0  0  0  0  0  0  0  0  0  0  0  0
  162.9810  210.4320  157.0390 N   0  0  0  0  0  2  0  0  0  0  0  0
  161.9680  208.4240  155.7980 C   0  0  0  0  0  3  0  0  0  0  0  0
  161.1310  211.6930  156.7290 C   0  0  0  0  0  0  0  0  0  0  0  0
  160.8730  210.4930  156.2060 C   0  0  0  0  0  0  0  0  0  0  0  0
  162.4180  211.6870  157.2610 O   0  0  0  0  0  0  0  0  0  0  0  0
  156.6060  213.2530  156.0220 C   0  0  0  0  0  2  0  0  0  0  0  0
  156.2990  213.0130  154.5880 C   0  0  0  0  0  0  0  0  0  0  0  0
  156.7690  211.9340  153.9660 C   0  0  0  0  0  3  0  0  0  0  0  0
  158.9950  212.4580  156.0870 C   0  0  0  0  0  0  0  0  0  0  0  0
  157.7760  210.9930  154.4870 C   0  0  0  0  0  3  0  0  0  0  0  0
  158.7540  211.2010  155.3910 C   0  0  0  0  0  0  0  0  0  0  0  0
  161.0860  206.8670  150.7750 C   0  0  0  0  0  3  0  0  0  0  0  0
  160.9610  204.9940  152.8080 N   0  0  0  0  0  0  0  0  0  0  0  0
  161.2570  203.7020  148.8570 C   0  0  0  0  0  0  0  0  0  0  0  0
  161.2210  205.0730  149.1480 C   0  0  0  0  0  3  0  0  0  0  0  0
  161.1230  205.5070  150.4720 C   0  0  0  0  0  0  0  0  0  0  0  0
  160.8160  206.6870  154.5120 N   0  0  0  0  0  2  0  0  0  0  0  0
  161.0910  203.2010  151.2320 C   0  0  0  0  0  3  0  0  0  0  0  0
  161.0570  204.5670  151.5220 C   0  0  0  0  0  0  0  0  0  0  0  0
  161.1920  202.7710  149.9060 C   0  0  0  0  0  3  0  0  0  0  0  0
  160.9250  206.3170  153.1290 C   0  0  0  0  0  0  0  0  0  0  0  0
  160.9860  207.2750  152.1060 C   0  0  0  0  0  3  0  0  0  0  0  0
  161.3620  203.2480  147.4610 C   0  0  0  0  0  0  0  0  0  0  0  0
  161.9210  203.9720  146.5940 O   0  0  0  0  0  0  0  0  0  0  0  0
  160.8460  202.0130  147.0850 O   0  0  0  0  0  1  0  0  0  0  0  0
  155.3300  213.8890  153.9100 C   0  0  0  0  0  0  0  0  0  0  0  0
  155.4200  214.1000  152.5390 O   0  0  0  0  0  0  0  0  0  0  0  0
  154.4070  214.4520  154.5600 O   0  0  0  0  0  1  0  0  0  0  0  0
  1 10  1  0  0  0  0
  3  9  2  0  0  0  0
  4  8  2  0  0  0  0
  5  4  1  0  0  0  0
  5  1  2  0  0  0  0
  6  7  1  0  0  0  0
  7 11  1  0  0  0  0
  8  6  1  0  0  0  0
  9 11  1  0  0  0  0
 10  6  2  0  0  0  0
 10  9  1  0  0  0  0
 12  2  1  0  0  0  0
 13 12  1  0  0  0  0
 14 16  1  0  0  0  0
 14 13  2  0  0  0  0
 15  2  2  0  0  0  0
 15  3  1  0  0  0  0
 16 17  2  0  0  0  0
 17  1  1  0  0  0  0
 17 15  1  0  0  0  0
 18 28  2  0  0  0  0
 19 27  2  0  0  0  0
 20 21  2  0  0  0  0
 20 26  1  0  0  0  0
 21 22  1  0  0  0  0
 22 18  1  0  0  0  0
 22 25  2  0  0  0  0
 23  4  1  0  0  0  0
 24 25  1  0  0  0  0
 25 19  1  0  0  0  0
 26 24  2  0  0  0  0
 27 23  1  0  0  0  0
 28 27  1  0  0  0  0
 29 20  1  0  0  0  0
 30 29  2  0  0  0  0
 31 29  1  0  0  0  0
 32 34  1  0  0  0  0
 32 13  1  0  0  0  0
 33 32  2  0  0  0  0
M  END
>  <MODEL>
3

>  <REMARK>
 VINA RESULT:      -9.2      3.358      4.543
  Name = 
  3 active torsions:
  status: ('A' for Active; 'I' for Inactive)
    1  A    between atoms: C_3  and  C_25
    2  A    between atoms: C_7  and  C_11
    3  A    between atoms: C_8  and  N_18
                            x       y       z     vdW  Elec       q    Type
                         _______ _______ _______ _____ _____    ______ ____

>  <TORSDO>
F 3

$$$$
=
 OpenBabel11062409473D

 34 39  0  0  0  0  0  0  0  0999 V2000
  159.6720  210.1600  154.2220 C   0  0  0  0  0  0  0  0  0  0  0  0
  157.2140  211.7150  156.5190 C   0  0  0  0  0  3  0  0  0  0  0  0
  159.3150  210.8750  156.9160 N   0  0  0  0  0  0  0  0  0  0  0  0
  161.2720  209.0470  152.7090 C   0  0  0  0  0  0  0  0  0  0  0  0
  160.0590  209.7710  152.9190 C   0  0  0  0  0  3  0  0  0  0  0  0
  161.6980  209.1440  155.0770 C   0  0  0  0  0  0  0  0  0  0  0  0
  162.3570  209.0610  156.3470 N   0  0  0  0  0  2  0  0  0  0  0  0
  162.1160  208.7420  153.8100 C   0  0  0  0  0  3  0  0  0  0  0  0
  160.3960  210.1750  156.5010 C   0  0  0  0  0  0  0  0  0  0  0  0
  160.5320  209.8060  155.2260 C   0  0  0  0  0  0  0  0  0  0  0  0
  161.4980  209.7230  157.2220 O   0  0  0  0  0  0  0  0  0  0  0  0
  155.9210  211.8730  155.7950 C   0  0  0  0  0  2  0  0  0  0  0  0
  156.0080  212.8200  154.6530 C   0  0  0  0  0  0  0  0  0  0  0  0
  156.8310  212.5820  153.6350 C   0  0  0  0  0  3  0  0  0  0  0  0
  158.3480  211.2300  156.0020 C   0  0  0  0  0  0  0  0  0  0  0  0
  157.8740  211.5420  153.5790 C   0  0  0  0  0  3  0  0  0  0  0  0
  158.5510  210.9550  154.5850 C   0  0  0  0  0  0  0  0  0  0  0  0
  160.5980  205.1230  150.6750 C   0  0  0  0  0  3  0  0  0  0  0  0
  161.9120  207.2330  149.4570 N   0  0  0  0  0  0  0  0  0  0  0  0
  161.3590  203.6810  147.3490 C   0  0  0  0  0  0  0  0  0  0  0  0
  160.8820  203.8010  148.6620 C   0  0  0  0  0  3  0  0  0  0  0  0
  161.0660  204.9920  149.3690 C   0  0  0  0  0  0  0  0  0  0  0  0
  161.6940  208.6370  151.3990 N   0  0  0  0  0  2  0  0  0  0  0  0
  162.2110  205.9580  147.4570 C   0  0  0  0  0  3  0  0  0  0  0  0
  161.7340  206.0770  148.7650 C   0  0  0  0  0  0  0  0  0  0  0  0
  162.0230  204.7650  146.7520 C   0  0  0  0  0  3  0  0  0  0  0  0
  161.4610  207.3870  150.7330 C   0  0  0  0  0  0  0  0  0  0  0  0
  160.7950  206.3230  151.3600 C   0  0  0  0  0  3  0  0  0  0  0  0
  161.1620  202.4260  146.6050 C   0  0  0  0  0  0  0  0  0  0  0  0
  161.2580  201.3140  147.1920 O   0  0  0  0  0  1  0  0  0  0  0  0
  160.8670  202.4550  145.2480 O   0  0  0  0  0  0  0  0  0  0  0  0
  155.0500  213.9360  154.5780 C   0  0  0  0  0  0  0  0  0  0  0  0
  154.4720  214.4370  155.7390 O   0  0  0  0  0  1  0  0  0  0  0  0
  154.7470  214.4510  153.4680 O   0  0  0  0  0  0  0  0  0  0  0  0
  1 17  1  0  0  0  0
  1 10  1  0  0  0  0
  4  5  1  0  0  0  0
  4  8  2  0  0  0  0
  5  1  2  0  0  0  0
  6 10  2  0  0  0  0
  6  7  1  0  0  0  0
  7 11  1  0  0  0  0
  8  6  1  0  0  0  0
  9  3  2  0  0  0  0
  9 11  1  0  0  0  0
 10  9  1  0  0  0  0
 12  2  1  0  0  0  0
 13 12  1  0  0  0  0
 14 13  2  0  0  0  0
 15  2  2  0  0  0  0
 15  3  1  0  0  0  0
 16 14  1  0  0  0  0
 16 17  2  0  0  0  0
 17 15  1  0  0  0  0
 18 28  2  0  0  0  0
 19 27  2  0  0  0  0
 20 21  1  0  0  0  0
 21 22  2  0  0  0  0
 22 18  1  0  0  0  0
 23  4  1  0  0  0  0
 24 25  2  0  0  0  0
 25 22  1  0  0  0  0
 25 19  1  0  0  0  0
 26 20  2  0  0  0  0
 26 24  1  0  0  0  0
 27 28  1  0  0  0  0
 27 23  1  0  0  0  0
 29 30  1  0  0  0  0
 29 20  1  0  0  0  0
 31 29  2  0  0  0  0
 32 13  1  0  0  0  0
 32 33  1  0  0  0  0
 34 32  2  0  0  0  0
M  END
>  <MODEL>
4

>  <REMARK>
 VINA RESULT:      -8.7      3.420      4.710
  Name = 
  3 active torsions:
  status: ('A' for Active; 'I' for Inactive)
    1  A    between atoms: C_3  and  C_25
    2  A    between atoms: C_7  and  C_11
    3  A    between atoms: C_8  and  N_18
                            x       y       z     vdW  Elec       q    Type
                         _______ _______ _______ _____ _____    ______ ____

>  <TORSDO>
F 3

$$$$
=
 OpenBabel11062409473D

 34 39  0  0  0  0  0  0  0  0999 V2000
  161.4770  209.3700  151.0810 C   0  0  0  0  0  0  0  0  0  0  0  0
  160.9480  206.3630  153.1820 C   0  0  0  0  0  3  0  0  0  0  0  0
  160.2690  208.5370  153.4780 N   0  0  0  0  0  0  0  0  0  0  0  0
  161.9050  211.3870  149.7260 C   0  0  0  0  0  0  0  0  0  0  0  0
  161.9740  209.9710  149.9010 C   0  0  0  0  0  3  0  0  0  0  0  0
  160.8270  211.5650  151.8720 C   0  0  0  0  0  0  0  0  0  0  0  0
  160.1080  212.0880  152.9960 N   0  0  0  0  0  2  0  0  0  0  0  0
  161.3040  212.1980  150.7260 C   0  0  0  0  0  3  0  0  0  0  0  0
  160.3230  209.8410  153.1210 C   0  0  0  0  0  0  0  0  0  0  0  0
  160.9360  210.2270  152.0010 C   0  0  0  0  0  0  0  0  0  0  0  0
  159.8100  210.9650  153.7640 O   0  0  0  0  0  0  0  0  0  0  0  0
  161.7930  205.2560  152.6490 C   0  0  0  0  0  2  0  0  0  0  0  0
  161.3930  204.8270  151.2840 C   0  0  0  0  0  0  0  0  0  0  0  0
  161.4360  205.6800  150.2640 C   0  0  0  0  0  3  0  0  0  0  0  0
  160.8420  207.5890  152.6590 C   0  0  0  0  0  0  0  0  0  0  0  0
  161.6530  207.1350  150.3500 C   0  0  0  0  0  3  0  0  0  0  0  0
  161.3920  207.9800  151.3670 C   0  0  0  0  0  0  0  0  0  0  0  0
  159.7210  212.2580  145.9230 C   0  0  0  0  0  3  0  0  0  0  0  0
  162.3550  212.9990  146.3390 N   0  0  0  0  0  0  0  0  0  0  0  0
  160.5090  213.9570  142.7270 C   0  0  0  0  0  0  0  0  0  0  0  0
  159.7980  213.2650  143.7190 C   0  0  0  0  0  3  0  0  0  0  0  0
  160.4160  212.9450  144.9300 C   0  0  0  0  0  0  0  0  0  0  0  0
  162.4000  212.0290  148.5410 N   0  0  0  0  0  2  0  0  0  0  0  0
  162.4670  214.0020  144.1720 C   0  0  0  0  0  3  0  0  0  0  0  0
  161.7580  213.3140  145.1600 C   0  0  0  0  0  0  0  0  0  0  0  0
  161.8440  214.3230  142.9610 C   0  0  0  0  0  3  0  0  0  0  0  0
  161.6970  212.3300  147.3250 C   0  0  0  0  0  0  0  0  0  0  0  0
  160.3620  211.9480  147.1240 C   0  0  0  0  0  3  0  0  0  0  0  0
  159.8550  214.2950  141.4530 C   0  0  0  0  0  0  0  0  0  0  0  0
  160.5380  214.4430  140.4040 O   0  0  0  0  0  0  0  0  0  0  0  0
  158.4750  214.4520  141.3940 O   0  0  0  0  0  1  0  0  0  0  0  0
  161.1120  203.4020  151.0400 C   0  0  0  0  0  0  0  0  0  0  0  0
  160.7580  202.9700  149.7660 O   0  0  0  0  0  0  0  0  0  0  0  0
  161.1940  202.5600  151.9740 O   0  0  0  0  0  1  0  0  0  0  0  0
  1 17  1  0  0  0  0
  1 10  1  0  0  0  0
  4  5  1  0  0  0  0
  4  8  2  0  0  0  0
  5  1  2  0  0  0  0
  6 10  2  0  0  0  0
  6  7  1  0  0  0  0
  7 11  1  0  0  0  0
  8  6  1  0  0  0  0
  9  3  2  0  0  0  0
  9 11  1  0  0  0  0
 10  9  1  0  0  0  0
 12  2  1  0  0  0  0
 13 12  1  0  0  0  0
 14 16  1  0  0  0  0
 14 13  2  0  0  0  0
 15  2  2  0  0  0  0
 15  3  1  0  0  0  0
 16 17  2  0  0  0  0
 17 15  1  0  0  0  0
 18 28  2  0  0  0  0
 19 27  2  0  0  0  0
 20 26  2  0  0  0  0
 20 21  1  0  0  0  0
 21 22  2  0  0  0  0
 22 25  1  0  0  0  0
 22 18  1  0  0  0  0
 23  4  1  0  0  0  0
 24 25  2  0  0  0  0
 25 19  1  0  0  0  0
 26 24  1  0  0  0  0
 27 23  1  0  0  0  0
 28 27  1  0  0  0  0
 29 20  1  0  0  0  0
 30 29  2  0  0  0  0
 31 29  1  0  0  0  0
 32 13  1  0  0  0  0
 32 34  1  0  0  0  0
 33 32  2  0  0  0  0
M  END
>  <MODEL>
5

>  <REMARK>
 VINA RESULT:      -7.8      3.868      9.044
  Name = 
  3 active torsions:
  status: ('A' for Active; 'I' for Inactive)
    1  A    between atoms: C_3  and  C_25
    2  A    between atoms: C_7  and  C_11
    3  A    between atoms: C_8  and  N_18
                            x       y       z     vdW  Elec       q    Type
                         _______ _______ _______ _____ _____    ______ ____

>  <TORSDO>
F 3

$$$$
=
 OpenBabel11062409473D

 34 39  0  0  0  0  0  0  0  0999 V2000
  161.7110  207.5680  151.5220 C   0  0  0  0  0  0  0  0  0  0  0  0
  161.0920  203.9950  152.2890 C   0  0  0  0  0  3  0  0  0  0  0  0
  160.6850  205.8870  153.5260 N   0  0  0  0  0  0  0  0  0  0  0  0
  162.2040  209.9380  151.0460 C   0  0  0  0  0  0  0  0  0  0  0  0
  162.1400  208.5750  150.6260 C   0  0  0  0  0  3  0  0  0  0  0  0
  161.3870  209.2730  153.2120 C   0  0  0  0  0  0  0  0  0  0  0  0
  160.8530  209.3240  154.5400 N   0  0  0  0  0  2  0  0  0  0  0  0
  161.8030  210.2960  152.3610 C   0  0  0  0  0  3  0  0  0  0  0  0
  160.8390  207.2170  153.7200 C   0  0  0  0  0  0  0  0  0  0  0  0
  161.3670  207.9970  152.7750 C   0  0  0  0  0  0  0  0  0  0  0  0
  160.5210  208.0010  154.8260 O   0  0  0  0  0  0  0  0  0  0  0  0
  161.7530  203.1630  151.2430 C   0  0  0  0  0  2  0  0  0  0  0  0
  161.1650  203.3570  149.8910 C   0  0  0  0  0  0  0  0  0  0  0  0
  161.1890  204.5520  149.3060 C   0  0  0  0  0  3  0  0  0  0  0  0
  161.0620  205.3310  152.3240 C   0  0  0  0  0  0  0  0  0  0  0  0
  161.5680  205.8280  149.9380 C   0  0  0  0  0  3  0  0  0  0  0  0
  161.5090  206.1910  151.2340 C   0  0  0  0  0  0  0  0  0  0  0  0
  160.4740  211.1220  147.0970 C   0  0  0  0  0  3  0  0  0  0  0  0
  162.6110  212.4480  148.2520 N   0  0  0  0  0  0  0  0  0  0  0  0
  161.1360  213.7580  144.5800 C   0  0  0  0  0  0  0  0  0  0  0  0
  160.5520  212.6560  145.2200 C   0  0  0  0  0  3  0  0  0  0  0  0
  161.0450  212.2170  146.4520 C   0  0  0  0  0  0  0  0  0  0  0  0
  162.6340  210.9850  150.1620 N   0  0  0  0  0  2  0  0  0  0  0  0
  162.7180  213.9770  146.4170 C   0  0  0  0  0  3  0  0  0  0  0  0
  162.1340  212.8790  147.0540 C   0  0  0  0  0  0  0  0  0  0  0  0
  162.2200  214.4150  145.1860 C   0  0  0  0  0  3  0  0  0  0  0  0
  162.0690  211.3830  148.9030 C   0  0  0  0  0  0  0  0  0  0  0  0
  160.9860  210.7020  148.3260 C   0  0  0  0  0  3  0  0  0  0  0  0
  160.6130  214.2200  143.2840 C   0  0  0  0  0  0  0  0  0  0  0  0
  159.3840  214.4530  143.1380 O   0  0  0  0  0  1  0  0  0  0  0  0
  161.4730  214.4050  142.2080 O   0  0  0  0  0  0  0  0  0  0  0  0
  160.7090  202.1770  149.1370 C   0  0  0  0  0  0  0  0  0  0  0  0
  159.8820  201.2390  149.7440 O   0  0  0  0  0  1  0  0  0  0  0  0
  161.0570  202.0060  147.9380 O   0  0  0  0  0  0  0  0  0  0  0  0
  1 10  1  0  0  0  0
  2 15  2  0  0  0  0
  3  9  2  0  0  0  0
  4  8  2  0  0  0  0
  5  4  1  0  0  0  0
  5  1  2  0  0  0  0
  6  7  1  0  0  0  0
  7 11  1  0  0  0  0
  8  6  1  0  0  0  0
  9 11  1  0  0  0  0
 10  6  2  0  0  0  0
 10  9  1  0  0  0  0
 12  2  1  0  0  0  0
 13 12  1  0  0  0  0
 14 13  2  0  0  0  0
 14 16  1  0  0  0  0
 15  3  1  0  0  0  0
 16 17  2  0  0  0  0
 17  1  1  0  0  0  0
 17 15  1  0  0  0  0
 18 28  2  0  0  0  0
 19 27  2  0  0  0  0
 20 26  2  0  0  0  0
 20 21  1  0  0  0  0
 21 22  2  0  0  0  0
 22 25  1  0  0  0  0
 22 18  1  0  0  0  0
 23  4  1  0  0  0  0
 24 25  2  0  0  0  0
 25 19  1  0  0  0  0
 26 24  1  0  0  0  0
 27 23  1  0  0  0  0
 28 27  1  0  0  0  0
 29 20  1  0  0  0  0
 30 29  1  0  0  0  0
 31 29  2  0  0  0  0
 32 33  1  0  0  0  0
 32 13  1  0  0  0  0
 34 32  2  0  0  0  0
M  END
>  <MODEL>
6

>  <REMARK>
 VINA RESULT:      -7.6      2.765      8.792
  Name = 
  3 active torsions:
  status: ('A' for Active; 'I' for Inactive)
    1  A    between atoms: C_3  and  C_25
    2  A    between atoms: C_7  and  C_11
    3  A    between atoms: C_8  and  N_18
                            x       y       z     vdW  Elec       q    Type
                         _______ _______ _______ _____ _____    ______ ____

>  <TORSDO>
F 3

$$$$
=
 OpenBabel11062409473D

 34 39  0  0  0  0  0  0  0  0999 V2000
  160.9780  204.0110  147.9200 C   0  0  0  0  0  0  0  0  0  0  0  0
  160.5320  201.9330  144.8840 C   0  0  0  0  0  3  0  0  0  0  0  0
  160.9360  204.1820  145.1150 N   0  0  0  0  0  0  0  0  0  0  0  0
  161.1880  205.4090  149.9430 C   0  0  0  0  0  0  0  0  0  0  0  0
  161.0800  204.1240  149.3260 C   0  0  0  0  0  3  0  0  0  0  0  0
  161.1230  206.4240  147.7600 C   0  0  0  0  0  0  0  0  0  0  0  0
  161.2140  207.3870  146.7030 N   0  0  0  0  0  2  0  0  0  0  0  0
  161.2270  206.5810  149.1420 C   0  0  0  0  0  3  0  0  0  0  0  0
  161.0230  205.2840  145.8960 C   0  0  0  0  0  0  0  0  0  0  0  0
  161.0000  205.1910  147.2270 C   0  0  0  0  0  0  0  0  0  0  0  0
  161.1440  206.6240  145.5390 O   0  0  0  0  0  0  0  0  0  0  0  0
  160.0660  200.5790  145.2990 C   0  0  0  0  0  2  0  0  0  0  0  0
  161.0730  199.8410  146.1060 C   0  0  0  0  0  0  0  0  0  0  0  0
  161.4930  200.3240  147.2720 C   0  0  0  0  0  3  0  0  0  0  0  0
  160.8410  202.9420  145.7060 C   0  0  0  0  0  0  0  0  0  0  0  0
  161.2240  201.6690  147.8100 C   0  0  0  0  0  3  0  0  0  0  0  0
  160.9550  202.8150  147.1540 C   0  0  0  0  0  0  0  0  0  0  0  0
  160.7470  209.1280  152.3840 C   0  0  0  0  0  3  0  0  0  0  0  0
  161.2250  206.6460  153.5120 N   0  0  0  0  0  0  0  0  0  0  0  0
  160.8050  209.9710  155.9910 C   0  0  0  0  0  0  0  0  0  0  0  0
  160.7040  210.1130  154.6000 C   0  0  0  0  0  3  0  0  0  0  0  0
  160.8440  208.9990  153.7680 C   0  0  0  0  0  0  0  0  0  0  0  0
  161.2940  205.5580  151.3670 N   0  0  0  0  0  2  0  0  0  0  0  0
  161.1900  207.5840  155.7110 C   0  0  0  0  0  3  0  0  0  0  0  0
  161.0890  207.7270  154.3250 C   0  0  0  0  0  0  0  0  0  0  0  0
  161.0480  208.7010  156.5400 C   0  0  0  0  0  3  0  0  0  0  0  0
  161.1320  206.7460  152.1570 C   0  0  0  0  0  0  0  0  0  0  0  0
  160.8920  208.0000  151.5750 C   0  0  0  0  0  3  0  0  0  0  0  0
  160.6550  211.1460  156.8650 C   0  0  0  0  0  0  0  0  0  0  0  0
  161.6700  211.7800  157.2610 O   0  0  0  0  0  0  0  0  0  0  0  0
  159.3920  211.5680  157.2610 O   0  0  0  0  0  1  0  0  0  0  0  0
  161.4720  198.4890  145.6820 C   0  0  0  0  0  0  0  0  0  0  0  0
  160.5170  197.5980  145.2050 O   0  0  0  0  0  0  0  0  0  0  0  0
  162.6780  198.1250  145.7420 O   0  0  0  0  0  1  0  0  0  0  0  0
  1  5  1  0  0  0  0
  2 12  1  0  0  0  0
  2 15  2  0  0  0  0
  3 15  1  0  0  0  0
  3  9  2  0  0  0  0
  4 23  1  0  0  0  0
  5  4  2  0  0  0  0
  6  8  2  0  0  0  0
  7  6  1  0  0  0  0
  8  4  1  0  0  0  0
  9 10  1  0  0  0  0
 10  6  1  0  0  0  0
 10  1  2  0  0  0  0
 11  9  1  0  0  0  0
 11  7  1  0  0  0  0
 12 13  1  0  0  0  0
 13 14  2  0  0  0  0
 14 16  1  0  0  0  0
 15 17  1  0  0  0  0
 17 16  2  0  0  0  0
 17  1  1  0  0  0  0
 18 22  1  0  0  0  0
 19 25  1  0  0  0  0
 20 26  1  0  0  0  0
 20 29  1  0  0  0  0
 21 20  2  0  0  0  0
 22 25  2  0  0  0  0
 22 21  1  0  0  0  0
 23 27  1  0  0  0  0
 24 26  2  0  0  0  0
 25 24  1  0  0  0  0
 27 19  2  0  0  0  0
 28 27  1  0  0  0  0
 28 18  2  0  0  0  0
 29 30  2  0  0  0  0
 29 31  1  0  0  0  0
 32 34  1  0  0  0  0
 32 13  1  0  0  0  0
 33 32  2  0  0  0  0
M  END
>  <MODEL>
7

>  <REMARK>
 VINA RESULT:      -7.5      2.997     10.284
  Name = 
  3 active torsions:
  status: ('A' for Active; 'I' for Inactive)
    1  A    between atoms: C_3  and  C_25
    2  A    between atoms: C_7  and  C_11
    3  A    between atoms: C_8  and  N_18
                            x       y       z     vdW  Elec       q    Type
                         _______ _______ _______ _____ _____    ______ ____

>  <TORSDO>
F 3

$$$$
=
 OpenBabel11062409473D

 34 39  0  0  0  0  0  0  0  0999 V2000
  160.5660  209.9480  151.9970 C   0  0  0  0  0  0  0  0  0  0  0  0
  159.6580  213.2180  153.4860 C   0  0  0  0  0  3  0  0  0  0  0  0
  160.6140  212.7060  151.4610 N   0  0  0  0  0  0  0  0  0  0  0  0
  161.2500  207.7780  151.0440 C   0  0  0  0  0  0  0  0  0  0  0  0
  160.5880  208.5360  152.0580 C   0  0  0  0  0  3  0  0  0  0  0  0
  161.8160  209.8340  149.9260 C   0  0  0  0  0  0  0  0  0  0  0  0
  162.2590  210.7670  148.9320 N   0  0  0  0  0  2  0  0  0  0  0  0
  161.8620  208.4410  149.9470 C   0  0  0  0  0  3  0  0  0  0  0  0
  161.1940  211.8080  150.6320 C   0  0  0  0  0  0  0  0  0  0  0  0
  161.2000  210.5060  150.9200 C   0  0  0  0  0  0  0  0  0  0  0  0
  161.8480  212.0050  149.4190 O   0  0  0  0  0  0  0  0  0  0  0  0
  159.2810  213.0030  154.9120 C   0  0  0  0  0  2  0  0  0  0  0  0
  158.0580  212.1740  155.0710 C   0  0  0  0  0  0  0  0  0  0  0  0
  158.0220  210.9230  154.6170 C   0  0  0  0  0  3  0  0  0  0  0  0
  160.0030  212.2650  152.6150 C   0  0  0  0  0  0  0  0  0  0  0  0
  159.0260  210.2780  153.7510 C   0  0  0  0  0  3  0  0  0  0  0  0
  159.8800  210.8350  152.8710 C   0  0  0  0  0  0  0  0  0  0  0  0
  160.8900  204.9140  147.6290 C   0  0  0  0  0  3  0  0  0  0  0  0
  161.3150  204.0870  150.2360 N   0  0  0  0  0  0  0  0  0  0  0  0
  161.0570  201.2380  147.2060 C   0  0  0  0  0  0  0  0  0  0  0  0
  160.9290  202.6010  146.9020 C   0  0  0  0  0  3  0  0  0  0  0  0
  161.0160  203.5570  147.9180 C   0  0  0  0  0  0  0  0  0  0  0  0
  161.2900  206.3430  151.0750 N   0  0  0  0  0  2  0  0  0  0  0  0
  161.3580  201.7960  149.5550 C   0  0  0  0  0  3  0  0  0  0  0  0
  161.2310  203.1540  149.2520 C   0  0  0  0  0  0  0  0  0  0  0  0
  161.2720  200.8420  148.5360 C   0  0  0  0  0  3  0  0  0  0  0  0
  161.1970  205.4190  149.9790 C   0  0  0  0  0  0  0  0  0  0  0  0
  160.9800  205.8490  148.6610 C   0  0  0  0  0  3  0  0  0  0  0  0
  160.9660  200.2330  146.1340 C   0  0  0  0  0  0  0  0  0  0  0  0
  161.5650  199.1290  146.2410 O   0  0  0  0  0  1  0  0  0  0  0  0
  160.2170  200.4920  144.9930 O   0  0  0  0  0  0  0  0  0  0  0  0
  156.9470  212.6920  155.8860 C   0  0  0  0  0  0  0  0  0  0  0  0
  156.9110  212.4440  157.2530 O   0  0  0  0  0  1  0  0  0  0  0  0
  156.0220  213.3680  155.3590 O   0  0  0  0  0  0  0  0  0  0  0  0
  1  5  1  0  0  0  0
  1 17  1  0  0  0  0
  2 12  1  0  0  0  0
  3 15  1  0  0  0  0
  4 23  1  0  0  0  0
  4  5  2  0  0  0  0
  6  8  2  0  0  0  0
  6 10  1  0  0  0  0
  7 11  1  0  0  0  0
  7  6  1  0  0  0  0
  8  4  1  0  0  0  0
  9 10  1  0  0  0  0
  9  3  2  0  0  0  0
 10  1  2  0  0  0  0
 11  9  1  0  0  0  0
 12 13  1  0  0  0  0
 13 32  1  0  0  0  0
 14 13  2  0  0  0  0
 15 17  1  0  0  0  0
 15  2  2  0  0  0  0
 16 14  1  0  0  0  0
 17 16  2  0  0  0  0
 18 22  1  0  0  0  0
 18 28  2  0  0  0  0
 20 26  1  0  0  0  0
 21 20  2  0  0  0  0
 21 22  1  0  0  0  0
 22 25  2  0  0  0  0
 25 24  1  0  0  0  0
 25 19  1  0  0  0  0
 26 24  2  0  0  0  0
 27 19  2  0  0  0  0
 27 23  1  0  0  0  0
 28 27  1  0  0  0  0
 29 30  1  0  0  0  0
 29 20  1  0  0  0  0
 31 29  2  0  0  0  0
 32 33  1  0  0  0  0
 34 32  2  0  0  0  0
M  END
>  <MODEL>
8

>  <REMARK>
 VINA RESULT:      -7.3      2.211      4.418
  Name = 
  3 active torsions:
  status: ('A' for Active; 'I' for Inactive)
    1  A    between atoms: C_3  and  C_25
    2  A    between atoms: C_7  and  C_11
    3  A    between atoms: C_8  and  N_18
                            x       y       z     vdW  Elec       q    Type
                         _______ _______ _______ _____ _____    ______ ____

>  <TORSDO>
F 3

$$$$
