=
 OpenBabel11052422523D

 28 33  0  0  1  0  0  0  0  0999 V2000
  161.0150  203.9130  148.5250 C   0  0  0  0  0  0  0  0  0  0  0  0
  161.1060  205.1420  147.6780 C   0  0  1  0  0  3  0  0  0  0  0  0
  160.5970  206.3900  149.8430 C   0  0  1  0  0  3  0  0  0  0  0  0
  160.7400  206.4660  154.1640 C   0  0  0  0  0  3  0  0  0  0  0  0
  161.0840  200.2780  150.7730 C   0  0  0  0  0  1  0  0  0  0  0  0
  162.6210  207.0230  147.3600 C   0  0  2  0  0  3  0  0  0  0  0  0
  160.4790  206.3670  148.3300 C   0  0  1  0  0  3  0  0  0  0  0  0
  162.9570  204.9560  146.0260 C   0  0  0  0  0  1  0  0  0  0  0  0
  161.1110  208.9550  152.3220 C   0  0  0  0  0  3  0  0  0  0  0  0
  160.7960  205.3080  152.0050 C   0  0  0  0  0  0  0  0  0  0  0  0
  162.5520  205.5070  147.3800 C   0  0  2  0  0  3  0  0  0  0  0  0
  161.6840  208.7230  154.7720 C   0  0  0  0  0  0  0  0  0  0  0  0
  160.7910  206.4900  152.6850 C   0  0  0  0  0  0  0  0  0  0  0  0
  160.2050  207.6740  150.5170 C   0  0  0  0  0  2  0  0  0  0  0  0
  161.6600  209.3760  153.6150 C   0  0  0  0  0  3  0  0  0  0  0  0
  160.9660  202.8070  150.6850 C   0  0  0  0  0  0  0  0  0  0  0  0
  160.7800  205.2580  150.5750 C   0  0  0  0  0  0  0  0  0  0  0  0
  160.7320  207.7480  151.9070 C   0  0  0  0  0  0  0  0  0  0  0  0
  161.1200  201.5310  148.6660 N   0  0  0  0  0  0  0  0  0  0  0  0
  160.9240  202.8720  152.0770 C   0  0  0  0  0  3  0  0  0  0  0  0
  161.0550  201.5680  150.0210 C   0  0  0  0  0  0  0  0  0  0  0  0
  163.6270  207.4950  148.3930 C   0  0  0  0  0  1  0  0  0  0  0  0
  162.2770  209.4320  155.9360 C   0  0  0  0  0  1  0  0  0  0  0  0
  161.1060  207.4020  155.0320 C   0  0  0  0  0  2  0  0  0  0  0  0
  160.8540  204.0990  152.7210 C   0  0  0  0  0  3  0  0  0  0  0  0
  161.1100  202.6610  147.9150 C   0  0  0  0  0  3  0  0  0  0  0  0
  160.9250  204.0020  149.9270 C   0  0  0  0  0  0  0  0  0  0  0  0
  161.2380  207.5350  147.7220 C   0  0  0  0  0  2  0  0  0  0  0  0
  1 27  1  0  0  0  0
  2  7  1  0  0  0  0
  2  1  1  1  0  0  0
  3 14  1  1  0  0  0
  3 17  1  0  0  0  0
  4 24  1  0  0  0  0
  6 11  1  0  0  0  0
  6 28  1  0  0  0  0
  6 22  1  1  0  0  0
  7 28  1  6  0  0  0
  7  3  1  0  0  0  0
  9 15  1  0  0  0  0
 10 13  1  0  0  0  0
 10 25  1  0  0  0  0
 11  8  1  6  0  0  0
 11  2  1  0  0  0  0
 12 24  1  0  0  0  0
 12 23  1  0  0  0  0
 13  4  2  0  0  0  0
 14 18  1  0  0  0  0
 15 12  2  0  0  0  0
 16 20  1  0  0  0  0
 17 10  2  0  0  0  0
 18  9  2  0  0  0  0
 18 13  1  0  0  0  0
 19 21  2  0  0  0  0
 20 25  2  0  0  0  0
 21 16  1  0  0  0  0
 21  5  1  0  0  0  0
 26  1  2  0  0  0  0
 26 19  1  0  0  0  0
 27 17  1  0  0  0  0
 27 16  2  0  0  0  0
M  END
>  <MODEL>
1

>  <REMARK>
 VINA RESULT:      -6.6      0.000      0.000
  Name = 
  0 active torsions:
  status: ('A' for Active; 'I' for Inactive)
                            x       y       z     vdW  Elec       q    Type
                         _______ _______ _______ _____ _____    ______ ____

>  <TORSDO>
F 0

$$$$
=
 OpenBabel11052422523D

 28 33  0  0  1  0  0  0  0  0999 V2000
  161.4970  203.7720  148.3780 C   0  0  0  0  0  0  0  0  0  0  0  0
  161.5490  202.9210  149.6070 C   0  0  1  0  0  3  0  0  0  0  0  0
  161.9460  205.1240  150.8300 C   0  0  1  0  0  3  0  0  0  0  0  0
  161.4470  209.4180  150.9280 C   0  0  0  0  0  3  0  0  0  0  0  0
  161.0300  205.9990  144.7600 C   0  0  0  0  0  1  0  0  0  0  0  0
  160.1770  202.4820  151.5720 C   0  0  2  0  0  3  0  0  0  0  0  0
  162.1900  203.6260  150.7960 C   0  0  1  0  0  3  0  0  0  0  0  0
  159.8350  201.1210  149.5240 C   0  0  0  0  0  1  0  0  0  0  0  0
  161.3770  207.5550  153.4290 C   0  0  0  0  0  3  0  0  0  0  0  0
  161.5050  207.2600  149.7690 C   0  0  0  0  0  0  0  0  0  0  0  0
  160.1570  202.5040  150.0540 C   0  0  2  0  0  3  0  0  0  0  0  0
  160.5880  209.9490  153.2390 C   0  0  0  0  0  0  0  0  0  0  0  0
  161.5220  207.9400  150.9500 C   0  0  0  0  0  0  0  0  0  0  0  0
  162.3550  205.8310  152.0920 C   0  0  0  0  0  2  0  0  0  0  0  0
  160.7470  208.7980  153.8850 C   0  0  0  0  0  3  0  0  0  0  0  0
  161.3010  205.9260  147.2780 C   0  0  0  0  0  0  0  0  0  0  0  0
  161.6380  205.8360  149.7130 C   0  0  0  0  0  0  0  0  0  0  0  0
  161.7190  207.1720  152.2010 C   0  0  0  0  0  0  0  0  0  0  0  0
  161.2430  203.8990  146.0060 N   0  0  0  0  0  0  0  0  0  0  0  0
  161.2300  207.3170  147.3440 C   0  0  0  0  0  3  0  0  0  0  0  0
  161.1960  205.2550  146.0440 C   0  0  0  0  0  0  0  0  0  0  0  0
  159.1180  203.4270  152.1050 C   0  0  0  0  0  1  0  0  0  0  0  0
  159.9420  211.0600  153.9850 C   0  0  0  0  0  1  0  0  0  0  0  0
  161.0650  210.2540  151.8870 C   0  0  0  0  0  2  0  0  0  0  0  0
  161.3180  207.9670  148.5680 C   0  0  0  0  0  3  0  0  0  0  0  0
  161.3800  203.1540  147.1320 C   0  0  0  0  0  3  0  0  0  0  0  0
  161.4750  205.1760  148.4650 C   0  0  0  0  0  0  0  0  0  0  0  0
  161.5530  202.9590  152.0040 C   0  0  0  0  0  2  0  0  0  0  0  0
  1 27  1  0  0  0  0
  2  1  1  6  0  0  0
  2 11  1  0  0  0  0
  2  7  1  0  0  0  0
  3 14  1  6  0  0  0
  4 13  2  0  0  0  0
  4 24  1  0  0  0  0
  5 21  1  0  0  0  0
  6 28  1  0  0  0  0
  6 22  1  1  0  0  0
  7  3  1  0  0  0  0
  7 28  1  1  0  0  0
  9 15  1  0  0  0  0
 10 13  1  0  0  0  0
 11  8  1  6  0  0  0
 11  6  1  0  0  0  0
 12 15  2  0  0  0  0
 12 23  1  0  0  0  0
 13 18  1  0  0  0  0
 14 18  1  0  0  0  0
 16 20  2  0  0  0  0
 16 27  1  0  0  0  0
 17 10  1  0  0  0  0
 17  3  1  0  0  0  0
 18  9  2  0  0  0  0
 19 21  2  0  0  0  0
 19 26  1  0  0  0  0
 20 25  1  0  0  0  0
 21 16  1  0  0  0  0
 24 12  1  0  0  0  0
 25 10  2  0  0  0  0
 26  1  2  0  0  0  0
 27 17  2  0  0  0  0
M  END
>  <MODEL>
2

>  <REMARK>
 VINA RESULT:      -6.1      1.552      4.321
  Name = 
  0 active torsions:
  status: ('A' for Active; 'I' for Inactive)
                            x       y       z     vdW  Elec       q    Type
                         _______ _______ _______ _____ _____    ______ ____

>  <TORSDO>
F 0

$$$$
=
 OpenBabel11052422523D

 28 33  0  0  1  0  0  0  0  0999 V2000
  160.5370  210.1330  154.9280 C   0  0  0  0  0  0  0  0  0  0  0  0
  160.5700  211.4130  154.1550 C   0  0  1  0  0  3  0  0  0  0  0  0
  161.4540  209.9660  152.2500 C   0  0  1  0  0  3  0  0  0  0  0  0
  161.6930  206.0640  150.4020 C   0  0  0  0  0  3  0  0  0  0  0  0
  160.0820  206.5800  157.2610 C   0  0  0  0  0  1  0  0  0  0  0  0
  159.3520  212.4630  152.3250 C   0  0  2  0  0  3  0  0  0  0  0  0
  161.4380  211.3340  152.9050 C   0  0  1  0  0  3  0  0  0  0  0  0
  158.5790  212.8160  154.6580 C   0  0  0  0  0  1  0  0  0  0  0  0
  161.5680  208.7680  148.8520 C   0  0  0  0  0  3  0  0  0  0  0  0
  161.2710  207.5480  152.3050 C   0  0  0  0  0  0  0  0  0  0  0  0
  159.1810  211.8180  153.6880 C   0  0  2  0  0  3  0  0  0  0  0  0
  161.1760  206.4350  147.9620 C   0  0  0  0  0  0  0  0  0  0  0  0
  161.5210  207.4190  150.9710 C   0  0  1  0  0  3  0  0  0  0  0  0
  162.1020  209.8890  150.8960 C   0  0  0  0  0  2  0  0  0  0  0  0
  161.2050  207.7600  147.8510 C   0  0  0  0  0  3  0  0  0  0  0  0
  160.5930  207.7100  155.0510 C   0  0  0  0  0  0  0  0  0  0  0  0
  161.1560  208.8280  152.9340 C   0  0  0  0  0  0  0  0  0  0  0  0
  161.7140  208.6490  150.1700 C   0  0  0  0  0  0  0  0  0  0  0  0
  160.0660  209.0160  156.9870 N   0  0  0  0  0  0  0  0  0  0  0  0
  160.7630  206.4700  154.4360 C   0  0  0  0  0  3  0  0  0  0  0  0
  160.2520  207.7990  156.4150 C   0  0  0  0  0  0  0  0  0  0  0  0
  158.5260  211.7080  151.3020 C   0  0  0  0  0  1  0  0  0  0  0  0
  160.8050  205.6630  146.7480 C   0  0  0  0  0  1  0  0  0  0  0  0
  161.5570  205.6580  149.1440 C   0  0  0  0  0  3  0  0  0  0  0  0
  161.0830  206.3940  153.0870 C   0  0  0  0  0  3  0  0  0  0  0  0
  160.1910  210.1680  156.2800 C   0  0  0  0  0  3  0  0  0  0  0  0
  160.7590  208.8960  154.2960 C   0  0  0  0  0  0  0  0  0  0  0  0
  160.8250  212.3630  151.9680 C   0  0  0  0  0  2  0  0  0  0  0  0
  1 26  1  0  0  0  0
  2  1  1  6  0  0  0
  3 14  1  1  0  0  0
  3  7  1  0  0  0  0
  3 17  1  0  0  0  0
  6 22  1  6  0  0  0
  6 11  1  0  0  0  0
  7 28  1  6  0  0  0
  7  2  1  0  0  0  0
  9 18  2  0  0  0  0
 10 17  2  0  0  0  0
 10 25  1  0  0  0  0
 11  2  1  0  0  0  0
 11  8  1  1  0  0  0
 12 24  1  0  0  0  0
 13  4  1  1  0  0  0
 13 10  1  0  0  0  0
 15 12  2  0  0  0  0
 15  9  1  0  0  0  0
 16 21  2  0  0  0  0
 17 27  1  0  0  0  0
 18 14  1  0  0  0  0
 18 13  1  0  0  0  0
 20 16  1  0  0  0  0
 21 19  1  0  0  0  0
 21  5  1  0  0  0  0
 23 12  1  0  0  0  0
 24  4  2  0  0  0  0
 25 20  2  0  0  0  0
 26 19  2  0  0  0  0
 27  1  2  0  0  0  0
 27 16  1  0  0  0  0
 28  6  1  0  0  0  0
M  END
>  <MODEL>
3

>  <REMARK>
 VINA RESULT:      -5.9      3.041      7.209
  Name = 
  0 active torsions:
  status: ('A' for Active; 'I' for Inactive)
                            x       y       z     vdW  Elec       q    Type
                         _______ _______ _______ _____ _____    ______ ____

>  <TORSDO>
F 0

$$$$
=
 OpenBabel11052422523D

 28 33  0  0  1  0  0  0  0  0999 V2000
  161.3100  206.4620  153.0760 C   0  0  0  0  0  0  0  0  0  0  0  0
  161.3760  207.4740  154.1770 C   0  0  1  0  0  3  0  0  0  0  0  0
  161.9280  209.1230  152.3110 C   0  0  1  0  0  3  0  0  0  0  0  0
  161.6300  210.1760  148.1270 C   0  0  0  0  0  3  0  0  0  0  0  0
  160.7860  203.4440  150.0960 C   0  0  0  0  0  1  0  0  0  0  0  0
  160.0730  209.3660  154.9870 C   0  0  2  0  0  3  0  0  0  0  0  0
  162.1000  208.7510  153.7720 C   0  0  1  0  0  3  0  0  0  0  0  0
  159.5790  207.0930  155.8540 C   0  0  0  0  0  1  0  0  0  0  0  0
  161.5850  212.2130  150.4880 C   0  0  0  0  0  3  0  0  0  0  0  0
  161.5390  208.5750  149.9800 C   0  0  0  0  0  0  0  0  0  0  0  0
  159.9880  207.8930  154.6320 C   0  0  2  0  0  3  0  0  0  0  0  0
  160.9000  212.5890  148.0850 C   0  0  0  0  0  0  0  0  0  0  0  0
  161.6380  209.8730  149.5760 C   0  0  1  0  0  3  0  0  0  0  0  0
  162.4230  210.4840  151.9120 C   0  0  0  0  0  2  0  0  0  0  0  0
  161.0340  212.9610  149.3540 C   0  0  0  0  0  3  0  0  0  0  0  0
  161.1640  205.8680  150.7290 C   0  0  0  0  0  0  0  0  0  0  0  0
  161.6030  208.2050  151.3610 C   0  0  0  0  0  0  0  0  0  0  0  0
  161.8550  210.9150  150.6060 C   0  0  0  0  0  0  0  0  0  0  0  0
  160.9570  204.1920  152.4250 N   0  0  0  0  0  0  0  0  0  0  0  0
  161.1600  206.2380  149.3840 C   0  0  0  0  0  3  0  0  0  0  0  0
  160.9750  204.5250  151.1090 C   0  0  0  0  0  0  0  0  0  0  0  0
  159.0840  210.1470  154.1450 C   0  0  0  0  0  1  0  0  0  0  0  0
  160.3380  213.5910  147.1420 C   0  0  0  0  0  1  0  0  0  0  0  0
  161.3300  211.3120  147.5090 C   0  0  0  0  0  3  0  0  0  0  0  0
  161.3310  207.5670  149.0210 C   0  0  0  0  0  3  0  0  0  0  0  0
  161.1100  205.1200  153.4020 C   0  0  0  0  0  3  0  0  0  0  0  0
  161.3550  206.8540  151.7260 C   0  0  0  0  0  0  0  0  0  0  0  0
  161.4870  209.8180  154.6650 C   0  0  0  0  0  2  0  0  0  0  0  0
  1 26  1  0  0  0  0
  2  1  1  6  0  0  0
  2 11  1  0  0  0  0
  3 14  1  6  0  0  0
  3  7  1  0  0  0  0
  5 21  1  0  0  0  0
  6 22  1  6  0  0  0
  7  2  1  0  0  0  0
  7 28  1  1  0  0  0
  9 18  2  0  0  0  0
 10 17  2  0  0  0  0
 11  6  1  0  0  0  0
 11  8  1  1  0  0  0
 12 15  2  0  0  0  0
 13  4  1  6  0  0  0
 13 10  1  0  0  0  0
 13 18  1  0  0  0  0
 15  9  1  0  0  0  0
 16 21  2  0  0  0  0
 16 27  1  0  0  0  0
 17 27  1  0  0  0  0
 17  3  1  0  0  0  0
 18 14  1  0  0  0  0
 19 26  2  0  0  0  0
 20 16  1  0  0  0  0
 21 19  1  0  0  0  0
 23 12  1  0  0  0  0
 24 12  1  0  0  0  0
 24  4  2  0  0  0  0
 25 20  2  0  0  0  0
 25 10  1  0  0  0  0
 27  1  2  0  0  0  0
 28  6  1  0  0  0  0
M  END
>  <MODEL>
4

>  <REMARK>
 VINA RESULT:      -5.4      2.638      6.082
  Name = 
  0 active torsions:
  status: ('A' for Active; 'I' for Inactive)
                            x       y       z     vdW  Elec       q    Type
                         _______ _______ _______ _____ _____    ______ ____

>  <TORSDO>
F 0

$$$$
=
 OpenBabel11052422523D

 28 33  0  0  1  0  0  0  0  0999 V2000
  158.8200  211.4090  137.9410 C   0  0  0  0  0  0  0  0  0  0  0  0
  160.1470  210.7980  137.6200 C   0  0  1  0  0  3  0  0  0  0  0  0
  161.0180  212.2630  139.5180 C   0  0  1  0  0  3  0  0  0  0  0  0
  160.2030  214.3830  143.1970 C   0  0  0  0  0  3  0  0  0  0  0  0
  154.8770  212.7950  138.8350 C   0  0  0  0  0  1  0  0  0  0  0  0
  161.6990  209.2010  138.6100 C   0  0  2  0  0  3  0  0  0  0  0  0
  161.3210  211.5780  138.1980 C   0  0  1  0  0  3  0  0  0  0  0  0
  159.9150  208.3780  137.0920 C   0  0  0  0  0  1  0  0  0  0  0  0
  162.8770  212.9210  142.5350 C   0  0  0  0  0  3  0  0  0  0  0  0
  159.5110  213.3010  141.1110 C   0  0  0  0  0  0  0  0  0  0  0  0
  160.2570  209.3850  138.1730 C   0  0  2  0  0  3  0  0  0  0  0  0
  162.0500  213.7260  144.7830 C   0  0  0  0  0  0  0  0  0  0  0  0
  160.5090  213.5690  142.0000 C   0  0  0  0  0  0  0  0  0  0  0  0
  162.1950  212.8500  140.2430 C   0  0  0  0  0  2  0  0  0  0  0  0
  162.9100  213.0950  143.9900 C   0  0  0  0  0  3  0  0  0  0  0  0
  157.3420  212.6580  139.4050 C   0  0  0  0  0  0  0  0  0  0  0  0
  159.7500  212.5740  139.9010 C   0  0  0  0  0  0  0  0  0  0  0  0
  161.8810  213.1200  141.6730 C   0  0  0  0  0  0  0  0  0  0  0  0
  156.4890  211.5730  137.4490 N   0  0  0  0  0  0  0  0  0  0  0  0
  157.1360  213.4130  140.5590 C   0  0  0  0  0  3  0  0  0  0  0  0
  156.2680  212.3310  138.5540 C   0  0  0  0  0  0  0  0  0  0  0  0
  161.7390  208.8470  140.0840 C   0  0  0  0  0  1  0  0  0  0  0  0
  162.3750  213.7730  146.2320 C   0  0  0  0  0  1  0  0  0  0  0  0
  160.8520  214.4530  144.3540 C   0  0  0  0  0  2  0  0  0  0  0  0
  158.1990  213.7150  141.3990 C   0  0  0  0  0  3  0  0  0  0  0  0
  157.7230  211.1050  137.1340 C   0  0  0  0  0  3  0  0  0  0  0  0
  158.6450  212.2080  139.0850 C   0  0  0  0  0  0  0  0  0  0  0  0
  162.4040  210.5270  138.3830 C   0  0  0  0  0  2  0  0  0  0  0  0
  1 27  1  0  0  0  0
  2  1  1  1  0  0  0
  2 11  1  0  0  0  0
  2  7  1  0  0  0  0
  3 17  1  0  0  0  0
  3 14  1  6  0  0  0
  4 24  1  0  0  0  0
  6 22  1  1  0  0  0
  7 28  1  1  0  0  0
  7  3  1  0  0  0  0
  9 15  1  0  0  0  0
 10 25  1  0  0  0  0
 10 13  1  0  0  0  0
 11  8  1  6  0  0  0
 11  6  1  0  0  0  0
 12 23  1  0  0  0  0
 13  4  2  0  0  0  0
 14 18  1  0  0  0  0
 15 12  2  0  0  0  0
 16 20  1  0  0  0  0
 17 10  2  0  0  0  0
 18 13  1  0  0  0  0
 18  9  2  0  0  0  0
 19 21  2  0  0  0  0
 20 25  2  0  0  0  0
 21  5  1  0  0  0  0
 21 16  1  0  0  0  0
 24 12  1  0  0  0  0
 26 19  1  0  0  0  0
 26  1  2  0  0  0  0
 27 16  2  0  0  0  0
 27 17  1  0  0  0  0
 28  6  1  0  0  0  0
M  END
>  <MODEL>
5

>  <REMARK>
 VINA RESULT:      -4.9     10.009     12.822
  Name = 
  0 active torsions:
  status: ('A' for Active; 'I' for Inactive)
                            x       y       z     vdW  Elec       q    Type
                         _______ _______ _______ _____ _____    ______ ____

>  <TORSDO>
F 0

$$$$
=
 OpenBabel11052422523D

 28 33  0  0  1  0  0  0  0  0999 V2000
  161.6960  209.6390  152.8040 C   0  0  0  0  0  0  0  0  0  0  0  0
  161.7910  208.7740  154.0200 C   0  0  1  0  0  3  0  0  0  0  0  0
  160.4170  210.6060  155.1440 C   0  0  1  0  0  3  0  0  0  0  0  0
  157.5760  213.8410  154.7420 C   0  0  0  0  0  3  0  0  0  0  0  0
  161.3350  211.7850  149.1250 C   0  0  0  0  0  1  0  0  0  0  0  0
  160.3350  207.3490  155.3560 C   0  0  2  0  0  3  0  0  0  0  0  0
  161.4590  209.5160  155.3090 C   0  0  1  0  0  3  0  0  0  0  0  0
  161.5590  206.3690  153.4300 C   0  0  0  0  0  1  0  0  0  0  0  0
  157.7140  211.8760  157.1610 C   0  0  0  0  0  3  0  0  0  0  0  0
  159.2430  212.2860  153.8460 C   0  0  0  0  0  0  0  0  0  0  0  0
  160.8320  207.5970  153.9430 C   0  0  2  0  0  3  0  0  0  0  0  0
  155.8340  213.4390  156.5200 C   0  0  0  0  0  0  0  0  0  0  0  0
  158.4620  212.6650  154.8960 C   0  0  0  0  0  0  0  0  0  0  0  0
  159.8860  211.2100  156.4130 C   0  0  0  0  0  2  0  0  0  0  0  0
  156.3810  212.4790  157.2590 C   0  0  0  0  0  3  0  0  0  0  0  0
  160.7080  211.4740  151.5600 C   0  0  0  0  0  0  0  0  0  0  0  0
  160.1690  211.1990  153.9440 C   0  0  0  0  0  0  0  0  0  0  0  0
  158.6120  211.9450  156.1800 C   0  0  0  0  0  0  0  0  0  0  0  0
  162.2530  209.9800  150.5060 N   0  0  0  0  0  0  0  0  0  0  0  0
  159.8440  212.5670  151.4960 C   0  0  0  0  0  3  0  0  0  0  0  0
  161.4370  211.0620  150.4270 C   0  0  0  0  0  0  0  0  0  0  0  0
  158.8230  207.4590  155.3860 C   0  0  0  0  0  1  0  0  0  0  0  0
  154.4630  213.8780  156.8890 C   0  0  0  0  0  1  0  0  0  0  0  0
  156.4850  214.1650  155.4270 C   0  0  0  0  0  2  0  0  0  0  0  0
  159.1180  212.9530  152.6140 C   0  0  0  0  0  3  0  0  0  0  0  0
  162.3890  209.2660  151.6520 C   0  0  0  0  0  3  0  0  0  0  0  0
  160.8530  210.7650  152.7770 C   0  0  0  0  0  0  0  0  0  0  0  0
  160.9440  208.4260  156.2360 C   0  0  0  0  0  2  0  0  0  0  0  0
  2  1  1  6  0  0  0
  2  7  1  0  0  0  0
  3  7  1  0  0  0  0
  3 14  1  1  0  0  0
  4 13  2  0  0  0  0
  4 24  1  0  0  0  0
  5 21  1  0  0  0  0
  6 22  1  6  0  0  0
  6 28  1  0  0  0  0
  7 28  1  1  0  0  0
  9 15  1  0  0  0  0
 10 17  1  0  0  0  0
 10 13  1  0  0  0  0
 11  8  1  1  0  0  0
 11  2  1  0  0  0  0
 11  6  1  0  0  0  0
 12 23  1  0  0  0  0
 12 15  2  0  0  0  0
 13 18  1  0  0  0  0
 16 27  1  0  0  0  0
 17  3  1  0  0  0  0
 18 14  1  0  0  0  0
 18  9  2  0  0  0  0
 19 26  1  0  0  0  0
 20 16  2  0  0  0  0
 20 25  1  0  0  0  0
 21 19  2  0  0  0  0
 21 16  1  0  0  0  0
 24 12  1  0  0  0  0
 25 10  2  0  0  0  0
 26  1  2  0  0  0  0
 27  1  1  0  0  0  0
 27 17  2  0  0  0  0
M  END
>  <MODEL>
6

>  <REMARK>
 VINA RESULT:      -4.8      4.413      8.035
  Name = 
  0 active torsions:
  status: ('A' for Active; 'I' for Inactive)
                            x       y       z     vdW  Elec       q    Type
                         _______ _______ _______ _____ _____    ______ ____

>  <TORSDO>
F 0

$$$$
=
 OpenBabel11052422523D

 28 33  0  0  1  0  0  0  0  0999 V2000
  159.0800  211.1120  155.2390 C   0  0  0  0  0  0  0  0  0  0  0  0
  158.2290  212.3300  155.4110 C   0  0  1  0  0  3  0  0  0  0  0  0
  159.3000  213.0990  153.2280 C   0  0  1  0  0  3  0  0  0  0  0  0
  161.2100  212.0390  149.4960 C   0  0  0  0  0  3  0  0  0  0  0  0
  161.1910  207.4170  154.8390 C   0  0  0  0  0  1  0  0  0  0  0  0
  156.2570  213.3290  154.3880 C   0  0  2  0  0  3  0  0  0  0  0  0
  158.6870  213.5040  154.5550 C   0  0  1  0  0  3  0  0  0  0  0  0
  155.9720  211.7340  156.2700 C   0  0  0  0  0  1  0  0  0  0  0  0
  159.2750  214.4530  149.8870 C   0  0  0  0  0  3  0  0  0  0  0  0
  160.4900  211.5530  151.7860 C   0  0  0  0  0  0  0  0  0  0  0  0
  156.7830  212.0580  155.0300 C   0  0  2  0  0  3  0  0  0  0  0  0
  160.0350  213.3930  147.7230 C   0  0  0  0  0  0  0  0  0  0  0  0
  160.4590  212.3990  150.7190 C   0  0  1  0  0  3  0  0  0  0  0  0
  159.5550  214.2120  152.2500 C   0  0  0  0  0  2  0  0  0  0  0  0
  159.3070  214.2470  148.4360 C   0  0  0  0  0  3  0  0  0  0  0  0
  160.4800  209.6580  153.8930 C   0  0  0  0  0  0  0  0  0  0  0  0
  159.8390  211.8670  153.0220 C   0  0  0  0  0  0  0  0  0  0  0  0
  159.7570  213.6950  150.8690 C   0  0  0  0  0  0  0  0  0  0  0  0
  159.7810  208.9900  156.0830 N   0  0  0  0  0  0  0  0  0  0  0  0
  161.1570  209.3900  152.7030 C   0  0  0  0  0  3  0  0  0  0  0  0
  160.4680  208.7190  154.9430 C   0  0  0  0  0  0  0  0  0  0  0  0
  155.7730  213.0230  152.9840 C   0  0  0  0  0  1  0  0  0  0  0  0
  159.8820  213.4450  146.2460 C   0  0  0  0  0  1  0  0  0  0  0  0
  161.0360  212.4620  148.2480 C   0  0  0  0  0  3  0  0  0  0  0  0
  161.1480  210.3150  151.6690 C   0  0  0  0  0  3  0  0  0  0  0  0
  159.0900  210.1460  156.2470 C   0  0  0  0  0  3  0  0  0  0  0  0
  159.7920  210.8850  154.0480 C   0  0  0  0  0  0  0  0  0  0  0  0
  157.4160  214.3080  154.3270 C   0  0  0  0  0  2  0  0  0  0  0  0
  1 26  1  0  0  0  0
  2  1  1  6  0  0  0
  3 14  1  1  0  0  0
  3  7  1  0  0  0  0
  5 21  1  0  0  0  0
  6 22  1  6  0  0  0
  6 11  1  0  0  0  0
  7 28  1  6  0  0  0
  7  2  1  0  0  0  0
  9 18  2  0  0  0  0
 10 17  2  0  0  0  0
 11  2  1  0  0  0  0
 11  8  1  1  0  0  0
 12 24  1  0  0  0  0
 12 15  2  0  0  0  0
 13  4  1  1  0  0  0
 13 18  1  0  0  0  0
 13 10  1  0  0  0  0
 15  9  1  0  0  0  0
 16 27  1  0  0  0  0
 16 21  2  0  0  0  0
 17  3  1  0  0  0  0
 17 27  1  0  0  0  0
 18 14  1  0  0  0  0
 19 26  2  0  0  0  0
 20 16  1  0  0  0  0
 21 19  1  0  0  0  0
 23 12  1  0  0  0  0
 24  4  2  0  0  0  0
 25 10  1  0  0  0  0
 25 20  2  0  0  0  0
 27  1  2  0  0  0  0
 28  6  1  0  0  0  0
M  END
>  <MODEL>
7

>  <REMARK>
 VINA RESULT:      -4.5      5.370      8.997
  Name = 
  0 active torsions:
  status: ('A' for Active; 'I' for Inactive)
                            x       y       z     vdW  Elec       q    Type
                         _______ _______ _______ _____ _____    ______ ____

>  <TORSDO>
F 0

$$$$
=
 OpenBabel11052422523D

 28 33  0  0  1  0  0  0  0  0999 V2000
  161.8090  211.3680  149.4180 C   0  0  0  0  0  0  0  0  0  0  0  0
  162.4580  210.2030  150.0960 C   0  0  1  0  0  3  0  0  0  0  0  0
  161.2090  211.0110  152.1670 C   0  0  1  0  0  3  0  0  0  0  0  0
  157.8380  213.1510  153.8280 C   0  0  0  0  0  3  0  0  0  0  0  0
  159.8670  214.4530  147.1870 C   0  0  0  0  0  1  0  0  0  0  0  0
  161.8150  208.0280  150.9850 C   0  0  2  0  0  3  0  0  0  0  0  0
  162.4330  210.3050  151.6150 C   0  0  1  0  0  3  0  0  0  0  0  0
  162.5020  208.2110  148.6070 C   0  0  0  0  0  1  0  0  0  0  0  0
  159.1270  210.6030  155.0810 C   0  0  0  0  0  3  0  0  0  0  0  0
  159.3810  212.5980  152.0070 C   0  0  0  0  0  0  0  0  0  0  0  0
  161.7660  208.8970  149.7420 C   0  0  2  0  0  3  0  0  0  0  0  0
  156.8830  211.6390  155.6050 C   0  0  0  0  0  0  0  0  0  0  0  0
  158.9300  212.3260  153.2640 C   0  0  0  0  0  0  0  0  0  0  0  0
  161.0190  210.9370  153.6560 C   0  0  0  0  0  2  0  0  0  0  0  0
  157.8120  210.6960  155.7220 C   0  0  0  0  0  3  0  0  0  0  0  0
  160.1430  213.1300  149.3300 C   0  0  0  0  0  0  0  0  0  0  0  0
  160.4750  211.8820  151.4240 C   0  0  0  0  0  0  0  0  0  0  0  0
  159.6250  211.2820  154.0500 C   0  0  0  0  0  0  0  0  0  0  0  0
  161.5100  212.6490  147.4250 N   0  0  0  0  0  0  0  0  0  0  0  0
  159.1160  213.8560  149.9320 C   0  0  0  0  0  3  0  0  0  0  0  0
  160.5240  213.3860  147.9980 C   0  0  0  0  0  0  0  0  0  0  0  0
  160.4040  207.6550  151.3960 C   0  0  0  0  0  1  0  0  0  0  0  0
  155.6510  211.4810  156.4220 C   0  0  0  0  0  1  0  0  0  0  0  0
  156.9910  212.8650  154.8100 C   0  0  0  0  0  2  0  0  0  0  0  0
  158.7370  213.5840  151.2390 C   0  0  0  0  0  3  0  0  0  0  0  0
  162.1450  211.6540  148.0940 C   0  0  0  0  0  3  0  0  0  0  0  0
  160.8080  212.1180  150.0620 C   0  0  0  0  0  0  0  0  0  0  0  0
  162.4640  208.8570  152.0800 C   0  0  0  0  0  2  0  0  0  0  0  0
  1 27  1  0  0  0  0
  2  1  1  6  0  0  0
  2  7  1  0  0  0  0
  3 14  1  1  0  0  0
  4 24  1  0  0  0  0
  5 21  1  0  0  0  0
  6 22  1  1  0  0  0
  6 28  1  0  0  0  0
  7 28  1  1  0  0  0
  7  3  1  0  0  0  0
  9 15  1  0  0  0  0
 10 13  1  0  0  0  0
 11  8  1  6  0  0  0
 11  2  1  0  0  0  0
 11  6  1  0  0  0  0
 12 15  2  0  0  0  0
 12 23  1  0  0  0  0
 13  4  2  0  0  0  0
 13 18  1  0  0  0  0
 14 18  1  0  0  0  0
 16 20  2  0  0  0  0
 16 27  1  0  0  0  0
 17 10  1  0  0  0  0
 17  3  1  0  0  0  0
 18  9  2  0  0  0  0
 19 21  2  0  0  0  0
 19 26  1  0  0  0  0
 20 25  1  0  0  0  0
 21 16  1  0  0  0  0
 24 12  1  0  0  0  0
 25 10  2  0  0  0  0
 26  1  2  0  0  0  0
 27 17  2  0  0  0  0
M  END
>  <MODEL>
8

>  <REMARK>
 VINA RESULT:      -4.5      4.632      7.557
  Name = 
  0 active torsions:
  status: ('A' for Active; 'I' for Inactive)
                            x       y       z     vdW  Elec       q    Type
                         _______ _______ _______ _____ _____    ______ ____

>  <TORSDO>
F 0

$$$$
=
 OpenBabel11052422523D

 28 33  0  0  1  0  0  0  0  0999 V2000
  160.6340  212.6110  150.9060 C   0  0  0  0  0  0  0  0  0  0  0  0
  161.1120  212.9860  149.5380 C   0  0  1  0  0  3  0  0  0  0  0  0
  161.9320  210.5740  149.4180 C   0  0  1  0  0  3  0  0  0  0  0  0
  161.5280  206.4820  150.7580 C   0  0  0  0  0  3  0  0  0  0  0  0
  158.9310  211.7200  154.7230 C   0  0  0  0  0  1  0  0  0  0  0  0
  160.5220  212.5320  147.2190 C   0  0  2  0  0  3  0  0  0  0  0  0
  162.1370  212.0100  148.9740 C   0  0  1  0  0  3  0  0  0  0  0  0
  159.4670  214.4530  148.3850 C   0  0  0  0  0  1  0  0  0  0  0  0
  162.3350  207.3440  147.8710 C   0  0  0  0  0  3  0  0  0  0  0  0
  161.1580  208.8930  150.9870 C   0  0  0  0  0  0  0  0  0  0  0  0
  159.9660  213.0290  148.5400 C   0  0  2  0  0  3  0  0  0  0  0  0
  161.5460  205.0770  148.6640 C   0  0  0  0  0  0  0  0  0  0  0  0
  161.5960  207.8580  150.2170 C   0  0  1  0  0  3  0  0  0  0  0  0
  162.7650  209.5390  148.7160 C   0  0  0  0  0  2  0  0  0  0  0  0
  161.9160  205.9460  147.7280 C   0  0  0  0  0  3  0  0  0  0  0  0
  160.0760  210.9610  152.5940 C   0  0  0  0  0  0  0  0  0  0  0  0
  161.2520  210.2530  150.5530 C   0  0  0  0  0  0  0  0  0  0  0  0
  162.2180  208.1690  148.9090 C   0  0  0  0  0  0  0  0  0  0  0  0
  159.5570  213.2730  152.9320 N   0  0  0  0  0  0  0  0  0  0  0  0
  160.0420  209.6360  153.0280 C   0  0  0  0  0  3  0  0  0  0  0  0
  159.5360  211.9930  153.3860 C   0  0  0  0  0  0  0  0  0  0  0  0
  159.7260  211.3260  146.7590 C   0  0  0  0  0  1  0  0  0  0  0  0
  161.2130  203.7000  148.2150 C   0  0  0  0  0  1  0  0  0  0  0  0
  161.5160  205.3230  150.1080 C   0  0  0  0  0  3  0  0  0  0  0  0
  160.5610  208.6240  152.2320 C   0  0  0  0  0  3  0  0  0  0  0  0
  160.0800  213.5970  151.7230 C   0  0  0  0  0  3  0  0  0  0  0  0
  160.6540  211.2730  151.3410 C   0  0  0  0  0  0  0  0  0  0  0  0
  161.9640  212.1280  147.4680 C   0  0  0  0  0  2  0  0  0  0  0  0
  1 27  2  0  0  0  0
  1 26  1  0  0  0  0
  2  1  1  1  0  0  0
  3 14  1  1  0  0  0
  3 17  1  0  0  0  0
  6 22  1  1  0  0  0
  6 28  1  0  0  0  0
  6 11  1  0  0  0  0
  7 28  1  6  0  0  0
  7  3  1  0  0  0  0
  7  2  1  0  0  0  0
  9 18  2  0  0  0  0
 10 25  1  0  0  0  0
 11  8  1  6  0  0  0
 11  2  1  0  0  0  0
 12 24  1  0  0  0  0
 13  4  1  1  0  0  0
 13 10  1  0  0  0  0
 14 18  1  0  0  0  0
 15  9  1  0  0  0  0
 15 12  2  0  0  0  0
 16 20  1  0  0  0  0
 16 21  2  0  0  0  0
 17 10  2  0  0  0  0
 17 27  1  0  0  0  0
 18 13  1  0  0  0  0
 19 21  1  0  0  0  0
 21  5  1  0  0  0  0
 23 12  1  0  0  0  0
 24  4  2  0  0  0  0
 25 20  2  0  0  0  0
 26 19  2  0  0  0  0
 27 16  1  0  0  0  0
M  END
>  <MODEL>
9

>  <REMARK>
 VINA RESULT:      -4.5      4.059      7.444
  Name = 
  0 active torsions:
  status: ('A' for Active; 'I' for Inactive)
                            x       y       z     vdW  Elec       q    Type
                         _______ _______ _______ _____ _____    ______ ____

>  <TORSDO>
F 0

$$$$
