=
 OpenBabel11062410003D

 43 50  0  0  1  0  0  0  0  0999 V2000
  161.3850  204.5430  146.8770 C   0  0  0  0  0  0  0  0  0  0  0  0
  161.4840  207.9440  150.6110 C   0  0  0  0  0  0  0  0  0  0  0  0
  162.0420  210.4440  149.4130 C   0  0  0  0  0  0  0  0  0  0  0  0
  161.3000  205.6260  149.0420 C   0  0  0  0  0  0  0  0  0  0  0  0
  161.6590  205.7720  146.2680 C   0  0  0  0  0  3  0  0  0  0  0  0
  161.2960  203.4210  146.1260 F   0  0  0  0  0  0  0  0  0  0  0  0
  161.5770  206.8720  148.4300 C   0  0  0  0  0  0  0  0  0  0  0  0
  161.2060  204.4700  148.2620 C   0  0  0  0  0  3  0  0  0  0  0  0
  161.7550  206.9330  147.0410 C   0  0  0  0  0  3  0  0  0  0  0  0
  161.9460  209.2740  148.6440 O   0  0  0  0  0  0  0  0  0  0  0  0
  161.6690  208.0270  149.2200 C   0  0  0  0  0  0  0  0  0  0  0  0
  161.2120  206.7040  151.2070 C   0  0  0  0  0  3  0  0  0  0  0  0
  161.5820  209.1490  151.3910 N   0  0  0  0  0  0  0  0  0  0  0  0
  161.8680  210.3930  150.7390 C   0  0  0  0  0  3  0  0  0  0  0  0
  161.1200  205.5510  150.4240 C   0  0  0  0  0  3  0  0  0  0  0  0
  162.3320  211.7240  148.7510 C   0  0  0  0  0  0  0  0  0  0  0  0
  161.2860  212.6730  148.5300 N   0  0  0  0  0  2  0  0  0  0  0  0
  163.5070  211.9760  148.3730 O   0  0  0  0  0  0  0  0  0  0  0  0
  161.9980  213.7610  146.4680 C   0  0  1  0  0  3  0  0  0  0  0  0
  160.8740  213.2850  145.5750 C   0  0  2  0  0  0  0  0  0  0  0  0
  160.5530  214.1740  146.7570 C   0  0  1  0  0  3  0  0  0  0  0  0
  160.4570  211.8280  145.7300 C   0  0  0  0  0  1  0  0  0  0  0  0
  161.5300  213.9630  147.9000 C   0  0  1  0  0  3  0  0  0  0  0  0
  160.7680  213.9750  144.2160 C   0  0  1  0  0  3  0  0  0  0  0  0
  162.0620  213.9000  143.4660 C   0  0  0  0  0  3  0  0  0  0  0  0
  162.6370  212.8320  143.3230 O   0  0  0  0  0  0  0  0  0  0  0  0
  159.7530  213.3810  143.4560 O   0  0  0  0  0  0  0  0  0  0  0  0
  159.6640  212.9440  141.2090 C   0  0  0  0  0  0  0  0  0  0  0  0
  157.3830  213.9970  140.9930 C   0  0  0  0  0  3  0  0  0  0  0  0
  158.2740  211.9790  139.6780 C   0  0  0  0  0  3  0  0  0  0  0  0
  157.2330  212.9560  140.0100 C   0  0  0  0  0  3  0  0  0  0  0  0
  159.5750  211.9390  140.2930 C   0  0  0  0  0  3  0  0  0  0  0  0
  158.6280  213.9170  141.5400 C   0  0  0  0  0  0  0  0  0  0  0  0
  159.8780  213.9370  142.1800 C   0  0  1  0  0  3  0  0  0  0  0  0
  161.3170  209.1540  152.8250 C   0  0  0  0  0  2  0  0  0  0  0  0
  160.0780  212.2020  154.7080 C   0  0  0  0  0  3  0  0  0  0  0  0
  158.9560  212.5560  153.9510 C   0  0  0  0  0  0  0  0  0  0  0  0
  159.3870  210.7000  152.4490 C   0  0  0  0  0  3  0  0  0  0  0  0
  160.8570  211.1040  154.3330 C   0  0  0  0  0  3  0  0  0  0  0  0
  160.5160  210.3560  153.1990 C   0  0  0  0  0  0  0  0  0  0  0  0
  158.6090  211.8000  152.8230 C   0  0  0  0  0  3  0  0  0  0  0  0
  156.9720  213.9050  153.3810 C   0  0  0  0  0  1  0  0  0  0  0  0
  158.1150  213.7150  154.3630 C   0  0  0  0  0  2  0  0  0  0  0  0
  1  8  1  0  0  0  0
  2 12  1  0  0  0  0
  2 13  1  0  0  0  0
  3 14  2  0  0  0  0
  4 15  1  0  0  0  0
  5  1  2  0  0  0  0
  5  9  1  0  0  0  0
  6  1  1  0  0  0  0
  7  4  1  0  0  0  0
  7 11  1  0  0  0  0
  8  4  2  0  0  0  0
  9  7  2  0  0  0  0
 10 11  1  0  0  0  0
 10  3  1  0  0  0  0
 11  2  2  0  0  0  0
 13 35  1  0  0  0  0
 14 13  1  0  0  0  0
 15 12  2  0  0  0  0
 16  3  1  0  0  0  0
 17 16  1  0  0  0  0
 18 16  2  0  0  0  0
 19 21  1  0  0  0  0
 19 23  1  0  0  0  0
 20 22  1  0  0  0  0
 20 19  1  0  0  0  0
 20 21  1  0  0  0  0
 21 23  1  0  0  0  0
 23 17  1  0  0  0  0
 24 20  1  0  0  0  0
 25 24  1  0  0  0  0
 26 25  2  0  0  0  0
 27 24  1  0  0  0  0
 28 33  1  0  0  0  0
 28 34  1  0  0  0  0
 29 33  2  0  0  0  0
 30 31  2  0  0  0  0
 30 32  1  0  0  0  0
 31 29  1  0  0  0  0
 32 28  2  0  0  0  0
 33 34  1  0  0  0  0
 34 27  1  0  0  0  0
 35 40  1  0  0  0  0
 37 43  1  0  0  0  0
 37 36  2  0  0  0  0
 38 41  2  0  0  0  0
 38 40  1  0  0  0  0
 39 36  1  0  0  0  0
 40 39  2  0  0  0  0
 41 37  1  0  0  0  0
 42 43  1  0  0  0  0
M  END
>  <MODEL>
1

>  <REMARK>
 VINA RESULT:      -8.2      0.000      0.000
  Name = 
  9 active torsions:
  status: ('A' for Active; 'I' for Inactive)
    1  A    between atoms: C_1  and  N_34
    2  A    between atoms: C_1  and  C_35
    3  A    between atoms: C_2  and  C_13
    4  A    between atoms: C_4  and  C_22
    5  A    between atoms: N_6  and  C_17
    6  A    between atoms: C_10  and  C_22
    7  A    between atoms: O_14  and  C_22
    8  A    between atoms: O_14  and  C_41
    9  A    between atoms: C_19  and  C_37
                            x       y       z     vdW  Elec       q    Type
                         _______ _______ _______ _____ _____    ______ ____

>  <TORSDO>
F 9

$$$$
=
 OpenBabel11062410003D

 43 50  0  0  1  0  0  0  0  0999 V2000
  161.5270  212.9850  147.0900 C   0  0  0  0  0  0  0  0  0  0  0  0
  159.9910  212.7730  151.8970 C   0  0  0  0  0  0  0  0  0  0  0  0
  160.6500  210.1910  152.8430 C   0  0  0  0  0  0  0  0  0  0  0  0
  160.5920  213.5160  149.2600 C   0  0  0  0  0  0  0  0  0  0  0  0
  161.8620  211.7050  147.5420 C   0  0  0  0  0  3  0  0  0  0  0  0
  161.8140  213.3500  145.8180 F   0  0  0  0  0  0  0  0  0  0  0  0
  160.9300  212.2220  149.7220 C   0  0  0  0  0  0  0  0  0  0  0  0
  160.8930  213.8890  147.9470 C   0  0  0  0  0  3  0  0  0  0  0  0
  161.5650  211.3240  148.8540 C   0  0  0  0  0  3  0  0  0  0  0  0
  160.9430  210.5810  151.5270 O   0  0  0  0  0  0  0  0  0  0  0  0
  160.6250  211.8560  151.0420 C   0  0  0  0  0  0  0  0  0  0  0  0
  159.6590  214.0520  151.4280 C   0  0  0  0  0  3  0  0  0  0  0  0
  159.6960  212.3660  153.2450 N   0  0  0  0  0  0  0  0  0  0  0  0
  160.0470  211.0460  153.6790 C   0  0  0  0  0  3  0  0  0  0  0  0
  159.9600  214.4210  150.1140 C   0  0  0  0  0  3  0  0  0  0  0  0
  161.0100  208.8400  153.2960 C   0  0  0  0  0  0  0  0  0  0  0  0
  161.5840  207.9030  152.3810 N   0  0  0  0  0  2  0  0  0  0  0  0
  160.8040  208.5100  154.4940 O   0  0  0  0  0  0  0  0  0  0  0  0
  161.0580  205.5350  152.1520 C   0  0  1  0  0  3  0  0  0  0  0  0
  161.3120  205.4020  150.6660 C   0  0  2  0  0  0  0  0  0  0  0  0
  162.4580  205.7750  151.5820 C   0  0  1  0  0  3  0  0  0  0  0  0
  160.7930  206.5320  149.7870 C   0  0  0  0  0  1  0  0  0  0  0  0
  161.9790  206.5630  152.7880 C   0  0  1  0  0  3  0  0  0  0  0  0
  161.3700  203.9720  150.1290 C   0  0  1  0  0  3  0  0  0  0  0  0
  160.6940  203.0130  151.0590 C   0  0  0  0  0  3  0  0  0  0  0  0
  160.5790  201.8340  150.7610 O   0  0  0  0  0  0  0  0  0  0  0  0
  160.7600  203.9100  148.8700 O   0  0  0  0  0  0  0  0  0  0  0  0
  161.2840  203.4730  146.6830 C   0  0  0  0  0  0  0  0  0  0  0  0
  162.7510  205.5190  146.5220 C   0  0  0  0  0  3  0  0  0  0  0  0
  161.2980  204.5190  144.6550 C   0  0  0  0  0  3  0  0  0  0  0  0
  162.2400  205.5140  145.1760 C   0  0  0  0  0  3  0  0  0  0  0  0
  160.7670  203.4240  145.4240 C   0  0  0  0  0  3  0  0  0  0  0  0
  162.2230  204.4630  147.2030 C   0  0  0  0  0  0  0  0  0  0  0  0
  161.7450  203.4180  148.0100 C   0  0  1  0  0  3  0  0  0  0  0  0
  159.1170  213.2910  154.2130 C   0  0  0  0  0  2  0  0  0  0  0  0
  156.1380  211.1290  155.1160 C   0  0  0  0  0  3  0  0  0  0  0  0
  156.0020  211.4020  156.4810 C   0  0  0  0  0  0  0  0  0  0  0  0
  157.9120  212.8940  156.3690 C   0  0  0  0  0  3  0  0  0  0  0  0
  157.1610  211.7300  154.3800 C   0  0  0  0  0  3  0  0  0  0  0  0
  158.0540  212.6090  155.0070 C   0  0  0  0  0  0  0  0  0  0  0  0
  156.8890  212.2900  157.1060 C   0  0  0  0  0  3  0  0  0  0  0  0
  153.9130  210.1000  156.3210 C   0  0  0  0  0  1  0  0  0  0  0  0
  154.8980  210.7750  157.2600 C   0  0  0  0  0  2  0  0  0  0  0  0
  1  5  2  0  0  0  0
  1  8  1  0  0  0  0
  2 13  1  0  0  0  0
  3 16  1  0  0  0  0
  3 14  2  0  0  0  0
  4  7  1  0  0  0  0
  4 15  1  0  0  0  0
  5  9  1  0  0  0  0
  6  1  1  0  0  0  0
  7 11  1  0  0  0  0
  8  4  2  0  0  0  0
  9  7  2  0  0  0  0
 10  3  1  0  0  0  0
 11 10  1  0  0  0  0
 11  2  2  0  0  0  0
 12  2  1  0  0  0  0
 13 14  1  0  0  0  0
 13 35  1  0  0  0  0
 15 12  2  0  0  0  0
 16 18  2  0  0  0  0
 17 23  1  0  0  0  0
 17 16  1  0  0  0  0
 19 23  1  0  0  0  0
 20 21  1  0  0  0  0
 20 19  1  0  0  0  0
 21 19  1  0  0  0  0
 21 23  1  0  0  0  0
 22 20  1  0  0  0  0
 24 20  1  0  0  0  0
 24 25  1  0  0  0  0
 26 25  2  0  0  0  0
 27 24  1  0  0  0  0
 28 33  1  0  0  0  0
 28 34  1  0  0  0  0
 29 33  2  0  0  0  0
 30 31  2  0  0  0  0
 30 32  1  0  0  0  0
 31 29  1  0  0  0  0
 32 28  2  0  0  0  0
 33 34  1  0  0  0  0
 34 27  1  0  0  0  0
 35 40  1  0  0  0  0
 36 37  1  0  0  0  0
 37 41  2  0  0  0  0
 37 43  1  0  0  0  0
 38 41  1  0  0  0  0
 39 40  1  0  0  0  0
 39 36  2  0  0  0  0
 40 38  2  0  0  0  0
 42 43  1  0  0  0  0
M  END
>  <MODEL>
2

>  <REMARK>
 VINA RESULT:      -7.8      4.119      8.100
  Name = 
  9 active torsions:
  status: ('A' for Active; 'I' for Inactive)
    1  A    between atoms: C_1  and  N_34
    2  A    between atoms: C_1  and  C_35
    3  A    between atoms: C_2  and  C_13
    4  A    between atoms: C_4  and  C_22
    5  A    between atoms: N_6  and  C_17
    6  A    between atoms: C_10  and  C_22
    7  A    between atoms: O_14  and  C_22
    8  A    between atoms: O_14  and  C_41
    9  A    between atoms: C_19  and  C_37
                            x       y       z     vdW  Elec       q    Type
                         _______ _______ _______ _____ _____    ______ ____

>  <TORSDO>
F 9

$$$$
=
 OpenBabel11062410003D

 43 50  0  0  1  0  0  0  0  0999 V2000
  155.4820  213.4740  154.6370 C   0  0  0  0  0  0  0  0  0  0  0  0
  159.5920  212.7050  151.8030 C   0  0  0  0  0  0  0  0  0  0  0  0
  160.6400  210.1910  152.5640 C   0  0  0  0  0  0  0  0  0  0  0  0
  157.2810  213.7110  153.0330 C   0  0  0  0  0  0  0  0  0  0  0  0
  155.9850  212.2270  155.0240 C   0  0  0  0  0  3  0  0  0  0  0  0
  154.3670  213.9660  155.2270 F   0  0  0  0  0  0  0  0  0  0  0  0
  157.7940  212.4510  153.4210 C   0  0  0  0  0  0  0  0  0  0  0  0
  156.1290  214.2150  153.6440 C   0  0  0  0  0  3  0  0  0  0  0  0
  157.1370  211.7170  154.4180 C   0  0  0  0  0  3  0  0  0  0  0  0
  159.4850  210.7110  153.1690 O   0  0  0  0  0  0  0  0  0  0  0  0
  158.9510  211.9540  152.8030 C   0  0  0  0  0  0  0  0  0  0  0  0
  159.0760  213.9530  151.4280 C   0  0  0  0  0  3  0  0  0  0  0  0
  160.7740  212.1620  151.1880 N   0  0  0  0  0  0  0  0  0  0  0  0
  161.2690  210.8850  151.6080 C   0  0  0  0  0  3  0  0  0  0  0  0
  157.9250  214.4530  152.0410 C   0  0  0  0  0  3  0  0  0  0  0  0
  161.1520  208.8800  152.9880 C   0  0  0  0  0  0  0  0  0  0  0  0
  161.5020  207.8940  152.0140 N   0  0  0  0  0  2  0  0  0  0  0  0
  161.2730  208.6270  154.2170 O   0  0  0  0  0  0  0  0  0  0  0  0
  161.1160  205.4920  151.8780 C   0  0  1  0  0  3  0  0  0  0  0  0
  161.1940  205.3470  150.3740 C   0  0  2  0  0  0  0  0  0  0  0  0
  162.4150  205.8130  151.1370 C   0  0  1  0  0  3  0  0  0  0  0  0
  160.4950  206.4220  149.5530 C   0  0  0  0  0  1  0  0  0  0  0  0
  162.0350  206.5920  152.3840 C   0  0  1  0  0  3  0  0  0  0  0  0
  161.2840  203.9140  149.8500 C   0  0  1  0  0  3  0  0  0  0  0  0
  160.6010  202.9530  150.7720 C   0  0  0  0  0  3  0  0  0  0  0  0
  160.9110  201.7720  150.7810 O   0  0  0  0  0  0  0  0  0  0  0  0
  160.7040  203.8340  148.5780 O   0  0  0  0  0  0  0  0  0  0  0  0
  161.2920  203.5300  146.3850 C   0  0  0  0  0  0  0  0  0  0  0  0
  162.2960  205.8390  146.2310 C   0  0  0  0  0  3  0  0  0  0  0  0
  161.0720  204.5680  144.3650 C   0  0  0  0  0  3  0  0  0  0  0  0
  161.7880  205.7350  144.8880 C   0  0  0  0  0  3  0  0  0  0  0  0
  160.7890  203.3810  145.1280 C   0  0  0  0  0  3  0  0  0  0  0  0
  162.0060  204.6920  146.9070 C   0  0  0  0  0  0  0  0  0  0  0  0
  161.7650  203.5650  147.7080 C   0  0  1  0  0  3  0  0  0  0  0  0
  161.4430  212.8450  150.0850 C   0  0  0  0  0  2  0  0  0  0  0  0
  160.3140  211.7940  146.6220 C   0  0  0  0  0  3  0  0  0  0  0  0
  159.1630  212.5720  146.4600 C   0  0  0  0  0  0  0  0  0  0  0  0
  159.4900  213.5140  148.6710 C   0  0  0  0  0  3  0  0  0  0  0  0
  161.0480  211.8700  147.8090 C   0  0  0  0  0  3  0  0  0  0  0  0
  160.6330  212.7260  148.8370 C   0  0  0  0  0  0  0  0  0  0  0  0
  158.7540  213.4350  147.4850 C   0  0  0  0  0  3  0  0  0  0  0  0
  158.3400  213.8750  144.5340 C   0  0  0  0  0  1  0  0  0  0  0  0
  158.3920  212.5040  145.1870 C   0  0  0  0  0  2  0  0  0  0  0  0
  1  5  1  0  0  0  0
  1  6  1  0  0  0  0
  2 11  1  0  0  0  0
  3 16  1  0  0  0  0
  3 10  1  0  0  0  0
  4  7  1  0  0  0  0
  4  8  1  0  0  0  0
  7  9  1  0  0  0  0
  8  1  2  0  0  0  0
  9  5  2  0  0  0  0
 11 10  1  0  0  0  0
 11  7  2  0  0  0  0
 12  2  2  0  0  0  0
 12 15  1  0  0  0  0
 13 14  1  0  0  0  0
 13  2  1  0  0  0  0
 14  3  2  0  0  0  0
 15  4  2  0  0  0  0
 16 18  2  0  0  0  0
 17 23  1  0  0  0  0
 17 16  1  0  0  0  0
 19 23  1  0  0  0  0
 20 21  1  0  0  0  0
 20 19  1  0  0  0  0
 21 19  1  0  0  0  0
 21 23  1  0  0  0  0
 22 20  1  0  0  0  0
 24 20  1  0  0  0  0
 24 25  1  0  0  0  0
 25 26  2  0  0  0  0
 27 24  1  0  0  0  0
 28 33  1  0  0  0  0
 28 34  1  0  0  0  0
 29 33  2  0  0  0  0
 30 31  2  0  0  0  0
 30 32  1  0  0  0  0
 31 29  1  0  0  0  0
 32 28  2  0  0  0  0
 33 34  1  0  0  0  0
 34 27  1  0  0  0  0
 35 13  1  0  0  0  0
 36 39  1  0  0  0  0
 37 36  2  0  0  0  0
 37 41  1  0  0  0  0
 38 40  1  0  0  0  0
 39 40  2  0  0  0  0
 40 35  1  0  0  0  0
 41 38  2  0  0  0  0
 42 43  1  0  0  0  0
 43 37  1  0  0  0  0
M  END
>  <MODEL>
3

>  <REMARK>
 VINA RESULT:      -7.5      4.133      9.120
  Name = 
  9 active torsions:
  status: ('A' for Active; 'I' for Inactive)
    1  A    between atoms: C_1  and  N_34
    2  A    between atoms: C_1  and  C_35
    3  A    between atoms: C_2  and  C_13
    4  A    between atoms: C_4  and  C_22
    5  A    between atoms: N_6  and  C_17
    6  A    between atoms: C_10  and  C_22
    7  A    between atoms: O_14  and  C_22
    8  A    between atoms: O_14  and  C_41
    9  A    between atoms: C_19  and  C_37
                            x       y       z     vdW  Elec       q    Type
                         _______ _______ _______ _____ _____    ______ ____

>  <TORSDO>
F 9

$$$$
=
 OpenBabel11062410003D

 43 50  0  0  1  0  0  0  0  0999 V2000
  161.3100  203.6750  146.2760 C   0  0  0  0  0  0  0  0  0  0  0  0
  161.2620  205.5010  150.9850 C   0  0  0  0  0  0  0  0  0  0  0  0
  161.9150  208.2470  150.7940 C   0  0  0  0  0  0  0  0  0  0  0  0
  161.1280  203.9100  148.6790 C   0  0  0  0  0  0  0  0  0  0  0  0
  161.6320  205.0320  146.1630 C   0  0  0  0  0  3  0  0  0  0  0  0
  161.2440  202.9010  145.1670 F   0  0  0  0  0  0  0  0  0  0  0  0
  161.4530  205.2830  148.5700 C   0  0  0  0  0  0  0  0  0  0  0  0
  161.0590  203.1150  147.5320 C   0  0  0  0  0  3  0  0  0  0  0  0
  161.7030  205.8330  147.3060 C   0  0  0  0  0  3  0  0  0  0  0  0
  161.8430  207.4340  149.6520 O   0  0  0  0  0  0  0  0  0  0  0  0
  161.5200  206.0730  149.7270 C   0  0  0  0  0  0  0  0  0  0  0  0
  160.9420  204.1400  151.0810 C   0  0  0  0  0  3  0  0  0  0  0  0
  161.3360  206.3420  152.1510 N   0  0  0  0  0  0  0  0  0  0  0  0
  161.6720  207.7270  152.0040 C   0  0  0  0  0  3  0  0  0  0  0  0
  160.8750  203.3490  149.9320 C   0  0  0  0  0  3  0  0  0  0  0  0
  162.2570  209.6690  150.6510 C   0  0  0  0  0  0  0  0  0  0  0  0
  162.3290  210.2650  149.3540 N   0  0  0  0  0  2  0  0  0  0  0  0
  162.4930  210.3580  151.6790 O   0  0  0  0  0  0  0  0  0  0  0  0
  162.5800  212.0240  147.6860 C   0  0  1  0  0  3  0  0  0  0  0  0
  161.1580  212.0380  147.1730 C   0  0  2  0  0  0  0  0  0  0  0  0
  161.4270  212.4040  148.6170 C   0  0  1  0  0  3  0  0  0  0  0  0
  160.5010  210.6800  146.9620 C   0  0  0  0  0  1  0  0  0  0  0  0
  162.6410  211.6740  149.1640 C   0  0  1  0  0  3  0  0  0  0  0  0
  160.7860  213.2200  146.2790 C   0  0  1  0  0  3  0  0  0  0  0  0
  161.5140  213.1630  144.9710 C   0  0  0  0  0  3  0  0  0  0  0  0
  162.1320  214.1330  144.5610 O   0  0  0  0  0  0  0  0  0  0  0  0
  159.4060  213.2260  146.0440 O   0  0  0  0  0  0  0  0  0  0  0  0
  157.5950  214.3570  146.8750 C   0  0  0  0  0  0  0  0  0  0  0  0
  158.4450  214.1810  149.2430 C   0  0  0  0  0  3  0  0  0  0  0  0
  155.9920  214.1320  148.4840 C   0  0  0  0  0  3  0  0  0  0  0  0
  157.0330  214.0900  149.5130 C   0  0  0  0  0  3  0  0  0  0  0  0
  156.2500  214.2710  147.0750 C   0  0  0  0  0  3  0  0  0  0  0  0
  158.6330  214.3150  147.9000 C   0  0  0  0  0  0  0  0  0  0  0  0
  158.9560  214.4530  146.5410 C   0  0  1  0  0  3  0  0  0  0  0  0
  160.9980  205.8390  153.4770 C   0  0  0  0  0  2  0  0  0  0  0  0
  160.4570  207.8100  156.6700 C   0  0  0  0  0  3  0  0  0  0  0  0
  160.2020  209.0890  156.1640 C   0  0  0  0  0  0  0  0  0  0  0  0
  160.4850  208.2500  153.9060 C   0  0  0  0  0  3  0  0  0  0  0  0
  160.7320  206.7550  155.7970 C   0  0  0  0  0  3  0  0  0  0  0  0
  160.7530  206.9750  154.4130 C   0  0  0  0  0  0  0  0  0  0  0  0
  160.2120  209.3070  154.7800 C   0  0  0  0  0  3  0  0  0  0  0  0
  159.7730  211.5120  156.3230 C   0  0  0  0  0  1  0  0  0  0  0  0
  159.8890  210.2090  157.0950 C   0  0  0  0  0  2  0  0  0  0  0  0
  1  8  1  0  0  0  0
  2 12  1  0  0  0  0
  2 13  1  0  0  0  0
  3 14  2  0  0  0  0
  4 15  1  0  0  0  0
  5  1  2  0  0  0  0
  5  9  1  0  0  0  0
  6  1  1  0  0  0  0
  7  4  1  0  0  0  0
  7 11  1  0  0  0  0
  8  4  2  0  0  0  0
  9  7  2  0  0  0  0
 10 11  1  0  0  0  0
 10  3  1  0  0  0  0
 11  2  2  0  0  0  0
 13 35  1  0  0  0  0
 14 13  1  0  0  0  0
 15 12  2  0  0  0  0
 16  3  1  0  0  0  0
 16 18  2  0  0  0  0
 17 16  1  0  0  0  0
 19 21  1  0  0  0  0
 19 23  1  0  0  0  0
 20 19  1  0  0  0  0
 20 21  1  0  0  0  0
 21 23  1  0  0  0  0
 22 20  1  0  0  0  0
 23 17  1  0  0  0  0
 24 20  1  0  0  0  0
 25 24  1  0  0  0  0
 26 25  2  0  0  0  0
 27 24  1  0  0  0  0
 27 34  1  0  0  0  0
 28 32  2  0  0  0  0
 28 33  1  0  0  0  0
 29 31  1  0  0  0  0
 30 31  2  0  0  0  0
 32 30  1  0  0  0  0
 33 29  2  0  0  0  0
 34 28  1  0  0  0  0
 34 33  1  0  0  0  0
 35 40  1  0  0  0  0
 37 36  1  0  0  0  0
 37 43  1  0  0  0  0
 38 40  2  0  0  0  0
 38 41  1  0  0  0  0
 39 36  2  0  0  0  0
 40 39  1  0  0  0  0
 41 37  2  0  0  0  0
 42 43  1  0  0  0  0
M  END
>  <MODEL>
4

>  <REMARK>
 VINA RESULT:      -7.3      2.778      4.042
  Name = 
  9 active torsions:
  status: ('A' for Active; 'I' for Inactive)
    1  A    between atoms: C_1  and  N_34
    2  A    between atoms: C_1  and  C_35
    3  A    between atoms: C_2  and  C_13
    4  A    between atoms: C_4  and  C_22
    5  A    between atoms: N_6  and  C_17
    6  A    between atoms: C_10  and  C_22
    7  A    between atoms: O_14  and  C_22
    8  A    between atoms: O_14  and  C_41
    9  A    between atoms: C_19  and  C_37
                            x       y       z     vdW  Elec       q    Type
                         _______ _______ _______ _____ _____    ______ ____

>  <TORSDO>
F 9

$$$$
=
 OpenBabel11062410003D

 43 50  0  0  1  0  0  0  0  0999 V2000
  161.3260  203.9200  146.0880 C   0  0  0  0  0  0  0  0  0  0  0  0
  161.4250  205.6870  150.8190 C   0  0  0  0  0  0  0  0  0  0  0  0
  161.9960  208.4510  150.6370 C   0  0  0  0  0  0  0  0  0  0  0  0
  161.2370  204.1210  148.4990 C   0  0  0  0  0  0  0  0  0  0  0  0
  161.6060  205.2860  145.9800 C   0  0  0  0  0  3  0  0  0  0  0  0
  161.2340  203.1580  144.9720 F   0  0  0  0  0  0  0  0  0  0  0  0
  161.5210  205.5030  148.3950 C   0  0  0  0  0  0  0  0  0  0  0  0
  161.1420  203.3380  147.3450 C   0  0  0  0  0  3  0  0  0  0  0  0
  161.7040  206.0750  147.1290 C   0  0  0  0  0  3  0  0  0  0  0  0
  161.8990  207.6510  149.4880 O   0  0  0  0  0  0  0  0  0  0  0  0
  161.6150  206.2810  149.5590 C   0  0  0  0  0  0  0  0  0  0  0  0
  161.1460  204.3170  150.9100 C   0  0  0  0  0  3  0  0  0  0  0  0
  161.5240  206.5160  151.9910 N   0  0  0  0  0  0  0  0  0  0  0  0
  161.8180  207.9110  151.8490 C   0  0  0  0  0  3  0  0  0  0  0  0
  161.0520  203.5380  149.7540 C   0  0  0  0  0  3  0  0  0  0  0  0
  162.2930  209.8840  150.4990 C   0  0  0  0  0  0  0  0  0  0  0  0
  162.0780  210.5470  149.2510 N   0  0  0  0  0  2  0  0  0  0  0  0
  162.7470  210.5230  151.4860 O   0  0  0  0  0  0  0  0  0  0  0  0
  162.3120  212.3180  147.5940 C   0  0  1  0  0  3  0  0  0  0  0  0
  160.9090  212.2730  147.0320 C   0  0  2  0  0  0  0  0  0  0  0  0
  161.1120  212.6470  148.4840 C   0  0  1  0  0  3  0  0  0  0  0  0
  160.3180  210.8890  146.7970 C   0  0  0  0  0  1  0  0  0  0  0  0
  162.3360  211.9680  149.0730 C   0  0  1  0  0  3  0  0  0  0  0  0
  160.5190  213.4400  146.1250 C   0  0  1  0  0  3  0  0  0  0  0  0
  159.7000  214.4520  146.8650 C   0  0  0  0  0  3  0  0  0  0  0  0
  158.4800  214.3990  146.8460 O   0  0  0  0  0  0  0  0  0  0  0  0
  161.6700  214.0530  145.6150 O   0  0  0  0  0  0  0  0  0  0  0  0
  161.8900  213.5070  143.4010 C   0  0  0  0  0  0  0  0  0  0  0  0
  159.5450  212.5840  143.2930 C   0  0  0  0  0  3  0  0  0  0  0  0
  161.5980  211.7200  142.0130 C   0  0  0  0  0  3  0  0  0  0  0  0
  160.1770  211.6770  142.3700 C   0  0  0  0  0  3  0  0  0  0  0  0
  162.5380  212.6740  142.5400 C   0  0  0  0  0  3  0  0  0  0  0  0
  160.4750  213.4650  143.7570 C   0  0  0  0  0  0  0  0  0  0  0  0
  161.3370  214.4260  144.3100 C   0  0  1  0  0  3  0  0  0  0  0  0
  161.2550  205.9880  153.3240 C   0  0  0  0  0  2  0  0  0  0  0  0
  159.5370  207.9020  156.1090 C   0  0  0  0  0  3  0  0  0  0  0  0
  160.0570  209.1870  155.9210 C   0  0  0  0  0  0  0  0  0  0  0  0
  161.3740  208.3790  154.0500 C   0  0  0  0  0  3  0  0  0  0  0  0
  159.9390  206.8560  155.2740 C   0  0  0  0  0  3  0  0  0  0  0  0
  160.8630  207.0920  154.2470 C   0  0  0  0  0  0  0  0  0  0  0  0
  160.9740  209.4250  154.8880 C   0  0  0  0  0  3  0  0  0  0  0  0
  159.2100  211.5030  155.9570 C   0  0  0  0  0  1  0  0  0  0  0  0
  159.6140  210.3060  156.8000 C   0  0  0  0  0  2  0  0  0  0  0  0
  1  8  1  0  0  0  0
  2 12  1  0  0  0  0
  2 13  1  0  0  0  0
  3 14  2  0  0  0  0
  4 15  1  0  0  0  0
  5  1  2  0  0  0  0
  5  9  1  0  0  0  0
  6  1  1  0  0  0  0
  7  4  1  0  0  0  0
  7 11  1  0  0  0  0
  8  4  2  0  0  0  0
  9  7  2  0  0  0  0
 10 11  1  0  0  0  0
 10  3  1  0  0  0  0
 11  2  2  0  0  0  0
 13 35  1  0  0  0  0
 14 13  1  0  0  0  0
 15 12  2  0  0  0  0
 16  3  1  0  0  0  0
 16 18  2  0  0  0  0
 17 16  1  0  0  0  0
 19 21  1  0  0  0  0
 19 23  1  0  0  0  0
 20 19  1  0  0  0  0
 20 21  1  0  0  0  0
 21 23  1  0  0  0  0
 22 20  1  0  0  0  0
 23 17  1  0  0  0  0
 24 25  1  0  0  0  0
 24 20  1  0  0  0  0
 26 25  2  0  0  0  0
 27 24  1  0  0  0  0
 28 33  1  0  0  0  0
 28 34  1  0  0  0  0
 29 33  2  0  0  0  0
 30 31  2  0  0  0  0
 30 32  1  0  0  0  0
 31 29  1  0  0  0  0
 32 28  2  0  0  0  0
 33 34  1  0  0  0  0
 34 27  1  0  0  0  0
 35 40  1  0  0  0  0
 37 36  1  0  0  0  0
 37 43  1  0  0  0  0
 38 40  2  0  0  0  0
 38 41  1  0  0  0  0
 39 36  2  0  0  0  0
 40 39  1  0  0  0  0
 41 37  2  0  0  0  0
 42 43  1  0  0  0  0
M  END
>  <MODEL>
5

>  <REMARK>
 VINA RESULT:      -7.0      2.073      3.001
  Name = 
  9 active torsions:
  status: ('A' for Active; 'I' for Inactive)
    1  A    between atoms: C_1  and  N_34
    2  A    between atoms: C_1  and  C_35
    3  A    between atoms: C_2  and  C_13
    4  A    between atoms: C_4  and  C_22
    5  A    between atoms: N_6  and  C_17
    6  A    between atoms: C_10  and  C_22
    7  A    between atoms: O_14  and  C_22
    8  A    between atoms: O_14  and  C_41
    9  A    between atoms: C_19  and  C_37
                            x       y       z     vdW  Elec       q    Type
                         _______ _______ _______ _____ _____    ______ ____

>  <TORSDO>
F 9

$$$$
=
 OpenBabel11062410003D

 43 50  0  0  1  0  0  0  0  0999 V2000
  159.0720  211.2050  155.4310 C   0  0  0  0  0  0  0  0  0  0  0  0
  161.3890  209.0210  151.5090 C   0  0  0  0  0  0  0  0  0  0  0  0
  161.9590  211.0810  149.6570 C   0  0  0  0  0  0  0  0  0  0  0  0
  160.0880  209.6030  153.9250 C   0  0  0  0  0  0  0  0  0  0  0  0
  159.3490  212.2360  154.5270 C   0  0  0  0  0  3  0  0  0  0  0  0
  158.4440  211.4790  156.5980 F   0  0  0  0  0  0  0  0  0  0  0  0
  160.3700  210.6430  153.0080 C   0  0  0  0  0  0  0  0  0  0  0  0
  159.4410  209.8910  155.1300 C   0  0  0  0  0  3  0  0  0  0  0  0
  159.9950  211.9570  153.3200 C   0  0  0  0  0  3  0  0  0  0  0  0
  161.3080  211.3530  150.8710 O   0  0  0  0  0  0  0  0  0  0  0  0
  161.0190  210.3450  151.8010 C   0  0  0  0  0  0  0  0  0  0  0  0
  161.1030  207.9990  152.4240 C   0  0  0  0  0  3  0  0  0  0  0  0
  162.0580  208.7520  150.2640 N   0  0  0  0  0  0  0  0  0  0  0  0
  162.3230  209.8290  149.3560 C   0  0  0  0  0  3  0  0  0  0  0  0
  160.4560  208.2900  153.6270 C   0  0  0  0  0  3  0  0  0  0  0  0
  162.2380  212.1810  148.7230 C   0  0  0  0  0  0  0  0  0  0  0  0
  161.2220  213.1400  148.4170 N   0  0  0  0  0  2  0  0  0  0  0  0
  163.3740  212.2690  148.1860 O   0  0  0  0  0  0  0  0  0  0  0  0
  161.9260  213.7470  146.1640 C   0  0  1  0  0  3  0  0  0  0  0  0
  160.8040  213.0780  145.4010 C   0  0  2  0  0  0  0  0  0  0  0  0
  160.4790  214.2060  146.3570 C   0  0  1  0  0  3  0  0  0  0  0  0
  160.3950  211.6900  145.8770 C   0  0  0  0  0  1  0  0  0  0  0  0
  161.4580  214.2590  147.5160 C   0  0  1  0  0  3  0  0  0  0  0  0
  160.6930  213.4490  143.9230 C   0  0  1  0  0  3  0  0  0  0  0  0
  162.0440  213.5410  143.2830 C   0  0  0  0  0  3  0  0  0  0  0  0
  162.7970  212.5790  143.2780 O   0  0  0  0  0  0  0  0  0  0  0  0
  159.9210  212.4950  143.2480 O   0  0  0  0  0  0  0  0  0  0  0  0
  160.0410  213.3720  141.1350 C   0  0  0  0  0  0  0  0  0  0  0  0
  158.6390  211.5090  140.1740 C   0  0  0  0  0  3  0  0  0  0  0  0
  160.5770  212.7290  139.0120 C   0  0  0  0  0  3  0  0  0  0  0  0
  159.5070  211.7280  139.0470 C   0  0  0  0  0  3  0  0  0  0  0  0
  160.8920  213.6180  140.1000 C   0  0  0  0  0  3  0  0  0  0  0  0
  158.9750  212.3760  141.1700 C   0  0  0  0  0  0  0  0  0  0  0  0
  159.2270  213.2120  142.2690 C   0  0  1  0  0  3  0  0  0  0  0  0
  162.5470  207.4190  149.9320 C   0  0  0  0  0  2  0  0  0  0  0  0
  160.0140  206.2160  147.3810 C   0  0  0  0  0  3  0  0  0  0  0  0
  160.8300  205.9880  146.2680 C   0  0  0  0  0  0  0  0  0  0  0  0
  162.7640  206.7120  147.5420 C   0  0  0  0  0  3  0  0  0  0  0  0
  160.5690  206.6970  148.5690 C   0  0  0  0  0  3  0  0  0  0  0  0
  161.9440  206.9520  148.6490 C   0  0  0  0  0  0  0  0  0  0  0  0
  162.2080  206.2330  146.3520 C   0  0  0  0  0  3  0  0  0  0  0  0
  161.2910  205.4270  143.9110 C   0  0  0  0  0  1  0  0  0  0  0  0
  160.2400  205.4570  145.0080 C   0  0  0  0  0  2  0  0  0  0  0  0
  1  6  1  0  0  0  0
  2 11  2  0  0  0  0
  2 12  1  0  0  0  0
  3 10  1  0  0  0  0
  4  8  2  0  0  0  0
  5  1  2  0  0  0  0
  7  9  2  0  0  0  0
  7  4  1  0  0  0  0
  8  1  1  0  0  0  0
  9  5  1  0  0  0  0
 10 11  1  0  0  0  0
 11  7  1  0  0  0  0
 12 15  2  0  0  0  0
 13  2  1  0  0  0  0
 14  3  2  0  0  0  0
 14 13  1  0  0  0  0
 15  4  1  0  0  0  0
 16  3  1  0  0  0  0
 17 16  1  0  0  0  0
 18 16  2  0  0  0  0
 19 21  1  0  0  0  0
 19 23  1  0  0  0  0
 20 22  1  0  0  0  0
 20 19  1  0  0  0  0
 20 21  1  0  0  0  0
 21 23  1  0  0  0  0
 23 17  1  0  0  0  0
 24 20  1  0  0  0  0
 25 24  1  0  0  0  0
 26 25  2  0  0  0  0
 27 24  1  0  0  0  0
 28 33  1  0  0  0  0
 28 34  1  0  0  0  0
 29 33  2  0  0  0  0
 30 31  2  0  0  0  0
 30 32  1  0  0  0  0
 31 29  1  0  0  0  0
 32 28  2  0  0  0  0
 33 34  1  0  0  0  0
 34 27  1  0  0  0  0
 35 13  1  0  0  0  0
 36 39  1  0  0  0  0
 37 41  1  0  0  0  0
 37 36  2  0  0  0  0
 38 40  1  0  0  0  0
 39 40  2  0  0  0  0
 40 35  1  0  0  0  0
 41 38  2  0  0  0  0
 42 43  1  0  0  0  0
 43 37  1  0  0  0  0
M  END
>  <MODEL>
6

>  <REMARK>
 VINA RESULT:      -6.2      2.449      5.911
  Name = 
  9 active torsions:
  status: ('A' for Active; 'I' for Inactive)
    1  A    between atoms: C_1  and  N_34
    2  A    between atoms: C_1  and  C_35
    3  A    between atoms: C_2  and  C_13
    4  A    between atoms: C_4  and  C_22
    5  A    between atoms: N_6  and  C_17
    6  A    between atoms: C_10  and  C_22
    7  A    between atoms: O_14  and  C_22
    8  A    between atoms: O_14  and  C_41
    9  A    between atoms: C_19  and  C_37
                            x       y       z     vdW  Elec       q    Type
                         _______ _______ _______ _____ _____    ______ ____

>  <TORSDO>
F 9

$$$$
=
 OpenBabel11062410003D

 43 50  0  0  1  0  0  0  0  0999 V2000
  160.0530  207.5530  156.1200 C   0  0  0  0  0  0  0  0  0  0  0  0
  160.1810  211.3990  152.8470 C   0  0  0  0  0  0  0  0  0  0  0  0
  161.4120  210.4190  150.4970 C   0  0  0  0  0  0  0  0  0  0  0  0
  159.8160  209.7200  155.0640 C   0  0  0  0  0  0  0  0  0  0  0  0
  160.6610  207.0520  154.9640 C   0  0  0  0  0  3  0  0  0  0  0  0
  159.8740  206.7480  157.1930 F   0  0  0  0  0  0  0  0  0  0  0  0
  160.4310  209.2170  153.8930 C   0  0  0  0  0  0  0  0  0  0  0  0
  159.6320  208.8850  156.1700 C   0  0  0  0  0  3  0  0  0  0  0  0
  160.8490  207.8800  153.8550 C   0  0  0  0  0  3  0  0  0  0  0  0
  161.2210  209.5950  151.6160 O   0  0  0  0  0  0  0  0  0  0  0  0
  160.6120  210.0620  152.7880 C   0  0  0  0  0  0  0  0  0  0  0  0
  159.5760  211.8860  154.0130 C   0  0  0  0  0  3  0  0  0  0  0  0
  160.3800  212.2360  151.6940 N   0  0  0  0  0  0  0  0  0  0  0  0
  161.0100  211.6960  150.5270 C   0  0  0  0  0  3  0  0  0  0  0  0
  159.3940  211.0490  155.1170 C   0  0  0  0  0  3  0  0  0  0  0  0
  162.0550  209.8710  149.2940 C   0  0  0  0  0  0  0  0  0  0  0  0
  162.3480  208.4740  149.2080 N   0  0  0  0  0  2  0  0  0  0  0  0
  162.3530  210.6410  148.3420 O   0  0  0  0  0  0  0  0  0  0  0  0
  162.6290  206.4010  147.9590 C   0  0  1  0  0  3  0  0  0  0  0  0
  161.1780  206.1700  147.5960 C   0  0  2  0  0  0  0  0  0  0  0  0
  161.8860  207.4000  147.0710 C   0  0  1  0  0  3  0  0  0  0  0  0
  160.1560  206.4320  148.6940 C   0  0  0  0  0  1  0  0  0  0  0  0
  162.9610  207.8820  148.0290 C   0  0  1  0  0  3  0  0  0  0  0  0
  160.9200  205.0910  146.5460 C   0  0  1  0  0  3  0  0  0  0  0  0
  162.1570  204.7940  145.7560 C   0  0  0  0  0  3  0  0  0  0  0  0
  162.3960  205.4000  144.7230 O   0  0  0  0  0  0  0  0  0  0  0  0
  160.4700  203.9190  147.1660 O   0  0  0  0  0  0  0  0  0  0  0  0
  161.3220  203.3690  149.2200 C   0  0  0  0  0  0  0  0  0  0  0  0
  160.9570  200.9050  148.8220 C   0  0  0  0  0  3  0  0  0  0  0  0
  160.7650  202.1450  151.0640 C   0  0  0  0  0  3  0  0  0  0  0  0
  160.7030  200.9350  150.2400 C   0  0  0  0  0  3  0  0  0  0  0  0
  161.0890  203.4530  150.5590 C   0  0  0  0  0  3  0  0  0  0  0  0
  161.2610  202.1630  148.3980 C   0  0  0  0  0  0  0  0  0  0  0  0
  161.5840  203.4110  147.8400 C   0  0  1  0  0  3  0  0  0  0  0  0
  159.8820  213.6070  151.6520 C   0  0  0  0  0  2  0  0  0  0  0  0
  158.1760  213.5730  148.2670 C   0  0  0  0  0  3  0  0  0  0  0  0
  156.9190  214.0950  148.5870 C   0  0  0  0  0  0  0  0  0  0  0  0
  157.5900  214.2810  150.9110 C   0  0  0  0  0  3  0  0  0  0  0  0
  159.1360  213.3980  149.2670 C   0  0  0  0  0  3  0  0  0  0  0  0
  158.8420  213.7460  150.5920 C   0  0  0  0  0  0  0  0  0  0  0  0
  156.6280  214.4530  149.9110 C   0  0  0  0  0  3  0  0  0  0  0  0
  156.4870  213.9310  146.1650 C   0  0  0  0  0  1  0  0  0  0  0  0
  155.9020  214.2990  147.5170 C   0  0  0  0  0  2  0  0  0  0  0  0
  1  8  1  0  0  0  0
  1  6  1  0  0  0  0
  2 12  1  0  0  0  0
  3 14  2  0  0  0  0
  3 10  1  0  0  0  0
  4 15  1  0  0  0  0
  4  8  2  0  0  0  0
  5  1  2  0  0  0  0
  7  4  1  0  0  0  0
  9  7  2  0  0  0  0
  9  5  1  0  0  0  0
 10 11  1  0  0  0  0
 11  2  2  0  0  0  0
 11  7  1  0  0  0  0
 12 15  2  0  0  0  0
 13  2  1  0  0  0  0
 14 13  1  0  0  0  0
 16  3  1  0  0  0  0
 17 16  1  0  0  0  0
 18 16  2  0  0  0  0
 19 23  1  0  0  0  0
 20 19  1  0  0  0  0
 20 22  1  0  0  0  0
 21 20  1  0  0  0  0
 21 19  1  0  0  0  0
 21 23  1  0  0  0  0
 23 17  1  0  0  0  0
 24 27  1  0  0  0  0
 24 20  1  0  0  0  0
 25 24  1  0  0  0  0
 26 25  2  0  0  0  0
 27 34  1  0  0  0  0
 28 32  1  0  0  0  0
 29 31  2  0  0  0  0
 31 30  1  0  0  0  0
 32 30  2  0  0  0  0
 33 29  1  0  0  0  0
 33 28  2  0  0  0  0
 34 33  1  0  0  0  0
 34 28  1  0  0  0  0
 35 13  1  0  0  0  0
 36 37  2  0  0  0  0
 36 39  1  0  0  0  0
 37 41  1  0  0  0  0
 39 40  2  0  0  0  0
 40 38  1  0  0  0  0
 40 35  1  0  0  0  0
 41 38  2  0  0  0  0
 42 43  1  0  0  0  0
 43 37  1  0  0  0  0
M  END
>  <MODEL>
7

>  <REMARK>
 VINA RESULT:      -6.2      3.901      8.357
  Name = 
  9 active torsions:
  status: ('A' for Active; 'I' for Inactive)
    1  A    between atoms: C_1  and  N_34
    2  A    between atoms: C_1  and  C_35
    3  A    between atoms: C_2  and  C_13
    4  A    between atoms: C_4  and  C_22
    5  A    between atoms: N_6  and  C_17
    6  A    between atoms: C_10  and  C_22
    7  A    between atoms: O_14  and  C_22
    8  A    between atoms: O_14  and  C_41
    9  A    between atoms: C_19  and  C_37
                            x       y       z     vdW  Elec       q    Type
                         _______ _______ _______ _____ _____    ______ ____

>  <TORSDO>
F 9

$$$$
=
 OpenBabel11062410003D

 43 50  0  0  1  0  0  0  0  0999 V2000
  158.8190  211.7260  155.9750 C   0  0  0  0  0  0  0  0  0  0  0  0
  159.8300  213.2230  151.2580 C   0  0  0  0  0  0  0  0  0  0  0  0
  161.4410  211.2080  150.0980 C   0  0  0  0  0  0  0  0  0  0  0  0
  158.9300  212.9740  153.9020 C   0  0  0  0  0  0  0  0  0  0  0  0
  159.6120  210.7190  155.4160 C   0  0  0  0  0  3  0  0  0  0  0  0
  158.3810  211.6130  157.2510 F   0  0  0  0  0  0  0  0  0  0  0  0
  159.7330  211.9580  153.3330 C   0  0  0  0  0  0  0  0  0  0  0  0
  158.4780  212.8520  155.2190 C   0  0  0  0  0  3  0  0  0  0  0  0
  160.0680  210.8340  154.1000 C   0  0  0  0  0  3  0  0  0  0  0  0
  160.9810  211.1020  151.4200 O   0  0  0  0  0  0  0  0  0  0  0  0
  160.1810  212.0890  152.0100 C   0  0  0  0  0  0  0  0  0  0  0  0
  159.0360  214.2240  151.8330 C   0  0  0  0  0  3  0  0  0  0  0  0
  160.3050  213.3230  149.9030 N   0  0  0  0  0  0  0  0  0  0  0  0
  161.1200  212.2770  149.3590 C   0  0  0  0  0  3  0  0  0  0  0  0
  158.5880  214.0990  153.1500 C   0  0  0  0  0  3  0  0  0  0  0  0
  162.2750  210.1380  149.5330 C   0  0  0  0  0  0  0  0  0  0  0  0
  162.2570  208.8300  150.1100 N   0  0  0  0  0  2  0  0  0  0  0  0
  163.0130  210.3820  148.5410 O   0  0  0  0  0  0  0  0  0  0  0  0
  162.9670  206.5310  150.4980 C   0  0  1  0  0  3  0  0  0  0  0  0
  161.6050  205.8740  150.4430 C   0  0  2  0  0  0  0  0  0  0  0  0
  162.1400  206.5700  149.2100 C   0  0  1  0  0  3  0  0  0  0  0  0
  160.4730  206.6030  151.1560 C   0  0  0  0  0  1  0  0  0  0  0  0
  163.0470  207.7330  149.5710 C   0  0  1  0  0  3  0  0  0  0  0  0
  161.6080  204.3480  150.3610 C   0  0  1  0  0  3  0  0  0  0  0  0
  161.0720  203.7350  151.6180 C   0  0  0  0  0  3  0  0  0  0  0  0
  161.1500  202.5310  151.8040 O   0  0  0  0  0  0  0  0  0  0  0  0
  160.8360  203.9280  149.2710 O   0  0  0  0  0  0  0  0  0  0  0  0
  161.0370  202.5000  147.4910 C   0  0  0  0  0  0  0  0  0  0  0  0
  161.4320  204.4010  145.8820 C   0  0  0  0  0  3  0  0  0  0  0  0
  160.1920  202.2070  145.3920 C   0  0  0  0  0  3  0  0  0  0  0  0
  160.7080  203.5220  145.0020 C   0  0  0  0  0  3  0  0  0  0  0  0
  160.3440  201.6320  146.7020 C   0  0  0  0  0  3  0  0  0  0  0  0
  161.5520  203.8090  147.1030 C   0  0  0  0  0  0  0  0  0  0  0  0
  161.7380  203.3080  148.4020 C   0  0  1  0  0  3  0  0  0  0  0  0
  159.9110  214.4270  149.0350 C   0  0  0  0  0  2  0  0  0  0  0  0
  158.3750  212.4780  146.1700 C   0  0  0  0  0  3  0  0  0  0  0  0
  159.1490  212.9190  145.0910 C   0  0  0  0  0  0  0  0  0  0  0  0
  160.4070  214.3590  146.5840 C   0  0  0  0  0  3  0  0  0  0  0  0
  158.6120  212.9810  147.4520 C   0  0  0  0  0  3  0  0  0  0  0  0
  159.6240  213.9270  147.6590 C   0  0  0  0  0  0  0  0  0  0  0  0
  160.1680  213.8580  145.3010 C   0  0  0  0  0  3  0  0  0  0  0  0
  160.2270  212.1960  142.9940 C   0  0  0  0  0  1  0  0  0  0  0  0
  158.9080  212.3690  143.7270 C   0  0  0  0  0  2  0  0  0  0  0  0
  1  6  1  0  0  0  0
  2 12  2  0  0  0  0
  2 11  1  0  0  0  0
  3 10  1  0  0  0  0
  4  8  1  0  0  0  0
  5  1  1  0  0  0  0
  7  4  1  0  0  0  0
  7  9  1  0  0  0  0
  8  1  2  0  0  0  0
  9  5  2  0  0  0  0
 10 11  1  0  0  0  0
 11  7  2  0  0  0  0
 12 15  1  0  0  0  0
 13  2  1  0  0  0  0
 14 13  1  0  0  0  0
 14  3  2  0  0  0  0
 15  4  2  0  0  0  0
 16  3  1  0  0  0  0
 16 17  1  0  0  0  0
 18 16  2  0  0  0  0
 20 19  1  0  0  0  0
 20 22  1  0  0  0  0
 21 23  1  0  0  0  0
 21 20  1  0  0  0  0
 21 19  1  0  0  0  0
 23 17  1  0  0  0  0
 23 19  1  0  0  0  0
 24 20  1  0  0  0  0
 24 25  1  0  0  0  0
 25 26  2  0  0  0  0
 27 24  1  0  0  0  0
 28 34  1  0  0  0  0
 29 33  2  0  0  0  0
 30 32  1  0  0  0  0
 31 30  2  0  0  0  0
 31 29  1  0  0  0  0
 32 28  2  0  0  0  0
 33 28  1  0  0  0  0
 33 34  1  0  0  0  0
 34 27  1  0  0  0  0
 35 13  1  0  0  0  0
 36 39  1  0  0  0  0
 37 41  1  0  0  0  0
 37 36  2  0  0  0  0
 38 40  1  0  0  0  0
 39 40  2  0  0  0  0
 40 35  1  0  0  0  0
 41 38  2  0  0  0  0
 42 43  1  0  0  0  0
 43 37  1  0  0  0  0
M  END
>  <MODEL>
8

>  <REMARK>
 VINA RESULT:      -6.0      3.105      9.162
  Name = 
  9 active torsions:
  status: ('A' for Active; 'I' for Inactive)
    1  A    between atoms: C_1  and  N_34
    2  A    between atoms: C_1  and  C_35
    3  A    between atoms: C_2  and  C_13
    4  A    between atoms: C_4  and  C_22
    5  A    between atoms: N_6  and  C_17
    6  A    between atoms: C_10  and  C_22
    7  A    between atoms: O_14  and  C_22
    8  A    between atoms: O_14  and  C_41
    9  A    between atoms: C_19  and  C_37
                            x       y       z     vdW  Elec       q    Type
                         _______ _______ _______ _____ _____    ______ ____

>  <TORSDO>
F 9

$$$$
=
 OpenBabel11062410003D

 43 50  0  0  1  0  0  0  0  0999 V2000
  160.2700  207.6580  154.7610 C   0  0  0  0  0  0  0  0  0  0  0  0
  162.2070  207.5820  150.0960 C   0  0  0  0  0  0  0  0  0  0  0  0
  162.0400  210.2270  149.1090 C   0  0  0  0  0  0  0  0  0  0  0  0
  161.2770  206.9660  152.6700 C   0  0  0  0  0  0  0  0  0  0  0  0
  160.1820  208.9720  154.2890 C   0  0  0  0  0  3  0  0  0  0  0  0
  159.8230  207.3540  156.0020 F   0  0  0  0  0  0  0  0  0  0  0  0
  161.1910  208.2940  152.1880 C   0  0  0  0  0  0  0  0  0  0  0  0
  160.8160  206.6570  153.9530 C   0  0  0  0  0  3  0  0  0  0  0  0
  160.6410  209.2890  153.0070 C   0  0  0  0  0  3  0  0  0  0  0  0
  161.5800  209.9000  150.3930 O   0  0  0  0  0  0  0  0  0  0  0  0
  161.6560  208.5950  150.9000 C   0  0  0  0  0  0  0  0  0  0  0  0
  162.2860  206.2700  150.5830 C   0  0  0  0  0  3  0  0  0  0  0  0
  162.6790  207.9280  148.7810 N   0  0  0  0  0  0  0  0  0  0  0  0
  162.5710  209.2810  148.3240 C   0  0  0  0  0  3  0  0  0  0  0  0
  161.8240  205.9650  151.8650 C   0  0  0  0  0  3  0  0  0  0  0  0
  161.9360  211.6140  148.6330 C   0  0  0  0  0  0  0  0  0  0  0  0
  160.6810  212.1280  148.1840 N   0  0  0  0  0  2  0  0  0  0  0  0
  162.9620  212.3450  148.6180 O   0  0  0  0  0  0  0  0  0  0  0  0
  161.1250  213.6590  146.3400 C   0  0  1  0  0  3  0  0  0  0  0  0
  160.2850  212.9740  145.2850 C   0  0  2  0  0  0  0  0  0  0  0  0
  159.6100  213.5420  146.5140 C   0  0  1  0  0  3  0  0  0  0  0  0
  160.3670  211.4540  145.2370 C   0  0  0  0  0  1  0  0  0  0  0  0
  160.5230  213.5010  147.7270 C   0  0  1  0  0  3  0  0  0  0  0  0
  160.0470  213.7730  144.0040 C   0  0  1  0  0  3  0  0  0  0  0  0
  161.3400  214.1860  143.3730 C   0  0  0  0  0  3  0  0  0  0  0  0
  162.2500  213.3830  143.2350 O   0  0  0  0  0  0  0  0  0  0  0  0
  159.3060  213.0080  143.0950 O   0  0  0  0  0  0  0  0  0  0  0  0
  159.1880  212.7530  140.8220 C   0  0  0  0  0  0  0  0  0  0  0  0
  156.9660  213.9400  140.7040 C   0  0  0  0  0  3  0  0  0  0  0  0
  157.7430  211.9870  139.2300 C   0  0  0  0  0  3  0  0  0  0  0  0
  156.7580  212.9890  139.6440 C   0  0  0  0  0  3  0  0  0  0  0  0
  159.0420  211.8300  139.8310 C   0  0  0  0  0  3  0  0  0  0  0  0
  158.2060  213.7520  141.2340 C   0  0  0  0  0  0  0  0  0  0  0  0
  159.4570  213.6550  141.8650 C   0  0  1  0  0  3  0  0  0  0  0  0
  163.3390  206.9490  147.9260 C   0  0  0  0  0  2  0  0  0  0  0  0
  161.7710  204.4750  145.5190 C   0  0  0  0  0  3  0  0  0  0  0  0
  160.4790  204.9960  145.3910 C   0  0  0  0  0  0  0  0  0  0  0  0
  161.0490  206.7800  146.9330 C   0  0  0  0  0  3  0  0  0  0  0  0
  162.6980  205.1000  146.3560 C   0  0  0  0  0  3  0  0  0  0  0  0
  162.3360  206.2510  147.0690 C   0  0  0  0  0  0  0  0  0  0  0  0
  160.1210  206.1520  146.0970 C   0  0  0  0  0  3  0  0  0  0  0  0
  159.6350  202.8290  144.5710 C   0  0  0  0  0  1  0  0  0  0  0  0
  159.4970  204.3390  144.4840 C   0  0  0  0  0  2  0  0  0  0  0  0
  1  6  1  0  0  0  0
  2 12  2  0  0  0  0
  2 11  1  0  0  0  0
  3 10  1  0  0  0  0
  4  8  1  0  0  0  0
  5  1  1  0  0  0  0
  7  4  1  0  0  0  0
  7  9  1  0  0  0  0
  8  1  2  0  0  0  0
  9  5  2  0  0  0  0
 10 11  1  0  0  0  0
 11  7  2  0  0  0  0
 12 15  1  0  0  0  0
 13  2  1  0  0  0  0
 14 13  1  0  0  0  0
 14  3  2  0  0  0  0
 15  4  2  0  0  0  0
 16  3  1  0  0  0  0
 17 16  1  0  0  0  0
 18 16  2  0  0  0  0
 19 21  1  0  0  0  0
 19 23  1  0  0  0  0
 20 19  1  0  0  0  0
 20 21  1  0  0  0  0
 21 23  1  0  0  0  0
 22 20  1  0  0  0  0
 23 17  1  0  0  0  0
 24 20  1  0  0  0  0
 25 24  1  0  0  0  0
 26 25  2  0  0  0  0
 27 24  1  0  0  0  0
 28 33  1  0  0  0  0
 28 34  1  0  0  0  0
 29 33  2  0  0  0  0
 30 31  2  0  0  0  0
 30 32  1  0  0  0  0
 31 29  1  0  0  0  0
 32 28  2  0  0  0  0
 33 34  1  0  0  0  0
 34 27  1  0  0  0  0
 35 13  1  0  0  0  0
 36 39  1  0  0  0  0
 37 36  2  0  0  0  0
 37 41  1  0  0  0  0
 38 40  1  0  0  0  0
 39 40  2  0  0  0  0
 40 35  1  0  0  0  0
 41 38  2  0  0  0  0
 43 42  1  0  0  0  0
 43 37  1  0  0  0  0
M  END
>  <MODEL>
9

>  <REMARK>
 VINA RESULT:      -5.5      2.506      5.731
  Name = 
  9 active torsions:
  status: ('A' for Active; 'I' for Inactive)
    1  A    between atoms: C_1  and  N_34
    2  A    between atoms: C_1  and  C_35
    3  A    between atoms: C_2  and  C_13
    4  A    between atoms: C_4  and  C_22
    5  A    between atoms: N_6  and  C_17
    6  A    between atoms: C_10  and  C_22
    7  A    between atoms: O_14  and  C_22
    8  A    between atoms: O_14  and  C_41
    9  A    between atoms: C_19  and  C_37
                            x       y       z     vdW  Elec       q    Type
                         _______ _______ _______ _____ _____    ______ ____

>  <TORSDO>
F 9

$$$$
