=
 OpenBabel11062407453D

 34 37  0  0  1  0  0  0  0  0999 V2000
  159.9050  209.8120  154.0270 C   0  0  1  0  0  3  0  0  0  0  0  0
  160.8590  210.7790  151.9340 C   0  0  0  0  0  0  0  0  0  0  0  0
  161.4500  208.5900  152.3140 C   0  0  0  0  0  2  0  0  0  0  0  0
  161.7970  210.5140  150.9660 O   0  0  0  0  0  0  0  0  0  0  0  0
  159.0990  211.1020  154.0780 C   0  0  0  0  0  0  0  0  0  0  0  0
  160.2890  211.9230  152.1200 N   0  0  0  0  0  0  0  0  0  0  0  0
  159.3170  212.1040  153.1710 C   0  0  0  0  0  0  0  0  0  0  0  0
  162.2190  209.1570  151.0920 C   0  0  2  0  0  3  0  0  0  0  0  0
  160.5760  209.6710  152.7380 N   0  0  0  0  0  0  0  0  0  0  0  0
  161.7450  210.7400  155.3140 N   0  0  0  0  0  0  0  0  0  0  0  0
  160.8820  208.5730  156.0780 C   0  0  0  0  0  0  0  0  0  0  0  0
  162.8930  209.6900  157.1370 C   0  0  0  0  0  3  0  0  0  0  0  0
  162.0480  208.5500  156.9610 N   0  0  0  0  0  0  0  0  0  0  0  0
  160.9060  209.7580  155.1430 C   0  0  0  0  0  0  0  0  0  0  0  0
  162.7380  210.7470  156.3470 C   0  0  0  0  0  3  0  0  0  0  0  0
  159.7310  208.6080  156.8420 F   0  0  0  0  0  0  0  0  0  0  0  0
  158.5800  213.3940  153.1760 C   0  0  0  0  0  0  0  0  0  0  0  0
  159.0080  214.3810  153.8320 O   0  0  0  0  0  0  0  0  0  0  0  0
  157.2420  213.9160  151.2200 N   0  0  0  0  0  0  0  0  0  0  0  0
  157.3600  213.4870  152.4200 N   0  0  0  0  0  0  0  0  0  0  0  0
  158.3340  214.4340  150.4060 C   0  0  0  0  0  2  0  0  0  0  0  0
  158.3270  213.7650  149.0440 C   0  0  0  0  0  2  0  0  0  0  0  0
  157.0860  213.0340  148.8730 N   0  0  0  0  0  1  0  0  0  0  0  0
  158.6670  211.9980  156.3520 C   0  0  0  0  0  1  0  0  0  0  0  0
  158.0950  211.2100  155.1870 C   0  0  0  0  0  2  0  0  0  0  0  0
  161.8470  208.3910  149.8340 C   0  0  0  0  0  2  0  0  0  0  0  0
  161.0640  207.1390  150.1910 C   0  0  0  0  0  2  0  0  0  0  0  0
  161.0000  204.3630  150.7030 O   0  0  0  0  0  0  0  0  0  0  0  0
  161.2610  206.1200  149.1710 N   0  0  0  0  0  0  0  0  0  0  0  0
  161.1720  204.7220  149.5080 C   0  0  0  0  0  0  0  0  0  0  0  0
  161.9890  204.1590  147.2190 C   0  0  0  0  0  2  0  0  0  0  0  0
  161.5010  205.5330  146.7860 C   0  0  0  0  0  2  0  0  0  0  0  0
  161.8090  206.5450  147.8840 C   0  0  0  0  0  2  0  0  0  0  0  0
  161.1980  203.6800  148.4300 C   0  0  0  0  0  2  0  0  0  0  0  0
  1  5  1  0  0  0  0
  1 14  1  1  0  0  0
  2  6  2  0  0  0  0
  2  9  1  0  0  0  0
  3  9  1  0  0  0  0
  4  8  1  0  0  0  0
  4  2  1  0  0  0  0
  5 25  1  0  0  0  0
  6  7  1  0  0  0  0
  7 17  1  0  0  0  0
  7  5  2  0  0  0  0
  8 26  1  6  0  0  0
  8  3  1  0  0  0  0
  9  1  1  0  0  0  0
 10 15  1  0  0  0  0
 11 16  1  0  0  0  0
 11 13  2  0  0  0  0
 13 12  1  0  0  0  0
 14 10  2  0  0  0  0
 14 11  1  0  0  0  0
 15 12  2  0  0  0  0
 17 18  2  0  0  0  0
 19 20  2  0  0  0  0
 20 17  1  0  0  0  0
 21 19  1  0  0  0  0
 22 21  1  0  0  0  0
 23 22  1  0  0  0  0
 25 24  1  0  0  0  0
 26 27  1  0  0  0  0
 29 30  1  0  0  0  0
 29 27  1  0  0  0  0
 30 28  2  0  0  0  0
 31 34  1  0  0  0  0
 32 31  1  0  0  0  0
 32 33  1  0  0  0  0
 33 29  1  0  0  0  0
 34 30  1  0  0  0  0
M  END
>  <MODEL>
1

>  <REMARK>
 VINA RESULT:      -6.9      0.000      0.000
  Name = 
  9 active torsions:
  status: ('A' for Active; 'I' for Inactive)
    1  A    between atoms: C_3  and  N_13
    2  A    between atoms: C_3  and  C_17
    3  A    between atoms: C_4  and  C_15
    4  A    between atoms: C_7  and  C_8
    5  A    between atoms: C_8  and  N_16
    6  A    between atoms: C_12  and  N_27
    7  A    between atoms: C_12  and  C_28
    8  A    between atoms: C_17  and  C_29
    9  A    between atoms: C_21  and  C_32
                            x       y       z     vdW  Elec       q    Type
                         _______ _______ _______ _____ _____    ______ ____

>  <TORSDO>
F 9

$$$$
=
 OpenBabel11062407453D

 34 37  0  0  1  0  0  0  0  0999 V2000
  160.0230  209.6980  153.5620 C   0  0  1  0  0  3  0  0  0  0  0  0
  161.2280  210.2870  151.4590 C   0  0  0  0  0  0  0  0  0  0  0  0
  161.6280  208.1490  152.2050 C   0  0  0  0  0  2  0  0  0  0  0  0
  162.2290  209.8280  150.6380 O   0  0  0  0  0  0  0  0  0  0  0  0
  159.3080  211.0240  153.3480 C   0  0  0  0  0  0  0  0  0  0  0  0
  160.7250  211.4760  151.4220 N   0  0  0  0  0  0  0  0  0  0  0  0
  159.6770  211.8650  152.3340 C   0  0  0  0  0  0  0  0  0  0  0  0
  162.5430  208.4840  150.9980 C   0  0  2  0  0  3  0  0  0  0  0  0
  160.7960  209.3290  152.3810 N   0  0  0  0  0  0  0  0  0  0  0  0
  161.8600  210.6460  154.8390 N   0  0  0  0  0  0  0  0  0  0  0  0
  160.6510  208.7950  155.9050 C   0  0  0  0  0  0  0  0  0  0  0  0
  162.7010  209.8610  156.9410 C   0  0  0  0  0  3  0  0  0  0  0  0
  161.7270  208.8160  156.8960 N   0  0  0  0  0  0  0  0  0  0  0  0
  160.9120  209.7550  154.7700 C   0  0  0  0  0  0  0  0  0  0  0  0
  162.7570  210.7470  155.9520 C   0  0  0  0  0  3  0  0  0  0  0  0
  159.4570  209.1180  156.5200 F   0  0  0  0  0  0  0  0  0  0  0  0
  159.0340  213.1810  152.0810 C   0  0  0  0  0  0  0  0  0  0  0  0
  159.4270  214.2190  152.6770 O   0  0  0  0  0  0  0  0  0  0  0  0
  157.9990  213.6870  149.9450 N   0  0  0  0  0  0  0  0  0  0  0  0
  157.9450  213.2400  151.1430 N   0  0  0  0  0  0  0  0  0  0  0  0
  159.1830  214.2620  149.3190 C   0  0  0  0  0  2  0  0  0  0  0  0
  159.5770  213.4400  148.1060 C   0  0  0  0  0  2  0  0  0  0  0  0
  160.8730  212.8300  148.3380 N   0  0  0  0  0  1  0  0  0  0  0  0
  158.7370  212.2660  155.4190 C   0  0  0  0  0  1  0  0  0  0  0  0
  158.2170  211.3510  154.3250 C   0  0  0  0  0  2  0  0  0  0  0  0
  162.2340  207.5620  149.8320 C   0  0  0  0  0  2  0  0  0  0  0  0
  160.8530  206.9500  149.9940 C   0  0  0  0  0  2  0  0  0  0  0  0
  160.9950  205.6660  147.4830 O   0  0  0  0  0  0  0  0  0  0  0  0
  160.9230  205.5060  149.8220 N   0  0  0  0  0  0  0  0  0  0  0  0
  161.0350  204.9320  148.5070 C   0  0  0  0  0  0  0  0  0  0  0  0
  160.7140  202.6700  149.5100 C   0  0  0  0  0  2  0  0  0  0  0  0
  161.1870  203.2680  150.8260 C   0  0  0  0  0  2  0  0  0  0  0  0
  160.6080  204.6700  150.9790 C   0  0  0  0  0  2  0  0  0  0  0  0
  161.2860  203.4630  148.3400 C   0  0  0  0  0  2  0  0  0  0  0  0
  1 14  1  1  0  0  0
  2  9  1  0  0  0  0
  3  9  1  0  0  0  0
  4  8  1  0  0  0  0
  4  2  1  0  0  0  0
  5  1  1  0  0  0  0
  5 25  1  0  0  0  0
  6  2  2  0  0  0  0
  6  7  1  0  0  0  0
  7  5  2  0  0  0  0
  8 26  1  6  0  0  0
  8  3  1  0  0  0  0
  9  1  1  0  0  0  0
 10 15  1  0  0  0  0
 11 16  1  0  0  0  0
 11 13  2  0  0  0  0
 13 12  1  0  0  0  0
 14 10  2  0  0  0  0
 14 11  1  0  0  0  0
 15 12  2  0  0  0  0
 17  7  1  0  0  0  0
 17 18  2  0  0  0  0
 19 20  2  0  0  0  0
 20 17  1  0  0  0  0
 21 19  1  0  0  0  0
 22 23  1  0  0  0  0
 22 21  1  0  0  0  0
 25 24  1  0  0  0  0
 26 27  1  0  0  0  0
 28 30  2  0  0  0  0
 29 27  1  0  0  0  0
 29 33  1  0  0  0  0
 30 29  1  0  0  0  0
 31 32  1  0  0  0  0
 32 33  1  0  0  0  0
 34 30  1  0  0  0  0
 34 31  1  0  0  0  0
M  END
>  <MODEL>
2

>  <REMARK>
 VINA RESULT:      -6.7      1.289      1.670
  Name = 
  9 active torsions:
  status: ('A' for Active; 'I' for Inactive)
    1  A    between atoms: C_3  and  N_13
    2  A    between atoms: C_3  and  C_17
    3  A    between atoms: C_4  and  C_15
    4  A    between atoms: C_7  and  C_8
    5  A    between atoms: C_8  and  N_16
    6  A    between atoms: C_12  and  N_27
    7  A    between atoms: C_12  and  C_28
    8  A    between atoms: C_17  and  C_29
    9  A    between atoms: C_21  and  C_32
                            x       y       z     vdW  Elec       q    Type
                         _______ _______ _______ _____ _____    ______ ____

>  <TORSDO>
F 9

$$$$
=
 OpenBabel11062407453D

 34 37  0  0  1  0  0  0  0  0999 V2000
  160.3850  209.5340  153.4040 C   0  0  1  0  0  3  0  0  0  0  0  0
  161.7930  208.2670  151.7810 C   0  0  0  0  0  0  0  0  0  0  0  0
  160.9920  206.9970  153.5210 C   0  0  0  0  0  2  0  0  0  0  0  0
  162.4360  207.0620  151.6370 O   0  0  0  0  0  0  0  0  0  0  0  0
  160.4760  210.6560  152.3800 C   0  0  0  0  0  0  0  0  0  0  0  0
  161.9870  209.3040  151.0340 N   0  0  0  0  0  0  0  0  0  0  0  0
  161.2650  210.5310  151.2690 C   0  0  0  0  0  0  0  0  0  0  0  0
  161.9880  206.1760  152.6630 C   0  0  2  0  0  3  0  0  0  0  0  0
  160.8930  208.2830  152.8500 N   0  0  0  0  0  0  0  0  0  0  0  0
  162.3120  210.4320  154.5810 N   0  0  0  0  0  0  0  0  0  0  0  0
  160.4630  209.6430  155.9890 C   0  0  0  0  0  0  0  0  0  0  0  0
  162.6500  210.4790  156.9530 C   0  0  0  0  0  3  0  0  0  0  0  0
  161.3900  209.8210  157.1060 N   0  0  0  0  0  0  0  0  0  0  0  0
  161.1310  209.8880  154.6580 C   0  0  0  0  0  0  0  0  0  0  0  0
  163.0880  210.7800  155.7350 C   0  0  0  0  0  3  0  0  0  0  0  0
  159.3960  210.5090  156.1390 F   0  0  0  0  0  0  0  0  0  0  0  0
  161.4130  211.5930  150.2410 C   0  0  0  0  0  0  0  0  0  0  0  0
  160.7750  212.6760  150.3310 O   0  0  0  0  0  0  0  0  0  0  0  0
  162.3620  212.0340  148.0510 N   0  0  0  0  0  0  0  0  0  0  0  0
  162.2980  211.3520  149.1320 N   0  0  0  0  0  0  0  0  0  0  0  0
  161.5080  213.1710  147.7270 C   0  0  0  0  0  2  0  0  0  0  0  0
  160.5650  212.8030  146.5970 C   0  0  0  0  0  2  0  0  0  0  0  0
  159.2240  212.6350  147.1230 N   0  0  0  0  0  1  0  0  0  0  0  0
  158.2720  211.5310  153.1120 C   0  0  0  0  0  1  0  0  0  0  0  0
  159.6830  211.8930  152.6830 C   0  0  0  0  0  2  0  0  0  0  0  0
  161.2840  204.9870  152.0330 C   0  0  0  0  0  2  0  0  0  0  0  0
  161.2780  205.1170  150.5200 C   0  0  0  0  0  2  0  0  0  0  0  0
  161.1980  204.6810  147.7310 O   0  0  0  0  0  0  0  0  0  0  0  0
  161.1370  203.8050  149.9060 N   0  0  0  0  0  0  0  0  0  0  0  0
  161.1460  203.6640  148.4730 C   0  0  0  0  0  0  0  0  0  0  0  0
  160.5170  201.2650  148.7450 C   0  0  0  0  0  2  0  0  0  0  0  0
  161.0900  201.3500  150.1510 C   0  0  0  0  0  2  0  0  0  0  0  0
  160.7220  202.6970  150.7640 C   0  0  0  0  0  2  0  0  0  0  0  0
  161.1800  202.3030  147.8460 C   0  0  0  0  0  2  0  0  0  0  0  0
  1 14  1  1  0  0  0
  2  9  1  0  0  0  0
  4  2  1  0  0  0  0
  4  8  1  0  0  0  0
  5 25  1  0  0  0  0
  5  1  1  0  0  0  0
  6  7  1  0  0  0  0
  6  2  2  0  0  0  0
  7  5  2  0  0  0  0
  8 26  1  6  0  0  0
  8  3  1  0  0  0  0
  9  1  1  0  0  0  0
  9  3  1  0  0  0  0
 10 14  2  0  0  0  0
 10 15  1  0  0  0  0
 11 16  1  0  0  0  0
 11 13  2  0  0  0  0
 12 13  1  0  0  0  0
 14 11  1  0  0  0  0
 15 12  2  0  0  0  0
 17 18  2  0  0  0  0
 17  7  1  0  0  0  0
 19 20  2  0  0  0  0
 20 17  1  0  0  0  0
 21 19  1  0  0  0  0
 22 23  1  0  0  0  0
 22 21  1  0  0  0  0
 25 24  1  0  0  0  0
 27 26  1  0  0  0  0
 28 30  2  0  0  0  0
 29 27  1  0  0  0  0
 29 33  1  0  0  0  0
 30 29  1  0  0  0  0
 31 32  1  0  0  0  0
 32 33  1  0  0  0  0
 34 30  1  0  0  0  0
 34 31  1  0  0  0  0
M  END
>  <MODEL>
3

>  <REMARK>
 VINA RESULT:      -6.7      2.423      3.241
  Name = 
  9 active torsions:
  status: ('A' for Active; 'I' for Inactive)
    1  A    between atoms: C_3  and  N_13
    2  A    between atoms: C_3  and  C_17
    3  A    between atoms: C_4  and  C_15
    4  A    between atoms: C_7  and  C_8
    5  A    between atoms: C_8  and  N_16
    6  A    between atoms: C_12  and  N_27
    7  A    between atoms: C_12  and  C_28
    8  A    between atoms: C_17  and  C_29
    9  A    between atoms: C_21  and  C_32
                            x       y       z     vdW  Elec       q    Type
                         _______ _______ _______ _____ _____    ______ ____

>  <TORSDO>
F 9

$$$$
=
 OpenBabel11062407453D

 34 37  0  0  1  0  0  0  0  0999 V2000
  159.2760  210.6650  152.8380 C   0  0  1  0  0  3  0  0  0  0  0  0
  161.3940  210.2860  151.5760 C   0  0  0  0  0  0  0  0  0  0  0  0
  160.7440  208.5060  152.8780 C   0  0  0  0  0  2  0  0  0  0  0  0
  162.4560  209.4170  151.5080 O   0  0  0  0  0  0  0  0  0  0  0  0
  159.1770  211.9300  151.9980 C   0  0  0  0  0  0  0  0  0  0  0  0
  161.3540  211.4520  151.0220 N   0  0  0  0  0  0  0  0  0  0  0  0
  160.1920  212.2960  151.1560 C   0  0  0  0  0  0  0  0  0  0  0  0
  162.1470  208.2500  152.2680 C   0  0  2  0  0  3  0  0  0  0  0  0
  160.3300  209.7900  152.3350 N   0  0  0  0  0  0  0  0  0  0  0  0
  160.6040  211.6240  154.6330 N   0  0  0  0  0  0  0  0  0  0  0  0
  158.4630  210.6240  155.2950 C   0  0  0  0  0  0  0  0  0  0  0  0
  160.1120  211.5520  156.9770 C   0  0  0  0  0  3  0  0  0  0  0  0
  158.9370  210.7990  156.6670 N   0  0  0  0  0  0  0  0  0  0  0  0
  159.5180  210.9950  154.2820 C   0  0  0  0  0  0  0  0  0  0  0  0
  160.9090  211.9560  155.9930 C   0  0  0  0  0  3  0  0  0  0  0  0
  157.3370  211.4020  155.0980 F   0  0  0  0  0  0  0  0  0  0  0  0
  160.1670  213.5260  150.3240 C   0  0  0  0  0  0  0  0  0  0  0  0
  161.0000  214.4530  150.5120 O   0  0  0  0  0  0  0  0  0  0  0  0
  159.2830  213.2850  148.0770 N   0  0  0  0  0  0  0  0  0  0  0  0
  159.1620  213.6390  149.3000 N   0  0  0  0  0  0  0  0  0  0  0  0
  160.4940  212.7320  147.4810 C   0  0  0  0  0  2  0  0  0  0  0  0
  160.8660  213.5220  146.2410 C   0  0  0  0  0  2  0  0  0  0  0  0
  160.6900  212.6900  145.0670 N   0  0  0  0  0  1  0  0  0  0  0  0
  158.1990  213.9390  153.0790 C   0  0  0  0  0  1  0  0  0  0  0  0
  157.9310  212.7460  152.1790 C   0  0  0  0  0  2  0  0  0  0  0  0
  162.1080  207.0420  151.3490 C   0  0  0  0  0  2  0  0  0  0  0  0
  161.0000  207.1950  150.3210 C   0  0  0  0  0  2  0  0  0  0  0  0
  160.5790  204.4030  150.2900 O   0  0  0  0  0  0  0  0  0  0  0  0
  161.2660  206.3460  149.1690 N   0  0  0  0  0  0  0  0  0  0  0  0
  160.9850  204.9340  149.2220 C   0  0  0  0  0  0  0  0  0  0  0  0
  162.1180  204.6670  147.0150 C   0  0  0  0  0  2  0  0  0  0  0  0
  161.8460  206.1450  146.7800 C   0  0  0  0  0  2  0  0  0  0  0  0
  162.0620  206.9100  148.0810 C   0  0  0  0  0  2  0  0  0  0  0  0
  161.0900  204.0940  147.9850 C   0  0  0  0  0  2  0  0  0  0  0  0
  1 14  1  1  0  0  0
  2  9  1  0  0  0  0
  4  2  1  0  0  0  0
  4  8  1  0  0  0  0
  5 25  1  0  0  0  0
  5  1  1  0  0  0  0
  6  7  1  0  0  0  0
  6  2  2  0  0  0  0
  7  5  2  0  0  0  0
  8 26  1  6  0  0  0
  8  3  1  0  0  0  0
  9  1  1  0  0  0  0
  9  3  1  0  0  0  0
 10 15  1  0  0  0  0
 11 13  2  0  0  0  0
 13 12  1  0  0  0  0
 14 10  2  0  0  0  0
 14 11  1  0  0  0  0
 15 12  2  0  0  0  0
 16 11  1  0  0  0  0
 17 18  2  0  0  0  0
 17  7  1  0  0  0  0
 19 20  2  0  0  0  0
 20 17  1  0  0  0  0
 21 19  1  0  0  0  0
 22 21  1  0  0  0  0
 23 22  1  0  0  0  0
 25 24  1  0  0  0  0
 27 26  1  0  0  0  0
 29 30  1  0  0  0  0
 29 27  1  0  0  0  0
 30 28  2  0  0  0  0
 31 34  1  0  0  0  0
 32 31  1  0  0  0  0
 32 33  1  0  0  0  0
 33 29  1  0  0  0  0
 34 30  1  0  0  0  0
M  END
>  <MODEL>
4

>  <REMARK>
 VINA RESULT:      -5.3      2.007      2.597
  Name = 
  9 active torsions:
  status: ('A' for Active; 'I' for Inactive)
    1  A    between atoms: C_3  and  N_13
    2  A    between atoms: C_3  and  C_17
    3  A    between atoms: C_4  and  C_15
    4  A    between atoms: C_7  and  C_8
    5  A    between atoms: C_8  and  N_16
    6  A    between atoms: C_12  and  N_27
    7  A    between atoms: C_12  and  C_28
    8  A    between atoms: C_17  and  C_29
    9  A    between atoms: C_21  and  C_32
                            x       y       z     vdW  Elec       q    Type
                         _______ _______ _______ _____ _____    ______ ____

>  <TORSDO>
F 9

$$$$
=
 OpenBabel11062407453D

 34 37  0  0  1  0  0  0  0  0999 V2000
  162.3670  209.3730  151.2050 C   0  0  1  0  0  3  0  0  0  0  0  0
  161.6180  209.7440  148.8550 C   0  0  0  0  0  0  0  0  0  0  0  0
  162.5330  211.6010  149.8540 C   0  0  0  0  0  2  0  0  0  0  0  0
  161.3870  210.7560  147.9550 O   0  0  0  0  0  0  0  0  0  0  0  0
  162.0780  207.9080  150.9090 C   0  0  0  0  0  0  0  0  0  0  0  0
  161.2210  208.5220  148.7150 N   0  0  0  0  0  0  0  0  0  0  0  0
  161.5090  207.5310  149.7230 C   0  0  0  0  0  0  0  0  0  0  0  0
  161.9440  211.9650  148.4670 C   0  0  2  0  0  3  0  0  0  0  0  0
  162.3300  210.1670  149.9810 N   0  0  0  0  0  0  0  0  0  0  0  0
  160.1240  209.9500  151.9390 N   0  0  0  0  0  0  0  0  0  0  0  0
  161.9270  210.3860  153.5460 C   0  0  0  0  0  0  0  0  0  0  0  0
  159.5200  211.0360  153.9890 C   0  0  0  0  0  3  0  0  0  0  0  0
  160.9100  211.0960  154.3200 N   0  0  0  0  0  0  0  0  0  0  0  0
  161.3980  209.9200  152.2120 C   0  0  0  0  0  0  0  0  0  0  0  0
  159.1450  210.4750  152.8440 C   0  0  0  0  0  3  0  0  0  0  0  0
  162.3760  209.2980  154.2720 F   0  0  0  0  0  0  0  0  0  0  0  0
  161.1830  206.1230  149.3780 C   0  0  0  0  0  0  0  0  0  0  0  0
  160.2370  205.5180  149.9500 O   0  0  0  0  0  0  0  0  0  0  0  0
  161.7880  205.4890  147.1150 N   0  0  0  0  0  0  0  0  0  0  0  0
  161.9810  205.4610  148.3790 N   0  0  0  0  0  0  0  0  0  0  0  0
  160.6860  206.1740  146.4500 C   0  0  0  0  0  2  0  0  0  0  0  0
  160.6060  205.7390  145.0000 C   0  0  0  0  0  2  0  0  0  0  0  0
  160.9960  204.3460  144.8920 N   0  0  0  0  0  1  0  0  0  0  0  0
  161.2070  206.6500  152.8630 C   0  0  0  0  0  1  0  0  0  0  0  0
  162.4210  206.9340  151.9970 C   0  0  0  0  0  2  0  0  0  0  0  0
  163.0440  212.4490  147.5390 C   0  0  0  0  0  2  0  0  0  0  0  0
  162.5690  213.6500  146.7390 C   0  0  0  0  0  2  0  0  0  0  0  0
  163.7870  213.4620  144.1980 O   0  0  0  0  0  0  0  0  0  0  0  0
  161.8780  213.2080  145.5370 N   0  0  0  0  0  0  0  0  0  0  0  0
  162.5830  213.1010  144.2860 C   0  0  0  0  0  0  0  0  0  0  0  0
  160.4080  212.6670  143.1430 C   0  0  0  0  0  2  0  0  0  0  0  0
  159.8710  212.2210  144.4940 C   0  0  0  0  0  2  0  0  0  0  0  0
  160.4180  213.1400  145.5810 C   0  0  0  0  0  2  0  0  0  0  0  0
  161.9200  212.4790  143.0940 C   0  0  0  0  0  2  0  0  0  0  0  0
  1 14  1  1  0  0  0
  2  9  1  0  0  0  0
  3  9  1  0  0  0  0
  4  8  1  0  0  0  0
  4  2  1  0  0  0  0
  5  1  1  0  0  0  0
  5 25  1  0  0  0  0
  6  2  2  0  0  0  0
  6  7  1  0  0  0  0
  7  5  2  0  0  0  0
  8 26  1  6  0  0  0
  8  3  1  0  0  0  0
  9  1  1  0  0  0  0
 10 14  2  0  0  0  0
 10 15  1  0  0  0  0
 11 16  1  0  0  0  0
 11 13  2  0  0  0  0
 12 13  1  0  0  0  0
 14 11  1  0  0  0  0
 15 12  2  0  0  0  0
 17  7  1  0  0  0  0
 17 18  2  0  0  0  0
 19 20  2  0  0  0  0
 20 17  1  0  0  0  0
 21 19  1  0  0  0  0
 22 21  1  0  0  0  0
 23 22  1  0  0  0  0
 25 24  1  0  0  0  0
 27 26  1  0  0  0  0
 28 30  2  0  0  0  0
 29 33  1  0  0  0  0
 29 27  1  0  0  0  0
 30 29  1  0  0  0  0
 31 32  1  0  0  0  0
 32 33  1  0  0  0  0
 34 31  1  0  0  0  0
 34 30  1  0  0  0  0
M  END
>  <MODEL>
5

>  <REMARK>
 VINA RESULT:      -5.3      3.579      7.097
  Name = 
  9 active torsions:
  status: ('A' for Active; 'I' for Inactive)
    1  A    between atoms: C_3  and  N_13
    2  A    between atoms: C_3  and  C_17
    3  A    between atoms: C_4  and  C_15
    4  A    between atoms: C_7  and  C_8
    5  A    between atoms: C_8  and  N_16
    6  A    between atoms: C_12  and  N_27
    7  A    between atoms: C_12  and  C_28
    8  A    between atoms: C_17  and  C_29
    9  A    between atoms: C_21  and  C_32
                            x       y       z     vdW  Elec       q    Type
                         _______ _______ _______ _____ _____    ______ ____

>  <TORSDO>
F 9

$$$$
=
 OpenBabel11062407453D

 34 37  0  0  1  0  0  0  0  0999 V2000
  161.7330  210.4910  152.4820 C   0  0  1  0  0  3  0  0  0  0  0  0
  161.1150  208.1440  151.9040 C   0  0  0  0  0  0  0  0  0  0  0  0
  161.8040  209.4040  150.1090 C   0  0  0  0  0  2  0  0  0  0  0  0
  160.8620  207.3430  150.8170 O   0  0  0  0  0  0  0  0  0  0  0  0
  161.5860  210.0180  153.9210 C   0  0  0  0  0  0  0  0  0  0  0  0
  160.8310  207.8440  153.1280 N   0  0  0  0  0  0  0  0  0  0  0  0
  161.1320  208.7580  154.2030 C   0  0  0  0  0  0  0  0  0  0  0  0
  161.2820  208.0240  149.6350 C   0  0  2  0  0  3  0  0  0  0  0  0
  161.7120  209.3600  151.5590 N   0  0  0  0  0  0  0  0  0  0  0  0
  160.8000  212.2500  151.0890 N   0  0  0  0  0  0  0  0  0  0  0  0
  159.4000  211.5040  152.9620 C   0  0  0  0  0  0  0  0  0  0  0  0
  158.7430  213.4260  151.4490 C   0  0  0  0  0  3  0  0  0  0  0  0
  158.5560  212.6540  152.6380 N   0  0  0  0  0  0  0  0  0  0  0  0
  160.6560  211.4740  152.1260 C   0  0  0  0  0  0  0  0  0  0  0  0
  159.8220  213.2230  150.7000 C   0  0  0  0  0  3  0  0  0  0  0  0
  158.6820  210.3400  152.7640 F   0  0  0  0  0  0  0  0  0  0  0  0
  160.9470  208.2400  155.5830 C   0  0  0  0  0  0  0  0  0  0  0  0
  161.9200  207.7740  156.2360 O   0  0  0  0  0  0  0  0  0  0  0  0
  159.1320  209.2170  156.8650 N   0  0  0  0  0  0  0  0  0  0  0  0
  159.6280  208.2740  156.1560 N   0  0  0  0  0  0  0  0  0  0  0  0
  159.8420  210.4280  157.2600 C   0  0  0  0  0  2  0  0  0  0  0  0
  158.9750  211.6440  156.9950 C   0  0  0  0  0  2  0  0  0  0  0  0
  157.8490  211.2630  156.1650 N   0  0  0  0  0  1  0  0  0  0  0  0
  163.3040  210.7200  155.5680 C   0  0  0  0  0  1  0  0  0  0  0  0
  161.9350  211.0180  154.9840 C   0  0  0  0  0  2  0  0  0  0  0  0
  162.3980  207.2390  148.9680 C   0  0  0  0  0  2  0  0  0  0  0  0
  162.0290  206.9130  147.5310 C   0  0  0  0  0  2  0  0  0  0  0  0
  161.8890  205.5500  145.0630 O   0  0  0  0  0  0  0  0  0  0  0  0
  161.7310  205.4940  147.4020 N   0  0  0  0  0  0  0  0  0  0  0  0
  161.7200  204.8650  146.1070 C   0  0  0  0  0  0  0  0  0  0  0  0
  160.8120  202.7950  147.1640 C   0  0  0  0  0  2  0  0  0  0  0  0
  161.3960  203.2980  148.4760 C   0  0  0  0  0  2  0  0  0  0  0  0
  161.1910  204.8050  148.5730 C   0  0  0  0  0  2  0  0  0  0  0  0
  161.5900  203.3760  145.9890 C   0  0  0  0  0  2  0  0  0  0  0  0
  1 14  1  6  0  0  0
  1  5  1  0  0  0  0
  2  6  2  0  0  0  0
  3  9  1  0  0  0  0
  4  2  1  0  0  0  0
  5  7  2  0  0  0  0
  5 25  1  0  0  0  0
  6  7  1  0  0  0  0
  7 17  1  0  0  0  0
  8 26  1  1  0  0  0
  8  3  1  0  0  0  0
  8  4  1  0  0  0  0
  9  2  1  0  0  0  0
  9  1  1  0  0  0  0
 10 14  1  0  0  0  0
 12 13  2  0  0  0  0
 13 11  1  0  0  0  0
 14 11  2  0  0  0  0
 15 10  2  0  0  0  0
 15 12  1  0  0  0  0
 16 11  1  0  0  0  0
 17 20  1  0  0  0  0
 17 18  2  0  0  0  0
 19 21  1  0  0  0  0
 20 19  2  0  0  0  0
 22 21  1  0  0  0  0
 23 22  1  0  0  0  0
 25 24  1  0  0  0  0
 27 26  1  0  0  0  0
 28 30  2  0  0  0  0
 29 27  1  0  0  0  0
 29 33  1  0  0  0  0
 30 29  1  0  0  0  0
 31 32  1  0  0  0  0
 32 33  1  0  0  0  0
 34 30  1  0  0  0  0
 34 31  1  0  0  0  0
M  END
>  <MODEL>
6

>  <REMARK>
 VINA RESULT:      -5.0      2.321      4.910
  Name = 
  9 active torsions:
  status: ('A' for Active; 'I' for Inactive)
    1  A    between atoms: C_3  and  N_13
    2  A    between atoms: C_3  and  C_17
    3  A    between atoms: C_4  and  C_15
    4  A    between atoms: C_7  and  C_8
    5  A    between atoms: C_8  and  N_16
    6  A    between atoms: C_12  and  N_27
    7  A    between atoms: C_12  and  C_28
    8  A    between atoms: C_17  and  C_29
    9  A    between atoms: C_21  and  C_32
                            x       y       z     vdW  Elec       q    Type
                         _______ _______ _______ _____ _____    ______ ____

>  <TORSDO>
F 9

$$$$
=
 OpenBabel11062407453D

 34 37  0  0  1  0  0  0  0  0999 V2000
  161.7770  210.1270  152.9310 C   0  0  1  0  0  3  0  0  0  0  0  0
  160.8210  207.8290  152.7680 C   0  0  0  0  0  0  0  0  0  0  0  0
  161.7030  208.6220  150.7990 C   0  0  0  0  0  2  0  0  0  0  0  0
  160.4600  206.8860  151.8360 O   0  0  0  0  0  0  0  0  0  0  0  0
  161.5510  209.9540  154.4260 C   0  0  0  0  0  0  0  0  0  0  0  0
  160.4870  207.8040  154.0160 N   0  0  0  0  0  0  0  0  0  0  0  0
  160.9120  208.8480  154.9160 C   0  0  0  0  0  0  0  0  0  0  0  0
  160.9840  207.2690  150.5660 C   0  0  2  0  0  3  0  0  0  0  0  0
  161.5950  208.8610  152.2290 N   0  0  0  0  0  0  0  0  0  0  0  0
  161.1950  211.8130  151.2810 N   0  0  0  0  0  0  0  0  0  0  0  0
  159.5410  211.4250  153.0520 C   0  0  0  0  0  0  0  0  0  0  0  0
  159.2630  213.2300  151.2980 C   0  0  0  0  0  3  0  0  0  0  0  0
  158.8710  212.6140  152.5270 N   0  0  0  0  0  0  0  0  0  0  0  0
  160.8610  211.1730  152.3660 C   0  0  0  0  0  0  0  0  0  0  0  0
  160.3790  212.8350  150.6950 C   0  0  0  0  0  3  0  0  0  0  0  0
  158.7170  210.3270  152.8890 F   0  0  0  0  0  0  0  0  0  0  0  0
  160.6430  208.6250  156.3600 C   0  0  0  0  0  0  0  0  0  0  0  0
  160.6700  207.4660  156.8540 O   0  0  0  0  0  0  0  0  0  0  0  0
  159.2940  210.4990  157.1100 N   0  0  0  0  0  0  0  0  0  0  0  0
  160.3410  209.7670  157.1830 N   0  0  0  0  0  0  0  0  0  0  0  0
  158.2220  210.3310  156.1360 C   0  0  0  0  0  2  0  0  0  0  0  0
  157.3760  211.5880  156.0770 C   0  0  0  0  0  2  0  0  0  0  0  0
  156.4010  211.4650  155.0100 N   0  0  0  0  0  1  0  0  0  0  0  0
  163.4210  210.7610  155.8440 C   0  0  0  0  0  1  0  0  0  0  0  0
  162.0370  211.0710  155.3010 C   0  0  0  0  0  2  0  0  0  0  0  0
  161.9760  206.2210  150.0910 C   0  0  0  0  0  2  0  0  0  0  0  0
  161.4940  205.5840  148.7990 C   0  0  0  0  0  2  0  0  0  0  0  0
  161.5490  203.6440  146.7480 O   0  0  0  0  0  0  0  0  0  0  0  0
  161.2210  204.1700  149.0100 N   0  0  0  0  0  0  0  0  0  0  0  0
  161.3110  203.2370  147.9170 C   0  0  0  0  0  0  0  0  0  0  0  0
  160.3500  201.4720  149.3960 C   0  0  0  0  0  2  0  0  0  0  0  0
  160.8310  202.3030  150.5760 C   0  0  0  0  0  2  0  0  0  0  0  0
  160.6040  203.7810  150.2770 C   0  0  0  0  0  2  0  0  0  0  0  0
  161.2060  201.7630  148.1680 C   0  0  0  0  0  2  0  0  0  0  0  0
  1 14  1  6  0  0  0
  1  5  1  0  0  0  0
  2  6  2  0  0  0  0
  3  9  1  0  0  0  0
  4  2  1  0  0  0  0
  5  7  2  0  0  0  0
  5 25  1  0  0  0  0
  6  7  1  0  0  0  0
  7 17  1  0  0  0  0
  8 26  1  1  0  0  0
  8  3  1  0  0  0  0
  8  4  1  0  0  0  0
  9  2  1  0  0  0  0
  9  1  1  0  0  0  0
 10 14  1  0  0  0  0
 12 13  2  0  0  0  0
 13 11  1  0  0  0  0
 14 11  2  0  0  0  0
 15 10  2  0  0  0  0
 15 12  1  0  0  0  0
 16 11  1  0  0  0  0
 17 18  2  0  0  0  0
 17 20  1  0  0  0  0
 19 20  2  0  0  0  0
 21 19  1  0  0  0  0
 22 21  1  0  0  0  0
 23 22  1  0  0  0  0
 25 24  1  0  0  0  0
 27 29  1  0  0  0  0
 27 26  1  0  0  0  0
 28 30  2  0  0  0  0
 29 33  1  0  0  0  0
 30 34  1  0  0  0  0
 30 29  1  0  0  0  0
 31 32  1  0  0  0  0
 33 32  1  0  0  0  0
 34 31  1  0  0  0  0
M  END
>  <MODEL>
7

>  <REMARK>
 VINA RESULT:      -5.0      2.339      4.756
  Name = 
  9 active torsions:
  status: ('A' for Active; 'I' for Inactive)
    1  A    between atoms: C_3  and  N_13
    2  A    between atoms: C_3  and  C_17
    3  A    between atoms: C_4  and  C_15
    4  A    between atoms: C_7  and  C_8
    5  A    between atoms: C_8  and  N_16
    6  A    between atoms: C_12  and  N_27
    7  A    between atoms: C_12  and  C_28
    8  A    between atoms: C_17  and  C_29
    9  A    between atoms: C_21  and  C_32
                            x       y       z     vdW  Elec       q    Type
                         _______ _______ _______ _____ _____    ______ ____

>  <TORSDO>
F 9

$$$$
=
 OpenBabel11062407453D

 34 37  0  0  1  0  0  0  0  0999 V2000
  162.3320  209.2690  151.4050 C   0  0  1  0  0  3  0  0  0  0  0  0
  161.6080  209.5730  149.0370 C   0  0  0  0  0  0  0  0  0  0  0  0
  162.5270  211.4540  149.9880 C   0  0  0  0  0  2  0  0  0  0  0  0
  161.3930  210.5580  148.1040 O   0  0  0  0  0  0  0  0  0  0  0  0
  162.0350  207.7990  151.1520 C   0  0  0  0  0  0  0  0  0  0  0  0
  161.2050  208.3510  148.9310 N   0  0  0  0  0  0  0  0  0  0  0  0
  161.4750  207.3890  149.9720 C   0  0  0  0  0  0  0  0  0  0  0  0
  161.9540  211.7790  148.5850 C   0  0  2  0  0  3  0  0  0  0  0  0
  162.3120  210.0260  150.1570 N   0  0  0  0  0  0  0  0  0  0  0  0
  160.0900  209.9120  152.0860 N   0  0  0  0  0  0  0  0  0  0  0  0
  161.8710  210.3250  153.7230 C   0  0  0  0  0  0  0  0  0  0  0  0
  159.4730  211.0400  154.1080 C   0  0  0  0  0  3  0  0  0  0  0  0
  160.8560  211.0710  154.4670 N   0  0  0  0  0  0  0  0  0  0  0  0
  161.3570  209.8540  152.3850 C   0  0  0  0  0  0  0  0  0  0  0  0
  159.1060  210.4720  152.9640 C   0  0  0  0  0  3  0  0  0  0  0  0
  162.2780  209.2370  154.4720 F   0  0  0  0  0  0  0  0  0  0  0  0
  161.1430  205.9730  149.6670 C   0  0  0  0  0  0  0  0  0  0  0  0
  160.4120  205.2980  150.4400 O   0  0  0  0  0  0  0  0  0  0  0  0
  161.5840  204.1610  148.1140 N   0  0  0  0  0  0  0  0  0  0  0  0
  161.6830  205.3860  148.4690 N   0  0  0  0  0  0  0  0  0  0  0  0
  160.9300  203.1150  148.8900 C   0  0  0  0  0  2  0  0  0  0  0  0
  160.8150  201.8510  148.0600 C   0  0  0  0  0  2  0  0  0  0  0  0
  161.2180  200.7100  148.8590 N   0  0  0  0  0  1  0  0  0  0  0  0
  161.1470  206.6390  153.1580 C   0  0  0  0  0  1  0  0  0  0  0  0
  162.3610  206.8560  152.2720 C   0  0  0  0  0  2  0  0  0  0  0  0
  163.0670  212.2270  147.6530 C   0  0  0  0  0  2  0  0  0  0  0  0
  162.7040  213.5460  146.9930 C   0  0  0  0  0  2  0  0  0  0  0  0
  160.1050  212.9050  146.0940 O   0  0  0  0  0  0  0  0  0  0  0  0
  162.3580  213.3270  145.5960 N   0  0  0  0  0  0  0  0  0  0  0  0
  160.9980  213.0440  145.2160 C   0  0  0  0  0  0  0  0  0  0  0  0
  161.7870  212.5700  142.8970 C   0  0  0  0  0  2  0  0  0  0  0  0
  163.0080  213.4180  143.2180 C   0  0  0  0  0  2  0  0  0  0  0  0
  163.4540  213.1380  144.6480 C   0  0  0  0  0  2  0  0  0  0  0  0
  160.6110  212.9950  143.7690 C   0  0  0  0  0  2  0  0  0  0  0  0
  1 14  1  1  0  0  0
  2  9  1  0  0  0  0
  3  9  1  0  0  0  0
  4  8  1  0  0  0  0
  4  2  1  0  0  0  0
  5  1  1  0  0  0  0
  5 25  1  0  0  0  0
  6  2  2  0  0  0  0
  6  7  1  0  0  0  0
  7  5  2  0  0  0  0
  8 26  1  6  0  0  0
  8  3  1  0  0  0  0
  9  1  1  0  0  0  0
 10 14  2  0  0  0  0
 10 15  1  0  0  0  0
 11 13  2  0  0  0  0
 11 16  1  0  0  0  0
 12 13  1  0  0  0  0
 14 11  1  0  0  0  0
 15 12  2  0  0  0  0
 17  7  1  0  0  0  0
 17 18  2  0  0  0  0
 19 20  2  0  0  0  0
 19 21  1  0  0  0  0
 20 17  1  0  0  0  0
 22 23  1  0  0  0  0
 22 21  1  0  0  0  0
 25 24  1  0  0  0  0
 27 26  1  0  0  0  0
 29 27  1  0  0  0  0
 30 29  1  0  0  0  0
 30 28  2  0  0  0  0
 31 32  1  0  0  0  0
 31 34  1  0  0  0  0
 32 33  1  0  0  0  0
 33 29  1  0  0  0  0
 34 30  1  0  0  0  0
M  END
>  <MODEL>
8

>  <REMARK>
 VINA RESULT:      -4.8      3.614      7.394
  Name = 
  9 active torsions:
  status: ('A' for Active; 'I' for Inactive)
    1  A    between atoms: C_3  and  N_13
    2  A    between atoms: C_3  and  C_17
    3  A    between atoms: C_4  and  C_15
    4  A    between atoms: C_7  and  C_8
    5  A    between atoms: C_8  and  N_16
    6  A    between atoms: C_12  and  N_27
    7  A    between atoms: C_12  and  C_28
    8  A    between atoms: C_17  and  C_29
    9  A    between atoms: C_21  and  C_32
                            x       y       z     vdW  Elec       q    Type
                         _______ _______ _______ _____ _____    ______ ____

>  <TORSDO>
F 9

$$$$
=
 OpenBabel11062407453D

 34 37  0  0  1  0  0  0  0  0999 V2000
  160.6950  206.5720  148.5450 C   0  0  1  0  0  3  0  0  0  0  0  0
  162.1220  208.1150  149.8880 C   0  0  0  0  0  0  0  0  0  0  0  0
  161.2910  209.0450  147.9570 C   0  0  0  0  0  2  0  0  0  0  0  0
  162.7630  209.3270  149.7990 O   0  0  0  0  0  0  0  0  0  0  0  0
  160.8040  205.6560  149.7550 C   0  0  0  0  0  0  0  0  0  0  0  0
  162.3300  207.2320  150.8090 N   0  0  0  0  0  0  0  0  0  0  0  0
  161.6090  205.9830  150.8130 C   0  0  0  0  0  0  0  0  0  0  0  0
  162.2970  210.0090  148.6360 C   0  0  2  0  0  3  0  0  0  0  0  0
  161.2060  207.9030  148.8530 N   0  0  0  0  0  0  0  0  0  0  0  0
  162.4900  205.2710  147.5500 N   0  0  0  0  0  0  0  0  0  0  0  0
  160.8650  206.2340  145.9840 C   0  0  0  0  0  0  0  0  0  0  0  0
  162.9180  204.9690  145.2120 C   0  0  0  0  0  3  0  0  0  0  0  0
  161.7960  205.8110  144.9380 N   0  0  0  0  0  0  0  0  0  0  0  0
  161.4220  205.9950  147.3660 C   0  0  0  0  0  0  0  0  0  0  0  0
  163.2450  204.7040  146.4720 C   0  0  0  0  0  3  0  0  0  0  0  0
  159.6730  205.5480  145.8400 F   0  0  0  0  0  0  0  0  0  0  0  0
  161.7760  205.1270  152.0150 C   0  0  0  0  0  0  0  0  0  0  0  0
  162.7160  204.2910  152.0900 O   0  0  0  0  0  0  0  0  0  0  0  0
  160.7450  206.2560  153.9000 N   0  0  0  0  0  0  0  0  0  0  0  0
  160.8310  205.2680  153.0920 N   0  0  0  0  0  0  0  0  0  0  0  0
  161.6290  207.4160  153.9010 C   0  0  0  0  0  2  0  0  0  0  0  0
  160.8310  208.6730  154.1920 C   0  0  0  0  0  2  0  0  0  0  0  0
  160.6110  209.4020  152.9580 N   0  0  0  0  0  1  0  0  0  0  0  0
  160.9120  203.2080  149.3640 C   0  0  0  0  0  1  0  0  0  0  0  0
  160.0110  204.3840  149.6950 C   0  0  0  0  0  2  0  0  0  0  0  0
  161.5990  211.2930  149.0480 C   0  0  0  0  0  2  0  0  0  0  0  0
  162.0530  212.4470  148.1700 C   0  0  0  0  0  2  0  0  0  0  0  0
  162.7280  213.2150  145.5380 O   0  0  0  0  0  0  0  0  0  0  0  0
  161.0760  212.6890  147.1190 N   0  0  0  0  0  0  0  0  0  0  0  0
  161.5060  213.0380  145.7890 C   0  0  0  0  0  0  0  0  0  0  0  0
  159.1270  213.4860  145.1820 C   0  0  0  0  0  2  0  0  0  0  0  0
  158.7380  212.5780  146.3380 C   0  0  0  0  0  2  0  0  0  0  0  0
  159.6760  212.8300  147.5140 C   0  0  0  0  0  2  0  0  0  0  0  0
  160.5140  213.1130  144.6680 C   0  0  0  0  0  2  0  0  0  0  0  0
  1 14  1  6  0  0  0
  1  9  1  0  0  0  0
  1  5  1  0  0  0  0
  2  6  2  0  0  0  0
  3  8  1  0  0  0  0
  3  9  1  0  0  0  0
  4  2  1  0  0  0  0
  5  7  2  0  0  0  0
  6  7  1  0  0  0  0
  7 17  1  0  0  0  0
  8 26  1  1  0  0  0
  8  4  1  0  0  0  0
  9  2  1  0  0  0  0
 11 14  2  0  0  0  0
 12 15  1  0  0  0  0
 13 12  2  0  0  0  0
 13 11  1  0  0  0  0
 14 10  1  0  0  0  0
 15 10  2  0  0  0  0
 16 11  1  0  0  0  0
 17 18  2  0  0  0  0
 17 20  1  0  0  0  0
 19 21  1  0  0  0  0
 20 19  2  0  0  0  0
 21 22  1  0  0  0  0
 23 22  1  0  0  0  0
 24 25  1  0  0  0  0
 25  5  1  0  0  0  0
 27 26  1  0  0  0  0
 28 30  2  0  0  0  0
 29 33  1  0  0  0  0
 29 27  1  0  0  0  0
 30 29  1  0  0  0  0
 31 32  1  0  0  0  0
 32 33  1  0  0  0  0
 34 31  1  0  0  0  0
 34 30  1  0  0  0  0
M  END
>  <MODEL>
9

>  <REMARK>
 VINA RESULT:      -4.6      3.733      8.421
  Name = 
  9 active torsions:
  status: ('A' for Active; 'I' for Inactive)
    1  A    between atoms: C_3  and  N_13
    2  A    between atoms: C_3  and  C_17
    3  A    between atoms: C_4  and  C_15
    4  A    between atoms: C_7  and  C_8
    5  A    between atoms: C_8  and  N_16
    6  A    between atoms: C_12  and  N_27
    7  A    between atoms: C_12  and  C_28
    8  A    between atoms: C_17  and  C_29
    9  A    between atoms: C_21  and  C_32
                            x       y       z     vdW  Elec       q    Type
                         _______ _______ _______ _____ _____    ______ ____

>  <TORSDO>
F 9

$$$$
