=
 OpenBabel11062410513D

 32 35  0  0  1  0  0  0  0  0999 V2000
  160.7180  209.3650  155.0850 C   0  0  2  0  0  3  0  0  0  0  0  0
  161.5420  206.1290  151.2790 C   0  0  0  0  0  0  0  0  0  0  0  0
  161.1070  207.0890  153.4560 C   0  0  0  0  0  0  0  0  0  0  0  0
  160.9120  208.4700  151.4700 C   0  0  0  0  0  3  0  0  0  0  0  0
  160.5160  209.4200  153.6700 O   0  0  0  0  0  0  0  0  0  0  0  0
  162.8000  207.7520  148.7880 C   0  0  0  0  0  1  0  0  0  0  0  0
  161.2610  207.3710  150.6780 C   0  0  0  0  0  0  0  0  0  0  0  0
  161.3520  207.5140  149.1930 C   0  0  2  0  0  3  0  0  0  0  0  0
  161.2690  204.9110  149.0660 C   0  0  1  0  0  3  0  0  0  0  0  0
  160.3540  207.9780  155.6210 C   0  0  0  0  0  2  0  0  0  0  0  0
  160.8440  208.3310  152.8590 C   0  0  0  0  0  0  0  0  0  0  0  0
  160.9970  206.9650  154.8440 O   0  0  0  0  0  0  0  0  0  0  0  0
  160.7480  206.2640  148.5320 C   0  0  2  0  0  3  0  0  0  0  0  0
  161.4760  205.9960  152.6690 C   0  0  0  0  0  3  0  0  0  0  0  0
  161.9730  204.9650  150.4360 C   0  0  0  0  0  2  0  0  0  0  0  0
  159.9370  210.3370  155.7100 O   0  0  0  0  0  0  0  0  0  0  0  0
  160.4050  211.5510  155.2050 C   0  0  0  0  0  2  0  0  0  0  0  0
  159.2760  212.5640  155.1470 C   0  0  0  0  0  2  0  0  0  0  0  0
  156.7440  212.0320  155.6080 C   0  0  0  0  0  1  0  0  0  0  0  0
  157.8760  211.9000  154.1950 S   0  0  0  0  0  0  0  0  0  0  0  0
  160.6510  206.3390  147.0060 C   0  0  0  0  0  2  0  0  0  0  0  0
  161.2070  205.4730  144.6020 C   0  0  0  0  0  1  0  0  0  0  0  0
  162.1090  205.6410  146.1670 S   0  0  0  0  0  0  0  0  0  0  0  0
  160.2000  203.8140  149.0000 C   0  0  0  0  0  2  0  0  0  0  0  0
  160.7770  202.4640  148.9510 N   0  0  0  0  0  0  0  0  0  0  0  0
  161.5280  200.5260  147.5710 C   0  0  0  0  0  2  0  0  0  0  0  0
  160.8170  202.2410  146.5010 C   0  0  0  0  0  2  0  0  0  0  0  0
  161.5780  202.0310  147.7980 C   0  0  0  0  0  3  0  0  0  0  0  0
  160.7780  200.7440  146.2730 C   0  0  0  0  0  2  0  0  0  0  0  0
  160.9470  201.3150  151.1090 C   0  0  0  0  0  3  0  0  0  0  0  0
  160.4060  201.4470  149.8970 C   0  0  0  0  0  3  0  0  0  0  0  0
  161.9000  202.2000  151.5980 O   0  0  0  0  0  1  0  0  0  0  0  0
  1 10  1  0  0  0  0
  1 16  1  1  0  0  0
  2 14  1  0  0  0  0
  3 12  1  0  0  0  0
  4 11  2  0  0  0  0
  5  1  1  0  0  0  0
  7  2  2  0  0  0  0
  7  4  1  0  0  0  0
  8  6  1  1  0  0  0
  8  7  1  0  0  0  0
  9 24  1  1  0  0  0
  9 15  1  0  0  0  0
 11  3  1  0  0  0  0
 11  5  1  0  0  0  0
 12 10  1  0  0  0  0
 13 21  1  6  0  0  0
 13  9  1  0  0  0  0
 13  8  1  0  0  0  0
 14  3  2  0  0  0  0
 15  2  1  0  0  0  0
 17 16  1  0  0  0  0
 18 17  1  0  0  0  0
 20 18  1  0  0  0  0
 20 19  1  0  0  0  0
 22 23  1  0  0  0  0
 23 21  1  0  0  0  0
 25 24  1  0  0  0  0
 25 31  1  0  0  0  0
 26 28  1  0  0  0  0
 27 28  1  0  0  0  0
 28 25  1  0  0  0  0
 29 27  1  0  0  0  0
 29 26  1  0  0  0  0
 30 32  1  0  0  0  0
 31 30  2  0  0  0  0
M  END
>  <MODEL>
1

>  <REMARK>
 VINA RESULT:      -6.7      0.000      0.000
  Name = 
  10 active torsions:
  status: ('A' for Active; 'I' for Inactive)
    1  A    between atoms: C_2  and  O_24
    2  A    between atoms: S_5  and  C_25
    3  A    between atoms: C_7  and  N_32
    4  A    between atoms: C_10  and  C_20
    5  A    between atoms: C_10  and  O_24
    6  A    between atoms: C_16  and  C_27
    7  A    between atoms: S_17  and  C_20
    8  A    between atoms: C_22  and  N_32
    9  A    between atoms: C_25  and  C_26
   10  A    between atoms: C_27  and  N_32
                            x       y       z     vdW  Elec       q    Type
                         _______ _______ _______ _____ _____    ______ ____

>  <TORSDO>
F 10

$$$$
=
 OpenBabel11062410513D

 32 35  0  0  1  0  0  0  0  0999 V2000
  160.9670  208.9190  154.8980 C   0  0  2  0  0  3  0  0  0  0  0  0
  161.5720  205.9160  150.8670 C   0  0  0  0  0  0  0  0  0  0  0  0
  161.2040  206.7450  153.1100 C   0  0  0  0  0  0  0  0  0  0  0  0
  161.0990  208.2740  151.2280 C   0  0  0  0  0  3  0  0  0  0  0  0
  160.7680  209.0880  153.4930 O   0  0  0  0  0  0  0  0  0  0  0  0
  162.9320  207.6270  148.4910 C   0  0  0  0  0  1  0  0  0  0  0  0
  161.3730  207.2140  150.3580 C   0  0  0  0  0  0  0  0  0  0  0  0
  161.4720  207.4560  148.8860 C   0  0  2  0  0  3  0  0  0  0  0  0
  161.2180  204.8800  148.5740 C   0  0  1  0  0  3  0  0  0  0  0  0
  160.5130  207.5240  155.3360 C   0  0  0  0  0  2  0  0  0  0  0  0
  161.0220  208.0410  152.6040 C   0  0  0  0  0  0  0  0  0  0  0  0
  161.0880  206.5290  154.4850 O   0  0  0  0  0  0  0  0  0  0  0  0
  160.7870  206.2990  148.1410 C   0  0  2  0  0  3  0  0  0  0  0  0
  161.4990  205.6880  152.2440 C   0  0  0  0  0  3  0  0  0  0  0  0
  161.9250  204.7900  149.9410 C   0  0  0  0  0  2  0  0  0  0  0  0
  160.2520  209.8920  155.5960 O   0  0  0  0  0  0  0  0  0  0  0  0
  160.6560  211.1040  155.0330 C   0  0  0  0  0  2  0  0  0  0  0  0
  159.7140  212.2170  155.4540 C   0  0  0  0  0  2  0  0  0  0  0  0
  157.4330  211.6590  154.2750 C   0  0  0  0  0  1  0  0  0  0  0  0
  158.1060  211.5320  155.9560 S   0  0  0  0  0  0  0  0  0  0  0  0
  160.6930  206.4890  146.6250 C   0  0  0  0  0  2  0  0  0  0  0  0
  161.1180  205.5150  144.2360 C   0  0  0  0  0  1  0  0  0  0  0  0
  162.1110  205.7760  145.7310 S   0  0  0  0  0  0  0  0  0  0  0  0
  160.0790  203.8630  148.4360 C   0  0  0  0  0  2  0  0  0  0  0  0
  160.5270  202.5870  147.8610 N   0  0  0  0  0  0  0  0  0  0  0  0
  161.6800  200.7180  149.0440 C   0  0  0  0  0  2  0  0  0  0  0  0
  160.0080  201.6000  150.0540 C   0  0  0  0  0  2  0  0  0  0  0  0
  160.3580  201.3300  148.6010 C   0  0  0  0  0  3  0  0  0  0  0  0
  161.3200  200.9820  150.4920 C   0  0  0  0  0  2  0  0  0  0  0  0
  160.9200  202.0740  145.4970 C   0  0  0  0  0  3  0  0  0  0  0  0
  161.3400  202.5340  146.6760 C   0  0  0  0  0  3  0  0  0  0  0  0
  159.6150  201.6450  145.2890 O   0  0  0  0  0  1  0  0  0  0  0  0
  1 10  1  0  0  0  0
  1 16  1  1  0  0  0
  2 14  1  0  0  0  0
  3 12  1  0  0  0  0
  4 11  2  0  0  0  0
  5  1  1  0  0  0  0
  7  2  2  0  0  0  0
  7  4  1  0  0  0  0
  8  6  1  6  0  0  0
  8  7  1  0  0  0  0
  9 24  1  1  0  0  0
  9 15  1  0  0  0  0
 11  3  1  0  0  0  0
 11  5  1  0  0  0  0
 12 10  1  0  0  0  0
 13 21  1  6  0  0  0
 13  9  1  0  0  0  0
 13  8  1  0  0  0  0
 14  3  2  0  0  0  0
 15  2  1  0  0  0  0
 17 18  1  0  0  0  0
 17 16  1  0  0  0  0
 18 20  1  0  0  0  0
 19 20  1  0  0  0  0
 22 23  1  0  0  0  0
 23 21  1  0  0  0  0
 25 24  1  0  0  0  0
 25 28  1  0  0  0  0
 26 29  1  0  0  0  0
 27 29  1  0  0  0  0
 28 26  1  0  0  0  0
 28 27  1  0  0  0  0
 30 31  2  0  0  0  0
 31 25  1  0  0  0  0
 32 30  1  0  0  0  0
M  END
>  <MODEL>
2

>  <REMARK>
 VINA RESULT:      -6.3      1.410      2.081
  Name = 
  10 active torsions:
  status: ('A' for Active; 'I' for Inactive)
    1  A    between atoms: C_2  and  O_24
    2  A    between atoms: S_5  and  C_25
    3  A    between atoms: C_7  and  N_32
    4  A    between atoms: C_10  and  C_20
    5  A    between atoms: C_10  and  O_24
    6  A    between atoms: C_16  and  C_27
    7  A    between atoms: S_17  and  C_20
    8  A    between atoms: C_22  and  N_32
    9  A    between atoms: C_25  and  C_26
   10  A    between atoms: C_27  and  N_32
                            x       y       z     vdW  Elec       q    Type
                         _______ _______ _______ _____ _____    ______ ____

>  <TORSDO>
F 10

$$$$
=
 OpenBabel11062410513D

 32 35  0  0  1  0  0  0  0  0999 V2000
  161.6950  206.0390  148.6980 C   0  0  2  0  0  3  0  0  0  0  0  0
  161.6460  209.4940  152.3980 C   0  0  0  0  0  0  0  0  0  0  0  0
  161.8570  208.3900  150.2570 C   0  0  0  0  0  0  0  0  0  0  0  0
  160.7420  207.2580  152.0900 C   0  0  0  0  0  3  0  0  0  0  0  0
  160.9980  206.1560  149.9410 O   0  0  0  0  0  0  0  0  0  0  0  0
  161.6470  207.9700  155.2440 C   0  0  0  0  0  1  0  0  0  0  0  0
  160.9660  208.3710  152.9070 C   0  0  0  0  0  0  0  0  0  0  0  0
  160.4990  208.3680  154.3270 C   0  0  2  0  0  3  0  0  0  0  0  0
  160.8140  210.9560  154.3030 C   0  0  1  0  0  3  0  0  0  0  0  0
  161.7830  207.4030  148.0070 C   0  0  0  0  0  2  0  0  0  0  0  0
  161.1940  207.2640  150.7690 C   0  0  0  0  0  0  0  0  0  0  0  0
  162.2690  208.3880  148.9210 O   0  0  0  0  0  0  0  0  0  0  0  0
  159.9190  209.7510  154.6660 C   0  0  2  0  0  3  0  0  0  0  0  0
  162.1000  209.4950  151.0760 C   0  0  0  0  0  3  0  0  0  0  0  0
  161.9390  210.6650  153.2900 C   0  0  0  0  0  2  0  0  0  0  0  0
  161.0350  205.1290  147.8720 O   0  0  0  0  0  0  0  0  0  0  0  0
  161.1830  203.8960  148.5100 C   0  0  0  0  0  2  0  0  0  0  0  0
  161.0710  202.7680  147.5000 C   0  0  0  0  0  2  0  0  0  0  0  0
  160.5800  201.9490  149.9490 C   0  0  0  0  0  1  0  0  0  0  0  0
  160.9380  201.1660  148.3510 S   0  0  0  0  0  0  0  0  0  0  0  0
  159.2750  209.8440  156.0530 C   0  0  0  0  0  2  0  0  0  0  0  0
  159.1550  212.1600  157.2610 C   0  0  0  0  0  1  0  0  0  0  0  0
  160.3010  210.7540  157.2520 S   0  0  0  0  0  0  0  0  0  0  0  0
  159.9920  212.1940  153.9260 C   0  0  0  0  0  2  0  0  0  0  0  0
  158.7970  211.8610  153.1390 N   0  0  0  0  0  0  0  0  0  0  0  0
  157.9270  213.3830  151.3650 C   0  0  0  0  0  2  0  0  0  0  0  0
  160.0020  212.8620  151.2420 C   0  0  0  0  0  2  0  0  0  0  0  0
  158.7450  212.1420  151.6990 C   0  0  0  0  0  3  0  0  0  0  0  0
  159.1830  214.0900  150.9020 C   0  0  0  0  0  2  0  0  0  0  0  0
  156.7800  212.2850  154.4650 C   0  0  0  0  0  3  0  0  0  0  0  0
  157.5640  211.4640  153.7650 C   0  0  0  0  0  3  0  0  0  0  0  0
  157.0610  213.6380  154.6100 O   0  0  0  0  0  1  0  0  0  0  0  0
  1 16  1  6  0  0  0
  1  5  1  0  0  0  0
  2  7  1  0  0  0  0
  2 15  1  0  0  0  0
  3 11  2  0  0  0  0
  3 14  1  0  0  0  0
  4  7  2  0  0  0  0
  5 11  1  0  0  0  0
  7  8  1  0  0  0  0
  8 13  1  0  0  0  0
  8  6  1  1  0  0  0
  9 24  1  6  0  0  0
  9 13  1  0  0  0  0
 10  1  1  0  0  0  0
 10 12  1  0  0  0  0
 11  4  1  0  0  0  0
 12  3  1  0  0  0  0
 13 21  1  1  0  0  0
 14  2  2  0  0  0  0
 15  9  1  0  0  0  0
 16 17  1  0  0  0  0
 18 20  1  0  0  0  0
 18 17  1  0  0  0  0
 20 19  1  0  0  0  0
 21 23  1  0  0  0  0
 23 22  1  0  0  0  0
 25 31  1  0  0  0  0
 25 24  1  0  0  0  0
 26 28  1  0  0  0  0
 27 28  1  0  0  0  0
 28 25  1  0  0  0  0
 29 27  1  0  0  0  0
 29 26  1  0  0  0  0
 30 32  1  0  0  0  0
 31 30  2  0  0  0  0
M  END
>  <MODEL>
3

>  <REMARK>
 VINA RESULT:      -5.6      3.300      9.468
  Name = 
  10 active torsions:
  status: ('A' for Active; 'I' for Inactive)
    1  A    between atoms: C_2  and  O_24
    2  A    between atoms: S_5  and  C_25
    3  A    between atoms: C_7  and  N_32
    4  A    between atoms: C_10  and  C_20
    5  A    between atoms: C_10  and  O_24
    6  A    between atoms: C_16  and  C_27
    7  A    between atoms: S_17  and  C_20
    8  A    between atoms: C_22  and  N_32
    9  A    between atoms: C_25  and  C_26
   10  A    between atoms: C_27  and  N_32
                            x       y       z     vdW  Elec       q    Type
                         _______ _______ _______ _____ _____    ______ ____

>  <TORSDO>
F 10

$$$$
=
 OpenBabel11062410513D

 32 35  0  0  1  0  0  0  0  0999 V2000
  161.9480  204.5870  151.6180 C   0  0  2  0  0  3  0  0  0  0  0  0
  160.6650  209.3530  152.7460 C   0  0  0  0  0  0  0  0  0  0  0  0
  161.0750  207.2740  151.5800 C   0  0  0  0  0  0  0  0  0  0  0  0
  161.0720  207.3140  154.0060 C   0  0  0  0  0  3  0  0  0  0  0  0
  161.5170  205.2460  152.8120 O   0  0  0  0  0  0  0  0  0  0  0  0
  161.9630  210.1330  155.5970 C   0  0  0  0  0  1  0  0  0  0  0  0
  160.7940  208.6840  153.9780 C   0  0  0  0  0  0  0  0  0  0  0  0
  160.6480  209.4480  155.2560 C   0  0  2  0  0  3  0  0  0  0  0  0
  159.5090  211.3280  153.8520 C   0  0  1  0  0  3  0  0  0  0  0  0
  161.1700  205.1150  150.4100 C   0  0  0  0  0  2  0  0  0  0  0  0
  161.2200  206.6110  152.8080 C   0  0  0  0  0  0  0  0  0  0  0  0
  161.1930  206.5440  150.3940 O   0  0  0  0  0  0  0  0  0  0  0  0
  159.4810  210.4390  155.1150 C   0  0  2  0  0  3  0  0  0  0  0  0
  160.8180  208.6470  151.5490 C   0  0  0  0  0  3  0  0  0  0  0  0
  160.4250  210.8340  152.7150 C   0  0  0  0  0  2  0  0  0  0  0  0
  161.7540  203.2110  151.7440 O   0  0  0  0  0  0  0  0  0  0  0  0
  160.8070  202.8940  150.7690 C   0  0  0  0  0  2  0  0  0  0  0  0
  161.0720  201.5060  150.2150 C   0  0  0  0  0  2  0  0  0  0  0  0
  161.3420  202.7400  147.9100 C   0  0  0  0  0  1  0  0  0  0  0  0
  160.3700  201.3440  148.5450 S   0  0  0  0  0  0  0  0  0  0  0  0
  159.1310  211.1910  156.4020 C   0  0  0  0  0  2  0  0  0  0  0  0
  159.4940  213.6340  157.2600 C   0  0  0  0  0  1  0  0  0  0  0  0
  160.5280  212.1570  157.0610 S   0  0  0  0  0  0  0  0  0  0  0  0
  158.1010  211.6780  153.3600 C   0  0  0  0  0  2  0  0  0  0  0  0
  157.8330  213.1220  153.3940 N   0  0  0  0  0  0  0  0  0  0  0  0
  159.6040  214.1400  151.9620 C   0  0  0  0  0  2  0  0  0  0  0  0
  157.9920  213.1670  150.9390 C   0  0  0  0  0  2  0  0  0  0  0  0
  158.1140  213.9660  152.2250 C   0  0  0  0  0  3  0  0  0  0  0  0
  159.4720  213.3510  150.6760 C   0  0  0  0  0  2  0  0  0  0  0  0
  156.2750  214.1880  154.9570 C   0  0  0  0  0  3  0  0  0  0  0  0
  157.5060  213.8030  154.6180 C   0  0  0  0  0  3  0  0  0  0  0  0
  155.1650  213.9120  154.1670 O   0  0  0  0  0  1  0  0  0  0  0  0
  1 16  1  1  0  0  0
  1  5  1  0  0  0  0
  2  7  1  0  0  0  0
  3 11  2  0  0  0  0
  7  4  2  0  0  0  0
  7  8  1  0  0  0  0
  8  6  1  6  0  0  0
  9 24  1  6  0  0  0
  9 13  1  0  0  0  0
 10  1  1  0  0  0  0
 11  5  1  0  0  0  0
 11  4  1  0  0  0  0
 12 10  1  0  0  0  0
 12  3  1  0  0  0  0
 13  8  1  0  0  0  0
 13 21  1  1  0  0  0
 14  3  1  0  0  0  0
 14  2  2  0  0  0  0
 15  2  1  0  0  0  0
 15  9  1  0  0  0  0
 17 16  1  0  0  0  0
 18 17  1  0  0  0  0
 19 20  1  0  0  0  0
 20 18  1  0  0  0  0
 21 23  1  0  0  0  0
 23 22  1  0  0  0  0
 24 25  1  0  0  0  0
 25 31  1  0  0  0  0
 26 28  1  0  0  0  0
 27 28  1  0  0  0  0
 28 25  1  0  0  0  0
 29 27  1  0  0  0  0
 29 26  1  0  0  0  0
 31 30  2  0  0  0  0
 32 30  1  0  0  0  0
M  END
>  <MODEL>
4

>  <REMARK>
 VINA RESULT:      -5.4      3.369      9.804
  Name = 
  10 active torsions:
  status: ('A' for Active; 'I' for Inactive)
    1  A    between atoms: C_2  and  O_24
    2  A    between atoms: S_5  and  C_25
    3  A    between atoms: C_7  and  N_32
    4  A    between atoms: C_10  and  C_20
    5  A    between atoms: C_10  and  O_24
    6  A    between atoms: C_16  and  C_27
    7  A    between atoms: S_17  and  C_20
    8  A    between atoms: C_22  and  N_32
    9  A    between atoms: C_25  and  C_26
   10  A    between atoms: C_27  and  N_32
                            x       y       z     vdW  Elec       q    Type
                         _______ _______ _______ _____ _____    ______ ____

>  <TORSDO>
F 10

$$$$
=
 OpenBabel11062410513D

 32 35  0  0  1  0  0  0  0  0999 V2000
  161.6740  205.3730  150.2380 C   0  0  2  0  0  3  0  0  0  0  0  0
  161.5730  209.5260  153.1320 C   0  0  0  0  0  0  0  0  0  0  0  0
  161.7870  208.0020  151.2660 C   0  0  0  0  0  0  0  0  0  0  0  0
  160.7310  207.2530  153.3170 C   0  0  0  0  0  3  0  0  0  0  0  0
  160.9900  205.7310  151.4420 O   0  0  0  0  0  0  0  0  0  0  0  0
  161.6560  208.6350  156.2330 C   0  0  0  0  0  1  0  0  0  0  0  0
  160.9330  208.5180  153.8780 C   0  0  0  0  0  0  0  0  0  0  0  0
  160.4850  208.8010  155.2760 C   0  0  2  0  0  3  0  0  0  0  0  0
  160.7240  211.3340  154.7040 C   0  0  1  0  0  3  0  0  0  0  0  0
  161.7120  206.5630  149.2750 C   0  0  0  0  0  2  0  0  0  0  0  0
  161.1650  206.9930  152.0150 C   0  0  0  0  0  0  0  0  0  0  0  0
  162.1810  207.7300  149.9530 O   0  0  0  0  0  0  0  0  0  0  0  0
  159.8700  210.2090  155.3290 C   0  0  2  0  0  3  0  0  0  0  0  0
  162.0090  209.2610  151.8310 C   0  0  0  0  0  3  0  0  0  0  0  0
  161.8430  210.8660  153.7520 C   0  0  0  0  0  2  0  0  0  0  0  0
  161.0290  204.2930  149.6340 O   0  0  0  0  0  0  0  0  0  0  0  0
  161.0510  204.5830  148.2690 C   0  0  0  0  0  2  0  0  0  0  0  0
  161.5980  203.4000  147.4910 C   0  0  0  0  0  2  0  0  0  0  0  0
  161.2230  205.4300  145.8640 C   0  0  0  0  0  1  0  0  0  0  0  0
  161.3100  203.6230  145.7090 S   0  0  0  0  0  0  0  0  0  0  0  0
  159.2420  210.5750  156.6770 C   0  0  0  0  0  2  0  0  0  0  0  0
  158.0090  212.8130  157.2330 C   0  0  0  0  0  1  0  0  0  0  0  0
  159.7270  212.2320  157.2590 S   0  0  0  0  0  0  0  0  0  0  0  0
  159.8610  212.4430  154.0920 C   0  0  0  0  0  2  0  0  0  0  0  0
  158.8550  211.9250  153.1560 N   0  0  0  0  0  0  0  0  0  0  0  0
  158.0980  213.2700  151.1960 C   0  0  0  0  0  2  0  0  0  0  0  0
  160.2120  212.9930  151.4040 C   0  0  0  0  0  2  0  0  0  0  0  0
  158.9880  212.1470  151.7100 C   0  0  0  0  0  3  0  0  0  0  0  0
  159.3230  214.1040  150.8850 C   0  0  0  0  0  2  0  0  0  0  0  0
  156.6170  212.1180  154.1380 C   0  0  0  0  0  3  0  0  0  0  0  0
  157.6020  211.3870  153.6130 C   0  0  0  0  0  3  0  0  0  0  0  0
  156.6940  213.5020  154.2420 O   0  0  0  0  0  1  0  0  0  0  0  0
  1 16  1  6  0  0  0
  1  5  1  0  0  0  0
  2 15  1  0  0  0  0
  2  7  1  0  0  0  0
  3 14  1  0  0  0  0
  3 11  2  0  0  0  0
  4  7  2  0  0  0  0
  5 11  1  0  0  0  0
  7  8  1  0  0  0  0
  8 13  1  0  0  0  0
  8  6  1  1  0  0  0
  9 24  1  6  0  0  0
  9 13  1  0  0  0  0
 10 12  1  0  0  0  0
 10  1  1  0  0  0  0
 11  4  1  0  0  0  0
 12  3  1  0  0  0  0
 13 21  1  1  0  0  0
 14  2  2  0  0  0  0
 15  9  1  0  0  0  0
 17 16  1  0  0  0  0
 18 17  1  0  0  0  0
 20 19  1  0  0  0  0
 20 18  1  0  0  0  0
 21 23  1  0  0  0  0
 22 23  1  0  0  0  0
 25 31  1  0  0  0  0
 25 24  1  0  0  0  0
 26 28  1  0  0  0  0
 27 28  1  0  0  0  0
 28 25  1  0  0  0  0
 29 26  1  0  0  0  0
 29 27  1  0  0  0  0
 30 32  1  0  0  0  0
 31 30  2  0  0  0  0
M  END
>  <MODEL>
5

>  <REMARK>
 VINA RESULT:      -5.1      3.057      9.506
  Name = 
  10 active torsions:
  status: ('A' for Active; 'I' for Inactive)
    1  A    between atoms: C_2  and  O_24
    2  A    between atoms: S_5  and  C_25
    3  A    between atoms: C_7  and  N_32
    4  A    between atoms: C_10  and  C_20
    5  A    between atoms: C_10  and  O_24
    6  A    between atoms: C_16  and  C_27
    7  A    between atoms: S_17  and  C_20
    8  A    between atoms: C_22  and  N_32
    9  A    between atoms: C_25  and  C_26
   10  A    between atoms: C_27  and  N_32
                            x       y       z     vdW  Elec       q    Type
                         _______ _______ _______ _____ _____    ______ ____

>  <TORSDO>
F 10

$$$$
=
 OpenBabel11062410513D

 32 35  0  0  1  0  0  0  0  0999 V2000
  161.7320  204.4830  151.2510 C   0  0  2  0  0  3  0  0  0  0  0  0
  160.8770  209.3620  152.2960 C   0  0  0  0  0  0  0  0  0  0  0  0
  161.2180  207.2590  151.1510 C   0  0  0  0  0  0  0  0  0  0  0  0
  160.8110  207.2760  153.5430 C   0  0  0  0  0  3  0  0  0  0  0  0
  161.1920  205.1800  152.3760 O   0  0  0  0  0  0  0  0  0  0  0  0
  161.7640  209.9440  155.3450 C   0  0  0  0  0  1  0  0  0  0  0  0
  160.7130  208.6710  153.5110 C   0  0  0  0  0  0  0  0  0  0  0  0
  160.4500  209.4350  154.7690 C   0  0  2  0  0  3  0  0  0  0  0  0
  159.8050  211.4570  153.2550 C   0  0  1  0  0  3  0  0  0  0  0  0
  161.2400  205.1160  149.9470 C   0  0  0  0  0  2  0  0  0  0  0  0
  161.0710  206.5710  152.3650 C   0  0  0  0  0  0  0  0  0  0  0  0
  161.4420  206.5300  149.9790 O   0  0  0  0  0  0  0  0  0  0  0  0
  159.4550  210.5670  154.4680 C   0  0  2  0  0  3  0  0  0  0  0  0
  161.1410  208.6540  151.1200 C   0  0  0  0  0  3  0  0  0  0  0  0
  160.8310  210.8620  152.2700 C   0  0  0  0  0  2  0  0  0  0  0  0
  161.3520  203.1410  151.3010 O   0  0  0  0  0  0  0  0  0  0  0  0
  161.2300  202.7550  149.9650 C   0  0  0  0  0  2  0  0  0  0  0  0
  160.7500  201.3180  149.8770 C   0  0  0  0  0  2  0  0  0  0  0  0
  160.6610  201.7820  147.2920 C   0  0  0  0  0  1  0  0  0  0  0  0
  161.3960  200.5240  148.3740 S   0  0  0  0  0  0  0  0  0  0  0  0
  158.9900  211.3450  155.7020 C   0  0  0  0  0  2  0  0  0  0  0  0
  158.5700  213.8840  156.1670 C   0  0  0  0  0  1  0  0  0  0  0  0
  160.0230  212.8040  156.0520 S   0  0  0  0  0  0  0  0  0  0  0  0
  158.5540  211.9880  152.5470 C   0  0  0  0  0  2  0  0  0  0  0  0
  158.8670  212.9920  151.5210 N   0  0  0  0  0  0  0  0  0  0  0  0
  160.1220  212.8050  149.3740 C   0  0  0  0  0  2  0  0  0  0  0  0
  160.6410  214.4530  150.6430 C   0  0  0  0  0  2  0  0  0  0  0  0
  160.1880  213.0230  150.8800 C   0  0  0  0  0  3  0  0  0  0  0  0
  160.5840  214.2290  149.1450 C   0  0  0  0  0  2  0  0  0  0  0  0
  157.0380  214.1170  150.3390 C   0  0  0  0  0  3  0  0  0  0  0  0
  157.9980  214.1090  151.2650 C   0  0  0  0  0  3  0  0  0  0  0  0
  156.7490  213.0040  149.5600 O   0  0  0  0  0  1  0  0  0  0  0  0
  1 16  1  1  0  0  0
  1  5  1  0  0  0  0
  2  7  1  0  0  0  0
  3 11  2  0  0  0  0
  7  4  2  0  0  0  0
  7  8  1  0  0  0  0
  8  6  1  6  0  0  0
  9 24  1  6  0  0  0
  9 13  1  0  0  0  0
 10 12  1  0  0  0  0
 10  1  1  0  0  0  0
 11  5  1  0  0  0  0
 11  4  1  0  0  0  0
 12  3  1  0  0  0  0
 13  8  1  0  0  0  0
 13 21  1  1  0  0  0
 14  3  1  0  0  0  0
 14  2  2  0  0  0  0
 15  2  1  0  0  0  0
 15  9  1  0  0  0  0
 17 16  1  0  0  0  0
 18 17  1  0  0  0  0
 19 20  1  0  0  0  0
 20 18  1  0  0  0  0
 21 23  1  0  0  0  0
 23 22  1  0  0  0  0
 25 24  1  0  0  0  0
 26 28  1  0  0  0  0
 27 28  1  0  0  0  0
 28 25  1  0  0  0  0
 29 26  1  0  0  0  0
 29 27  1  0  0  0  0
 30 31  2  0  0  0  0
 31 25  1  0  0  0  0
 32 30  1  0  0  0  0
M  END
>  <MODEL>
6

>  <REMARK>
 VINA RESULT:      -4.9      3.667      9.560
  Name = 
  10 active torsions:
  status: ('A' for Active; 'I' for Inactive)
    1  A    between atoms: C_2  and  O_24
    2  A    between atoms: S_5  and  C_25
    3  A    between atoms: C_7  and  N_32
    4  A    between atoms: C_10  and  C_20
    5  A    between atoms: C_10  and  O_24
    6  A    between atoms: C_16  and  C_27
    7  A    between atoms: S_17  and  C_20
    8  A    between atoms: C_22  and  N_32
    9  A    between atoms: C_25  and  C_26
   10  A    between atoms: C_27  and  N_32
                            x       y       z     vdW  Elec       q    Type
                         _______ _______ _______ _____ _____    ______ ____

>  <TORSDO>
F 10

$$$$
=
 OpenBabel11062410513D

 32 35  0  0  1  0  0  0  0  0999 V2000
  161.8480  205.3650  148.2130 C   0  0  2  0  0  3  0  0  0  0  0  0
  161.4490  208.8740  151.8410 C   0  0  0  0  0  0  0  0  0  0  0  0
  161.6930  207.7560  149.7090 C   0  0  0  0  0  0  0  0  0  0  0  0
  160.9550  206.5000  151.6500 C   0  0  0  0  0  3  0  0  0  0  0  0
  161.2420  205.3930  149.5080 O   0  0  0  0  0  0  0  0  0  0  0  0
  161.9580  207.4720  154.7040 C   0  0  0  0  0  1  0  0  0  0  0  0
  161.0320  207.6620  152.4250 C   0  0  0  0  0  0  0  0  0  0  0  0
  160.6870  207.6200  153.8790 C   0  0  2  0  0  3  0  0  0  0  0  0
  160.5130  210.2210  153.7820 C   0  0  1  0  0  3  0  0  0  0  0  0
  161.6260  206.6970  147.4920 C   0  0  0  0  0  2  0  0  0  0  0  0
  161.2930  206.5460  150.2960 C   0  0  0  0  0  0  0  0  0  0  0  0
  161.9910  207.7850  148.3450 O   0  0  0  0  0  0  0  0  0  0  0  0
  159.8890  208.8840  154.2410 C   0  0  2  0  0  3  0  0  0  0  0  0
  161.7900  208.9140  150.4860 C   0  0  0  0  0  3  0  0  0  0  0  0
  161.5890  210.1080  152.6830 C   0  0  0  0  0  2  0  0  0  0  0  0
  161.3060  204.3220  147.4620 O   0  0  0  0  0  0  0  0  0  0  0  0
  161.7070  204.5810  146.1500 C   0  0  0  0  0  2  0  0  0  0  0  0
  161.2570  203.4580  145.2330 C   0  0  0  0  0  2  0  0  0  0  0  0
  159.7680  201.3200  144.8860 C   0  0  0  0  0  1  0  0  0  0  0  0
  160.8290  201.9800  146.2030 S   0  0  0  0  0  0  0  0  0  0  0  0
  159.3510  208.9030  155.6740 C   0  0  0  0  0  2  0  0  0  0  0  0
  160.0910  206.9590  157.2580 C   0  0  0  0  0  1  0  0  0  0  0  0
  160.6520  208.6510  156.9240 S   0  0  0  0  0  0  0  0  0  0  0  0
  159.4480  211.2720  153.4530 C   0  0  0  0  0  2  0  0  0  0  0  0
  159.4480  212.3940  154.4020 N   0  0  0  0  0  0  0  0  0  0  0  0
  158.8930  214.0640  152.6340 C   0  0  0  0  0  2  0  0  0  0  0  0
  157.2640  213.3800  153.8460 C   0  0  0  0  0  2  0  0  0  0  0  0
  158.7390  213.6420  154.0890 C   0  0  0  0  0  3  0  0  0  0  0  0
  157.4190  213.8100  152.4020 C   0  0  0  0  0  2  0  0  0  0  0  0
  159.8840  212.2780  156.8110 C   0  0  0  0  0  3  0  0  0  0  0  0
  160.3090  212.4110  155.5530 C   0  0  0  0  0  3  0  0  0  0  0  0
  158.5490  212.0510  157.1240 O   0  0  0  0  0  1  0  0  0  0  0  0
  1 16  1  6  0  0  0
  1  5  1  0  0  0  0
  2  7  1  0  0  0  0
  2 15  1  0  0  0  0
  3 11  2  0  0  0  0
  3 14  1  0  0  0  0
  4  7  2  0  0  0  0
  5 11  1  0  0  0  0
  7  8  1  0  0  0  0
  8 13  1  0  0  0  0
  8  6  1  1  0  0  0
  9 24  1  6  0  0  0
  9 13  1  0  0  0  0
 10  1  1  0  0  0  0
 10 12  1  0  0  0  0
 11  4  1  0  0  0  0
 12  3  1  0  0  0  0
 13 21  1  1  0  0  0
 14  2  2  0  0  0  0
 15  9  1  0  0  0  0
 17 16  1  0  0  0  0
 18 17  1  0  0  0  0
 18 20  1  0  0  0  0
 19 20  1  0  0  0  0
 21 23  1  0  0  0  0
 23 22  1  0  0  0  0
 24 25  1  0  0  0  0
 25 31  1  0  0  0  0
 26 28  1  0  0  0  0
 27 28  1  0  0  0  0
 28 25  1  0  0  0  0
 29 26  1  0  0  0  0
 29 27  1  0  0  0  0
 30 32  1  0  0  0  0
 31 30  2  0  0  0  0
M  END
>  <MODEL>
7

>  <REMARK>
 VINA RESULT:      -4.8      3.324      9.863
  Name = 
  10 active torsions:
  status: ('A' for Active; 'I' for Inactive)
    1  A    between atoms: C_2  and  O_24
    2  A    between atoms: S_5  and  C_25
    3  A    between atoms: C_7  and  N_32
    4  A    between atoms: C_10  and  C_20
    5  A    between atoms: C_10  and  O_24
    6  A    between atoms: C_16  and  C_27
    7  A    between atoms: S_17  and  C_20
    8  A    between atoms: C_22  and  N_32
    9  A    between atoms: C_25  and  C_26
   10  A    between atoms: C_27  and  N_32
                            x       y       z     vdW  Elec       q    Type
                         _______ _______ _______ _____ _____    ______ ____

>  <TORSDO>
F 10

$$$$
=
 OpenBabel11062410513D

 32 35  0  0  1  0  0  0  0  0999 V2000
  161.9450  204.4780  146.7990 C   0  0  2  0  0  3  0  0  0  0  0  0
  161.7950  207.8590  150.5650 C   0  0  0  0  0  0  0  0  0  0  0  0
  161.8840  206.8160  148.3850 C   0  0  0  0  0  0  0  0  0  0  0  0
  161.3070  205.4880  150.3320 C   0  0  0  0  0  3  0  0  0  0  0  0
  161.4380  204.4570  148.1370 O   0  0  0  0  0  0  0  0  0  0  0  0
  162.5310  206.3670  153.3320 C   0  0  0  0  0  1  0  0  0  0  0  0
  161.4330  206.6240  151.1380 C   0  0  0  0  0  0  0  0  0  0  0  0
  161.2000  206.5300  152.6120 C   0  0  2  0  0  3  0  0  0  0  0  0
  160.9980  209.1300  152.6170 C   0  0  1  0  0  3  0  0  0  0  0  0
  161.6580  205.8320  146.1440 C   0  0  0  0  0  2  0  0  0  0  0  0
  161.5400  205.5830  148.9570 C   0  0  0  0  0  0  0  0  0  0  0  0
  162.0780  206.8940  147.0030 O   0  0  0  0  0  0  0  0  0  0  0  0
  160.4220  207.7720  153.0750 C   0  0  2  0  0  3  0  0  0  0  0  0
  162.0310  207.9480  149.1900 C   0  0  0  0  0  3  0  0  0  0  0  0
  161.9880  209.0650  151.4370 C   0  0  0  0  0  2  0  0  0  0  0  0
  161.3550  203.4550  146.0560 O   0  0  0  0  0  0  0  0  0  0  0  0
  160.5760  202.7510  146.9760 C   0  0  0  0  0  2  0  0  0  0  0  0
  160.8750  201.2650  146.8860 C   0  0  0  0  0  2  0  0  0  0  0  0
  160.1020  201.6470  149.3680 C   0  0  0  0  0  1  0  0  0  0  0  0
  161.3250  200.6080  148.5200 S   0  0  0  0  0  0  0  0  0  0  0  0
  159.9940  207.7380  154.5450 C   0  0  0  0  0  2  0  0  0  0  0  0
  161.6510  208.6100  156.3710 C   0  0  0  0  0  1  0  0  0  0  0  0
  161.2550  207.0000  155.6340 S   0  0  0  0  0  0  0  0  0  0  0  0
  159.9030  210.1810  152.4050 C   0  0  0  0  0  2  0  0  0  0  0  0
  160.0210  211.3150  153.3320 N   0  0  0  0  0  0  0  0  0  0  0  0
  160.0470  212.4060  155.5750 C   0  0  0  0  0  2  0  0  0  0  0  0
  158.3760  211.1330  155.1520 C   0  0  0  0  0  2  0  0  0  0  0  0
  159.8480  211.1240  154.7780 C   0  0  0  0  0  3  0  0  0  0  0  0
  158.5800  212.4030  155.9520 C   0  0  0  0  0  2  0  0  0  0  0  0
  159.0930  213.2870  152.2100 C   0  0  0  0  0  3  0  0  0  0  0  0
  160.0810  212.6730  152.8620 C   0  0  0  0  0  3  0  0  0  0  0  0
  157.8690  212.6740  151.9690 O   0  0  0  0  0  1  0  0  0  0  0  0
  1 16  1  6  0  0  0
  1  5  1  0  0  0  0
  2  7  1  0  0  0  0
  2 15  1  0  0  0  0
  3 11  2  0  0  0  0
  3 14  1  0  0  0  0
  4  7  2  0  0  0  0
  5 11  1  0  0  0  0
  7  8  1  0  0  0  0
  8 13  1  0  0  0  0
  8  6  1  1  0  0  0
  9 24  1  6  0  0  0
  9 13  1  0  0  0  0
 10  1  1  0  0  0  0
 10 12  1  0  0  0  0
 11  4  1  0  0  0  0
 12  3  1  0  0  0  0
 13 21  1  1  0  0  0
 14  2  2  0  0  0  0
 15  9  1  0  0  0  0
 16 17  1  0  0  0  0
 18 17  1  0  0  0  0
 18 20  1  0  0  0  0
 20 19  1  0  0  0  0
 21 23  1  0  0  0  0
 23 22  1  0  0  0  0
 24 25  1  0  0  0  0
 25 28  1  0  0  0  0
 26 29  1  0  0  0  0
 27 29  1  0  0  0  0
 28 27  1  0  0  0  0
 28 26  1  0  0  0  0
 30 31  2  0  0  0  0
 31 25  1  0  0  0  0
 32 30  1  0  0  0  0
M  END
>  <MODEL>
8

>  <REMARK>
 VINA RESULT:      -4.6      3.199      9.532
  Name = 
  10 active torsions:
  status: ('A' for Active; 'I' for Inactive)
    1  A    between atoms: C_2  and  O_24
    2  A    between atoms: S_5  and  C_25
    3  A    between atoms: C_7  and  N_32
    4  A    between atoms: C_10  and  C_20
    5  A    between atoms: C_10  and  O_24
    6  A    between atoms: C_16  and  C_27
    7  A    between atoms: S_17  and  C_20
    8  A    between atoms: C_22  and  N_32
    9  A    between atoms: C_25  and  C_26
   10  A    between atoms: C_27  and  N_32
                            x       y       z     vdW  Elec       q    Type
                         _______ _______ _______ _____ _____    ______ ____

>  <TORSDO>
F 10

$$$$
=
 OpenBabel11062410513D

 32 35  0  0  1  0  0  0  0  0999 V2000
  161.5070  204.6720  148.9690 C   0  0  2  0  0  3  0  0  0  0  0  0
  161.6660  209.6120  150.0680 C   0  0  0  0  0  0  0  0  0  0  0  0
  161.6140  207.4950  148.9000 C   0  0  0  0  0  0  0  0  0  0  0  0
  161.0710  207.5800  151.2630 C   0  0  0  0  0  3  0  0  0  0  0  0
  161.0610  205.4610  150.0750 O   0  0  0  0  0  0  0  0  0  0  0  0
  162.4640  209.9600  153.1770 C   0  0  0  0  0  1  0  0  0  0  0  0
  161.2800  208.9630  151.2560 C   0  0  0  0  0  0  0  0  0  0  0  0
  161.1100  209.7550  152.5130 C   0  0  2  0  0  3  0  0  0  0  0  0
  161.0160  211.8820  151.0080 C   0  0  1  0  0  3  0  0  0  0  0  0
  161.2470  205.4090  147.6520 C   0  0  0  0  0  2  0  0  0  0  0  0
  161.2460  206.8450  150.0870 C   0  0  0  0  0  0  0  0  0  0  0  0
  161.7490  206.7450  147.7280 O   0  0  0  0  0  0  0  0  0  0  0  0
  160.4050  211.0790  152.1780 C   0  0  2  0  0  3  0  0  0  0  0  0
  161.8440  208.8730  148.8950 C   0  0  0  0  0  3  0  0  0  0  0  0
  161.9480  211.0860  150.0730 C   0  0  0  0  0  2  0  0  0  0  0  0
  160.8420  203.4460  148.9670 O   0  0  0  0  0  0  0  0  0  0  0  0
  161.3140  202.7870  147.8300 C   0  0  0  0  0  2  0  0  0  0  0  0
  160.8170  201.3530  147.8120 C   0  0  0  0  0  2  0  0  0  0  0  0
  160.4560  202.3200  145.3950 C   0  0  0  0  0  1  0  0  0  0  0  0
  160.8320  200.6970  146.1160 S   0  0  0  0  0  0  0  0  0  0  0  0
  160.0420  211.9290  153.3980 C   0  0  0  0  0  2  0  0  0  0  0  0
  159.1480  210.7240  155.5400 C   0  0  0  0  0  1  0  0  0  0  0  0
  158.4060  211.5200  154.0880 S   0  0  0  0  0  0  0  0  0  0  0  0
  159.9570  212.6790  150.2380 C   0  0  0  0  0  2  0  0  0  0  0  0
  160.4860  213.2820  149.0070 N   0  0  0  0  0  0  0  0  0  0  0  0
  162.0850  212.6240  147.2100 C   0  0  0  0  0  2  0  0  0  0  0  0
  162.5120  214.4500  148.2460 C   0  0  0  0  0  2  0  0  0  0  0  0
  161.8980  213.1180  148.6380 C   0  0  0  0  0  3  0  0  0  0  0  0
  162.7060  213.9510  146.8290 C   0  0  0  0  0  2  0  0  0  0  0  0
  158.7670  213.8970  147.3720 C   0  0  0  0  0  3  0  0  0  0  0  0
  159.7230  214.2290  148.2400 C   0  0  0  0  0  3  0  0  0  0  0  0
  158.3750  212.5800  147.1660 O   0  0  0  0  0  1  0  0  0  0  0  0
  1 16  1  6  0  0  0
  1  5  1  0  0  0  0
  2 15  1  0  0  0  0
  2  7  1  0  0  0  0
  3 11  2  0  0  0  0
  5 11  1  0  0  0  0
  7  4  2  0  0  0  0
  7  8  1  0  0  0  0
  8  6  1  6  0  0  0
  9 24  1  6  0  0  0
  9 13  1  0  0  0  0
 10 12  1  0  0  0  0
 10  1  1  0  0  0  0
 11  4  1  0  0  0  0
 12  3  1  0  0  0  0
 13  8  1  0  0  0  0
 13 21  1  1  0  0  0
 14  3  1  0  0  0  0
 14  2  2  0  0  0  0
 15  9  1  0  0  0  0
 17 16  1  0  0  0  0
 18 17  1  0  0  0  0
 19 20  1  0  0  0  0
 20 18  1  0  0  0  0
 21 23  1  0  0  0  0
 23 22  1  0  0  0  0
 25 24  1  0  0  0  0
 26 28  1  0  0  0  0
 27 28  1  0  0  0  0
 28 25  1  0  0  0  0
 29 26  1  0  0  0  0
 29 27  1  0  0  0  0
 30 31  2  0  0  0  0
 31 25  1  0  0  0  0
 32 30  1  0  0  0  0
M  END
>  <MODEL>
9

>  <REMARK>
 VINA RESULT:      -4.4      4.237      9.501
  Name = 
  10 active torsions:
  status: ('A' for Active; 'I' for Inactive)
    1  A    between atoms: C_2  and  O_24
    2  A    between atoms: S_5  and  C_25
    3  A    between atoms: C_7  and  N_32
    4  A    between atoms: C_10  and  C_20
    5  A    between atoms: C_10  and  O_24
    6  A    between atoms: C_16  and  C_27
    7  A    between atoms: S_17  and  C_20
    8  A    between atoms: C_22  and  N_32
    9  A    between atoms: C_25  and  C_26
   10  A    between atoms: C_27  and  N_32
                            x       y       z     vdW  Elec       q    Type
                         _______ _______ _______ _____ _____    ______ ____

>  <TORSDO>
F 10

$$$$
