=
 OpenBabel11052422213D

 25 25  0  0  1  0  0  0  0  0999 V2000
  161.0390  205.4880  149.7250 C   0  0  1  0  0  3  0  0  0  0  0  0
  160.1800  206.1280  147.4380 C   0  0  0  0  0  2  0  0  0  0  0  0
  162.0160  204.4460  147.6470 C   0  0  0  0  0  2  0  0  0  0  0  0
  161.5360  205.2160  143.9980 O   0  0  0  0  0  1  0  0  0  0  0  0
  161.3980  205.2930  145.3770 C   0  0  0  0  0  0  0  0  0  0  0  0
  162.1230  204.4760  146.1470 C   0  0  0  0  0  3  0  0  0  0  0  0
  161.4300  205.7350  148.2480 C   0  0  2  0  0  0  0  0  0  0  0  0
  160.4970  206.3500  145.9550 C   0  0  0  0  0  2  0  0  0  0  0  0
  162.4970  206.8440  148.1760 C   0  0  0  0  0  2  0  0  0  0  0  0
  161.9090  208.2420  148.3050 C   0  0  0  0  0  1  0  0  0  0  0  0
  161.8070  203.6870  151.0910 O   0  0  0  0  0  0  0  0  0  0  0  0
  161.0750  204.0410  150.1280 C   0  0  0  0  0  0  0  0  0  0  0  0
  160.2990  203.1050  149.4420 O   0  0  0  0  0  0  0  0  0  0  0  0
  160.3680  201.7170  149.7340 C   0  0  0  0  0  1  0  0  0  0  0  0
  161.8330  206.2470  150.5960 O   0  0  0  0  0  0  0  0  0  0  0  0
  160.9250  206.9420  151.4000 C   0  0  0  0  0  2  0  0  0  0  0  0
  161.5820  207.3260  152.7120 C   0  0  0  0  0  2  0  0  0  0  0  0
  161.1340  206.3880  153.8190 C   0  0  0  0  0  2  0  0  0  0  0  0
  160.4050  207.1580  154.9090 C   0  0  0  0  0  2  0  0  0  0  0  0
  161.3480  208.0870  155.6570 C   0  0  0  0  0  2  0  0  0  0  0  0
  160.6460  209.1770  156.1720 O   0  0  0  0  0  0  0  0  0  0  0  0
  160.1840  209.8630  155.0450 C   0  0  0  0  0  2  0  0  0  0  0  0
  161.2240  210.8750  154.5990 C   0  0  0  0  0  2  0  0  0  0  0  0
  160.9360  211.3090  153.3040 O   0  0  0  0  0  0  0  0  0  0  0  0
  159.8120  210.5730  152.9320 C   0  0  0  0  0  1  0  0  0  0  0  0
  1 12  1  1  0  0  0
  1 15  1  0  0  0  0
  2  7  1  0  0  0  0
  3  7  1  0  0  0  0
  4  5  1  0  0  0  0
  5  8  1  0  0  0  0
  5  6  2  0  0  0  0
  6  3  1  0  0  0  0
  7  9  1  6  0  0  0
  7  1  1  0  0  0  0
  8  2  1  0  0  0  0
  9 10  1  0  0  0  0
 12 11  2  0  0  0  0
 13 14  1  0  0  0  0
 13 12  1  0  0  0  0
 15 16  1  0  0  0  0
 16 17  1  0  0  0  0
 17 18  1  0  0  0  0
 18 19  1  0  0  0  0
 19 20  1  0  0  0  0
 20 21  1  0  0  0  0
 22 21  1  0  0  0  0
 23 22  1  0  0  0  0
 24 23  1  0  0  0  0
 25 24  1  0  0  0  0
M  END
>  <MODEL>
1

>  <REMARK>
 VINA RESULT:      -5.8      0.000      0.000
  Name = 
  14 active torsions:
  status: ('A' for Active; 'I' for Inactive)
    1  A    between atoms: C_1  and  O_3
    2  A    between atoms: C_1  and  C_18
    3  A    between atoms: C_1  and  C_24
    4  A    between atoms: C_2  and  O_7
    5  A    between atoms: C_2  and  C_25
    6  A    between atoms: O_3  and  C_16
    7  A    between atoms: C_6  and  C_15
    8  A    between atoms: C_6  and  O_21
    9  A    between atoms: O_13  and  C_24
   10  A    between atoms: C_15  and  C_20
   11  A    between atoms: C_16  and  C_23
   12  A    between atoms: C_17  and  C_18
   13  A    between atoms: C_20  and  C_23
   14  A    between atoms: O_21  and  C_25
                            x       y       z     vdW  Elec       q    Type
                         _______ _______ _______ _____ _____    ______ ____

>  <TORSDO>
F 14

$$$$
=
 OpenBabel11052422213D

 25 25  0  0  1  0  0  0  0  0999 V2000
  161.8380  205.8000  149.2310 C   0  0  1  0  0  3  0  0  0  0  0  0
  162.7910  205.1220  146.9920 C   0  0  0  0  0  2  0  0  0  0  0  0
  160.6260  206.3650  147.0930 C   0  0  0  0  0  2  0  0  0  0  0  0
  161.2240  205.3280  143.5270 O   0  0  0  0  0  1  0  0  0  0  0  0
  161.3920  205.4340  144.9010 C   0  0  0  0  0  0  0  0  0  0  0  0
  160.5110  206.1490  145.6080 C   0  0  0  0  0  3  0  0  0  0  0  0
  161.4940  205.3130  147.8020 C   0  0  2  0  0  0  0  0  0  0  0  0
  162.5150  204.6750  145.5540 C   0  0  0  0  0  2  0  0  0  0  0  0
  160.7050  203.9930  147.8840 C   0  0  0  0  0  2  0  0  0  0  0  0
  161.5900  202.7880  148.1710 C   0  0  0  0  0  1  0  0  0  0  0  0
  162.8280  207.8730  148.5810 O   0  0  0  0  0  0  0  0  0  0  0  0
  162.0070  207.2900  149.3390 C   0  0  0  0  0  0  0  0  0  0  0  0
  161.2540  208.0130  150.2650 O   0  0  0  0  0  0  0  0  0  0  0  0
  161.7800  209.1500  150.9330 C   0  0  0  0  0  1  0  0  0  0  0  0
  160.8880  205.3580  150.1620 O   0  0  0  0  0  0  0  0  0  0  0  0
  161.6340  204.7750  151.1900 C   0  0  0  0  0  2  0  0  0  0  0  0
  160.9660  205.0370  152.5270 C   0  0  0  0  0  2  0  0  0  0  0  0
  161.7030  206.1330  153.2770 C   0  0  0  0  0  2  0  0  0  0  0  0
  160.7890  206.7860  154.3020 C   0  0  0  0  0  2  0  0  0  0  0  0
  160.9710  208.2960  154.3260 C   0  0  0  0  0  2  0  0  0  0  0  0
  161.1220  208.7440  155.6380 O   0  0  0  0  0  0  0  0  0  0  0  0
  160.1410  209.7280  155.7890 C   0  0  0  0  0  2  0  0  0  0  0  0
  160.0030  210.5170  154.5000 C   0  0  0  0  0  2  0  0  0  0  0  0
  160.6220  211.7610  154.6370 O   0  0  0  0  0  0  0  0  0  0  0  0
  160.2500  212.1960  155.9090 C   0  0  0  0  0  1  0  0  0  0  0  0
  1 12  1  6  0  0  0
  1 15  1  0  0  0  0
  2  7  1  0  0  0  0
  3  7  1  0  0  0  0
  4  5  1  0  0  0  0
  5  8  1  0  0  0  0
  5  6  2  0  0  0  0
  6  3  1  0  0  0  0
  7  9  1  1  0  0  0
  7  1  1  0  0  0  0
  8  2  1  0  0  0  0
  9 10  1  0  0  0  0
 11 12  2  0  0  0  0
 12 13  1  0  0  0  0
 13 14  1  0  0  0  0
 15 16  1  0  0  0  0
 16 17  1  0  0  0  0
 17 18  1  0  0  0  0
 18 19  1  0  0  0  0
 19 20  1  0  0  0  0
 20 21  1  0  0  0  0
 21 22  1  0  0  0  0
 23 24  1  0  0  0  0
 23 22  1  0  0  0  0
 24 25  1  0  0  0  0
M  END
>  <MODEL>
2

>  <REMARK>
 VINA RESULT:      -5.7      1.380      2.993
  Name = 
  14 active torsions:
  status: ('A' for Active; 'I' for Inactive)
    1  A    between atoms: C_1  and  O_3
    2  A    between atoms: C_1  and  C_18
    3  A    between atoms: C_1  and  C_24
    4  A    between atoms: C_2  and  O_7
    5  A    between atoms: C_2  and  C_25
    6  A    between atoms: O_3  and  C_16
    7  A    between atoms: C_6  and  C_15
    8  A    between atoms: C_6  and  O_21
    9  A    between atoms: O_13  and  C_24
   10  A    between atoms: C_15  and  C_20
   11  A    between atoms: C_16  and  C_23
   12  A    between atoms: C_17  and  C_18
   13  A    between atoms: C_20  and  C_23
   14  A    between atoms: O_21  and  C_25
                            x       y       z     vdW  Elec       q    Type
                         _______ _______ _______ _____ _____    ______ ____

>  <TORSDO>
F 14

$$$$
=
 OpenBabel11052422213D

 25 25  0  0  1  0  0  0  0  0999 V2000
  161.4490  205.5060  151.1840 C   0  0  1  0  0  3  0  0  0  0  0  0
  162.6830  206.8340  149.4240 C   0  0  0  0  0  2  0  0  0  0  0  0
  161.1490  208.0040  151.0130 C   0  0  0  0  0  2  0  0  0  0  0  0
  162.3040  210.4940  148.4420 O   0  0  0  0  0  1  0  0  0  0  0  0
  162.1140  209.2820  149.0920 C   0  0  0  0  0  0  0  0  0  0  0  0
  161.3790  209.2540  150.2080 C   0  0  0  0  0  3  0  0  0  0  0  0
  161.3650  206.7090  150.2120 C   0  0  2  0  0  0  0  0  0  0  0  0
  162.6760  208.0320  148.4710 C   0  0  0  0  0  2  0  0  0  0  0  0
  160.1750  206.5150  149.2540 C   0  0  0  0  0  2  0  0  0  0  0  0
  160.5850  205.9410  147.9050 C   0  0  0  0  0  1  0  0  0  0  0  0
  162.8220  205.9500  153.0860 O   0  0  0  0  0  0  0  0  0  0  0  0
  161.6520  205.9000  152.6200 C   0  0  0  0  0  0  0  0  0  0  0  0
  160.5520  206.2120  153.4210 O   0  0  0  0  0  0  0  0  0  0  0  0
  160.6880  206.9510  154.6250 C   0  0  0  0  0  1  0  0  0  0  0  0
  160.3240  204.6790  151.0690 O   0  0  0  0  0  0  0  0  0  0  0  0
  160.8270  203.3750  151.1260 C   0  0  0  0  0  2  0  0  0  0  0  0
  160.7510  202.7300  149.7540 C   0  0  0  0  0  2  0  0  0  0  0  0
  161.1560  201.2690  149.8380 C   0  0  0  0  0  2  0  0  0  0  0  0
  161.2570  200.6620  148.4470 C   0  0  0  0  0  2  0  0  0  0  0  0
  160.8530  201.6620  147.3750 C   0  0  0  0  0  2  0  0  0  0  0  0
  160.9080  201.0680  146.1140 O   0  0  0  0  0  0  0  0  0  0  0  0
  160.3480  202.0160  145.2530 C   0  0  0  0  0  2  0  0  0  0  0  0
  161.1310  203.3140  145.3400 C   0  0  0  0  0  2  0  0  0  0  0  0
  160.4550  204.3210  144.6500 O   0  0  0  0  0  0  0  0  0  0  0  0
  161.4540  205.2260  144.2910 C   0  0  0  0  0  1  0  0  0  0  0  0
  1 15  1  1  0  0  0
  1 12  1  0  0  0  0
  2  7  1  0  0  0  0
  4  5  1  0  0  0  0
  5  6  2  0  0  0  0
  6  3  1  0  0  0  0
  7  9  1  6  0  0  0
  7  3  1  0  0  0  0
  7  1  1  0  0  0  0
  8  5  1  0  0  0  0
  8  2  1  0  0  0  0
 10  9  1  0  0  0  0
 12 11  2  0  0  0  0
 12 13  1  0  0  0  0
 13 14  1  0  0  0  0
 15 16  1  0  0  0  0
 17 18  1  0  0  0  0
 17 16  1  0  0  0  0
 19 18  1  0  0  0  0
 20 19  1  0  0  0  0
 21 20  1  0  0  0  0
 22 23  1  0  0  0  0
 22 21  1  0  0  0  0
 24 23  1  0  0  0  0
 25 24  1  0  0  0  0
M  END
>  <MODEL>
3

>  <REMARK>
 VINA RESULT:      -5.7      2.210      7.122
  Name = 
  14 active torsions:
  status: ('A' for Active; 'I' for Inactive)
    1  A    between atoms: C_1  and  O_3
    2  A    between atoms: C_1  and  C_18
    3  A    between atoms: C_1  and  C_24
    4  A    between atoms: C_2  and  O_7
    5  A    between atoms: C_2  and  C_25
    6  A    between atoms: O_3  and  C_16
    7  A    between atoms: C_6  and  C_15
    8  A    between atoms: C_6  and  O_21
    9  A    between atoms: O_13  and  C_24
   10  A    between atoms: C_15  and  C_20
   11  A    between atoms: C_16  and  C_23
   12  A    between atoms: C_17  and  C_18
   13  A    between atoms: C_20  and  C_23
   14  A    between atoms: O_21  and  C_25
                            x       y       z     vdW  Elec       q    Type
                         _______ _______ _______ _____ _____    ______ ____

>  <TORSDO>
F 14

$$$$
=
 OpenBabel11052422213D

 25 25  0  0  1  0  0  0  0  0999 V2000
  161.3280  208.3250  150.9280 C   0  0  1  0  0  3  0  0  0  0  0  0
  162.6630  206.3020  151.6400 C   0  0  0  0  0  2  0  0  0  0  0  0
  160.4200  205.9980  150.5830 C   0  0  0  0  0  2  0  0  0  0  0  0
  161.6360  202.6370  151.7510 O   0  0  0  0  0  1  0  0  0  0  0  0
  161.5830  204.0100  151.5590 C   0  0  0  0  0  0  0  0  0  0  0  0
  160.5510  204.5300  150.8860 C   0  0  0  0  0  3  0  0  0  0  0  0
  161.2470  206.8960  151.5180 C   0  0  2  0  0  0  0  0  0  0  0  0
  162.6470  204.8710  152.1840 C   0  0  0  0  0  2  0  0  0  0  0  0
  160.5580  206.9450  152.8950 C   0  0  0  0  0  2  0  0  0  0  0  0
  161.5370  206.8230  154.0540 C   0  0  0  0  0  1  0  0  0  0  0  0
  162.3460  209.8610  152.4460 O   0  0  0  0  0  0  0  0  0  0  0  0
  161.2710  209.4120  151.9640 C   0  0  0  0  0  0  0  0  0  0  0  0
  160.0380  209.9190  152.3780 O   0  0  0  0  0  0  0  0  0  0  0  0
  159.9330  210.8670  153.4300 C   0  0  0  0  0  1  0  0  0  0  0  0
  162.4690  208.4830  150.1310 O   0  0  0  0  0  0  0  0  0  0  0  0
  161.9890  208.5400  148.8190 C   0  0  0  0  0  2  0  0  0  0  0  0
  162.4670  207.3300  148.0390 C   0  0  0  0  0  2  0  0  0  0  0  0
  161.3300  206.7560  147.2120 C   0  0  0  0  0  2  0  0  0  0  0  0
  161.4510  205.2430  147.1150 C   0  0  0  0  0  2  0  0  0  0  0  0
  161.3790  204.7720  145.6700 C   0  0  0  0  0  2  0  0  0  0  0  0
  161.8230  203.4540  145.5680 O   0  0  0  0  0  0  0  0  0  0  0  0
  161.2740  202.8090  146.6800 C   0  0  0  0  0  2  0  0  0  0  0  0
  160.7120  201.4620  146.2660 C   0  0  0  0  0  2  0  0  0  0  0  0
  161.2570  200.4560  147.0660 O   0  0  0  0  0  0  0  0  0  0  0  0
  161.2100  200.9780  148.3590 C   0  0  0  0  0  1  0  0  0  0  0  0
  1 15  1  1  0  0  0
  1  7  1  0  0  0  0
  1 12  1  0  0  0  0
  2  8  1  0  0  0  0
  3  6  1  0  0  0  0
  3  7  1  0  0  0  0
  5  4  1  0  0  0  0
  5  8  1  0  0  0  0
  6  5  2  0  0  0  0
  7  2  1  0  0  0  0
  7  9  1  1  0  0  0
  9 10  1  0  0  0  0
 12 13  1  0  0  0  0
 12 11  2  0  0  0  0
 13 14  1  0  0  0  0
 16 15  1  0  0  0  0
 17 16  1  0  0  0  0
 18 17  1  0  0  0  0
 19 18  1  0  0  0  0
 20 19  1  0  0  0  0
 21 20  1  0  0  0  0
 21 22  1  0  0  0  0
 23 22  1  0  0  0  0
 23 24  1  0  0  0  0
 24 25  1  0  0  0  0
M  END
>  <MODEL>
4

>  <REMARK>
 VINA RESULT:      -5.6      1.801      7.691
  Name = 
  14 active torsions:
  status: ('A' for Active; 'I' for Inactive)
    1  A    between atoms: C_1  and  O_3
    2  A    between atoms: C_1  and  C_18
    3  A    between atoms: C_1  and  C_24
    4  A    between atoms: C_2  and  O_7
    5  A    between atoms: C_2  and  C_25
    6  A    between atoms: O_3  and  C_16
    7  A    between atoms: C_6  and  C_15
    8  A    between atoms: C_6  and  O_21
    9  A    between atoms: O_13  and  C_24
   10  A    between atoms: C_15  and  C_20
   11  A    between atoms: C_16  and  C_23
   12  A    between atoms: C_17  and  C_18
   13  A    between atoms: C_20  and  C_23
   14  A    between atoms: O_21  and  C_25
                            x       y       z     vdW  Elec       q    Type
                         _______ _______ _______ _____ _____    ______ ____

>  <TORSDO>
F 14

$$$$
=
 OpenBabel11052422213D

 25 25  0  0  1  0  0  0  0  0999 V2000
  161.1280  203.9470  147.1790 C   0  0  1  0  0  3  0  0  0  0  0  0
  162.7630  205.7430  147.8710 C   0  0  0  0  0  2  0  0  0  0  0  0
  160.3450  205.9760  148.4530 C   0  0  0  0  0  2  0  0  0  0  0  0
  162.0990  209.1630  149.4100 O   0  0  0  0  0  1  0  0  0  0  0  0
  161.8860  207.9020  148.8700 C   0  0  0  0  0  0  0  0  0  0  0  0
  160.6700  207.3540  148.9630 C   0  0  0  0  0  3  0  0  0  0  0  0
  161.3280  205.4680  147.3850 C   0  0  2  0  0  0  0  0  0  0  0  0
  163.0120  207.2320  148.1300 C   0  0  0  0  0  2  0  0  0  0  0  0
  161.0490  206.2080  146.0640 C   0  0  0  0  0  2  0  0  0  0  0  0
  159.5970  206.1050  145.6200 C   0  0  0  0  0  1  0  0  0  0  0  0
  162.6540  203.6630  145.3650 O   0  0  0  0  0  0  0  0  0  0  0  0
  161.4870  203.4700  145.8000 C   0  0  0  0  0  0  0  0  0  0  0  0
  160.5340  202.8160  145.0170 O   0  0  0  0  0  0  0  0  0  0  0  0
  160.1980  201.4530  145.2290 C   0  0  0  0  0  1  0  0  0  0  0  0
  161.8320  203.2060  148.1390 O   0  0  0  0  0  0  0  0  0  0  0  0
  160.8980  202.3000  148.6520 C   0  0  0  0  0  2  0  0  0  0  0  0
  161.0120  202.2390  150.1640 C   0  0  0  0  0  2  0  0  0  0  0  0
  160.4700  203.5150  150.7830 C   0  0  0  0  0  2  0  0  0  0  0  0
  161.5510  204.2210  151.5860 C   0  0  0  0  0  2  0  0  0  0  0  0
  161.0630  205.5590  152.1190 C   0  0  0  0  0  2  0  0  0  0  0  0
  161.8920  206.0020  153.1490 O   0  0  0  0  0  0  0  0  0  0  0  0
  161.2270  207.1060  153.6880 C   0  0  0  0  0  2  0  0  0  0  0  0
  161.4540  208.3220  152.8090 C   0  0  0  0  0  2  0  0  0  0  0  0
  160.4500  209.2640  153.0360 O   0  0  0  0  0  0  0  0  0  0  0  0
  160.9820  210.4600  152.5550 C   0  0  0  0  0  1  0  0  0  0  0  0
  1 12  1  6  0  0  0
  1  7  1  0  0  0  0
  1 15  1  0  0  0  0
  2  8  1  0  0  0  0
  3  6  1  0  0  0  0
  5  6  2  0  0  0  0
  5  4  1  0  0  0  0
  7  9  1  6  0  0  0
  7  2  1  0  0  0  0
  7  3  1  0  0  0  0
  8  5  1  0  0  0  0
 10  9  1  0  0  0  0
 11 12  2  0  0  0  0
 13 14  1  0  0  0  0
 13 12  1  0  0  0  0
 15 16  1  0  0  0  0
 16 17  1  0  0  0  0
 17 18  1  0  0  0  0
 18 19  1  0  0  0  0
 19 20  1  0  0  0  0
 20 21  1  0  0  0  0
 21 22  1  0  0  0  0
 23 24  1  0  0  0  0
 23 22  1  0  0  0  0
 25 24  1  0  0  0  0
M  END
>  <MODEL>
5

>  <REMARK>
 VINA RESULT:      -5.5      1.735      4.080
  Name = 
  14 active torsions:
  status: ('A' for Active; 'I' for Inactive)
    1  A    between atoms: C_1  and  O_3
    2  A    between atoms: C_1  and  C_18
    3  A    between atoms: C_1  and  C_24
    4  A    between atoms: C_2  and  O_7
    5  A    between atoms: C_2  and  C_25
    6  A    between atoms: O_3  and  C_16
    7  A    between atoms: C_6  and  C_15
    8  A    between atoms: C_6  and  O_21
    9  A    between atoms: O_13  and  C_24
   10  A    between atoms: C_15  and  C_20
   11  A    between atoms: C_16  and  C_23
   12  A    between atoms: C_17  and  C_18
   13  A    between atoms: C_20  and  C_23
   14  A    between atoms: O_21  and  C_25
                            x       y       z     vdW  Elec       q    Type
                         _______ _______ _______ _____ _____    ______ ____

>  <TORSDO>
F 14

$$$$
=
 OpenBabel11052422213D

 25 25  0  0  1  0  0  0  0  0999 V2000
  161.0070  205.4320  149.9800 C   0  0  1  0  0  3  0  0  0  0  0  0
  160.1950  206.1510  147.6990 C   0  0  0  0  0  2  0  0  0  0  0  0
  161.9660  204.3990  147.8890 C   0  0  0  0  0  2  0  0  0  0  0  0
  161.5500  205.2630  144.2530 O   0  0  0  0  0  1  0  0  0  0  0  0
  161.4020  205.3160  145.6320 C   0  0  0  0  0  0  0  0  0  0  0  0
  162.0890  204.4560  146.3910 C   0  0  0  0  0  3  0  0  0  0  0  0
  161.4210  205.6950  148.5120 C   0  0  2  0  0  0  0  0  0  0  0  0
  160.5330  206.3920  146.2250 C   0  0  0  0  0  2  0  0  0  0  0  0
  162.5280  206.7660  148.4730 C   0  0  0  0  0  2  0  0  0  0  0  0
  161.9820  208.1860  148.5130 C   0  0  0  0  0  1  0  0  0  0  0  0
  161.9660  203.6060  151.1830 O   0  0  0  0  0  0  0  0  0  0  0  0
  161.0730  203.9840  150.3780 C   0  0  0  0  0  0  0  0  0  0  0  0
  160.1480  203.0750  149.8620 O   0  0  0  0  0  0  0  0  0  0  0  0
  160.4260  201.6840  149.7870 C   0  0  0  0  0  1  0  0  0  0  0  0
  161.7630  206.2070  150.8700 O   0  0  0  0  0  0  0  0  0  0  0  0
  160.9440  206.3720  151.9910 C   0  0  0  0  0  2  0  0  0  0  0  0
  161.3180  207.6470  152.7230 C   0  0  0  0  0  2  0  0  0  0  0  0
  161.0180  208.8580  151.8570 C   0  0  0  0  0  2  0  0  0  0  0  0
  161.4010  210.1400  152.5790 C   0  0  0  0  0  2  0  0  0  0  0  0
  160.1780  210.8420  153.1490 C   0  0  0  0  0  2  0  0  0  0  0  0
  160.5440  211.6560  154.2220 O   0  0  0  0  0  0  0  0  0  0  0  0
  161.4770  210.8990  154.9360 C   0  0  0  0  0  2  0  0  0  0  0  0
  160.9110  210.5390  156.2970 C   0  0  0  0  0  2  0  0  0  0  0  0
  160.5160  209.2000  156.3070 O   0  0  0  0  0  0  0  0  0  0  0  0
  161.7110  208.4860  156.3770 C   0  0  0  0  0  1  0  0  0  0  0  0
  1 12  1  1  0  0  0
  1 15  1  0  0  0  0
  2  7  1  0  0  0  0
  3  7  1  0  0  0  0
  4  5  1  0  0  0  0
  5  8  1  0  0  0  0
  5  6  2  0  0  0  0
  6  3  1  0  0  0  0
  7  9  1  6  0  0  0
  7  1  1  0  0  0  0
  8  2  1  0  0  0  0
  9 10  1  0  0  0  0
 12 11  2  0  0  0  0
 13 12  1  0  0  0  0
 14 13  1  0  0  0  0
 15 16  1  0  0  0  0
 16 17  1  0  0  0  0
 18 19  1  0  0  0  0
 18 17  1  0  0  0  0
 19 20  1  0  0  0  0
 20 21  1  0  0  0  0
 21 22  1  0  0  0  0
 22 23  1  0  0  0  0
 23 24  1  0  0  0  0
 24 25  1  0  0  0  0
M  END
>  <MODEL>
6

>  <REMARK>
 VINA RESULT:      -5.5      0.783      1.916
  Name = 
  14 active torsions:
  status: ('A' for Active; 'I' for Inactive)
    1  A    between atoms: C_1  and  O_3
    2  A    between atoms: C_1  and  C_18
    3  A    between atoms: C_1  and  C_24
    4  A    between atoms: C_2  and  O_7
    5  A    between atoms: C_2  and  C_25
    6  A    between atoms: O_3  and  C_16
    7  A    between atoms: C_6  and  C_15
    8  A    between atoms: C_6  and  O_21
    9  A    between atoms: O_13  and  C_24
   10  A    between atoms: C_15  and  C_20
   11  A    between atoms: C_16  and  C_23
   12  A    between atoms: C_17  and  C_18
   13  A    between atoms: C_20  and  C_23
   14  A    between atoms: O_21  and  C_25
                            x       y       z     vdW  Elec       q    Type
                         _______ _______ _______ _____ _____    ______ ____

>  <TORSDO>
F 14

$$$$
=
 OpenBabel11052422213D

 25 25  0  0  1  0  0  0  0  0999 V2000
  161.6530  205.7940  150.0500 C   0  0  1  0  0  3  0  0  0  0  0  0
  160.3680  206.3020  147.9360 C   0  0  0  0  0  2  0  0  0  0  0  0
  162.4170  204.8770  147.8300 C   0  0  0  0  0  2  0  0  0  0  0  0
  161.2710  205.5540  144.3130 O   0  0  0  0  0  1  0  0  0  0  0  0
  161.3430  205.6210  145.6970 C   0  0  0  0  0  0  0  0  0  0  0  0
  162.2810  204.9100  146.3310 C   0  0  0  0  0  3  0  0  0  0  0  0
  161.7710  206.0810  148.5330 C   0  0  2  0  0  0  0  0  0  0  0  0
  160.4150  206.5540  146.4260 C   0  0  0  0  0  2  0  0  0  0  0  0
  162.6590  207.3200  148.3110 C   0  0  0  0  0  2  0  0  0  0  0  0
  161.8700  208.6220  148.3060 C   0  0  0  0  0  1  0  0  0  0  0  0
  162.9990  207.3330  151.2840 O   0  0  0  0  0  0  0  0  0  0  0  0
  161.8380  207.0110  150.9130 C   0  0  0  0  0  0  0  0  0  0  0  0
  160.7320  207.7750  151.2910 O   0  0  0  0  0  0  0  0  0  0  0  0
  160.8540  208.8920  152.1580 C   0  0  0  0  0  1  0  0  0  0  0  0
  160.4370  205.1700  150.3580 O   0  0  0  0  0  0  0  0  0  0  0  0
  160.6920  204.4330  151.5180 C   0  0  0  0  0  2  0  0  0  0  0  0
  161.5900  203.2530  151.1960 C   0  0  0  0  0  2  0  0  0  0  0  0
  160.7870  201.9640  151.2040 C   0  0  0  0  0  2  0  0  0  0  0  0
  160.1460  201.7260  149.8460 C   0  0  0  0  0  2  0  0  0  0  0  0
  161.0200  200.8470  148.9660 C   0  0  0  0  0  2  0  0  0  0  0  0
  161.6720  201.6200  148.0050 O   0  0  0  0  0  0  0  0  0  0  0  0
  160.7500  201.7350  146.9610 C   0  0  0  0  0  2  0  0  0  0  0  0
  160.8750  200.5420  146.0320 C   0  0  0  0  0  2  0  0  0  0  0  0
  160.0840  200.7380  144.8990 O   0  0  0  0  0  0  0  0  0  0  0  0
  159.8310  202.1090  144.8860 C   0  0  0  0  0  1  0  0  0  0  0  0
  1 15  1  6  0  0  0
  1 12  1  0  0  0  0
  2  7  1  0  0  0  0
  3  7  1  0  0  0  0
  4  5  1  0  0  0  0
  5  6  2  0  0  0  0
  5  8  1  0  0  0  0
  6  3  1  0  0  0  0
  7  9  1  6  0  0  0
  7  1  1  0  0  0  0
  8  2  1  0  0  0  0
 10  9  1  0  0  0  0
 12 11  2  0  0  0  0
 12 13  1  0  0  0  0
 13 14  1  0  0  0  0
 15 16  1  0  0  0  0
 17 18  1  0  0  0  0
 17 16  1  0  0  0  0
 19 18  1  0  0  0  0
 20 19  1  0  0  0  0
 21 20  1  0  0  0  0
 22 21  1  0  0  0  0
 23 22  1  0  0  0  0
 24 23  1  0  0  0  0
 25 24  1  0  0  0  0
M  END
>  <MODEL>
7

>  <REMARK>
 VINA RESULT:      -5.3      2.208      6.556
  Name = 
  14 active torsions:
  status: ('A' for Active; 'I' for Inactive)
    1  A    between atoms: C_1  and  O_3
    2  A    between atoms: C_1  and  C_18
    3  A    between atoms: C_1  and  C_24
    4  A    between atoms: C_2  and  O_7
    5  A    between atoms: C_2  and  C_25
    6  A    between atoms: O_3  and  C_16
    7  A    between atoms: C_6  and  C_15
    8  A    between atoms: C_6  and  O_21
    9  A    between atoms: O_13  and  C_24
   10  A    between atoms: C_15  and  C_20
   11  A    between atoms: C_16  and  C_23
   12  A    between atoms: C_17  and  C_18
   13  A    between atoms: C_20  and  C_23
   14  A    between atoms: O_21  and  C_25
                            x       y       z     vdW  Elec       q    Type
                         _______ _______ _______ _____ _____    ______ ____

>  <TORSDO>
F 14

$$$$
=
 OpenBabel11052422213D

 25 25  0  0  1  0  0  0  0  0999 V2000
  161.0490  205.4310  150.0290 C   0  0  1  0  0  3  0  0  0  0  0  0
  160.2010  206.1270  147.7530 C   0  0  0  0  0  2  0  0  0  0  0  0
  162.0620  204.4690  147.9300 C   0  0  0  0  0  2  0  0  0  0  0  0
  161.6030  205.3410  144.3010 O   0  0  0  0  0  1  0  0  0  0  0  0
  161.4510  205.3740  145.6800 C   0  0  0  0  0  0  0  0  0  0  0  0
  162.1820  204.5450  146.4320 C   0  0  0  0  0  3  0  0  0  0  0  0
  161.4500  205.7290  148.5630 C   0  0  2  0  0  0  0  0  0  0  0  0
  160.5280  206.3980  146.2820 C   0  0  0  0  0  2  0  0  0  0  0  0
  162.4990  206.8560  148.5350 C   0  0  0  0  0  2  0  0  0  0  0  0
  161.8770  208.2460  148.5460 C   0  0  0  0  0  1  0  0  0  0  0  0
  161.9690  203.5710  151.2110 O   0  0  0  0  0  0  0  0  0  0  0  0
  161.1030  203.9720  150.3870 C   0  0  0  0  0  0  0  0  0  0  0  0
  160.1970  203.0780  149.8150 O   0  0  0  0  0  0  0  0  0  0  0  0
  160.4490  201.6810  149.7700 C   0  0  0  0  0  1  0  0  0  0  0  0
  161.8230  206.1740  150.9300 O   0  0  0  0  0  0  0  0  0  0  0  0
  161.1110  206.1400  152.1330 C   0  0  0  0  0  2  0  0  0  0  0  0
  161.2000  207.4860  152.8260 C   0  0  0  0  0  2  0  0  0  0  0  0
  160.9020  208.6040  151.8420 C   0  0  0  0  0  2  0  0  0  0  0  0
  161.1360  209.9610  152.4880 C   0  0  0  0  0  2  0  0  0  0  0  0
  160.9890  209.8880  154.0000 C   0  0  0  0  0  2  0  0  0  0  0  0
  159.8830  210.6290  154.4150 O   0  0  0  0  0  0  0  0  0  0  0  0
  160.1170  211.9170  153.9230 C   0  0  0  0  0  2  0  0  0  0  0  0
  158.8640  212.7590  154.0750 C   0  0  0  0  0  2  0  0  0  0  0  0
  157.7420  211.9310  154.1470 O   0  0  0  0  0  0  0  0  0  0  0  0
  156.6840  212.8020  154.4080 C   0  0  0  0  0  1  0  0  0  0  0  0
  1 12  1  1  0  0  0
  1 15  1  0  0  0  0
  2  7  1  0  0  0  0
  3  7  1  0  0  0  0
  4  5  1  0  0  0  0
  5  8  1  0  0  0  0
  5  6  2  0  0  0  0
  6  3  1  0  0  0  0
  7  9  1  6  0  0  0
  7  1  1  0  0  0  0
  8  2  1  0  0  0  0
  9 10  1  0  0  0  0
 12 11  2  0  0  0  0
 13 12  1  0  0  0  0
 14 13  1  0  0  0  0
 15 16  1  0  0  0  0
 16 17  1  0  0  0  0
 18 19  1  0  0  0  0
 18 17  1  0  0  0  0
 19 20  1  0  0  0  0
 20 21  1  0  0  0  0
 22 23  1  0  0  0  0
 22 21  1  0  0  0  0
 23 24  1  0  0  0  0
 24 25  1  0  0  0  0
M  END
>  <MODEL>
8

>  <REMARK>
 VINA RESULT:      -5.2      1.416      1.799
  Name = 
  14 active torsions:
  status: ('A' for Active; 'I' for Inactive)
    1  A    between atoms: C_1  and  O_3
    2  A    between atoms: C_1  and  C_18
    3  A    between atoms: C_1  and  C_24
    4  A    between atoms: C_2  and  O_7
    5  A    between atoms: C_2  and  C_25
    6  A    between atoms: O_3  and  C_16
    7  A    between atoms: C_6  and  C_15
    8  A    between atoms: C_6  and  O_21
    9  A    between atoms: O_13  and  C_24
   10  A    between atoms: C_15  and  C_20
   11  A    between atoms: C_16  and  C_23
   12  A    between atoms: C_17  and  C_18
   13  A    between atoms: C_20  and  C_23
   14  A    between atoms: O_21  and  C_25
                            x       y       z     vdW  Elec       q    Type
                         _______ _______ _______ _____ _____    ______ ____

>  <TORSDO>
F 14

$$$$
=
 OpenBabel11052422213D

 25 25  0  0  1  0  0  0  0  0999 V2000
  160.9850  204.9920  149.2200 C   0  0  1  0  0  3  0  0  0  0  0  0
  160.1140  205.8230  147.0000 C   0  0  0  0  0  2  0  0  0  0  0  0
  162.0920  204.2980  147.0640 C   0  0  0  0  0  2  0  0  0  0  0  0
  161.6110  205.4520  143.5180 O   0  0  0  0  0  1  0  0  0  0  0  0
  161.4410  205.3520  144.8920 C   0  0  0  0  0  0  0  0  0  0  0  0
  162.2240  204.5150  145.5810 C   0  0  0  0  0  3  0  0  0  0  0  0
  161.3800  205.4480  147.7940 C   0  0  2  0  0  0  0  0  0  0  0  0
  160.4360  206.2470  145.5640 C   0  0  0  0  0  2  0  0  0  0  0  0
  162.3410  206.6480  147.8840 C   0  0  0  0  0  2  0  0  0  0  0  0
  161.6300  207.9550  148.2060 C   0  0  0  0  0  1  0  0  0  0  0  0
  160.1870  202.8280  148.6050 O   0  0  0  0  0  0  0  0  0  0  0  0
  160.9170  203.5000  149.3830 C   0  0  0  0  0  0  0  0  0  0  0  0
  161.6610  202.8700  150.3820 O   0  0  0  0  0  0  0  0  0  0  0  0
  161.0980  202.5460  151.6440 C   0  0  0  0  0  1  0  0  0  0  0  0
  161.8420  205.5390  150.1850 O   0  0  0  0  0  0  0  0  0  0  0  0
  160.9950  206.1470  151.1180 C   0  0  0  0  0  2  0  0  0  0  0  0
  161.7910  207.0830  152.0080 C   0  0  0  0  0  2  0  0  0  0  0  0
  160.8660  207.8070  152.9690 C   0  0  0  0  0  2  0  0  0  0  0  0
  161.0100  209.3140  152.8160 C   0  0  0  0  0  2  0  0  0  0  0  0
  161.8900  209.6690  151.6280 C   0  0  0  0  0  2  0  0  0  0  0  0
  161.4330  210.8380  151.0200 O   0  0  0  0  0  0  0  0  0  0  0  0
  162.1970  210.9530  149.8560 C   0  0  0  0  0  2  0  0  0  0  0  0
  161.5820  211.9920  148.9380 C   0  0  0  0  0  2  0  0  0  0  0  0
  161.4860  211.4830  147.6420 O   0  0  0  0  0  0  0  0  0  0  0  0
  160.6540  212.3820  146.9760 C   0  0  0  0  0  1  0  0  0  0  0  0
  1 12  1  6  0  0  0
  1 15  1  0  0  0  0
  2  7  1  0  0  0  0
  3  7  1  0  0  0  0
  4  5  1  0  0  0  0
  5  8  1  0  0  0  0
  5  6  2  0  0  0  0
  6  3  1  0  0  0  0
  7  9  1  1  0  0  0
  7  1  1  0  0  0  0
  8  2  1  0  0  0  0
  9 10  1  0  0  0  0
 11 12  2  0  0  0  0
 12 13  1  0  0  0  0
 13 14  1  0  0  0  0
 15 16  1  0  0  0  0
 16 17  1  0  0  0  0
 17 18  1  0  0  0  0
 19 18  1  0  0  0  0
 20 19  1  0  0  0  0
 21 20  1  0  0  0  0
 22 21  1  0  0  0  0
 23 22  1  0  0  0  0
 24 23  1  0  0  0  0
 25 24  1  0  0  0  0
M  END
>  <MODEL>
9

>  <REMARK>
 VINA RESULT:      -5.1      2.057      2.976
  Name = 
  14 active torsions:
  status: ('A' for Active; 'I' for Inactive)
    1  A    between atoms: C_1  and  O_3
    2  A    between atoms: C_1  and  C_18
    3  A    between atoms: C_1  and  C_24
    4  A    between atoms: C_2  and  O_7
    5  A    between atoms: C_2  and  C_25
    6  A    between atoms: O_3  and  C_16
    7  A    between atoms: C_6  and  C_15
    8  A    between atoms: C_6  and  O_21
    9  A    between atoms: O_13  and  C_24
   10  A    between atoms: C_15  and  C_20
   11  A    between atoms: C_16  and  C_23
   12  A    between atoms: C_17  and  C_18
   13  A    between atoms: C_20  and  C_23
   14  A    between atoms: O_21  and  C_25
                            x       y       z     vdW  Elec       q    Type
                         _______ _______ _______ _____ _____    ______ ____

>  <TORSDO>
F 14

$$$$
