=
 OpenBabel11062408503D

 55 60  0  0  1  0  0  0  0  0999 V2000
  159.8870  212.6700  149.3470 C   0  0  1  0  0  3  0  0  0  0  0  0
  157.6790  213.1140  145.6750 C   0  0  0  0  0  3  0  0  0  0  0  0
  159.0930  212.8110  148.0780 C   0  0  0  0  0  0  0  0  0  0  0  0
  159.7060  212.5120  146.8570 C   0  0  0  0  0  3  0  0  0  0  0  0
  157.0640  213.4230  146.8920 C   0  0  0  0  0  3  0  0  0  0  0  0
  159.0010  212.6600  145.6580 C   0  0  0  0  0  3  0  0  0  0  0  0
  157.7680  213.2760  148.0900 C   0  0  0  0  0  3  0  0  0  0  0  0
  161.3410  212.4050  149.0890 C   0  0  0  0  0  0  0  0  0  0  0  0
  162.0920  213.3600  148.9440 O   0  0  0  0  0  0  0  0  0  0  0  0
  163.0840  211.0070  148.2670 O   0  0  0  0  0  1  0  0  0  0  0  0
  161.8540  210.9960  148.9220 C   0  0  1  0  0  3  0  0  0  0  0  0
  162.0870  210.9460  151.2840 O   0  0  0  0  0  0  0  0  0  0  0  0
  162.3850  206.7960  151.6790 C   0  0  2  0  0  3  0  0  0  0  0  0
  162.2260  206.1710  153.0430 C   0  0  0  0  0  3  0  0  0  0  0  0
  160.4490  208.2870  152.2660 C   0  0  0  0  0  2  0  0  0  0  0  0
  160.5120  207.8640  153.7320 C   0  0  0  0  0  2  0  0  0  0  0  0
  161.9630  210.2630  150.2300 C   0  0  0  0  0  0  0  0  0  0  0  0
  161.3460  206.6250  153.9510 C   0  0  0  0  0  3  0  0  0  0  0  0
  161.8550  208.2350  151.6640 C   0  0  2  0  0  3  0  0  0  0  0  0
  161.8300  208.4430  147.9980 O   0  0  0  0  0  0  0  0  0  0  0  0
  161.7020  206.5300  149.3270 N   0  0  0  0  0  0  0  0  0  0  0  0
  161.6210  205.9520  150.6660 C   0  0  0  0  0  2  0  0  0  0  0  0
  161.8750  208.8230  150.3190 N   0  0  0  0  0  0  0  0  0  0  0  0
  161.7850  207.9600  149.1610 C   0  0  0  0  0  0  0  0  0  0  0  0
  160.9670  203.7060  149.7300 C   0  0  0  0  0  1  0  0  0  0  0  0
  161.6180  206.1680  146.8960 C   0  0  0  0  0  3  0  0  0  0  0  0
  161.3850  205.3530  145.7870 C   0  0  0  0  0  3  0  0  0  0  0  0
  161.0950  204.3150  148.3750 C   0  0  0  0  0  0  0  0  0  0  0  0
  160.8630  203.5040  147.2600 C   0  0  0  0  0  3  0  0  0  0  0  0
  161.0060  204.0180  145.9670 C   0  0  0  0  0  0  0  0  0  0  0  0
  161.4770  205.6630  148.2000 C   0  0  0  0  0  0  0  0  0  0  0  0
  160.7340  203.1440  144.7870 C   0  0  0  0  0  3  0  0  0  0  0  0
  159.4710  203.3960  144.2790 F   0  0  0  0  0  0  0  0  0  0  0  0
  160.8320  201.8130  145.1530 F   0  0  0  0  0  0  0  0  0  0  0  0
  159.7080  213.8410  150.3150 C   0  0  0  0  0  2  0  0  0  0  0  0
  159.0070  213.4040  151.5910 C   0  0  2  0  0  3  0  0  0  0  0  0
  157.6630  213.2190  151.3240 F   0  0  0  0  0  0  0  0  0  0  0  0
  159.1640  214.3860  152.5760 O   0  0  0  0  0  0  0  0  0  0  0  0
  158.3070  211.4870  154.8290 C   0  0  2  0  0  3  0  0  0  0  0  0
  159.0960  213.7110  153.7990 C   0  0  1  0  0  3  0  0  0  0  0  0
  156.6440  214.1520  154.1560 C   0  0  0  0  0  2  0  0  0  0  0  0
  158.0500  214.3560  154.7300 C   0  0  1  0  0  3  0  0  0  0  0  0
  158.0910  213.6200  155.9910 N   0  0  0  0  0  0  0  0  0  0  0  0
  157.4410  214.4490  157.0100 C   0  0  0  0  0  1  0  0  0  0  0  0
  158.7750  212.2240  153.5450 C   0  0  0  0  0  2  0  0  0  0  0  0
  156.1830  212.8300  154.7530 C   0  0  0  0  0  2  0  0  0  0  0  0
  157.3390  212.3940  155.6590 C   0  0  1  0  0  0  0  0  0  0  0  0
  160.7190  211.1320  154.9510 O   0  0  0  0  0  1  0  0  0  0  0  0
  159.5170  210.9870  155.6560 C   0  0  2  0  0  3  0  0  0  0  0  0
  159.3480  209.5220  156.0030 C   0  0  0  0  0  1  0  0  0  0  0  0
  156.8310  211.6140  156.8960 C   0  0  0  0  0  2  0  0  0  0  0  0
  155.3390  211.7600  157.1730 C   0  0  0  0  0  2  0  0  0  0  0  0
  154.7030  210.3860  157.2270 C   0  0  0  0  0  2  0  0  0  0  0  0
  155.3710  209.4910  155.0250 C   0  0  0  0  0  1  0  0  0  0  0  0
  154.2090  210.0070  155.8480 C   0  0  0  0  0  2  0  0  0  0  0  0
  1 35  1  6  0  0  0
  2  5  1  0  0  0  0
  3  7  1  0  0  0  0
  3  1  1  0  0  0  0
  4  3  2  0  0  0  0
  5  7  2  0  0  0  0
  6  2  2  0  0  0  0
  6  4  1  0  0  0  0
  8  1  1  0  0  0  0
  9  8  2  0  0  0  0
 11 10  1  1  0  0  0
 11  8  1  0  0  0  0
 11 17  1  0  0  0  0
 13 22  1  6  0  0  0
 13 14  1  0  0  0  0
 14 18  2  0  0  0  0
 15 16  1  0  0  0  0
 16 18  1  0  0  0  0
 17 23  1  0  0  0  0
 17 12  2  0  0  0  0
 19 13  1  0  0  0  0
 19 15  1  6  0  0  0
 20 24  2  0  0  0  0
 21 22  1  0  0  0  0
 23 19  1  0  0  0  0
 24 21  1  0  0  0  0
 24 23  1  0  0  0  0
 26 31  1  0  0  0  0
 27 30  1  0  0  0  0
 27 26  2  0  0  0  0
 28 25  1  0  0  0  0
 29 28  1  0  0  0  0
 30 29  2  0  0  0  0
 31 28  2  0  0  0  0
 31 21  1  0  0  0  0
 32 34  1  0  0  0  0
 32 30  1  0  0  0  0
 33 32  1  0  0  0  0
 35 36  1  0  0  0  0
 36 37  1  6  0  0  0
 36 38  1  0  0  0  0
 39 49  1  1  0  0  0
 39 47  1  0  0  0  0
 40 38  1  6  0  0  0
 40 42  1  0  0  0  0
 41 46  1  0  0  0  0
 42 41  1  6  0  0  0
 42 43  1  0  0  0  0
 43 44  1  0  0  0  0
 45 40  1  0  0  0  0
 45 39  1  0  0  0  0
 46 47  1  0  0  0  0
 47 43  1  0  0  0  0
 47 51  1  1  0  0  0
 48 49  1  0  0  0  0
 49 50  1  6  0  0  0
 51 52  1  0  0  0  0
 52 53  1  0  0  0  0
 54 55  1  0  0  0  0
 55 53  1  0  0  0  0
M  END
>  <MODEL>
1

>  <REMARK>
 VINA RESULT:      -6.5      0.000      0.000
  Name = 
  15 active torsions:
  status: ('A' for Active; 'I' for Inactive)
    1  A    between atoms: C_1  and  C_21
    2  A    between atoms: C_3  and  C_25
    3  A    between atoms: C_3  and  C_38
    4  A    between atoms: C_6  and  O_22
    5  A    between atoms: C_8  and  O_22
    6  A    between atoms: C_8  and  C_54
    7  A    between atoms: C_10  and  C_48
    8  A    between atoms: C_19  and  C_37
    9  A    between atoms: C_27  and  C_51
   10  A    between atoms: C_29  and  C_38
   11  A    between atoms: C_29  and  C_53
   12  A    between atoms: N_33  and  C_52
   13  A    between atoms: C_35  and  C_37
   14  A    between atoms: C_35  and  C_51
   15  A    between atoms: C_51  and  C_54
                            x       y       z     vdW  Elec       q    Type
                         _______ _______ _______ _____ _____    ______ ____

>  <TORSDO>
F 15

$$$$
=
 OpenBabel11062408503D

 55 60  0  0  1  0  0  0  0  0999 V2000
  160.0210  212.7640  149.2340 C   0  0  1  0  0  3  0  0  0  0  0  0
  157.7460  213.7490  145.7120 C   0  0  0  0  0  3  0  0  0  0  0  0
  159.2480  213.1280  147.9970 C   0  0  0  0  0  0  0  0  0  0  0  0
  157.8610  213.2880  148.0870 C   0  0  0  0  0  3  0  0  0  0  0  0
  159.1310  213.5830  145.6140 C   0  0  0  0  0  3  0  0  0  0  0  0
  157.1110  213.6000  146.9480 C   0  0  0  0  0  3  0  0  0  0  0  0
  159.8810  213.2700  146.7520 C   0  0  0  0  0  3  0  0  0  0  0  0
  161.4760  212.5250  148.9530 C   0  0  0  0  0  0  0  0  0  0  0  0
  162.1910  213.4900  148.7190 O   0  0  0  0  0  0  0  0  0  0  0  0
  163.2950  211.1410  148.2870 O   0  0  0  0  0  1  0  0  0  0  0  0
  162.0300  211.1250  148.8710 C   0  0  1  0  0  3  0  0  0  0  0  0
  162.1800  211.1680  151.2400 O   0  0  0  0  0  0  0  0  0  0  0  0
  162.3870  207.0340  151.8150 C   0  0  2  0  0  3  0  0  0  0  0  0
  162.1700  206.4690  153.1970 C   0  0  0  0  0  3  0  0  0  0  0  0
  160.4600  208.5810  152.2720 C   0  0  0  0  0  2  0  0  0  0  0  0
  160.4640  208.2180  153.7550 C   0  0  0  0  0  2  0  0  0  0  0  0
  162.0800  210.4450  150.2110 C   0  0  0  0  0  0  0  0  0  0  0  0
  161.2670  206.9760  154.0540 C   0  0  0  0  0  3  0  0  0  0  0  0
  161.8850  208.4810  151.7220 C   0  0  2  0  0  3  0  0  0  0  0  0
  161.9900  208.5360  148.0520 O   0  0  0  0  0  0  0  0  0  0  0  0
  161.7810  206.6820  149.4530 N   0  0  0  0  0  0  0  0  0  0  0  0
  161.6430  206.1620  150.8110 C   0  0  0  0  0  2  0  0  0  0  0  0
  161.9620  209.0110  150.3560 N   0  0  0  0  0  0  0  0  0  0  0  0
  161.8970  208.1020  149.2320 C   0  0  0  0  0  0  0  0  0  0  0  0
  161.3700  203.8060  149.9430 C   0  0  0  0  0  1  0  0  0  0  0  0
  161.5880  206.2630  147.0380 C   0  0  0  0  0  3  0  0  0  0  0  0
  161.3730  205.4040  145.9580 C   0  0  0  0  0  3  0  0  0  0  0  0
  161.3510  204.3970  148.5740 C   0  0  0  0  0  0  0  0  0  0  0  0
  161.1370  203.5420  147.4880 C   0  0  0  0  0  3  0  0  0  0  0  0
  161.1470  204.0410  146.1810 C   0  0  0  0  0  0  0  0  0  0  0  0
  161.5790  205.7740  148.3550 C   0  0  0  0  0  0  0  0  0  0  0  0
  160.8960  203.1190  145.0340 C   0  0  0  0  0  3  0  0  0  0  0  0
  159.7490  203.4930  144.3540 F   0  0  0  0  0  0  0  0  0  0  0  0
  160.7640  201.8210  145.4920 F   0  0  0  0  0  0  0  0  0  0  0  0
  159.8420  213.7560  150.3840 C   0  0  0  0  0  2  0  0  0  0  0  0
  159.4080  213.0550  151.6600 C   0  0  2  0  0  3  0  0  0  0  0  0
  159.2820  211.7010  151.4080 F   0  0  0  0  0  0  0  0  0  0  0  0
  158.1800  213.5740  152.0900 O   0  0  0  0  0  0  0  0  0  0  0  0
  159.4860  212.2900  155.3850 C   0  0  2  0  0  3  0  0  0  0  0  0
  158.1590  213.3950  153.4760 C   0  0  1  0  0  3  0  0  0  0  0  0
  157.3210  211.0240  153.3790 C   0  0  0  0  0  2  0  0  0  0  0  0
  157.0250  212.4360  153.8940 C   0  0  1  0  0  3  0  0  0  0  0  0
  157.0490  212.3570  155.3520 N   0  0  0  0  0  0  0  0  0  0  0  0
  155.7590  211.8150  155.7890 C   0  0  0  0  0  1  0  0  0  0  0  0
  159.5310  212.8730  153.9480 C   0  0  0  0  0  2  0  0  0  0  0  0
  158.1190  210.3750  154.5010 C   0  0  0  0  0  2  0  0  0  0  0  0
  158.1850  211.4470  155.5940 C   0  0  1  0  0  0  0  0  0  0  0  0
  158.4370  214.0480  156.7150 O   0  0  0  0  0  1  0  0  0  0  0  0
  159.6540  213.4070  156.4450 C   0  0  2  0  0  3  0  0  0  0  0  0
  160.6390  214.4500  155.9600 C   0  0  0  0  0  1  0  0  0  0  0  0
  158.1970  210.8180  157.0090 C   0  0  0  0  0  2  0  0  0  0  0  0
  159.3340  209.8350  157.2600 C   0  0  0  0  0  2  0  0  0  0  0  0
  160.6540  210.5030  156.9380 C   0  0  0  0  0  2  0  0  0  0  0  0
  163.0580  210.0370  157.2610 C   0  0  0  0  0  1  0  0  0  0  0  0
  161.7350  209.4490  156.8210 C   0  0  0  0  0  2  0  0  0  0  0  0
  1 35  1  1  0  0  0
  2  6  1  0  0  0  0
  3  4  1  0  0  0  0
  3  1  1  0  0  0  0
  5  2  2  0  0  0  0
  5  7  1  0  0  0  0
  6  4  2  0  0  0  0
  7  3  2  0  0  0  0
  8  1  1  0  0  0  0
  9  8  2  0  0  0  0
 11 10  1  1  0  0  0
 11  8  1  0  0  0  0
 11 17  1  0  0  0  0
 13 22  1  6  0  0  0
 13 14  1  0  0  0  0
 14 18  2  0  0  0  0
 15 16  1  0  0  0  0
 16 18  1  0  0  0  0
 17 23  1  0  0  0  0
 17 12  2  0  0  0  0
 19 13  1  0  0  0  0
 19 15  1  6  0  0  0
 20 24  2  0  0  0  0
 21 22  1  0  0  0  0
 23 19  1  0  0  0  0
 24 21  1  0  0  0  0
 24 23  1  0  0  0  0
 26 31  1  0  0  0  0
 27 30  1  0  0  0  0
 27 26  2  0  0  0  0
 28 25  1  0  0  0  0
 29 28  1  0  0  0  0
 30 29  2  0  0  0  0
 31 28  2  0  0  0  0
 31 21  1  0  0  0  0
 32 34  1  0  0  0  0
 32 30  1  0  0  0  0
 33 32  1  0  0  0  0
 35 36  1  0  0  0  0
 36 37  1  6  0  0  0
 36 38  1  0  0  0  0
 39 47  1  0  0  0  0
 39 49  1  1  0  0  0
 40 38  1  6  0  0  0
 40 42  1  0  0  0  0
 40 45  1  0  0  0  0
 41 46  1  0  0  0  0
 42 41  1  6  0  0  0
 42 43  1  0  0  0  0
 43 47  1  0  0  0  0
 43 44  1  0  0  0  0
 45 39  1  0  0  0  0
 46 47  1  0  0  0  0
 47 51  1  1  0  0  0
 49 50  1  6  0  0  0
 49 48  1  0  0  0  0
 51 52  1  0  0  0  0
 53 52  1  0  0  0  0
 55 53  1  0  0  0  0
 55 54  1  0  0  0  0
M  END
>  <MODEL>
2

>  <REMARK>
 VINA RESULT:      -4.5      1.259      2.372
  Name = 
  15 active torsions:
  status: ('A' for Active; 'I' for Inactive)
    1  A    between atoms: C_1  and  C_21
    2  A    between atoms: C_3  and  C_25
    3  A    between atoms: C_3  and  C_38
    4  A    between atoms: C_6  and  O_22
    5  A    between atoms: C_8  and  O_22
    6  A    between atoms: C_8  and  C_54
    7  A    between atoms: C_10  and  C_48
    8  A    between atoms: C_19  and  C_37
    9  A    between atoms: C_27  and  C_51
   10  A    between atoms: C_29  and  C_38
   11  A    between atoms: C_29  and  C_53
   12  A    between atoms: N_33  and  C_52
   13  A    between atoms: C_35  and  C_37
   14  A    between atoms: C_35  and  C_51
   15  A    between atoms: C_51  and  C_54
                            x       y       z     vdW  Elec       q    Type
                         _______ _______ _______ _____ _____    ______ ____

>  <TORSDO>
F 15

$$$$
=
 OpenBabel11062408503D

 55 61  0  0  1  0  0  0  0  0999 V2000
  161.2440  207.7700  151.9490 C   0  0  1  0  0  3  0  0  0  0  0  0
  161.7700  203.5100  152.3010 C   0  0  0  0  0  3  0  0  0  0  0  0
  161.4100  206.2830  152.0960 C   0  0  0  0  0  0  0  0  0  0  0  0
  162.6810  205.7230  151.9290 C   0  0  0  0  0  3  0  0  0  0  0  0
  160.4960  204.0630  152.4610 C   0  0  0  0  0  3  0  0  0  0  0  0
  162.8620  204.3400  152.0330 C   0  0  0  0  0  3  0  0  0  0  0  0
  160.3150  205.4450  152.3550 C   0  0  0  0  0  3  0  0  0  0  0  0
  161.3360  208.4920  153.2610 C   0  0  0  0  0  0  0  0  0  0  0  0
  161.1720  207.8540  154.2910 O   0  0  0  0  0  0  0  0  0  0  0  0
  161.4490  210.5260  152.0280 O   0  0  0  0  0  0  0  0  0  0  0  0
  161.5350  209.9860  153.3100 C   0  0  1  0  0  3  0  0  0  0  0  0
  160.6450  210.4280  155.4670 O   0  0  0  0  0  0  0  0  0  0  0  0
  157.4250  212.7820  154.2190 C   0  0  2  0  0  3  0  0  0  0  0  0
  156.6840  213.6170  155.2340 C   0  0  0  0  0  3  0  0  0  0  0  0
  159.5500  213.5110  155.3450 C   0  0  0  0  0  2  0  0  0  0  0  0
  158.7770  214.0810  156.5310 C   0  0  0  0  0  2  0  0  0  0  0  0
  160.5600  210.6680  154.2310 C   0  0  0  0  0  0  0  0  0  0  0  0
  157.3030  214.2420  156.2500 C   0  0  0  0  0  3  0  0  0  0  0  0
  158.7820  212.3210  154.7650 C   0  0  2  0  0  3  0  0  0  0  0  0
  160.0350  211.3020  151.4680 O   0  0  0  0  0  0  0  0  0  0  0  0
  158.3810  212.8750  151.9510 N   0  0  0  0  0  0  0  0  0  0  0  0
  157.6300  213.6160  152.9600 C   0  0  0  0  0  2  0  0  0  0  0  0
  159.5810  211.6190  153.7540 N   0  0  0  0  0  0  0  0  0  0  0  0
  159.3790  211.9150  152.3520 C   0  0  1  0  0  3  0  0  0  0  0  0
  160.5500  214.3630  150.6240 C   0  0  0  0  0  1  0  0  0  0  0  0
  157.0820  212.9770  149.8640 C   0  0  0  0  0  3  0  0  0  0  0  0
  156.9460  213.3440  148.5250 C   0  0  0  0  0  3  0  0  0  0  0  0
  159.2980  213.9710  149.9160 C   0  0  0  0  0  0  0  0  0  0  0  0
  159.1540  214.3370  148.5740 C   0  0  0  0  0  3  0  0  0  0  0  0
  157.9820  214.0250  147.8760 C   0  0  0  0  0  0  0  0  0  0  0  0
  158.2550  213.2840  150.5760 C   0  0  0  0  0  0  0  0  0  0  0  0
  157.8530  214.4040  146.4380 C   0  0  0  0  0  3  0  0  0  0  0  0
  156.9140  213.6040  145.8090 F   0  0  0  0  0  0  0  0  0  0  0  0
  159.0760  214.2730  145.8040 F   0  0  0  0  0  0  0  0  0  0  0  0
  162.1840  208.3920  150.9150 C   0  0  0  0  0  2  0  0  0  0  0  0
  161.6450  208.2290  149.5040 C   0  0  2  0  0  3  0  0  0  0  0  0
  160.3880  207.6550  149.5680 F   0  0  0  0  0  0  0  0  0  0  0  0
  162.5040  207.4090  148.7620 O   0  0  0  0  0  0  0  0  0  0  0  0
  161.7820  203.8100  147.9020 C   0  0  2  0  0  3  0  0  0  0  0  0
  161.7130  206.3520  148.3000 C   0  0  1  0  0  3  0  0  0  0  0  0
  162.8250  206.2150  146.0470 C   0  0  0  0  0  2  0  0  0  0  0  0
  161.4980  206.4460  146.7750 C   0  0  1  0  0  3  0  0  0  0  0  0
  160.6230  205.3400  146.3990 N   0  0  0  0  0  0  0  0  0  0  0  0
  160.0690  205.6420  145.0760 C   0  0  0  0  0  1  0  0  0  0  0  0
  162.3700  205.0120  148.6880 C   0  0  0  0  0  2  0  0  0  0  0  0
  162.8740  204.7100  145.8250 C   0  0  0  0  0  2  0  0  0  0  0  0
  161.5520  204.1940  146.4030 C   0  0  1  0  0  0  0  0  0  0  0  0
  160.0500  204.1360  149.5910 O   0  0  0  0  0  1  0  0  0  0  0  0
  160.5010  203.2710  148.5860 C   0  0  2  0  0  3  0  0  0  0  0  0
  160.7690  201.9180  149.2140 C   0  0  0  0  0  1  0  0  0  0  0  0
  161.0330  202.9600  145.6250 C   0  0  0  0  0  2  0  0  0  0  0  0
  161.5390  201.6200  146.1440 C   0  0  0  0  0  2  0  0  0  0  0  0
  160.7800  200.4990  145.4660 C   0  0  0  0  0  2  0  0  0  0  0  0
  160.7890  198.0650  145.0490 C   0  0  0  0  0  1  0  0  0  0  0  0
  161.3210  199.1670  145.9400 C   0  0  0  0  0  2  0  0  0  0  0  0
  1 35  1  6  0  0  0
  1  3  1  0  0  0  0
  1  8  1  0  0  0  0
  2  5  1  0  0  0  0
  3  7  1  0  0  0  0
  4  6  1  0  0  0  0
  4  3  2  0  0  0  0
  6  2  2  0  0  0  0
  7  5  2  0  0  0  0
  8  9  2  0  0  0  0
 10 11  1  0  0  0  0
 11  8  1  6  0  0  0
 11 17  1  0  0  0  0
 13 22  1  6  0  0  0
 13 19  1  0  0  0  0
 13 14  1  0  0  0  0
 14 18  2  0  0  0  0
 15 16  1  0  0  0  0
 17 12  2  0  0  0  0
 18 16  1  0  0  0  0
 19 15  1  6  0  0  0
 20 10  1  0  0  0  0
 21 24  1  0  0  0  0
 21 22  1  0  0  0  0
 23 17  1  0  0  0  0
 23 19  1  0  0  0  0
 24 20  1  6  0  0  0
 24 23  1  0  0  0  0
 26 31  1  0  0  0  0
 27 26  2  0  0  0  0
 28 31  2  0  0  0  0
 28 25  1  0  0  0  0
 29 28  1  0  0  0  0
 30 27  1  0  0  0  0
 30 29  2  0  0  0  0
 31 21  1  0  0  0  0
 32 30  1  0  0  0  0
 33 32  1  0  0  0  0
 34 32  1  0  0  0  0
 36 37  1  1  0  0  0
 36 35  1  0  0  0  0
 38 36  1  0  0  0  0
 39 49  1  1  0  0  0
 39 45  1  0  0  0  0
 40 45  1  0  0  0  0
 40 38  1  6  0  0  0
 42 41  1  6  0  0  0
 42 40  1  0  0  0  0
 43 47  1  0  0  0  0
 43 42  1  0  0  0  0
 44 43  1  0  0  0  0
 46 41  1  0  0  0  0
 46 47  1  0  0  0  0
 47 51  1  6  0  0  0
 47 39  1  0  0  0  0
 49 50  1  1  0  0  0
 49 48  1  0  0  0  0
 51 52  1  0  0  0  0
 53 55  1  0  0  0  0
 53 52  1  0  0  0  0
 54 55  1  0  0  0  0
M  END
>  <MODEL>
3

>  <REMARK>
 VINA RESULT:      -3.8      2.614     10.127
  Name = 
  15 active torsions:
  status: ('A' for Active; 'I' for Inactive)
    1  A    between atoms: C_1  and  C_21
    2  A    between atoms: C_3  and  C_25
    3  A    between atoms: C_3  and  C_38
    4  A    between atoms: C_6  and  O_22
    5  A    between atoms: C_8  and  O_22
    6  A    between atoms: C_8  and  C_54
    7  A    between atoms: C_10  and  C_48
    8  A    between atoms: C_19  and  C_37
    9  A    between atoms: C_27  and  C_51
   10  A    between atoms: C_29  and  C_38
   11  A    between atoms: C_29  and  C_53
   12  A    between atoms: N_33  and  C_52
   13  A    between atoms: C_35  and  C_37
   14  A    between atoms: C_35  and  C_51
   15  A    between atoms: C_51  and  C_54
                            x       y       z     vdW  Elec       q    Type
                         _______ _______ _______ _____ _____    ______ ____

>  <TORSDO>
F 15

$$$$
