=
 OpenBabel11052422133D

 25 28  0  0  1  0  0  0  0  0999 V2000
  161.3090  206.7990  151.9810 C   0  0  0  0  0  0  0  0  0  0  0  0
  161.3160  206.0610  150.8690 C   0  0  0  0  0  0  0  0  0  0  0  0
  160.8190  204.8340  153.4530 C   0  0  0  0  0  2  0  0  0  0  0  0
  161.5090  208.1470  152.1530 C   0  0  0  0  0  0  0  0  0  0  0  0
  161.8170  210.3060  152.6040 N   0  0  0  0  0  0  0  0  0  0  0  0
  160.8450  204.0380  152.1650 C   0  0  0  0  0  3  0  0  0  0  0  0
  161.4000  208.3860  153.4510 C   0  0  0  0  0  0  0  0  0  0  0  0
  161.5950  209.7580  153.7410 N   0  0  0  0  0  0  0  0  0  0  0  0
  161.1000  203.8200  149.7200 C   0  0  0  0  0  0  0  0  0  0  0  0
  160.8770  202.3450  149.7410 C   0  0  0  0  0  1  0  0  0  0  0  0
  161.5530  206.6210  149.5820 N   0  0  0  0  0  2  0  0  0  0  0  0
  161.9830  209.5590  150.1210 C   0  0  0  0  0  1  0  0  0  0  0  0
  161.0810  206.2540  153.2070 N   0  0  0  0  0  0  0  0  0  0  0  0
  161.1310  207.2320  154.1560 C   0  0  0  0  0  3  0  0  0  0  0  0
  161.3210  204.4000  148.5760 N   0  0  0  0  0  0  0  0  0  0  0  0
  161.7680  209.3000  151.5700 C   0  0  0  0  0  0  0  0  0  0  0  0
  161.5400  205.7870  148.4520 N   0  0  0  0  0  0  0  0  0  0  0  0
  161.0740  204.6100  150.9690 C   0  0  0  0  0  0  0  0  0  0  0  0
  161.8290  206.3510  147.1470 C   0  0  0  0  0  2  0  0  0  0  0  0
  162.2760  205.2460  146.1970 C   0  0  0  0  0  2  0  0  0  0  0  0
  161.3470  205.0970  144.9900 C   0  0  2  0  0  3  0  0  0  0  0  0
  160.2770  206.1750  144.9840 C   0  0  0  0  0  1  0  0  0  0  0  0
  161.1760  202.7440  145.6630 C   0  0  0  0  0  3  0  0  0  0  0  0
  160.5770  201.4930  145.5850 O   0  0  0  0  0  1  0  0  0  0  0  0
  160.7180  203.7430  144.9210 C   0  0  0  0  0  3  0  0  0  0  0  0
  1  4  1  0  0  0  0
  1 13  1  0  0  0  0
  2 18  1  0  0  0  0
  2  1  2  0  0  0  0
  4  7  1  0  0  0  0
  5  8  2  0  0  0  0
  6  3  1  0  0  0  0
  7  8  1  0  0  0  0
  7 14  2  0  0  0  0
  9 10  1  0  0  0  0
  9 18  1  0  0  0  0
 11  2  1  0  0  0  0
 12 16  1  0  0  0  0
 13  3  1  0  0  0  0
 13 14  1  0  0  0  0
 15  9  2  0  0  0  0
 16  4  2  0  0  0  0
 16  5  1  0  0  0  0
 17 15  1  0  0  0  0
 17 11  1  0  0  0  0
 18  6  2  0  0  0  0
 19 17  1  0  0  0  0
 20 19  1  0  0  0  0
 21 22  1  1  0  0  0
 21 20  1  0  0  0  0
 24 23  1  0  0  0  0
 25 21  1  0  0  0  0
 25 23  2  0  0  0  0
M  END
>  <MODEL>
1

>  <REMARK>
 VINA RESULT:      -8.8      0.000      0.000
  Name = 
  4 active torsions:
  status: ('A' for Active; 'I' for Inactive)
    1  A    between atoms: C_6  and  C_15
    2  A    between atoms: C_6  and  N_23
    3  A    between atoms: C_12  and  C_21
    4  A    between atoms: C_15  and  C_21
                            x       y       z     vdW  Elec       q    Type
                         _______ _______ _______ _____ _____    ______ ____

>  <TORSDO>
F 4

$$$$
=
 OpenBabel11052422133D

 25 28  0  0  1  0  0  0  0  0999 V2000
  161.3680  205.0250  149.1510 C   0  0  0  0  0  0  0  0  0  0  0  0
  161.4200  205.9260  150.1340 C   0  0  0  0  0  0  0  0  0  0  0  0
  161.7870  206.7330  147.3710 C   0  0  0  0  0  2  0  0  0  0  0  0
  161.1560  203.6680  149.2010 C   0  0  0  0  0  0  0  0  0  0  0  0
  160.8350  201.4670  149.1070 N   0  0  0  0  0  0  0  0  0  0  0  0
  161.8440  207.7160  148.5200 C   0  0  0  0  0  3  0  0  0  0  0  0
  161.2000  203.2300  147.9520 C   0  0  0  0  0  0  0  0  0  0  0  0
  160.9960  201.8310  147.8890 N   0  0  0  0  0  0  0  0  0  0  0  0
  161.7340  208.3100  150.9130 C   0  0  0  0  0  0  0  0  0  0  0  0
  161.9980  209.7550  150.6560 C   0  0  0  0  0  1  0  0  0  0  0  0
  161.2430  205.5750  151.5030 N   0  0  0  0  0  2  0  0  0  0  0  0
  160.8030  202.5900  151.4500 C   0  0  0  0  0  1  0  0  0  0  0  0
  161.5380  205.3710  147.8460 N   0  0  0  0  0  0  0  0  0  0  0  0
  161.4370  204.2590  147.0640 C   0  0  0  0  0  3  0  0  0  0  0  0
  161.5600  207.9170  152.1420 N   0  0  0  0  0  0  0  0  0  0  0  0
  160.9320  202.6210  149.9680 C   0  0  0  0  0  0  0  0  0  0  0  0
  161.3030  206.5760  152.4860 N   0  0  0  0  0  0  0  0  0  0  0  0
  161.6720  207.3400  149.8000 C   0  0  0  0  0  0  0  0  0  0  0  0
  161.1700  206.2090  153.8840 C   0  0  0  0  0  2  0  0  0  0  0  0
  160.4300  207.3100  154.6350 C   0  0  0  0  0  2  0  0  0  0  0  0
  161.1690  207.7580  155.8980 C   0  0  2  0  0  3  0  0  0  0  0  0
  160.3970  207.3830  157.1500 C   0  0  0  0  0  1  0  0  0  0  0  0
  160.8630  210.0340  155.0320 C   0  0  0  0  0  3  0  0  0  0  0  0
  161.1500  211.3930  155.0430 O   0  0  0  0  0  1  0  0  0  0  0  0
  161.4640  209.2230  155.8930 C   0  0  0  0  0  3  0  0  0  0  0  0
  1  4  1  0  0  0  0
  1  2  2  0  0  0  0
  2 11  1  0  0  0  0
  3 13  1  0  0  0  0
  3  6  1  0  0  0  0
  4 16  2  0  0  0  0
  5 16  1  0  0  0  0
  6 18  2  0  0  0  0
  7  4  1  0  0  0  0
  8  7  1  0  0  0  0
  8  5  2  0  0  0  0
  9 15  2  0  0  0  0
 10  9  1  0  0  0  0
 11 17  1  0  0  0  0
 13  1  1  0  0  0  0
 14 13  1  0  0  0  0
 14  7  2  0  0  0  0
 15 17  1  0  0  0  0
 16 12  1  0  0  0  0
 17 19  1  0  0  0  0
 18  2  1  0  0  0  0
 18  9  1  0  0  0  0
 19 20  1  0  0  0  0
 20 21  1  0  0  0  0
 21 22  1  1  0  0  0
 23 24  1  0  0  0  0
 23 25  2  0  0  0  0
 25 21  1  0  0  0  0
M  END
>  <MODEL>
2

>  <REMARK>
 VINA RESULT:      -8.6      3.223      7.898
  Name = 
  4 active torsions:
  status: ('A' for Active; 'I' for Inactive)
    1  A    between atoms: C_6  and  C_15
    2  A    between atoms: C_6  and  N_23
    3  A    between atoms: C_12  and  C_21
    4  A    between atoms: C_15  and  C_21
                            x       y       z     vdW  Elec       q    Type
                         _______ _______ _______ _____ _____    ______ ____

>  <TORSDO>
F 4

$$$$
=
 OpenBabel11052422133D

 25 28  0  0  1  0  0  0  0  0999 V2000
  161.2090  204.5130  149.1410 C   0  0  0  0  0  0  0  0  0  0  0  0
  161.3390  205.7620  149.5930 C   0  0  0  0  0  0  0  0  0  0  0  0
  160.8070  203.5760  151.4270 C   0  0  0  0  0  2  0  0  0  0  0  0
  161.2840  204.0200  147.8610 C   0  0  0  0  0  0  0  0  0  0  0  0
  161.3690  203.0630  145.8520 N   0  0  0  0  0  0  0  0  0  0  0  0
  160.9560  205.0090  151.8900 C   0  0  0  0  0  3  0  0  0  0  0  0
  161.0820  202.7130  147.9430 C   0  0  0  0  0  0  0  0  0  0  0  0
  161.1350  202.1020  146.6680 N   0  0  0  0  0  0  0  0  0  0  0  0
  161.3430  207.4160  151.5040 C   0  0  0  0  0  0  0  0  0  0  0  0
  161.2060  207.7580  152.9490 C   0  0  0  0  0  1  0  0  0  0  0  0
  161.6030  206.8630  148.7300 N   0  0  0  0  0  2  0  0  0  0  0  0
  161.7280  205.6330  145.9770 C   0  0  0  0  0  1  0  0  0  0  0  0
  160.9570  203.4670  149.9740 N   0  0  0  0  0  0  0  0  0  0  0  0
  160.8730  202.3170  149.2470 C   0  0  0  0  0  3  0  0  0  0  0  0
  161.5870  208.3740  150.6570 N   0  0  0  0  0  0  0  0  0  0  0  0
  161.4690  204.3010  146.5870 C   0  0  0  0  0  0  0  0  0  0  0  0
  161.7360  208.1510  149.2740 N   0  0  0  0  0  0  0  0  0  0  0  0
  161.2040  206.0200  151.0390 C   0  0  0  0  0  0  0  0  0  0  0  0
  161.9570  209.2790  148.3890 C   0  0  0  0  0  2  0  0  0  0  0  0
  162.0240  210.5660  149.2030 C   0  0  0  0  0  2  0  0  0  0  0  0
  161.9130  211.8190  148.3300 C   0  0  2  0  0  3  0  0  0  0  0  0
  163.2820  212.3020  147.8860 C   0  0  0  0  0  1  0  0  0  0  0  0
  160.0130  213.3570  148.5370 C   0  0  0  0  0  3  0  0  0  0  0  0
  159.3380  214.3830  149.1860 O   0  0  0  0  0  1  0  0  0  0  0  0
  161.1710  212.9220  149.0130 C   0  0  0  0  0  3  0  0  0  0  0  0
  1  2  2  0  0  0  0
  1 13  1  0  0  0  0
  2 18  1  0  0  0  0
  3  6  1  0  0  0  0
  4  7  1  0  0  0  0
  4  1  1  0  0  0  0
  5 16  1  0  0  0  0
  5  8  2  0  0  0  0
  7 14  2  0  0  0  0
  8  7  1  0  0  0  0
  9 10  1  0  0  0  0
 11 17  1  0  0  0  0
 11  2  1  0  0  0  0
 12 16  1  0  0  0  0
 13  3  1  0  0  0  0
 14 13  1  0  0  0  0
 15  9  2  0  0  0  0
 16  4  2  0  0  0  0
 17 15  1  0  0  0  0
 18  9  1  0  0  0  0
 18  6  2  0  0  0  0
 19 20  1  0  0  0  0
 19 17  1  0  0  0  0
 21 22  1  1  0  0  0
 21 25  1  0  0  0  0
 21 20  1  0  0  0  0
 23 25  2  0  0  0  0
 23 24  1  0  0  0  0
M  END
>  <MODEL>
3

>  <REMARK>
 VINA RESULT:      -8.6      3.381      6.707
  Name = 
  4 active torsions:
  status: ('A' for Active; 'I' for Inactive)
    1  A    between atoms: C_6  and  C_15
    2  A    between atoms: C_6  and  N_23
    3  A    between atoms: C_12  and  C_21
    4  A    between atoms: C_15  and  C_21
                            x       y       z     vdW  Elec       q    Type
                         _______ _______ _______ _____ _____    ______ ____

>  <TORSDO>
F 4

$$$$
=
 OpenBabel11052422133D

 25 28  0  0  1  0  0  0  0  0999 V2000
  161.2410  204.8380  149.3980 C   0  0  0  0  0  0  0  0  0  0  0  0
  161.3590  206.0880  149.8490 C   0  0  0  0  0  0  0  0  0  0  0  0
  160.8050  203.9050  151.6790 C   0  0  0  0  0  2  0  0  0  0  0  0
  161.3400  204.3410  148.1200 C   0  0  0  0  0  0  0  0  0  0  0  0
  161.4630  203.3800  146.1160 N   0  0  0  0  0  0  0  0  0  0  0  0
  160.9400  205.3400  152.1410 C   0  0  0  0  0  3  0  0  0  0  0  0
  161.1420  203.0340  148.2030 C   0  0  0  0  0  0  0  0  0  0  0  0
  161.2200  202.4200  146.9300 N   0  0  0  0  0  0  0  0  0  0  0  0
  161.3240  207.7470  151.7550 C   0  0  0  0  0  0  0  0  0  0  0  0
  161.1610  208.0930  153.1970 C   0  0  0  0  0  1  0  0  0  0  0  0
  161.6330  207.1890  148.9870 N   0  0  0  0  0  2  0  0  0  0  0  0
  161.8090  205.9520  146.2400 C   0  0  0  0  0  1  0  0  0  0  0  0
  160.9800  203.7920  150.2290 N   0  0  0  0  0  0  0  0  0  0  0  0
  160.9120  202.6400  149.5040 C   0  0  0  0  0  3  0  0  0  0  0  0
  161.5780  208.7040  150.9100 N   0  0  0  0  0  0  0  0  0  0  0  0
  161.5450  204.6200  146.8480 C   0  0  0  0  0  0  0  0  0  0  0  0
  161.7510  208.4780  149.5300 N   0  0  0  0  0  0  0  0  0  0  0  0
  161.1980  206.3490  151.2910 C   0  0  0  0  0  0  0  0  0  0  0  0
  161.9820  209.6040  148.6450 C   0  0  0  0  0  2  0  0  0  0  0  0
  162.1710  210.8740  149.4680 C   0  0  0  0  0  2  0  0  0  0  0  0
  161.7360  212.1320  148.7140 C   0  0  2  0  0  3  0  0  0  0  0  0
  160.8120  212.9900  149.5610 C   0  0  0  0  0  1  0  0  0  0  0  0
  160.8730  212.7650  146.5060 C   0  0  0  0  0  3  0  0  0  0  0  0
  160.2710  212.4500  145.2950 O   0  0  0  0  0  1  0  0  0  0  0  0
  161.0890  211.8140  147.4040 C   0  0  0  0  0  3  0  0  0  0  0  0
  1  2  2  0  0  0  0
  1 13  1  0  0  0  0
  2 18  1  0  0  0  0
  3  6  1  0  0  0  0
  4  7  1  0  0  0  0
  4  1  1  0  0  0  0
  5 16  1  0  0  0  0
  5  8  2  0  0  0  0
  7 14  2  0  0  0  0
  8  7  1  0  0  0  0
  9 10  1  0  0  0  0
 11 17  1  0  0  0  0
 11  2  1  0  0  0  0
 12 16  1  0  0  0  0
 13  3  1  0  0  0  0
 14 13  1  0  0  0  0
 15  9  2  0  0  0  0
 16  4  2  0  0  0  0
 17 15  1  0  0  0  0
 18  9  1  0  0  0  0
 18  6  2  0  0  0  0
 19 20  1  0  0  0  0
 19 17  1  0  0  0  0
 21 20  1  0  0  0  0
 21 22  1  1  0  0  0
 23 25  2  0  0  0  0
 24 23  1  0  0  0  0
 25 21  1  0  0  0  0
M  END
>  <MODEL>
4

>  <REMARK>
 VINA RESULT:      -8.4      2.995      6.341
  Name = 
  4 active torsions:
  status: ('A' for Active; 'I' for Inactive)
    1  A    between atoms: C_6  and  C_15
    2  A    between atoms: C_6  and  N_23
    3  A    between atoms: C_12  and  C_21
    4  A    between atoms: C_15  and  C_21
                            x       y       z     vdW  Elec       q    Type
                         _______ _______ _______ _____ _____    ______ ____

>  <TORSDO>
F 4

$$$$
=
 OpenBabel11052422133D

 25 28  0  0  1  0  0  0  0  0999 V2000
  161.2290  203.9770  148.9860 C   0  0  0  0  0  0  0  0  0  0  0  0
  161.3370  204.9470  149.8960 C   0  0  0  0  0  0  0  0  0  0  0  0
  160.8310  202.2070  150.7100 C   0  0  0  0  0  2  0  0  0  0  0  0
  161.3180  204.0320  147.6160 C   0  0  0  0  0  0  0  0  0  0  0  0
  161.4280  203.9490  145.3940 N   0  0  0  0  0  0  0  0  0  0  0  0
  160.9540  203.3420  151.7040 C   0  0  0  0  0  3  0  0  0  0  0  0
  161.1370  202.7970  147.1730 C   0  0  0  0  0  0  0  0  0  0  0  0
  161.2050  202.7410  145.7600 N   0  0  0  0  0  0  0  0  0  0  0  0
  161.3060  205.7100  152.3060 C   0  0  0  0  0  0  0  0  0  0  0  0
  161.1560  205.4510  153.7670 C   0  0  0  0  0  1  0  0  0  0  0  0
  161.5880  206.3030  149.5420 N   0  0  0  0  0  2  0  0  0  0  0  0
  161.7460  206.2640  146.5290 C   0  0  0  0  0  1  0  0  0  0  0  0
  160.9900  202.6840  149.3340 N   0  0  0  0  0  0  0  0  0  0  0  0
  160.9270  201.9140  148.2110 C   0  0  0  0  0  3  0  0  0  0  0  0
  161.5380  206.9280  151.9090 N   0  0  0  0  0  0  0  0  0  0  0  0
  161.5050  204.7960  146.5590 C   0  0  0  0  0  0  0  0  0  0  0  0
  161.6970  207.2720  150.5530 N   0  0  0  0  0  0  0  0  0  0  0  0
  161.1910  204.6100  151.3250 C   0  0  0  0  0  0  0  0  0  0  0  0
  161.9050  208.6610  150.1880 C   0  0  0  0  0  2  0  0  0  0  0  0
  162.2250  209.4780  151.4340 C   0  0  0  0  0  2  0  0  0  0  0  0
  160.9670  209.9230  152.1840 C   0  0  2  0  0  3  0  0  0  0  0  0
  160.6180  211.3660  151.8640 C   0  0  0  0  0  1  0  0  0  0  0  0
  161.5820  210.7000  154.4290 C   0  0  0  0  0  3  0  0  0  0  0  0
  161.6890  210.5070  155.8000 O   0  0  0  0  0  1  0  0  0  0  0  0
  161.0910  209.7360  153.6620 C   0  0  0  0  0  3  0  0  0  0  0  0
  1 13  1  0  0  0  0
  1  2  2  0  0  0  0
  2 18  1  0  0  0  0
  3  6  1  0  0  0  0
  4  1  1  0  0  0  0
  5  8  2  0  0  0  0
  5 16  1  0  0  0  0
  7  4  1  0  0  0  0
  7 14  2  0  0  0  0
  8  7  1  0  0  0  0
  9 10  1  0  0  0  0
 11  2  1  0  0  0  0
 11 17  1  0  0  0  0
 12 16  1  0  0  0  0
 13  3  1  0  0  0  0
 14 13  1  0  0  0  0
 15  9  2  0  0  0  0
 16  4  2  0  0  0  0
 17 15  1  0  0  0  0
 18  6  2  0  0  0  0
 18  9  1  0  0  0  0
 19 17  1  0  0  0  0
 19 20  1  0  0  0  0
 20 21  1  0  0  0  0
 21 22  1  1  0  0  0
 21 25  1  0  0  0  0
 23 24  1  0  0  0  0
 25 23  2  0  0  0  0
M  END
>  <MODEL>
5

>  <REMARK>
 VINA RESULT:      -8.4      3.153      6.982
  Name = 
  4 active torsions:
  status: ('A' for Active; 'I' for Inactive)
    1  A    between atoms: C_6  and  C_15
    2  A    between atoms: C_6  and  N_23
    3  A    between atoms: C_12  and  C_21
    4  A    between atoms: C_15  and  C_21
                            x       y       z     vdW  Elec       q    Type
                         _______ _______ _______ _____ _____    ______ ____

>  <TORSDO>
F 4

$$$$
=
 OpenBabel11052422133D

 25 28  0  0  1  0  0  0  0  0999 V2000
  161.3610  205.1700  149.2610 C   0  0  0  0  0  0  0  0  0  0  0  0
  161.5230  206.3890  149.7800 C   0  0  0  0  0  0  0  0  0  0  0  0
  161.6290  205.9810  146.9090 C   0  0  0  0  0  2  0  0  0  0  0  0
  161.1350  203.9640  149.8800 C   0  0  0  0  0  0  0  0  0  0  0  0
  160.7730  201.9360  150.7240 N   0  0  0  0  0  0  0  0  0  0  0  0
  161.8130  207.3420  147.5450 C   0  0  0  0  0  3  0  0  0  0  0  0
  161.0500  203.0540  148.9220 C   0  0  0  0  0  0  0  0  0  0  0  0
  160.8200  201.7640  149.4560 N   0  0  0  0  0  0  0  0  0  0  0  0
  161.9470  208.8630  149.4840 C   0  0  0  0  0  0  0  0  0  0  0  0
  162.2060  210.0620  148.6360 C   0  0  0  0  0  1  0  0  0  0  0  0
  161.4750  206.6350  151.1820 N   0  0  0  0  0  2  0  0  0  0  0  0
  160.9880  203.9150  152.3950 C   0  0  0  0  0  1  0  0  0  0  0  0
  161.4070  204.9450  147.9200 N   0  0  0  0  0  0  0  0  0  0  0  0
  161.2130  203.6180  147.6740 C   0  0  0  0  0  3  0  0  0  0  0  0
  161.8890  209.0140  150.7760 N   0  0  0  0  0  0  0  0  0  0  0  0
  160.9710  203.3330  151.0250 C   0  0  0  0  0  0  0  0  0  0  0  0
  161.6460  207.9440  151.6600 N   0  0  0  0  0  0  0  0  0  0  0  0
  161.7620  207.5280  148.8760 C   0  0  0  0  0  0  0  0  0  0  0  0
  161.6460  208.1860  153.0900 C   0  0  0  0  0  2  0  0  0  0  0  0
  160.6800  207.2250  153.7730 C   0  0  0  0  0  2  0  0  0  0  0  0
  160.7370  207.3200  155.3000 C   0  0  2  0  0  3  0  0  0  0  0  0
  159.4020  206.9540  155.9250 C   0  0  0  0  0  1  0  0  0  0  0  0
  161.9410  208.8020  156.8420 C   0  0  0  0  0  3  0  0  0  0  0  0
  162.3370  210.0650  157.2610 O   0  0  0  0  0  1  0  0  0  0  0  0
  161.1740  208.6710  155.7680 C   0  0  0  0  0  3  0  0  0  0  0  0
  1  2  2  0  0  0  0
  1  4  1  0  0  0  0
  2 11  1  0  0  0  0
  3  6  1  0  0  0  0
  3 13  1  0  0  0  0
  4 16  2  0  0  0  0
  5 16  1  0  0  0  0
  6 18  2  0  0  0  0
  7  8  1  0  0  0  0
  7  4  1  0  0  0  0
  8  5  2  0  0  0  0
  9 15  2  0  0  0  0
 10  9  1  0  0  0  0
 11 17  1  0  0  0  0
 13  1  1  0  0  0  0
 14 13  1  0  0  0  0
 14  7  2  0  0  0  0
 15 17  1  0  0  0  0
 16 12  1  0  0  0  0
 17 19  1  0  0  0  0
 18  9  1  0  0  0  0
 18  2  1  0  0  0  0
 19 20  1  0  0  0  0
 20 21  1  0  0  0  0
 21 25  1  0  0  0  0
 21 22  1  1  0  0  0
 23 24  1  0  0  0  0
 25 23  2  0  0  0  0
M  END
>  <MODEL>
6

>  <REMARK>
 VINA RESULT:      -8.3      3.399      7.686
  Name = 
  4 active torsions:
  status: ('A' for Active; 'I' for Inactive)
    1  A    between atoms: C_6  and  C_15
    2  A    between atoms: C_6  and  N_23
    3  A    between atoms: C_12  and  C_21
    4  A    between atoms: C_15  and  C_21
                            x       y       z     vdW  Elec       q    Type
                         _______ _______ _______ _____ _____    ______ ____

>  <TORSDO>
F 4

$$$$
=
 OpenBabel11052422133D

 25 28  0  0  1  0  0  0  0  0999 V2000
  161.3450  205.7750  150.6620 C   0  0  0  0  0  0  0  0  0  0  0  0
  161.5470  207.0910  150.7540 C   0  0  0  0  0  0  0  0  0  0  0  0
  161.1660  205.4860  153.1420 C   0  0  0  0  0  2  0  0  0  0  0  0
  161.2760  204.9630  149.5570 C   0  0  0  0  0  0  0  0  0  0  0  0
  161.1300  203.5120  147.8730 N   0  0  0  0  0  0  0  0  0  0  0  0
  161.3900  206.9820  153.1940 C   0  0  0  0  0  3  0  0  0  0  0  0
  161.0570  203.7340  150.0000 C   0  0  0  0  0  0  0  0  0  0  0  0
  160.9640  202.8100  148.9320 N   0  0  0  0  0  0  0  0  0  0  0  0
  161.7840  209.1840  152.1520 C   0  0  0  0  0  0  0  0  0  0  0  0
  161.8060  209.8970  153.4610 C   0  0  0  0  0  1  0  0  0  0  0  0
  161.7410  207.9160  149.6100 N   0  0  0  0  0  2  0  0  0  0  0  0
  161.5530  206.0070  147.2810 C   0  0  0  0  0  1  0  0  0  0  0  0
  161.1610  204.9950  151.7620 N   0  0  0  0  0  0  0  0  0  0  0  0
  160.9770  203.7010  151.3760 C   0  0  0  0  0  3  0  0  0  0  0  0
  161.9580  209.8750  151.0620 N   0  0  0  0  0  0  0  0  0  0  0  0
  161.3320  204.8930  148.2420 C   0  0  0  0  0  0  0  0  0  0  0  0
  161.9560  209.2930  149.7790 N   0  0  0  0  0  0  0  0  0  0  0  0
  161.5690  207.7230  152.0860 C   0  0  0  0  0  0  0  0  0  0  0  0
  162.1060  210.1400  148.6110 C   0  0  0  0  0  2  0  0  0  0  0  0
  161.9560  211.6030  149.0130 C   0  0  0  0  0  2  0  0  0  0  0  0
  161.8230  212.5330  147.8050 C   0  0  2  0  0  3  0  0  0  0  0  0
  162.3080  213.9340  148.1330 C   0  0  0  0  0  1  0  0  0  0  0  0
  160.1940  212.5920  145.9700 C   0  0  0  0  0  3  0  0  0  0  0  0
  158.8880  212.6350  145.4990 O   0  0  0  0  0  1  0  0  0  0  0  0
  160.4260  212.5800  147.2760 C   0  0  0  0  0  3  0  0  0  0  0  0
  1  2  2  0  0  0  0
  1 13  1  0  0  0  0
  2 18  1  0  0  0  0
  3  6  1  0  0  0  0
  4  7  1  0  0  0  0
  4  1  1  0  0  0  0
  5 16  1  0  0  0  0
  5  8  2  0  0  0  0
  7 14  2  0  0  0  0
  8  7  1  0  0  0  0
  9 10  1  0  0  0  0
 11 17  1  0  0  0  0
 11  2  1  0  0  0  0
 12 16  1  0  0  0  0
 13  3  1  0  0  0  0
 14 13  1  0  0  0  0
 15  9  2  0  0  0  0
 16  4  2  0  0  0  0
 17 15  1  0  0  0  0
 18  9  1  0  0  0  0
 18  6  2  0  0  0  0
 19 20  1  0  0  0  0
 19 17  1  0  0  0  0
 21 22  1  1  0  0  0
 21 20  1  0  0  0  0
 23 25  2  0  0  0  0
 24 23  1  0  0  0  0
 25 21  1  0  0  0  0
M  END
>  <MODEL>
7

>  <REMARK>
 VINA RESULT:      -8.1      3.181      6.208
  Name = 
  4 active torsions:
  status: ('A' for Active; 'I' for Inactive)
    1  A    between atoms: C_6  and  C_15
    2  A    between atoms: C_6  and  N_23
    3  A    between atoms: C_12  and  C_21
    4  A    between atoms: C_15  and  C_21
                            x       y       z     vdW  Elec       q    Type
                         _______ _______ _______ _____ _____    ______ ____

>  <TORSDO>
F 4

$$$$
=
 OpenBabel11052422133D

 25 28  0  0  1  0  0  0  0  0999 V2000
  161.1160  203.1380  148.4750 C   0  0  0  0  0  0  0  0  0  0  0  0
  161.2850  204.2600  147.7720 C   0  0  0  0  0  0  0  0  0  0  0  0
  160.9800  201.7080  146.4250 C   0  0  0  0  0  2  0  0  0  0  0  0
  161.0530  202.9420  149.8330 C   0  0  0  0  0  0  0  0  0  0  0  0
  160.9370  202.4520  152.0020 N   0  0  0  0  0  0  0  0  0  0  0  0
  161.1820  203.0060  145.6740 C   0  0  0  0  0  3  0  0  0  0  0  0
  160.8760  201.6430  150.0230 C   0  0  0  0  0  0  0  0  0  0  0  0
  160.8020  201.3290  151.4010 N   0  0  0  0  0  0  0  0  0  0  0  0
  161.5200  205.4480  145.5530 C   0  0  0  0  0  0  0  0  0  0  0  0
  161.5810  205.4530  144.0630 C   0  0  0  0  0  1  0  0  0  0  0  0
  161.4350  205.5340  148.3920 N   0  0  0  0  0  2  0  0  0  0  0  0
  161.2900  204.9420  151.3470 C   0  0  0  0  0  1  0  0  0  0  0  0
  160.9720  201.9260  147.8740 N   0  0  0  0  0  0  0  0  0  0  0  0
  160.8180  200.9620  148.8250 C   0  0  0  0  0  3  0  0  0  0  0  0
  161.6490  206.5780  146.1870 N   0  0  0  0  0  0  0  0  0  0  0  0
  161.1000  203.5020  151.0250 C   0  0  0  0  0  0  0  0  0  0  0  0
  161.6030  206.6760  147.5910 N   0  0  0  0  0  0  0  0  0  0  0  0
  161.3210  204.1880  146.3000 C   0  0  0  0  0  0  0  0  0  0  0  0
  161.8040  207.9650  148.2250 C   0  0  0  0  0  2  0  0  0  0  0  0
  162.3010  207.7650  149.6520 C   0  0  0  0  0  2  0  0  0  0  0  0
  161.5810  208.6690  150.6560 C   0  0  2  0  0  3  0  0  0  0  0  0
  161.9790  210.1230  150.4720 C   0  0  0  0  0  1  0  0  0  0  0  0
  160.8380  208.3010  152.9660 C   0  0  0  0  0  3  0  0  0  0  0  0
  161.0750  207.9020  154.2750 O   0  0  0  0  0  1  0  0  0  0  0  0
  161.8150  208.2440  152.0700 C   0  0  0  0  0  3  0  0  0  0  0  0
  1  4  1  0  0  0  0
  2 11  1  0  0  0  0
  2  1  2  0  0  0  0
  3 13  1  0  0  0  0
  4  7  1  0  0  0  0
  4 16  2  0  0  0  0
  6 18  2  0  0  0  0
  6  3  1  0  0  0  0
  7  8  1  0  0  0  0
  8  5  2  0  0  0  0
  9 15  2  0  0  0  0
  9 18  1  0  0  0  0
 10  9  1  0  0  0  0
 13  1  1  0  0  0  0
 13 14  1  0  0  0  0
 14  7  2  0  0  0  0
 15 17  1  0  0  0  0
 16 12  1  0  0  0  0
 16  5  1  0  0  0  0
 17 19  1  0  0  0  0
 17 11  1  0  0  0  0
 18  2  1  0  0  0  0
 19 20  1  0  0  0  0
 20 21  1  0  0  0  0
 21 22  1  1  0  0  0
 21 25  1  0  0  0  0
 23 24  1  0  0  0  0
 25 23  2  0  0  0  0
M  END
>  <MODEL>
8

>  <REMARK>
 VINA RESULT:      -8.0      3.143      6.427
  Name = 
  4 active torsions:
  status: ('A' for Active; 'I' for Inactive)
    1  A    between atoms: C_6  and  C_15
    2  A    between atoms: C_6  and  N_23
    3  A    between atoms: C_12  and  C_21
    4  A    between atoms: C_15  and  C_21
                            x       y       z     vdW  Elec       q    Type
                         _______ _______ _______ _____ _____    ______ ____

>  <TORSDO>
F 4

$$$$
=
 OpenBabel11052422133D

 25 28  0  0  1  0  0  0  0  0999 V2000
  161.4940  206.8170  150.5340 C   0  0  0  0  0  0  0  0  0  0  0  0
  161.5280  205.9320  149.5350 C   0  0  0  0  0  0  0  0  0  0  0  0
  161.9070  208.7620  149.0140 C   0  0  0  0  0  2  0  0  0  0  0  0
  161.2970  206.6290  151.8800 C   0  0  0  0  0  0  0  0  0  0  0  0
  160.9860  206.4980  154.0810 N   0  0  0  0  0  0  0  0  0  0  0  0
  161.9290  207.7220  147.9150 C   0  0  0  0  0  3  0  0  0  0  0  0
  161.3530  207.8260  152.4450 C   0  0  0  0  0  0  0  0  0  0  0  0
  161.1550  207.7460  153.8440 N   0  0  0  0  0  0  0  0  0  0  0  0
  161.7760  205.4060  147.0760 C   0  0  0  0  0  0  0  0  0  0  0  0
  161.9870  205.8130  145.6570 C   0  0  0  0  0  1  0  0  0  0  0  0
  161.3500  204.5350  149.7460 N   0  0  0  0  0  2  0  0  0  0  0  0
  160.9200  204.2840  152.7220 C   0  0  0  0  0  1  0  0  0  0  0  0
  161.6660  208.1500  150.3220 N   0  0  0  0  0  0  0  0  0  0  0  0
  161.5820  208.8130  151.5100 C   0  0  0  0  0  3  0  0  0  0  0  0
  161.6080  204.1430  147.3430 N   0  0  0  0  0  0  0  0  0  0  0  0
  161.0710  205.7590  152.8450 C   0  0  0  0  0  0  0  0  0  0  0  0
  161.4050  203.6590  148.6500 N   0  0  0  0  0  0  0  0  0  0  0  0
  161.7550  206.4110  148.1590 C   0  0  0  0  0  0  0  0  0  0  0  0
  161.1760  202.2410  148.8600 C   0  0  0  0  0  2  0  0  0  0  0  0
  160.2270  201.7100  147.7910 C   0  0  0  0  0  2  0  0  0  0  0  0
  160.9610  201.2680  146.5230 C   0  0  2  0  0  3  0  0  0  0  0  0
  160.1820  201.6490  145.2760 C   0  0  0  0  0  1  0  0  0  0  0  0
  161.0770  199.0760  145.4250 C   0  0  0  0  0  3  0  0  0  0  0  0
  161.3580  197.7170  145.4420 O   0  0  0  0  0  1  0  0  0  0  0  0
  161.2560  199.8030  146.5200 C   0  0  0  0  0  3  0  0  0  0  0  0
  1  4  1  0  0  0  0
  2 11  1  0  0  0  0
  2  1  2  0  0  0  0
  3 13  1  0  0  0  0
  4  7  1  0  0  0  0
  4 16  2  0  0  0  0
  6 18  2  0  0  0  0
  6  3  1  0  0  0  0
  7  8  1  0  0  0  0
  8  5  2  0  0  0  0
  9 15  2  0  0  0  0
  9 18  1  0  0  0  0
 10  9  1  0  0  0  0
 12 16  1  0  0  0  0
 13  1  1  0  0  0  0
 13 14  1  0  0  0  0
 14  7  2  0  0  0  0
 15 17  1  0  0  0  0
 16  5  1  0  0  0  0
 17 19  1  0  0  0  0
 17 11  1  0  0  0  0
 18  2  1  0  0  0  0
 20 19  1  0  0  0  0
 21 22  1  6  0  0  0
 21 20  1  0  0  0  0
 23 24  1  0  0  0  0
 23 25  2  0  0  0  0
 25 21  1  0  0  0  0
M  END
>  <MODEL>
9

>  <REMARK>
 VINA RESULT:      -7.9      1.677      3.779
  Name = 
  4 active torsions:
  status: ('A' for Active; 'I' for Inactive)
    1  A    between atoms: C_6  and  C_15
    2  A    between atoms: C_6  and  N_23
    3  A    between atoms: C_12  and  C_21
    4  A    between atoms: C_15  and  C_21
                            x       y       z     vdW  Elec       q    Type
                         _______ _______ _______ _____ _____    ______ ____

>  <TORSDO>
F 4

$$$$
