=
 OpenBabel11062409213D

 37 41  0  0  1  0  0  0  0  0999 V2000
  163.6080  205.8750  147.4310 O   0  0  0  0  0  1  0  0  0  0  0  0
  160.4920  207.8750  150.5740 C   0  0  2  0  0  3  0  0  0  0  0  0
  161.6960  207.1550  154.0870 C   0  0  0  0  0  2  0  0  0  0  0  0
  162.1340  207.1840  148.8010 C   0  0  2  0  0  3  0  0  0  0  0  0
  161.2660  207.2260  151.6240 N   0  0  1  0  0  0  0  0  0  0  0  0
  160.6850  207.0270  149.3350 C   0  0  1  0  0  3  0  0  0  0  0  0
  160.8530  207.7510  152.9370 C   0  0  2  0  0  3  0  0  0  0  0  0
  162.5450  208.6560  148.6720 C   0  0  0  0  0  2  0  0  0  0  0  0
  160.4710  205.6580  149.9740 C   0  0  1  0  0  3  0  0  0  0  0  0
  161.1440  204.3510  147.9110 C   0  0  0  0  0  3  0  0  0  0  0  0
  162.7240  210.7370  149.7980 F   0  0  0  0  0  0  0  0  0  0  0  0
  162.3670  209.4140  149.9860 C   0  0  1  0  0  3  0  0  0  0  0  0
  160.8330  204.3820  149.2190 C   0  0  0  0  0  0  0  0  0  0  0  0
  161.9790  205.6610  153.9800 C   0  0  0  0  0  2  0  0  0  0  0  0
  160.9050  209.3240  150.4140 C   0  0  2  0  0  3  0  0  0  0  0  0
  160.9180  205.8140  151.4450 C   0  0  1  0  0  3  0  0  0  0  0  0
  162.3650  206.5080  147.4470 C   0  0  2  0  0  3  0  0  0  0  0  0
  161.0960  209.2830  152.9800 C   0  0  1  0  0  3  0  0  0  0  0  0
  161.2630  205.5440  147.0110 C   0  0  0  0  0  2  0  0  0  0  0  0
  162.1100  204.9260  151.8410 C   0  0  0  0  0  2  0  0  0  0  0  0
  162.8590  205.4460  152.9120 O   0  0  0  0  0  0  0  0  0  0  0  0
  160.6100  210.0460  151.7290 C   0  0  0  0  0  2  0  0  0  0  0  0
  160.5450  209.9070  154.2670 C   0  0  2  0  0  3  0  0  0  0  0  0
  159.4110  210.8890  153.9940 C   0  0  0  0  0  2  0  0  0  0  0  0
  159.7580  212.1590  154.4540 O   0  0  0  0  0  1  0  0  0  0  0  0
  161.8770  210.7020  155.2220 S   0  0  0  0  0  0  0  0  0  0  0  0
  162.7400  208.9790  157.1640 F   0  0  0  0  0  0  0  0  0  0  0  0
  160.5440  209.3650  157.0420 O   0  0  0  0  0  0  0  0  0  0  0  0
  161.6610  209.5820  156.6020 C   0  0  0  0  0  0  0  0  0  0  0  0
  160.5460  203.0620  149.8790 C   0  0  0  0  0  2  0  0  0  0  0  0
  160.1510  201.9730  148.8830 C   0  0  2  0  0  3  0  0  0  0  0  0
  158.9320  201.2210  149.3830 C   0  0  0  0  0  1  0  0  0  0  0  0
  161.2910  200.9790  148.7090 C   0  0  0  0  0  2  0  0  0  0  0  0
  161.2800  200.3500  147.3250 C   0  0  0  0  0  2  0  0  0  0  0  0
  161.2160  201.4270  146.2540 C   0  0  0  0  0  2  0  0  0  0  0  0
  160.1050  201.1300  145.2630 C   0  0  0  0  0  2  0  0  0  0  0  0
  159.6030  202.4130  144.6280 C   0  0  0  0  0  1  0  0  0  0  0  0
  1 17  1  0  0  0  0
  2  5  1  0  0  0  0
  4  6  1  0  0  0  0
  5  7  1  0  0  0  0
  6  9  1  0  0  0  0
  6  2  1  0  0  0  0
  7 18  1  0  0  0  0
  7  3  1  0  0  0  0
  8  4  1  0  0  0  0
  8 12  1  0  0  0  0
  9 16  1  0  0  0  0
 10 13  2  0  0  0  0
 11 12  1  0  0  0  0
 12 15  1  0  0  0  0
 13 30  1  0  0  0  0
 13  9  1  0  0  0  0
 14  3  1  0  0  0  0
 15  2  1  0  0  0  0
 15 22  1  0  0  0  0
 16  5  1  0  0  0  0
 16 20  1  0  0  0  0
 17  4  1  0  0  0  0
 18 23  1  0  0  0  0
 19 17  1  0  0  0  0
 19 10  1  0  0  0  0
 20 21  1  0  0  0  0
 21 14  1  0  0  0  0
 22 18  1  0  0  0  0
 23 26  1  0  0  0  0
 24 23  1  0  0  0  0
 24 25  1  0  0  0  0
 26 29  1  0  0  0  0
 29 28  2  0  0  0  0
 29 27  1  0  0  0  0
 31 32  1  0  0  0  0
 31 30  1  0  0  0  0
 33 31  1  0  0  0  0
 34 33  1  0  0  0  0
 35 34  1  0  0  0  0
 36 35  1  0  0  0  0
 37 36  1  0  0  0  0
M  END
>  <MODEL>
1

>  <REMARK>
 VINA RESULT:      -4.6      0.000      0.000
  Name = 
  10 active torsions:
  status: ('A' for Active; 'I' for Inactive)
    1  A    between atoms: C_1  and  C_5
    2  A    between atoms: C_1  and  C_23
    3  A    between atoms: C_2  and  C_6
    4  A    between atoms: C_5  and  C_17
    5  A    between atoms: C_6  and  S_8
    6  A    between atoms: C_6  and  C_31
    7  A    between atoms: S_8  and  C_19
    8  A    between atoms: C_11  and  C_26
    9  A    between atoms: C_17  and  C_26
   10  A    between atoms: C_23  and  C_25
                            x       y       z     vdW  Elec       q    Type
                         _______ _______ _______ _____ _____    ______ ____

>  <TORSDO>
F 10

$$$$
=
 OpenBabel11062409213D

 37 41  0  0  1  0  0  0  0  0999 V2000
  162.4240  209.2980  155.7850 O   0  0  0  0  0  1  0  0  0  0  0  0
  160.3780  207.5490  151.7410 C   0  0  2  0  0  3  0  0  0  0  0  0
  162.3720  208.7600  148.7630 C   0  0  0  0  0  2  0  0  0  0  0  0
  161.4560  208.0970  153.9450 C   0  0  2  0  0  3  0  0  0  0  0  0
  161.3380  208.3620  151.0050 N   0  0  1  0  0  0  0  0  0  0  0  0
  160.1820  208.2460  153.0710 C   0  0  1  0  0  3  0  0  0  0  0  0
  161.3150  207.9830  149.5820 C   0  0  2  0  0  3  0  0  0  0  0  0
  161.9390  206.6430  154.0190 C   0  0  0  0  0  2  0  0  0  0  0  0
  160.0270  209.6710  152.5480 C   0  0  1  0  0  3  0  0  0  0  0  0
  160.0470  210.7440  154.8430 C   0  0  0  0  0  3  0  0  0  0  0  0
  162.5640  204.7290  152.7630 F   0  0  0  0  0  0  0  0  0  0  0  0
  162.1610  206.0450  152.6310 C   0  0  1  0  0  3  0  0  0  0  0  0
  160.0820  210.8600  153.5040 C   0  0  0  0  0  0  0  0  0  0  0  0
  162.4960  210.2400  149.0980 C   0  0  0  0  0  2  0  0  0  0  0  0
  160.8530  206.1140  151.8480 C   0  0  2  0  0  3  0  0  0  0  0  0
  160.8430  209.7210  151.2370 C   0  0  1  0  0  3  0  0  0  0  0  0
  161.2810  208.6110  155.3770 C   0  0  2  0  0  3  0  0  0  0  0  0
  161.6850  206.4830  149.4410 C   0  0  1  0  0  3  0  0  0  0  0  0
  160.0300  209.4560  155.6090 C   0  0  0  0  0  2  0  0  0  0  0  0
  162.0210  210.7100  151.2640 C   0  0  0  0  0  2  0  0  0  0  0  0
  163.0570  210.3660  150.3770 O   0  0  0  0  0  0  0  0  0  0  0  0
  160.9600  205.5470  150.4320 C   0  0  0  0  0  2  0  0  0  0  0  0
  161.5290  205.9960  147.9950 C   0  0  2  0  0  3  0  0  0  0  0  0
  160.2430  206.5010  147.3500 C   0  0  0  0  0  2  0  0  0  0  0  0
  160.4120  206.6110  145.9700 O   0  0  0  0  0  1  0  0  0  0  0  0
  161.6290  204.1800  147.9110 S   0  0  0  0  0  0  0  0  0  0  0  0
  163.5230  204.9000  146.0740 F   0  0  0  0  0  0  0  0  0  0  0  0
  161.8360  203.6270  145.3560 O   0  0  0  0  0  0  0  0  0  0  0  0
  162.3680  204.2180  146.2810 C   0  0  0  0  0  0  0  0  0  0  0  0
  159.8660  212.2350  152.9370 C   0  0  0  0  0  2  0  0  0  0  0  0
  158.3890  212.5740  152.7460 C   0  0  2  0  0  3  0  0  0  0  0  0
  158.1120  212.9150  151.2930 C   0  0  0  0  0  1  0  0  0  0  0  0
  158.0090  213.7750  153.6010 C   0  0  0  0  0  2  0  0  0  0  0  0
  157.2080  213.3600  154.8260 C   0  0  0  0  0  2  0  0  0  0  0  0
  156.4790  212.0530  154.5630 C   0  0  0  0  0  2  0  0  0  0  0  0
  156.4620  211.1910  155.8130 C   0  0  0  0  0  2  0  0  0  0  0  0
  157.1420  211.9080  156.9630 C   0  0  0  0  0  1  0  0  0  0  0  0
  2 15  1  0  0  0  0
  2  6  1  0  0  0  0
  3 14  1  0  0  0  0
  3  7  1  0  0  0  0
  4  8  1  0  0  0  0
  4 17  1  0  0  0  0
  5 16  1  0  0  0  0
  5  2  1  0  0  0  0
  6  4  1  0  0  0  0
  7  5  1  0  0  0  0
  9  6  1  0  0  0  0
  9 13  1  0  0  0  0
 10 19  1  0  0  0  0
 12 11  1  0  0  0  0
 12  8  1  0  0  0  0
 13 10  2  0  0  0  0
 14 21  1  0  0  0  0
 15 12  1  0  0  0  0
 16 20  1  0  0  0  0
 16  9  1  0  0  0  0
 17 19  1  0  0  0  0
 17  1  1  0  0  0  0
 18  7  1  0  0  0  0
 18 22  1  0  0  0  0
 21 20  1  0  0  0  0
 22 15  1  0  0  0  0
 23 18  1  0  0  0  0
 24 23  1  0  0  0  0
 25 24  1  0  0  0  0
 26 23  1  0  0  0  0
 27 29  1  0  0  0  0
 28 29  2  0  0  0  0
 29 26  1  0  0  0  0
 30 13  1  0  0  0  0
 31 30  1  0  0  0  0
 31 33  1  0  0  0  0
 32 31  1  0  0  0  0
 33 34  1  0  0  0  0
 35 34  1  0  0  0  0
 35 36  1  0  0  0  0
 36 37  1  0  0  0  0
M  END
>  <MODEL>
2

>  <REMARK>
 VINA RESULT:      -4.5      3.218      9.053
  Name = 
  10 active torsions:
  status: ('A' for Active; 'I' for Inactive)
    1  A    between atoms: C_1  and  C_5
    2  A    between atoms: C_1  and  C_23
    3  A    between atoms: C_2  and  C_6
    4  A    between atoms: C_5  and  C_17
    5  A    between atoms: C_6  and  S_8
    6  A    between atoms: C_6  and  C_31
    7  A    between atoms: S_8  and  C_19
    8  A    between atoms: C_11  and  C_26
    9  A    between atoms: C_17  and  C_26
   10  A    between atoms: C_23  and  C_25
                            x       y       z     vdW  Elec       q    Type
                         _______ _______ _______ _____ _____    ______ ____

>  <TORSDO>
F 10

$$$$
=
 OpenBabel11062409213D

 37 41  0  0  1  0  0  0  0  0999 V2000
  156.8940  210.8110  154.2840 O   0  0  0  0  0  1  0  0  0  0  0  0
  160.4950  212.7000  151.6260 C   0  0  2  0  0  3  0  0  0  0  0  0
  161.7430  210.0490  149.2330 C   0  0  0  0  0  2  0  0  0  0  0  0
  158.4270  212.0110  152.8780 C   0  0  2  0  0  3  0  0  0  0  0  0
  160.6730  211.3640  151.0720 N   0  0  1  0  0  0  0  0  0  0  0  0
  159.8950  212.4990  153.0020 C   0  0  1  0  0  3  0  0  0  0  0  0
  161.5780  211.4290  149.9110 C   0  0  2  0  0  3  0  0  0  0  0  0
  157.6090  212.8800  151.9150 C   0  0  0  0  0  2  0  0  0  0  0  0
  160.8170  211.3800  153.4790 C   0  0  1  0  0  3  0  0  0  0  0  0
  159.5160  210.9230  155.6030 C   0  0  0  0  0  3  0  0  0  0  0  0
  157.5000  213.7950  149.7280 F   0  0  0  0  0  0  0  0  0  0  0  0
  158.2650  212.9770  150.5390 C   0  0  1  0  0  3  0  0  0  0  0  0
  160.4820  210.5790  154.7340 C   0  0  0  0  0  0  0  0  0  0  0  0
  161.8970  208.8700  150.1840 C   0  0  0  0  0  2  0  0  0  0  0  0
  159.6650  213.5650  150.6990 C   0  0  2  0  0  3  0  0  0  0  0  0
  161.2510  210.6300  152.2000 C   0  0  1  0  0  3  0  0  0  0  0  0
  157.6840  211.9590  154.2160 C   0  0  2  0  0  3  0  0  0  0  0  0
  160.9690  212.3640  148.8340 C   0  0  1  0  0  3  0  0  0  0  0  0
  158.5730  212.0780  155.4520 C   0  0  0  0  0  2  0  0  0  0  0  0
  160.8070  209.1580  152.1500 C   0  0  0  0  0  2  0  0  0  0  0  0
  160.6770  208.6600  150.8410 O   0  0  0  0  0  0  0  0  0  0  0  0
  160.4230  213.7010  149.3790 C   0  0  0  0  0  2  0  0  0  0  0  0
  161.9390  212.5880  147.6670 C   0  0  2  0  0  3  0  0  0  0  0  0
  163.3300  212.9950  148.1410 C   0  0  0  0  0  2  0  0  0  0  0  0
  164.2740  212.0680  147.7030 O   0  0  0  0  0  1  0  0  0  0  0  0
  161.2680  213.8100  146.4960 S   0  0  0  0  0  0  0  0  0  0  0  0
  158.7350  212.7840  146.6280 F   0  0  0  0  0  0  0  0  0  0  0  0
  160.1080  211.9220  145.0930 O   0  0  0  0  0  0  0  0  0  0  0  0
  159.9370  212.7200  146.0000 C   0  0  0  0  0  0  0  0  0  0  0  0
  161.4570  209.5280  155.1850 C   0  0  0  0  0  2  0  0  0  0  0  0
  160.8280  208.4950  156.1180 C   0  0  2  0  0  3  0  0  0  0  0  0
  161.7950  208.1340  157.2300 C   0  0  0  0  0  1  0  0  0  0  0  0
  160.4880  207.2260  155.3480 C   0  0  0  0  0  2  0  0  0  0  0  0
  161.4380  207.0080  154.1800 C   0  0  0  0  0  2  0  0  0  0  0  0
  161.1760  205.6600  153.5280 C   0  0  0  0  0  2  0  0  0  0  0  0
  161.8440  205.5850  152.1680 C   0  0  0  0  0  2  0  0  0  0  0  0
  161.5930  204.2330  151.5260 C   0  0  0  0  0  1  0  0  0  0  0  0
  2  6  1  0  0  0  0
  3  7  1  0  0  0  0
  3 14  1  0  0  0  0
  4  6  1  0  0  0  0
  4 17  1  0  0  0  0
  5  2  1  0  0  0  0
  5 16  1  0  0  0  0
  6  9  1  0  0  0  0
  7  5  1  0  0  0  0
  8  4  1  0  0  0  0
  9 13  1  0  0  0  0
 11 12  1  0  0  0  0
 12 15  1  0  0  0  0
 12  8  1  0  0  0  0
 13 30  1  0  0  0  0
 13 10  2  0  0  0  0
 14 21  1  0  0  0  0
 15  2  1  0  0  0  0
 16  9  1  0  0  0  0
 17  1  1  0  0  0  0
 17 19  1  0  0  0  0
 18 22  1  0  0  0  0
 18  7  1  0  0  0  0
 19 10  1  0  0  0  0
 20 16  1  0  0  0  0
 21 20  1  0  0  0  0
 22 15  1  0  0  0  0
 23 24  1  0  0  0  0
 23 18  1  0  0  0  0
 25 24  1  0  0  0  0
 26 23  1  0  0  0  0
 28 29  2  0  0  0  0
 29 26  1  0  0  0  0
 29 27  1  0  0  0  0
 30 31  1  0  0  0  0
 31 32  1  0  0  0  0
 33 31  1  0  0  0  0
 34 33  1  0  0  0  0
 35 34  1  0  0  0  0
 36 35  1  0  0  0  0
 37 36  1  0  0  0  0
M  END
>  <MODEL>
3

>  <REMARK>
 VINA RESULT:      -4.4      4.170      7.972
  Name = 
  10 active torsions:
  status: ('A' for Active; 'I' for Inactive)
    1  A    between atoms: C_1  and  C_5
    2  A    between atoms: C_1  and  C_23
    3  A    between atoms: C_2  and  C_6
    4  A    between atoms: C_5  and  C_17
    5  A    between atoms: C_6  and  S_8
    6  A    between atoms: C_6  and  C_31
    7  A    between atoms: S_8  and  C_19
    8  A    between atoms: C_11  and  C_26
    9  A    between atoms: C_17  and  C_26
   10  A    between atoms: C_23  and  C_25
                            x       y       z     vdW  Elec       q    Type
                         _______ _______ _______ _____ _____    ______ ____

>  <TORSDO>
F 10

$$$$
=
 OpenBabel11062409213D

 37 41  0  0  1  0  0  0  0  0999 V2000
  162.8060  206.2890  154.3150 O   0  0  0  0  0  1  0  0  0  0  0  0
  160.3380  205.1330  150.2950 C   0  0  2  0  0  3  0  0  0  0  0  0
  162.4270  206.0800  147.2860 C   0  0  0  0  0  2  0  0  0  0  0  0
  161.5710  205.3720  152.4720 C   0  0  2  0  0  3  0  0  0  0  0  0
  161.4090  205.7840  149.5510 N   0  0  1  0  0  0  0  0  0  0  0  0
  160.3190  205.7950  151.6560 C   0  0  1  0  0  3  0  0  0  0  0  0
  161.2690  205.4790  148.1170 C   0  0  2  0  0  3  0  0  0  0  0  0
  161.7720  203.8510  152.4730 C   0  0  0  0  0  2  0  0  0  0  0  0
  160.4190  207.2460  151.1930 C   0  0  1  0  0  3  0  0  0  0  0  0
  160.7150  208.1930  153.5240 C   0  0  0  0  0  3  0  0  0  0  0  0
  161.9850  201.9120  151.1220 F   0  0  0  0  0  0  0  0  0  0  0  0
  161.8330  203.2850  151.0560 C   0  0  1  0  0  3  0  0  0  0  0  0
  160.7280  208.3600  152.1900 C   0  0  0  0  0  0  0  0  0  0  0  0
  162.8390  207.4950  147.6710 C   0  0  0  0  0  2  0  0  0  0  0  0
  160.5370  203.6310  150.3280 C   0  0  2  0  0  3  0  0  0  0  0  0
  161.1870  207.2000  149.8530 C   0  0  1  0  0  3  0  0  0  0  0  0
  161.5410  205.8460  153.9280 C   0  0  2  0  0  3  0  0  0  0  0  0
  161.3450  203.9440  147.9060 C   0  0  1  0  0  3  0  0  0  0  0  0
  160.4810  206.8990  154.2420 C   0  0  0  0  0  2  0  0  0  0  0  0
  162.5310  207.9490  149.8700 C   0  0  0  0  0  2  0  0  0  0  0  0
  163.4530  207.4570  148.9290 O   0  0  0  0  0  0  0  0  0  0  0  0
  160.4890  203.1180  148.8900 C   0  0  0  0  0  2  0  0  0  0  0  0
  161.0540  203.5590  146.4500 C   0  0  2  0  0  3  0  0  0  0  0  0
  160.8460  202.0590  146.2780 C   0  0  0  0  0  2  0  0  0  0  0  0
  160.1810  201.8020  145.0790 O   0  0  0  0  0  1  0  0  0  0  0  0
  162.3730  204.1620  145.3470 S   0  0  0  0  0  0  0  0  0  0  0  0
  161.6360  205.7160  143.2200 F   0  0  0  0  0  0  0  0  0  0  0  0
  160.0630  205.2400  144.7310 O   0  0  0  0  0  0  0  0  0  0  0  0
  161.2220  205.1220  144.3690 C   0  0  0  0  0  0  0  0  0  0  0  0
  160.7570  209.7750  151.6830 C   0  0  0  0  0  2  0  0  0  0  0  0
  160.1220  210.7670  152.6560 C   0  0  2  0  0  3  0  0  0  0  0  0
  159.7700  212.0560  151.9370 C   0  0  0  0  0  1  0  0  0  0  0  0
  161.0930  211.0960  153.7820 C   0  0  0  0  0  2  0  0  0  0  0  0
  160.3820  211.7320  154.9670 C   0  0  0  0  0  2  0  0  0  0  0  0
  160.9980  211.2540  156.2720 C   0  0  0  0  0  2  0  0  0  0  0  0
  162.2650  210.4610  156.0070 C   0  0  0  0  0  2  0  0  0  0  0  0
  162.2880  209.2000  156.8490 C   0  0  0  0  0  1  0  0  0  0  0  0
  2 15  1  0  0  0  0
  2  6  1  0  0  0  0
  3 14  1  0  0  0  0
  3  7  1  0  0  0  0
  4  8  1  0  0  0  0
  4 17  1  0  0  0  0
  5 16  1  0  0  0  0
  5  2  1  0  0  0  0
  6  4  1  0  0  0  0
  7  5  1  0  0  0  0
  9  6  1  0  0  0  0
  9 13  1  0  0  0  0
 10 19  1  0  0  0  0
 12 11  1  0  0  0  0
 12  8  1  0  0  0  0
 13 10  2  0  0  0  0
 14 21  1  0  0  0  0
 15 12  1  0  0  0  0
 16 20  1  0  0  0  0
 16  9  1  0  0  0  0
 17 19  1  0  0  0  0
 17  1  1  0  0  0  0
 18  7  1  0  0  0  0
 18 22  1  0  0  0  0
 21 20  1  0  0  0  0
 22 15  1  0  0  0  0
 23 18  1  0  0  0  0
 24 23  1  0  0  0  0
 25 24  1  0  0  0  0
 26 23  1  0  0  0  0
 27 29  1  0  0  0  0
 29 28  2  0  0  0  0
 29 26  1  0  0  0  0
 30 13  1  0  0  0  0
 30 31  1  0  0  0  0
 31 33  1  0  0  0  0
 32 31  1  0  0  0  0
 33 34  1  0  0  0  0
 34 35  1  0  0  0  0
 36 35  1  0  0  0  0
 36 37  1  0  0  0  0
M  END
>  <MODEL>
4

>  <REMARK>
 VINA RESULT:      -4.2      3.390      9.047
  Name = 
  10 active torsions:
  status: ('A' for Active; 'I' for Inactive)
    1  A    between atoms: C_1  and  C_5
    2  A    between atoms: C_1  and  C_23
    3  A    between atoms: C_2  and  C_6
    4  A    between atoms: C_5  and  C_17
    5  A    between atoms: C_6  and  S_8
    6  A    between atoms: C_6  and  C_31
    7  A    between atoms: S_8  and  C_19
    8  A    between atoms: C_11  and  C_26
    9  A    between atoms: C_17  and  C_26
   10  A    between atoms: C_23  and  C_25
                            x       y       z     vdW  Elec       q    Type
                         _______ _______ _______ _____ _____    ______ ____

>  <TORSDO>
F 10

$$$$
=
 OpenBabel11062409213D

 37 41  0  0  1  0  0  0  0  0999 V2000
  160.8340  213.0850  157.2020 O   0  0  0  0  0  1  0  0  0  0  0  0
  159.5520  209.1570  154.6490 C   0  0  2  0  0  3  0  0  0  0  0  0
  161.4130  209.2010  151.3550 C   0  0  0  0  0  2  0  0  0  0  0  0
  160.3100  210.9490  156.2400 C   0  0  2  0  0  3  0  0  0  0  0  0
  160.3440  209.7110  153.5580 N   0  0  1  0  0  0  0  0  0  0  0  0
  159.1030  210.3420  155.4760 C   0  0  1  0  0  3  0  0  0  0  0  0
  160.5130  208.6940  152.5050 C   0  0  2  0  0  3  0  0  0  0  0  0
  161.1150  209.8790  156.9900 C   0  0  0  0  0  2  0  0  0  0  0  0
  158.6550  211.2470  154.3320 C   0  0  1  0  0  3  0  0  0  0  0  0
  158.2580  213.2700  155.8040 C   0  0  0  0  0  3  0  0  0  0  0  0
  162.2610  207.8100  156.7980 F   0  0  0  0  0  0  0  0  0  0  0  0
  161.5700  208.7550  156.0620 C   0  0  1  0  0  3  0  0  0  0  0  0
  158.3600  212.7240  154.5800 C   0  0  0  0  0  0  0  0  0  0  0  0
  161.1620  210.6380  150.9160 C   0  0  0  0  0  2  0  0  0  0  0  0
  160.3420  208.1170  155.4180 C   0  0  2  0  0  3  0  0  0  0  0  0
  159.5280  210.8470  153.1220 C   0  0  1  0  0  3  0  0  0  0  0  0
  159.9170  212.0350  157.2450 C   0  0  2  0  0  3  0  0  0  0  0  0
  161.2340  207.4540  153.0970 C   0  0  1  0  0  3  0  0  0  0  0  0
  158.4890  212.5580  157.1020 C   0  0  0  0  0  2  0  0  0  0  0  0
  160.4350  211.9730  152.5980 C   0  0  0  0  0  2  0  0  0  0  0  0
  161.5840  211.5000  151.9370 O   0  0  0  0  0  0  0  0  0  0  0  0
  160.6810  206.9780  154.4570 C   0  0  0  0  0  2  0  0  0  0  0  0
  161.3020  206.3040  152.0840 C   0  0  2  0  0  3  0  0  0  0  0  0
  161.1270  204.9410  152.7450 C   0  0  0  0  0  2  0  0  0  0  0  0
  161.6190  203.9390  151.9090 O   0  0  0  0  0  1  0  0  0  0  0  0
  162.8540  206.3720  151.1340 S   0  0  0  0  0  0  0  0  0  0  0  0
  160.9450  205.7190  149.2860 F   0  0  0  0  0  0  0  0  0  0  0  0
  162.3210  207.4030  148.7820 O   0  0  0  0  0  0  0  0  0  0  0  0
  161.9840  206.5420  149.5780 C   0  0  0  0  0  0  0  0  0  0  0  0
  157.8680  213.5520  153.4250 C   0  0  0  0  0  2  0  0  0  0  0  0
  156.3740  213.8580  153.5070 C   0  0  2  0  0  3  0  0  0  0  0  0
  155.5910  212.5870  153.7810 C   0  0  0  0  0  1  0  0  0  0  0  0
  155.8830  214.4490  152.1920 C   0  0  0  0  0  2  0  0  0  0  0  0
  156.9010  214.2590  151.0780 C   0  0  0  0  0  2  0  0  0  0  0  0
  156.3030  213.4350  149.9500 C   0  0  0  0  0  2  0  0  0  0  0  0
  157.3070  213.2610  148.8240 C   0  0  0  0  0  2  0  0  0  0  0  0
  157.1010  214.3220  147.7600 C   0  0  0  0  0  1  0  0  0  0  0  0
  1 17  1  0  0  0  0
  2 15  1  0  0  0  0
  2  6  1  0  0  0  0
  3  7  1  0  0  0  0
  4  8  1  0  0  0  0
  4 17  1  0  0  0  0
  5  2  1  0  0  0  0
  6  4  1  0  0  0  0
  7 18  1  0  0  0  0
  7  5  1  0  0  0  0
  9 13  1  0  0  0  0
  9  6  1  0  0  0  0
 10 19  1  0  0  0  0
 12 11  1  0  0  0  0
 12  8  1  0  0  0  0
 13 10  2  0  0  0  0
 14  3  1  0  0  0  0
 14 21  1  0  0  0  0
 15 12  1  0  0  0  0
 16  5  1  0  0  0  0
 16  9  1  0  0  0  0
 18 22  1  0  0  0  0
 19 17  1  0  0  0  0
 20 16  1  0  0  0  0
 21 20  1  0  0  0  0
 22 15  1  0  0  0  0
 23 24  1  0  0  0  0
 23 18  1  0  0  0  0
 25 24  1  0  0  0  0
 26 23  1  0  0  0  0
 27 29  1  0  0  0  0
 28 29  2  0  0  0  0
 29 26  1  0  0  0  0
 30 31  1  0  0  0  0
 30 13  1  0  0  0  0
 31 32  1  0  0  0  0
 33 31  1  0  0  0  0
 34 33  1  0  0  0  0
 35 34  1  0  0  0  0
 36 35  1  0  0  0  0
 37 36  1  0  0  0  0
M  END
>  <MODEL>
5

>  <REMARK>
 VINA RESULT:      -3.8      3.484      9.153
  Name = 
  10 active torsions:
  status: ('A' for Active; 'I' for Inactive)
    1  A    between atoms: C_1  and  C_5
    2  A    between atoms: C_1  and  C_23
    3  A    between atoms: C_2  and  C_6
    4  A    between atoms: C_5  and  C_17
    5  A    between atoms: C_6  and  S_8
    6  A    between atoms: C_6  and  C_31
    7  A    between atoms: S_8  and  C_19
    8  A    between atoms: C_11  and  C_26
    9  A    between atoms: C_17  and  C_26
   10  A    between atoms: C_23  and  C_25
                            x       y       z     vdW  Elec       q    Type
                         _______ _______ _______ _____ _____    ______ ____

>  <TORSDO>
F 10

$$$$
=
 OpenBabel11062409213D

 37 41  0  0  1  0  0  0  0  0999 V2000
  163.0200  205.6520  153.0900 O   0  0  0  0  0  1  0  0  0  0  0  0
  160.3670  204.2280  149.2790 C   0  0  2  0  0  3  0  0  0  0  0  0
  162.5140  204.4380  146.1710 C   0  0  0  0  0  2  0  0  0  0  0  0
  161.6510  204.6330  151.4010 C   0  0  2  0  0  3  0  0  0  0  0  0
  161.5010  204.6180  148.4510 N   0  0  1  0  0  0  0  0  0  0  0  0
  160.4520  205.0830  150.5250 C   0  0  1  0  0  3  0  0  0  0  0  0
  161.3020  204.1210  147.0780 C   0  0  2  0  0  3  0  0  0  0  0  0
  161.6590  203.1160  151.6320 C   0  0  0  0  0  2  0  0  0  0  0  0
  160.7270  206.4240  149.8480 C   0  0  1  0  0  3  0  0  0  0  0  0
  161.1740  207.6650  152.0110 C   0  0  0  0  0  3  0  0  0  0  0  0
  161.6060  200.9850  150.5910 F   0  0  0  0  0  0  0  0  0  0  0  0
  161.6280  202.3400  150.3170 C   0  0  1  0  0  3  0  0  0  0  0  0
  161.1890  207.6260  150.6670 C   0  0  0  0  0  0  0  0  0  0  0  0
  163.1070  205.8310  146.3400 C   0  0  0  0  0  2  0  0  0  0  0  0
  160.3750  202.7350  149.5400 C   0  0  2  0  0  3  0  0  0  0  0  0
  161.4640  206.0800  148.5340 C   0  0  1  0  0  3  0  0  0  0  0  0
  161.7040  205.3200  152.7680 C   0  0  2  0  0  3  0  0  0  0  0  0
  161.1800  202.5750  147.1010 C   0  0  1  0  0  3  0  0  0  0  0  0
  160.7890  206.5340  152.9150 C   0  0  0  0  0  2  0  0  0  0  0  0
  162.8910  206.6460  148.4440 C   0  0  0  0  0  2  0  0  0  0  0  0
  163.7300  205.9050  147.5930 O   0  0  0  0  0  0  0  0  0  0  0  0
  160.2420  202.0210  148.1950 C   0  0  0  0  0  2  0  0  0  0  0  0
  160.8220  202.0160  145.7190 C   0  0  2  0  0  3  0  0  0  0  0  0
  160.1990  203.0710  144.8120 C   0  0  0  0  0  2  0  0  0  0  0  0
  159.0930  202.5400  144.1500 O   0  0  0  0  0  1  0  0  0  0  0  0
  159.7310  200.5650  145.8720 S   0  0  0  0  0  0  0  0  0  0  0  0
  161.9800  199.5970  147.0910 F   0  0  0  0  0  0  0  0  0  0  0  0
  161.2810  198.5430  145.2510 O   0  0  0  0  0  0  0  0  0  0  0  0
  161.1160  199.4460  146.0550 C   0  0  0  0  0  0  0  0  0  0  0  0
  161.3890  208.9340  149.9530 C   0  0  0  0  0  2  0  0  0  0  0  0
  161.8970  210.0420  150.8740 C   0  0  2  0  0  3  0  0  0  0  0  0
  160.7950  210.4890  151.8160 C   0  0  0  0  0  1  0  0  0  0  0  0
  162.3440  211.2460  150.0540 C   0  0  0  0  0  2  0  0  0  0  0  0
  162.0760  211.0440  148.5700 C   0  0  0  0  0  2  0  0  0  0  0  0
  162.6400  212.2050  147.7680 C   0  0  0  0  0  2  0  0  0  0  0  0
  161.5190  213.0650  147.2130 C   0  0  0  0  0  2  0  0  0  0  0  0
  160.3060  212.2140  146.8880 C   0  0  0  0  0  1  0  0  0  0  0  0
  2 15  1  0  0  0  0
  2  6  1  0  0  0  0
  3 14  1  0  0  0  0
  3  7  1  0  0  0  0
  4  8  1  0  0  0  0
  4 17  1  0  0  0  0
  5 16  1  0  0  0  0
  5  2  1  0  0  0  0
  6  4  1  0  0  0  0
  7 18  1  0  0  0  0
  7  5  1  0  0  0  0
  9  6  1  0  0  0  0
  9 13  1  0  0  0  0
 10 19  1  0  0  0  0
 12 11  1  0  0  0  0
 12  8  1  0  0  0  0
 13 10  2  0  0  0  0
 14 21  1  0  0  0  0
 15 12  1  0  0  0  0
 16  9  1  0  0  0  0
 17 19  1  0  0  0  0
 17  1  1  0  0  0  0
 18 22  1  0  0  0  0
 20 16  1  0  0  0  0
 21 20  1  0  0  0  0
 22 15  1  0  0  0  0
 23 26  1  0  0  0  0
 23 18  1  0  0  0  0
 24 23  1  0  0  0  0
 25 24  1  0  0  0  0
 26 29  1  0  0  0  0
 28 29  2  0  0  0  0
 29 27  1  0  0  0  0
 30 13  1  0  0  0  0
 30 31  1  0  0  0  0
 31 32  1  0  0  0  0
 33 31  1  0  0  0  0
 34 33  1  0  0  0  0
 35 34  1  0  0  0  0
 36 35  1  0  0  0  0
 37 36  1  0  0  0  0
M  END
>  <MODEL>
6

>  <REMARK>
 VINA RESULT:      -3.7      4.160      8.922
  Name = 
  10 active torsions:
  status: ('A' for Active; 'I' for Inactive)
    1  A    between atoms: C_1  and  C_5
    2  A    between atoms: C_1  and  C_23
    3  A    between atoms: C_2  and  C_6
    4  A    between atoms: C_5  and  C_17
    5  A    between atoms: C_6  and  S_8
    6  A    between atoms: C_6  and  C_31
    7  A    between atoms: S_8  and  C_19
    8  A    between atoms: C_11  and  C_26
    9  A    between atoms: C_17  and  C_26
   10  A    between atoms: C_23  and  C_25
                            x       y       z     vdW  Elec       q    Type
                         _______ _______ _______ _____ _____    ______ ____

>  <TORSDO>
F 10

$$$$
=
 OpenBabel11062409213D

 37 41  0  0  1  0  0  0  0  0999 V2000
  162.7900  206.5640  154.4780 O   0  0  0  0  0  1  0  0  0  0  0  0
  160.3490  205.3190  150.4670 C   0  0  2  0  0  3  0  0  0  0  0  0
  162.4210  206.2750  147.4500 C   0  0  0  0  0  2  0  0  0  0  0  0
  161.5750  205.6040  152.6430 C   0  0  2  0  0  3  0  0  0  0  0  0
  161.4080  205.9820  149.7180 N   0  0  1  0  0  0  0  0  0  0  0  0
  160.3160  205.9930  151.8220 C   0  0  1  0  0  3  0  0  0  0  0  0
  161.2750  205.6610  148.2870 C   0  0  2  0  0  3  0  0  0  0  0  0
  161.8060  204.0870  152.6590 C   0  0  0  0  0  2  0  0  0  0  0  0
  160.3870  207.4410  151.3440 C   0  0  1  0  0  3  0  0  0  0  0  0
  160.6620  208.4180  153.6650 C   0  0  0  0  0  3  0  0  0  0  0  0
  162.0580  202.1390  151.3290 F   0  0  0  0  0  0  0  0  0  0  0  0
  161.8800  203.5080  151.2480 C   0  0  1  0  0  3  0  0  0  0  0  0
  160.6730  208.5710  152.3300 C   0  0  0  0  0  0  0  0  0  0  0  0
  162.8050  207.7020  147.8220 C   0  0  0  0  0  2  0  0  0  0  0  0
  160.5770  203.8210  150.5170 C   0  0  2  0  0  3  0  0  0  0  0  0
  161.1580  207.3970  150.0050 C   0  0  1  0  0  3  0  0  0  0  0  0
  161.5350  206.0910  154.0940 C   0  0  2  0  0  3  0  0  0  0  0  0
  161.3810  204.1250  148.0910 C   0  0  1  0  0  3  0  0  0  0  0  0
  160.4530  207.1260  154.3960 C   0  0  0  0  0  2  0  0  0  0  0  0
  162.4860  208.1730  150.0160 C   0  0  0  0  0  2  0  0  0  0  0  0
  163.4190  207.6890  149.0810 O   0  0  0  0  0  0  0  0  0  0  0  0
  160.5410  203.2920  149.0830 C   0  0  0  0  0  2  0  0  0  0  0  0
  161.0990  203.7200  146.6390 C   0  0  2  0  0  3  0  0  0  0  0  0
  160.8940  202.2170  146.4870 C   0  0  0  0  0  2  0  0  0  0  0  0
  160.3450  201.9330  145.2370 O   0  0  0  0  0  1  0  0  0  0  0  0
  162.4230  204.3100  145.5360 S   0  0  0  0  0  0  0  0  0  0  0  0
  161.6030  205.4710  143.1990 F   0  0  0  0  0  0  0  0  0  0  0  0
  160.1650  205.4870  144.9060 O   0  0  0  0  0  0  0  0  0  0  0  0
  161.2640  205.1720  144.4790 C   0  0  0  0  0  0  0  0  0  0  0  0
  160.6750  209.9820  151.8090 C   0  0  0  0  0  2  0  0  0  0  0  0
  160.0650  210.9790  152.7920 C   0  0  2  0  0  3  0  0  0  0  0  0
  158.5610  210.7890  152.8680 C   0  0  0  0  0  1  0  0  0  0  0  0
  160.3460  212.4050  152.3390 C   0  0  0  0  0  2  0  0  0  0  0  0
  159.2960  212.8990  151.3560 C   0  0  0  0  0  2  0  0  0  0  0  0
  159.8450  214.0480  150.5280 C   0  0  0  0  0  2  0  0  0  0  0  0
  159.9220  213.6620  149.0620 C   0  0  0  0  0  2  0  0  0  0  0  0
  158.5390  213.6530  148.4400 C   0  0  0  0  0  1  0  0  0  0  0  0
  2 15  1  0  0  0  0
  2  6  1  0  0  0  0
  3 14  1  0  0  0  0
  3  7  1  0  0  0  0
  4  8  1  0  0  0  0
  4 17  1  0  0  0  0
  5 16  1  0  0  0  0
  5  2  1  0  0  0  0
  6  4  1  0  0  0  0
  7  5  1  0  0  0  0
  9  6  1  0  0  0  0
  9 13  1  0  0  0  0
 10 19  1  0  0  0  0
 12 11  1  0  0  0  0
 12  8  1  0  0  0  0
 13 10  2  0  0  0  0
 14 21  1  0  0  0  0
 15 12  1  0  0  0  0
 16 20  1  0  0  0  0
 16  9  1  0  0  0  0
 17 19  1  0  0  0  0
 17  1  1  0  0  0  0
 18  7  1  0  0  0  0
 18 22  1  0  0  0  0
 21 20  1  0  0  0  0
 22 15  1  0  0  0  0
 23 18  1  0  0  0  0
 24 23  1  0  0  0  0
 25 24  1  0  0  0  0
 26 23  1  0  0  0  0
 27 29  1  0  0  0  0
 29 28  2  0  0  0  0
 29 26  1  0  0  0  0
 30 13  1  0  0  0  0
 30 31  1  0  0  0  0
 31 32  1  0  0  0  0
 33 31  1  0  0  0  0
 34 33  1  0  0  0  0
 35 34  1  0  0  0  0
 36 35  1  0  0  0  0
 37 36  1  0  0  0  0
M  END
>  <MODEL>
7

>  <REMARK>
 VINA RESULT:      -3.5      3.538      8.807
  Name = 
  10 active torsions:
  status: ('A' for Active; 'I' for Inactive)
    1  A    between atoms: C_1  and  C_5
    2  A    between atoms: C_1  and  C_23
    3  A    between atoms: C_2  and  C_6
    4  A    between atoms: C_5  and  C_17
    5  A    between atoms: C_6  and  S_8
    6  A    between atoms: C_6  and  C_31
    7  A    between atoms: S_8  and  C_19
    8  A    between atoms: C_11  and  C_26
    9  A    between atoms: C_17  and  C_26
   10  A    between atoms: C_23  and  C_25
                            x       y       z     vdW  Elec       q    Type
                         _______ _______ _______ _____ _____    ______ ____

>  <TORSDO>
F 10

$$$$
=
 OpenBabel11062409213D

 37 41  0  0  1  0  0  0  0  0999 V2000
  159.2470  206.8650  154.2430 O   0  0  0  0  0  1  0  0  0  0  0  0
  162.2800  209.2780  151.3150 C   0  0  2  0  0  3  0  0  0  0  0  0
  161.1550  208.7770  147.7390 C   0  0  0  0  0  2  0  0  0  0  0  0
  160.6600  208.3580  153.0030 C   0  0  2  0  0  3  0  0  0  0  0  0
  161.5550  208.6740  150.2050 N   0  0  1  0  0  0  0  0  0  0  0  0
  162.1220  208.3250  152.4800 C   0  0  1  0  0  3  0  0  0  0  0  0
  161.9520  209.3250  148.9450 C   0  0  2  0  0  3  0  0  0  0  0  0
  160.1660  209.7910  153.2430 C   0  0  0  0  0  2  0  0  0  0  0  0
  162.4190  207.0250  151.7370 C   0  0  1  0  0  3  0  0  0  0  0  0
  161.7980  205.5220  153.6800 C   0  0  0  0  0  3  0  0  0  0  0  0
  159.8840  211.9420  152.2820 F   0  0  0  0  0  0  0  0  0  0  0  0
  160.3160  210.6610  151.9960 C   0  0  1  0  0  3  0  0  0  0  0  0
  162.1200  205.6750  152.3840 C   0  0  0  0  0  0  0  0  0  0  0  0
  160.9550  207.2670  147.7220 C   0  0  0  0  0  2  0  0  0  0  0  0
  161.7850  210.6850  151.5840 C   0  0  2  0  0  3  0  0  0  0  0  0
  161.9790  207.2740  150.2770 C   0  0  1  0  0  3  0  0  0  0  0  0
  160.4530  207.5640  154.2950 C   0  0  2  0  0  3  0  0  0  0  0  0
  161.6230  210.8390  149.0200 C   0  0  1  0  0  3  0  0  0  0  0  0
  161.6030  206.6310  154.6690 C   0  0  0  0  0  2  0  0  0  0  0  0
  160.8420  206.3560  149.7940 C   0  0  0  0  0  2  0  0  0  0  0  0
  160.0770  206.9190  148.7570 O   0  0  0  0  0  0  0  0  0  0  0  0
  162.0540  211.5250  150.3350 C   0  0  0  0  0  2  0  0  0  0  0  0
  162.1530  211.5940  147.7950 C   0  0  2  0  0  3  0  0  0  0  0  0
  163.5970  212.0500  147.9750 C   0  0  0  0  0  2  0  0  0  0  0  0
  163.6760  213.4380  147.8740 O   0  0  0  0  0  1  0  0  0  0  0  0
  161.0730  213.0030  147.3880 S   0  0  0  0  0  0  0  0  0  0  0  0
  159.9620  211.7570  145.2210 F   0  0  0  0  0  0  0  0  0  0  0  0
  161.8370  212.9200  144.8800 O   0  0  0  0  0  0  0  0  0  0  0  0
  160.9830  212.5350  145.6620 C   0  0  0  0  0  0  0  0  0  0  0  0
  162.4870  204.4300  151.6250 C   0  0  0  0  0  2  0  0  0  0  0  0
  161.4030  203.3550  151.6870 C   0  0  2  0  0  3  0  0  0  0  0  0
  162.0290  201.9860  151.8710 C   0  0  0  0  0  1  0  0  0  0  0  0
  160.5970  203.3440  150.3940 C   0  0  0  0  0  2  0  0  0  0  0  0
  160.6460  201.9840  149.7150 C   0  0  0  0  0  2  0  0  0  0  0  0
  160.9110  202.1440  148.2280 C   0  0  0  0  0  2  0  0  0  0  0  0
  161.5560  203.4870  147.9410 C   0  0  0  0  0  2  0  0  0  0  0  0
  161.5300  203.7820  146.4530 C   0  0  0  0  0  1  0  0  0  0  0  0
  1 17  1  0  0  0  0
  2 15  1  0  0  0  0
  2  6  1  0  0  0  0
  3  7  1  0  0  0  0
  4  8  1  0  0  0  0
  4 17  1  0  0  0  0
  5 16  1  0  0  0  0
  5  2  1  0  0  0  0
  6  4  1  0  0  0  0
  7 18  1  0  0  0  0
  7  5  1  0  0  0  0
  9 13  1  0  0  0  0
  9  6  1  0  0  0  0
 10 19  1  0  0  0  0
 12 11  1  0  0  0  0
 12  8  1  0  0  0  0
 13 10  2  0  0  0  0
 14  3  1  0  0  0  0
 14 21  1  0  0  0  0
 15 12  1  0  0  0  0
 16  9  1  0  0  0  0
 17 19  1  0  0  0  0
 18 22  1  0  0  0  0
 20 16  1  0  0  0  0
 21 20  1  0  0  0  0
 22 15  1  0  0  0  0
 23 24  1  0  0  0  0
 23 18  1  0  0  0  0
 25 24  1  0  0  0  0
 26 23  1  0  0  0  0
 27 29  1  0  0  0  0
 28 29  2  0  0  0  0
 29 26  1  0  0  0  0
 30 31  1  0  0  0  0
 30 13  1  0  0  0  0
 31 32  1  0  0  0  0
 33 31  1  0  0  0  0
 34 33  1  0  0  0  0
 35 34  1  0  0  0  0
 36 35  1  0  0  0  0
 37 36  1  0  0  0  0
M  END
>  <MODEL>
8

>  <REMARK>
 VINA RESULT:      -3.0      3.129      5.856
  Name = 
  10 active torsions:
  status: ('A' for Active; 'I' for Inactive)
    1  A    between atoms: C_1  and  C_5
    2  A    between atoms: C_1  and  C_23
    3  A    between atoms: C_2  and  C_6
    4  A    between atoms: C_5  and  C_17
    5  A    between atoms: C_6  and  S_8
    6  A    between atoms: C_6  and  C_31
    7  A    between atoms: S_8  and  C_19
    8  A    between atoms: C_11  and  C_26
    9  A    between atoms: C_17  and  C_26
   10  A    between atoms: C_23  and  C_25
                            x       y       z     vdW  Elec       q    Type
                         _______ _______ _______ _____ _____    ______ ____

>  <TORSDO>
F 10

$$$$
=
 OpenBabel11062409213D

 37 41  0  0  1  0  0  0  0  0999 V2000
  162.7990  206.1700  154.2800 O   0  0  0  0  0  1  0  0  0  0  0  0
  160.3270  205.0620  150.2490 C   0  0  2  0  0  3  0  0  0  0  0  0
  162.4490  205.9630  147.2490 C   0  0  0  0  0  2  0  0  0  0  0  0
  161.5540  205.2770  152.4320 C   0  0  2  0  0  3  0  0  0  0  0  0
  161.4150  205.6900  149.5100 N   0  0  1  0  0  0  0  0  0  0  0  0
  160.3150  205.7250  151.6100 C   0  0  1  0  0  3  0  0  0  0  0  0
  161.2760  205.3870  148.0750 C   0  0  2  0  0  3  0  0  0  0  0  0
  161.7240  203.7530  152.4350 C   0  0  0  0  0  2  0  0  0  0  0  0
  160.4470  207.1730  151.1460 C   0  0  1  0  0  3  0  0  0  0  0  0
  160.7510  208.1160  153.4780 C   0  0  0  0  0  3  0  0  0  0  0  0
  161.9030  201.8080  151.0860 F   0  0  0  0  0  0  0  0  0  0  0  0
  161.7800  203.1840  151.0180 C   0  0  1  0  0  3  0  0  0  0  0  0
  160.7740  208.2810  152.1440 C   0  0  0  0  0  0  0  0  0  0  0  0
  162.8880  207.3700  147.6360 C   0  0  0  0  0  2  0  0  0  0  0  0
  160.4940  203.5560  150.2850 C   0  0  2  0  0  3  0  0  0  0  0  0
  161.2210  207.1100  149.8100 C   0  0  1  0  0  3  0  0  0  0  0  0
  161.5270  205.7520  153.8870 C   0  0  2  0  0  3  0  0  0  0  0  0
  161.3200  203.8510  147.8650 C   0  0  1  0  0  3  0  0  0  0  0  0
  160.4870  206.8270  154.1950 C   0  0  0  0  0  2  0  0  0  0  0  0
  162.5790  207.8320  149.8330 C   0  0  0  0  0  2  0  0  0  0  0  0
  163.4960  207.3200  148.8970 O   0  0  0  0  0  0  0  0  0  0  0  0
  160.4430  203.0430  148.8460 C   0  0  0  0  0  2  0  0  0  0  0  0
  161.0290  203.4710  146.4080 C   0  0  2  0  0  3  0  0  0  0  0  0
  160.8370  201.9690  146.2290 C   0  0  0  0  0  2  0  0  0  0  0  0
  159.8790  201.7230  145.2460 O   0  0  0  0  0  1  0  0  0  0  0  0
  162.3360  204.0960  145.3050 S   0  0  0  0  0  0  0  0  0  0  0  0
  161.5790  205.7230  143.2400 F   0  0  0  0  0  0  0  0  0  0  0  0
  160.0350  205.2390  144.7780 O   0  0  0  0  0  0  0  0  0  0  0  0
  161.1810  205.1070  144.3830 C   0  0  0  0  0  0  0  0  0  0  0  0
  160.8350  209.6950  151.6360 C   0  0  0  0  0  2  0  0  0  0  0  0
  160.7790  210.7320  152.7570 C   0  0  2  0  0  3  0  0  0  0  0  0
  161.8240  210.4210  153.8130 C   0  0  0  0  0  1  0  0  0  0  0  0
  159.4080  210.7180  153.4200 C   0  0  0  0  0  2  0  0  0  0  0  0
  158.4490  211.6850  152.7440 C   0  0  0  0  0  2  0  0  0  0  0  0
  159.1670  212.9740  152.3790 C   0  0  0  0  0  2  0  0  0  0  0  0
  158.8890  214.0530  153.4100 C   0  0  0  0  0  2  0  0  0  0  0  0
  157.9130  213.5480  154.4560 C   0  0  0  0  0  1  0  0  0  0  0  0
  2 15  1  0  0  0  0
  2  6  1  0  0  0  0
  3 14  1  0  0  0  0
  3  7  1  0  0  0  0
  4  8  1  0  0  0  0
  4 17  1  0  0  0  0
  5 16  1  0  0  0  0
  5  2  1  0  0  0  0
  6  4  1  0  0  0  0
  7  5  1  0  0  0  0
  9  6  1  0  0  0  0
  9 13  1  0  0  0  0
 10 19  1  0  0  0  0
 12 11  1  0  0  0  0
 12  8  1  0  0  0  0
 13 10  2  0  0  0  0
 14 21  1  0  0  0  0
 15 12  1  0  0  0  0
 16 20  1  0  0  0  0
 16  9  1  0  0  0  0
 17 19  1  0  0  0  0
 17  1  1  0  0  0  0
 18  7  1  0  0  0  0
 18 22  1  0  0  0  0
 21 20  1  0  0  0  0
 22 15  1  0  0  0  0
 23 18  1  0  0  0  0
 24 23  1  0  0  0  0
 25 24  1  0  0  0  0
 26 23  1  0  0  0  0
 27 29  1  0  0  0  0
 29 28  2  0  0  0  0
 29 26  1  0  0  0  0
 30 13  1  0  0  0  0
 30 31  1  0  0  0  0
 31 33  1  0  0  0  0
 31 32  1  0  0  0  0
 34 33  1  0  0  0  0
 35 34  1  0  0  0  0
 35 36  1  0  0  0  0
 36 37  1  0  0  0  0
M  END
>  <MODEL>
9

>  <REMARK>
 VINA RESULT:      -2.8      3.430      9.033
  Name = 
  10 active torsions:
  status: ('A' for Active; 'I' for Inactive)
    1  A    between atoms: C_1  and  C_5
    2  A    between atoms: C_1  and  C_23
    3  A    between atoms: C_2  and  C_6
    4  A    between atoms: C_5  and  C_17
    5  A    between atoms: C_6  and  S_8
    6  A    between atoms: C_6  and  C_31
    7  A    between atoms: S_8  and  C_19
    8  A    between atoms: C_11  and  C_26
    9  A    between atoms: C_17  and  C_26
   10  A    between atoms: C_23  and  C_25
                            x       y       z     vdW  Elec       q    Type
                         _______ _______ _______ _____ _____    ______ ____

>  <TORSDO>
F 10

$$$$
