=
 OpenBabel11062407513D

 34 39  0  0  1  0  0  0  0  0999 V2000
  161.3070  210.9230  151.0900 C   0  0  0  0  0  0  0  0  0  0  0  0
  159.2250  211.7120  152.1030 C   0  0  0  0  0  0  0  0  0  0  0  0
  160.1420  209.3460  152.6070 C   0  0  1  0  0  3  0  0  0  0  0  0
  161.2200  208.2360  154.5630 C   0  0  0  0  0  0  0  0  0  0  0  0
  160.3860  213.2440  150.6210 C   0  0  0  0  0  3  0  0  0  0  0  0
  159.3290  212.9860  151.3900 C   0  0  0  0  0  3  0  0  0  0  0  0
  160.6740  210.4720  154.8870 C   0  0  0  0  0  3  0  0  0  0  0  0
  160.2530  210.6750  151.8940 C   0  0  0  0  0  0  0  0  0  0  0  0
  161.6500  208.4990  156.1620 S   0  0  0  0  0  0  0  0  0  0  0  0
  161.5370  212.2830  150.4740 C   0  0  0  0  0  2  0  0  0  0  0  0
  160.7930  208.2040  151.7800 C   0  0  2  0  0  3  0  0  0  0  0  0
  162.2830  209.8990  150.8460 N   0  0  0  0  0  0  0  0  0  0  0  0
  158.2470  211.5050  152.8690 O   0  0  0  0  0  0  0  0  0  0  0  0
  161.2730  206.9930  153.8640 N   0  0  0  0  0  0  0  0  0  0  0  0
  161.0180  206.9300  152.5850 C   0  0  0  0  0  0  0  0  0  0  0  0
  161.1870  210.1220  156.1350 C   0  0  0  0  0  0  0  0  0  0  0  0
  160.7180  209.3910  153.9970 C   0  0  0  0  0  0  0  0  0  0  0  0
  162.0940  208.6550  151.1740 C   0  0  0  0  0  3  0  0  0  0  0  0
  161.0010  204.3060  149.8520 C   0  0  0  0  0  0  0  0  0  0  0  0
  161.0930  203.1290  150.5990 C   0  0  0  0  0  3  0  0  0  0  0  0
  161.0470  205.6190  151.8980 C   0  0  0  0  0  0  0  0  0  0  0  0
  161.1610  203.1910  151.9930 C   0  0  0  0  0  3  0  0  0  0  0  0
  160.9780  205.5440  150.4990 C   0  0  0  0  0  3  0  0  0  0  0  0
  161.1370  204.4300  152.6400 C   0  0  0  0  0  3  0  0  0  0  0  0
  160.9350  204.2460  148.5010 F   0  0  0  0  0  0  0  0  0  0  0  0
  161.2860  210.9940  157.2600 N   0  0  0  0  0  2  0  0  0  0  0  0
  160.7160  212.3330  157.2490 C   0  0  0  0  0  2  0  0  0  0  0  0
  159.9460  214.3990  155.3910 F   0  0  0  0  0  0  0  0  0  0  0  0
  159.4110  212.3330  156.4730 C   0  0  2  0  0  3  0  0  0  0  0  0
  158.9870  213.7740  156.1670 C   0  0  2  0  0  3  0  0  0  0  0  0
  156.6140  212.9670  156.1740 C   0  0  0  0  0  2  0  0  0  0  0  0
  157.1580  211.5700  156.4570 C   0  0  0  0  0  2  0  0  0  0  0  0
  158.3750  211.6630  157.2600 N   0  0  0  0  0  2  0  0  0  0  0  0
  157.6610  213.7730  155.4120 C   0  0  0  0  0  2  0  0  0  0  0  0
  1  8  2  0  0  0  0
  2 13  2  0  0  0  0
  3  8  1  6  0  0  0
  3 17  1  0  0  0  0
  4  9  1  0  0  0  0
  5  6  2  0  0  0  0
  6  2  1  0  0  0  0
  7 16  2  0  0  0  0
  8  2  1  0  0  0  0
 10  5  1  0  0  0  0
 10  1  1  0  0  0  0
 11 18  1  1  0  0  0
 11 15  1  0  0  0  0
 11  3  1  0  0  0  0
 12  1  1  0  0  0  0
 12 18  2  0  0  0  0
 14  4  1  0  0  0  0
 15 14  2  0  0  0  0
 16  9  1  0  0  0  0
 16 26  1  0  0  0  0
 17  4  2  0  0  0  0
 17  7  1  0  0  0  0
 19 23  2  0  0  0  0
 19 20  1  0  0  0  0
 20 22  2  0  0  0  0
 21 15  1  0  0  0  0
 21 24  2  0  0  0  0
 22 24  1  0  0  0  0
 23 21  1  0  0  0  0
 25 19  1  0  0  0  0
 27 26  1  0  0  0  0
 29 27  1  1  0  0  0
 29 33  1  0  0  0  0
 30 28  1  6  0  0  0
 30 29  1  0  0  0  0
 31 32  1  0  0  0  0
 32 33  1  0  0  0  0
 34 30  1  0  0  0  0
 34 31  1  0  0  0  0
M  END
>  <MODEL>
1

>  <REMARK>
 VINA RESULT:      -7.1      0.000      0.000
  Name = 
  4 active torsions:
  status: ('A' for Active; 'I' for Inactive)
    1  A    between atoms: C_3  and  C_13
    2  A    between atoms: C_3  and  N_17
    3  A    between atoms: C_12  and  C_28
    4  A    between atoms: N_17  and  C_29
                            x       y       z     vdW  Elec       q    Type
                         _______ _______ _______ _____ _____    ______ ____

>  <TORSDO>
F 4

$$$$
=
 OpenBabel11062407513D

 34 39  0  0  1  0  0  0  0  0999 V2000
  162.0880  203.7210  151.6930 C   0  0  0  0  0  0  0  0  0  0  0  0
  160.2360  203.0780  150.2280 C   0  0  0  0  0  0  0  0  0  0  0  0
  160.6080  205.5480  150.9050 C   0  0  1  0  0  3  0  0  0  0  0  0
  161.4220  207.6040  149.7520 C   0  0  0  0  0  0  0  0  0  0  0  0
  161.7020  201.3060  151.0040 C   0  0  0  0  0  3  0  0  0  0  0  0
  160.6170  201.6680  150.3200 C   0  0  0  0  0  3  0  0  0  0  0  0
  161.3860  205.6930  148.4310 C   0  0  0  0  0  3  0  0  0  0  0  0
  161.0080  204.0910  150.9740 C   0  0  0  0  0  0  0  0  0  0  0  0
  161.9070  208.1770  148.2520 S   0  0  0  0  0  0  0  0  0  0  0  0
  162.6110  202.3040  151.6740 C   0  0  0  0  0  2  0  0  0  0  0  0
  160.9880  206.3010  152.2090 C   0  0  2  0  0  3  0  0  0  0  0  0
  162.8120  204.6960  152.4590 N   0  0  0  0  0  0  0  0  0  0  0  0
  159.2400  203.4110  149.5330 O   0  0  0  0  0  0  0  0  0  0  0  0
  161.1960  208.3850  150.9250 N   0  0  0  0  0  0  0  0  0  0  0  0
  160.9280  207.8170  152.0700 C   0  0  0  0  0  0  0  0  0  0  0  0
  161.8150  206.6580  147.5200 C   0  0  0  0  0  0  0  0  0  0  0  0
  161.1860  206.2450  149.7020 C   0  0  0  0  0  0  0  0  0  0  0  0
  162.3530  205.8900  152.6890 C   0  0  0  0  0  3  0  0  0  0  0  0
  160.3670  208.8830  155.6620 C   0  0  0  0  0  0  0  0  0  0  0  0
  160.1510  210.2550  155.5110 C   0  0  0  0  0  3  0  0  0  0  0  0
  160.6630  208.6580  153.2580 C   0  0  0  0  0  0  0  0  0  0  0  0
  160.1880  210.8320  154.2400 C   0  0  0  0  0  3  0  0  0  0  0  0
  160.6220  208.0890  154.5410 C   0  0  0  0  0  3  0  0  0  0  0  0
  160.4420  210.0370  153.1180 C   0  0  0  0  0  3  0  0  0  0  0  0
  160.3320  208.3230  156.8940 F   0  0  0  0  0  0  0  0  0  0  0  0
  162.1090  206.4210  146.1440 N   0  0  0  0  0  2  0  0  0  0  0  0
  162.4890  205.1050  145.6530 C   0  0  0  0  0  2  0  0  0  0  0  0
  162.1810  203.0370  147.6380 F   0  0  0  0  0  0  0  0  0  0  0  0
  161.2990  204.1650  145.7210 C   0  0  2  0  0  3  0  0  0  0  0  0
  161.7230  202.8330  146.3490 C   0  0  2  0  0  3  0  0  0  0  0  0
  159.9120  201.7410  145.0040 C   0  0  0  0  0  2  0  0  0  0  0  0
  159.5670  203.1250  144.4640 C   0  0  0  0  0  2  0  0  0  0  0  0
  160.7780  203.9390  144.3720 N   0  0  0  0  0  2  0  0  0  0  0  0
  160.5330  201.8790  146.3900 C   0  0  0  0  0  2  0  0  0  0  0  0
  1 12  1  0  0  0  0
  2  6  1  0  0  0  0
  2  8  1  0  0  0  0
  3 17  1  6  0  0  0
  3  8  1  0  0  0  0
  3 11  1  0  0  0  0
  4 14  1  0  0  0  0
  5 10  1  0  0  0  0
  6  5  2  0  0  0  0
  7 17  1  0  0  0  0
  8  1  2  0  0  0  0
  9  4  1  0  0  0  0
 10  1  1  0  0  0  0
 11 18  1  6  0  0  0
 12 18  2  0  0  0  0
 13  2  2  0  0  0  0
 14 15  2  0  0  0  0
 15 11  1  0  0  0  0
 15 21  1  0  0  0  0
 16  9  1  0  0  0  0
 16  7  2  0  0  0  0
 17  4  2  0  0  0  0
 19 25  1  0  0  0  0
 20 19  1  0  0  0  0
 21 23  1  0  0  0  0
 22 20  2  0  0  0  0
 23 19  2  0  0  0  0
 24 21  2  0  0  0  0
 24 22  1  0  0  0  0
 26 16  1  0  0  0  0
 27 26  1  0  0  0  0
 29 27  1  6  0  0  0
 29 30  1  0  0  0  0
 30 34  1  0  0  0  0
 30 28  1  1  0  0  0
 31 34  1  0  0  0  0
 32 31  1  0  0  0  0
 33 32  1  0  0  0  0
 33 29  1  0  0  0  0
M  END
>  <MODEL>
2

>  <REMARK>
 VINA RESULT:      -6.2      3.783      9.708
  Name = 
  4 active torsions:
  status: ('A' for Active; 'I' for Inactive)
    1  A    between atoms: C_3  and  C_13
    2  A    between atoms: C_3  and  N_17
    3  A    between atoms: C_12  and  C_28
    4  A    between atoms: N_17  and  C_29
                            x       y       z     vdW  Elec       q    Type
                         _______ _______ _______ _____ _____    ______ ____

>  <TORSDO>
F 4

$$$$
=
 OpenBabel11062407513D

 34 39  0  0  1  0  0  0  0  0999 V2000
  162.0670  203.6650  151.6710 C   0  0  0  0  0  0  0  0  0  0  0  0
  160.2670  202.9550  150.1730 C   0  0  0  0  0  0  0  0  0  0  0  0
  160.6390  205.4560  150.7240 C   0  0  1  0  0  3  0  0  0  0  0  0
  161.5180  207.4360  149.4880 C   0  0  0  0  0  0  0  0  0  0  0  0
  161.6830  201.2170  151.1040 C   0  0  0  0  0  3  0  0  0  0  0  0
  160.6300  201.5490  150.3590 C   0  0  0  0  0  3  0  0  0  0  0  0
  161.5140  205.4530  148.2780 C   0  0  0  0  0  3  0  0  0  0  0  0
  161.0200  204.0020  150.8900 C   0  0  0  0  0  0  0  0  0  0  0  0
  162.0660  207.9190  147.9790 S   0  0  0  0  0  0  0  0  0  0  0  0
  162.5760  202.2450  151.7530 C   0  0  0  0  0  2  0  0  0  0  0  0
  160.9750  206.2780  151.9970 C   0  0  2  0  0  3  0  0  0  0  0  0
  162.7710  204.6760  152.4080 N   0  0  0  0  0  0  0  0  0  0  0  0
  159.3030  203.2560  149.4210 O   0  0  0  0  0  0  0  0  0  0  0  0
  161.2540  208.2850  150.6060 N   0  0  0  0  0  0  0  0  0  0  0  0
  160.9360  207.7840  151.7690 C   0  0  0  0  0  0  0  0  0  0  0  0
  161.9880  206.3620  147.3310 C   0  0  0  0  0  0  0  0  0  0  0  0
  161.2700  206.0780  149.5070 C   0  0  0  0  0  0  0  0  0  0  0  0
  162.3160  205.8850  152.5520 C   0  0  0  0  0  3  0  0  0  0  0  0
  160.4680  209.1110  155.2870 C   0  0  0  0  0  0  0  0  0  0  0  0
  160.0510  210.4200  155.0350 C   0  0  0  0  0  3  0  0  0  0  0  0
  160.6340  208.6940  152.8970 C   0  0  0  0  0  0  0  0  0  0  0  0
  159.9220  210.8700  153.7190 C   0  0  0  0  0  3  0  0  0  0  0  0
  160.7580  208.2530  154.2240 C   0  0  0  0  0  3  0  0  0  0  0  0
  160.2110  210.0110  152.6550 C   0  0  0  0  0  3  0  0  0  0  0  0
  160.5940  208.6740  156.5630 F   0  0  0  0  0  0  0  0  0  0  0  0
  162.3320  206.0450  145.9840 N   0  0  0  0  0  2  0  0  0  0  0  0
  163.0160  204.8090  145.6330 C   0  0  0  0  0  2  0  0  0  0  0  0
  161.0980  205.3420  143.5480 F   0  0  0  0  0  0  0  0  0  0  0  0
  162.0130  203.7900  145.1230 C   0  0  2  0  0  3  0  0  0  0  0  0
  160.7640  204.5070  144.5990 C   0  0  2  0  0  3  0  0  0  0  0  0
  159.4590  202.4540  145.2040 C   0  0  0  0  0  2  0  0  0  0  0  0
  160.7720  201.8370  145.6760 C   0  0  0  0  0  2  0  0  0  0  0  0
  161.6480  202.8780  146.2080 N   0  0  0  0  0  2  0  0  0  0  0  0
  159.7440  203.4800  144.1130 C   0  0  0  0  0  2  0  0  0  0  0  0
  1 10  1  0  0  0  0
  1 12  1  0  0  0  0
  2  6  1  0  0  0  0
  2  8  1  0  0  0  0
  3 17  1  6  0  0  0
  3  8  1  0  0  0  0
  3 11  1  0  0  0  0
  4 17  2  0  0  0  0
  4 14  1  0  0  0  0
  5 10  1  0  0  0  0
  6  5  2  0  0  0  0
  7 17  1  0  0  0  0
  8  1  2  0  0  0  0
  9  4  1  0  0  0  0
 11 18  1  6  0  0  0
 12 18  2  0  0  0  0
 13  2  2  0  0  0  0
 14 15  2  0  0  0  0
 15 11  1  0  0  0  0
 15 21  1  0  0  0  0
 16  9  1  0  0  0  0
 16  7  2  0  0  0  0
 19 25  1  0  0  0  0
 20 19  1  0  0  0  0
 21 23  1  0  0  0  0
 22 20  2  0  0  0  0
 23 19  2  0  0  0  0
 24 21  2  0  0  0  0
 24 22  1  0  0  0  0
 26 16  1  0  0  0  0
 27 26  1  0  0  0  0
 29 27  1  1  0  0  0
 29 33  1  0  0  0  0
 30 28  1  6  0  0  0
 30 29  1  0  0  0  0
 31 32  1  0  0  0  0
 32 33  1  0  0  0  0
 34 30  1  0  0  0  0
 34 31  1  0  0  0  0
M  END
>  <MODEL>
3

>  <REMARK>
 VINA RESULT:      -6.0      3.966      9.797
  Name = 
  4 active torsions:
  status: ('A' for Active; 'I' for Inactive)
    1  A    between atoms: C_3  and  C_13
    2  A    between atoms: C_3  and  N_17
    3  A    between atoms: C_12  and  C_28
    4  A    between atoms: N_17  and  C_29
                            x       y       z     vdW  Elec       q    Type
                         _______ _______ _______ _____ _____    ______ ____

>  <TORSDO>
F 4

$$$$
=
 OpenBabel11062407513D

 34 39  0  0  1  0  0  0  0  0999 V2000
  160.6860  206.2040  146.8310 C   0  0  0  0  0  0  0  0  0  0  0  0
  162.7720  205.0280  146.3260 C   0  0  0  0  0  0  0  0  0  0  0  0
  162.0650  205.5030  148.7690 C   0  0  1  0  0  3  0  0  0  0  0  0
  161.2080  204.1340  150.6700 C   0  0  0  0  0  0  0  0  0  0  0  0
  161.4040  205.7150  144.4420 C   0  0  0  0  0  3  0  0  0  0  0  0
  162.5270  205.1550  144.8880 C   0  0  0  0  0  3  0  0  0  0  0  0
  161.6130  202.9460  148.7150 C   0  0  0  0  0  3  0  0  0  0  0  0
  161.8090  205.6070  147.2820 C   0  0  0  0  0  0  0  0  0  0  0  0
  160.8720  202.5540  151.1170 S   0  0  0  0  0  0  0  0  0  0  0  0
  160.3170  206.2030  145.3660 C   0  0  0  0  0  2  0  0  0  0  0  0
  161.4410  206.7010  149.5360 C   0  0  2  0  0  3  0  0  0  0  0  0
  159.7720  206.8110  147.7560 N   0  0  0  0  0  0  0  0  0  0  0  0
  163.8130  204.4470  146.7320 O   0  0  0  0  0  0  0  0  0  0  0  0
  161.1960  205.2780  151.5240 N   0  0  0  0  0  0  0  0  0  0  0  0
  161.3650  206.4790  151.0410 C   0  0  0  0  0  0  0  0  0  0  0  0
  161.2130  201.9310  149.5850 C   0  0  0  0  0  0  0  0  0  0  0  0
  161.5850  204.1970  149.3430 C   0  0  0  0  0  0  0  0  0  0  0  0
  160.0730  207.0260  149.0020 C   0  0  0  0  0  3  0  0  0  0  0  0
  160.8470  208.6370  154.1120 C   0  0  0  0  0  0  0  0  0  0  0  0
  161.4120  209.8460  153.6980 C   0  0  0  0  0  3  0  0  0  0  0  0
  161.3830  207.6400  151.9600 C   0  0  0  0  0  0  0  0  0  0  0  0
  161.9610  209.9580  152.4190 C   0  0  0  0  0  3  0  0  0  0  0  0
  160.8330  207.5400  153.2470 C   0  0  0  0  0  3  0  0  0  0  0  0
  161.9460  208.8600  151.5530 C   0  0  0  0  0  3  0  0  0  0  0  0
  160.3140  208.5280  155.3520 F   0  0  0  0  0  0  0  0  0  0  0  0
  161.1310  200.5460  149.2550 N   0  0  0  0  0  2  0  0  0  0  0  0
  161.7090  200.0100  148.0320 C   0  0  0  0  0  2  0  0  0  0  0  0
  161.2060  198.0140  146.0130 F   0  0  0  0  0  0  0  0  0  0  0  0
  160.7390  200.1950  146.8780 C   0  0  2  0  0  3  0  0  0  0  0  0
  161.1910  199.3550  145.6780 C   0  0  2  0  0  3  0  0  0  0  0  0
  160.0810  201.0510  144.2040 C   0  0  0  0  0  2  0  0  0  0  0  0
  159.6690  201.7900  145.4740 C   0  0  0  0  0  2  0  0  0  0  0  0
  160.6870  201.6100  146.5070 N   0  0  0  0  0  2  0  0  0  0  0  0
  160.2320  199.5660  144.5100 C   0  0  0  0  0  2  0  0  0  0  0  0
  1  8  2  0  0  0  0
  1 12  1  0  0  0  0
  2 13  2  0  0  0  0
  2  8  1  0  0  0  0
  3  8  1  6  0  0  0
  3 17  1  0  0  0  0
  3 11  1  0  0  0  0
  4  9  1  0  0  0  0
  4 14  1  0  0  0  0
  5  6  2  0  0  0  0
  5 10  1  0  0  0  0
  6  2  1  0  0  0  0
  7 17  1  0  0  0  0
  7 16  2  0  0  0  0
 10  1  1  0  0  0  0
 11 18  1  6  0  0  0
 11 15  1  0  0  0  0
 12 18  2  0  0  0  0
 15 14  2  0  0  0  0
 15 21  1  0  0  0  0
 16  9  1  0  0  0  0
 17  4  2  0  0  0  0
 19 25  1  0  0  0  0
 20 19  1  0  0  0  0
 21 23  1  0  0  0  0
 22 20  2  0  0  0  0
 23 19  2  0  0  0  0
 24 21  2  0  0  0  0
 24 22  1  0  0  0  0
 26 16  1  0  0  0  0
 27 26  1  0  0  0  0
 29 27  1  1  0  0  0
 30 28  1  1  0  0  0
 30 29  1  0  0  0  0
 31 34  1  0  0  0  0
 31 32  1  0  0  0  0
 32 33  1  0  0  0  0
 33 29  1  0  0  0  0
 34 30  1  0  0  0  0
M  END
>  <MODEL>
4

>  <REMARK>
 VINA RESULT:      -4.6      4.808     10.367
  Name = 
  4 active torsions:
  status: ('A' for Active; 'I' for Inactive)
    1  A    between atoms: C_3  and  C_13
    2  A    between atoms: C_3  and  N_17
    3  A    between atoms: C_12  and  C_28
    4  A    between atoms: N_17  and  C_29
                            x       y       z     vdW  Elec       q    Type
                         _______ _______ _______ _____ _____    ______ ____

>  <TORSDO>
F 4

$$$$
=
 OpenBabel11062407513D

 34 39  0  0  1  0  0  0  0  0999 V2000
  160.9810  209.0100  152.9620 C   0  0  0  0  0  0  0  0  0  0  0  0
  163.0490  210.3030  153.1630 C   0  0  0  0  0  0  0  0  0  0  0  0
  162.4140  209.1360  150.9420 C   0  0  1  0  0  3  0  0  0  0  0  0
  161.6100  209.8890  148.7050 C   0  0  0  0  0  0  0  0  0  0  0  0
  161.6270  210.1740  155.1260 C   0  0  0  0  0  3  0  0  0  0  0  0
  162.7620  210.5930  154.5690 C   0  0  0  0  0  3  0  0  0  0  0  0
  161.9550  211.5950  150.2440 C   0  0  0  0  0  3  0  0  0  0  0  0
  162.1160  209.4620  152.3880 C   0  0  0  0  0  0  0  0  0  0  0  0
  161.2840  211.2700  147.8110 S   0  0  0  0  0  0  0  0  0  0  0  0
  160.5690  209.4290  154.3530 C   0  0  0  0  0  2  0  0  0  0  0  0
  161.8160  207.7610  150.5370 C   0  0  2  0  0  3  0  0  0  0  0  0
  160.0960  208.1520  152.2260 N   0  0  0  0  0  0  0  0  0  0  0  0
  164.1000  210.7530  152.6350 O   0  0  0  0  0  0  0  0  0  0  0  0
  161.6260  208.5480  148.2160 N   0  0  0  0  0  0  0  0  0  0  0  0
  161.7840  207.5380  149.0300 C   0  0  0  0  0  0  0  0  0  0  0  0
  161.5790  212.3110  149.1070 C   0  0  0  0  0  0  0  0  0  0  0  0
  161.9490  210.2160  150.0030 C   0  0  0  0  0  0  0  0  0  0  0  0
  160.4330  207.5900  151.1040 C   0  0  0  0  0  3  0  0  0  0  0  0
  162.4890  204.6050  146.7390 C   0  0  0  0  0  0  0  0  0  0  0  0
  161.9120  203.5520  147.4540 C   0  0  0  0  0  3  0  0  0  0  0  0
  161.8310  206.1630  148.4870 C   0  0  0  0  0  0  0  0  0  0  0  0
  161.2940  203.7980  148.6810 C   0  0  0  0  0  3  0  0  0  0  0  0
  162.4480  205.9030  147.2530 C   0  0  0  0  0  3  0  0  0  0  0  0
  161.2530  205.0980  149.1950 C   0  0  0  0  0  3  0  0  0  0  0  0
  163.0880  204.3670  145.5480 F   0  0  0  0  0  0  0  0  0  0  0  0
  161.4840  213.7320  149.0210 N   0  0  0  0  0  2  0  0  0  0  0  0
  160.3050  214.3950  148.4860 C   0  0  0  0  0  2  0  0  0  0  0  0
  157.8840  213.6570  147.1060 F   0  0  0  0  0  0  0  0  0  0  0  0
  159.0590  213.8710  149.1790 C   0  0  2  0  0  3  0  0  0  0  0  0
  157.8160  214.2350  148.3590 C   0  0  2  0  0  3  0  0  0  0  0  0
  156.5280  214.2390  150.5090 C   0  0  0  0  0  2  0  0  0  0  0  0
  157.8260  213.8550  151.2130 C   0  0  0  0  0  2  0  0  0  0  0  0
  158.9640  214.4530  150.5180 N   0  0  0  0  0  2  0  0  0  0  0  0
  156.5630  213.7340  149.0720 C   0  0  0  0  0  2  0  0  0  0  0  0
  1 10  1  0  0  0  0
  2  6  1  0  0  0  0
  3 17  1  6  0  0  0
  3  8  1  0  0  0  0
  4 17  2  0  0  0  0
  6  5  2  0  0  0  0
  8  1  2  0  0  0  0
  8  2  1  0  0  0  0
  9  4  1  0  0  0  0
  9 16  1  0  0  0  0
 10  5  1  0  0  0  0
 11  3  1  0  0  0  0
 11 18  1  6  0  0  0
 12  1  1  0  0  0  0
 13  2  2  0  0  0  0
 14  4  1  0  0  0  0
 14 15  2  0  0  0  0
 15 11  1  0  0  0  0
 16  7  2  0  0  0  0
 17  7  1  0  0  0  0
 18 12  2  0  0  0  0
 19 23  2  0  0  0  0
 19 20  1  0  0  0  0
 20 22  2  0  0  0  0
 21 15  1  0  0  0  0
 21 24  2  0  0  0  0
 22 24  1  0  0  0  0
 23 21  1  0  0  0  0
 25 19  1  0  0  0  0
 26 16  1  0  0  0  0
 27 26  1  0  0  0  0
 29 27  1  6  0  0  0
 29 33  1  0  0  0  0
 30 28  1  6  0  0  0
 30 34  1  0  0  0  0
 30 29  1  0  0  0  0
 31 32  1  0  0  0  0
 33 32  1  0  0  0  0
 34 31  1  0  0  0  0
M  END
>  <MODEL>
5

>  <REMARK>
 VINA RESULT:      -4.2      3.693      5.497
  Name = 
  4 active torsions:
  status: ('A' for Active; 'I' for Inactive)
    1  A    between atoms: C_3  and  C_13
    2  A    between atoms: C_3  and  N_17
    3  A    between atoms: C_12  and  C_28
    4  A    between atoms: N_17  and  C_29
                            x       y       z     vdW  Elec       q    Type
                         _______ _______ _______ _____ _____    ______ ____

>  <TORSDO>
F 4

$$$$
