=
 OpenBabel11062410043D

 43 48  0  0  1  0  0  0  0  0999 V2000
  162.0470  206.1090  152.0460 N   0  0  0  0  0  0  0  0  0  0  0  0
  161.6180  207.1850  151.4820 C   0  0  0  0  0  0  0  0  0  0  0  0
  161.4370  205.6030  153.2550 C   0  0  0  0  0  2  0  0  0  0  0  0
  160.4680  207.9540  152.0790 C   0  0  0  0  0  2  0  0  0  0  0  0
  160.4660  207.9150  153.6190 C   0  0  1  0  0  3  0  0  0  0  0  0
  161.2570  206.7500  154.2470 C   0  0  0  0  0  2  0  0  0  0  0  0
  162.2830  207.6830  150.2420 C   0  0  0  0  0  2  0  0  0  0  0  0
  162.4530  207.4380  147.9120 C   0  0  0  0  0  2  0  0  0  0  0  0
  162.4100  206.1080  148.5100 C   0  0  1  0  0  3  0  0  0  0  0  0
  161.5810  207.1880  149.0690 N   0  0  0  0  0  0  0  0  0  0  0  0
  161.5280  205.1880  147.6830 C   0  0  2  0  0  3  0  0  0  0  0  0
  161.3060  203.8880  148.3940 C   0  0  0  0  0  0  0  0  0  0  0  0
  160.8770  202.6200  150.4210 C   0  0  0  0  0  3  0  0  0  0  0  0
  161.1150  201.4720  148.3030 C   0  0  0  0  0  3  0  0  0  0  0  0
  160.8950  201.4340  149.6830 C   0  0  0  0  0  3  0  0  0  0  0  0
  161.3180  202.6970  147.6600 C   0  0  0  0  0  3  0  0  0  0  0  0
  161.0800  203.8450  149.7790 C   0  0  0  0  0  3  0  0  0  0  0  0
  162.2610  204.9230  146.0340 S   0  0  0  0  0  0  0  0  0  0  0  0
  160.6450  204.9290  145.2100 C   0  0  1  0  0  3  0  0  0  0  0  0
  159.0390  203.3590  144.1990 C   0  0  0  0  0  1  0  0  0  0  0  0
  160.8490  204.9640  143.7110 C   0  0  0  0  0  2  0  0  0  0  0  0
  160.5090  203.6590  144.3970 C   0  0  1  0  0  3  0  0  0  0  0  0
  160.8170  209.2900  154.2040 C   0  0  1  0  0  3  0  0  0  0  0  0
  158.7330  212.4650  152.1570 C   0  0  0  0  0  0  0  0  0  0  0  0
  160.7790  211.1950  152.4680 C   0  0  0  0  0  0  0  0  0  0  0  0
  158.1030  211.6970  153.1380 C   0  0  0  0  0  3  0  0  0  0  0  0
  157.9870  213.5480  151.4670 C   0  0  0  0  0  1  0  0  0  0  0  0
  160.1400  210.4120  153.4600 C   0  0  0  0  0  0  0  0  0  0  0  0
  160.0670  212.2130  151.8240 C   0  0  0  0  0  3  0  0  0  0  0  0
  158.8040  210.6770  153.7840 C   0  0  0  0  0  3  0  0  0  0  0  0
  162.2860  210.7990  150.6880 O   0  0  0  0  0  1  0  0  0  0  0  0
  162.2020  210.9720  152.0700 C   0  0  0  0  0  2  0  0  0  0  0  0
  160.7480  209.4230  155.7380 C   0  0  1  0  0  3  0  0  0  0  0  0
  161.4330  208.3820  156.3660 O   0  0  0  0  0  1  0  0  0  0  0  0
  161.2880  210.7700  156.2240 C   0  0  0  0  0  2  0  0  0  0  0  0
  158.8210  213.6960  156.2820 C   0  0  0  0  0  3  0  0  0  0  0  0
  157.7180  213.0620  156.6950 C   0  0  0  0  0  0  0  0  0  0  0  0
  158.8820  210.9240  156.8630 C   0  0  0  0  0  3  0  0  0  0  0  0
  160.0460  212.9150  155.8930 C   0  0  0  0  0  2  0  0  0  0  0  0
  160.1900  211.6700  156.7740 C   0  0  2  0  0  3  0  0  0  0  0  0
  157.7260  211.5950  156.8630 C   0  0  0  0  0  3  0  0  0  0  0  0
  155.5440  214.4530  157.2600 C   0  0  0  0  0  3  0  0  0  0  0  0
  156.5360  213.8160  157.0050 C   0  0  0  0  0  0  0  0  0  0  0  0
  1  3  1  0  0  0  0
  2  1  2  0  0  0  0
  2  4  1  0  0  0  0
  3  6  1  0  0  0  0
  4  5  1  0  0  0  0
  5 23  1  1  0  0  0
  5  6  1  0  0  0  0
  7  2  1  0  0  0  0
  8  9  1  0  0  0  0
  8 10  1  0  0  0  0
  9 11  1  6  0  0  0
  9 10  1  0  0  0  0
 10  7  1  0  0  0  0
 11 18  1  6  0  0  0
 11 12  1  0  0  0  0
 12 17  1  0  0  0  0
 14 15  2  0  0  0  0
 15 13  1  0  0  0  0
 16 14  1  0  0  0  0
 16 12  2  0  0  0  0
 17 13  2  0  0  0  0
 19 18  1  1  0  0  0
 21 22  1  0  0  0  0
 21 19  1  0  0  0  0
 22 20  1  6  0  0  0
 22 19  1  0  0  0  0
 23 33  1  1  0  0  0
 24 26  1  0  0  0  0
 25 28  2  0  0  0  0
 26 30  2  0  0  0  0
 27 24  1  0  0  0  0
 28 30  1  0  0  0  0
 28 23  1  0  0  0  0
 29 24  2  0  0  0  0
 29 25  1  0  0  0  0
 31 32  1  0  0  0  0
 32 25  1  0  0  0  0
 33 35  1  0  0  0  0
 33 34  1  1  0  0  0
 36 37  2  0  0  0  0
 37 41  1  0  0  0  0
 37 43  1  0  0  0  0
 38 41  2  0  0  0  0
 39 36  1  0  0  0  0
 39 40  1  0  0  0  0
 40 35  1  6  0  0  0
 40 38  1  0  0  0  0
 43 42  3  0  0  0  0
M  END
>  <MODEL>
1

>  <REMARK>
 VINA RESULT:      -6.2      0.000      0.000
  Name = 
  13 active torsions:
  status: ('A' for Active; 'I' for Inactive)
    1  A    between atoms: C_1  and  C_8
    2  A    between atoms: C_1  and  C_35
    3  A    between atoms: C_4  and  C_14
    4  A    between atoms: C_6  and  C_17
    5  A    between atoms: C_8  and  C_30
    6  A    between atoms: C_10  and  S_41
    7  A    between atoms: C_11  and  C_14
    8  A    between atoms: N_12  and  C_17
    9  A    between atoms: C_14  and  S_41
   10  A    between atoms: C_16  and  C_43
   11  A    between atoms: C_19  and  C_37
   12  A    between atoms: C_21  and  C_30
   13  A    between atoms: C_27  and  C_30
                            x       y       z     vdW  Elec       q    Type
                         _______ _______ _______ _____ _____    ______ ____

>  <TORSDO>
F 13

$$$$
=
 OpenBabel11062410043D

 43 48  0  0  1  0  0  0  0  0999 V2000
  160.2830  209.0220  155.0550 N   0  0  0  0  0  0  0  0  0  0  0  0
  160.9760  209.6090  154.1420 C   0  0  0  0  0  0  0  0  0  0  0  0
  160.4920  207.6270  155.3720 C   0  0  0  0  0  2  0  0  0  0  0  0
  162.0240  208.8490  153.3700 C   0  0  0  0  0  2  0  0  0  0  0  0
  161.6250  207.3820  153.1200 C   0  0  1  0  0  3  0  0  0  0  0  0
  160.5570  206.8190  154.0790 C   0  0  0  0  0  2  0  0  0  0  0  0
  160.7220  211.0480  153.8330 C   0  0  0  0  0  2  0  0  0  0  0  0
  159.3350  212.3380  155.2220 C   0  0  0  0  0  2  0  0  0  0  0  0
  159.1850  212.8170  153.8520 C   0  0  1  0  0  3  0  0  0  0  0  0
  159.3330  211.3760  154.1090 N   0  0  0  0  0  0  0  0  0  0  0  0
  157.7240  213.1170  153.5570 C   0  0  2  0  0  3  0  0  0  0  0  0
  157.5380  213.4680  152.1130 C   0  0  0  0  0  0  0  0  0  0  0  0
  156.1240  214.1190  150.2470 C   0  0  0  0  0  3  0  0  0  0  0  0
  158.5010  213.8000  149.9120 C   0  0  0  0  0  3  0  0  0  0  0  0
  157.2380  214.1200  149.4040 C   0  0  0  0  0  3  0  0  0  0  0  0
  158.6500  213.4770  151.2630 C   0  0  0  0  0  3  0  0  0  0  0  0
  156.2730  213.7960  151.6000 C   0  0  0  0  0  3  0  0  0  0  0  0
  157.1210  214.4510  154.6450 S   0  0  0  0  0  0  0  0  0  0  0  0
  155.7550  213.4410  155.2830 C   0  0  1  0  0  3  0  0  0  0  0  0
  154.2850  213.2880  157.2550 C   0  0  0  0  0  1  0  0  0  0  0  0
  156.3100  212.3630  156.1880 C   0  0  0  0  0  2  0  0  0  0  0  0
  155.6890  213.6060  156.7860 C   0  0  1  0  0  3  0  0  0  0  0  0
  161.3150  207.1420  151.6350 C   0  0  1  0  0  3  0  0  0  0  0  0
  162.1240  210.7190  149.3650 C   0  0  0  0  0  0  0  0  0  0  0  0
  161.7570  208.3190  149.3860 C   0  0  0  0  0  0  0  0  0  0  0  0
  161.9740  210.7590  150.7520 C   0  0  0  0  0  3  0  0  0  0  0  0
  162.3970  211.9700  148.6110 C   0  0  0  0  0  1  0  0  0  0  0  0
  161.6020  208.3580  150.7920 C   0  0  0  0  0  0  0  0  0  0  0  0
  162.0150  209.5040  148.6850 C   0  0  0  0  0  3  0  0  0  0  0  0
  161.7150  209.5840  151.4600 C   0  0  0  0  0  3  0  0  0  0  0  0
  162.5410  207.0760  147.5320 O   0  0  0  0  0  1  0  0  0  0  0  0
  161.6510  207.0490  148.6060 C   0  0  0  0  0  2  0  0  0  0  0  0
  161.8320  205.8220  151.0300 C   0  0  1  0  0  3  0  0  0  0  0  0
  162.8580  205.2790  151.8040 O   0  0  0  0  0  1  0  0  0  0  0  0
  160.7120  204.7940  150.8530 C   0  0  0  0  0  2  0  0  0  0  0  0
  160.4990  201.2640  149.3880 C   0  0  0  0  0  3  0  0  0  0  0  0
  160.9530  201.4970  148.1520 C   0  0  0  0  0  0  0  0  0  0  0  0
  161.3130  203.8650  148.6170 C   0  0  0  0  0  3  0  0  0  0  0  0
  160.1890  202.4090  150.3130 C   0  0  0  0  0  2  0  0  0  0  0  0
  161.1740  203.5610  150.0880 C   0  0  2  0  0  3  0  0  0  0  0  0
  161.2460  202.8790  147.7190 C   0  0  0  0  0  3  0  0  0  0  0  0
  161.3900  199.4740  146.5110 C   0  0  0  0  0  3  0  0  0  0  0  0
  161.1870  200.3970  147.2590 C   0  0  0  0  0  0  0  0  0  0  0  0
  1  3  1  0  0  0  0
  2  1  2  0  0  0  0
  4  2  1  0  0  0  0
  5 23  1  6  0  0  0
  5  4  1  0  0  0  0
  5  6  1  0  0  0  0
  6  3  1  0  0  0  0
  7 10  1  0  0  0  0
  7  2  1  0  0  0  0
  9 11  1  1  0  0  0
  9 10  1  0  0  0  0
  9  8  1  0  0  0  0
 10  8  1  0  0  0  0
 11 18  1  1  0  0  0
 12 11  1  0  0  0  0
 13 17  2  0  0  0  0
 14 16  1  0  0  0  0
 15 14  2  0  0  0  0
 15 13  1  0  0  0  0
 16 12  2  0  0  0  0
 17 12  1  0  0  0  0
 19 18  1  6  0  0  0
 19 21  1  0  0  0  0
 19 22  1  0  0  0  0
 21 22  1  0  0  0  0
 22 20  1  1  0  0  0
 23 33  1  6  0  0  0
 24 26  1  0  0  0  0
 25 28  2  0  0  0  0
 26 30  2  0  0  0  0
 27 24  1  0  0  0  0
 28 30  1  0  0  0  0
 28 23  1  0  0  0  0
 29 24  2  0  0  0  0
 29 25  1  0  0  0  0
 31 32  1  0  0  0  0
 32 25  1  0  0  0  0
 33 34  1  1  0  0  0
 35 33  1  0  0  0  0
 36 39  1  0  0  0  0
 37 36  2  0  0  0  0
 38 40  1  0  0  0  0
 40 39  1  0  0  0  0
 40 35  1  1  0  0  0
 41 37  1  0  0  0  0
 41 38  2  0  0  0  0
 42 43  3  0  0  0  0
 43 37  1  0  0  0  0
M  END
>  <MODEL>
2

>  <REMARK>
 VINA RESULT:      -5.1      3.165     10.171
  Name = 
  13 active torsions:
  status: ('A' for Active; 'I' for Inactive)
    1  A    between atoms: C_1  and  C_8
    2  A    between atoms: C_1  and  C_35
    3  A    between atoms: C_4  and  C_14
    4  A    between atoms: C_6  and  C_17
    5  A    between atoms: C_8  and  C_30
    6  A    between atoms: C_10  and  S_41
    7  A    between atoms: C_11  and  C_14
    8  A    between atoms: N_12  and  C_17
    9  A    between atoms: C_14  and  S_41
   10  A    between atoms: C_16  and  C_43
   11  A    between atoms: C_19  and  C_37
   12  A    between atoms: C_21  and  C_30
   13  A    between atoms: C_27  and  C_30
                            x       y       z     vdW  Elec       q    Type
                         _______ _______ _______ _____ _____    ______ ____

>  <TORSDO>
F 13

$$$$
=
 OpenBabel11062410043D

 43 48  0  0  1  0  0  0  0  0999 V2000
  161.9480  206.3660  152.6910 N   0  0  0  0  0  0  0  0  0  0  0  0
  161.6310  207.4160  152.0170 C   0  0  0  0  0  0  0  0  0  0  0  0
  161.2770  206.0400  153.9300 C   0  0  0  0  0  2  0  0  0  0  0  0
  160.5510  208.3450  152.5110 C   0  0  0  0  0  2  0  0  0  0  0  0
  160.5260  208.4570  154.0470 C   0  0  1  0  0  3  0  0  0  0  0  0
  161.1940  207.2900  154.8020 C   0  0  0  0  0  2  0  0  0  0  0  0
  162.3560  207.7270  150.7490 C   0  0  0  0  0  2  0  0  0  0  0  0
  162.3200  207.6640  148.4010 C   0  0  0  0  0  2  0  0  0  0  0  0
  162.4310  206.2960  148.8950 C   0  0  1  0  0  3  0  0  0  0  0  0
  161.5830  207.2620  149.6090 N   0  0  0  0  0  0  0  0  0  0  0  0
  161.5430  205.3690  148.0800 C   0  0  2  0  0  3  0  0  0  0  0  0
  161.2590  204.1090  148.8370 C   0  0  0  0  0  0  0  0  0  0  0  0
  160.8870  201.7090  148.9100 C   0  0  0  0  0  3  0  0  0  0  0  0
  160.8350  203.0040  150.9550 C   0  0  0  0  0  3  0  0  0  0  0  0
  160.7270  201.7760  150.2960 C   0  0  0  0  0  3  0  0  0  0  0  0
  161.1030  204.1670  150.2270 C   0  0  0  0  0  3  0  0  0  0  0  0
  161.1550  202.8720  148.1810 C   0  0  0  0  0  3  0  0  0  0  0  0
  162.3150  205.0120  146.4670 S   0  0  0  0  0  0  0  0  0  0  0  0
  160.7150  204.9220  145.6150 C   0  0  1  0  0  3  0  0  0  0  0  0
  159.4180  203.3790  144.1980 C   0  0  0  0  0  1  0  0  0  0  0  0
  160.8890  205.3620  144.1780 C   0  0  0  0  0  2  0  0  0  0  0  0
  160.8090  203.8890  144.5120 C   0  0  1  0  0  3  0  0  0  0  0  0
  160.9980  209.8440  154.5050 C   0  0  1  0  0  3  0  0  0  0  0  0
  158.5500  213.0260  152.9260 C   0  0  0  0  0  0  0  0  0  0  0  0
  158.8960  211.3300  154.6300 C   0  0  0  0  0  0  0  0  0  0  0  0
  159.7370  212.6440  152.2990 C   0  0  0  0  0  3  0  0  0  0  0  0
  157.7310  214.1290  152.3600 C   0  0  0  0  0  1  0  0  0  0  0  0
  160.1030  210.9440  153.9970 C   0  0  0  0  0  0  0  0  0  0  0  0
  158.1320  212.3710  154.0880 C   0  0  0  0  0  3  0  0  0  0  0  0
  160.5070  211.6090  152.8330 C   0  0  0  0  0  3  0  0  0  0  0  0
  157.6440  211.5690  156.6220 O   0  0  0  0  0  1  0  0  0  0  0  0
  158.4000  210.6670  155.8730 C   0  0  0  0  0  2  0  0  0  0  0  0
  161.3840  209.9840  155.9910 C   0  0  1  0  0  3  0  0  0  0  0  0
  162.1890  208.9220  156.4050 O   0  0  0  0  0  1  0  0  0  0  0  0
  162.0860  211.3130  156.2800 C   0  0  0  0  0  2  0  0  0  0  0  0
  165.6690  211.4380  154.9410 C   0  0  0  0  0  3  0  0  0  0  0  0
  166.2780  212.0510  155.9620 C   0  0  0  0  0  0  0  0  0  0  0  0
  164.2120  212.1780  157.2550 C   0  0  0  0  0  3  0  0  0  0  0  0
  164.1690  211.3420  154.8970 C   0  0  0  0  0  2  0  0  0  0  0  0
  163.6020  211.1730  156.3100 C   0  0  2  0  0  3  0  0  0  0  0  0
  165.4860  212.5540  157.1030 C   0  0  0  0  0  3  0  0  0  0  0  0
  168.9070  212.3040  155.9670 C   0  0  0  0  0  3  0  0  0  0  0  0
  167.7070  212.1890  155.9610 C   0  0  0  0  0  0  0  0  0  0  0  0
  1  3  1  0  0  0  0
  2  4  1  0  0  0  0
  2  1  2  0  0  0  0
  3  6  1  0  0  0  0
  4  5  1  0  0  0  0
  5 23  1  6  0  0  0
  5  6  1  0  0  0  0
  7  2  1  0  0  0  0
  8  9  1  0  0  0  0
  8 10  1  0  0  0  0
  9 11  1  6  0  0  0
  9 10  1  0  0  0  0
 10  7  1  0  0  0  0
 11 18  1  6  0  0  0
 11 12  1  0  0  0  0
 12 16  1  0  0  0  0
 13 15  2  0  0  0  0
 15 14  1  0  0  0  0
 16 14  2  0  0  0  0
 17 12  2  0  0  0  0
 17 13  1  0  0  0  0
 19 18  1  1  0  0  0
 21 22  1  0  0  0  0
 21 19  1  0  0  0  0
 22 20  1  6  0  0  0
 22 19  1  0  0  0  0
 23 33  1  1  0  0  0
 24 29  1  0  0  0  0
 25 32  1  0  0  0  0
 26 30  1  0  0  0  0
 26 24  2  0  0  0  0
 27 24  1  0  0  0  0
 28 23  1  0  0  0  0
 28 25  1  0  0  0  0
 29 25  2  0  0  0  0
 30 28  2  0  0  0  0
 32 31  1  0  0  0  0
 33 35  1  0  0  0  0
 33 34  1  6  0  0  0
 36 37  2  0  0  0  0
 37 41  1  0  0  0  0
 39 36  1  0  0  0  0
 39 40  1  0  0  0  0
 40 35  1  6  0  0  0
 40 38  1  0  0  0  0
 41 38  2  0  0  0  0
 43 37  1  0  0  0  0
 43 42  3  0  0  0  0
M  END
>  <MODEL>
3

>  <REMARK>
 VINA RESULT:      -5.0      2.374      4.078
  Name = 
  13 active torsions:
  status: ('A' for Active; 'I' for Inactive)
    1  A    between atoms: C_1  and  C_8
    2  A    between atoms: C_1  and  C_35
    3  A    between atoms: C_4  and  C_14
    4  A    between atoms: C_6  and  C_17
    5  A    between atoms: C_8  and  C_30
    6  A    between atoms: C_10  and  S_41
    7  A    between atoms: C_11  and  C_14
    8  A    between atoms: N_12  and  C_17
    9  A    between atoms: C_14  and  S_41
   10  A    between atoms: C_16  and  C_43
   11  A    between atoms: C_19  and  C_37
   12  A    between atoms: C_21  and  C_30
   13  A    between atoms: C_27  and  C_30
                            x       y       z     vdW  Elec       q    Type
                         _______ _______ _______ _____ _____    ______ ____

>  <TORSDO>
F 13

$$$$
=
 OpenBabel11062410043D

 43 48  0  0  1  0  0  0  0  0999 V2000
  159.9380  208.8200  154.9230 N   0  0  0  0  0  0  0  0  0  0  0  0
  160.5560  209.4440  153.9810 C   0  0  0  0  0  0  0  0  0  0  0  0
  160.3590  207.5040  155.3500 C   0  0  0  0  0  2  0  0  0  0  0  0
  161.7360  208.8110  153.2890 C   0  0  0  0  0  2  0  0  0  0  0  0
  161.5860  207.2840  153.1440 C   0  0  1  0  0  3  0  0  0  0  0  0
  160.5930  206.6260  154.1230 C   0  0  0  0  0  2  0  0  0  0  0  0
  160.0830  210.7960  153.5580 C   0  0  0  0  0  2  0  0  0  0  0  0
  159.9200  212.0520  155.5360 C   0  0  0  0  0  2  0  0  0  0  0  0
  159.2420  212.7840  154.4720 C   0  0  1  0  0  3  0  0  0  0  0  0
  159.1370  211.3180  154.5300 N   0  0  0  0  0  0  0  0  0  0  0  0
  157.9500  213.3920  154.9920 C   0  0  2  0  0  3  0  0  0  0  0  0
  157.0040  212.3200  155.4390 C   0  0  0  0  0  0  0  0  0  0  0  0
  155.8780  211.0730  157.1940 C   0  0  0  0  0  3  0  0  0  0  0  0
  155.4550  210.5430  154.8700 C   0  0  0  0  0  3  0  0  0  0  0  0
  155.2240  210.3040  156.2280 C   0  0  0  0  0  3  0  0  0  0  0  0
  156.3410  211.5490  154.4770 C   0  0  0  0  0  3  0  0  0  0  0  0
  156.7650  212.0810  156.8010 C   0  0  0  0  0  3  0  0  0  0  0  0
  157.1930  214.4530  153.7170 S   0  0  0  0  0  0  0  0  0  0  0  0
  157.8610  213.4570  152.3560 C   0  0  1  0  0  3  0  0  0  0  0  0
  159.8350  213.3590  150.8840 C   0  0  0  0  0  1  0  0  0  0  0  0
  157.4830  214.0950  151.0370 C   0  0  0  0  0  2  0  0  0  0  0  0
  158.8750  214.2870  151.5980 C   0  0  1  0  0  3  0  0  0  0  0  0
  161.3660  206.8910  151.6770 C   0  0  1  0  0  3  0  0  0  0  0  0
  162.1990  210.2600  149.1170 C   0  0  0  0  0  0  0  0  0  0  0  0
  161.4880  207.9490  149.3300 C   0  0  0  0  0  0  0  0  0  0  0  0
  162.3580  210.3440  150.5010 C   0  0  0  0  0  3  0  0  0  0  0  0
  162.4900  211.4400  148.2620 C   0  0  0  0  0  1  0  0  0  0  0  0
  161.6450  208.0330  150.7350 C   0  0  0  0  0  0  0  0  0  0  0  0
  161.7650  209.0670  148.5350 C   0  0  0  0  0  3  0  0  0  0  0  0
  162.0820  209.2350  151.3040 C   0  0  0  0  0  3  0  0  0  0  0  0
  160.8100  206.9480  147.2970 O   0  0  0  0  0  1  0  0  0  0  0  0
  161.0270  206.6990  148.6520 C   0  0  0  0  0  2  0  0  0  0  0  0
  161.9680  205.5440  151.2280 C   0  0  1  0  0  3  0  0  0  0  0  0
  162.9530  205.1110  152.1170 O   0  0  0  0  0  1  0  0  0  0  0  0
  160.8990  204.4610  151.0660 C   0  0  0  0  0  2  0  0  0  0  0  0
  160.8200  201.0020  149.4310 C   0  0  0  0  0  3  0  0  0  0  0  0
  161.0550  201.3410  148.1580 C   0  0  0  0  0  0  0  0  0  0  0  0
  161.2430  203.7100  148.7130 C   0  0  0  0  0  3  0  0  0  0  0  0
  160.5410  202.0620  150.4600 C   0  0  0  0  0  2  0  0  0  0  0  0
  161.3600  203.3230  150.1660 C   0  0  2  0  0  3  0  0  0  0  0  0
  161.1390  202.7650  147.7740 C   0  0  0  0  0  3  0  0  0  0  0  0
  161.4380  199.4560  146.3470 C   0  0  0  0  0  3  0  0  0  0  0  0
  161.2600  200.3160  147.1730 C   0  0  0  0  0  0  0  0  0  0  0  0
  1  3  1  0  0  0  0
  2  1  2  0  0  0  0
  4  2  1  0  0  0  0
  5 23  1  6  0  0  0
  5  4  1  0  0  0  0
  5  6  1  0  0  0  0
  6  3  1  0  0  0  0
  7  2  1  0  0  0  0
  7 10  1  0  0  0  0
  9 10  1  0  0  0  0
  9 11  1  1  0  0  0
  9  8  1  0  0  0  0
 10  8  1  0  0  0  0
 11 18  1  6  0  0  0
 11 12  1  0  0  0  0
 12 17  1  0  0  0  0
 14 15  2  0  0  0  0
 15 13  1  0  0  0  0
 16 14  1  0  0  0  0
 16 12  2  0  0  0  0
 17 13  2  0  0  0  0
 19 18  1  1  0  0  0
 21 22  1  0  0  0  0
 21 19  1  0  0  0  0
 22 20  1  6  0  0  0
 22 19  1  0  0  0  0
 23 33  1  6  0  0  0
 24 26  1  0  0  0  0
 25 28  2  0  0  0  0
 26 30  2  0  0  0  0
 27 24  1  0  0  0  0
 28 30  1  0  0  0  0
 28 23  1  0  0  0  0
 29 24  2  0  0  0  0
 29 25  1  0  0  0  0
 31 32  1  0  0  0  0
 32 25  1  0  0  0  0
 33 34  1  1  0  0  0
 35 33  1  0  0  0  0
 36 39  1  0  0  0  0
 37 36  2  0  0  0  0
 38 40  1  0  0  0  0
 40 39  1  0  0  0  0
 40 35  1  1  0  0  0
 41 37  1  0  0  0  0
 41 38  2  0  0  0  0
 42 43  3  0  0  0  0
 43 37  1  0  0  0  0
M  END
>  <MODEL>
4

>  <REMARK>
 VINA RESULT:      -4.4      3.129      9.797
  Name = 
  13 active torsions:
  status: ('A' for Active; 'I' for Inactive)
    1  A    between atoms: C_1  and  C_8
    2  A    between atoms: C_1  and  C_35
    3  A    between atoms: C_4  and  C_14
    4  A    between atoms: C_6  and  C_17
    5  A    between atoms: C_8  and  C_30
    6  A    between atoms: C_10  and  S_41
    7  A    between atoms: C_11  and  C_14
    8  A    between atoms: N_12  and  C_17
    9  A    between atoms: C_14  and  S_41
   10  A    between atoms: C_16  and  C_43
   11  A    between atoms: C_19  and  C_37
   12  A    between atoms: C_21  and  C_30
   13  A    between atoms: C_27  and  C_30
                            x       y       z     vdW  Elec       q    Type
                         _______ _______ _______ _____ _____    ______ ____

>  <TORSDO>
F 13

$$$$
=
 OpenBabel11062410043D

 43 48  0  0  1  0  0  0  0  0999 V2000
  162.5910  209.7890  148.5990 N   0  0  0  0  0  0  0  0  0  0  0  0
  161.9870  210.5670  149.4280 C   0  0  0  0  0  0  0  0  0  0  0  0
  162.3010  208.3730  148.5540 C   0  0  0  0  0  2  0  0  0  0  0  0
  160.9620  210.0160  150.3860 C   0  0  0  0  0  2  0  0  0  0  0  0
  161.3120  208.5980  150.8750 C   0  0  1  0  0  3  0  0  0  0  0  0
  162.2880  207.8150  149.9740 C   0  0  0  0  0  2  0  0  0  0  0  0
  162.3250  212.0220  149.4550 C   0  0  0  0  0  2  0  0  0  0  0  0
  161.7740  214.1560  148.6430 C   0  0  0  0  0  2  0  0  0  0  0  0
  161.7820  213.2260  147.5190 C   0  0  1  0  0  3  0  0  0  0  0  0
  161.2630  212.7890  148.8250 N   0  0  0  0  0  0  0  0  0  0  0  0
  160.6100  213.5100  146.5940 C   0  0  2  0  0  3  0  0  0  0  0  0
  159.3230  213.5280  147.3600 C   0  0  0  0  0  0  0  0  0  0  0  0
  157.8940  214.4490  149.0950 C   0  0  0  0  0  3  0  0  0  0  0  0
  157.1120  212.6050  147.7350 C   0  0  0  0  0  3  0  0  0  0  0  0
  156.8990  213.5250  148.7660 C   0  0  0  0  0  3  0  0  0  0  0  0
  158.3200  212.6090  147.0330 C   0  0  0  0  0  3  0  0  0  0  0  0
  159.1030  214.4530  148.3930 C   0  0  0  0  0  3  0  0  0  0  0  0
  160.5590  212.2850  145.2440 S   0  0  0  0  0  0  0  0  0  0  0  0
  161.3530  213.4110  144.0640 C   0  0  1  0  0  3  0  0  0  0  0  0
  162.1350  213.4490  141.7280 C   0  0  0  0  0  1  0  0  0  0  0  0
  162.8470  213.1750  144.0750 C   0  0  0  0  0  2  0  0  0  0  0  0
  161.9980  212.5910  142.9670 C   0  0  1  0  0  3  0  0  0  0  0  0
  161.7100  208.6120  152.3580 C   0  0  1  0  0  3  0  0  0  0  0  0
  159.5270  211.6770  154.4660 C   0  0  0  0  0  0  0  0  0  0  0  0
  161.6210  210.5010  154.1080 C   0  0  0  0  0  0  0  0  0  0  0  0
  158.9090  210.8790  153.5020 C   0  0  0  0  0  3  0  0  0  0  0  0
  158.7480  212.7270  155.1720 C   0  0  0  0  0  1  0  0  0  0  0  0
  160.9970  209.6930  153.1270 C   0  0  0  0  0  0  0  0  0  0  0  0
  160.8780  211.4880  154.7670 C   0  0  0  0  0  3  0  0  0  0  0  0
  159.6410  209.8930  152.8380 C   0  0  0  0  0  3  0  0  0  0  0  0
  163.3050  210.9370  155.7110 O   0  0  0  0  0  1  0  0  0  0  0  0
  163.0620  210.3460  154.4710 C   0  0  0  0  0  2  0  0  0  0  0  0
  161.7390  207.2470  153.0740 C   0  0  1  0  0  3  0  0  0  0  0  0
  161.6560  207.4010  154.4590 O   0  0  0  0  0  1  0  0  0  0  0  0
  160.6260  206.3170  152.5860 C   0  0  0  0  0  2  0  0  0  0  0  0
  161.1990  202.6860  151.5210 C   0  0  0  0  0  3  0  0  0  0  0  0
  160.9620  202.7880  150.2090 C   0  0  0  0  0  0  0  0  0  0  0  0
  160.5390  205.1860  150.3650 C   0  0  0  0  0  3  0  0  0  0  0  0
  160.8910  203.8350  152.4410 C   0  0  0  0  0  2  0  0  0  0  0  0
  161.1600  205.1700  151.7390 C   0  0  2  0  0  3  0  0  0  0  0  0
  160.4870  204.0650  149.6390 C   0  0  0  0  0  3  0  0  0  0  0  0
  161.4060  200.7130  148.6350 C   0  0  0  0  0  3  0  0  0  0  0  0
  161.2040  201.6620  149.3500 C   0  0  0  0  0  0  0  0  0  0  0  0
  1  2  2  0  0  0  0
  2  7  1  0  0  0  0
  2  4  1  0  0  0  0
  3  1  1  0  0  0  0
  3  6  1  0  0  0  0
  4  5  1  0  0  0  0
  5 23  1  1  0  0  0
  6  5  1  0  0  0  0
  8 10  1  0  0  0  0
  9 11  1  6  0  0  0
  9  8  1  0  0  0  0
  9 10  1  0  0  0  0
 10  7  1  0  0  0  0
 11 18  1  6  0  0  0
 11 12  1  0  0  0  0
 12 17  1  0  0  0  0
 14 15  2  0  0  0  0
 15 13  1  0  0  0  0
 16 12  2  0  0  0  0
 16 14  1  0  0  0  0
 17 13  2  0  0  0  0
 19 21  1  0  0  0  0
 19 18  1  1  0  0  0
 22 20  1  6  0  0  0
 22 19  1  0  0  0  0
 22 21  1  0  0  0  0
 23 33  1  1  0  0  0
 23 28  1  0  0  0  0
 24 29  1  0  0  0  0
 24 27  1  0  0  0  0
 25 32  1  0  0  0  0
 25 29  2  0  0  0  0
 26 24  2  0  0  0  0
 28 25  1  0  0  0  0
 30 28  2  0  0  0  0
 30 26  1  0  0  0  0
 32 31  1  0  0  0  0
 33 34  1  1  0  0  0
 35 33  1  0  0  0  0
 36 39  1  0  0  0  0
 37 36  2  0  0  0  0
 38 40  1  0  0  0  0
 40 39  1  0  0  0  0
 40 35  1  1  0  0  0
 41 37  1  0  0  0  0
 41 38  2  0  0  0  0
 42 43  3  0  0  0  0
 43 37  1  0  0  0  0
M  END
>  <MODEL>
5

>  <REMARK>
 VINA RESULT:      -4.3      3.566      8.115
  Name = 
  13 active torsions:
  status: ('A' for Active; 'I' for Inactive)
    1  A    between atoms: C_1  and  C_8
    2  A    between atoms: C_1  and  C_35
    3  A    between atoms: C_4  and  C_14
    4  A    between atoms: C_6  and  C_17
    5  A    between atoms: C_8  and  C_30
    6  A    between atoms: C_10  and  S_41
    7  A    between atoms: C_11  and  C_14
    8  A    between atoms: N_12  and  C_17
    9  A    between atoms: C_14  and  S_41
   10  A    between atoms: C_16  and  C_43
   11  A    between atoms: C_19  and  C_37
   12  A    between atoms: C_21  and  C_30
   13  A    between atoms: C_27  and  C_30
                            x       y       z     vdW  Elec       q    Type
                         _______ _______ _______ _____ _____    ______ ____

>  <TORSDO>
F 13

$$$$
=
 OpenBabel11062410043D

 43 48  0  0  1  0  0  0  0  0999 V2000
  161.8420  208.9620  149.1810 N   0  0  0  0  0  0  0  0  0  0  0  0
  161.8000  209.4130  150.3870 C   0  0  0  0  0  0  0  0  0  0  0  0
  162.3260  209.7810  148.0930 C   0  0  0  0  0  2  0  0  0  0  0  0
  162.2470  210.8180  150.6940 C   0  0  0  0  0  2  0  0  0  0  0  0
  161.9140  211.8050  149.5590 C   0  0  1  0  0  3  0  0  0  0  0  0
  161.6820  211.1630  148.1770 C   0  0  0  0  0  2  0  0  0  0  0  0
  161.2810  208.5410  151.4830 C   0  0  0  0  0  2  0  0  0  0  0  0
  161.1310  206.3560  152.3320 C   0  0  0  0  0  2  0  0  0  0  0  0
  160.7270  206.3310  150.9310 C   0  0  1  0  0  3  0  0  0  0  0  0
  161.8330  207.2020  151.3560 N   0  0  0  0  0  0  0  0  0  0  0  0
  161.3020  205.1060  150.2390 C   0  0  2  0  0  3  0  0  0  0  0  0
  161.2770  205.2790  148.7520 C   0  0  0  0  0  0  0  0  0  0  0  0
  162.0720  204.7010  146.5300 C   0  0  0  0  0  3  0  0  0  0  0  0
  160.3580  206.3890  146.8010 C   0  0  0  0  0  3  0  0  0  0  0  0
  161.1960  205.6350  145.9730 C   0  0  0  0  0  3  0  0  0  0  0  0
  160.3980  206.2090  148.1860 C   0  0  0  0  0  3  0  0  0  0  0  0
  162.1130  204.5210  147.9160 C   0  0  0  0  0  3  0  0  0  0  0  0
  160.3920  203.6090  150.7460 S   0  0  0  0  0  0  0  0  0  0  0  0
  161.2580  202.5610  149.5440 C   0  0  1  0  0  3  0  0  0  0  0  0
  160.7810  201.1760  147.5630 C   0  0  0  0  0  1  0  0  0  0  0  0
  161.1890  201.1190  149.9970 C   0  0  0  0  0  2  0  0  0  0  0  0
  160.2570  201.6160  148.9130 C   0  0  1  0  0  3  0  0  0  0  0  0
  160.8060  212.7790  149.9850 C   0  0  1  0  0  3  0  0  0  0  0  0
  158.3110  214.0370  146.6990 C   0  0  0  0  0  0  0  0  0  0  0  0
  160.5000  214.0250  147.7510 C   0  0  0  0  0  0  0  0  0  0  0  0
  157.7980  213.2750  147.7500 C   0  0  0  0  0  3  0  0  0  0  0  0
  157.4270  214.4500  145.5790 C   0  0  0  0  0  1  0  0  0  0  0  0
  159.9820  213.2490  148.8150 C   0  0  0  0  0  0  0  0  0  0  0  0
  159.6580  214.4090  146.7000 C   0  0  0  0  0  3  0  0  0  0  0  0
  158.6300  212.8840  148.8010 C   0  0  0  0  0  3  0  0  0  0  0  0
  162.4130  214.3330  146.3940 O   0  0  0  0  0  1  0  0  0  0  0  0
  161.9310  214.4520  147.6980 C   0  0  0  0  0  2  0  0  0  0  0  0
  159.9740  212.3760  151.2190 C   0  0  1  0  0  3  0  0  0  0  0  0
  160.7960  211.9990  152.2820 O   0  0  0  0  0  1  0  0  0  0  0  0
  159.0260  213.4920  151.6630 C   0  0  0  0  0  2  0  0  0  0  0  0
  156.3270  213.3100  154.3710 C   0  0  0  0  0  3  0  0  0  0  0  0
  156.6050  212.1120  154.8960 C   0  0  0  0  0  0  0  0  0  0  0  0
  158.4890  211.7680  153.3840 C   0  0  0  0  0  3  0  0  0  0  0  0
  156.9980  213.7570  153.1010 C   0  0  0  0  0  2  0  0  0  0  0  0
  158.4380  213.2370  153.0440 C   0  0  2  0  0  3  0  0  0  0  0  0
  157.6460  211.2590  154.2870 C   0  0  0  0  0  3  0  0  0  0  0  0
  155.3380  211.3020  157.0680 C   0  0  0  0  0  3  0  0  0  0  0  0
  155.9130  211.6720  156.0750 C   0  0  0  0  0  0  0  0  0  0  0  0
  1  2  2  0  0  0  0
  2  4  1  0  0  0  0
  2  7  1  0  0  0  0
  3  6  1  0  0  0  0
  3  1  1  0  0  0  0
  5 23  1  1  0  0  0
  5  4  1  0  0  0  0
  6  5  1  0  0  0  0
  9 11  1  6  0  0  0
  9 10  1  0  0  0  0
  9  8  1  0  0  0  0
 10  7  1  0  0  0  0
 10  8  1  0  0  0  0
 11 18  1  6  0  0  0
 12 11  1  0  0  0  0
 13 17  1  0  0  0  0
 14 16  2  0  0  0  0
 15 13  2  0  0  0  0
 15 14  1  0  0  0  0
 16 12  1  0  0  0  0
 17 12  2  0  0  0  0
 19 21  1  0  0  0  0
 19 18  1  1  0  0  0
 22 20  1  6  0  0  0
 22 19  1  0  0  0  0
 22 21  1  0  0  0  0
 23 33  1  1  0  0  0
 24 29  2  0  0  0  0
 24 26  1  0  0  0  0
 25 28  2  0  0  0  0
 26 30  2  0  0  0  0
 27 24  1  0  0  0  0
 28 23  1  0  0  0  0
 29 25  1  0  0  0  0
 30 28  1  0  0  0  0
 31 32  1  0  0  0  0
 32 25  1  0  0  0  0
 33 35  1  0  0  0  0
 33 34  1  1  0  0  0
 36 37  2  0  0  0  0
 37 43  1  0  0  0  0
 38 41  2  0  0  0  0
 39 36  1  0  0  0  0
 40 35  1  6  0  0  0
 40 39  1  0  0  0  0
 40 38  1  0  0  0  0
 41 37  1  0  0  0  0
 43 42  3  0  0  0  0
M  END
>  <MODEL>
6

>  <REMARK>
 VINA RESULT:      -4.2      2.731      4.730
  Name = 
  13 active torsions:
  status: ('A' for Active; 'I' for Inactive)
    1  A    between atoms: C_1  and  C_8
    2  A    between atoms: C_1  and  C_35
    3  A    between atoms: C_4  and  C_14
    4  A    between atoms: C_6  and  C_17
    5  A    between atoms: C_8  and  C_30
    6  A    between atoms: C_10  and  S_41
    7  A    between atoms: C_11  and  C_14
    8  A    between atoms: N_12  and  C_17
    9  A    between atoms: C_14  and  S_41
   10  A    between atoms: C_16  and  C_43
   11  A    between atoms: C_19  and  C_37
   12  A    between atoms: C_21  and  C_30
   13  A    between atoms: C_27  and  C_30
                            x       y       z     vdW  Elec       q    Type
                         _______ _______ _______ _____ _____    ______ ____

>  <TORSDO>
F 13

$$$$
=
 OpenBabel11062410043D

 43 48  0  0  1  0  0  0  0  0999 V2000
  161.5170  206.6770  154.1230 N   0  0  0  0  0  0  0  0  0  0  0  0
  161.0460  207.3720  153.1460 C   0  0  0  0  0  0  0  0  0  0  0  0
  160.8250  206.6040  155.3900 C   0  0  0  0  0  2  0  0  0  0  0  0
  159.7580  208.1390  153.3040 C   0  0  0  0  0  2  0  0  0  0  0  0
  159.5790  208.7070  154.7240 C   0  0  1  0  0  3  0  0  0  0  0  0
  160.4090  208.0090  155.8200 C   0  0  0  0  0  2  0  0  0  0  0  0
  161.7960  207.4350  151.8560 C   0  0  0  0  0  2  0  0  0  0  0  0
  161.0350  205.2130  151.8960 C   0  0  0  0  0  2  0  0  0  0  0  0
  160.9950  205.6870  150.5170 C   0  0  1  0  0  3  0  0  0  0  0  0
  162.1030  206.0920  151.3950 N   0  0  0  0  0  0  0  0  0  0  0  0
  161.4850  204.6010  149.5730 C   0  0  2  0  0  3  0  0  0  0  0  0
  161.4150  205.0650  148.1510 C   0  0  0  0  0  0  0  0  0  0  0  0
  162.1180  204.9220  145.8300 C   0  0  0  0  0  3  0  0  0  0  0  0
  160.4610  206.5580  146.4940 C   0  0  0  0  0  3  0  0  0  0  0  0
  161.2490  205.9660  145.5020 C   0  0  0  0  0  3  0  0  0  0  0  0
  160.5420  206.1070  147.8150 C   0  0  0  0  0  3  0  0  0  0  0  0
  162.2000  204.4700  147.1500 C   0  0  0  0  0  3  0  0  0  0  0  0
  160.5230  203.0700  149.8170 S   0  0  0  0  0  0  0  0  0  0  0  0
  161.3340  202.2280  148.4300 C   0  0  1  0  0  3  0  0  0  0  0  0
  160.7900  201.2900  146.2170 C   0  0  0  0  0  1  0  0  0  0  0  0
  161.1730  200.7320  148.5910 C   0  0  0  0  0  2  0  0  0  0  0  0
  160.2830  201.4880  147.6300 C   0  0  1  0  0  3  0  0  0  0  0  0
  159.7100  210.2370  154.7250 C   0  0  1  0  0  3  0  0  0  0  0  0
  163.4360  211.4650  156.5170 C   0  0  0  0  0  0  0  0  0  0  0  0
  161.0090  211.4820  156.5700 C   0  0  0  0  0  0  0  0  0  0  0  0
  163.4100  210.6940  155.3540 C   0  0  0  0  0  3  0  0  0  0  0  0
  164.7360  211.8680  157.1120 C   0  0  0  0  0  1  0  0  0  0  0  0
  160.9800  210.6970  155.3920 C   0  0  0  0  0  0  0  0  0  0  0  0
  162.2390  211.8570  157.1220 C   0  0  0  0  0  3  0  0  0  0  0  0
  162.1880  210.3130  154.7960 C   0  0  0  0  0  3  0  0  0  0  0  0
  159.5330  213.2810  156.9970 O   0  0  0  0  0  1  0  0  0  0  0  0
  159.7620  211.9300  157.2610 C   0  0  0  0  0  2  0  0  0  0  0  0
  159.4030  210.9540  153.3960 C   0  0  1  0  0  3  0  0  0  0  0  0
  158.4020  211.9120  153.5580 O   0  0  0  0  0  1  0  0  0  0  0  0
  160.6500  211.6010  152.7900 C   0  0  0  0  0  2  0  0  0  0  0  0
  160.6850  213.4270  149.4270 C   0  0  0  0  0  3  0  0  0  0  0  0
  161.4240  212.5760  148.7070 C   0  0  0  0  0  0  0  0  0  0  0  0
  161.6630  211.0330  150.5820 C   0  0  0  0  0  3  0  0  0  0  0  0
  160.5560  213.2520  150.9150 C   0  0  0  0  0  2  0  0  0  0  0  0
  160.5430  211.7650  151.2800 C   0  0  2  0  0  3  0  0  0  0  0  0
  162.0420  211.4010  149.3550 C   0  0  0  0  0  3  0  0  0  0  0  0
  161.7200  212.9650  146.1110 C   0  0  0  0  0  3  0  0  0  0  0  0
  161.5880  212.7890  147.2960 C   0  0  0  0  0  0  0  0  0  0  0  0
  1  3  1  0  0  0  0
  2  4  1  0  0  0  0
  2  1  2  0  0  0  0
  3  6  1  0  0  0  0
  4  5  1  0  0  0  0
  5 23  1  6  0  0  0
  5  6  1  0  0  0  0
  7  2  1  0  0  0  0
  9 11  1  6  0  0  0
  9 10  1  0  0  0  0
  9  8  1  0  0  0  0
 10  7  1  0  0  0  0
 10  8  1  0  0  0  0
 11 18  1  6  0  0  0
 12 11  1  0  0  0  0
 13 17  1  0  0  0  0
 14 16  2  0  0  0  0
 15 13  2  0  0  0  0
 15 14  1  0  0  0  0
 16 12  1  0  0  0  0
 17 12  2  0  0  0  0
 19 21  1  0  0  0  0
 19 18  1  1  0  0  0
 22 20  1  6  0  0  0
 22 19  1  0  0  0  0
 22 21  1  0  0  0  0
 23 33  1  6  0  0  0
 23 28  1  0  0  0  0
 24 27  1  0  0  0  0
 24 29  1  0  0  0  0
 25 29  2  0  0  0  0
 25 32  1  0  0  0  0
 26 24  2  0  0  0  0
 28 25  1  0  0  0  0
 30 26  1  0  0  0  0
 30 28  2  0  0  0  0
 31 32  1  0  0  0  0
 33 34  1  1  0  0  0
 35 33  1  0  0  0  0
 36 39  1  0  0  0  0
 37 41  1  0  0  0  0
 37 36  2  0  0  0  0
 38 40  1  0  0  0  0
 39 40  1  0  0  0  0
 40 35  1  1  0  0  0
 41 38  2  0  0  0  0
 42 43  3  0  0  0  0
 43 37  1  0  0  0  0
M  END
>  <MODEL>
7

>  <REMARK>
 VINA RESULT:      -4.0      2.342      5.388
  Name = 
  13 active torsions:
  status: ('A' for Active; 'I' for Inactive)
    1  A    between atoms: C_1  and  C_8
    2  A    between atoms: C_1  and  C_35
    3  A    between atoms: C_4  and  C_14
    4  A    between atoms: C_6  and  C_17
    5  A    between atoms: C_8  and  C_30
    6  A    between atoms: C_10  and  S_41
    7  A    between atoms: C_11  and  C_14
    8  A    between atoms: N_12  and  C_17
    9  A    between atoms: C_14  and  S_41
   10  A    between atoms: C_16  and  C_43
   11  A    between atoms: C_19  and  C_37
   12  A    between atoms: C_21  and  C_30
   13  A    between atoms: C_27  and  C_30
                            x       y       z     vdW  Elec       q    Type
                         _______ _______ _______ _____ _____    ______ ____

>  <TORSDO>
F 13

$$$$
=
 OpenBabel11062410043D

 43 48  0  0  1  0  0  0  0  0999 V2000
  161.5470  208.3600  147.7780 N   0  0  0  0  0  0  0  0  0  0  0  0
  161.5860  209.1650  148.7830 C   0  0  0  0  0  0  0  0  0  0  0  0
  160.8590  207.0910  147.8630 C   0  0  0  0  0  2  0  0  0  0  0  0
  160.9210  208.7970  150.0840 C   0  0  0  0  0  2  0  0  0  0  0  0
  161.0040  207.2890  150.3850 C   0  0  1  0  0  3  0  0  0  0  0  0
  161.2560  206.3880  149.1590 C   0  0  0  0  0  2  0  0  0  0  0  0
  162.3180  210.4610  148.6610 C   0  0  0  0  0  2  0  0  0  0  0  0
  161.9360  212.7550  148.9910 C   0  0  0  0  0  2  0  0  0  0  0  0
  162.1010  212.5190  147.5610 C   0  0  1  0  0  3  0  0  0  0  0  0
  161.3800  211.5360  148.3840 N   0  0  0  0  0  0  0  0  0  0  0  0
  161.0910  213.3370  146.7730 C   0  0  2  0  0  3  0  0  0  0  0  0
  159.8180  213.4930  147.5460 C   0  0  0  0  0  0  0  0  0  0  0  0
  158.5500  214.4520  149.3840 C   0  0  0  0  0  3  0  0  0  0  0  0
  157.4760  212.9330  147.8340 C   0  0  0  0  0  3  0  0  0  0  0  0
  157.4140  213.7560  148.9620 C   0  0  0  0  0  3  0  0  0  0  0  0
  158.6750  212.8040  147.1270 C   0  0  0  0  0  3  0  0  0  0  0  0
  159.7500  214.3230  148.6770 C   0  0  0  0  0  3  0  0  0  0  0  0
  160.7870  212.5690  145.1470 S   0  0  0  0  0  0  0  0  0  0  0  0
  161.8230  213.7780  144.2760 C   0  0  1  0  0  3  0  0  0  0  0  0
  162.8650  214.1260  142.0710 C   0  0  0  0  0  1  0  0  0  0  0  0
  163.2740  213.3610  144.3820 C   0  0  0  0  0  2  0  0  0  0  0  0
  162.5000  213.0880  143.1110 C   0  0  1  0  0  3  0  0  0  0  0  0
  161.9500  207.0140  151.5620 C   0  0  1  0  0  3  0  0  0  0  0  0
  160.3150  208.3420  155.3260 C   0  0  0  0  0  0  0  0  0  0  0  0
  161.4660  208.8910  153.2600 C   0  0  0  0  0  0  0  0  0  0  0  0
  160.2520  207.0020  154.9400 C   0  0  0  0  0  3  0  0  0  0  0  0
  159.7380  208.7680  156.6270 C   0  0  0  0  0  1  0  0  0  0  0  0
  161.4000  207.5340  152.8650 C   0  0  0  0  0  0  0  0  0  0  0  0
  160.9200  209.2820  154.4890 C   0  0  0  0  0  3  0  0  0  0  0  0
  160.7910  206.6020  153.7160 C   0  0  0  0  0  3  0  0  0  0  0  0
  161.2460  211.0380  152.2920 O   0  0  0  0  0  1  0  0  0  0  0  0
  162.1000  209.9410  152.4060 C   0  0  0  0  0  2  0  0  0  0  0  0
  162.5420  205.5940  151.6520 C   0  0  1  0  0  3  0  0  0  0  0  0
  163.3220  205.4430  152.8000 O   0  0  0  0  0  1  0  0  0  0  0  0
  161.4570  204.5150  151.6150 C   0  0  0  0  0  2  0  0  0  0  0  0
  161.1330  201.1090  149.9000 C   0  0  0  0  0  3  0  0  0  0  0  0
  161.1580  201.4900  148.6180 C   0  0  0  0  0  0  0  0  0  0  0  0
  161.4200  203.8420  149.2130 C   0  0  0  0  0  3  0  0  0  0  0  0
  161.0190  202.1330  150.9950 C   0  0  0  0  0  2  0  0  0  0  0  0
  161.7720  203.4110  150.6150 C   0  0  2  0  0  3  0  0  0  0  0  0
  161.1710  202.9260  148.2720 C   0  0  0  0  0  3  0  0  0  0  0  0
  161.2470  199.6720  146.7030 C   0  0  0  0  0  3  0  0  0  0  0  0
  161.2060  200.5000  147.5790 C   0  0  0  0  0  0  0  0  0  0  0  0
  1  3  1  0  0  0  0
  1  2  2  0  0  0  0
  2  4  1  0  0  0  0
  3  6  1  0  0  0  0
  4  5  1  0  0  0  0
  5 23  1  1  0  0  0
  6  5  1  0  0  0  0
  7  2  1  0  0  0  0
  9 11  1  6  0  0  0
  9 10  1  0  0  0  0
  9  8  1  0  0  0  0
 10  7  1  0  0  0  0
 10  8  1  0  0  0  0
 11 18  1  6  0  0  0
 11 12  1  0  0  0  0
 12 17  1  0  0  0  0
 14 15  2  0  0  0  0
 15 13  1  0  0  0  0
 16 12  2  0  0  0  0
 16 14  1  0  0  0  0
 17 13  2  0  0  0  0
 19 21  1  0  0  0  0
 19 18  1  1  0  0  0
 22 20  1  6  0  0  0
 22 19  1  0  0  0  0
 22 21  1  0  0  0  0
 23 33  1  1  0  0  0
 23 28  1  0  0  0  0
 24 27  1  0  0  0  0
 25 29  1  0  0  0  0
 26 24  1  0  0  0  0
 28 25  2  0  0  0  0
 28 30  1  0  0  0  0
 29 24  2  0  0  0  0
 30 26  2  0  0  0  0
 31 32  1  0  0  0  0
 32 25  1  0  0  0  0
 33 34  1  1  0  0  0
 35 33  1  0  0  0  0
 36 39  1  0  0  0  0
 37 36  2  0  0  0  0
 38 40  1  0  0  0  0
 40 39  1  0  0  0  0
 40 35  1  1  0  0  0
 41 37  1  0  0  0  0
 41 38  2  0  0  0  0
 42 43  3  0  0  0  0
 43 37  1  0  0  0  0
M  END
>  <MODEL>
8

>  <REMARK>
 VINA RESULT:      -3.9      3.537      8.885
  Name = 
  13 active torsions:
  status: ('A' for Active; 'I' for Inactive)
    1  A    between atoms: C_1  and  C_8
    2  A    between atoms: C_1  and  C_35
    3  A    between atoms: C_4  and  C_14
    4  A    between atoms: C_6  and  C_17
    5  A    between atoms: C_8  and  C_30
    6  A    between atoms: C_10  and  S_41
    7  A    between atoms: C_11  and  C_14
    8  A    between atoms: N_12  and  C_17
    9  A    between atoms: C_14  and  S_41
   10  A    between atoms: C_16  and  C_43
   11  A    between atoms: C_19  and  C_37
   12  A    between atoms: C_21  and  C_30
   13  A    between atoms: C_27  and  C_30
                            x       y       z     vdW  Elec       q    Type
                         _______ _______ _______ _____ _____    ______ ____

>  <TORSDO>
F 13

$$$$
=
 OpenBabel11062410043D

 43 48  0  0  1  0  0  0  0  0999 V2000
  162.6250  211.1390  149.8050 N   0  0  0  0  0  0  0  0  0  0  0  0
  162.0420  210.2730  149.0500 C   0  0  0  0  0  0  0  0  0  0  0  0
  163.4320  210.7280  150.9310 C   0  0  0  0  0  2  0  0  0  0  0  0
  162.1810  208.7990  149.3300 C   0  0  0  0  0  2  0  0  0  0  0  0
  162.2520  208.4880  150.8370 C   0  0  1  0  0  3  0  0  0  0  0  0
  162.6790  209.6690  151.7320 C   0  0  0  0  0  2  0  0  0  0  0  0
  161.2040  210.7370  147.9040 C   0  0  0  0  0  2  0  0  0  0  0  0
  161.8040  212.7120  146.7820 C   0  0  0  0  0  2  0  0  0  0  0  0
  160.3540  212.5700  146.7160 C   0  0  1  0  0  3  0  0  0  0  0  0
  161.0700  212.1840  147.9420 N   0  0  0  0  0  0  0  0  0  0  0  0
  159.6830  213.9150  146.9400 C   0  0  2  0  0  3  0  0  0  0  0  0
  158.8620  213.8940  148.1930 C   0  0  0  0  0  0  0  0  0  0  0  0
  156.8300  213.3220  149.3950 C   0  0  0  0  0  3  0  0  0  0  0  0
  158.6440  214.4360  150.5470 C   0  0  0  0  0  3  0  0  0  0  0  0
  157.3630  213.8760  150.5610 C   0  0  0  0  0  3  0  0  0  0  0  0
  159.3920  214.4420  149.3660 C   0  0  0  0  0  3  0  0  0  0  0  0
  157.5770  213.3280  148.2130 C   0  0  0  0  0  3  0  0  0  0  0  0
  158.6690  214.3650  145.4930 S   0  0  0  0  0  0  0  0  0  0  0  0
  159.9840  213.9350  144.3190 C   0  0  1  0  0  3  0  0  0  0  0  0
  160.7010  214.4520  142.0200 C   0  0  0  0  0  1  0  0  0  0  0  0
  159.5090  212.8100  143.4250 C   0  0  0  0  0  2  0  0  0  0  0  0
  159.5010  214.2350  142.9160 C   0  0  1  0  0  3  0  0  0  0  0  0
  160.9770  207.7770  151.3130 C   0  0  1  0  0  3  0  0  0  0  0  0
  161.1800  203.5040  150.7630 C   0  0  0  0  0  0  0  0  0  0  0  0
  160.7480  205.6950  149.8110 C   0  0  0  0  0  0  0  0  0  0  0  0
  161.4540  204.0900  152.0000 C   0  0  0  0  0  3  0  0  0  0  0  0
  161.2640  202.0290  150.6050 C   0  0  0  0  0  1  0  0  0  0  0  0
  161.0290  206.2920  151.0640 C   0  0  0  0  0  0  0  0  0  0  0  0
  160.8290  204.3040  149.6740 C   0  0  0  0  0  3  0  0  0  0  0  0
  161.3780  205.4760  152.1470 C   0  0  0  0  0  3  0  0  0  0  0  0
  160.8470  205.8830  147.4550 O   0  0  0  0  0  1  0  0  0  0  0  0
  160.3680  206.5000  148.6110 C   0  0  0  0  0  2  0  0  0  0  0  0
  160.4560  208.1620  152.7120 C   0  0  1  0  0  3  0  0  0  0  0  0
  160.4710  207.0650  153.5750 O   0  0  0  0  0  1  0  0  0  0  0  0
  161.2510  209.3170  153.3240 C   0  0  0  0  0  2  0  0  0  0  0  0
  158.2850  211.7360  153.3220 C   0  0  0  0  0  3  0  0  0  0  0  0
  157.8810  211.6100  154.5910 C   0  0  0  0  0  0  0  0  0  0  0  0
  159.6640  210.0280  155.1120 C   0  0  0  0  0  3  0  0  0  0  0  0
  159.3220  210.8040  152.7580 C   0  0  0  0  0  2  0  0  0  0  0  0
  160.3500  210.4350  153.8320 C   0  0  2  0  0  3  0  0  0  0  0  0
  158.5210  210.6170  155.4770 C   0  0  0  0  0  3  0  0  0  0  0  0
  155.9800  213.1850  155.5310 C   0  0  0  0  0  3  0  0  0  0  0  0
  156.8470  212.4670  155.0990 C   0  0  0  0  0  0  0  0  0  0  0  0
  1  3  1  0  0  0  0
  2  4  1  0  0  0  0
  2  1  2  0  0  0  0
  3  6  1  0  0  0  0
  4  5  1  0  0  0  0
  5 23  1  1  0  0  0
  5  6  1  0  0  0  0
  7 10  1  0  0  0  0
  7  2  1  0  0  0  0
  8 10  1  0  0  0  0
  9  8  1  0  0  0  0
  9 11  1  1  0  0  0
  9 10  1  0  0  0  0
 11 18  1  6  0  0  0
 11 12  1  0  0  0  0
 12 17  2  0  0  0  0
 12 16  1  0  0  0  0
 13 15  2  0  0  0  0
 14 15  1  0  0  0  0
 16 14  2  0  0  0  0
 17 13  1  0  0  0  0
 19 18  1  1  0  0  0
 21 19  1  0  0  0  0
 22 20  1  6  0  0  0
 22 21  1  0  0  0  0
 22 19  1  0  0  0  0
 23 33  1  1  0  0  0
 24 26  1  0  0  0  0
 25 28  2  0  0  0  0
 26 30  2  0  0  0  0
 27 24  1  0  0  0  0
 28 23  1  0  0  0  0
 28 30  1  0  0  0  0
 29 25  1  0  0  0  0
 29 24  2  0  0  0  0
 31 32  1  0  0  0  0
 32 25  1  0  0  0  0
 33 35  1  0  0  0  0
 33 34  1  1  0  0  0
 36 37  2  0  0  0  0
 37 43  1  0  0  0  0
 37 41  1  0  0  0  0
 38 41  2  0  0  0  0
 39 36  1  0  0  0  0
 39 40  1  0  0  0  0
 40 35  1  6  0  0  0
 40 38  1  0  0  0  0
 43 42  3  0  0  0  0
M  END
>  <MODEL>
9

>  <REMARK>
 VINA RESULT:      -3.6      3.879      7.307
  Name = 
  13 active torsions:
  status: ('A' for Active; 'I' for Inactive)
    1  A    between atoms: C_1  and  C_8
    2  A    between atoms: C_1  and  C_35
    3  A    between atoms: C_4  and  C_14
    4  A    between atoms: C_6  and  C_17
    5  A    between atoms: C_8  and  C_30
    6  A    between atoms: C_10  and  S_41
    7  A    between atoms: C_11  and  C_14
    8  A    between atoms: N_12  and  C_17
    9  A    between atoms: C_14  and  S_41
   10  A    between atoms: C_16  and  C_43
   11  A    between atoms: C_19  and  C_37
   12  A    between atoms: C_21  and  C_30
   13  A    between atoms: C_27  and  C_30
                            x       y       z     vdW  Elec       q    Type
                         _______ _______ _______ _____ _____    ______ ____

>  <TORSDO>
F 13

$$$$
