=
 OpenBabel11062409103D

 37 42  0  0  1  0  0  0  0  0999 V2000
  160.9010  214.3510  150.5740 C   0  0  0  0  0  2  0  0  0  0  0  0
  160.6780  209.6670  150.6650 C   0  0  1  0  0  3  0  0  0  0  0  0
  160.4620  207.6480  153.8010 O   0  0  0  0  0  0  0  0  0  0  0  0
  160.7770  212.1440  149.7580 C   0  0  2  0  0  3  0  0  0  0  0  0
  160.9530  209.3660  152.1210 C   0  0  2  0  0  3  0  0  0  0  0  0
  160.0750  211.0820  150.6500 C   0  0  2  0  0  3  0  0  0  0  0  0
  160.8390  207.8750  152.4540 C   0  0  1  0  0  3  0  0  0  0  0  0
  161.5800  211.6190  148.5550 C   0  0  0  0  0  2  0  0  0  0  0  0
  159.9430  211.5070  152.1160 C   0  0  1  0  0  3  0  0  0  0  0  0
  158.7060  213.6560  151.5740 C   0  0  0  0  0  2  0  0  0  0  0  0
  162.3360  208.0570  149.7110 C   0  0  0  0  0  2  0  0  0  0  0  0
  161.6730  210.0990  148.4610 C   0  0  0  0  0  2  0  0  0  0  0  0
  158.6960  212.3460  152.3630 C   0  0  0  0  0  2  0  0  0  0  0  0
  161.4500  208.1470  154.6850 C   0  0  0  0  0  2  0  0  0  0  0  0
  161.9440  209.5220  149.8330 C   0  0  1  0  0  3  0  0  0  0  0  0
  159.9470  210.2090  152.8990 C   0  0  2  0  0  3  0  0  0  0  0  0
  161.5950  213.0680  150.5370 N   0  0  0  0  0  2  0  0  0  0  0  0
  162.0420  207.0020  152.0330 C   0  0  2  0  0  3  0  0  0  0  0  0
  159.9880  214.4530  151.7930 C   0  0  0  0  0  2  0  0  0  0  0  0
  161.5150  209.6950  154.7360 C   0  0  1  0  0  3  0  0  0  0  0  0
  160.2800  210.4120  154.3280 N   0  0  0  0  0  0  0  0  0  0  0  0
  163.0130  207.5900  150.9960 C   0  0  0  0  0  2  0  0  0  0  0  0
  161.2340  204.7360  152.7090 C   0  0  0  0  0  3  0  0  0  0  0  0
  161.6200  205.6080  151.6870 C   0  0  0  0  0  0  0  0  0  0  0  0
  161.6130  205.1650  150.3560 C   0  0  0  0  0  3  0  0  0  0  0  0
  161.2110  203.3110  148.3920 Cl  0  0  0  0  0  0  0  0  0  0  0  0
  160.8320  202.9910  151.0790 C   0  0  0  0  0  3  0  0  0  0  0  0
  161.2180  203.8590  150.0540 C   0  0  0  0  0  0  0  0  0  0  0  0
  160.8390  203.4290  152.4070 C   0  0  0  0  0  3  0  0  0  0  0  0
  162.2060  209.1950  156.9790 O   0  0  0  0  0  1  0  0  0  0  0  0
  162.1340  210.2190  156.0330 C   0  0  1  0  0  3  0  0  0  0  0  0
  163.4050  210.7510  155.8090 O   0  0  0  0  0  0  0  0  0  0  0  0
  163.7380  211.3960  157.0000 C   0  0  0  0  0  1  0  0  0  0  0  0
  159.1450  209.9300  155.1220 C   0  0  0  0  0  2  0  0  0  0  0  0
  158.4610  211.0470  155.9080 C   0  0  2  0  0  3  0  0  0  0  0  0
  157.0210  211.2160  155.4740 C   0  0  0  0  0  1  0  0  0  0  0  0
  159.1440  212.2590  155.7880 O   0  0  0  0  0  1  0  0  0  0  0  0
  1 19  1  0  0  0  0
  2  5  1  0  0  0  0
  3 14  1  0  0  0  0
  4 17  1  0  0  0  0
  4  6  1  0  0  0  0
  5  7  1  0  0  0  0
  5 16  1  0  0  0  0
  6  2  1  0  0  0  0
  6  9  1  0  0  0  0
  7  3  1  0  0  0  0
  8  4  1  0  0  0  0
  9 13  1  0  0  0  0
  9 16  1  0  0  0  0
 10 19  1  0  0  0  0
 10 13  1  0  0  0  0
 11 15  1  0  0  0  0
 11 22  1  0  0  0  0
 12  8  1  0  0  0  0
 12 15  1  0  0  0  0
 14 20  1  0  0  0  0
 15  2  1  0  0  0  0
 16 21  1  0  0  0  0
 17  1  1  0  0  0  0
 18  7  1  0  0  0  0
 20 31  1  0  0  0  0
 21 20  1  0  0  0  0
 21 34  1  0  0  0  0
 22 18  1  0  0  0  0
 24 18  1  0  0  0  0
 24 23  2  0  0  0  0
 25 24  1  0  0  0  0
 26 28  1  0  0  0  0
 27 29  2  0  0  0  0
 28 25  2  0  0  0  0
 28 27  1  0  0  0  0
 29 23  1  0  0  0  0
 31 30  1  0  0  0  0
 32 31  1  0  0  0  0
 32 33  1  0  0  0  0
 34 35  1  0  0  0  0
 36 35  1  0  0  0  0
 37 35  1  0  0  0  0
M  END
>  <MODEL>
1

>  <REMARK>
 VINA RESULT:      -2.3      0.000      0.000
  Name = 
  5 active torsions:
  status: ('A' for Active; 'I' for Inactive)
    1  A    between atoms: C_1  and  C_5
    2  A    between atoms: C_1  and  N_36
    3  A    between atoms: C_6  and  C_31
    4  A    between atoms: O_11  and  C_26
    5  A    between atoms: C_26  and  C_33
                            x       y       z     vdW  Elec       q    Type
                         _______ _______ _______ _____ _____    ______ ____

>  <TORSDO>
F 5

$$$$
=
 OpenBabel11062409103D

 37 42  0  0  1  0  0  0  0  0999 V2000
  157.3200  213.6710  148.0510 C   0  0  0  0  0  2  0  0  0  0  0  0
  159.7550  212.4130  151.8580 C   0  0  1  0  0  3  0  0  0  0  0  0
  162.6420  210.0440  151.8010 O   0  0  0  0  0  0  0  0  0  0  0  0
  157.9930  213.6230  150.3080 C   0  0  2  0  0  3  0  0  0  0  0  0
  160.5400  211.2250  151.3520 C   0  0  2  0  0  3  0  0  0  0  0  0
  159.4760  213.2740  150.6140 C   0  0  2  0  0  3  0  0  0  0  0  0
  161.5160  210.6680  152.3930 C   0  0  1  0  0  3  0  0  0  0  0  0
  157.0210  213.6280  151.5020 C   0  0  0  0  0  2  0  0  0  0  0  0
  160.1950  212.5880  149.4480 C   0  0  1  0  0  3  0  0  0  0  0  0
  159.6930  214.4530  147.8000 C   0  0  0  0  0  2  0  0  0  0  0  0
  158.8680  211.3240  153.9260 C   0  0  0  0  0  2  0  0  0  0  0  0
  157.6290  213.1750  152.8260 C   0  0  0  0  0  2  0  0  0  0  0  0
  160.7710  213.5900  148.4570 C   0  0  0  0  0  2  0  0  0  0  0  0
  162.2440  208.9210  151.0340 C   0  0  0  0  0  2  0  0  0  0  0  0
  158.5010  211.9610  152.5940 C   0  0  1  0  0  3  0  0  0  0  0  0
  161.2550  211.7240  150.0990 C   0  0  2  0  0  3  0  0  0  0  0  0
  157.4460  212.8130  149.2250 N   0  0  0  0  0  2  0  0  0  0  0  0
  160.8870  209.7960  153.5020 C   0  0  2  0  0  3  0  0  0  0  0  0
  158.5770  213.6130  147.1860 C   0  0  0  0  0  2  0  0  0  0  0  0
  161.4910  209.2930  149.7310 C   0  0  1  0  0  3  0  0  0  0  0  0
  161.7460  210.6560  149.1980 N   0  0  0  0  0  0  0  0  0  0  0  0
  159.3660  209.8990  153.7030 C   0  0  0  0  0  2  0  0  0  0  0  0
  161.1760  209.2210  155.9160 C   0  0  0  0  0  3  0  0  0  0  0  0
  161.6370  209.9120  154.7910 C   0  0  0  0  0  0  0  0  0  0  0  0
  162.7890  210.7060  154.8880 C   0  0  0  0  0  3  0  0  0  0  0  0
  164.9110  211.7950  156.2180 Cl  0  0  0  0  0  0  0  0  0  0  0  0
  163.0100  210.1100  157.2240 C   0  0  0  0  0  3  0  0  0  0  0  0
  163.4740  210.8030  156.1020 C   0  0  0  0  0  0  0  0  0  0  0  0
  161.8610  209.3190  157.1310 C   0  0  0  0  0  3  0  0  0  0  0  0
  162.8380  207.6260  148.6530 O   0  0  0  0  0  1  0  0  0  0  0  0
  161.5630  208.1920  148.6710 C   0  0  1  0  0  3  0  0  0  0  0  0
  160.6050  207.2030  148.9050 O   0  0  0  0  0  0  0  0  0  0  0  0
  161.0200  206.1160  148.1350 C   0  0  0  0  0  1  0  0  0  0  0  0
  163.1880  210.8530  149.0190 C   0  0  0  0  0  2  0  0  0  0  0  0
  163.5250  212.2060  148.3950 C   0  0  2  0  0  3  0  0  0  0  0  0
  163.2210  212.2140  146.9130 C   0  0  0  0  0  1  0  0  0  0  0  0
  164.8570  212.5610  148.6150 O   0  0  0  0  0  1  0  0  0  0  0  0
  1 17  1  0  0  0  0
  2 15  1  0  0  0  0
  3  7  1  0  0  0  0
  4  6  1  0  0  0  0
  4  8  1  0  0  0  0
  5  2  1  0  0  0  0
  5  7  1  0  0  0  0
  6  2  1  0  0  0  0
  7 18  1  0  0  0  0
  8 12  1  0  0  0  0
  9 16  1  0  0  0  0
  9  6  1  0  0  0  0
 10 13  1  0  0  0  0
 13  9  1  0  0  0  0
 14  3  1  0  0  0  0
 15 12  1  0  0  0  0
 15 11  1  0  0  0  0
 16  5  1  0  0  0  0
 17  4  1  0  0  0  0
 18 22  1  0  0  0  0
 18 24  1  0  0  0  0
 19 10  1  0  0  0  0
 19  1  1  0  0  0  0
 20 14  1  0  0  0  0
 21 20  1  0  0  0  0
 21 16  1  0  0  0  0
 22 11  1  0  0  0  0
 23 29  1  0  0  0  0
 24 25  1  0  0  0  0
 24 23  2  0  0  0  0
 25 28  2  0  0  0  0
 28 26  1  0  0  0  0
 28 27  1  0  0  0  0
 29 27  2  0  0  0  0
 30 31  1  0  0  0  0
 31 32  1  0  0  0  0
 31 20  1  0  0  0  0
 33 32  1  0  0  0  0
 34 21  1  0  0  0  0
 35 37  1  0  0  0  0
 35 34  1  0  0  0  0
 36 35  1  0  0  0  0
M  END
>  <MODEL>
2

>  <REMARK>
 VINA RESULT:      -1.1      3.367      6.511
  Name = 
  5 active torsions:
  status: ('A' for Active; 'I' for Inactive)
    1  A    between atoms: C_1  and  C_5
    2  A    between atoms: C_1  and  N_36
    3  A    between atoms: C_6  and  C_31
    4  A    between atoms: O_11  and  C_26
    5  A    between atoms: C_26  and  C_33
                            x       y       z     vdW  Elec       q    Type
                         _______ _______ _______ _____ _____    ______ ____

>  <TORSDO>
F 5

$$$$
=
 OpenBabel11062409103D

 37 42  0  0  1  0  0  0  0  0999 V2000
  160.6800  206.5870  154.6940 C   0  0  0  0  0  2  0  0  0  0  0  0
  161.9450  209.8020  151.5210 C   0  0  1  0  0  3  0  0  0  0  0  0
  160.4120  213.1990  151.2650 O   0  0  0  0  0  0  0  0  0  0  0  0
  161.8870  207.5650  152.9240 C   0  0  2  0  0  3  0  0  0  0  0  0
  160.8210  210.8070  151.6260 C   0  0  2  0  0  3  0  0  0  0  0  0
  162.0040  209.1150  152.8970 C   0  0  2  0  0  3  0  0  0  0  0  0
  161.0410  212.0410  150.7440 C   0  0  1  0  0  3  0  0  0  0  0  0
  162.3200  206.8150  151.6510 C   0  0  0  0  0  2  0  0  0  0  0  0
  160.9630  209.8210  153.7720 C   0  0  1  0  0  3  0  0  0  0  0  0
  161.6300  208.5820  155.8860 C   0  0  0  0  0  2  0  0  0  0  0  0
  161.9030  209.5660  149.0330 C   0  0  0  0  0  2  0  0  0  0  0  0
  162.7050  207.7110  150.4790 C   0  0  0  0  0  2  0  0  0  0  0  0
  161.4170  209.9430  155.2210 C   0  0  0  0  0  2  0  0  0  0  0  0
  159.0070  213.0250  151.3090 C   0  0  0  0  0  2  0  0  0  0  0  0
  161.7120  208.8460  150.3600 C   0  0  1  0  0  3  0  0  0  0  0  0
  160.7410  211.1640  153.1070 C   0  0  2  0  0  3  0  0  0  0  0  0
  160.5630  207.1170  153.3400 N   0  0  0  0  0  2  0  0  0  0  0  0
  160.7470  211.8490  149.2400 C   0  0  2  0  0  3  0  0  0  0  0  0
  160.4160  207.6700  155.7380 C   0  0  0  0  0  2  0  0  0  0  0  0
  158.5380  212.0170  152.3900 C   0  0  1  0  0  3  0  0  0  0  0  0
  159.4700  211.7990  153.5250 N   0  0  0  0  0  0  0  0  0  0  0  0
  160.6710  210.4060  148.7140 C   0  0  0  0  0  2  0  0  0  0  0  0
  162.4800  213.6330  149.0030 C   0  0  0  0  0  3  0  0  0  0  0  0
  161.6230  212.7150  148.3890 C   0  0  0  0  0  0  0  0  0  0  0  0
  161.5900  212.6230  146.9900 C   0  0  0  0  0  3  0  0  0  0  0  0
  162.3710  213.3240  144.4690 Cl  0  0  0  0  0  0  0  0  0  0  0  0
  163.2710  214.3580  146.8320 C   0  0  0  0  0  3  0  0  0  0  0  0
  162.4150  213.4430  146.2140 C   0  0  0  0  0  0  0  0  0  0  0  0
  163.3050  214.4530  148.2260 C   0  0  0  0  0  3  0  0  0  0  0  0
  156.7830  211.4480  153.9250 O   0  0  0  0  0  1  0  0  0  0  0  0
  157.0860  212.2410  152.8180 C   0  0  1  0  0  3  0  0  0  0  0  0
  156.8480  213.5850  153.1150 O   0  0  0  0  0  0  0  0  0  0  0  0
  155.7420  213.5720  153.9640 C   0  0  0  0  0  1  0  0  0  0  0  0
  159.8000  213.0860  154.1470 C   0  0  0  0  0  2  0  0  0  0  0  0
  159.8520  213.0070  155.6710 C   0  0  2  0  0  3  0  0  0  0  0  0
  158.6480  212.2750  156.2210 C   0  0  0  0  0  1  0  0  0  0  0  0
  159.9520  214.2730  156.2520 O   0  0  0  0  0  1  0  0  0  0  0  0
  1 19  1  0  0  0  0
  2  5  1  0  0  0  0
  2  6  1  0  0  0  0
  3 14  1  0  0  0  0
  4 17  1  0  0  0  0
  5 16  1  0  0  0  0
  6  4  1  0  0  0  0
  6  9  1  0  0  0  0
  7  3  1  0  0  0  0
  7  5  1  0  0  0  0
  8  4  1  0  0  0  0
  9 13  1  0  0  0  0
 11 15  1  0  0  0  0
 12  8  1  0  0  0  0
 13 10  1  0  0  0  0
 14 20  1  0  0  0  0
 15 12  1  0  0  0  0
 15  2  1  0  0  0  0
 16 21  1  0  0  0  0
 16  9  1  0  0  0  0
 17  1  1  0  0  0  0
 18  7  1  0  0  0  0
 19 10  1  0  0  0  0
 20 31  1  0  0  0  0
 20 21  1  0  0  0  0
 21 34  1  0  0  0  0
 22 11  1  0  0  0  0
 22 18  1  0  0  0  0
 24 23  1  0  0  0  0
 24 18  1  0  0  0  0
 25 24  2  0  0  0  0
 26 28  1  0  0  0  0
 27 29  1  0  0  0  0
 28 27  2  0  0  0  0
 28 25  1  0  0  0  0
 29 23  2  0  0  0  0
 31 32  1  0  0  0  0
 31 30  1  0  0  0  0
 32 33  1  0  0  0  0
 34 35  1  0  0  0  0
 35 36  1  0  0  0  0
 35 37  1  0  0  0  0
M  END
>  <MODEL>
3

>  <REMARK>
 VINA RESULT:      -0.4      2.985      6.428
  Name = 
  5 active torsions:
  status: ('A' for Active; 'I' for Inactive)
    1  A    between atoms: C_1  and  C_5
    2  A    between atoms: C_1  and  N_36
    3  A    between atoms: C_6  and  C_31
    4  A    between atoms: O_11  and  C_26
    5  A    between atoms: C_26  and  C_33
                            x       y       z     vdW  Elec       q    Type
                         _______ _______ _______ _____ _____    ______ ____

>  <TORSDO>
F 5

$$$$
