=
 OpenBabel11062409123D

 37 42  0  0  1  0  0  0  0  0999 V2000
  159.5780  210.6010  155.2160 C   0  0  2  0  0  0  0  0  0  0  0  0
  162.1280  209.8760  152.0130 C   0  0  0  0  0  2  0  0  0  0  0  0
  161.4250  210.6570  156.9470 C   0  0  2  0  0  3  0  0  0  0  0  0
  159.7740  210.2770  153.7500 C   0  0  1  0  0  3  0  0  0  0  0  0
  160.4460  209.7620  156.1310 C   0  0  2  0  0  3  0  0  0  0  0  0
  160.4950  211.3670  153.0710 N   0  0  0  0  0  0  0  0  0  0  0  0
  160.8820  212.0860  157.1310 C   0  0  0  0  0  2  0  0  0  0  0  0
  161.1160  208.7310  155.2150 C   0  0  1  0  0  3  0  0  0  0  0  0
  158.1380  210.7570  155.6380 C   0  0  0  0  0  2  0  0  0  0  0  0
  159.4750  212.1060  157.0930 O   0  0  0  0  0  0  0  0  0  0  0  0
  160.1260  207.9520  154.5670 O   0  0  0  0  0  0  0  0  0  0  0  0
  161.0120  210.8920  151.7840 C   0  0  0  0  0  2  0  0  0  0  0  0
  159.0960  211.9450  155.7440 C   0  0  1  0  0  3  0  0  0  0  0  0
  160.6630  209.0270  153.8360 C   0  0  1  0  0  0  0  0  0  0  0  0
  161.5750  208.6200  152.6860 C   0  0  1  0  0  3  0  0  0  0  0  0
  160.8530  207.8620  151.7580 O   0  0  0  0  0  0  0  0  0  0  0  0
  161.7750  206.9530  151.2210 C   0  0  1  0  0  3  0  0  0  0  0  0
  162.0120  205.8000  152.1860 C   0  0  0  0  0  2  0  0  0  0  0  0
  161.6220  203.4380  151.5660 C   0  0  0  0  0  1  0  0  0  0  0  0
  160.9570  204.7290  151.9960 C   0  0  0  0  0  2  0  0  0  0  0  0
  161.2910  206.4360  149.8690 C   0  0  0  0  0  2  0  0  0  0  0  0
  161.6940  207.3560  148.7290 C   0  0  0  0  0  2  0  0  0  0  0  0
  162.3040  206.3650  147.3390 S   0  0  0  0  0  0  0  0  0  0  0  0
  160.6760  206.3660  146.5400 C   0  0  0  0  0  1  0  0  0  0  0  0
  162.8300  210.7590  156.3580 C   0  0  0  0  0  2  0  0  0  0  0  0
  163.6980  211.7320  157.1460 C   0  0  0  0  0  2  0  0  0  0  0  0
  165.9970  212.7000  157.0260 C   0  0  0  0  0  1  0  0  0  0  0  0
  165.1770  211.4250  156.9670 C   0  0  0  0  0  2  0  0  0  0  0  0
  159.5860  212.3320  152.7820 O   0  0  0  0  0  0  0  0  0  0  0  0
  160.0620  212.9400  151.6130 C   0  0  0  0  0  2  0  0  0  0  0  0
  159.5510  213.9660  149.1050 S   0  0  0  0  0  0  0  0  0  0  0  0
  158.9480  213.0830  150.5860 C   0  0  2  0  0  3  0  0  0  0  0  0
  157.7490  213.8040  151.1910 C   0  0  0  0  0  2  0  0  0  0  0  0
  155.3560  214.3810  150.9130 C   0  0  0  0  0  1  0  0  0  0  0  0
  156.8520  214.4520  148.9380 C   0  0  0  0  0  2  0  0  0  0  0  0
  156.5540  213.7350  150.2500 C   0  0  1  0  0  3  0  0  0  0  0  0
  157.9850  213.7550  148.1990 C   0  0  0  0  0  2  0  0  0  0  0  0
  1  9  1  1  0  0  0
  1 13  1  0  0  0  0
  1  5  1  0  0  0  0
  2 15  1  0  0  0  0
  3 25  1  6  0  0  0
  3  7  1  0  0  0  0
  4  6  1  6  0  0  0
  4 14  1  0  0  0  0
  4  1  1  0  0  0  0
  5  3  1  0  0  0  0
  8  5  1  0  0  0  0
  9 13  1  0  0  0  0
 10  7  1  0  0  0  0
 11  8  1  0  0  0  0
 12  2  1  0  0  0  0
 12  6  1  0  0  0  0
 13 10  1  0  0  0  0
 14 11  1  0  0  0  0
 14  8  1  0  0  0  0
 15 14  1  0  0  0  0
 16 15  1  0  0  0  0
 17 16  1  0  0  0  0
 17 18  1  0  0  0  0
 19 20  1  0  0  0  0
 20 18  1  0  0  0  0
 21 17  1  0  0  0  0
 22 21  1  0  0  0  0
 23 22  1  0  0  0  0
 24 23  1  0  0  0  0
 25 26  1  0  0  0  0
 28 27  1  0  0  0  0
 28 26  1  0  0  0  0
 29  6  1  0  0  0  0
 30 29  1  0  0  0  0
 31 32  1  0  0  0  0
 32 33  1  0  0  0  0
 32 30  1  0  0  0  0
 35 36  1  0  0  0  0
 36 34  1  0  0  0  0
 36 33  1  0  0  0  0
 37 35  1  0  0  0  0
 37 31  1  0  0  0  0
M  END
>  <MODEL>
1

>  <REMARK>
 VINA RESULT:      -5.2      0.000      0.000
  Name = 
  13 active torsions:
  status: ('A' for Active; 'I' for Inactive)
    1  A    between atoms: O_1  and  C_33
    2  A    between atoms: O_1  and  C_36
    3  A    between atoms: C_3  and  C_30
    4  A    between atoms: C_3  and  C_32
    5  A    between atoms: C_5  and  C_23
    6  A    between atoms: C_5  and  C_33
    7  A    between atoms: C_6  and  C_31
    8  A    between atoms: C_9  and  C_30
    9  A    between atoms: S_11  and  C_26
   10  A    between atoms: N_14  and  O_37
   11  A    between atoms: C_17  and  C_26
   12  A    between atoms: C_17  and  C_33
   13  A    between atoms: C_31  and  O_37
                            x       y       z     vdW  Elec       q    Type
                         _______ _______ _______ _____ _____    ______ ____

>  <TORSDO>
F 13

$$$$
=
 OpenBabel11062409123D

 37 42  0  0  1  0  0  0  0  0999 V2000
  158.5640  211.5370  154.2310 C   0  0  2  0  0  0  0  0  0  0  0  0
  161.9630  210.5490  152.0490 C   0  0  0  0  0  2  0  0  0  0  0  0
  159.8000  211.8420  156.4190 C   0  0  2  0  0  3  0  0  0  0  0  0
  159.1940  211.0610  152.9390 C   0  0  1  0  0  3  0  0  0  0  0  0
  159.1120  210.8320  155.4550 C   0  0  2  0  0  3  0  0  0  0  0  0
  160.0890  212.0940  152.3890 N   0  0  0  0  0  0  0  0  0  0  0  0
  159.2300  213.2640  156.2680 C   0  0  0  0  0  2  0  0  0  0  0  0
  160.0260  209.7300  154.9060 C   0  0  1  0  0  3  0  0  0  0  0  0
  157.0650  211.6930  154.1790 C   0  0  0  0  0  2  0  0  0  0  0  0
  157.9000  213.2350  155.8060 O   0  0  0  0  0  0  0  0  0  0  0  0
  159.2770  208.8520  154.0830 O   0  0  0  0  0  0  0  0  0  0  0  0
  160.9700  211.4970  151.3800 C   0  0  0  0  0  2  0  0  0  0  0  0
  157.9480  212.9150  154.4330 C   0  0  1  0  0  3  0  0  0  0  0  0
  160.0120  209.8580  153.4300 C   0  0  1  0  0  0  0  0  0  0  0  0
  161.2280  209.3570  152.6640 C   0  0  1  0  0  3  0  0  0  0  0  0
  160.8200  208.4790  151.6530 O   0  0  0  0  0  0  0  0  0  0  0  0
  161.7380  207.4210  151.6860 C   0  0  1  0  0  3  0  0  0  0  0  0
  161.0620  206.1410  152.1540 C   0  0  0  0  0  2  0  0  0  0  0  0
  161.1230  203.6880  151.8360 C   0  0  0  0  0  1  0  0  0  0  0  0
  161.9620  204.9470  151.9040 C   0  0  0  0  0  2  0  0  0  0  0  0
  162.3750  207.2240  150.3120 C   0  0  0  0  0  2  0  0  0  0  0  0
  161.3840  207.4640  149.1850 C   0  0  0  0  0  2  0  0  0  0  0  0
  160.9820  205.8860  148.3880 S   0  0  0  0  0  0  0  0  0  0  0  0
  162.0310  206.2660  146.9590 C   0  0  0  0  0  1  0  0  0  0  0  0
  161.3180  211.9240  156.2730 C   0  0  0  0  0  2  0  0  0  0  0  0
  162.0100  210.7470  156.9490 C   0  0  0  0  0  2  0  0  0  0  0  0
  164.2640  211.2100  155.9800 C   0  0  0  0  0  1  0  0  0  0  0  0
  163.4650  211.0630  157.2600 C   0  0  0  0  0  2  0  0  0  0  0  0
  159.3130  212.9910  151.7320 O   0  0  0  0  0  0  0  0  0  0  0  0
  160.0770  213.3910  150.6270 C   0  0  0  0  0  2  0  0  0  0  0  0
  157.4350  213.3670  149.8360 S   0  0  0  0  0  0  0  0  0  0  0  0
  159.1800  213.7410  149.4490 C   0  0  2  0  0  3  0  0  0  0  0  0
  159.6260  212.9960  148.1960 C   0  0  0  0  0  2  0  0  0  0  0  0
  159.4130  212.8250  145.7330 C   0  0  0  0  0  1  0  0  0  0  0  0
  157.3890  213.2770  147.0900 C   0  0  0  0  0  2  0  0  0  0  0  0
  158.8880  213.5210  146.9710 C   0  0  1  0  0  3  0  0  0  0  0  0
  156.8170  214.0540  148.2670 C   0  0  0  0  0  2  0  0  0  0  0  0
  1  9  1  6  0  0  0
  1 13  1  0  0  0  0
  1  5  1  0  0  0  0
  2 15  1  0  0  0  0
  3 25  1  6  0  0  0
  4  6  1  1  0  0  0
  4 14  1  0  0  0  0
  4  1  1  0  0  0  0
  5  3  1  0  0  0  0
  7  3  1  0  0  0  0
  8  5  1  0  0  0  0
  9 13  1  0  0  0  0
 10  7  1  0  0  0  0
 11  8  1  0  0  0  0
 12  2  1  0  0  0  0
 12  6  1  0  0  0  0
 13 10  1  0  0  0  0
 14 11  1  0  0  0  0
 14  8  1  0  0  0  0
 15 14  1  0  0  0  0
 16 17  1  0  0  0  0
 16 15  1  0  0  0  0
 17 18  1  0  0  0  0
 19 20  1  0  0  0  0
 20 18  1  0  0  0  0
 21 17  1  0  0  0  0
 22 21  1  0  0  0  0
 23 22  1  0  0  0  0
 24 23  1  0  0  0  0
 25 26  1  0  0  0  0
 26 28  1  0  0  0  0
 27 28  1  0  0  0  0
 29  6  1  0  0  0  0
 30 29  1  0  0  0  0
 32 31  1  0  0  0  0
 32 30  1  0  0  0  0
 33 32  1  0  0  0  0
 34 36  1  0  0  0  0
 35 37  1  0  0  0  0
 36 35  1  0  0  0  0
 36 33  1  0  0  0  0
 37 31  1  0  0  0  0
M  END
>  <MODEL>
2

>  <REMARK>
 VINA RESULT:      -4.2      1.365      2.067
  Name = 
  13 active torsions:
  status: ('A' for Active; 'I' for Inactive)
    1  A    between atoms: O_1  and  C_33
    2  A    between atoms: O_1  and  C_36
    3  A    between atoms: C_3  and  C_30
    4  A    between atoms: C_3  and  C_32
    5  A    between atoms: C_5  and  C_23
    6  A    between atoms: C_5  and  C_33
    7  A    between atoms: C_6  and  C_31
    8  A    between atoms: C_9  and  C_30
    9  A    between atoms: S_11  and  C_26
   10  A    between atoms: N_14  and  O_37
   11  A    between atoms: C_17  and  C_26
   12  A    between atoms: C_17  and  C_33
   13  A    between atoms: C_31  and  O_37
                            x       y       z     vdW  Elec       q    Type
                         _______ _______ _______ _____ _____    ______ ____

>  <TORSDO>
F 13

$$$$
=
 OpenBabel11062409123D

 37 42  0  0  1  0  0  0  0  0999 V2000
  161.2450  210.6850  155.4590 C   0  0  2  0  0  0  0  0  0  0  0  0
  158.9370  211.3210  152.0600 C   0  0  0  0  0  2  0  0  0  0  0  0
  159.2680  210.2350  156.9750 C   0  0  2  0  0  3  0  0  0  0  0  0
  161.1470  211.1000  154.0060 C   0  0  1  0  0  3  0  0  0  0  0  0
  160.1820  211.3190  156.3320 C   0  0  2  0  0  3  0  0  0  0  0  0
  160.6580  209.9820  153.1810 N   0  0  0  0  0  0  0  0  0  0  0  0
  159.9910  208.8820  157.1170 C   0  0  0  0  0  2  0  0  0  0  0  0
  159.4610  212.3210  155.4220 C   0  0  1  0  0  3  0  0  0  0  0  0
  162.6450  210.6910  156.0200 C   0  0  0  0  0  2  0  0  0  0  0  0
  161.3840  209.0570  157.2280 O   0  0  0  0  0  0  0  0  0  0  0  0
  160.3870  213.2800  154.9390 O   0  0  0  0  0  0  0  0  0  0  0  0
  160.2040  210.4880  151.8820 C   0  0  0  0  0  2  0  0  0  0  0  0
  161.8630  209.3800  155.9420 C   0  0  1  0  0  3  0  0  0  0  0  0
  160.0830  212.2060  154.0820 C   0  0  1  0  0  0  0  0  0  0  0  0
  159.2360  212.5800  152.8730 C   0  0  1  0  0  3  0  0  0  0  0  0
  159.9280  213.5030  152.0810 O   0  0  0  0  0  0  0  0  0  0  0  0
  159.2250  213.5540  150.8700 C   0  0  1  0  0  3  0  0  0  0  0  0
  158.0020  214.4500  150.9980 C   0  0  0  0  0  2  0  0  0  0  0  0
  156.7460  214.2580  148.8760 C   0  0  0  0  0  1  0  0  0  0  0  0
  156.8060  213.8110  150.3210 C   0  0  0  0  0  2  0  0  0  0  0  0
  160.1360  214.0390  149.7440 C   0  0  0  0  0  2  0  0  0  0  0  0
  160.9400  212.9030  149.1320 C   0  0  0  0  0  2  0  0  0  0  0  0
  161.7670  213.4910  147.6290 S   0  0  0  0  0  0  0  0  0  0  0  0
  160.1860  213.9010  146.8410 C   0  0  0  0  0  1  0  0  0  0  0  0
  157.9550  209.9920  156.2340 C   0  0  0  0  0  2  0  0  0  0  0  0
  157.0050  211.1750  156.3760 C   0  0  0  0  0  2  0  0  0  0  0  0
  155.1990  209.9810  155.1320 C   0  0  0  0  0  1  0  0  0  0  0  0
  156.0310  211.2470  155.2100 C   0  0  0  0  0  2  0  0  0  0  0  0
  161.7200  209.1770  152.9250 O   0  0  0  0  0  0  0  0  0  0  0  0
  162.0940  209.4780  151.6080 C   0  0  0  0  0  2  0  0  0  0  0  0
  161.7970  208.5580  149.0260 S   0  0  0  0  0  0  0  0  0  0  0  0
  162.1990  208.2110  150.7730 C   0  0  2  0  0  3  0  0  0  0  0  0
  161.2870  207.1240  151.3300 C   0  0  0  0  0  2  0  0  0  0  0  0
  160.7090  204.7150  151.2810 C   0  0  0  0  0  1  0  0  0  0  0  0
  161.2630  205.8660  149.1570 C   0  0  0  0  0  2  0  0  0  0  0  0
  161.5670  205.7910  150.6480 C   0  0  1  0  0  3  0  0  0  0  0  0
  162.1880  206.8650  148.4780 C   0  0  0  0  0  2  0  0  0  0  0  0
  1 13  1  0  0  0  0
  1  9  1  1  0  0  0
  1  5  1  0  0  0  0
  2 15  1  0  0  0  0
  3 25  1  6  0  0  0
  3  7  1  0  0  0  0
  4  6  1  6  0  0  0
  4 14  1  0  0  0  0
  4  1  1  0  0  0  0
  5  3  1  0  0  0  0
  7 10  1  0  0  0  0
  8  5  1  0  0  0  0
 11  8  1  0  0  0  0
 12  2  1  0  0  0  0
 12  6  1  0  0  0  0
 13  9  1  0  0  0  0
 13 10  1  0  0  0  0
 14 11  1  0  0  0  0
 14  8  1  0  0  0  0
 15 14  1  0  0  0  0
 16 15  1  0  0  0  0
 17 18  1  0  0  0  0
 17 16  1  0  0  0  0
 19 20  1  0  0  0  0
 20 18  1  0  0  0  0
 21 17  1  0  0  0  0
 22 21  1  0  0  0  0
 23 22  1  0  0  0  0
 24 23  1  0  0  0  0
 25 26  1  0  0  0  0
 27 28  1  0  0  0  0
 28 26  1  0  0  0  0
 29  6  1  0  0  0  0
 30 29  1  0  0  0  0
 31 32  1  0  0  0  0
 32 33  1  0  0  0  0
 32 30  1  0  0  0  0
 35 36  1  0  0  0  0
 36 34  1  0  0  0  0
 36 33  1  0  0  0  0
 37 31  1  0  0  0  0
 37 35  1  0  0  0  0
M  END
>  <MODEL>
3

>  <REMARK>
 VINA RESULT:      -3.8      1.701      6.570
  Name = 
  13 active torsions:
  status: ('A' for Active; 'I' for Inactive)
    1  A    between atoms: O_1  and  C_33
    2  A    between atoms: O_1  and  C_36
    3  A    between atoms: C_3  and  C_30
    4  A    between atoms: C_3  and  C_32
    5  A    between atoms: C_5  and  C_23
    6  A    between atoms: C_5  and  C_33
    7  A    between atoms: C_6  and  C_31
    8  A    between atoms: C_9  and  C_30
    9  A    between atoms: S_11  and  C_26
   10  A    between atoms: N_14  and  O_37
   11  A    between atoms: C_17  and  C_26
   12  A    between atoms: C_17  and  C_33
   13  A    between atoms: C_31  and  O_37
                            x       y       z     vdW  Elec       q    Type
                         _______ _______ _______ _____ _____    ______ ____

>  <TORSDO>
F 13

$$$$
=
 OpenBabel11062409123D

 37 42  0  0  1  0  0  0  0  0999 V2000
  159.4690  211.3660  153.0320 C   0  0  2  0  0  0  0  0  0  0  0  0
  162.6380  209.7890  150.8510 C   0  0  0  0  0  2  0  0  0  0  0  0
  160.5880  211.0610  155.2820 C   0  0  2  0  0  3  0  0  0  0  0  0
  160.0410  210.9030  151.7090 C   0  0  1  0  0  3  0  0  0  0  0  0
  159.7300  210.3960  154.1650 C   0  0  2  0  0  3  0  0  0  0  0  0
  161.2080  211.7210  151.3360 N   0  0  0  0  0  0  0  0  0  0  0  0
  160.4170  212.5910  155.3070 C   0  0  0  0  0  2  0  0  0  0  0  0
  160.3640  209.1670  153.5030 C   0  0  1  0  0  3  0  0  0  0  0  0
  158.0670  211.9190  152.9510 C   0  0  0  0  0  2  0  0  0  0  0  0
  159.1600  212.9720  154.8000 O   0  0  0  0  0  0  0  0  0  0  0  0
  159.4720  208.6280  152.5420 O   0  0  0  0  0  0  0  0  0  0  0  0
  161.9720  211.0410  150.2850 C   0  0  0  0  0  2  0  0  0  0  0  0
  159.2170  212.8230  153.3990 C   0  0  1  0  0  3  0  0  0  0  0  0
  160.4850  209.4750  152.0580 C   0  0  1  0  0  0  0  0  0  0  0  0
  161.5800  208.7680  151.2720 C   0  0  1  0  0  3  0  0  0  0  0  0
  161.0290  208.1610  150.1380 O   0  0  0  0  0  0  0  0  0  0  0  0
  161.7830  206.9970  149.9350 C   0  0  1  0  0  3  0  0  0  0  0  0
  160.9810  205.7660  150.3290 C   0  0  0  0  0  2  0  0  0  0  0  0
  161.5360  203.6390  151.4640 C   0  0  0  0  0  1  0  0  0  0  0  0
  161.5510  205.1480  151.5910 C   0  0  0  0  0  2  0  0  0  0  0  0
  162.2380  206.9030  148.4800 C   0  0  0  0  0  2  0  0  0  0  0  0
  162.0350  205.5080  147.9100 C   0  0  0  0  0  2  0  0  0  0  0  0
  162.7330  205.4320  146.2380 S   0  0  0  0  0  0  0  0  0  0  0  0
  161.1160  205.7420  145.4790 C   0  0  0  0  0  1  0  0  0  0  0  0
  162.0820  210.7550  155.2000 C   0  0  0  0  0  2  0  0  0  0  0  0
  162.6900  210.5560  156.5830 C   0  0  0  0  0  2  0  0  0  0  0  0
  161.3230  208.5790  157.2600 C   0  0  0  0  0  1  0  0  0  0  0  0
  162.7230  209.0850  156.9670 C   0  0  0  0  0  2  0  0  0  0  0  0
  160.7370  212.8660  150.7820 O   0  0  0  0  0  0  0  0  0  0  0  0
  161.1830  212.8360  149.4530 C   0  0  0  0  0  2  0  0  0  0  0  0
  160.4060  214.0020  147.0790 S   0  0  0  0  0  0  0  0  0  0  0  0
  160.0100  212.9100  148.4880 C   0  0  2  0  0  3  0  0  0  0  0  0
  158.7530  213.3910  149.2050 C   0  0  0  0  0  2  0  0  0  0  0  0
  156.2920  213.6400  149.0740 C   0  0  0  0  0  1  0  0  0  0  0  0
  157.6600  214.1060  147.0610 C   0  0  0  0  0  2  0  0  0  0  0  0
  157.5340  213.2370  148.3060 C   0  0  1  0  0  3  0  0  0  0  0  0
  158.8410  213.6510  146.2160 C   0  0  0  0  0  2  0  0  0  0  0  0
  1  9  1  6  0  0  0
  1 13  1  0  0  0  0
  1  5  1  0  0  0  0
  2 15  1  0  0  0  0
  3 25  1  6  0  0  0
  3  7  1  0  0  0  0
  4  6  1  1  0  0  0
  4 14  1  0  0  0  0
  4  1  1  0  0  0  0
  5  3  1  0  0  0  0
  8  5  1  0  0  0  0
  9 13  1  0  0  0  0
 10  7  1  0  0  0  0
 11  8  1  0  0  0  0
 12  2  1  0  0  0  0
 12  6  1  0  0  0  0
 13 10  1  0  0  0  0
 14 11  1  0  0  0  0
 14  8  1  0  0  0  0
 15 14  1  0  0  0  0
 16 15  1  0  0  0  0
 17 16  1  0  0  0  0
 17 18  1  0  0  0  0
 18 20  1  0  0  0  0
 19 20  1  0  0  0  0
 21 17  1  0  0  0  0
 22 21  1  0  0  0  0
 23 22  1  0  0  0  0
 24 23  1  0  0  0  0
 25 26  1  0  0  0  0
 26 28  1  0  0  0  0
 28 27  1  0  0  0  0
 29  6  1  0  0  0  0
 30 29  1  0  0  0  0
 31 32  1  0  0  0  0
 32 33  1  0  0  0  0
 32 30  1  0  0  0  0
 35 36  1  0  0  0  0
 36 34  1  0  0  0  0
 36 33  1  0  0  0  0
 37 35  1  0  0  0  0
 37 31  1  0  0  0  0
M  END
>  <MODEL>
4

>  <REMARK>
 VINA RESULT:      -3.1      1.684      2.251
  Name = 
  13 active torsions:
  status: ('A' for Active; 'I' for Inactive)
    1  A    between atoms: O_1  and  C_33
    2  A    between atoms: O_1  and  C_36
    3  A    between atoms: C_3  and  C_30
    4  A    between atoms: C_3  and  C_32
    5  A    between atoms: C_5  and  C_23
    6  A    between atoms: C_5  and  C_33
    7  A    between atoms: C_6  and  C_31
    8  A    between atoms: C_9  and  C_30
    9  A    between atoms: S_11  and  C_26
   10  A    between atoms: N_14  and  O_37
   11  A    between atoms: C_17  and  C_26
   12  A    between atoms: C_17  and  C_33
   13  A    between atoms: C_31  and  O_37
                            x       y       z     vdW  Elec       q    Type
                         _______ _______ _______ _____ _____    ______ ____

>  <TORSDO>
F 13

$$$$
=
 OpenBabel11062409123D

 37 42  0  0  1  0  0  0  0  0999 V2000
  161.6020  210.9030  155.6990 C   0  0  2  0  0  0  0  0  0  0  0  0
  158.5270  211.1190  152.9080 C   0  0  0  0  0  2  0  0  0  0  0  0
  160.3720  209.3200  157.2450 C   0  0  2  0  0  3  0  0  0  0  0  0
  161.0190  211.5160  154.4440 C   0  0  1  0  0  3  0  0  0  0  0  0
  160.6020  210.8030  156.8320 C   0  0  2  0  0  3  0  0  0  0  0  0
  160.8460  210.4920  153.3990 N   0  0  0  0  0  0  0  0  0  0  0  0
  161.5880  208.4340  156.9160 C   0  0  0  0  0  2  0  0  0  0  0  0
  159.3540  211.5400  156.3320 C   0  0  1  0  0  3  0  0  0  0  0  0
  162.9690  211.4180  156.0730 C   0  0  0  0  0  2  0  0  0  0  0  0
  162.7790  209.1850  156.9090 O   0  0  0  0  0  0  0  0  0  0  0  0
  159.6810  212.8870  156.0340 O   0  0  0  0  0  0  0  0  0  0  0  0
  159.9460  210.9950  152.3570 C   0  0  0  0  0  2  0  0  0  0  0  0
  162.7830  209.9420  155.7190 C   0  0  1  0  0  3  0  0  0  0  0  0
  159.6480  211.9900  154.9510 C   0  0  1  0  0  0  0  0  0  0  0  0
  158.4730  212.1840  154.0030 C   0  0  1  0  0  3  0  0  0  0  0  0
  158.5360  213.4590  153.4290 O   0  0  0  0  0  0  0  0  0  0  0  0
  157.2580  214.0080  153.6010 C   0  0  1  0  0  3  0  0  0  0  0  0
  156.5490  214.1400  152.2610 C   0  0  0  0  0  2  0  0  0  0  0  0
  157.4190  213.4180  150.0610 C   0  0  0  0  0  1  0  0  0  0  0  0
  157.5480  214.4480  151.1640 C   0  0  0  0  0  2  0  0  0  0  0  0
  156.4370  213.1570  154.5670 C   0  0  0  0  0  2  0  0  0  0  0  0
  155.0710  213.7650  154.8410 C   0  0  0  0  0  2  0  0  0  0  0  0
  155.0240  214.4030  156.5370 S   0  0  0  0  0  0  0  0  0  0  0  0
  156.2520  213.1930  157.0960 C   0  0  0  0  0  1  0  0  0  0  0  0
  159.1360  208.6730  156.6230 C   0  0  0  0  0  2  0  0  0  0  0  0
  159.4410  207.2780  156.0920 C   0  0  0  0  0  2  0  0  0  0  0  0
  160.4500  206.0130  154.1910 C   0  0  0  0  0  1  0  0  0  0  0  0
  160.4410  207.3270  154.9480 C   0  0  0  0  0  2  0  0  0  0  0  0
  162.0540  210.3160  152.8050 O   0  0  0  0  0  0  0  0  0  0  0  0
  162.2100  208.9270  152.7060 C   0  0  0  0  0  2  0  0  0  0  0  0
  161.9910  209.9150  150.1410 S   0  0  0  0  0  0  0  0  0  0  0  0
  162.2960  208.4960  151.2490 C   0  0  2  0  0  3  0  0  0  0  0  0
  161.3100  207.3690  150.9650 C   0  0  0  0  0  2  0  0  0  0  0  0
  160.6250  205.6060  149.3640 C   0  0  0  0  0  1  0  0  0  0  0  0
  161.3280  207.8170  148.4950 C   0  0  0  0  0  2  0  0  0  0  0  0
  161.5590  206.7770  149.5840 C   0  0  1  0  0  3  0  0  0  0  0  0
  162.3280  208.9560  148.6290 C   0  0  0  0  0  2  0  0  0  0  0  0
  1 13  1  0  0  0  0
  1  9  1  1  0  0  0
  1  5  1  0  0  0  0
  2 15  1  0  0  0  0
  3 25  1  6  0  0  0
  4  6  1  6  0  0  0
  4 14  1  0  0  0  0
  4  1  1  0  0  0  0
  5  3  1  0  0  0  0
  7  3  1  0  0  0  0
  8  5  1  0  0  0  0
 10  7  1  0  0  0  0
 11  8  1  0  0  0  0
 12  2  1  0  0  0  0
 12  6  1  0  0  0  0
 13  9  1  0  0  0  0
 13 10  1  0  0  0  0
 14 11  1  0  0  0  0
 14  8  1  0  0  0  0
 15 14  1  0  0  0  0
 16 17  1  0  0  0  0
 16 15  1  0  0  0  0
 17 21  1  0  0  0  0
 18 17  1  0  0  0  0
 19 20  1  0  0  0  0
 20 18  1  0  0  0  0
 21 22  1  0  0  0  0
 22 23  1  0  0  0  0
 23 24  1  0  0  0  0
 26 25  1  0  0  0  0
 27 28  1  0  0  0  0
 28 26  1  0  0  0  0
 29  6  1  0  0  0  0
 30 29  1  0  0  0  0
 31 32  1  0  0  0  0
 32 30  1  0  0  0  0
 33 32  1  0  0  0  0
 34 36  1  0  0  0  0
 35 37  1  0  0  0  0
 35 36  1  0  0  0  0
 36 33  1  0  0  0  0
 37 31  1  0  0  0  0
M  END
>  <MODEL>
5

>  <REMARK>
 VINA RESULT:      -3.1      2.437      7.027
  Name = 
  13 active torsions:
  status: ('A' for Active; 'I' for Inactive)
    1  A    between atoms: O_1  and  C_33
    2  A    between atoms: O_1  and  C_36
    3  A    between atoms: C_3  and  C_30
    4  A    between atoms: C_3  and  C_32
    5  A    between atoms: C_5  and  C_23
    6  A    between atoms: C_5  and  C_33
    7  A    between atoms: C_6  and  C_31
    8  A    between atoms: C_9  and  C_30
    9  A    between atoms: S_11  and  C_26
   10  A    between atoms: N_14  and  O_37
   11  A    between atoms: C_17  and  C_26
   12  A    between atoms: C_17  and  C_33
   13  A    between atoms: C_31  and  O_37
                            x       y       z     vdW  Elec       q    Type
                         _______ _______ _______ _____ _____    ______ ____

>  <TORSDO>
F 13

$$$$
=
 OpenBabel11062409123D

 37 42  0  0  1  0  0  0  0  0999 V2000
  161.8090  210.8540  155.5570 C   0  0  2  0  0  0  0  0  0  0  0  0
  158.6300  211.0770  152.8870 C   0  0  0  0  0  2  0  0  0  0  0  0
  160.5580  209.4600  157.2590 C   0  0  2  0  0  3  0  0  0  0  0  0
  161.2080  211.4180  154.2870 C   0  0  1  0  0  3  0  0  0  0  0  0
  160.8590  210.8950  156.7350 C   0  0  2  0  0  3  0  0  0  0  0  0
  160.9260  210.3380  153.3250 N   0  0  0  0  0  0  0  0  0  0  0  0
  161.7020  208.4790  156.9430 C   0  0  0  0  0  2  0  0  0  0  0  0
  159.6360  211.6750  156.2360 C   0  0  1  0  0  3  0  0  0  0  0  0
  163.2210  211.3050  155.8370 C   0  0  0  0  0  2  0  0  0  0  0  0
  162.9350  209.1510  156.8350 O   0  0  0  0  0  0  0  0  0  0  0  0
  160.0300  212.9750  155.8310 O   0  0  0  0  0  0  0  0  0  0  0  0
  160.0110  210.8260  152.2880 C   0  0  0  0  0  2  0  0  0  0  0  0
  162.9300  209.8240  155.5950 C   0  0  1  0  0  3  0  0  0  0  0  0
  159.8940  212.0110  154.8160 C   0  0  1  0  0  0  0  0  0  0  0  0
  158.6900  212.2150  153.9060 C   0  0  1  0  0  3  0  0  0  0  0  0
  158.8040  213.4410  153.2420 O   0  0  0  0  0  0  0  0  0  0  0  0
  157.5400  213.6820  152.6850 C   0  0  1  0  0  3  0  0  0  0  0  0
  156.6640  214.4530  153.6630 C   0  0  0  0  0  2  0  0  0  0  0  0
  156.2430  213.5780  155.9380 C   0  0  0  0  0  1  0  0  0  0  0  0
  155.8240  213.4960  154.4850 C   0  0  0  0  0  2  0  0  0  0  0  0
  157.6730  214.4390  151.3660 C   0  0  0  0  0  2  0  0  0  0  0  0
  157.8410  213.4980  150.1840 C   0  0  0  0  0  2  0  0  0  0  0  0
  156.9480  214.1620  148.7520 S   0  0  0  0  0  0  0  0  0  0  0  0
  157.5520  212.8320  147.6770 C   0  0  0  0  0  1  0  0  0  0  0  0
  159.2580  208.8540  156.7360 C   0  0  0  0  0  2  0  0  0  0  0  0
  159.4760  207.4470  156.1910 C   0  0  0  0  0  2  0  0  0  0  0  0
  160.7140  206.2020  154.4160 C   0  0  0  0  0  1  0  0  0  0  0  0
  159.9720  207.4810  154.7540 C   0  0  0  0  0  2  0  0  0  0  0  0
  162.0920  210.0460  152.6950 O   0  0  0  0  0  0  0  0  0  0  0  0
  162.0540  208.6610  152.4840 C   0  0  0  0  0  2  0  0  0  0  0  0
  161.9620  209.7810  149.9660 S   0  0  0  0  0  0  0  0  0  0  0  0
  162.3080  208.3310  151.0210 C   0  0  2  0  0  3  0  0  0  0  0  0
  161.4650  207.1360  150.5870 C   0  0  0  0  0  2  0  0  0  0  0  0
  161.0980  205.4200  148.8390 C   0  0  0  0  0  1  0  0  0  0  0  0
  161.6540  207.7360  148.1560 C   0  0  0  0  0  2  0  0  0  0  0  0
  161.8910  206.6570  149.2050 C   0  0  1  0  0  3  0  0  0  0  0  0
  162.5220  208.9530  148.4430 C   0  0  0  0  0  2  0  0  0  0  0  0
  1 13  1  0  0  0  0
  1  9  1  1  0  0  0
  1  5  1  0  0  0  0
  2 15  1  0  0  0  0
  3 25  1  6  0  0  0
  4  6  1  6  0  0  0
  4 14  1  0  0  0  0
  4  1  1  0  0  0  0
  5  3  1  0  0  0  0
  7  3  1  0  0  0  0
  8  5  1  0  0  0  0
 10  7  1  0  0  0  0
 11  8  1  0  0  0  0
 12  2  1  0  0  0  0
 12  6  1  0  0  0  0
 13  9  1  0  0  0  0
 13 10  1  0  0  0  0
 14 11  1  0  0  0  0
 14  8  1  0  0  0  0
 15 14  1  0  0  0  0
 16 15  1  0  0  0  0
 17 16  1  0  0  0  0
 17 18  1  0  0  0  0
 18 20  1  0  0  0  0
 20 19  1  0  0  0  0
 21 17  1  0  0  0  0
 22 21  1  0  0  0  0
 23 22  1  0  0  0  0
 24 23  1  0  0  0  0
 26 25  1  0  0  0  0
 27 28  1  0  0  0  0
 28 26  1  0  0  0  0
 29  6  1  0  0  0  0
 30 29  1  0  0  0  0
 31 32  1  0  0  0  0
 32 30  1  0  0  0  0
 33 32  1  0  0  0  0
 34 36  1  0  0  0  0
 35 37  1  0  0  0  0
 35 36  1  0  0  0  0
 36 33  1  0  0  0  0
 37 31  1  0  0  0  0
M  END
>  <MODEL>
6

>  <REMARK>
 VINA RESULT:      -2.9      1.961      6.510
  Name = 
  13 active torsions:
  status: ('A' for Active; 'I' for Inactive)
    1  A    between atoms: O_1  and  C_33
    2  A    between atoms: O_1  and  C_36
    3  A    between atoms: C_3  and  C_30
    4  A    between atoms: C_3  and  C_32
    5  A    between atoms: C_5  and  C_23
    6  A    between atoms: C_5  and  C_33
    7  A    between atoms: C_6  and  C_31
    8  A    between atoms: C_9  and  C_30
    9  A    between atoms: S_11  and  C_26
   10  A    between atoms: N_14  and  O_37
   11  A    between atoms: C_17  and  C_26
   12  A    between atoms: C_17  and  C_33
   13  A    between atoms: C_31  and  O_37
                            x       y       z     vdW  Elec       q    Type
                         _______ _______ _______ _____ _____    ______ ____

>  <TORSDO>
F 13

$$$$
=
 OpenBabel11062409123D

 37 42  0  0  1  0  0  0  0  0999 V2000
  160.7870  211.0510  139.3060 C   0  0  2  0  0  0  0  0  0  0  0  0
  158.2550  214.3200  138.8700 C   0  0  0  0  0  2  0  0  0  0  0  0
  162.7050  212.0980  138.0290 C   0  0  2  0  0  3  0  0  0  0  0  0
  159.4190  211.6760  139.4830 C   0  0  1  0  0  3  0  0  0  0  0  0
  161.3770  211.2910  137.9320 C   0  0  2  0  0  3  0  0  0  0  0  0
  159.4960  212.8410  140.3820 N   0  0  0  0  0  0  0  0  0  0  0  0
  163.4040  211.8990  139.3860 C   0  0  0  0  0  2  0  0  0  0  0  0
  160.2610  211.9680  137.1290 C   0  0  1  0  0  3  0  0  0  0  0  0
  160.9070  209.6430  139.8360 C   0  0  0  0  0  2  0  0  0  0  0  0
  163.0730  210.6530  139.9530 O   0  0  0  0  0  0  0  0  0  0  0  0
  159.1280  211.1190  137.0740 O   0  0  0  0  0  0  0  0  0  0  0  0
  158.2820  213.6520  140.2430 C   0  0  0  0  0  2  0  0  0  0  0  0
  161.7550  210.7600  140.4450 C   0  0  1  0  0  3  0  0  0  0  0  0
  159.1110  212.1330  138.0490 C   0  0  1  0  0  0  0  0  0  0  0  0
  158.1350  213.2670  137.7690 C   0  0  1  0  0  3  0  0  0  0  0  0
  156.8290  212.7660  137.7320 O   0  0  0  0  0  0  0  0  0  0  0  0
  156.1650  213.3780  138.8030 C   0  0  1  0  0  3  0  0  0  0  0  0
  155.2100  214.4500  138.2970 C   0  0  0  0  0  2  0  0  0  0  0  0
  153.0800  214.3940  137.0410 C   0  0  0  0  0  1  0  0  0  0  0  0
  154.5410  213.9970  137.0140 C   0  0  0  0  0  2  0  0  0  0  0  0
  155.4170  212.3380  139.6330 C   0  0  0  0  0  2  0  0  0  0  0  0
  155.6690  210.9240  139.1350 C   0  0  0  0  0  2  0  0  0  0  0  0
  154.0820  210.0920  138.8540 S   0  0  0  0  0  0  0  0  0  0  0  0
  154.8470  208.8630  137.7620 C   0  0  0  0  0  1  0  0  0  0  0  0
  162.5530  213.5990  137.7930 C   0  0  0  0  0  2  0  0  0  0  0  0
  163.6980  214.3840  138.4210 C   0  0  0  0  0  2  0  0  0  0  0  0
  166.1900  214.3100  138.2750 C   0  0  0  0  0  1  0  0  0  0  0  0
  164.8990  214.4520  137.4910 C   0  0  0  0  0  2  0  0  0  0  0  0
  159.4930  212.3680  141.6540 O   0  0  0  0  0  0  0  0  0  0  0  0
  160.5760  213.0010  142.2790 C   0  0  0  0  0  2  0  0  0  0  0  0
  161.6140  213.5250  144.7790 S   0  0  0  0  0  0  0  0  0  0  0  0
  160.1780  213.5250  143.6500 C   0  0  2  0  0  3  0  0  0  0  0  0
  159.0370  212.6970  144.2310 C   0  0  0  0  0  2  0  0  0  0  0  0
  157.2950  212.5620  145.9870 C   0  0  0  0  0  1  0  0  0  0  0  0
  159.5390  213.4340  146.5780 C   0  0  0  0  0  2  0  0  0  0  0  0
  158.4800  213.3590  145.4840 C   0  0  1  0  0  3  0  0  0  0  0  0
  160.6950  214.3190  146.1360 C   0  0  0  0  0  2  0  0  0  0  0  0
  1  4  1  0  0  0  0
  1  9  1  6  0  0  0
  1 13  1  0  0  0  0
  2 12  1  0  0  0  0
  3 25  1  1  0  0  0
  3  7  1  0  0  0  0
  4  6  1  1  0  0  0
  5  3  1  0  0  0  0
  5  1  1  0  0  0  0
  6 29  1  0  0  0  0
  7 10  1  0  0  0  0
  8  5  1  0  0  0  0
  8 14  1  0  0  0  0
  9 13  1  0  0  0  0
 10 13  1  0  0  0  0
 11  8  1  0  0  0  0
 11 14  1  0  0  0  0
 12  6  1  0  0  0  0
 14  4  1  0  0  0  0
 15 14  1  0  0  0  0
 15  2  1  0  0  0  0
 16 15  1  0  0  0  0
 16 17  1  0  0  0  0
 17 21  1  0  0  0  0
 18 17  1  0  0  0  0
 20 19  1  0  0  0  0
 20 18  1  0  0  0  0
 22 21  1  0  0  0  0
 23 22  1  0  0  0  0
 24 23  1  0  0  0  0
 25 26  1  0  0  0  0
 28 27  1  0  0  0  0
 28 26  1  0  0  0  0
 29 30  1  0  0  0  0
 30 32  1  0  0  0  0
 31 37  1  0  0  0  0
 32 33  1  0  0  0  0
 32 31  1  0  0  0  0
 33 36  1  0  0  0  0
 36 34  1  0  0  0  0
 36 35  1  0  0  0  0
 37 35  1  0  0  0  0
M  END
>  <MODEL>
7

>  <REMARK>
 VINA RESULT:      -2.7      9.874     14.679
  Name = 
  13 active torsions:
  status: ('A' for Active; 'I' for Inactive)
    1  A    between atoms: O_1  and  C_33
    2  A    between atoms: O_1  and  C_36
    3  A    between atoms: C_3  and  C_30
    4  A    between atoms: C_3  and  C_32
    5  A    between atoms: C_5  and  C_23
    6  A    between atoms: C_5  and  C_33
    7  A    between atoms: C_6  and  C_31
    8  A    between atoms: C_9  and  C_30
    9  A    between atoms: S_11  and  C_26
   10  A    between atoms: N_14  and  O_37
   11  A    between atoms: C_17  and  C_26
   12  A    between atoms: C_17  and  C_33
   13  A    between atoms: C_31  and  O_37
                            x       y       z     vdW  Elec       q    Type
                         _______ _______ _______ _____ _____    ______ ____

>  <TORSDO>
F 13

$$$$
=
 OpenBabel11062409123D

 37 42  0  0  1  0  0  0  0  0999 V2000
  160.6220  204.9170  149.7460 C   0  0  2  0  0  0  0  0  0  0  0  0
  163.0820  208.2600  149.5000 C   0  0  0  0  0  2  0  0  0  0  0  0
  161.6340  203.7630  147.7330 C   0  0  2  0  0  3  0  0  0  0  0  0
  160.9900  206.3050  150.2250 C   0  0  1  0  0  3  0  0  0  0  0  0
  160.5870  204.7990  148.2370 C   0  0  2  0  0  3  0  0  0  0  0  0
  162.3480  206.3120  150.7960 N   0  0  0  0  0  0  0  0  0  0  0  0
  161.9570  202.7030  148.8030 C   0  0  0  0  0  2  0  0  0  0  0  0
  160.7840  206.2280  147.7170 C   0  0  1  0  0  3  0  0  0  0  0  0
  159.4660  204.2850  150.4810 C   0  0  0  0  0  2  0  0  0  0  0  0
  160.8740  202.5230  149.6860 O   0  0  0  0  0  0  0  0  0  0  0  0
  159.7480  207.0620  148.2050 O   0  0  0  0  0  0  0  0  0  0  0  0
  162.8350  207.6920  150.8960 C   0  0  0  0  0  2  0  0  0  0  0  0
  160.8520  203.6410  150.5450 C   0  0  1  0  0  3  0  0  0  0  0  0
  160.9660  207.0930  148.9070 C   0  0  1  0  0  0  0  0  0  0  0  0
  161.7640  208.3780  148.7330 C   0  0  1  0  0  3  0  0  0  0  0  0
  161.0260  209.4610  149.2230 O   0  0  0  0  0  0  0  0  0  0  0  0
  161.9290  210.5300  149.2840 C   0  0  1  0  0  3  0  0  0  0  0  0
  161.9040  211.3260  147.9860 C   0  0  0  0  0  2  0  0  0  0  0  0
  162.7190  213.6160  147.5260 C   0  0  0  0  0  1  0  0  0  0  0  0
  163.1360  212.2040  147.8830 C   0  0  0  0  0  2  0  0  0  0  0  0
  161.6120  211.4310  150.4760 C   0  0  0  0  0  2  0  0  0  0  0  0
  160.5980  212.5070  150.1220 C   0  0  0  0  0  2  0  0  0  0  0  0
  159.6210  212.9220  151.5920 S   0  0  0  0  0  0  0  0  0  0  0  0
  158.3020  213.6570  150.5880 C   0  0  0  0  0  1  0  0  0  0  0  0
  162.9520  204.3720  147.2610 C   0  0  0  0  0  2  0  0  0  0  0  0
  163.0730  204.3360  145.7420 C   0  0  0  0  0  2  0  0  0  0  0  0
  161.2070  205.1070  144.2740 C   0  0  0  0  0  1  0  0  0  0  0  0
  161.7540  203.9520  145.0900 C   0  0  0  0  0  2  0  0  0  0  0  0
  162.2520  205.8510  152.0680 O   0  0  0  0  0  0  0  0  0  0  0  0
  161.0740  206.4180  152.5720 C   0  0  0  0  0  2  0  0  0  0  0  0
  160.4700  206.6410  155.2530 S   0  0  0  0  0  0  0  0  0  0  0  0
  161.3660  207.2760  153.7930 C   0  0  2  0  0  3  0  0  0  0  0  0
  160.9980  208.7310  153.5270 C   0  0  0  0  0  2  0  0  0  0  0  0
  161.2050  211.0700  154.3170 C   0  0  0  0  0  1  0  0  0  0  0  0
  160.8480  209.2640  155.9760 C   0  0  0  0  0  2  0  0  0  0  0  0
  161.5080  209.6250  154.6500 C   0  0  1  0  0  3  0  0  0  0  0  0
  161.2250  207.8490  156.3870 C   0  0  0  0  0  2  0  0  0  0  0  0
  1  4  1  0  0  0  0
  1  9  1  1  0  0  0
  1 13  1  0  0  0  0
  2 12  1  0  0  0  0
  3 25  1  1  0  0  0
  3  5  1  0  0  0  0
  3  7  1  0  0  0  0
  4  6  1  6  0  0  0
  5  1  1  0  0  0  0
  6 12  1  0  0  0  0
  6 29  1  0  0  0  0
  7 10  1  0  0  0  0
  8 11  1  0  0  0  0
  8  5  1  0  0  0  0
  8 14  1  0  0  0  0
  9 13  1  0  0  0  0
 10 13  1  0  0  0  0
 11 14  1  0  0  0  0
 14  4  1  0  0  0  0
 15 14  1  0  0  0  0
 15 16  1  0  0  0  0
 15  2  1  0  0  0  0
 16 17  1  0  0  0  0
 17 21  1  0  0  0  0
 18 17  1  0  0  0  0
 19 20  1  0  0  0  0
 20 18  1  0  0  0  0
 22 21  1  0  0  0  0
 22 23  1  0  0  0  0
 24 23  1  0  0  0  0
 26 25  1  0  0  0  0
 27 28  1  0  0  0  0
 28 26  1  0  0  0  0
 29 30  1  0  0  0  0
 30 32  1  0  0  0  0
 31 37  1  0  0  0  0
 32 31  1  0  0  0  0
 33 32  1  0  0  0  0
 33 36  1  0  0  0  0
 34 36  1  0  0  0  0
 35 37  1  0  0  0  0
 36 35  1  0  0  0  0
M  END
>  <MODEL>
8

>  <REMARK>
 VINA RESULT:      -2.5      3.217      8.741
  Name = 
  13 active torsions:
  status: ('A' for Active; 'I' for Inactive)
    1  A    between atoms: O_1  and  C_33
    2  A    between atoms: O_1  and  C_36
    3  A    between atoms: C_3  and  C_30
    4  A    between atoms: C_3  and  C_32
    5  A    between atoms: C_5  and  C_23
    6  A    between atoms: C_5  and  C_33
    7  A    between atoms: C_6  and  C_31
    8  A    between atoms: C_9  and  C_30
    9  A    between atoms: S_11  and  C_26
   10  A    between atoms: N_14  and  O_37
   11  A    between atoms: C_17  and  C_26
   12  A    between atoms: C_17  and  C_33
   13  A    between atoms: C_31  and  O_37
                            x       y       z     vdW  Elec       q    Type
                         _______ _______ _______ _____ _____    ______ ____

>  <TORSDO>
F 13

$$$$
=
 OpenBabel11062409123D

 37 42  0  0  1  0  0  0  0  0999 V2000
  162.4180  206.9960  149.7510 C   0  0  2  0  0  0  0  0  0  0  0  0
  160.1350  208.1400  153.0330 C   0  0  0  0  0  2  0  0  0  0  0  0
  161.2040  204.8010  149.4050 C   0  0  2  0  0  3  0  0  0  0  0  0
  162.1610  207.9580  150.8920 C   0  0  1  0  0  3  0  0  0  0  0  0
  162.3400  205.5430  150.1700 C   0  0  2  0  0  3  0  0  0  0  0  0
  160.8490  208.6090  150.7340 N   0  0  0  0  0  0  0  0  0  0  0  0
  160.9000  205.4590  148.0460 C   0  0  0  0  0  2  0  0  0  0  0  0
  162.1860  205.5730  151.6950 C   0  0  1  0  0  3  0  0  0  0  0  0
  163.5850  207.3640  148.8700 C   0  0  0  0  0  2  0  0  0  0  0  0
  162.0300  206.1280  147.5380 O   0  0  0  0  0  0  0  0  0  0  0  0
  163.2990  206.2300  152.2760 O   0  0  0  0  0  0  0  0  0  0  0  0
  160.4470  209.2240  152.0030 C   0  0  0  0  0  2  0  0  0  0  0  0
  162.1740  207.3170  148.2820 C   0  0  1  0  0  3  0  0  0  0  0  0
  162.1360  207.0000  152.0920 C   0  0  1  0  0  0  0  0  0  0  0  0
  161.3990  207.3530  153.3770 C   0  0  1  0  0  3  0  0  0  0  0  0
  162.2290  208.1240  154.1980 O   0  0  0  0  0  0  0  0  0  0  0  0
  161.4240  208.5190  155.2750 C   0  0  1  0  0  3  0  0  0  0  0  0
  161.7070  207.6590  156.4980 C   0  0  0  0  0  2  0  0  0  0  0  0
  159.3520  206.9630  156.2000 C   0  0  0  0  0  1  0  0  0  0  0  0
  160.4150  207.3230  157.2160 C   0  0  0  0  0  2  0  0  0  0  0  0
  161.6420  209.9970  155.5910 C   0  0  0  0  0  2  0  0  0  0  0  0
  160.3310  210.7270  155.8330 C   0  0  0  0  0  2  0  0  0  0  0  0
  160.0180  211.8760  154.4660 S   0  0  0  0  0  0  0  0  0  0  0  0
  158.5120  212.5070  155.2550 C   0  0  0  0  0  1  0  0  0  0  0  0
  159.8920  204.6850  150.1770 C   0  0  0  0  0  2  0  0  0  0  0  0
  159.7910  203.3530  150.9110 C   0  0  0  0  0  2  0  0  0  0  0  0
  159.9610  201.3690  149.4040 C   0  0  0  0  0  1  0  0  0  0  0  0
  160.7260  202.3160  150.3080 C   0  0  0  0  0  2  0  0  0  0  0  0
  161.0080  209.6280  149.8530 O   0  0  0  0  0  0  0  0  0  0  0  0
  161.9580  210.4730  150.4430 C   0  0  0  0  0  2  0  0  0  0  0  0
  160.4330  212.7670  150.3190 S   0  0  0  0  0  0  0  0  0  0  0  0
  161.9270  211.8520  149.8010 C   0  0  2  0  0  3  0  0  0  0  0  0
  161.9890  211.7380  148.2820 C   0  0  0  0  0  2  0  0  0  0  0  0
  162.3450  212.9550  146.1540 C   0  0  0  0  0  1  0  0  0  0  0  0
  161.0250  214.0330  147.9530 C   0  0  0  0  0  2  0  0  0  0  0  0
  162.1990  213.1090  147.6530 C   0  0  1  0  0  3  0  0  0  0  0  0
  160.9230  214.2900  149.4490 C   0  0  0  0  0  2  0  0  0  0  0  0
  1  9  1  6  0  0  0
  1  5  1  0  0  0  0
  1  4  1  0  0  0  0
  2 15  1  0  0  0  0
  3  5  1  0  0  0  0
  3 25  1  1  0  0  0
  4  6  1  6  0  0  0
  4 14  1  0  0  0  0
  5  8  1  0  0  0  0
  6 12  1  0  0  0  0
  7  3  1  0  0  0  0
  8 14  1  0  0  0  0
  8 11  1  0  0  0  0
 10  7  1  0  0  0  0
 10 13  1  0  0  0  0
 12  2  1  0  0  0  0
 13  9  1  0  0  0  0
 13  1  1  0  0  0  0
 14 11  1  0  0  0  0
 14 15  1  0  0  0  0
 15 16  1  0  0  0  0
 16 17  1  0  0  0  0
 17 21  1  0  0  0  0
 17 18  1  0  0  0  0
 18 20  1  0  0  0  0
 19 20  1  0  0  0  0
 21 22  1  0  0  0  0
 23 24  1  0  0  0  0
 23 22  1  0  0  0  0
 25 26  1  0  0  0  0
 27 28  1  0  0  0  0
 28 26  1  0  0  0  0
 29 30  1  0  0  0  0
 29  6  1  0  0  0  0
 32 31  1  0  0  0  0
 32 30  1  0  0  0  0
 33 32  1  0  0  0  0
 34 36  1  0  0  0  0
 35 37  1  0  0  0  0
 36 35  1  0  0  0  0
 36 33  1  0  0  0  0
 37 31  1  0  0  0  0
M  END
>  <MODEL>
9

>  <REMARK>
 VINA RESULT:      -2.2      3.001      7.278
  Name = 
  13 active torsions:
  status: ('A' for Active; 'I' for Inactive)
    1  A    between atoms: O_1  and  C_33
    2  A    between atoms: O_1  and  C_36
    3  A    between atoms: C_3  and  C_30
    4  A    between atoms: C_3  and  C_32
    5  A    between atoms: C_5  and  C_23
    6  A    between atoms: C_5  and  C_33
    7  A    between atoms: C_6  and  C_31
    8  A    between atoms: C_9  and  C_30
    9  A    between atoms: S_11  and  C_26
   10  A    between atoms: N_14  and  O_37
   11  A    between atoms: C_17  and  C_26
   12  A    between atoms: C_17  and  C_33
   13  A    between atoms: C_31  and  O_37
                            x       y       z     vdW  Elec       q    Type
                         _______ _______ _______ _____ _____    ______ ____

>  <TORSDO>
F 13

$$$$
