=
 OpenBabel11052422183D

 25 27  0  0  1  0  0  0  0  0999 V2000
  161.5460  206.1990  147.9480 C   0  0  0  0  0  0  0  0  0  0  0  0
  161.3740  205.5060  149.1660 C   0  0  0  0  0  0  0  0  0  0  0  0
  161.7040  208.2460  149.1470 C   0  0  0  0  0  3  0  0  0  0  0  0
  161.5450  205.5230  146.6750 N   0  0  0  0  0  0  0  0  0  0  0  0
  161.5530  207.5950  150.3280 N   0  0  0  0  0  0  0  0  0  0  0  0
  161.2060  205.5770  151.5880 C   0  0  0  0  0  0  0  0  0  0  0  0
  161.2130  206.3180  152.8820 C   0  0  0  0  0  1  0  0  0  0  0  0
  161.1610  204.1250  149.2180 C   0  0  0  0  0  3  0  0  0  0  0  0
  161.6960  207.5530  147.9800 N   0  0  0  0  0  0  0  0  0  0  0  0
  161.0110  204.2310  151.5990 N   0  0  0  0  0  0  0  0  0  0  0  0
  160.9890  203.4980  150.4520 C   0  0  0  0  0  0  0  0  0  0  0  0
  161.3860  206.2460  150.3660 C   0  0  0  0  0  0  0  0  0  0  0  0
  160.0290  203.9600  144.9770 C   0  0  0  0  0  1  0  0  0  0  0  0
  161.0950  206.2570  145.4870 C   0  0  2  0  0  3  0  0  0  0  0  0
  160.2010  205.4140  144.5610 C   0  0  1  0  0  3  0  0  0  0  0  0
  161.6550  205.6490  144.2110 C   0  0  0  0  0  2  0  0  0  0  0  0
  162.4120  204.3650  146.4770 C   0  0  0  0  0  2  0  0  0  0  0  0
  163.7490  204.7580  146.5330 O   0  0  0  0  0  1  0  0  0  0  0  0
  160.7440  202.0320  150.5130 C   0  0  0  0  0  2  0  0  0  0  0  0
  159.9810  201.5830  149.2800 C   0  0  0  0  0  2  0  0  0  0  0  0
  160.9280  201.0140  148.2840 C   0  0  0  0  0  0  0  0  0  0  0  0
  161.8510  200.2470  148.6690 O   0  0  0  0  0  0  0  0  0  0  0  0
  160.7630  201.3130  146.9310 O   0  0  0  0  0  0  0  0  0  0  0  0
  160.9150  200.3260  145.9220 C   0  0  0  0  0  2  0  0  0  0  0  0
  160.0290  200.6270  144.8140 N   0  0  0  0  0  1  0  0  0  0  0  0
  1  9  2  0  0  0  0
  1  2  1  0  0  0  0
  2  8  2  0  0  0  0
  2 12  1  0  0  0  0
  3  5  2  0  0  0  0
  4  1  1  0  0  0  0
  5 12  1  0  0  0  0
  6 10  1  0  0  0  0
  6  7  1  0  0  0  0
  8 11  1  0  0  0  0
  9  3  1  0  0  0  0
 11 19  1  0  0  0  0
 11 10  2  0  0  0  0
 12  6  2  0  0  0  0
 14  4  1  1  0  0  0
 15 13  1  1  0  0  0
 15 14  1  0  0  0  0
 16 15  1  0  0  0  0
 16 14  1  0  0  0  0
 17 18  1  0  0  0  0
 17  4  1  0  0  0  0
 20 19  1  0  0  0  0
 21 22  2  0  0  0  0
 21 20  1  0  0  0  0
 23 21  1  0  0  0  0
 24 23  1  0  0  0  0
 25 24  1  0  0  0  0
M  END
>  <MODEL>
1

>  <REMARK>
 VINA RESULT:      -7.0      0.000      0.000
  Name = 
  7 active torsions:
  status: ('A' for Active; 'I' for Inactive)
    1  A    between atoms: O_2  and  C_7
    2  A    between atoms: O_2  and  C_21
    3  A    between atoms: N_5  and  C_10
    4  A    between atoms: N_5  and  C_17
    5  A    between atoms: C_6  and  C_15
    6  A    between atoms: C_6  and  C_23
    7  A    between atoms: C_15  and  C_21
                            x       y       z     vdW  Elec       q    Type
                         _______ _______ _______ _____ _____    ______ ____

>  <TORSDO>
F 7

$$$$
=
 OpenBabel11052422183D

 25 27  0  0  1  0  0  0  0  0999 V2000
  161.0230  204.7640  148.3880 C   0  0  0  0  0  0  0  0  0  0  0  0
  161.2500  205.6220  149.4860 C   0  0  0  0  0  0  0  0  0  0  0  0
  160.6370  202.9620  149.8890 C   0  0  0  0  0  3  0  0  0  0  0  0
  161.1130  205.2250  147.0250 N   0  0  0  0  0  0  0  0  0  0  0  0
  160.8380  203.7750  150.9570 N   0  0  0  0  0  0  0  0  0  0  0  0
  161.3750  205.9230  151.8940 C   0  0  0  0  0  0  0  0  0  0  0  0
  161.2730  205.4020  153.2870 C   0  0  0  0  0  1  0  0  0  0  0  0
  161.6050  206.9650  149.3270 C   0  0  0  0  0  3  0  0  0  0  0  0
  160.7330  203.4550  148.6280 N   0  0  0  0  0  0  0  0  0  0  0  0
  161.7100  207.2270  151.6980 N   0  0  0  0  0  0  0  0  0  0  0  0
  161.8240  207.7600  150.4520 C   0  0  0  0  0  0  0  0  0  0  0  0
  161.1440  205.0880  150.7870 C   0  0  0  0  0  0  0  0  0  0  0  0
  163.8520  205.0330  146.7310 C   0  0  0  0  0  1  0  0  0  0  0  0
  161.5010  204.2690  145.9810 C   0  0  2  0  0  3  0  0  0  0  0  0
  163.0250  204.1100  145.8470 C   0  0  1  0  0  3  0  0  0  0  0  0
  162.2560  204.9520  144.8530 C   0  0  0  0  0  2  0  0  0  0  0  0
  160.3750  206.4180  146.6210 C   0  0  0  0  0  2  0  0  0  0  0  0
  159.6730  206.1650  145.4420 O   0  0  0  0  0  1  0  0  0  0  0  0
  162.2200  209.1860  150.2890 C   0  0  0  0  0  2  0  0  0  0  0  0
  161.9980  209.6230  148.8530 C   0  0  0  0  0  2  0  0  0  0  0  0
  162.0760  211.1060  148.7610 C   0  0  0  0  0  0  0  0  0  0  0  0
  161.4010  211.8140  149.5560 O   0  0  0  0  0  0  0  0  0  0  0  0
  162.9180  211.6930  147.8160 O   0  0  0  0  0  0  0  0  0  0  0  0
  162.6900  213.0040  147.3230 C   0  0  0  0  0  2  0  0  0  0  0  0
  161.7140  212.9540  146.2510 N   0  0  0  0  0  1  0  0  0  0  0  0
  1  9  2  0  0  0  0
  1  2  1  0  0  0  0
  2 12  1  0  0  0  0
  3  5  2  0  0  0  0
  4  1  1  0  0  0  0
  6  7  1  0  0  0  0
  8  2  2  0  0  0  0
  8 11  1  0  0  0  0
  9  3  1  0  0  0  0
 10  6  1  0  0  0  0
 11 10  2  0  0  0  0
 12  5  1  0  0  0  0
 12  6  2  0  0  0  0
 14  4  1  1  0  0  0
 15 14  1  0  0  0  0
 15 13  1  1  0  0  0
 16 15  1  0  0  0  0
 16 14  1  0  0  0  0
 17  4  1  0  0  0  0
 18 17  1  0  0  0  0
 19 11  1  0  0  0  0
 20 19  1  0  0  0  0
 21 20  1  0  0  0  0
 21 22  2  0  0  0  0
 23 21  1  0  0  0  0
 24 23  1  0  0  0  0
 25 24  1  0  0  0  0
M  END
>  <MODEL>
2

>  <REMARK>
 VINA RESULT:      -6.9      3.059      6.216
  Name = 
  7 active torsions:
  status: ('A' for Active; 'I' for Inactive)
    1  A    between atoms: O_2  and  C_7
    2  A    between atoms: O_2  and  C_21
    3  A    between atoms: N_5  and  C_10
    4  A    between atoms: N_5  and  C_17
    5  A    between atoms: C_6  and  C_15
    6  A    between atoms: C_6  and  C_23
    7  A    between atoms: C_15  and  C_21
                            x       y       z     vdW  Elec       q    Type
                         _______ _______ _______ _____ _____    ______ ____

>  <TORSDO>
F 7

$$$$
=
 OpenBabel11052422183D

 25 27  0  0  1  0  0  0  0  0999 V2000
  161.0030  204.6560  148.3050 C   0  0  0  0  0  0  0  0  0  0  0  0
  161.2160  205.4970  149.4190 C   0  0  0  0  0  0  0  0  0  0  0  0
  160.6800  202.8130  149.7720 C   0  0  0  0  0  3  0  0  0  0  0  0
  161.0690  205.1460  146.9510 N   0  0  0  0  0  0  0  0  0  0  0  0
  160.8680  203.6100  150.8550 N   0  0  0  0  0  0  0  0  0  0  0  0
  161.3540  205.7530  151.8310 C   0  0  0  0  0  0  0  0  0  0  0  0
  161.2780  205.2010  153.2140 C   0  0  0  0  0  1  0  0  0  0  0  0
  161.5320  206.8530  149.2840 C   0  0  0  0  0  3  0  0  0  0  0  0
  160.7520  203.3340  148.5210 N   0  0  0  0  0  0  0  0  0  0  0  0
  161.6500  207.0690  151.6590 N   0  0  0  0  0  0  0  0  0  0  0  0
  161.7390  207.6310  150.4230 C   0  0  0  0  0  0  0  0  0  0  0  0
  161.1360  204.9340  150.7090 C   0  0  0  0  0  0  0  0  0  0  0  0
  163.8110  204.9880  146.6730 C   0  0  0  0  0  1  0  0  0  0  0  0
  161.4740  204.2220  145.8850 C   0  0  2  0  0  3  0  0  0  0  0  0
  163.0010  204.0820  145.7590 C   0  0  1  0  0  3  0  0  0  0  0  0
  162.2300  204.9430  144.7810 C   0  0  0  0  0  2  0  0  0  0  0  0
  160.2940  206.3260  146.5770 C   0  0  0  0  0  2  0  0  0  0  0  0
  159.6990  206.1270  145.3310 O   0  0  0  0  0  1  0  0  0  0  0  0
  162.0940  209.0700  150.2850 C   0  0  0  0  0  2  0  0  0  0  0  0
  162.3100  209.6830  151.6560 C   0  0  0  0  0  2  0  0  0  0  0  0
  161.0770  210.3950  152.0880 C   0  0  0  0  0  0  0  0  0  0  0  0
  160.7540  211.4760  151.5280 O   0  0  0  0  0  0  0  0  0  0  0  0
  160.2790  209.8400  153.0890 O   0  0  0  0  0  0  0  0  0  0  0  0
  160.7120  209.7710  154.4390 C   0  0  0  0  0  2  0  0  0  0  0  0
  160.7360  208.3850  154.8670 N   0  0  0  0  0  1  0  0  0  0  0  0
  1  9  2  0  0  0  0
  1  2  1  0  0  0  0
  2 12  1  0  0  0  0
  3  5  2  0  0  0  0
  4  1  1  0  0  0  0
  6  7  1  0  0  0  0
  8  2  2  0  0  0  0
  8 11  1  0  0  0  0
  9  3  1  0  0  0  0
 10  6  1  0  0  0  0
 11 10  2  0  0  0  0
 12  5  1  0  0  0  0
 12  6  2  0  0  0  0
 14  4  1  1  0  0  0
 15 14  1  0  0  0  0
 15 13  1  1  0  0  0
 16 15  1  0  0  0  0
 16 14  1  0  0  0  0
 17  4  1  0  0  0  0
 18 17  1  0  0  0  0
 19 11  1  0  0  0  0
 19 20  1  0  0  0  0
 20 21  1  0  0  0  0
 21 23  1  0  0  0  0
 22 21  2  0  0  0  0
 23 24  1  0  0  0  0
 24 25  1  0  0  0  0
M  END
>  <MODEL>
3

>  <REMARK>
 VINA RESULT:      -6.8      3.280      6.230
  Name = 
  7 active torsions:
  status: ('A' for Active; 'I' for Inactive)
    1  A    between atoms: O_2  and  C_7
    2  A    between atoms: O_2  and  C_21
    3  A    between atoms: N_5  and  C_10
    4  A    between atoms: N_5  and  C_17
    5  A    between atoms: C_6  and  C_15
    6  A    between atoms: C_6  and  C_23
    7  A    between atoms: C_15  and  C_21
                            x       y       z     vdW  Elec       q    Type
                         _______ _______ _______ _____ _____    ______ ____

>  <TORSDO>
F 7

$$$$
=
 OpenBabel11052422183D

 25 27  0  0  1  0  0  0  0  0999 V2000
  160.7480  208.5420  153.9240 C   0  0  0  0  0  0  0  0  0  0  0  0
  161.0000  207.7640  152.7730 C   0  0  0  0  0  0  0  0  0  0  0  0
  160.5980  206.5560  155.2210 C   0  0  0  0  0  3  0  0  0  0  0  0
  160.6750  209.9810  153.8750 N   0  0  0  0  0  0  0  0  0  0  0  0
  160.8530  205.7930  154.1290 N   0  0  0  0  0  0  0  0  0  0  0  0
  161.2920  205.5680  151.7760 C   0  0  0  0  0  0  0  0  0  0  0  0
  161.3570  204.0820  151.8740 C   0  0  0  0  0  1  0  0  0  0  0  0
  161.1670  208.3320  151.5060 C   0  0  0  0  0  3  0  0  0  0  0  0
  160.5440  207.9080  155.1120 N   0  0  0  0  0  0  0  0  0  0  0  0
  161.4590  206.1590  150.5620 N   0  0  0  0  0  0  0  0  0  0  0  0
  161.4050  207.5090  150.4050 C   0  0  0  0  0  0  0  0  0  0  0  0
  161.0520  206.3610  152.9100 C   0  0  0  0  0  0  0  0  0  0  0  0
  158.5790  211.3280  152.6840 C   0  0  0  0  0  1  0  0  0  0  0  0
  159.8290  210.6780  154.8500 C   0  0  2  0  0  3  0  0  0  0  0  0
  158.6240  211.3850  154.2040 C   0  0  1  0  0  3  0  0  0  0  0  0
  159.8410  212.1810  154.6230 C   0  0  0  0  0  2  0  0  0  0  0  0
  161.7570  210.7330  153.2450 C   0  0  0  0  0  2  0  0  0  0  0  0
  162.9220  210.6110  154.0030 O   0  0  0  0  0  1  0  0  0  0  0  0
  161.5660  208.1060  149.0520 C   0  0  0  0  0  2  0  0  0  0  0  0
  162.5200  207.2660  148.2240 C   0  0  0  0  0  2  0  0  0  0  0  0
  161.7610  206.5270  147.1790 C   0  0  0  0  0  0  0  0  0  0  0  0
  160.5060  206.4460  147.2610 O   0  0  0  0  0  0  0  0  0  0  0  0
  162.4470  205.9590  146.1050 O   0  0  0  0  0  0  0  0  0  0  0  0
  161.8980  204.8930  145.3450 C   0  0  0  0  0  2  0  0  0  0  0  0
  161.4060  205.4050  144.0800 N   0  0  0  0  0  1  0  0  0  0  0  0
  1  9  1  0  0  0  0
  2 12  1  0  0  0  0
  2  1  2  0  0  0  0
  4  1  1  0  0  0  0
  5  3  1  0  0  0  0
  6  7  1  0  0  0  0
  6 12  1  0  0  0  0
  8  2  1  0  0  0  0
  9  3  2  0  0  0  0
 10  6  2  0  0  0  0
 11 10  1  0  0  0  0
 11  8  2  0  0  0  0
 12  5  2  0  0  0  0
 14  4  1  6  0  0  0
 15 13  1  6  0  0  0
 15 16  1  0  0  0  0
 15 14  1  0  0  0  0
 16 14  1  0  0  0  0
 17  4  1  0  0  0  0
 17 18  1  0  0  0  0
 19 11  1  0  0  0  0
 20 19  1  0  0  0  0
 21 22  2  0  0  0  0
 21 20  1  0  0  0  0
 23 21  1  0  0  0  0
 24 23  1  0  0  0  0
 25 24  1  0  0  0  0
M  END
>  <MODEL>
4

>  <REMARK>
 VINA RESULT:      -6.8      3.728      6.972
  Name = 
  7 active torsions:
  status: ('A' for Active; 'I' for Inactive)
    1  A    between atoms: O_2  and  C_7
    2  A    between atoms: O_2  and  C_21
    3  A    between atoms: N_5  and  C_10
    4  A    between atoms: N_5  and  C_17
    5  A    between atoms: C_6  and  C_15
    6  A    between atoms: C_6  and  C_23
    7  A    between atoms: C_15  and  C_21
                            x       y       z     vdW  Elec       q    Type
                         _______ _______ _______ _____ _____    ______ ____

>  <TORSDO>
F 7

$$$$
=
 OpenBabel11052422183D

 25 27  0  0  1  0  0  0  0  0999 V2000
  161.0450  204.0580  147.6490 C   0  0  0  0  0  0  0  0  0  0  0  0
  161.1140  204.5150  148.9830 C   0  0  0  0  0  0  0  0  0  0  0  0
  160.6670  201.8470  148.4380 C   0  0  0  0  0  3  0  0  0  0  0  0
  161.2170  204.9440  146.5250 N   0  0  0  0  0  0  0  0  0  0  0  0
  160.7160  202.2710  149.7260 N   0  0  0  0  0  0  0  0  0  0  0  0
  161.0130  204.0130  151.3570 C   0  0  0  0  0  0  0  0  0  0  0  0
  160.8310  203.0580  152.4890 C   0  0  0  0  0  1  0  0  0  0  0  0
  161.3810  205.8500  149.3050 C   0  0  0  0  0  3  0  0  0  0  0  0
  160.8340  202.7310  147.4210 N   0  0  0  0  0  0  0  0  0  0  0  0
  161.2650  205.3210  151.6300 N   0  0  0  0  0  0  0  0  0  0  0  0
  161.4460  206.2390  150.6420 C   0  0  0  0  0  0  0  0  0  0  0  0
  160.9390  203.5790  150.0230 C   0  0  0  0  0  0  0  0  0  0  0  0
  163.9660  204.7040  146.5850 C   0  0  0  0  0  1  0  0  0  0  0  0
  161.7610  204.4020  145.2750 C   0  0  2  0  0  3  0  0  0  0  0  0
  163.2860  204.2090  145.3170 C   0  0  1  0  0  3  0  0  0  0  0  0
  162.6870  205.3960  144.5940 C   0  0  0  0  0  2  0  0  0  0  0  0
  160.4290  206.1720  146.4540 C   0  0  0  0  0  2  0  0  0  0  0  0
  159.7070  206.2030  145.2610 O   0  0  0  0  0  1  0  0  0  0  0  0
  161.7480  207.6540  150.9910 C   0  0  0  0  0  2  0  0  0  0  0  0
  160.8440  208.1140  152.1200 C   0  0  0  0  0  2  0  0  0  0  0  0
  161.1550  209.5260  152.4690 C   0  0  0  0  0  0  0  0  0  0  0  0
  162.3320  209.9550  152.3370 O   0  0  0  0  0  0  0  0  0  0  0  0
  160.1310  210.3650  152.9100 O   0  0  0  0  0  0  0  0  0  0  0  0
  160.3570  211.3730  153.8840 C   0  0  0  0  0  2  0  0  0  0  0  0
  159.6220  212.5690  153.5210 N   0  0  0  0  0  1  0  0  0  0  0  0
  1  2  1  0  0  0  0
  2  8  2  0  0  0  0
  2 12  1  0  0  0  0
  3  5  2  0  0  0  0
  4  1  1  0  0  0  0
  5 12  1  0  0  0  0
  6 10  1  0  0  0  0
  6  7  1  0  0  0  0
  8 11  1  0  0  0  0
  9  1  2  0  0  0  0
  9  3  1  0  0  0  0
 11 19  1  0  0  0  0
 11 10  2  0  0  0  0
 12  6  2  0  0  0  0
 14 15  1  0  0  0  0
 14  4  1  1  0  0  0
 15 13  1  1  0  0  0
 16 14  1  0  0  0  0
 16 15  1  0  0  0  0
 17  4  1  0  0  0  0
 18 17  1  0  0  0  0
 19 20  1  0  0  0  0
 20 21  1  0  0  0  0
 21 23  1  0  0  0  0
 22 21  2  0  0  0  0
 23 24  1  0  0  0  0
 25 24  1  0  0  0  0
M  END
>  <MODEL>
5

>  <REMARK>
 VINA RESULT:      -6.6      3.390      6.334
  Name = 
  7 active torsions:
  status: ('A' for Active; 'I' for Inactive)
    1  A    between atoms: O_2  and  C_7
    2  A    between atoms: O_2  and  C_21
    3  A    between atoms: N_5  and  C_10
    4  A    between atoms: N_5  and  C_17
    5  A    between atoms: C_6  and  C_15
    6  A    between atoms: C_6  and  C_23
    7  A    between atoms: C_15  and  C_21
                            x       y       z     vdW  Elec       q    Type
                         _______ _______ _______ _____ _____    ______ ____

>  <TORSDO>
F 7

$$$$
=
 OpenBabel11052422183D

 25 27  0  0  1  0  0  0  0  0999 V2000
  160.9960  208.6430  153.9680 C   0  0  0  0  0  0  0  0  0  0  0  0
  161.3270  208.7330  152.5990 C   0  0  0  0  0  0  0  0  0  0  0  0
  160.7560  206.2890  153.7450 C   0  0  0  0  0  3  0  0  0  0  0  0
  160.9270  209.8060  154.8170 N   0  0  0  0  0  0  0  0  0  0  0  0
  161.0860  206.3540  152.4310 N   0  0  0  0  0  0  0  0  0  0  0  0
  161.6880  207.6140  150.4730 C   0  0  0  0  0  0  0  0  0  0  0  0
  161.7450  206.3840  149.6320 C   0  0  0  0  0  1  0  0  0  0  0  0
  161.5820  209.9550  151.9670 C   0  0  0  0  0  3  0  0  0  0  0  0
  160.7100  207.4190  154.4950 N   0  0  0  0  0  0  0  0  0  0  0  0
  161.9380  208.8200  149.8970 N   0  0  0  0  0  0  0  0  0  0  0  0
  161.8960  209.9790  150.6090 C   0  0  0  0  0  0  0  0  0  0  0  0
  161.3690  207.5450  151.8400 C   0  0  0  0  0  0  0  0  0  0  0  0
  158.6000  211.2160  154.3450 C   0  0  0  0  0  1  0  0  0  0  0  0
  160.0150  209.7870  155.9670 C   0  0  2  0  0  3  0  0  0  0  0  0
  158.6900  210.5200  155.6960 C   0  0  1  0  0  3  0  0  0  0  0  0
  159.7770  211.1860  156.5120 C   0  0  0  0  0  2  0  0  0  0  0  0
  162.0500  210.7380  154.8490 C   0  0  0  0  0  2  0  0  0  0  0  0
  162.9170  210.4010  155.8880 O   0  0  0  0  0  1  0  0  0  0  0  0
  162.1500  211.2780  149.9280 C   0  0  0  0  0  2  0  0  0  0  0  0
  161.9350  211.1300  148.4330 C   0  0  0  0  0  2  0  0  0  0  0  0
  161.4680  212.4210  147.8620 C   0  0  0  0  0  0  0  0  0  0  0  0
  160.7020  213.1590  148.5370 O   0  0  0  0  0  0  0  0  0  0  0  0
  161.9080  212.8120  146.5970 O   0  0  0  0  0  0  0  0  0  0  0  0
  161.0070  212.9990  145.5160 C   0  0  0  0  0  2  0  0  0  0  0  0
  159.8680  212.1160  145.6790 N   0  0  0  0  0  1  0  0  0  0  0  0
  1  9  1  0  0  0  0
  1  4  1  0  0  0  0
  2  1  2  0  0  0  0
  3  9  2  0  0  0  0
  4 17  1  0  0  0  0
  5  3  1  0  0  0  0
  6 12  1  0  0  0  0
  7  6  1  0  0  0  0
  8  2  1  0  0  0  0
 10  6  2  0  0  0  0
 10 11  1  0  0  0  0
 11  8  2  0  0  0  0
 12  5  2  0  0  0  0
 12  2  1  0  0  0  0
 14  4  1  6  0  0  0
 14 16  1  0  0  0  0
 15 13  1  6  0  0  0
 15 14  1  0  0  0  0
 15 16  1  0  0  0  0
 17 18  1  0  0  0  0
 19 11  1  0  0  0  0
 20 19  1  0  0  0  0
 21 20  1  0  0  0  0
 21 22  2  0  0  0  0
 23 21  1  0  0  0  0
 24 25  1  0  0  0  0
 24 23  1  0  0  0  0
M  END
>  <MODEL>
6

>  <REMARK>
 VINA RESULT:      -6.1      5.521      9.163
  Name = 
  7 active torsions:
  status: ('A' for Active; 'I' for Inactive)
    1  A    between atoms: O_2  and  C_7
    2  A    between atoms: O_2  and  C_21
    3  A    between atoms: N_5  and  C_10
    4  A    between atoms: N_5  and  C_17
    5  A    between atoms: C_6  and  C_15
    6  A    between atoms: C_6  and  C_23
    7  A    between atoms: C_15  and  C_21
                            x       y       z     vdW  Elec       q    Type
                         _______ _______ _______ _____ _____    ______ ____

>  <TORSDO>
F 7

$$$$
=
 OpenBabel11052422183D

 25 27  0  0  1  0  0  0  0  0999 V2000
  161.3870  204.3480  148.1540 C   0  0  0  0  0  0  0  0  0  0  0  0
  161.2710  204.6410  149.5300 C   0  0  0  0  0  0  0  0  0  0  0  0
  160.8590  202.0750  148.6040 C   0  0  0  0  0  3  0  0  0  0  0  0
  161.7340  205.3550  147.1830 N   0  0  0  0  0  0  0  0  0  0  0  0
  160.7300  202.3400  149.9290 N   0  0  0  0  0  0  0  0  0  0  0  0
  160.8190  203.8640  151.7870 C   0  0  0  0  0  0  0  0  0  0  0  0
  160.4590  202.7890  152.7560 C   0  0  0  0  0  1  0  0  0  0  0  0
  161.5130  205.9180  150.0480 C   0  0  0  0  0  3  0  0  0  0  0  0
  161.1860  203.0660  147.7380 N   0  0  0  0  0  0  0  0  0  0  0  0
  161.0530  205.1210  152.2510 N   0  0  0  0  0  0  0  0  0  0  0  0
  161.3900  206.1430  151.4190 C   0  0  0  0  0  0  0  0  0  0  0  0
  160.9300  203.5950  150.4120 C   0  0  0  0  0  0  0  0  0  0  0  0
  160.2250  205.7360  144.9020 C   0  0  0  0  0  1  0  0  0  0  0  0
  162.4430  204.9470  145.9650 C   0  0  2  0  0  3  0  0  0  0  0  0
  161.6350  205.2070  144.6820 C   0  0  1  0  0  3  0  0  0  0  0  0
  161.7240  203.8100  145.2570 C   0  0  0  0  0  2  0  0  0  0  0  0
  160.9870  206.6100  147.1520 C   0  0  0  0  0  2  0  0  0  0  0  0
  161.8270  207.6700  147.4930 O   0  0  0  0  0  1  0  0  0  0  0  0
  161.6640  207.4950  151.9770 C   0  0  0  0  0  2  0  0  0  0  0  0
  162.2210  208.3990  150.8940 C   0  0  0  0  0  2  0  0  0  0  0  0
  162.0720  209.8220  151.3010 C   0  0  0  0  0  0  0  0  0  0  0  0
  162.3560  210.1660  152.4790 O   0  0  0  0  0  0  0  0  0  0  0  0
  161.6460  210.7630  150.3630 O   0  0  0  0  0  0  0  0  0  0  0  0
  162.3090  210.9330  149.1190 C   0  0  0  0  0  2  0  0  0  0  0  0
  161.9330  212.2090  148.5410 N   0  0  0  0  0  1  0  0  0  0  0  0
  1  2  1  0  0  0  0
  2  8  2  0  0  0  0
  2 12  1  0  0  0  0
  3  5  2  0  0  0  0
  4  1  1  0  0  0  0
  5 12  1  0  0  0  0
  6 10  1  0  0  0  0
  6  7  1  0  0  0  0
  8 11  1  0  0  0  0
  9  1  2  0  0  0  0
  9  3  1  0  0  0  0
 11 19  1  0  0  0  0
 11 10  2  0  0  0  0
 12  6  2  0  0  0  0
 14  4  1  1  0  0  0
 15 13  1  1  0  0  0
 15 16  1  0  0  0  0
 15 14  1  0  0  0  0
 16 14  1  0  0  0  0
 17  4  1  0  0  0  0
 17 18  1  0  0  0  0
 20 21  1  0  0  0  0
 20 19  1  0  0  0  0
 21 22  2  0  0  0  0
 23 21  1  0  0  0  0
 24 23  1  0  0  0  0
 25 24  1  0  0  0  0
M  END
>  <MODEL>
7

>  <REMARK>
 VINA RESULT:      -5.8      2.887      5.762
  Name = 
  7 active torsions:
  status: ('A' for Active; 'I' for Inactive)
    1  A    between atoms: O_2  and  C_7
    2  A    between atoms: O_2  and  C_21
    3  A    between atoms: N_5  and  C_10
    4  A    between atoms: N_5  and  C_17
    5  A    between atoms: C_6  and  C_15
    6  A    between atoms: C_6  and  C_23
    7  A    between atoms: C_15  and  C_21
                            x       y       z     vdW  Elec       q    Type
                         _______ _______ _______ _____ _____    ______ ____

>  <TORSDO>
F 7

$$$$
=
 OpenBabel11052422183D

 25 27  0  0  1  0  0  0  0  0999 V2000
  161.1100  204.9950  149.5150 C   0  0  0  0  0  0  0  0  0  0  0  0
  161.2930  206.2990  150.0240 C   0  0  0  0  0  0  0  0  0  0  0  0
  161.6610  205.7770  147.3390 C   0  0  0  0  0  3  0  0  0  0  0  0
  160.7150  203.8920  150.3560 N   0  0  0  0  0  0  0  0  0  0  0  0
  161.8540  207.0340  147.8130 N   0  0  0  0  0  0  0  0  0  0  0  0
  161.8540  208.6260  149.6140 C   0  0  0  0  0  0  0  0  0  0  0  0
  162.2620  209.7360  148.7060 C   0  0  0  0  0  1  0  0  0  0  0  0
  161.0750  206.6160  151.3680 C   0  0  0  0  0  3  0  0  0  0  0  0
  161.2910  204.7800  148.1820 N   0  0  0  0  0  0  0  0  0  0  0  0
  161.6420  208.8930  150.9310 N   0  0  0  0  0  0  0  0  0  0  0  0
  161.2640  207.9260  151.8090 C   0  0  0  0  0  0  0  0  0  0  0  0
  161.6770  207.3190  149.1300 C   0  0  0  0  0  0  0  0  0  0  0  0
  162.0090  201.4630  150.5750 C   0  0  0  0  0  1  0  0  0  0  0  0
  159.9480  202.7910  149.7630 C   0  0  2  0  0  3  0  0  0  0  0  0
  160.6320  201.4230  149.9290 C   0  0  1  0  0  3  0  0  0  0  0  0
  160.6960  202.1520  148.6040 C   0  0  0  0  0  2  0  0  0  0  0  0
  161.4590  203.6250  151.5840 C   0  0  0  0  0  2  0  0  0  0  0  0
  160.5910  203.6350  152.6760 O   0  0  0  0  0  1  0  0  0  0  0  0
  161.0170  208.2730  153.2350 C   0  0  0  0  0  2  0  0  0  0  0  0
  160.7900  207.0090  154.0430 C   0  0  0  0  0  2  0  0  0  0  0  0
  160.6760  207.3500  155.4870 C   0  0  0  0  0  0  0  0  0  0  0  0
  159.6230  207.0560  156.1140 O   0  0  0  0  0  0  0  0  0  0  0  0
  161.7490  207.9640  156.1340 O   0  0  0  0  0  0  0  0  0  0  0  0
  161.5900  209.1710  156.8640 C   0  0  0  0  0  2  0  0  0  0  0  0
  162.7700  209.9970  156.6920 N   0  0  0  0  0  1  0  0  0  0  0  0
  1  2  1  0  0  0  0
  1  4  1  0  0  0  0
  2  8  1  0  0  0  0
  3  5  2  0  0  0  0
  3  9  1  0  0  0  0
  4 17  1  0  0  0  0
  5 12  1  0  0  0  0
  6 10  2  0  0  0  0
  7  6  1  0  0  0  0
  8 11  2  0  0  0  0
  9  1  2  0  0  0  0
 10 11  1  0  0  0  0
 11 19  1  0  0  0  0
 12  6  1  0  0  0  0
 12  2  2  0  0  0  0
 14 15  1  0  0  0  0
 14  4  1  1  0  0  0
 15 13  1  1  0  0  0
 16 14  1  0  0  0  0
 16 15  1  0  0  0  0
 17 18  1  0  0  0  0
 19 20  1  0  0  0  0
 20 21  1  0  0  0  0
 21 22  2  0  0  0  0
 21 23  1  0  0  0  0
 23 24  1  0  0  0  0
 25 24  1  0  0  0  0
M  END
>  <MODEL>
8

>  <REMARK>
 VINA RESULT:      -5.7      3.755      7.036
  Name = 
  7 active torsions:
  status: ('A' for Active; 'I' for Inactive)
    1  A    between atoms: O_2  and  C_7
    2  A    between atoms: O_2  and  C_21
    3  A    between atoms: N_5  and  C_10
    4  A    between atoms: N_5  and  C_17
    5  A    between atoms: C_6  and  C_15
    6  A    between atoms: C_6  and  C_23
    7  A    between atoms: C_15  and  C_21
                            x       y       z     vdW  Elec       q    Type
                         _______ _______ _______ _____ _____    ______ ____

>  <TORSDO>
F 7

$$$$
=
 OpenBabel11052422183D

 25 27  0  0  1  0  0  0  0  0999 V2000
  158.8950  212.8920  155.0710 C   0  0  0  0  0  0  0  0  0  0  0  0
  159.8000  211.8360  154.8340 C   0  0  0  0  0  0  0  0  0  0  0  0
  160.0410  213.4080  157.0890 C   0  0  0  0  0  3  0  0  0  0  0  0
  157.8090  213.1890  154.1700 N   0  0  0  0  0  0  0  0  0  0  0  0
  160.9290  212.4050  156.8700 N   0  0  0  0  0  0  0  0  0  0  0  0
  161.7370  210.5610  155.5570 C   0  0  0  0  0  0  0  0  0  0  0  0
  162.8440  210.2900  156.5190 C   0  0  0  0  0  1  0  0  0  0  0  0
  159.6890  210.9880  153.7270 C   0  0  0  0  0  3  0  0  0  0  0  0
  159.0400  213.6400  156.2010 N   0  0  0  0  0  0  0  0  0  0  0  0
  161.6020  209.7630  154.4630 N   0  0  0  0  0  0  0  0  0  0  0  0
  160.6100  209.9550  153.5520 C   0  0  0  0  0  0  0  0  0  0  0  0
  160.8310  211.6130  155.7700 C   0  0  0  0  0  0  0  0  0  0  0  0
  155.9560  211.3100  154.9810 C   0  0  0  0  0  1  0  0  0  0  0  0
  156.5890  213.7990  154.7100 C   0  0  2  0  0  3  0  0  0  0  0  0
  155.5730  212.7630  155.2190 C   0  0  1  0  0  3  0  0  0  0  0  0
  155.3700  213.4370  153.8790 C   0  0  0  0  0  2  0  0  0  0  0  0
  158.0860  213.3550  152.7450 C   0  0  0  0  0  2  0  0  0  0  0  0
  158.9560  214.4280  152.5530 O   0  0  0  0  0  1  0  0  0  0  0  0
  160.4860  209.0390  152.3860 C   0  0  0  0  0  2  0  0  0  0  0  0
  160.9830  207.6550  152.7600 C   0  0  0  0  0  2  0  0  0  0  0  0
  161.5630  206.9890  151.5620 C   0  0  0  0  0  0  0  0  0  0  0  0
  161.2740  205.7880  151.3170 O   0  0  0  0  0  0  0  0  0  0  0  0
  162.3970  207.7140  150.7100 O   0  0  0  0  0  0  0  0  0  0  0  0
  162.3270  207.5760  149.2990 C   0  0  0  0  0  2  0  0  0  0  0  0
  161.9560  208.8470  148.7070 N   0  0  0  0  0  1  0  0  0  0  0  0
  1  9  1  0  0  0  0
  2  1  2  0  0  0  0
  2 12  1  0  0  0  0
  4  1  1  0  0  0  0
  5  3  1  0  0  0  0
  6 12  1  0  0  0  0
  6  7  1  0  0  0  0
  8  2  1  0  0  0  0
  9  3  2  0  0  0  0
 10  6  2  0  0  0  0
 11  8  2  0  0  0  0
 11 10  1  0  0  0  0
 12  5  2  0  0  0  0
 14  4  1  6  0  0  0
 14 15  1  0  0  0  0
 15 13  1  6  0  0  0
 16 14  1  0  0  0  0
 16 15  1  0  0  0  0
 17  4  1  0  0  0  0
 18 17  1  0  0  0  0
 19 20  1  0  0  0  0
 19 11  1  0  0  0  0
 21 20  1  0  0  0  0
 22 21  2  0  0  0  0
 23 21  1  0  0  0  0
 24 23  1  0  0  0  0
 25 24  1  0  0  0  0
M  END
>  <MODEL>
9

>  <REMARK>
 VINA RESULT:      -5.7      6.626      9.534
  Name = 
  7 active torsions:
  status: ('A' for Active; 'I' for Inactive)
    1  A    between atoms: O_2  and  C_7
    2  A    between atoms: O_2  and  C_21
    3  A    between atoms: N_5  and  C_10
    4  A    between atoms: N_5  and  C_17
    5  A    between atoms: C_6  and  C_15
    6  A    between atoms: C_6  and  C_23
    7  A    between atoms: C_15  and  C_21
                            x       y       z     vdW  Elec       q    Type
                         _______ _______ _______ _____ _____    ______ ____

>  <TORSDO>
F 7

$$$$
