=
 OpenBabel11052421503D

 30 32  0  0  1  0  0  0  0  0999 V2000
  160.7830  208.1460  152.6840 C   0  0  0  0  0  0  0  0  0  0  0  0
  160.7900  207.5750  153.9590 C   0  0  0  0  0  3  0  0  0  0  0  0
  160.4880  209.4980  152.5490 O   0  0  0  0  0  1  0  0  0  0  0  0
  161.3620  205.9810  151.7210 C   0  0  0  0  0  0  0  0  0  0  0  0
  161.0800  206.2200  154.1200 C   0  0  0  0  0  3  0  0  0  0  0  0
  161.0720  207.3580  151.5540 C   0  0  0  0  0  0  0  0  0  0  0  0
  161.3620  205.4290  153.0070 C   0  0  0  0  0  3  0  0  0  0  0  0
  160.8220  202.9260  149.6690 C   0  0  0  0  0  3  0  0  0  0  0  0
  161.1270  203.1590  145.6320 O   0  0  0  0  0  0  0  0  0  0  0  0
  160.9700  203.4580  148.3450 N   0  0  0  0  0  0  0  0  0  0  0  0
  161.0910  203.6680  150.7440 C   0  0  0  0  0  0  0  0  0  0  0  0
  161.2950  204.4050  145.5790 C   0  0  0  0  0  0  0  0  0  0  0  0
  161.3620  205.1970  146.7700 N   0  0  0  0  0  2  0  0  0  0  0  0
  161.2700  205.7040  149.2370 C   0  0  0  0  0  2  0  0  0  0  0  0
  161.0100  203.0280  152.0880 C   0  0  0  0  0  1  0  0  0  0  0  0
  161.2300  204.7110  148.1110 C   0  0  0  0  0  0  0  0  0  0  0  0
  161.4290  205.0680  144.2560 C   0  0  0  0  0  1  0  0  0  0  0  0
  161.6650  205.0570  150.5700 C   0  0  1  0  0  3  0  0  0  0  0  0
  161.0740  207.9860  150.1930 C   0  0  0  0  0  2  0  0  0  0  0  0
  162.2140  208.9790  150.0680 C   0  0  0  0  0  2  0  0  0  0  0  0
  162.0480  209.7720  148.7860 C   0  0  0  0  0  2  0  0  0  0  0  0
  162.2270  211.2660  149.0340 C   0  0  2  0  0  3  0  0  0  0  0  0
  161.4210  211.6530  150.1030 O   0  0  0  0  0  1  0  0  0  0  0  0
  160.9220  214.0150  147.2240 C   0  0  0  0  0  2  0  0  0  0  0  0
  161.8920  212.1230  147.8110 C   0  0  1  0  0  3  0  0  0  0  0  0
  160.1710  212.8530  146.6380 C   0  0  2  0  0  0  0  0  0  0  0  0
  160.6930  211.6990  147.2180 O   0  0  0  0  0  0  0  0  0  0  0  0
  161.8250  213.4870  148.1430 O   0  0  0  0  0  0  0  0  0  0  0  0
  160.3530  212.8150  145.2560 O   0  0  0  0  0  1  0  0  0  0  0  0
  158.6940  212.9680  146.9580 C   0  0  0  0  0  1  0  0  0  0  0  0
  1  2  1  0  0  0  0
  2  5  2  0  0  0  0
  3  1  1  0  0  0  0
  4  7  2  0  0  0  0
  6  4  1  0  0  0  0
  6  1  2  0  0  0  0
  7  5  1  0  0  0  0
  8 11  2  0  0  0  0
 10  8  1  0  0  0  0
 11 15  1  0  0  0  0
 12  9  2  0  0  0  0
 12 13  1  0  0  0  0
 13 16  1  0  0  0  0
 14 18  1  0  0  0  0
 16 10  2  0  0  0  0
 16 14  1  0  0  0  0
 17 12  1  0  0  0  0
 18 11  1  0  0  0  0
 18  4  1  1  0  0  0
 19  6  1  0  0  0  0
 20 19  1  0  0  0  0
 21 22  1  0  0  0  0
 21 20  1  0  0  0  0
 22 23  1  1  0  0  0
 24 28  1  0  0  0  0
 25 28  1  0  0  0  0
 25 22  1  1  0  0  0
 26 30  1  1  0  0  0
 26 27  1  0  0  0  0
 26 24  1  0  0  0  0
 27 25  1  0  0  0  0
 29 26  1  0  0  0  0
M  END
>  <MODEL>
1

>  <REMARK>
 VINA RESULT:      -9.4      0.000      0.000
  Name = 
  6 active torsions:
  status: ('A' for Active; 'I' for Inactive)
    1  A    between atoms: C_1  and  C_4
    2  A    between atoms: C_1  and  C_5
    3  A    between atoms: C_4  and  C_27
    4  A    between atoms: C_5  and  C_22
    5  A    between atoms: C_8  and  C_27
    6  A    between atoms: C_19  and  C_29
                            x       y       z     vdW  Elec       q    Type
                         _______ _______ _______ _____ _____    ______ ____

>  <TORSDO>
F 6

$$$$
=
 OpenBabel11052421503D

 30 32  0  0  1  0  0  0  0  0999 V2000
  161.4290  205.3360  147.1060 C   0  0  0  0  0  0  0  0  0  0  0  0
  161.6590  203.9770  146.8790 C   0  0  0  0  0  3  0  0  0  0  0  0
  161.5540  206.2300  146.0480 O   0  0  0  0  0  1  0  0  0  0  0  0
  160.9650  204.8570  149.4520 C   0  0  0  0  0  0  0  0  0  0  0  0
  161.5430  203.0610  147.9240 C   0  0  0  0  0  3  0  0  0  0  0  0
  161.0770  205.7900  148.3910 C   0  0  0  0  0  0  0  0  0  0  0  0
  161.2000  203.5000  149.2030 C   0  0  0  0  0  3  0  0  0  0  0  0
  161.2820  204.6410  153.1520 C   0  0  0  0  0  3  0  0  0  0  0  0
  161.1110  208.0330  155.3670 O   0  0  0  0  0  0  0  0  0  0  0  0
  161.2200  206.0280  153.5120 N   0  0  0  0  0  0  0  0  0  0  0  0
  161.0520  204.2420  151.9010 C   0  0  0  0  0  0  0  0  0  0  0  0
  161.0590  208.8300  154.3940 C   0  0  0  0  0  0  0  0  0  0  0  0
  161.0310  208.3530  153.0440 N   0  0  0  0  0  2  0  0  0  0  0  0
  161.1010  206.6730  151.1670 C   0  0  0  0  0  2  0  0  0  0  0  0
  161.0370  202.7800  151.6110 C   0  0  0  0  0  1  0  0  0  0  0  0
  161.0810  206.9800  152.6360 C   0  0  0  0  0  0  0  0  0  0  0  0
  161.0220  210.2930  154.6500 C   0  0  0  0  0  1  0  0  0  0  0  0
  160.6120  205.2520  150.8630 C   0  0  1  0  0  3  0  0  0  0  0  0
  160.8220  207.2490  148.6180 C   0  0  0  0  0  2  0  0  0  0  0  0
  162.1280  208.0180  148.6490 C   0  0  0  0  0  2  0  0  0  0  0  0
  161.8870  209.4320  148.1560 C   0  0  0  0  0  2  0  0  0  0  0  0
  162.3860  210.4610  149.1660 C   0  0  2  0  0  3  0  0  0  0  0  0
  161.8580  210.1650  150.4210 O   0  0  0  0  0  1  0  0  0  0  0  0
  160.4150  213.3970  148.9930 C   0  0  0  0  0  2  0  0  0  0  0  0
  162.0200  211.8990  148.7900 C   0  0  1  0  0  3  0  0  0  0  0  0
  160.6060  213.0480  147.5450 C   0  0  2  0  0  0  0  0  0  0  0  0
  161.4660  211.9530  147.5020 O   0  0  0  0  0  0  0  0  0  0  0  0
  161.1460  212.4680  149.7300 O   0  0  0  0  0  0  0  0  0  0  0  0
  161.1750  214.1260  146.8660 O   0  0  0  0  0  1  0  0  0  0  0  0
  159.2780  212.6870  146.9120 C   0  0  0  0  0  1  0  0  0  0  0  0
  1  6  1  0  0  0  0
  2  1  2  0  0  0  0
  2  5  1  0  0  0  0
  3  1  1  0  0  0  0
  5  7  2  0  0  0  0
  6 19  1  0  0  0  0
  6  4  2  0  0  0  0
  7  4  1  0  0  0  0
  8 10  1  0  0  0  0
 11  8  2  0  0  0  0
 12 17  1  0  0  0  0
 12  9  2  0  0  0  0
 13 12  1  0  0  0  0
 14 16  1  0  0  0  0
 15 11  1  0  0  0  0
 16 13  1  0  0  0  0
 16 10  2  0  0  0  0
 18  4  1  6  0  0  0
 18 14  1  0  0  0  0
 18 11  1  0  0  0  0
 19 20  1  0  0  0  0
 21 20  1  0  0  0  0
 21 22  1  0  0  0  0
 22 23  1  1  0  0  0
 24 28  1  0  0  0  0
 25 22  1  1  0  0  0
 25 28  1  0  0  0  0
 26 30  1  6  0  0  0
 26 24  1  0  0  0  0
 27 26  1  0  0  0  0
 27 25  1  0  0  0  0
 29 26  1  0  0  0  0
M  END
>  <MODEL>
2

>  <REMARK>
 VINA RESULT:      -9.0      2.184      5.006
  Name = 
  6 active torsions:
  status: ('A' for Active; 'I' for Inactive)
    1  A    between atoms: C_1  and  C_4
    2  A    between atoms: C_1  and  C_5
    3  A    between atoms: C_4  and  C_27
    4  A    between atoms: C_5  and  C_22
    5  A    between atoms: C_8  and  C_27
    6  A    between atoms: C_19  and  C_29
                            x       y       z     vdW  Elec       q    Type
                         _______ _______ _______ _____ _____    ______ ____

>  <TORSDO>
F 6

$$$$
=
 OpenBabel11052421503D

 30 32  0  0  1  0  0  0  0  0999 V2000
  161.0900  211.0310  151.1080 C   0  0  0  0  0  0  0  0  0  0  0  0
  160.1860  211.5350  152.0470 C   0  0  0  0  0  3  0  0  0  0  0  0
  161.5190  211.8520  150.0720 O   0  0  0  0  0  1  0  0  0  0  0  0
  161.0940  208.8890  152.2770 C   0  0  0  0  0  0  0  0  0  0  0  0
  159.7380  210.7300  153.0940 C   0  0  0  0  0  3  0  0  0  0  0  0
  161.5550  209.7060  151.2150 C   0  0  0  0  0  0  0  0  0  0  0  0
  160.1890  209.4150  153.2060 C   0  0  0  0  0  3  0  0  0  0  0  0
  161.1290  205.6230  154.0560 C   0  0  0  0  0  3  0  0  0  0  0  0
  161.1050  202.1840  151.9070 O   0  0  0  0  0  0  0  0  0  0  0  0
  161.0640  204.7100  152.9510 N   0  0  0  0  0  0  0  0  0  0  0  0
  161.2920  206.9310  153.8610 C   0  0  0  0  0  0  0  0  0  0  0  0
  160.9820  202.7290  150.7780 C   0  0  0  0  0  0  0  0  0  0  0  0
  160.9450  204.1530  150.6410 N   0  0  0  0  0  2  0  0  0  0  0  0
  160.9030  206.5630  151.3790 C   0  0  0  0  0  2  0  0  0  0  0  0
  161.4480  207.8140  155.0510 C   0  0  0  0  0  1  0  0  0  0  0  0
  161.0160  205.1030  151.7110 C   0  0  0  0  0  0  0  0  0  0  0  0
  160.8730  201.8770  149.5660 C   0  0  0  0  0  1  0  0  0  0  0  0
  161.5220  207.4560  152.4600 C   0  0  1  0  0  3  0  0  0  0  0  0
  162.5330  209.1810  150.2080 C   0  0  0  0  0  2  0  0  0  0  0  0
  161.8510  208.9550  148.8730 C   0  0  0  0  0  2  0  0  0  0  0  0
  162.1940  207.5670  148.3660 C   0  0  0  0  0  2  0  0  0  0  0  0
  161.0930  207.0220  147.4610 C   0  0  2  0  0  3  0  0  0  0  0  0
  160.2390  206.2180  148.2140 O   0  0  0  0  0  1  0  0  0  0  0  0
  160.9810  204.9270  144.6100 C   0  0  0  0  0  2  0  0  0  0  0  0
  161.6300  206.2190  146.2750 C   0  0  1  0  0  3  0  0  0  0  0  0
  161.8460  204.1440  145.5560 C   0  0  2  0  0  0  0  0  0  0  0  0
  162.0390  204.9400  146.6820 O   0  0  0  0  0  0  0  0  0  0  0  0
  160.6820  206.1310  145.2430 O   0  0  0  0  0  0  0  0  0  0  0  0
  163.0730  203.8620  144.9570 O   0  0  0  0  0  1  0  0  0  0  0  0
  161.1590  202.8520  145.9480 C   0  0  0  0  0  1  0  0  0  0  0  0
  1  6  2  0  0  0  0
  1  2  1  0  0  0  0
  2  5  2  0  0  0  0
  3  1  1  0  0  0  0
  4  7  2  0  0  0  0
  5  7  1  0  0  0  0
  6  4  1  0  0  0  0
 10  8  1  0  0  0  0
 11  8  2  0  0  0  0
 11 15  1  0  0  0  0
 12  9  2  0  0  0  0
 13 12  1  0  0  0  0
 13 16  1  0  0  0  0
 14 16  1  0  0  0  0
 14 18  1  0  0  0  0
 16 10  2  0  0  0  0
 17 12  1  0  0  0  0
 18  4  1  1  0  0  0
 18 11  1  0  0  0  0
 19  6  1  0  0  0  0
 20 19  1  0  0  0  0
 21 20  1  0  0  0  0
 22 23  1  1  0  0  0
 22 21  1  0  0  0  0
 24 28  1  0  0  0  0
 24 26  1  0  0  0  0
 25 27  1  0  0  0  0
 25 22  1  1  0  0  0
 26 30  1  1  0  0  0
 26 27  1  0  0  0  0
 28 25  1  0  0  0  0
 29 26  1  0  0  0  0
M  END
>  <MODEL>
3

>  <REMARK>
 VINA RESULT:      -9.0      2.558      5.583
  Name = 
  6 active torsions:
  status: ('A' for Active; 'I' for Inactive)
    1  A    between atoms: C_1  and  C_4
    2  A    between atoms: C_1  and  C_5
    3  A    between atoms: C_4  and  C_27
    4  A    between atoms: C_5  and  C_22
    5  A    between atoms: C_8  and  C_27
    6  A    between atoms: C_19  and  C_29
                            x       y       z     vdW  Elec       q    Type
                         _______ _______ _______ _____ _____    ______ ____

>  <TORSDO>
F 6

$$$$
=
 OpenBabel11052421503D

 30 32  0  0  1  0  0  0  0  0999 V2000
  161.6550  208.8090  156.4450 C   0  0  0  0  0  0  0  0  0  0  0  0
  162.2030  209.8330  157.2220 C   0  0  0  0  0  3  0  0  0  0  0  0
  161.9600  207.4880  156.7530 O   0  0  0  0  0  1  0  0  0  0  0  0
  160.5210  210.4740  155.0690 C   0  0  0  0  0  0  0  0  0  0  0  0
  161.9160  211.1670  156.9310 C   0  0  0  0  0  3  0  0  0  0  0  0
  160.8070  209.1180  155.3640 C   0  0  0  0  0  0  0  0  0  0  0  0
  161.0810  211.4830  155.8600 C   0  0  0  0  0  3  0  0  0  0  0  0
  157.6780  212.3430  153.5650 C   0  0  0  0  0  3  0  0  0  0  0  0
  158.1210  214.0380  149.9080 O   0  0  0  0  0  0  0  0  0  0  0  0
  158.2690  212.7990  152.3410 N   0  0  0  0  0  0  0  0  0  0  0  0
  158.3170  211.4870  154.3630 C   0  0  0  0  0  0  0  0  0  0  0  0
  159.3410  213.7580  149.7740 C   0  0  0  0  0  0  0  0  0  0  0  0
  160.0460  213.0120  150.7720 N   0  0  0  0  0  2  0  0  0  0  0  0
  160.4080  211.8120  152.9590 C   0  0  0  0  0  2  0  0  0  0  0  0
  157.6110  210.9780  155.5720 C   0  0  0  0  0  1  0  0  0  0  0  0
  159.4970  212.5280  152.0040 C   0  0  0  0  0  0  0  0  0  0  0  0
  160.0630  214.2080  148.5560 C   0  0  0  0  0  1  0  0  0  0  0  0
  159.6400  210.9000  153.9220 C   0  0  1  0  0  3  0  0  0  0  0  0
  160.2160  208.0100  154.5460 C   0  0  0  0  0  2  0  0  0  0  0  0
  161.1490  207.6320  153.4120 C   0  0  0  0  0  2  0  0  0  0  0  0
  161.0400  206.1420  153.1500 C   0  0  0  0  0  2  0  0  0  0  0  0
  161.9050  205.7250  151.9650 C   0  0  2  0  0  3  0  0  0  0  0  0
  162.8820  206.6950  151.7470 O   0  0  0  0  0  1  0  0  0  0  0  0
  161.1410  204.4250  148.7620 C   0  0  0  0  0  2  0  0  0  0  0  0
  161.1040  205.5150  150.6780 C   0  0  1  0  0  3  0  0  0  0  0  0
  161.1980  205.9040  148.5080 C   0  0  2  0  0  0  0  0  0  0  0  0
  161.3930  206.5200  149.7420 O   0  0  0  0  0  0  0  0  0  0  0  0
  161.3380  204.2440  150.1290 O   0  0  0  0  0  0  0  0  0  0  0  0
  159.9990  206.3370  147.9440 O   0  0  0  0  0  1  0  0  0  0  0  0
  162.3500  206.2330  147.5800 C   0  0  0  0  0  1  0  0  0  0  0  0
  1  3  1  0  0  0  0
  1  2  1  0  0  0  0
  4  6  1  0  0  0  0
  4  7  2  0  0  0  0
  5  2  2  0  0  0  0
  6  1  2  0  0  0  0
  7  5  1  0  0  0  0
  8 11  2  0  0  0  0
 10  8  1  0  0  0  0
 11 15  1  0  0  0  0
 12  9  2  0  0  0  0
 12 13  1  0  0  0  0
 13 16  1  0  0  0  0
 14 18  1  0  0  0  0
 16 10  2  0  0  0  0
 16 14  1  0  0  0  0
 17 12  1  0  0  0  0
 18 11  1  0  0  0  0
 18  4  1  1  0  0  0
 19  6  1  0  0  0  0
 20 19  1  0  0  0  0
 21 20  1  0  0  0  0
 22 23  1  6  0  0  0
 22 21  1  0  0  0  0
 24 28  1  0  0  0  0
 25 22  1  1  0  0  0
 26 30  1  6  0  0  0
 26 24  1  0  0  0  0
 26 27  1  0  0  0  0
 27 25  1  0  0  0  0
 28 25  1  0  0  0  0
 29 26  1  0  0  0  0
M  END
>  <MODEL>
4

>  <REMARK>
 VINA RESULT:      -8.8      4.097      7.666
  Name = 
  6 active torsions:
  status: ('A' for Active; 'I' for Inactive)
    1  A    between atoms: C_1  and  C_4
    2  A    between atoms: C_1  and  C_5
    3  A    between atoms: C_4  and  C_27
    4  A    between atoms: C_5  and  C_22
    5  A    between atoms: C_8  and  C_27
    6  A    between atoms: C_19  and  C_29
                            x       y       z     vdW  Elec       q    Type
                         _______ _______ _______ _____ _____    ______ ____

>  <TORSDO>
F 6

$$$$
=
 OpenBabel11052421503D

 30 32  0  0  1  0  0  0  0  0999 V2000
  161.4090  204.6260  150.7130 C   0  0  0  0  0  0  0  0  0  0  0  0
  162.0300  204.4100  151.9460 C   0  0  0  0  0  3  0  0  0  0  0  0
  161.1500  203.5390  149.8860 O   0  0  0  0  0  1  0  0  0  0  0  0
  161.3370  207.0190  151.1790 C   0  0  0  0  0  0  0  0  0  0  0  0
  162.3040  205.4840  152.7920 C   0  0  0  0  0  3  0  0  0  0  0  0
  161.0530  205.9300  150.3190 C   0  0  0  0  0  0  0  0  0  0  0  0
  161.9600  206.7800  152.4090 C   0  0  0  0  0  3  0  0  0  0  0  0
  161.1810  210.6670  151.8880 C   0  0  0  0  0  3  0  0  0  0  0  0
  162.0230  213.3090  148.9280 O   0  0  0  0  0  0  0  0  0  0  0  0
  161.5870  211.2080  150.6230 N   0  0  0  0  0  0  0  0  0  0  0  0
  160.9500  209.3630  152.0380 C   0  0  0  0  0  0  0  0  0  0  0  0
  162.3590  212.4510  148.0710 C   0  0  0  0  0  0  0  0  0  0  0  0
  162.2980  211.0500  148.3580 N   0  0  0  0  0  2  0  0  0  0  0  0
  161.9450  208.9690  149.7350 C   0  0  0  0  0  2  0  0  0  0  0  0
  160.4380  208.8770  153.3510 C   0  0  0  0  0  1  0  0  0  0  0  0
  161.8900  210.4630  149.6000 C   0  0  0  0  0  0  0  0  0  0  0  0
  162.8280  212.9010  146.7340 C   0  0  0  0  0  1  0  0  0  0  0  0
  161.0100  208.4490  150.8330 C   0  0  1  0  0  3  0  0  0  0  0  0
  160.3770  206.1460  148.9990 C   0  0  0  0  0  2  0  0  0  0  0  0
  161.3870  206.0910  147.8690 C   0  0  0  0  0  2  0  0  0  0  0  0
  160.7120  205.5580  146.6210 C   0  0  0  0  0  2  0  0  0  0  0  0
  161.7220  204.9030  145.6830 C   0  0  2  0  0  3  0  0  0  0  0  0
  161.5750  205.4400  144.4050 O   0  0  0  0  0  1  0  0  0  0  0  0
  160.0770  201.7810  145.3960 C   0  0  0  0  0  2  0  0  0  0  0  0
  161.5790  203.3810  145.6120 C   0  0  1  0  0  3  0  0  0  0  0  0
  160.7480  201.6740  146.7360 C   0  0  2  0  0  0  0  0  0  0  0  0
  161.5150  202.8250  146.8980 O   0  0  0  0  0  0  0  0  0  0  0  0
  160.4580  203.0060  144.8530 O   0  0  0  0  0  0  0  0  0  0  0  0
  161.5680  200.5470  146.7690 O   0  0  0  0  0  1  0  0  0  0  0  0
  159.7100  201.5860  147.8370 C   0  0  0  0  0  1  0  0  0  0  0  0
  1  2  1  0  0  0  0
  2  5  2  0  0  0  0
  3  1  1  0  0  0  0
  4  7  2  0  0  0  0
  6  1  2  0  0  0  0
  6  4  1  0  0  0  0
  7  5  1  0  0  0  0
  8 11  2  0  0  0  0
 10  8  1  0  0  0  0
 11 15  1  0  0  0  0
 12 13  1  0  0  0  0
 12  9  2  0  0  0  0
 13 16  1  0  0  0  0
 14 18  1  0  0  0  0
 16 14  1  0  0  0  0
 16 10  2  0  0  0  0
 17 12  1  0  0  0  0
 18  4  1  1  0  0  0
 18 11  1  0  0  0  0
 19  6  1  0  0  0  0
 20 19  1  0  0  0  0
 21 20  1  0  0  0  0
 22 23  1  6  0  0  0
 22 21  1  0  0  0  0
 24 26  1  0  0  0  0
 25 22  1  1  0  0  0
 25 27  1  0  0  0  0
 26 29  1  0  0  0  0
 26 27  1  0  0  0  0
 26 30  1  1  0  0  0
 28 24  1  0  0  0  0
 28 25  1  0  0  0  0
M  END
>  <MODEL>
5

>  <REMARK>
 VINA RESULT:      -8.7      2.656      7.428
  Name = 
  6 active torsions:
  status: ('A' for Active; 'I' for Inactive)
    1  A    between atoms: C_1  and  C_4
    2  A    between atoms: C_1  and  C_5
    3  A    between atoms: C_4  and  C_27
    4  A    between atoms: C_5  and  C_22
    5  A    between atoms: C_8  and  C_27
    6  A    between atoms: C_19  and  C_29
                            x       y       z     vdW  Elec       q    Type
                         _______ _______ _______ _____ _____    ______ ____

>  <TORSDO>
F 6

$$$$
=
 OpenBabel11052421503D

 30 32  0  0  1  0  0  0  0  0999 V2000
  160.4750  201.6210  149.5480 C   0  0  0  0  0  0  0  0  0  0  0  0
  160.6570  200.6700  148.5410 C   0  0  0  0  0  3  0  0  0  0  0  0
  159.9230  201.2260  150.7610 O   0  0  0  0  0  1  0  0  0  0  0  0
  161.4020  203.3360  148.0820 C   0  0  0  0  0  0  0  0  0  0  0  0
  161.2070  201.0410  147.3140 C   0  0  0  0  0  3  0  0  0  0  0  0
  160.8480  202.9610  149.3310 C   0  0  0  0  0  0  0  0  0  0  0  0
  161.5750  202.3670  147.0870 C   0  0  0  0  0  3  0  0  0  0  0  0
  161.0470  206.5810  146.2990 C   0  0  0  0  0  3  0  0  0  0  0  0
  161.7710  210.0380  148.2910 O   0  0  0  0  0  0  0  0  0  0  0  0
  161.3370  207.5060  147.3560 N   0  0  0  0  0  0  0  0  0  0  0  0
  161.2110  205.2690  146.4670 C   0  0  0  0  0  0  0  0  0  0  0  0
  161.9560  209.5100  149.4190 C   0  0  0  0  0  0  0  0  0  0  0  0
  161.9070  208.0900  149.5910 N   0  0  0  0  0  2  0  0  0  0  0  0
  161.5650  205.6770  148.9480 C   0  0  0  0  0  2  0  0  0  0  0  0
  160.9850  204.3680  145.3010 C   0  0  0  0  0  1  0  0  0  0  0  0
  161.6320  207.1270  148.5660 C   0  0  0  0  0  0  0  0  0  0  0  0
  162.2330  210.3770  150.5930 C   0  0  0  0  0  1  0  0  0  0  0  0
  161.8130  204.7480  147.7530 C   0  0  1  0  0  3  0  0  0  0  0  0
  160.6600  203.9680  150.4240 C   0  0  0  0  0  2  0  0  0  0  0  0
  161.5490  203.6400  151.6090 C   0  0  0  0  0  2  0  0  0  0  0  0
  161.2070  204.5650  152.7610 C   0  0  0  0  0  2  0  0  0  0  0  0
  161.3890  206.0270  152.3690 C   0  0  2  0  0  3  0  0  0  0  0  0
  162.7480  206.3370  152.3760 O   0  0  0  0  0  1  0  0  0  0  0  0
  160.8330  208.9650  154.2650 C   0  0  0  0  0  2  0  0  0  0  0  0
  160.6450  206.9960  153.2900 C   0  0  1  0  0  3  0  0  0  0  0  0
  160.7570  207.8860  155.3070 C   0  0  2  0  0  0  0  0  0  0  0  0
  160.8610  206.6690  154.6380 O   0  0  0  0  0  0  0  0  0  0  0  0
  161.0110  208.3280  153.0390 O   0  0  0  0  0  0  0  0  0  0  0  0
  159.5370  207.9560  155.9780 O   0  0  0  0  0  1  0  0  0  0  0  0
  161.8960  208.0300  156.2960 C   0  0  0  0  0  1  0  0  0  0  0  0
  1  3  1  0  0  0  0
  2  1  2  0  0  0  0
  4  6  2  0  0  0  0
  5  2  1  0  0  0  0
  6  1  1  0  0  0  0
  6 19  1  0  0  0  0
  7  5  2  0  0  0  0
  7  4  1  0  0  0  0
  8 11  2  0  0  0  0
  8 10  1  0  0  0  0
  9 12  2  0  0  0  0
 10 16  2  0  0  0  0
 11 18  1  0  0  0  0
 12 13  1  0  0  0  0
 12 17  1  0  0  0  0
 15 11  1  0  0  0  0
 16 14  1  0  0  0  0
 16 13  1  0  0  0  0
 18  4  1  1  0  0  0
 18 14  1  0  0  0  0
 19 20  1  0  0  0  0
 20 21  1  0  0  0  0
 22 23  1  1  0  0  0
 22 21  1  0  0  0  0
 24 26  1  0  0  0  0
 25 22  1  6  0  0  0
 25 27  1  0  0  0  0
 26 29  1  0  0  0  0
 26 30  1  1  0  0  0
 27 26  1  0  0  0  0
 28 25  1  0  0  0  0
 28 24  1  0  0  0  0
M  END
>  <MODEL>
6

>  <REMARK>
 VINA RESULT:      -8.7      2.626      6.982
  Name = 
  6 active torsions:
  status: ('A' for Active; 'I' for Inactive)
    1  A    between atoms: C_1  and  C_4
    2  A    between atoms: C_1  and  C_5
    3  A    between atoms: C_4  and  C_27
    4  A    between atoms: C_5  and  C_22
    5  A    between atoms: C_8  and  C_27
    6  A    between atoms: C_19  and  C_29
                            x       y       z     vdW  Elec       q    Type
                         _______ _______ _______ _____ _____    ______ ____

>  <TORSDO>
F 6

$$$$
=
 OpenBabel11052421503D

 30 32  0  0  1  0  0  0  0  0999 V2000
  161.2150  207.1320  154.1100 C   0  0  0  0  0  0  0  0  0  0  0  0
  161.5450  207.7470  155.3200 C   0  0  0  0  0  3  0  0  0  0  0  0
  161.2710  205.7460  154.0170 O   0  0  0  0  0  1  0  0  0  0  0  0
  160.7900  209.3220  153.1240 C   0  0  0  0  0  0  0  0  0  0  0  0
  161.4990  209.1360  155.4380 C   0  0  0  0  0  3  0  0  0  0  0  0
  160.8310  207.9110  153.0020 C   0  0  0  0  0  0  0  0  0  0  0  0
  161.1250  209.9170  154.3450 C   0  0  0  0  0  3  0  0  0  0  0  0
  159.7070  212.5760  151.6850 C   0  0  0  0  0  3  0  0  0  0  0  0
  161.3090  213.8360  148.1780 O   0  0  0  0  0  0  0  0  0  0  0  0
  160.5340  212.6460  150.5150 N   0  0  0  0  0  0  0  0  0  0  0  0
  159.6630  211.4740  152.4330 C   0  0  0  0  0  0  0  0  0  0  0  0
  162.1350  212.8930  148.0590 C   0  0  0  0  0  0  0  0  0  0  0  0
  162.1940  211.8320  149.0180 N   0  0  0  0  0  2  0  0  0  0  0  0
  161.6310  210.5560  151.1180 C   0  0  0  0  0  2  0  0  0  0  0  0
  158.7120  211.4310  153.5810 C   0  0  0  0  0  1  0  0  0  0  0  0
  161.3840  211.7140  150.1940 C   0  0  0  0  0  0  0  0  0  0  0  0
  163.0640  212.8800  146.8990 C   0  0  0  0  0  1  0  0  0  0  0  0
  160.4100  210.2360  151.9880 C   0  0  1  0  0  3  0  0  0  0  0  0
  160.4680  207.2380  151.7130 C   0  0  0  0  0  2  0  0  0  0  0  0
  161.7140  206.7520  150.9980 C   0  0  0  0  0  2  0  0  0  0  0  0
  161.6380  205.2470  150.8270 C   0  0  0  0  0  2  0  0  0  0  0  0
  160.8320  204.8720  149.5880 C   0  0  2  0  0  3  0  0  0  0  0  0
  160.7690  203.4830  149.4860 O   0  0  0  0  0  1  0  0  0  0  0  0
  160.8400  206.0850  146.2620 C   0  0  0  0  0  2  0  0  0  0  0  0
  161.4110  205.4480  148.2950 C   0  0  1  0  0  3  0  0  0  0  0  0
  161.7810  204.9170  146.1850 C   0  0  2  0  0  0  0  0  0  0  0  0
  161.9280  204.4290  147.4810 O   0  0  0  0  0  0  0  0  0  0  0  0
  160.4560  206.2040  147.5950 O   0  0  0  0  0  0  0  0  0  0  0  0
  163.0170  205.3320  145.6900 O   0  0  0  0  0  1  0  0  0  0  0  0
  161.2060  203.8390  145.2890 C   0  0  0  0  0  1  0  0  0  0  0  0
  1  2  1  0  0  0  0
  2  5  2  0  0  0  0
  3  1  1  0  0  0  0
  4  7  2  0  0  0  0
  6  4  1  0  0  0  0
  6  1  2  0  0  0  0
  7  5  1  0  0  0  0
  8 11  2  0  0  0  0
 10  8  1  0  0  0  0
 11 15  1  0  0  0  0
 12  9  2  0  0  0  0
 12 13  1  0  0  0  0
 13 16  1  0  0  0  0
 14 18  1  0  0  0  0
 16 10  2  0  0  0  0
 16 14  1  0  0  0  0
 17 12  1  0  0  0  0
 18 11  1  0  0  0  0
 18  4  1  1  0  0  0
 19  6  1  0  0  0  0
 20 19  1  0  0  0  0
 21 20  1  0  0  0  0
 22 23  1  6  0  0  0
 22 21  1  0  0  0  0
 24 28  1  0  0  0  0
 25 22  1  1  0  0  0
 26 30  1  6  0  0  0
 26 24  1  0  0  0  0
 26 27  1  0  0  0  0
 27 25  1  0  0  0  0
 28 25  1  0  0  0  0
 29 26  1  0  0  0  0
M  END
>  <MODEL>
7

>  <REMARK>
 VINA RESULT:      -8.6      2.951      6.876
  Name = 
  6 active torsions:
  status: ('A' for Active; 'I' for Inactive)
    1  A    between atoms: C_1  and  C_4
    2  A    between atoms: C_1  and  C_5
    3  A    between atoms: C_4  and  C_27
    4  A    between atoms: C_5  and  C_22
    5  A    between atoms: C_8  and  C_27
    6  A    between atoms: C_19  and  C_29
                            x       y       z     vdW  Elec       q    Type
                         _______ _______ _______ _____ _____    ______ ____

>  <TORSDO>
F 6

$$$$
=
 OpenBabel11052421503D

 30 32  0  0  1  0  0  0  0  0999 V2000
  160.5880  208.1480  154.3290 C   0  0  0  0  0  0  0  0  0  0  0  0
  161.0790  206.9570  154.8680 C   0  0  0  0  0  3  0  0  0  0  0  0
  160.0900  209.1240  155.1850 O   0  0  0  0  0  1  0  0  0  0  0  0
  161.1050  207.3370  152.0870 C   0  0  0  0  0  0  0  0  0  0  0  0
  161.5810  205.9610  154.0300 C   0  0  0  0  0  3  0  0  0  0  0  0
  160.5990  208.3520  152.9360 C   0  0  0  0  0  0  0  0  0  0  0  0
  161.5920  206.1510  152.6480 C   0  0  0  0  0  3  0  0  0  0  0  0
  162.7070  208.2340  148.8530 C   0  0  0  0  0  3  0  0  0  0  0  0
  162.1740  205.8290  145.6310 O   0  0  0  0  0  0  0  0  0  0  0  0
  162.3110  207.1240  148.0350 N   0  0  0  0  0  0  0  0  0  0  0  0
  162.2140  208.3970  150.0800 C   0  0  0  0  0  0  0  0  0  0  0  0
  161.5330  204.9300  146.2360 C   0  0  0  0  0  0  0  0  0  0  0  0
  161.2120  205.0540  147.6250 N   0  0  0  0  0  2  0  0  0  0  0  0
  161.1980  206.0740  149.9300 C   0  0  0  0  0  2  0  0  0  0  0  0
  162.5900  209.6210  150.8420 C   0  0  0  0  0  1  0  0  0  0  0  0
  161.5750  206.1460  148.4790 C   0  0  0  0  0  0  0  0  0  0  0  0
  161.1000  203.7180  145.4940 C   0  0  0  0  0  1  0  0  0  0  0  0
  161.1400  207.4590  150.5860 C   0  0  1  0  0  3  0  0  0  0  0  0
  160.0800  209.6410  152.3720 C   0  0  0  0  0  2  0  0  0  0  0  0
  160.7520  210.8230  153.0430 C   0  0  0  0  0  2  0  0  0  0  0  0
  160.0810  212.1040  152.5870 C   0  0  0  0  0  2  0  0  0  0  0  0
  159.2540  212.7230  153.7100 C   0  0  2  0  0  3  0  0  0  0  0  0
  159.8440  212.4190  154.9350 O   0  0  0  0  0  1  0  0  0  0  0  0
  155.7630  212.8870  154.2740 C   0  0  0  0  0  2  0  0  0  0  0  0
  157.7990  212.2490  153.7180 C   0  0  1  0  0  3  0  0  0  0  0  0
  156.1720  211.7050  155.1060 C   0  0  2  0  0  0  0  0  0  0  0  0
  157.5270  211.4910  154.8670 O   0  0  0  0  0  0  0  0  0  0  0  0
  156.9070  213.3290  153.6140 O   0  0  0  0  0  0  0  0  0  0  0  0
  155.4390  210.5800  154.7280 O   0  0  0  0  0  1  0  0  0  0  0  0
  155.9460  211.9950  156.5750 C   0  0  0  0  0  1  0  0  0  0  0  0
  1  2  1  0  0  0  0
  1  3  1  0  0  0  0
  4  7  2  0  0  0  0
  4  6  1  0  0  0  0
  5  2  2  0  0  0  0
  6  1  2  0  0  0  0
  7  5  1  0  0  0  0
  8 11  2  0  0  0  0
  9 12  2  0  0  0  0
 10 16  2  0  0  0  0
 10  8  1  0  0  0  0
 11 18  1  0  0  0  0
 11 15  1  0  0  0  0
 12 13  1  0  0  0  0
 13 16  1  0  0  0  0
 14 18  1  0  0  0  0
 16 14  1  0  0  0  0
 17 12  1  0  0  0  0
 18  4  1  1  0  0  0
 19  6  1  0  0  0  0
 19 20  1  0  0  0  0
 21 20  1  0  0  0  0
 21 22  1  0  0  0  0
 22 23  1  1  0  0  0
 24 26  1  0  0  0  0
 25 22  1  1  0  0  0
 25 27  1  0  0  0  0
 26 30  1  1  0  0  0
 27 26  1  0  0  0  0
 28 25  1  0  0  0  0
 28 24  1  0  0  0  0
 29 26  1  0  0  0  0
M  END
>  <MODEL>
8

>  <REMARK>
 VINA RESULT:      -8.3      3.429      5.246
  Name = 
  6 active torsions:
  status: ('A' for Active; 'I' for Inactive)
    1  A    between atoms: C_1  and  C_4
    2  A    between atoms: C_1  and  C_5
    3  A    between atoms: C_4  and  C_27
    4  A    between atoms: C_5  and  C_22
    5  A    between atoms: C_8  and  C_27
    6  A    between atoms: C_19  and  C_29
                            x       y       z     vdW  Elec       q    Type
                         _______ _______ _______ _____ _____    ______ ____

>  <TORSDO>
F 6

$$$$
=
 OpenBabel11052421503D

 30 32  0  0  1  0  0  0  0  0999 V2000
  162.1960  209.1750  149.6060 C   0  0  0  0  0  0  0  0  0  0  0  0
  162.1320  210.4160  148.9680 C   0  0  0  0  0  3  0  0  0  0  0  0
  162.7140  208.0850  148.9160 O   0  0  0  0  0  1  0  0  0  0  0  0
  161.2070  210.1610  151.6060 C   0  0  0  0  0  0  0  0  0  0  0  0
  161.6130  211.5240  149.6380 C   0  0  0  0  0  3  0  0  0  0  0  0
  161.7390  209.0350  150.9300 C   0  0  0  0  0  0  0  0  0  0  0  0
  161.1520  211.3950  150.9480 C   0  0  0  0  0  3  0  0  0  0  0  0
  161.2290  211.0620  155.2150 C   0  0  0  0  0  3  0  0  0  0  0  0
  157.7120  211.6980  157.1310 O   0  0  0  0  0  0  0  0  0  0  0  0
  159.8270  211.2380  155.4600 N   0  0  0  0  0  0  0  0  0  0  0  0
  161.6710  210.5770  154.0540 C   0  0  0  0  0  0  0  0  0  0  0  0
  156.9800  211.5850  156.1130 C   0  0  0  0  0  0  0  0  0  0  0  0
  157.5330  211.2720  154.8300 N   0  0  0  0  0  2  0  0  0  0  0  0
  159.3230  210.8120  153.1160 C   0  0  0  0  0  2  0  0  0  0  0  0
  163.1320  210.3280  153.8960 C   0  0  0  0  0  1  0  0  0  0  0  0
  158.9230  211.0780  154.5390 C   0  0  0  0  0  0  0  0  0  0  0  0
  155.5130  211.7790  156.2450 C   0  0  0  0  0  1  0  0  0  0  0  0
  160.6780  210.1020  153.0160 C   0  0  1  0  0  3  0  0  0  0  0  0
  161.8240  207.7000  151.6060 C   0  0  0  0  0  2  0  0  0  0  0  0
  160.7820  206.7520  151.0440 C   0  0  0  0  0  2  0  0  0  0  0  0
  161.4330  205.4160  150.7420 C   0  0  0  0  0  2  0  0  0  0  0  0
  160.8300  204.7770  149.4960 C   0  0  2  0  0  3  0  0  0  0  0  0
  160.8800  203.3900  149.6220 O   0  0  0  0  0  1  0  0  0  0  0  0
  161.1410  205.7960  146.1200 C   0  0  0  0  0  2  0  0  0  0  0  0
  161.5360  205.1920  148.2040 C   0  0  1  0  0  3  0  0  0  0  0  0
  161.9000  204.5000  146.1400 C   0  0  2  0  0  0  0  0  0  0  0  0
  161.9260  204.0660  147.4630 O   0  0  0  0  0  0  0  0  0  0  0  0
  160.7290  206.0400  147.4270 O   0  0  0  0  0  0  0  0  0  0  0  0
  163.2020  204.7030  145.6810 O   0  0  0  0  0  1  0  0  0  0  0  0
  161.2060  203.4710  145.2720 C   0  0  0  0  0  1  0  0  0  0  0  0
  1  6  1  0  0  0  0
  2  1  2  0  0  0  0
  2  5  1  0  0  0  0
  3  1  1  0  0  0  0
  5  7  2  0  0  0  0
  6 19  1  0  0  0  0
  6  4  2  0  0  0  0
  7  4  1  0  0  0  0
  8 10  1  0  0  0  0
 11  8  2  0  0  0  0
 12 17  1  0  0  0  0
 12  9  2  0  0  0  0
 13 12  1  0  0  0  0
 14 16  1  0  0  0  0
 15 11  1  0  0  0  0
 16 13  1  0  0  0  0
 16 10  2  0  0  0  0
 18  4  1  6  0  0  0
 18 14  1  0  0  0  0
 18 11  1  0  0  0  0
 20 19  1  0  0  0  0
 21 20  1  0  0  0  0
 22 23  1  1  0  0  0
 22 21  1  0  0  0  0
 24 26  1  0  0  0  0
 24 28  1  0  0  0  0
 25 22  1  1  0  0  0
 26 30  1  6  0  0  0
 26 27  1  0  0  0  0
 27 25  1  0  0  0  0
 28 25  1  0  0  0  0
 29 26  1  0  0  0  0
M  END
>  <MODEL>
9

>  <REMARK>
 VINA RESULT:      -8.3      4.017      8.240
  Name = 
  6 active torsions:
  status: ('A' for Active; 'I' for Inactive)
    1  A    between atoms: C_1  and  C_4
    2  A    between atoms: C_1  and  C_5
    3  A    between atoms: C_4  and  C_27
    4  A    between atoms: C_5  and  C_22
    5  A    between atoms: C_8  and  C_27
    6  A    between atoms: C_19  and  C_29
                            x       y       z     vdW  Elec       q    Type
                         _______ _______ _______ _____ _____    ______ ____

>  <TORSDO>
F 6

$$$$
