=
 OpenBabel11052422113D

 25 28  0  0  1  0  0  0  0  0999 V2000
  161.3700  205.3650  149.1670 C   0  0  0  0  0  0  0  0  0  0  0  0
  161.3680  206.3630  150.1460 C   0  0  0  0  0  0  0  0  0  0  0  0
  161.8930  206.9970  147.4940 N   0  0  0  0  0  0  0  0  0  0  0  0
  161.1340  203.9900  149.3050 C   0  0  0  0  0  0  0  0  0  0  0  0
  160.7280  201.2300  149.1820 C   0  0  0  0  0  3  0  0  0  0  0  0
  161.8950  207.9600  148.4230 N   0  0  0  0  0  0  0  0  0  0  0  0
  161.2230  203.3080  148.0920 C   0  0  0  0  0  0  0  0  0  0  0  0
  161.0250  201.9320  148.0040 C   0  0  0  0  0  3  0  0  0  0  0  0
  161.6500  208.7080  150.7060 C   0  0  0  0  0  0  0  0  0  0  0  0
  161.9370  210.1230  150.3400 C   0  0  0  0  0  1  0  0  0  0  0  0
  161.1170  206.0880  151.4540 N   0  0  0  0  0  0  0  0  0  0  0  0
  160.6360  201.9060  150.4130 C   0  0  0  0  0  3  0  0  0  0  0  0
  161.6350  205.7160  147.8530 C   0  0  0  0  0  0  0  0  0  0  0  0
  161.5900  204.3740  146.8330 S   0  0  0  0  0  0  0  0  0  0  0  0
  161.3890  208.3910  152.0410 C   0  0  0  0  0  3  0  0  0  0  0  0
  160.8400  203.2940  150.4810 C   0  0  0  0  0  3  0  0  0  0  0  0
  161.1150  207.0670  152.3990 C   0  0  0  0  0  0  0  0  0  0  0  0
  161.6420  207.6900  149.7400 C   0  0  0  0  0  0  0  0  0  0  0  0
  160.8600  206.7210  153.8230 C   0  0  0  0  0  2  0  0  0  0  0  0
  161.4940  208.0400  154.9000 S   0  0  0  0  0  0  0  0  0  0  0  0
  159.9430  208.1280  155.8450 C   0  0  1  0  0  3  0  0  0  0  0  0
  160.0310  207.2470  157.0790 C   0  0  0  0  0  1  0  0  0  0  0  0
  159.6510  209.5390  156.2340 C   0  0  0  0  0  0  0  0  0  0  0  0
  158.7910  210.3010  155.4550 O   0  0  0  0  0  0  0  0  0  0  0  0
  160.1790  210.0450  157.2600 O   0  0  0  0  0  1  0  0  0  0  0  0
  1  4  1  0  0  0  0
  1  2  2  0  0  0  0
  2 11  1  0  0  0  0
  3 13  2  0  0  0  0
  3  6  1  0  0  0  0
  4 16  1  0  0  0  0
  5 12  1  0  0  0  0
  6 18  2  0  0  0  0
  7  4  2  0  0  0  0
  8  7  1  0  0  0  0
  8  5  2  0  0  0  0
  9 15  2  0  0  0  0
 10  9  1  0  0  0  0
 11 17  2  0  0  0  0
 12 16  2  0  0  0  0
 13  1  1  0  0  0  0
 14 13  1  0  0  0  0
 14  7  1  0  0  0  0
 15 17  1  0  0  0  0
 17 19  1  0  0  0  0
 18  2  1  0  0  0  0
 18  9  1  0  0  0  0
 19 20  1  0  0  0  0
 20 21  1  0  0  0  0
 21 23  1  0  0  0  0
 21 22  1  1  0  0  0
 23 25  1  0  0  0  0
 24 23  2  0  0  0  0
M  END
>  <MODEL>
1

>  <REMARK>
 VINA RESULT:      -9.1      0.000      0.000
  Name = 
  4 active torsions:
  status: ('A' for Active; 'I' for Inactive)
    1  A    between atoms: C_2  and  C_21
    2  A    between atoms: C_6  and  S_15
    3  A    between atoms: C_6  and  C_23
    4  A    between atoms: S_15  and  C_21
                            x       y       z     vdW  Elec       q    Type
                         _______ _______ _______ _____ _____    ______ ____

>  <TORSDO>
F 4

$$$$
=
 OpenBabel11052422113D

 25 28  0  0  1  0  0  0  0  0999 V2000
  161.4220  205.1830  148.8380 C   0  0  0  0  0  0  0  0  0  0  0  0
  161.4760  206.3840  149.5530 C   0  0  0  0  0  0  0  0  0  0  0  0
  161.9090  206.3590  146.8100 N   0  0  0  0  0  0  0  0  0  0  0  0
  161.1670  203.8850  149.3060 C   0  0  0  0  0  0  0  0  0  0  0  0
  160.7080  201.1860  149.8540 C   0  0  0  0  0  3  0  0  0  0  0  0
  161.9640  207.5140  147.4830 N   0  0  0  0  0  0  0  0  0  0  0  0
  161.1970  202.9340  148.2870 C   0  0  0  0  0  0  0  0  0  0  0  0
  160.9710  201.5820  148.5340 C   0  0  0  0  0  3  0  0  0  0  0  0
  161.8210  208.7860  149.5310 C   0  0  0  0  0  0  0  0  0  0  0  0
  162.1180  210.0670  148.8310 C   0  0  0  0  0  1  0  0  0  0  0  0
  161.2700  206.4320  150.8960 N   0  0  0  0  0  0  0  0  0  0  0  0
  160.6750  202.1360  150.8920 C   0  0  0  0  0  3  0  0  0  0  0  0
  161.6430  205.2060  147.4710 C   0  0  0  0  0  0  0  0  0  0  0  0
  161.5340  203.6630  146.8000 S   0  0  0  0  0  0  0  0  0  0  0  0
  161.6060  208.8000  150.9110 C   0  0  0  0  0  3  0  0  0  0  0  0
  160.9060  203.4950  150.6230 C   0  0  0  0  0  3  0  0  0  0  0  0
  161.3230  207.6060  151.5820 C   0  0  0  0  0  0  0  0  0  0  0  0
  161.7570  207.5690  148.8350 C   0  0  0  0  0  0  0  0  0  0  0  0
  161.1160  207.6130  153.0550 C   0  0  0  0  0  2  0  0  0  0  0  0
  160.7780  209.3060  153.6200 S   0  0  0  0  0  0  0  0  0  0  0  0
  160.6100  208.7820  155.3540 C   0  0  1  0  0  3  0  0  0  0  0  0
  160.4380  207.2760  155.4310 C   0  0  0  0  0  1  0  0  0  0  0  0
  161.8030  209.2100  156.1430 C   0  0  0  0  0  0  0  0  0  0  0  0
  162.5000  210.3500  155.7670 O   0  0  0  0  0  0  0  0  0  0  0  0
  162.1830  208.5460  157.1440 O   0  0  0  0  0  1  0  0  0  0  0  0
  1  4  1  0  0  0  0
  1  2  2  0  0  0  0
  2 11  1  0  0  0  0
  3 13  2  0  0  0  0
  3  6  1  0  0  0  0
  4 16  1  0  0  0  0
  5 12  1  0  0  0  0
  6 18  2  0  0  0  0
  7  8  1  0  0  0  0
  7  4  2  0  0  0  0
  8  5  2  0  0  0  0
  9 15  2  0  0  0  0
 10  9  1  0  0  0  0
 11 17  2  0  0  0  0
 13  1  1  0  0  0  0
 14 13  1  0  0  0  0
 14  7  1  0  0  0  0
 15 17  1  0  0  0  0
 16 12  2  0  0  0  0
 17 19  1  0  0  0  0
 18  9  1  0  0  0  0
 18  2  1  0  0  0  0
 19 20  1  0  0  0  0
 20 21  1  0  0  0  0
 21 22  1  6  0  0  0
 21 23  1  0  0  0  0
 23 25  1  0  0  0  0
 24 23  2  0  0  0  0
M  END
>  <MODEL>
2

>  <REMARK>
 VINA RESULT:      -9.1      1.279      1.362
  Name = 
  4 active torsions:
  status: ('A' for Active; 'I' for Inactive)
    1  A    between atoms: C_2  and  C_21
    2  A    between atoms: C_6  and  S_15
    3  A    between atoms: C_6  and  C_23
    4  A    between atoms: S_15  and  C_21
                            x       y       z     vdW  Elec       q    Type
                         _______ _______ _______ _____ _____    ______ ____

>  <TORSDO>
F 4

$$$$
=
 OpenBabel11052422113D

 25 28  0  0  1  0  0  0  0  0999 V2000
  161.1280  204.4880  149.6090 C   0  0  0  0  0  0  0  0  0  0  0  0
  161.2800  205.7870  150.1030 C   0  0  0  0  0  0  0  0  0  0  0  0
  160.7570  203.6770  151.8310 N   0  0  0  0  0  0  0  0  0  0  0  0
  161.1990  204.0310  148.2850 C   0  0  0  0  0  0  0  0  0  0  0  0
  161.2640  202.7560  145.8010 C   0  0  0  0  0  3  0  0  0  0  0  0
  160.9000  204.9160  152.3150 N   0  0  0  0  0  0  0  0  0  0  0  0
  160.9920  202.6560  148.1810 C   0  0  0  0  0  0  0  0  0  0  0  0
  161.0200  201.9960  146.9550 C   0  0  0  0  0  3  0  0  0  0  0  0
  161.3020  207.2780  152.0170 C   0  0  0  0  0  0  0  0  0  0  0  0
  161.1780  207.5490  153.4770 C   0  0  0  0  0  1  0  0  0  0  0  0
  161.5350  206.8440  149.2860 N   0  0  0  0  0  0  0  0  0  0  0  0
  161.4740  204.1450  145.8910 C   0  0  0  0  0  3  0  0  0  0  0  0
  160.8680  203.4580  150.4990 C   0  0  0  0  0  0  0  0  0  0  0  0
  160.7200  201.9780  149.7050 S   0  0  0  0  0  0  0  0  0  0  0  0
  161.5620  208.3410  151.1490 C   0  0  0  0  0  3  0  0  0  0  0  0
  161.4430  204.7920  147.1370 C   0  0  0  0  0  3  0  0  0  0  0  0
  161.6840  208.1040  149.7770 C   0  0  0  0  0  0  0  0  0  0  0  0
  161.1580  205.9830  151.4980 C   0  0  0  0  0  0  0  0  0  0  0  0
  161.9380  209.2350  148.8470 C   0  0  0  0  0  2  0  0  0  0  0  0
  162.2390  210.7550  149.7950 S   0  0  0  0  0  0  0  0  0  0  0  0
  161.5630  211.8110  148.4780 C   0  0  1  0  0  3  0  0  0  0  0  0
  160.7560  212.9470  149.0800 C   0  0  0  0  0  1  0  0  0  0  0  0
  162.6650  212.3500  147.6280 C   0  0  0  0  0  0  0  0  0  0  0  0
  162.3640  212.9400  146.4080 O   0  0  0  0  0  0  0  0  0  0  0  0
  163.8650  212.2720  148.0050 O   0  0  0  0  0  1  0  0  0  0  0  0
  1  2  2  0  0  0  0
  1 13  1  0  0  0  0
  2 18  1  0  0  0  0
  3  6  1  0  0  0  0
  4  1  1  0  0  0  0
  5 12  2  0  0  0  0
  5  8  1  0  0  0  0
  7  4  1  0  0  0  0
  7 14  1  0  0  0  0
  8  7  2  0  0  0  0
  9 10  1  0  0  0  0
 11 17  2  0  0  0  0
 11  2  1  0  0  0  0
 12 16  1  0  0  0  0
 13  3  2  0  0  0  0
 14 13  1  0  0  0  0
 15  9  2  0  0  0  0
 16  4  2  0  0  0  0
 17 15  1  0  0  0  0
 18  9  1  0  0  0  0
 18  6  2  0  0  0  0
 19 17  1  0  0  0  0
 19 20  1  0  0  0  0
 21 22  1  1  0  0  0
 21 20  1  0  0  0  0
 23 25  1  0  0  0  0
 23 21  1  0  0  0  0
 24 23  2  0  0  0  0
M  END
>  <MODEL>
3

>  <REMARK>
 VINA RESULT:      -9.0      3.453      5.345
  Name = 
  4 active torsions:
  status: ('A' for Active; 'I' for Inactive)
    1  A    between atoms: C_2  and  C_21
    2  A    between atoms: C_6  and  S_15
    3  A    between atoms: C_6  and  C_23
    4  A    between atoms: S_15  and  C_21
                            x       y       z     vdW  Elec       q    Type
                         _______ _______ _______ _____ _____    ______ ____

>  <TORSDO>
F 4

$$$$
=
 OpenBabel11052422113D

 25 28  0  0  1  0  0  0  0  0999 V2000
  161.3150  205.1750  149.6630 C   0  0  0  0  0  0  0  0  0  0  0  0
  161.3750  206.2460  150.5600 C   0  0  0  0  0  0  0  0  0  0  0  0
  160.7320  203.6980  151.4550 N   0  0  0  0  0  0  0  0  0  0  0  0
  161.5420  205.1660  148.2790 C   0  0  0  0  0  0  0  0  0  0  0  0
  161.9120  204.7540  145.5420 C   0  0  0  0  0  3  0  0  0  0  0  0
  160.7850  204.7150  152.3220 N   0  0  0  0  0  0  0  0  0  0  0  0
  161.3880  203.8980  147.7200 C   0  0  0  0  0  0  0  0  0  0  0  0
  161.5680  203.6660  146.3580 C   0  0  0  0  0  3  0  0  0  0  0  0
  161.1460  207.0460  152.8390 C   0  0  0  0  0  0  0  0  0  0  0  0
  160.8580  206.8350  154.2860 C   0  0  0  0  0  1  0  0  0  0  0  0
  161.6850  207.5080  150.1560 N   0  0  0  0  0  0  0  0  0  0  0  0
  162.0700  206.0390  146.0930 C   0  0  0  0  0  3  0  0  0  0  0  0
  160.9920  203.9160  150.1430 C   0  0  0  0  0  0  0  0  0  0  0  0
  160.9740  202.7690  148.9080 S   0  0  0  0  0  0  0  0  0  0  0  0
  161.4670  208.3290  152.3910 C   0  0  0  0  0  3  0  0  0  0  0  0
  161.8850  206.2530  147.4690 C   0  0  0  0  0  3  0  0  0  0  0  0
  161.7430  208.5430  151.0370 C   0  0  0  0  0  0  0  0  0  0  0  0
  161.0970  205.9860  151.9220 C   0  0  0  0  0  0  0  0  0  0  0  0
  162.0620  209.9110  150.5510 C   0  0  0  0  0  2  0  0  0  0  0  0
  162.0090  209.9460  148.7350 S   0  0  0  0  0  0  0  0  0  0  0  0
  162.1220  211.7610  148.6830 C   0  0  1  0  0  3  0  0  0  0  0  0
  163.3540  212.1860  147.9050 C   0  0  0  0  0  1  0  0  0  0  0  0
  160.8920  212.3400  148.0680 C   0  0  0  0  0  0  0  0  0  0  0  0
  160.1560  213.2880  148.7660 O   0  0  0  0  0  1  0  0  0  0  0  0
  160.5140  211.9770  146.9220 O   0  0  0  0  0  0  0  0  0  0  0  0
  1 13  1  0  0  0  0
  1  2  2  0  0  0  0
  2 18  1  0  0  0  0
  3  6  1  0  0  0  0
  4  1  1  0  0  0  0
  5 12  2  0  0  0  0
  5  8  1  0  0  0  0
  7  4  1  0  0  0  0
  7 14  1  0  0  0  0
  8  7  2  0  0  0  0
  9 10  1  0  0  0  0
 11  2  1  0  0  0  0
 11 17  2  0  0  0  0
 12 16  1  0  0  0  0
 13  3  2  0  0  0  0
 14 13  1  0  0  0  0
 15  9  2  0  0  0  0
 16  4  2  0  0  0  0
 17 15  1  0  0  0  0
 18  6  2  0  0  0  0
 18  9  1  0  0  0  0
 19 17  1  0  0  0  0
 20 19  1  0  0  0  0
 21 22  1  6  0  0  0
 21 20  1  0  0  0  0
 23 21  1  0  0  0  0
 23 24  1  0  0  0  0
 25 23  2  0  0  0  0
M  END
>  <MODEL>
4

>  <REMARK>
 VINA RESULT:      -9.0      3.158      5.335
  Name = 
  4 active torsions:
  status: ('A' for Active; 'I' for Inactive)
    1  A    between atoms: C_2  and  C_21
    2  A    between atoms: C_6  and  S_15
    3  A    between atoms: C_6  and  C_23
    4  A    between atoms: S_15  and  C_21
                            x       y       z     vdW  Elec       q    Type
                         _______ _______ _______ _____ _____    ______ ____

>  <TORSDO>
F 4

$$$$
=
 OpenBabel11052422113D

 25 28  0  0  1  0  0  0  0  0999 V2000
  161.3170  205.9370  151.0090 C   0  0  0  0  0  0  0  0  0  0  0  0
  161.5040  207.3220  151.0410 C   0  0  0  0  0  0  0  0  0  0  0  0
  161.1090  205.9020  153.3940 N   0  0  0  0  0  0  0  0  0  0  0  0
  161.2920  205.0730  149.9050 C   0  0  0  0  0  0  0  0  0  0  0  0
  161.1780  203.0580  147.9750 C   0  0  0  0  0  3  0  0  0  0  0  0
  161.2860  207.2280  153.4370 N   0  0  0  0  0  0  0  0  0  0  0  0
  161.0790  203.7440  150.2700 C   0  0  0  0  0  0  0  0  0  0  0  0
  161.0180  202.7210  149.3270 C   0  0  0  0  0  3  0  0  0  0  0  0
  161.6640  209.3550  152.3580 C   0  0  0  0  0  0  0  0  0  0  0  0
  161.6460  210.0880  153.6540 C   0  0  0  0  0  1  0  0  0  0  0  0
  161.6990  208.0490  149.9080 N   0  0  0  0  0  0  0  0  0  0  0  0
  161.3930  204.3950  147.5920 C   0  0  0  0  0  3  0  0  0  0  0  0
  161.1230  205.2590  152.2020 C   0  0  0  0  0  0  0  0  0  0  0  0
  160.9180  203.6050  151.9470 S   0  0  0  0  0  0  0  0  0  0  0  0
  161.8600  210.0710  151.1750 C   0  0  0  0  0  3  0  0  0  0  0  0
  161.4520  205.4130  148.5580 C   0  0  0  0  0  3  0  0  0  0  0  0
  161.8820  209.3970  149.9500 C   0  0  0  0  0  0  0  0  0  0  0  0
  161.4830  207.9650  152.3010 C   0  0  0  0  0  0  0  0  0  0  0  0
  162.0680  210.1580  148.6860 C   0  0  0  0  0  2  0  0  0  0  0  0
  161.7660  211.9250  148.9830 S   0  0  0  0  0  0  0  0  0  0  0  0
  161.3660  212.2350  147.2360 C   0  0  1  0  0  3  0  0  0  0  0  0
  159.9220  212.6840  147.1020 C   0  0  0  0  0  1  0  0  0  0  0  0
  162.2850  213.2650  146.6680 C   0  0  0  0  0  0  0  0  0  0  0  0
  162.9420  214.1420  147.5200 O   0  0  0  0  0  1  0  0  0  0  0  0
  162.4700  213.3460  145.4240 O   0  0  0  0  0  0  0  0  0  0  0  0
  1  2  2  0  0  0  0
  1 13  1  0  0  0  0
  2 18  1  0  0  0  0
  3  6  1  0  0  0  0
  4  7  1  0  0  0  0
  4  1  1  0  0  0  0
  5  8  1  0  0  0  0
  7 14  1  0  0  0  0
  8  7  2  0  0  0  0
  9 10  1  0  0  0  0
 11 17  2  0  0  0  0
 11  2  1  0  0  0  0
 12  5  2  0  0  0  0
 12 16  1  0  0  0  0
 13  3  2  0  0  0  0
 14 13  1  0  0  0  0
 15  9  2  0  0  0  0
 16  4  2  0  0  0  0
 17 15  1  0  0  0  0
 18  9  1  0  0  0  0
 18  6  2  0  0  0  0
 19 20  1  0  0  0  0
 19 17  1  0  0  0  0
 21 22  1  1  0  0  0
 21 20  1  0  0  0  0
 23 21  1  0  0  0  0
 23 24  1  0  0  0  0
 25 23  2  0  0  0  0
M  END
>  <MODEL>
5

>  <REMARK>
 VINA RESULT:      -8.6      3.937      5.901
  Name = 
  4 active torsions:
  status: ('A' for Active; 'I' for Inactive)
    1  A    between atoms: C_2  and  C_21
    2  A    between atoms: C_6  and  S_15
    3  A    between atoms: C_6  and  C_23
    4  A    between atoms: S_15  and  C_21
                            x       y       z     vdW  Elec       q    Type
                         _______ _______ _______ _____ _____    ______ ____

>  <TORSDO>
F 4

$$$$
=
 OpenBabel11052422113D

 25 28  0  0  1  0  0  0  0  0999 V2000
  161.1950  204.3600  149.0970 C   0  0  0  0  0  0  0  0  0  0  0  0
  161.2650  205.3270  150.1050 C   0  0  0  0  0  0  0  0  0  0  0  0
  160.9320  202.6460  150.7480 N   0  0  0  0  0  0  0  0  0  0  0  0
  161.2700  204.5250  147.7060 C   0  0  0  0  0  0  0  0  0  0  0  0
  161.3710  204.4540  144.9170 C   0  0  0  0  0  3  0  0  0  0  0  0
  160.9960  203.5620  151.7210 N   0  0  0  0  0  0  0  0  0  0  0  0
  161.1590  203.3180  147.0180 C   0  0  0  0  0  0  0  0  0  0  0  0
  161.2070  203.2550  145.6270 C   0  0  0  0  0  3  0  0  0  0  0  0
  161.2220  205.8450  152.4750 C   0  0  0  0  0  0  0  0  0  0  0  0
  161.1110  205.4500  153.9070 C   0  0  0  0  0  1  0  0  0  0  0  0
  161.4270  206.6480  149.8260 N   0  0  0  0  0  0  0  0  0  0  0  0
  161.4840  205.6790  145.5990 C   0  0  0  0  0  3  0  0  0  0  0  0
  161.0290  203.0320  149.4530 C   0  0  0  0  0  0  0  0  0  0  0  0
  160.9690  202.0310  148.0970 S   0  0  0  0  0  0  0  0  0  0  0  0
  161.3880  207.1940  152.1540 C   0  0  0  0  0  3  0  0  0  0  0  0
  161.4340  205.7220  147.0020 C   0  0  0  0  0  3  0  0  0  0  0  0
  161.4960  207.5810  150.8140 C   0  0  0  0  0  0  0  0  0  0  0  0
  161.1600  204.8930  151.4470 C   0  0  0  0  0  0  0  0  0  0  0  0
  161.6490  209.0180  150.4660 C   0  0  0  0  0  2  0  0  0  0  0  0
  162.1750  209.9530  151.9320 S   0  0  0  0  0  0  0  0  0  0  0  0
  160.4640  210.3720  152.3830 C   0  0  1  0  0  3  0  0  0  0  0  0
  160.2140  210.0490  153.8450 C   0  0  0  0  0  1  0  0  0  0  0  0
  160.1950  211.8150  152.1160 C   0  0  0  0  0  0  0  0  0  0  0  0
  160.4570  212.3410  150.8580 O   0  0  0  0  0  0  0  0  0  0  0  0
  159.7330  212.5620  153.0200 O   0  0  0  0  0  1  0  0  0  0  0  0
  1 13  1  0  0  0  0
  1  2  2  0  0  0  0
  2 18  1  0  0  0  0
  3  6  1  0  0  0  0
  4  1  1  0  0  0  0
  5 12  2  0  0  0  0
  5  8  1  0  0  0  0
  7  4  1  0  0  0  0
  7 14  1  0  0  0  0
  8  7  2  0  0  0  0
  9 10  1  0  0  0  0
 11  2  1  0  0  0  0
 11 17  2  0  0  0  0
 12 16  1  0  0  0  0
 13  3  2  0  0  0  0
 14 13  1  0  0  0  0
 15  9  2  0  0  0  0
 16  4  2  0  0  0  0
 17 15  1  0  0  0  0
 18  6  2  0  0  0  0
 18  9  1  0  0  0  0
 19 17  1  0  0  0  0
 19 20  1  0  0  0  0
 20 21  1  0  0  0  0
 21 22  1  1  0  0  0
 23 21  1  0  0  0  0
 23 25  1  0  0  0  0
 24 23  2  0  0  0  0
M  END
>  <MODEL>
6

>  <REMARK>
 VINA RESULT:      -8.4      2.348      3.919
  Name = 
  4 active torsions:
  status: ('A' for Active; 'I' for Inactive)
    1  A    between atoms: C_2  and  C_21
    2  A    between atoms: C_6  and  S_15
    3  A    between atoms: C_6  and  C_23
    4  A    between atoms: S_15  and  C_21
                            x       y       z     vdW  Elec       q    Type
                         _______ _______ _______ _____ _____    ______ ____

>  <TORSDO>
F 4

$$$$
=
 OpenBabel11052422113D

 25 28  0  0  1  0  0  0  0  0999 V2000
  161.3990  205.7820  149.4110 C   0  0  0  0  0  0  0  0  0  0  0  0
  161.4250  206.9240  150.2170 C   0  0  0  0  0  0  0  0  0  0  0  0
  161.9800  207.1060  147.5030 N   0  0  0  0  0  0  0  0  0  0  0  0
  161.1190  204.4540  149.7670 C   0  0  0  0  0  0  0  0  0  0  0  0
  160.6250  201.7250  150.0850 C   0  0  0  0  0  3  0  0  0  0  0  0
  162.0090  208.2060  148.2650 N   0  0  0  0  0  0  0  0  0  0  0  0
  161.1910  203.5830  148.6800 C   0  0  0  0  0  0  0  0  0  0  0  0
  160.9480  202.2180  148.8120 C   0  0  0  0  0  3  0  0  0  0  0  0
  161.7790  209.3180  150.3950 C   0  0  0  0  0  0  0  0  0  0  0  0
  162.1130  210.6470  149.8100 C   0  0  0  0  0  1  0  0  0  0  0  0
  161.1600  206.8710  151.5500 N   0  0  0  0  0  0  0  0  0  0  0  0
  160.5490  202.5930  151.1900 C   0  0  0  0  0  3  0  0  0  0  0  0
  161.6810  205.9080  148.0610 C   0  0  0  0  0  0  0  0  0  0  0  0
  161.5970  204.4220  147.2700 S   0  0  0  0  0  0  0  0  0  0  0  0
  161.5030  209.2280  151.7610 C   0  0  0  0  0  3  0  0  0  0  0  0
  160.7970  203.9660  151.0360 C   0  0  0  0  0  3  0  0  0  0  0  0
  161.1850  207.9890  152.3260 C   0  0  0  0  0  0  0  0  0  0  0  0
  161.7420  208.1590  149.6060 C   0  0  0  0  0  0  0  0  0  0  0  0
  160.9130  207.8840  153.7840 C   0  0  0  0  0  2  0  0  0  0  0  0
  161.5980  209.3320  154.6420 S   0  0  0  0  0  0  0  0  0  0  0  0
  159.9850  210.1700  154.6910 C   0  0  1  0  0  3  0  0  0  0  0  0
  159.3050  209.9200  156.0250 C   0  0  0  0  0  1  0  0  0  0  0  0
  160.1540  211.6350  154.4600 C   0  0  0  0  0  0  0  0  0  0  0  0
  160.1810  212.1260  153.1620 O   0  0  0  0  0  0  0  0  0  0  0  0
  160.2750  212.4300  155.4310 O   0  0  0  0  0  1  0  0  0  0  0  0
  1  4  1  0  0  0  0
  1  2  2  0  0  0  0
  2 11  1  0  0  0  0
  3 13  2  0  0  0  0
  3  6  1  0  0  0  0
  4 16  1  0  0  0  0
  5 12  1  0  0  0  0
  6 18  2  0  0  0  0
  7  8  1  0  0  0  0
  7  4  2  0  0  0  0
  8  5  2  0  0  0  0
  9 15  2  0  0  0  0
 10  9  1  0  0  0  0
 11 17  2  0  0  0  0
 13  1  1  0  0  0  0
 14 13  1  0  0  0  0
 14  7  1  0  0  0  0
 15 17  1  0  0  0  0
 16 12  2  0  0  0  0
 17 19  1  0  0  0  0
 18  2  1  0  0  0  0
 18  9  1  0  0  0  0
 19 20  1  0  0  0  0
 20 21  1  0  0  0  0
 21 22  1  1  0  0  0
 23 21  1  0  0  0  0
 23 25  1  0  0  0  0
 24 23  2  0  0  0  0
M  END
>  <MODEL>
7

>  <REMARK>
 VINA RESULT:      -8.4      1.253      1.467
  Name = 
  4 active torsions:
  status: ('A' for Active; 'I' for Inactive)
    1  A    between atoms: C_2  and  C_21
    2  A    between atoms: C_6  and  S_15
    3  A    between atoms: C_6  and  C_23
    4  A    between atoms: S_15  and  C_21
                            x       y       z     vdW  Elec       q    Type
                         _______ _______ _______ _____ _____    ______ ____

>  <TORSDO>
F 4

$$$$
=
 OpenBabel11052422113D

 25 28  0  0  1  0  0  0  0  0999 V2000
  161.4850  207.5890  150.8820 C   0  0  0  0  0  0  0  0  0  0  0  0
  161.4630  206.5550  149.9420 C   0  0  0  0  0  0  0  0  0  0  0  0
  161.9730  209.1660  149.1470 N   0  0  0  0  0  0  0  0  0  0  0  0
  161.2770  207.5300  152.2680 C   0  0  0  0  0  0  0  0  0  0  0  0
  160.9210  207.8120  155.0230 C   0  0  0  0  0  3  0  0  0  0  0  0
  161.9530  208.1840  148.2380 N   0  0  0  0  0  0  0  0  0  0  0  0
  161.3780  208.7800  152.8770 C   0  0  0  0  0  0  0  0  0  0  0  0
  161.2060  208.9480  154.2490 C   0  0  0  0  0  3  0  0  0  0  0  0
  161.6830  205.8640  147.6260 C   0  0  0  0  0  0  0  0  0  0  0  0
  161.9260  206.1500  146.1840 C   0  0  0  0  0  1  0  0  0  0  0  0
  161.2150  205.2650  150.2960 N   0  0  0  0  0  0  0  0  0  0  0  0
  160.8150  206.5450  154.4200 C   0  0  0  0  0  3  0  0  0  0  0  0
  161.7430  208.8810  150.4510 C   0  0  0  0  0  0  0  0  0  0  0  0
  161.7250  209.9750  151.7340 S   0  0  0  0  0  0  0  0  0  0  0  0
  161.4250  204.5500  148.0240 C   0  0  0  0  0  3  0  0  0  0  0  0
  160.9920  206.3970  153.0350 C   0  0  0  0  0  3  0  0  0  0  0  0
  161.1980  204.2650  149.3730 C   0  0  0  0  0  0  0  0  0  0  0  0
  161.7050  206.8840  148.5880 C   0  0  0  0  0  0  0  0  0  0  0  0
  160.8990  202.8720  149.7980 C   0  0  0  0  0  2  0  0  0  0  0  0
  159.8080  202.0780  148.5810 S   0  0  0  0  0  0  0  0  0  0  0  0
  161.2060  201.5660  147.5380 C   0  0  1  0  0  3  0  0  0  0  0  0
  161.6860  200.1850  147.9480 C   0  0  0  0  0  1  0  0  0  0  0  0
  160.8100  201.5720  146.0990 C   0  0  0  0  0  0  0  0  0  0  0  0
  160.8310  202.7640  145.3870 O   0  0  0  0  0  0  0  0  0  0  0  0
  160.4560  200.5080  145.5240 O   0  0  0  0  0  1  0  0  0  0  0  0
  1  4  1  0  0  0  0
  2 11  1  0  0  0  0
  2  1  1  0  0  0  0
  3 13  1  0  0  0  0
  4  7  2  0  0  0  0
  4 16  1  0  0  0  0
  6 18  1  0  0  0  0
  6  3  2  0  0  0  0
  7  8  1  0  0  0  0
  8  5  2  0  0  0  0
  9 15  2  0  0  0  0
  9 18  1  0  0  0  0
 10  9  1  0  0  0  0
 12  5  1  0  0  0  0
 13  1  2  0  0  0  0
 13 14  1  0  0  0  0
 14  7  1  0  0  0  0
 15 17  1  0  0  0  0
 16 12  2  0  0  0  0
 17 19  1  0  0  0  0
 17 11  2  0  0  0  0
 18  2  2  0  0  0  0
 20 19  1  0  0  0  0
 21 22  1  1  0  0  0
 21 20  1  0  0  0  0
 23 21  1  0  0  0  0
 24 23  2  0  0  0  0
 25 23  1  0  0  0  0
M  END
>  <MODEL>
8

>  <REMARK>
 VINA RESULT:      -8.1      4.071      7.488
  Name = 
  4 active torsions:
  status: ('A' for Active; 'I' for Inactive)
    1  A    between atoms: C_2  and  C_21
    2  A    between atoms: C_6  and  S_15
    3  A    between atoms: C_6  and  C_23
    4  A    between atoms: S_15  and  C_21
                            x       y       z     vdW  Elec       q    Type
                         _______ _______ _______ _____ _____    ______ ____

>  <TORSDO>
F 4

$$$$
=
 OpenBabel11052422113D

 25 28  0  0  1  0  0  0  0  0999 V2000
  161.0870  205.6820  150.7600 C   0  0  0  0  0  0  0  0  0  0  0  0
  161.0090  206.6920  151.7250 C   0  0  0  0  0  0  0  0  0  0  0  0
  160.9970  204.0200  152.4810 N   0  0  0  0  0  0  0  0  0  0  0  0
  161.1760  205.7970  149.3650 C   0  0  0  0  0  0  0  0  0  0  0  0
  161.3580  205.6210  146.5840 C   0  0  0  0  0  3  0  0  0  0  0  0
  160.9210  204.9770  153.4130 N   0  0  0  0  0  0  0  0  0  0  0  0
  161.2350  204.5570  148.7300 C   0  0  0  0  0  0  0  0  0  0  0  0
  161.3270  204.4420  147.3440 C   0  0  0  0  0  3  0  0  0  0  0  0
  160.8400  207.3000  154.0680 C   0  0  0  0  0  0  0  0  0  0  0  0
  160.7420  206.9550  155.5140 C   0  0  0  0  0  1  0  0  0  0  0  0
  161.0110  208.0100  151.3890 N   0  0  0  0  0  0  0  0  0  0  0  0
  161.2990  206.8780  147.2130 C   0  0  0  0  0  3  0  0  0  0  0  0
  161.0790  204.3600  151.1720 C   0  0  0  0  0  0  0  0  0  0  0  0
  161.1800  203.3030  149.8620 S   0  0  0  0  0  0  0  0  0  0  0  0
  160.8430  208.6440  153.6890 C   0  0  0  0  0  3  0  0  0  0  0  0
  161.2070  206.9730  148.6110 C   0  0  0  0  0  3  0  0  0  0  0  0
  160.9370  208.9850  152.3360 C   0  0  0  0  0  0  0  0  0  0  0  0
  160.9240  206.3050  153.0820 C   0  0  0  0  0  0  0  0  0  0  0  0
  160.9180  210.4140  151.9260 C   0  0  0  0  0  2  0  0  0  0  0  0
  160.4570  211.4530  153.3430 S   0  0  0  0  0  0  0  0  0  0  0  0
  158.7390  211.6190  152.7690 C   0  0  1  0  0  3  0  0  0  0  0  0
  157.7800  211.4530  153.9340 C   0  0  0  0  0  1  0  0  0  0  0  0
  158.5360  212.9450  152.1150 C   0  0  0  0  0  0  0  0  0  0  0  0
  158.1610  213.0000  150.7790 O   0  0  0  0  0  0  0  0  0  0  0  0
  158.7040  214.0140  152.7610 O   0  0  0  0  0  1  0  0  0  0  0  0
  1 13  1  0  0  0  0
  1  2  2  0  0  0  0
  2 18  1  0  0  0  0
  3  6  1  0  0  0  0
  4  1  1  0  0  0  0
  5 12  2  0  0  0  0
  5  8  1  0  0  0  0
  7  4  1  0  0  0  0
  7 14  1  0  0  0  0
  8  7  2  0  0  0  0
  9 10  1  0  0  0  0
 11  2  1  0  0  0  0
 11 17  2  0  0  0  0
 12 16  1  0  0  0  0
 13  3  2  0  0  0  0
 14 13  1  0  0  0  0
 15  9  2  0  0  0  0
 16  4  2  0  0  0  0
 17 15  1  0  0  0  0
 18  6  2  0  0  0  0
 18  9  1  0  0  0  0
 19 17  1  0  0  0  0
 19 20  1  0  0  0  0
 21 20  1  0  0  0  0
 21 22  1  1  0  0  0
 23 25  1  0  0  0  0
 23 21  1  0  0  0  0
 24 23  2  0  0  0  0
M  END
>  <MODEL>
9

>  <REMARK>
 VINA RESULT:      -8.1      2.618      4.249
  Name = 
  4 active torsions:
  status: ('A' for Active; 'I' for Inactive)
    1  A    between atoms: C_2  and  C_21
    2  A    between atoms: C_6  and  S_15
    3  A    between atoms: C_6  and  C_23
    4  A    between atoms: S_15  and  C_21
                            x       y       z     vdW  Elec       q    Type
                         _______ _______ _______ _____ _____    ______ ____

>  <TORSDO>
F 4

$$$$
