=
 OpenBabel11052422063D

 25 29  0  0  1  0  0  0  0  0999 V2000
  161.4670  205.1620  149.2920 C   0  0  0  0  0  0  0  0  0  0  0  0
  161.4680  206.1000  150.3310 C   0  0  0  0  0  0  0  0  0  0  0  0
  161.5750  206.8890  147.6070 C   0  0  0  0  0  3  0  0  0  0  0  0
  161.5200  203.6770  149.3350 C   0  0  2  0  0  3  0  0  0  0  0  0
  160.2760  201.3500  148.1810 C   0  0  0  0  0  3  0  0  0  0  0  0
  161.5570  207.8540  148.6270 C   0  0  0  0  0  3  0  0  0  0  0  0
  161.5000  203.3860  147.8560 C   0  0  0  0  0  0  0  0  0  0  0  0
  161.0720  202.0690  147.3790 C   0  0  0  0  0  3  0  0  0  0  0  0
  161.4810  208.4630  151.0740 C   0  0  0  0  0  0  0  0  0  0  0  0
  161.5530  210.0720  150.7730 S   0  0  0  0  0  0  0  0  0  0  0  0
  161.4860  205.6500  151.7660 C   0  0  0  0  0  2  0  0  0  0  0  0
  159.8070  201.8980  149.4810 C   0  0  0  0  0  3  0  0  0  0  0  0
  161.5430  205.5480  147.9760 C   0  0  0  0  0  0  0  0  0  0  0  0
  161.5210  204.4360  147.0950 N   0  0  0  0  0  0  0  0  0  0  0  0
  161.3330  208.0180  152.4260 N   0  0  0  0  0  0  0  0  0  0  0  0
  160.3370  203.0190  149.9980 C   0  0  0  0  0  3  0  0  0  0  0  0
  161.2970  206.7630  152.7650 C   0  0  0  0  0  0  0  0  0  0  0  0
  161.5080  207.4690  149.9860 C   0  0  0  0  0  0  0  0  0  0  0  0
  161.1490  206.3980  154.2010 C   0  0  0  0  0  2  0  0  0  0  0  0
  160.3310  207.4470  154.9310 C   0  0  2  0  0  3  0  0  0  0  0  0
  161.1990  208.1030  155.9870 C   0  0  2  0  0  3  0  0  0  0  0  0
  160.1820  207.0490  156.3830 C   0  0  0  0  0  2  0  0  0  0  0  0
  160.6720  209.4660  156.2980 C   0  0  0  0  0  0  0  0  0  0  0  0
  159.6880  210.0330  155.4980 O   0  0  0  0  0  0  0  0  0  0  0  0
  161.1480  210.1220  157.2610 O   0  0  0  0  0  1  0  0  0  0  0  0
  1  4  1  0  0  0  0
  1  2  1  0  0  0  0
  2 11  1  0  0  0  0
  3 13  1  0  0  0  0
  3  6  2  0  0  0  0
  4 16  1  1  0  0  0
  5 12  1  0  0  0  0
  6 18  1  0  0  0  0
  7  4  1  0  0  0  0
  8  7  1  0  0  0  0
  8  5  2  0  0  0  0
  9 15  1  0  0  0  0
 10  9  2  0  0  0  0
 11 17  1  0  0  0  0
 12 16  2  0  0  0  0
 13  1  2  0  0  0  0
 14  7  2  0  0  0  0
 14 13  1  0  0  0  0
 15 17  2  0  0  0  0
 17 19  1  0  0  0  0
 18  2  2  0  0  0  0
 18  9  1  0  0  0  0
 20 19  1  6  0  0  0
 20 21  1  0  0  0  0
 20 22  1  0  0  0  0
 21 23  1  1  0  0  0
 21 22  1  0  0  0  0
 23 25  1  0  0  0  0
 24 23  2  0  0  0  0
M  END
>  <MODEL>
1

>  <REMARK>
 VINA RESULT:      -9.1      0.000      0.000
  Name = 
  3 active torsions:
  status: ('A' for Active; 'I' for Inactive)
    1  A    between atoms: C_2  and  C_21
    2  A    between atoms: C_6  and  C_15
    3  A    between atoms: C_6  and  C_23
                            x       y       z     vdW  Elec       q    Type
                         _______ _______ _______ _____ _____    ______ ____

>  <TORSDO>
F 3

$$$$
=
 OpenBabel11052422063D

 25 29  0  0  1  0  0  0  0  0999 V2000
  161.0590  205.7310  150.4680 C   0  0  0  0  0  0  0  0  0  0  0  0
  161.0390  206.7560  151.4200 C   0  0  0  0  0  0  0  0  0  0  0  0
  161.1740  204.0230  152.1720 C   0  0  0  0  0  3  0  0  0  0  0  0
  160.9160  205.7860  148.9890 C   0  0  2  0  0  3  0  0  0  0  0  0
  162.0990  204.7510  146.5760 C   0  0  0  0  0  3  0  0  0  0  0  0
  161.1760  205.0310  153.1500 C   0  0  0  0  0  3  0  0  0  0  0  0
  161.0240  204.3160  148.6750 C   0  0  0  0  0  0  0  0  0  0  0  0
  161.4060  203.8850  147.3280 C   0  0  0  0  0  3  0  0  0  0  0  0
  161.1130  207.4700  153.7900 C   0  0  0  0  0  0  0  0  0  0  0  0
  161.1570  207.1470  155.3960 S   0  0  0  0  0  0  0  0  0  0  0  0
  160.8920  208.1910  150.9930 C   0  0  0  0  0  2  0  0  0  0  0  0
  162.5060  206.0760  147.1160 C   0  0  0  0  0  3  0  0  0  0  0  0
  161.1000  204.4080  150.8370 C   0  0  0  0  0  0  0  0  0  0  0  0
  161.1200  203.5440  149.7130 N   0  0  0  0  0  0  0  0  0  0  0  0
  161.1370  208.8340  153.3590 N   0  0  0  0  0  0  0  0  0  0  0  0
  162.0070  206.5400  148.2740 C   0  0  0  0  0  3  0  0  0  0  0  0
  161.0750  209.1880  152.1090 C   0  0  0  0  0  0  0  0  0  0  0  0
  161.1050  206.3940  152.7830 C   0  0  0  0  0  0  0  0  0  0  0  0
  161.0970  210.6360  151.7580 C   0  0  0  0  0  2  0  0  0  0  0  0
  160.4440  211.4550  152.8550 C   0  0  2  0  0  3  0  0  0  0  0  0
  158.9370  211.3680  152.7040 C   0  0  2  0  0  3  0  0  0  0  0  0
  159.6800  212.6060  152.2370 C   0  0  0  0  0  2  0  0  0  0  0  0
  158.2830  211.6300  154.0210 C   0  0  0  0  0  0  0  0  0  0  0  0
  158.9530  211.3420  155.2040 O   0  0  0  0  0  1  0  0  0  0  0  0
  157.1050  212.0730  154.0640 O   0  0  0  0  0  0  0  0  0  0  0  0
  1 13  2  0  0  0  0
  1  2  1  0  0  0  0
  2 18  2  0  0  0  0
  3  6  2  0  0  0  0
  4 16  1  6  0  0  0
  4  1  1  0  0  0  0
  5 12  1  0  0  0  0
  5  8  2  0  0  0  0
  7  4  1  0  0  0  0
  7 14  2  0  0  0  0
  8  7  1  0  0  0  0
  9 10  2  0  0  0  0
 11  2  1  0  0  0  0
 11 17  1  0  0  0  0
 12 16  2  0  0  0  0
 13  3  1  0  0  0  0
 14 13  1  0  0  0  0
 15  9  1  0  0  0  0
 17 15  2  0  0  0  0
 18  6  1  0  0  0  0
 18  9  1  0  0  0  0
 19 17  1  0  0  0  0
 20 19  1  6  0  0  0
 21 20  1  0  0  0  0
 21 23  1  1  0  0  0
 22 21  1  0  0  0  0
 22 20  1  0  0  0  0
 23 25  2  0  0  0  0
 23 24  1  0  0  0  0
M  END
>  <MODEL>
2

>  <REMARK>
 VINA RESULT:      -9.0      2.444      3.927
  Name = 
  3 active torsions:
  status: ('A' for Active; 'I' for Inactive)
    1  A    between atoms: C_2  and  C_21
    2  A    between atoms: C_6  and  C_15
    3  A    between atoms: C_6  and  C_23
                            x       y       z     vdW  Elec       q    Type
                         _______ _______ _______ _____ _____    ______ ____

>  <TORSDO>
F 3

$$$$
=
 OpenBabel11052422063D

 25 29  0  0  1  0  0  0  0  0999 V2000
  160.9330  208.7130  153.3010 C   0  0  0  0  0  0  0  0  0  0  0  0
  161.0580  207.7390  152.3050 C   0  0  0  0  0  0  0  0  0  0  0  0
  160.8930  207.0500  155.0530 C   0  0  0  0  0  3  0  0  0  0  0  0
  160.9650  210.1960  153.2080 C   0  0  2  0  0  3  0  0  0  0  0  0
  159.5690  212.5380  154.1380 C   0  0  0  0  0  3  0  0  0  0  0  0
  160.9980  206.0490  154.0740 C   0  0  0  0  0  3  0  0  0  0  0  0
  160.7870  210.5400  154.6650 C   0  0  0  0  0  0  0  0  0  0  0  0
  160.2890  211.8650  155.0450 C   0  0  0  0  0  3  0  0  0  0  0  0
  161.1870  205.3520  151.6570 C   0  0  0  0  0  0  0  0  0  0  0  0
  161.2550  203.7560  152.0240 S   0  0  0  0  0  0  0  0  0  0  0  0
  161.2180  208.1380  150.8630 C   0  0  0  0  0  2  0  0  0  0  0  0
  159.2470  211.9340  152.8180 C   0  0  0  0  0  3  0  0  0  0  0  0
  160.8780  208.3770  154.6320 C   0  0  0  0  0  0  0  0  0  0  0  0
  160.7450  209.5190  155.4630 N   0  0  0  0  0  0  0  0  0  0  0  0
  161.1740  205.7440  150.2810 N   0  0  0  0  0  0  0  0  0  0  0  0
  159.8470  210.8060  152.4020 C   0  0  0  0  0  3  0  0  0  0  0  0
  161.1520  206.9860  149.8930 C   0  0  0  0  0  0  0  0  0  0  0  0
  161.0840  206.3850  152.7040 C   0  0  0  0  0  0  0  0  0  0  0  0
  161.1490  207.2950  148.4360 C   0  0  0  0  0  2  0  0  0  0  0  0
  160.8200  206.0510  147.6330 C   0  0  2  0  0  3  0  0  0  0  0  0
  161.9640  205.7640  146.6780 C   0  0  2  0  0  3  0  0  0  0  0  0
  160.6910  206.4150  146.1700 C   0  0  0  0  0  2  0  0  0  0  0  0
  161.9730  204.3130  146.3240 C   0  0  0  0  0  0  0  0  0  0  0  0
  161.4780  203.3720  147.2190 O   0  0  0  0  0  1  0  0  0  0  0  0
  162.4700  203.9330  145.2320 O   0  0  0  0  0  0  0  0  0  0  0  0
  1 13  1  0  0  0  0
  2 18  1  0  0  0  0
  2  1  2  0  0  0  0
  4 16  1  6  0  0  0
  4  1  1  0  0  0  0
  4  7  1  0  0  0  0
  5  8  2  0  0  0  0
  6  3  1  0  0  0  0
  7  8  1  0  0  0  0
  7 14  2  0  0  0  0
  9 10  2  0  0  0  0
  9 18  1  0  0  0  0
 11  2  1  0  0  0  0
 12  5  1  0  0  0  0
 13  3  2  0  0  0  0
 13 14  1  0  0  0  0
 15  9  1  0  0  0  0
 16 12  2  0  0  0  0
 17 15  2  0  0  0  0
 17 11  1  0  0  0  0
 18  6  2  0  0  0  0
 19 17  1  0  0  0  0
 20 19  1  1  0  0  0
 21 23  1  6  0  0  0
 21 20  1  0  0  0  0
 22 21  1  0  0  0  0
 22 20  1  0  0  0  0
 23 24  1  0  0  0  0
 25 23  2  0  0  0  0
M  END
>  <MODEL>
3

>  <REMARK>
 VINA RESULT:      -8.9      4.061      8.310
  Name = 
  3 active torsions:
  status: ('A' for Active; 'I' for Inactive)
    1  A    between atoms: C_2  and  C_21
    2  A    between atoms: C_6  and  C_15
    3  A    between atoms: C_6  and  C_23
                            x       y       z     vdW  Elec       q    Type
                         _______ _______ _______ _____ _____    ______ ____

>  <TORSDO>
F 3

$$$$
=
 OpenBabel11052422063D

 25 29  0  0  1  0  0  0  0  0999 V2000
  161.0260  205.5580  150.3680 C   0  0  0  0  0  0  0  0  0  0  0  0
  161.3210  206.9210  150.4740 C   0  0  0  0  0  0  0  0  0  0  0  0
  161.1990  205.2390  152.7560 C   0  0  0  0  0  3  0  0  0  0  0  0
  160.6310  204.7460  149.1870 C   0  0  2  0  0  3  0  0  0  0  0  0
  161.2060  202.2410  147.8860 C   0  0  0  0  0  3  0  0  0  0  0  0
  161.5180  206.6000  152.8910 C   0  0  0  0  0  3  0  0  0  0  0  0
  160.4710  203.4020  149.8510 C   0  0  0  0  0  0  0  0  0  0  0  0
  160.5430  202.1790  149.0480 C   0  0  0  0  0  3  0  0  0  0  0  0
  161.9170  208.8740  151.8750 C   0  0  0  0  0  0  0  0  0  0  0  0
  162.2000  209.5780  153.3280 S   0  0  0  0  0  0  0  0  0  0  0  0
  161.3060  207.8020  149.2540 C   0  0  0  0  0  2  0  0  0  0  0  0
  161.8870  203.4940  147.4610 C   0  0  0  0  0  3  0  0  0  0  0  0
  160.9440  204.7520  151.4780 C   0  0  0  0  0  0  0  0  0  0  0  0
  160.6400  203.4090  151.1370 N   0  0  0  0  0  0  0  0  0  0  0  0
  162.0570  209.6600  150.6880 N   0  0  0  0  0  0  0  0  0  0  0  0
  161.6730  204.6550  148.1020 C   0  0  0  0  0  3  0  0  0  0  0  0
  161.8240  209.1970  149.4940 C   0  0  0  0  0  0  0  0  0  0  0  0
  161.5770  207.4440  151.7600 C   0  0  0  0  0  0  0  0  0  0  0  0
  161.9900  210.0960  148.3180 C   0  0  0  0  0  2  0  0  0  0  0  0
  161.9500  211.5480  148.7530 C   0  0  2  0  0  3  0  0  0  0  0  0
  161.3740  212.3860  147.6270 C   0  0  2  0  0  3  0  0  0  0  0  0
  162.8710  212.3640  147.8730 C   0  0  0  0  0  2  0  0  0  0  0  0
  160.7820  213.6390  148.1820 C   0  0  0  0  0  0  0  0  0  0  0  0
  159.9900  214.4530  147.3810 O   0  0  0  0  0  0  0  0  0  0  0  0
  161.0340  213.9850  149.3660 O   0  0  0  0  0  1  0  0  0  0  0  0
  1  2  2  0  0  0  0
  1 13  1  0  0  0  0
  2 18  1  0  0  0  0
  3  6  1  0  0  0  0
  4 16  1  6  0  0  0
  4  7  1  0  0  0  0
  4  1  1  0  0  0  0
  5  8  2  0  0  0  0
  7 14  2  0  0  0  0
  8  7  1  0  0  0  0
  9 10  2  0  0  0  0
 11 17  1  0  0  0  0
 11  2  1  0  0  0  0
 12  5  1  0  0  0  0
 12 16  2  0  0  0  0
 13  3  2  0  0  0  0
 14 13  1  0  0  0  0
 15  9  1  0  0  0  0
 17 15  2  0  0  0  0
 18  9  1  0  0  0  0
 18  6  2  0  0  0  0
 19 17  1  0  0  0  0
 20 19  1  6  0  0  0
 21 22  1  0  0  0  0
 21 23  1  1  0  0  0
 21 20  1  0  0  0  0
 22 20  1  0  0  0  0
 23 25  1  0  0  0  0
 24 23  2  0  0  0  0
M  END
>  <MODEL>
4

>  <REMARK>
 VINA RESULT:      -8.7      3.360      5.321
  Name = 
  3 active torsions:
  status: ('A' for Active; 'I' for Inactive)
    1  A    between atoms: C_2  and  C_21
    2  A    between atoms: C_6  and  C_15
    3  A    between atoms: C_6  and  C_23
                            x       y       z     vdW  Elec       q    Type
                         _______ _______ _______ _____ _____    ______ ____

>  <TORSDO>
F 3

$$$$
=
 OpenBabel11052422063D

 25 29  0  0  1  0  0  0  0  0999 V2000
  161.3440  206.5220  149.4050 C   0  0  0  0  0  0  0  0  0  0  0  0
  161.5530  207.8570  149.7680 C   0  0  0  0  0  0  0  0  0  0  0  0
  161.2200  205.8170  151.7130 C   0  0  0  0  0  3  0  0  0  0  0  0
  161.1490  205.9070  148.0660 C   0  0  2  0  0  3  0  0  0  0  0  0
  162.0190  203.6700  146.4720 C   0  0  0  0  0  3  0  0  0  0  0  0
  161.4480  207.1450  152.1070 C   0  0  0  0  0  3  0  0  0  0  0  0
  160.9740  204.4670  148.4790 C   0  0  0  0  0  0  0  0  0  0  0  0
  161.2130  203.3970  147.5070 C   0  0  0  0  0  3  0  0  0  0  0  0
  161.8580  209.5680  151.5330 C   0  0  0  0  0  0  0  0  0  0  0  0
  161.9120  210.0290  153.1050 S   0  0  0  0  0  0  0  0  0  0  0  0
  161.6510  208.9280  148.7150 C   0  0  0  0  0  2  0  0  0  0  0  0
  162.6830  204.9960  146.3520 C   0  0  0  0  0  3  0  0  0  0  0  0
  161.1590  205.5410  150.3500 C   0  0  0  0  0  0  0  0  0  0  0  0
  160.9720  204.2650  149.7600 N   0  0  0  0  0  0  0  0  0  0  0  0
  162.1110  210.5430  150.5180 N   0  0  0  0  0  0  0  0  0  0  0  0
  162.3280  206.0280  147.1350 C   0  0  0  0  0  3  0  0  0  0  0  0
  162.0610  210.2780  149.2450 C   0  0  0  0  0  0  0  0  0  0  0  0
  161.6110  208.1670  151.1440 C   0  0  0  0  0  0  0  0  0  0  0  0
  162.3320  211.3640  148.2620 C   0  0  0  0  0  2  0  0  0  0  0  0
  161.2300  212.4050  148.3080 C   0  0  2  0  0  3  0  0  0  0  0  0
  160.4700  212.3790  146.9950 C   0  0  2  0  0  3  0  0  0  0  0  0
  161.4950  213.4660  147.2620 C   0  0  0  0  0  2  0  0  0  0  0  0
  159.0910  212.9130  147.2000 C   0  0  0  0  0  0  0  0  0  0  0  0
  158.6820  213.3270  148.4620 O   0  0  0  0  0  1  0  0  0  0  0  0
  158.2790  212.9500  146.2380 O   0  0  0  0  0  0  0  0  0  0  0  0
  1  2  2  0  0  0  0
  1 13  1  0  0  0  0
  2 18  1  0  0  0  0
  3  6  1  0  0  0  0
  4 16  1  6  0  0  0
  4  7  1  0  0  0  0
  4  1  1  0  0  0  0
  5  8  2  0  0  0  0
  7 14  2  0  0  0  0
  8  7  1  0  0  0  0
  9 10  2  0  0  0  0
 11 17  1  0  0  0  0
 11  2  1  0  0  0  0
 12  5  1  0  0  0  0
 12 16  2  0  0  0  0
 13  3  2  0  0  0  0
 14 13  1  0  0  0  0
 15  9  1  0  0  0  0
 17 15  2  0  0  0  0
 18  9  1  0  0  0  0
 18  6  2  0  0  0  0
 19 17  1  0  0  0  0
 20 19  1  6  0  0  0
 21 23  1  1  0  0  0
 21 22  1  0  0  0  0
 21 20  1  0  0  0  0
 22 20  1  0  0  0  0
 23 24  1  0  0  0  0
 25 23  2  0  0  0  0
M  END
>  <MODEL>
5

>  <REMARK>
 VINA RESULT:      -8.7      3.623      5.788
  Name = 
  3 active torsions:
  status: ('A' for Active; 'I' for Inactive)
    1  A    between atoms: C_2  and  C_21
    2  A    between atoms: C_6  and  C_15
    3  A    between atoms: C_6  and  C_23
                            x       y       z     vdW  Elec       q    Type
                         _______ _______ _______ _____ _____    ______ ____

>  <TORSDO>
F 3

$$$$
=
 OpenBabel11052422063D

 25 29  0  0  1  0  0  0  0  0999 V2000
  160.9760  206.6260  151.2560 C   0  0  0  0  0  0  0  0  0  0  0  0
  160.8870  207.5710  152.2850 C   0  0  0  0  0  0  0  0  0  0  0  0
  161.2710  204.8110  152.8230 C   0  0  0  0  0  3  0  0  0  0  0  0
  160.8000  206.7800  149.7880 C   0  0  2  0  0  3  0  0  0  0  0  0
  162.0210  206.0370  147.2870 C   0  0  0  0  0  3  0  0  0  0  0  0
  161.2050  205.7380  153.8750 C   0  0  0  0  0  3  0  0  0  0  0  0
  161.0270  205.3520  149.3610 C   0  0  0  0  0  0  0  0  0  0  0  0
  161.4190  205.0600  147.9790 C   0  0  0  0  0  3  0  0  0  0  0  0
  160.9460  208.1080  154.7020 C   0  0  0  0  0  0  0  0  0  0  0  0
  161.0490  207.6700  156.2770 S   0  0  0  0  0  0  0  0  0  0  0  0
  160.6090  209.0160  151.9710 C   0  0  0  0  0  2  0  0  0  0  0  0
  162.3220  207.3470  147.9220 C   0  0  0  0  0  3  0  0  0  0  0  0
  161.1380  205.2880  151.5220 C   0  0  0  0  0  0  0  0  0  0  0  0
  161.2090  204.5160  150.3350 N   0  0  0  0  0  0  0  0  0  0  0  0
  160.8440  209.4970  154.3760 N   0  0  0  0  0  0  0  0  0  0  0  0
  161.8080  207.6780  149.1190 C   0  0  0  0  0  3  0  0  0  0  0  0
  160.7270  209.9380  153.1570 C   0  0  0  0  0  0  0  0  0  0  0  0
  161.0110  207.1140  153.6150 C   0  0  0  0  0  0  0  0  0  0  0  0
  160.6190  211.4050  152.9190 C   0  0  0  0  0  2  0  0  0  0  0  0
  159.2400  211.7540  152.3940 C   0  0  2  0  0  3  0  0  0  0  0  0
  158.8420  213.1200  152.9210 C   0  0  2  0  0  3  0  0  0  0  0  0
  158.2720  211.8630  153.5520 C   0  0  0  0  0  2  0  0  0  0  0  0
  157.8330  213.7370  152.0090 C   0  0  0  0  0  0  0  0  0  0  0  0
  157.9370  213.5680  150.6340 O   0  0  0  0  0  0  0  0  0  0  0  0
  156.9090  214.4500  152.4810 O   0  0  0  0  0  1  0  0  0  0  0  0
  1 13  2  0  0  0  0
  1  2  1  0  0  0  0
  2 18  2  0  0  0  0
  3  6  2  0  0  0  0
  4 16  1  6  0  0  0
  4  1  1  0  0  0  0
  5 12  1  0  0  0  0
  5  8  2  0  0  0  0
  7  4  1  0  0  0  0
  7 14  2  0  0  0  0
  8  7  1  0  0  0  0
  9 10  2  0  0  0  0
 11  2  1  0  0  0  0
 11 17  1  0  0  0  0
 12 16  2  0  0  0  0
 13  3  1  0  0  0  0
 14 13  1  0  0  0  0
 15  9  1  0  0  0  0
 17 15  2  0  0  0  0
 18  6  1  0  0  0  0
 18  9  1  0  0  0  0
 19 17  1  0  0  0  0
 20 19  1  1  0  0  0
 20 21  1  0  0  0  0
 20 22  1  0  0  0  0
 21 23  1  6  0  0  0
 21 22  1  0  0  0  0
 23 25  1  0  0  0  0
 24 23  2  0  0  0  0
M  END
>  <MODEL>
6

>  <REMARK>
 VINA RESULT:      -8.6      3.273      4.811
  Name = 
  3 active torsions:
  status: ('A' for Active; 'I' for Inactive)
    1  A    between atoms: C_2  and  C_21
    2  A    between atoms: C_6  and  C_15
    3  A    between atoms: C_6  and  C_23
                            x       y       z     vdW  Elec       q    Type
                         _______ _______ _______ _____ _____    ______ ____

>  <TORSDO>
F 3

$$$$
=
 OpenBabel11052422063D

 25 29  0  0  1  0  0  0  0  0999 V2000
  161.0950  208.1760  151.9650 C   0  0  0  0  0  0  0  0  0  0  0  0
  161.1110  207.1330  151.0330 C   0  0  0  0  0  0  0  0  0  0  0  0
  161.9740  209.7510  150.3580 C   0  0  0  0  0  3  0  0  0  0  0  0
  160.5760  208.2160  153.3570 C   0  0  2  0  0  3  0  0  0  0  0  0
  161.2950  209.1090  156.0000 C   0  0  0  0  0  3  0  0  0  0  0  0
  162.0210  208.7190  149.4070 C   0  0  0  0  0  3  0  0  0  0  0  0
  160.8930  209.6500  153.6990 C   0  0  0  0  0  0  0  0  0  0  0  0
  161.0020  210.0580  155.1020 C   0  0  0  0  0  3  0  0  0  0  0  0
  161.6350  206.3120  148.7560 C   0  0  0  0  0  0  0  0  0  0  0  0
  162.1460  206.5480  147.2170 S   0  0  0  0  0  0  0  0  0  0  0  0
  160.5770  205.7740  151.3980 C   0  0  0  0  0  2  0  0  0  0  0  0
  161.5520  207.7070  155.5730 C   0  0  0  0  0  3  0  0  0  0  0  0
  161.4910  209.4480  151.6270 C   0  0  0  0  0  0  0  0  0  0  0  0
  161.3990  210.3410  152.7250 N   0  0  0  0  0  0  0  0  0  0  0  0
  161.2770  204.9910  149.1700 N   0  0  0  0  0  0  0  0  0  0  0  0
  161.2780  207.2970  154.3230 C   0  0  0  0  0  3  0  0  0  0  0  0
  160.8320  204.7120  150.3610 C   0  0  0  0  0  0  0  0  0  0  0  0
  161.5890  207.4130  149.7350 C   0  0  0  0  0  0  0  0  0  0  0  0
  160.4760  203.3040  150.6950 C   0  0  0  0  0  2  0  0  0  0  0  0
  161.2000  202.3430  149.7730 C   0  0  2  0  0  3  0  0  0  0  0  0
  160.1990  201.7350  148.8090 C   0  0  2  0  0  3  0  0  0  0  0  0
  160.6860  200.9390  150.0050 C   0  0  0  0  0  2  0  0  0  0  0  0
  160.9010  201.2820  147.5710 C   0  0  0  0  0  0  0  0  0  0  0  0
  161.6160  200.0910  147.5700 O   0  0  0  0  0  1  0  0  0  0  0  0
  160.8840  202.0000  146.5370 O   0  0  0  0  0  0  0  0  0  0  0  0
  1  4  1  0  0  0  0
  2 11  1  0  0  0  0
  2  1  2  0  0  0  0
  3 13  2  0  0  0  0
  4  7  1  0  0  0  0
  4 16  1  1  0  0  0
  6 18  2  0  0  0  0
  6  3  1  0  0  0  0
  7  8  1  0  0  0  0
  8  5  2  0  0  0  0
  9 15  1  0  0  0  0
  9 18  1  0  0  0  0
 10  9  2  0  0  0  0
 12  5  1  0  0  0  0
 13  1  1  0  0  0  0
 13 14  1  0  0  0  0
 14  7  2  0  0  0  0
 15 17  2  0  0  0  0
 16 12  2  0  0  0  0
 17 19  1  0  0  0  0
 17 11  1  0  0  0  0
 18  2  1  0  0  0  0
 20 22  1  0  0  0  0
 20 19  1  1  0  0  0
 21 23  1  6  0  0  0
 21 20  1  0  0  0  0
 21 22  1  0  0  0  0
 24 23  1  0  0  0  0
 25 23  2  0  0  0  0
M  END
>  <MODEL>
7

>  <REMARK>
 VINA RESULT:      -8.5      3.953      7.491
  Name = 
  3 active torsions:
  status: ('A' for Active; 'I' for Inactive)
    1  A    between atoms: C_2  and  C_21
    2  A    between atoms: C_6  and  C_15
    3  A    between atoms: C_6  and  C_23
                            x       y       z     vdW  Elec       q    Type
                         _______ _______ _______ _____ _____    ______ ____

>  <TORSDO>
F 3

$$$$
=
 OpenBabel11052422063D

 25 29  0  0  1  0  0  0  0  0999 V2000
  161.3550  206.0900  151.9170 C   0  0  0  0  0  0  0  0  0  0  0  0
  161.3300  205.4230  150.6870 C   0  0  0  0  0  0  0  0  0  0  0  0
  160.8310  204.0670  153.1300 C   0  0  0  0  0  3  0  0  0  0  0  0
  161.7190  207.4930  152.2450 C   0  0  2  0  0  3  0  0  0  0  0  0
  160.8130  209.7480  153.7920 C   0  0  0  0  0  3  0  0  0  0  0  0
  160.7790  203.3760  151.9090 C   0  0  0  0  0  3  0  0  0  0  0  0
  161.5220  207.4570  153.7390 C   0  0  0  0  0  0  0  0  0  0  0  0
  161.3040  208.7050  154.4750 C   0  0  0  0  0  3  0  0  0  0  0  0
  160.9740  203.3410  149.3940 C   0  0  0  0  0  0  0  0  0  0  0  0
  160.6630  201.7350  149.2980 S   0  0  0  0  0  0  0  0  0  0  0  0
  161.6710  206.1530  149.4160 C   0  0  0  0  0  2  0  0  0  0  0  0
  160.4560  209.6180  152.3540 C   0  0  0  0  0  3  0  0  0  0  0  0
  161.1370  205.4240  153.0990 C   0  0  0  0  0  0  0  0  0  0  0  0
  161.2030  206.2950  154.2170 N   0  0  0  0  0  0  0  0  0  0  0  0
  161.1410  204.0860  148.1840 N   0  0  0  0  0  0  0  0  0  0  0  0
  160.8200  208.5400  151.6390 C   0  0  0  0  0  3  0  0  0  0  0  0
  161.4190  205.3570  148.1610 C   0  0  0  0  0  0  0  0  0  0  0  0
  161.0300  204.0430  150.6890 C   0  0  0  0  0  0  0  0  0  0  0  0
  161.5830  206.0440  146.8500 C   0  0  0  0  0  2  0  0  0  0  0  0
  160.7590  205.3490  145.7830 C   0  0  2  0  0  3  0  0  0  0  0  0
  161.4110  204.0220  145.4420 C   0  0  2  0  0  3  0  0  0  0  0  0
  161.5810  205.2150  144.5200 C   0  0  0  0  0  2  0  0  0  0  0  0
  160.3880  203.0870  144.8860 C   0  0  0  0  0  0  0  0  0  0  0  0
  159.3310  203.5770  144.1290 O   0  0  0  0  0  0  0  0  0  0  0  0
  160.4560  201.8550  145.1380 O   0  0  0  0  0  1  0  0  0  0  0  0
  1  4  1  0  0  0  0
  1 13  1  0  0  0  0
  2 18  1  0  0  0  0
  2  1  2  0  0  0  0
  4 16  1  6  0  0  0
  4  7  1  0  0  0  0
  5  8  2  0  0  0  0
  6  3  1  0  0  0  0
  7 14  2  0  0  0  0
  7  8  1  0  0  0  0
  9 18  1  0  0  0  0
 10  9  2  0  0  0  0
 11  2  1  0  0  0  0
 12  5  1  0  0  0  0
 13  3  2  0  0  0  0
 13 14  1  0  0  0  0
 15  9  1  0  0  0  0
 16 12  2  0  0  0  0
 17 15  2  0  0  0  0
 17 11  1  0  0  0  0
 18  6  2  0  0  0  0
 19 17  1  0  0  0  0
 20 19  1  1  0  0  0
 21 23  1  6  0  0  0
 21 20  1  0  0  0  0
 22 21  1  0  0  0  0
 22 20  1  0  0  0  0
 23 25  1  0  0  0  0
 24 23  2  0  0  0  0
M  END
>  <MODEL>
8

>  <REMARK>
 VINA RESULT:      -8.4      4.540      8.206
  Name = 
  3 active torsions:
  status: ('A' for Active; 'I' for Inactive)
    1  A    between atoms: C_2  and  C_21
    2  A    between atoms: C_6  and  C_15
    3  A    between atoms: C_6  and  C_23
                            x       y       z     vdW  Elec       q    Type
                         _______ _______ _______ _____ _____    ______ ____

>  <TORSDO>
F 3

$$$$
=
 OpenBabel11052422063D

 25 29  0  0  1  0  0  0  0  0999 V2000
  161.2310  205.5050  149.2830 C   0  0  0  0  0  0  0  0  0  0  0  0
  161.3870  206.5790  150.1660 C   0  0  0  0  0  0  0  0  0  0  0  0
  160.7010  203.9820  151.0820 C   0  0  0  0  0  3  0  0  0  0  0  0
  161.2650  205.4660  147.7980 C   0  0  2  0  0  3  0  0  0  0  0  0
  162.3740  203.9520  145.6130 C   0  0  0  0  0  3  0  0  0  0  0  0
  160.8710  205.0360  151.9940 C   0  0  0  0  0  3  0  0  0  0  0  0
  161.0060  203.9970  147.5820 C   0  0  0  0  0  0  0  0  0  0  0  0
  161.3990  203.3660  146.3200 C   0  0  0  0  0  3  0  0  0  0  0  0
  161.3990  207.4540  152.4830 C   0  0  0  0  0  0  0  0  0  0  0  0
  161.1850  207.2720  154.0980 S   0  0  0  0  0  0  0  0  0  0  0  0
  161.6770  207.9610  149.6450 C   0  0  0  0  0  2  0  0  0  0  0  0
  163.0630  205.1670  146.1250 C   0  0  0  0  0  3  0  0  0  0  0  0
  160.8750  204.2550  149.7290 C   0  0  0  0  0  0  0  0  0  0  0  0
  160.7800  203.3210  148.6660 N   0  0  0  0  0  0  0  0  0  0  0  0
  161.8350  208.7210  151.9830 N   0  0  0  0  0  0  0  0  0  0  0  0
  162.5880  205.8440  147.1830 C   0  0  0  0  0  3  0  0  0  0  0  0
  162.0030  208.9690  150.7160 C   0  0  0  0  0  0  0  0  0  0  0  0
  161.2090  206.3330  151.5450 C   0  0  0  0  0  0  0  0  0  0  0  0
  162.4510  210.3240  150.2910 C   0  0  0  0  0  2  0  0  0  0  0  0
  161.5750  210.8410  149.1660 C   0  0  2  0  0  3  0  0  0  0  0  0
  162.1620  212.1370  148.6400 C   0  0  2  0  0  3  0  0  0  0  0  0
  160.9640  212.1650  149.5710 C   0  0  0  0  0  2  0  0  0  0  0  0
  161.7190  212.3550  147.2300 C   0  0  0  0  0  0  0  0  0  0  0  0
  160.4990  211.8520  146.7950 O   0  0  0  0  0  1  0  0  0  0  0  0
  162.4690  212.9580  146.4190 O   0  0  0  0  0  0  0  0  0  0  0  0
  1 13  2  0  0  0  0
  1  2  1  0  0  0  0
  2 18  2  0  0  0  0
  3  6  2  0  0  0  0
  4 16  1  1  0  0  0
  4  1  1  0  0  0  0
  5 12  1  0  0  0  0
  5  8  2  0  0  0  0
  7  4  1  0  0  0  0
  7 14  2  0  0  0  0
  8  7  1  0  0  0  0
  9 10  2  0  0  0  0
 11  2  1  0  0  0  0
 11 17  1  0  0  0  0
 12 16  2  0  0  0  0
 13  3  1  0  0  0  0
 14 13  1  0  0  0  0
 15  9  1  0  0  0  0
 17 15  2  0  0  0  0
 18  6  1  0  0  0  0
 18  9  1  0  0  0  0
 19 17  1  0  0  0  0
 20 22  1  0  0  0  0
 20 19  1  1  0  0  0
 21 23  1  6  0  0  0
 21 20  1  0  0  0  0
 21 22  1  0  0  0  0
 24 23  1  0  0  0  0
 25 23  2  0  0  0  0
M  END
>  <MODEL>
9

>  <REMARK>
 VINA RESULT:      -8.3      3.486      5.289
  Name = 
  3 active torsions:
  status: ('A' for Active; 'I' for Inactive)
    1  A    between atoms: C_2  and  C_21
    2  A    between atoms: C_6  and  C_15
    3  A    between atoms: C_6  and  C_23
                            x       y       z     vdW  Elec       q    Type
                         _______ _______ _______ _____ _____    ______ ____

>  <TORSDO>
F 3

$$$$
