=
 OpenBabel11052422123D

 25 28  0  0  0  0  0  0  0  0999 V2000
  161.3940  205.3500  149.3870 C   0  0  0  0  0  0  0  0  0  0  0  0
  161.4130  206.3270  150.3800 C   0  0  0  0  0  0  0  0  0  0  0  0
  161.9250  206.9410  147.7160 C   0  0  0  0  0  3  0  0  0  0  0  0
  161.1460  204.0000  149.4690 C   0  0  0  0  0  0  0  0  0  0  0  0
  160.7520  201.3070  148.9650 C   0  0  0  0  0  3  0  0  0  0  0  0
  161.9520  207.9230  148.6620 N   0  0  0  0  0  0  0  0  0  0  0  0
  161.2570  203.5140  148.1830 C   0  0  0  0  0  0  0  0  0  0  0  0
  161.0650  202.1650  147.8950 C   0  0  0  0  0  3  0  0  0  0  0  0
  161.7290  208.6640  150.9800 N   0  0  0  0  0  0  0  0  0  0  0  0
  162.0210  210.0460  150.6430 C   0  0  0  0  0  1  0  0  0  0  0  0
  161.1510  206.0310  151.7590 N   0  0  0  0  0  0  0  0  0  0  0  0
  160.6390  201.8080  150.2810 C   0  0  0  0  0  3  0  0  0  0  0  0
  161.6460  205.6720  148.1020 N   0  0  0  0  0  0  0  0  0  0  0  0
  161.5690  204.5640  147.3310 C   0  0  0  0  0  3  0  0  0  0  0  0
  161.4650  208.3180  152.3160 N   0  0  0  0  0  2  0  0  0  0  0  0
  160.8370  203.1740  150.5480 C   0  0  0  0  0  3  0  0  0  0  0  0
  161.1740  206.9590  152.6750 C   0  0  0  0  0  0  0  0  0  0  0  0
  161.7030  207.6410  149.9780 C   0  0  0  0  0  0  0  0  0  0  0  0
  160.9030  206.6340  154.0790 C   0  0  0  0  0  3  0  0  0  0  0  0
  160.3500  207.5070  154.9160 C   0  0  0  0  0  3  0  0  0  0  0  0
  160.0920  207.1470  156.3410 C   0  0  0  0  0  2  0  0  0  0  0  0
  161.1740  207.7000  157.2610 C   0  0  0  0  0  2  0  0  0  0  0  0
  161.3850  209.1580  157.0290 C   0  0  0  0  0  0  0  0  0  0  0  0
  160.3450  210.0520  157.2450 O   0  0  0  0  0  1  0  0  0  0  0  0
  162.5000  209.5780  156.6230 O   0  0  0  0  0  0  0  0  0  0  0  0
  1  4  2  0  0  0  0
  1  2  1  0  0  0  0
  2 11  1  0  0  0  0
  3 13  1  0  0  0  0
  3  6  2  0  0  0  0
  4 16  1  0  0  0  0
  5 12  1  0  0  0  0
  6 18  1  0  0  0  0
  7  4  1  0  0  0  0
  8  7  1  0  0  0  0
  8  5  2  0  0  0  0
  9 15  1  0  0  0  0
 10  9  1  0  0  0  0
 11 17  2  0  0  0  0
 12 16  2  0  0  0  0
 13  1  1  0  0  0  0
 14 13  1  0  0  0  0
 14  7  2  0  0  0  0
 15 17  1  0  0  0  0
 17 19  1  0  0  0  0
 18  2  2  0  0  0  0
 18  9  1  0  0  0  0
 19 20  2  0  0  0  0
 20 21  1  0  0  0  0
 21 22  1  0  0  0  0
 23 24  1  0  0  0  0
 23 22  1  0  0  0  0
 25 23  2  0  0  0  0
M  END
>  <MODEL>
1

>  <REMARK>
 VINA RESULT:      -9.7      0.000      0.000
  Name = 
  4 active torsions:
  status: ('A' for Active; 'I' for Inactive)
    1  A    between atoms: C_2  and  C_25
    2  A    between atoms: C_6  and  C_23
    3  A    between atoms: C_15  and  C_21
    4  A    between atoms: C_21  and  C_25
                            x       y       z     vdW  Elec       q    Type
                         _______ _______ _______ _____ _____    ______ ____

>  <TORSDO>
F 4

$$$$
=
 OpenBabel11052422123D

 25 28  0  0  0  0  0  0  0  0999 V2000
  161.4140  205.2580  149.0180 C   0  0  0  0  0  0  0  0  0  0  0  0
  161.4920  206.4860  149.6720 C   0  0  0  0  0  0  0  0  0  0  0  0
  161.8560  206.2680  146.9230 C   0  0  0  0  0  3  0  0  0  0  0  0
  161.1680  203.9990  149.5130 C   0  0  0  0  0  0  0  0  0  0  0  0
  160.7380  201.2860  149.8570 C   0  0  0  0  0  3  0  0  0  0  0  0
  161.9390  207.4860  147.5300 N   0  0  0  0  0  0  0  0  0  0  0  0
  161.2050  203.1490  148.4260 C   0  0  0  0  0  0  0  0  0  0  0  0
  160.9930  201.7800  148.5650 C   0  0  0  0  0  3  0  0  0  0  0  0
  161.8480  208.8890  149.5290 N   0  0  0  0  0  0  0  0  0  0  0  0
  162.1240  210.1020  148.7800 C   0  0  0  0  0  1  0  0  0  0  0  0
  161.3070  206.6200  151.0880 N   0  0  0  0  0  0  0  0  0  0  0  0
  160.7000  202.1590  150.9680 C   0  0  0  0  0  3  0  0  0  0  0  0
  161.5950  205.1770  147.6840 N   0  0  0  0  0  0  0  0  0  0  0  0
  161.4720  203.8920  147.2850 C   0  0  0  0  0  3  0  0  0  0  0  0
  161.6580  208.9620  150.9200 N   0  0  0  0  0  2  0  0  0  0  0  0
  160.9170  203.5380  150.8040 C   0  0  0  0  0  3  0  0  0  0  0  0
  161.3830  207.7780  151.6820 C   0  0  0  0  0  0  0  0  0  0  0  0
  161.7630  207.6140  148.8810 C   0  0  0  0  0  0  0  0  0  0  0  0
  161.1900  207.8910  153.1320 C   0  0  0  0  0  3  0  0  0  0  0  0
  160.7760  206.8710  153.8750 C   0  0  0  0  0  3  0  0  0  0  0  0
  160.5840  207.0200  155.3480 C   0  0  0  0  0  2  0  0  0  0  0  0
  160.0050  208.3850  155.6990 C   0  0  0  0  0  2  0  0  0  0  0  0
  160.9180  209.1420  156.6030 C   0  0  0  0  0  0  0  0  0  0  0  0
  162.1820  208.6440  156.8870 O   0  0  0  0  0  0  0  0  0  0  0  0
  160.5380  210.2230  157.1240 O   0  0  0  0  0  1  0  0  0  0  0  0
  1  4  2  0  0  0  0
  1  2  1  0  0  0  0
  2 11  1  0  0  0  0
  3  6  2  0  0  0  0
  3 13  1  0  0  0  0
  4 16  1  0  0  0  0
  5 12  1  0  0  0  0
  6 18  1  0  0  0  0
  7  8  1  0  0  0  0
  7  4  1  0  0  0  0
  8  5  2  0  0  0  0
  9 15  1  0  0  0  0
 10  9  1  0  0  0  0
 11 17  2  0  0  0  0
 13  1  1  0  0  0  0
 14 13  1  0  0  0  0
 14  7  2  0  0  0  0
 15 17  1  0  0  0  0
 16 12  2  0  0  0  0
 17 19  1  0  0  0  0
 18  9  1  0  0  0  0
 18  2  2  0  0  0  0
 19 20  2  0  0  0  0
 20 21  1  0  0  0  0
 21 22  1  0  0  0  0
 22 23  1  0  0  0  0
 23 24  2  0  0  0  0
 23 25  1  0  0  0  0
M  END
>  <MODEL>
2

>  <REMARK>
 VINA RESULT:      -9.4      0.918      1.240
  Name = 
  4 active torsions:
  status: ('A' for Active; 'I' for Inactive)
    1  A    between atoms: C_2  and  C_25
    2  A    between atoms: C_6  and  C_23
    3  A    between atoms: C_15  and  C_21
    4  A    between atoms: C_21  and  C_25
                            x       y       z     vdW  Elec       q    Type
                         _______ _______ _______ _____ _____    ______ ____

>  <TORSDO>
F 4

$$$$
=
 OpenBabel11052422123D

 25 28  0  0  0  0  0  0  0  0999 V2000
  161.1250  204.3660  149.8440 C   0  0  0  0  0  0  0  0  0  0  0  0
  161.2970  205.6720  150.2990 C   0  0  0  0  0  0  0  0  0  0  0  0
  160.7710  203.5720  152.0460 C   0  0  0  0  0  3  0  0  0  0  0  0
  161.1670  203.8540  148.5690 C   0  0  0  0  0  0  0  0  0  0  0  0
  161.1240  202.2380  146.3220 C   0  0  0  0  0  3  0  0  0  0  0  0
  160.9350  204.8380  152.5270 N   0  0  0  0  0  0  0  0  0  0  0  0
  160.9290  202.5010  148.6940 C   0  0  0  0  0  0  0  0  0  0  0  0
  160.9000  201.6600  147.5850 C   0  0  0  0  0  3  0  0  0  0  0  0
  161.3670  207.2180  152.1770 N   0  0  0  0  0  0  0  0  0  0  0  0
  161.2760  207.5180  153.5950 C   0  0  0  0  0  1  0  0  0  0  0  0
  161.5700  206.7670  149.4150 N   0  0  0  0  0  0  0  0  0  0  0  0
  161.3680  203.6240  146.1960 C   0  0  0  0  0  3  0  0  0  0  0  0
  160.8700  203.3650  150.7110 N   0  0  0  0  0  0  0  0  0  0  0  0
  160.7440  202.2000  150.0370 C   0  0  0  0  0  3  0  0  0  0  0  0
  161.6320  208.2540  151.2660 N   0  0  0  0  0  2  0  0  0  0  0  0
  161.3920  204.4540  147.3310 C   0  0  0  0  0  3  0  0  0  0  0  0
  161.7280  207.9830  149.8600 C   0  0  0  0  0  0  0  0  0  0  0  0
  161.1940  205.8840  151.6830 C   0  0  0  0  0  0  0  0  0  0  0  0
  162.0060  209.0890  148.9370 C   0  0  0  0  0  3  0  0  0  0  0  0
  162.0140  210.3580  149.3320 C   0  0  0  0  0  3  0  0  0  0  0  0
  162.2960  211.4610  148.3680 C   0  0  0  0  0  2  0  0  0  0  0  0
  161.4550  212.6950  148.6710 C   0  0  0  0  0  2  0  0  0  0  0  0
  160.3590  212.8590  147.6730 C   0  0  0  0  0  0  0  0  0  0  0  0
  159.3490  213.7840  147.8980 O   0  0  0  0  0  1  0  0  0  0  0  0
  160.3390  212.1490  146.6340 O   0  0  0  0  0  0  0  0  0  0  0  0
  1  2  1  0  0  0  0
  1 13  1  0  0  0  0
  2 18  2  0  0  0  0
  3  6  2  0  0  0  0
  4  7  1  0  0  0  0
  4  1  2  0  0  0  0
  5  8  2  0  0  0  0
  7 14  2  0  0  0  0
  8  7  1  0  0  0  0
  9 10  1  0  0  0  0
 11 17  2  0  0  0  0
 11  2  1  0  0  0  0
 12  5  1  0  0  0  0
 12 16  2  0  0  0  0
 13  3  1  0  0  0  0
 14 13  1  0  0  0  0
 15  9  1  0  0  0  0
 16  4  1  0  0  0  0
 17 15  1  0  0  0  0
 18  9  1  0  0  0  0
 18  6  1  0  0  0  0
 19 20  2  0  0  0  0
 19 17  1  0  0  0  0
 21 22  1  0  0  0  0
 21 20  1  0  0  0  0
 23 24  1  0  0  0  0
 23 22  1  0  0  0  0
 25 23  2  0  0  0  0
M  END
>  <MODEL>
3

>  <REMARK>
 VINA RESULT:      -9.0      3.365      5.469
  Name = 
  4 active torsions:
  status: ('A' for Active; 'I' for Inactive)
    1  A    between atoms: C_2  and  C_25
    2  A    between atoms: C_6  and  C_23
    3  A    between atoms: C_15  and  C_21
    4  A    between atoms: C_21  and  C_25
                            x       y       z     vdW  Elec       q    Type
                         _______ _______ _______ _____ _____    ______ ____

>  <TORSDO>
F 4

$$$$
=
 OpenBabel11052422123D

 25 28  0  0  0  0  0  0  0  0999 V2000
  161.2410  208.5710  153.1660 C   0  0  0  0  0  0  0  0  0  0  0  0
  161.3110  207.7570  152.0380 C   0  0  0  0  0  0  0  0  0  0  0  0
  161.9640  210.4580  151.9330 C   0  0  0  0  0  3  0  0  0  0  0  0
  160.8750  208.2750  154.4580 C   0  0  0  0  0  0  0  0  0  0  0  0
  160.2710  208.3370  157.1590 C   0  0  0  0  0  3  0  0  0  0  0  0
  162.0440  209.6900  150.8090 N   0  0  0  0  0  0  0  0  0  0  0  0
  160.9880  209.4540  155.1650 C   0  0  0  0  0  0  0  0  0  0  0  0
  160.6920  209.5210  156.5240 C   0  0  0  0  0  3  0  0  0  0  0  0
  161.8060  207.5440  149.6650 N   0  0  0  0  0  0  0  0  0  0  0  0
  162.2280  208.0940  148.3890 C   0  0  0  0  0  1  0  0  0  0  0  0
  160.9790  206.3620  152.0720 N   0  0  0  0  0  0  0  0  0  0  0  0
  160.1570  207.1310  156.4320 C   0  0  0  0  0  3  0  0  0  0  0  0
  161.5630  209.8790  153.0900 N   0  0  0  0  0  0  0  0  0  0  0  0
  161.4180  210.4540  154.3040 C   0  0  0  0  0  3  0  0  0  0  0  0
  161.4700  206.1820  149.7550 N   0  0  0  0  0  2  0  0  0  0  0  0
  160.4620  207.0880  155.0610 C   0  0  0  0  0  3  0  0  0  0  0  0
  161.0500  205.6150  151.0050 C   0  0  0  0  0  0  0  0  0  0  0  0
  161.7270  208.3590  150.8400 C   0  0  0  0  0  0  0  0  0  0  0  0
  160.7070  204.1900  151.0620 C   0  0  0  0  0  3  0  0  0  0  0  0
  161.1090  203.3250  150.1370 C   0  0  0  0  0  3  0  0  0  0  0  0
  160.7370  201.8820  150.2210 C   0  0  0  0  0  2  0  0  0  0  0  0
  159.9700  201.4310  148.9840 C   0  0  0  0  0  2  0  0  0  0  0  0
  160.8900  201.2010  147.8330 C   0  0  0  0  0  0  0  0  0  0  0  0
  160.9480  202.1230  146.7970 O   0  0  0  0  0  0  0  0  0  0  0  0
  161.6000  200.1630  147.7910 O   0  0  0  0  0  1  0  0  0  0  0  0
  1  4  2  0  0  0  0
  2 11  1  0  0  0  0
  2  1  1  0  0  0  0
  3 13  1  0  0  0  0
  4 16  1  0  0  0  0
  4  7  1  0  0  0  0
  6 18  1  0  0  0  0
  6  3  2  0  0  0  0
  7  8  1  0  0  0  0
  8  5  2  0  0  0  0
  9 15  1  0  0  0  0
  9 18  1  0  0  0  0
 10  9  1  0  0  0  0
 12  5  1  0  0  0  0
 13  1  1  0  0  0  0
 13 14  1  0  0  0  0
 14  7  2  0  0  0  0
 15 17  1  0  0  0  0
 16 12  2  0  0  0  0
 17 19  1  0  0  0  0
 17 11  2  0  0  0  0
 18  2  2  0  0  0  0
 20 21  1  0  0  0  0
 20 19  2  0  0  0  0
 22 21  1  0  0  0  0
 23 22  1  0  0  0  0
 24 23  2  0  0  0  0
 25 23  1  0  0  0  0
M  END
>  <MODEL>
4

>  <REMARK>
 VINA RESULT:      -8.7      3.823      7.527
  Name = 
  4 active torsions:
  status: ('A' for Active; 'I' for Inactive)
    1  A    between atoms: C_2  and  C_25
    2  A    between atoms: C_6  and  C_23
    3  A    between atoms: C_15  and  C_21
    4  A    between atoms: C_21  and  C_25
                            x       y       z     vdW  Elec       q    Type
                         _______ _______ _______ _____ _____    ______ ____

>  <TORSDO>
F 4

$$$$
=
 OpenBabel11052422123D

 25 28  0  0  0  0  0  0  0  0999 V2000
  161.3070  206.1060  151.2230 C   0  0  0  0  0  0  0  0  0  0  0  0
  161.5100  207.4840  151.2350 C   0  0  0  0  0  0  0  0  0  0  0  0
  161.1490  206.0410  153.5840 C   0  0  0  0  0  3  0  0  0  0  0  0
  161.2430  205.2230  150.1710 C   0  0  0  0  0  0  0  0  0  0  0  0
  161.0160  202.9920  148.5480 C   0  0  0  0  0  3  0  0  0  0  0  0
  161.3460  207.3900  153.6330 N   0  0  0  0  0  0  0  0  0  0  0  0
  161.0240  203.9810  150.7300 C   0  0  0  0  0  0  0  0  0  0  0  0
  160.9050  202.8390  149.9430 C   0  0  0  0  0  3  0  0  0  0  0  0
  161.7320  209.5340  152.5270 N   0  0  0  0  0  0  0  0  0  0  0  0
  161.7610  210.2610  153.7850 C   0  0  0  0  0  1  0  0  0  0  0  0
  161.6990  208.2470  150.0350 N   0  0  0  0  0  0  0  0  0  0  0  0
  161.2410  204.2660  147.9790 C   0  0  0  0  0  3  0  0  0  0  0  0
  161.1340  205.4280  152.3760 N   0  0  0  0  0  0  0  0  0  0  0  0
  160.9570  204.1150  152.1100 C   0  0  0  0  0  3  0  0  0  0  0  0
  161.9120  210.2320  151.3200 N   0  0  0  0  0  2  0  0  0  0  0  0
  161.3570  205.4050  148.7940 C   0  0  0  0  0  3  0  0  0  0  0  0
  161.8880  209.5360  150.0650 C   0  0  0  0  0  0  0  0  0  0  0  0
  161.5250  208.1180  152.4880 C   0  0  0  0  0  0  0  0  0  0  0  0
  162.0790  210.2960  148.8250 C   0  0  0  0  0  3  0  0  0  0  0  0
  162.1150  211.6240  148.8050 C   0  0  0  0  0  3  0  0  0  0  0  0
  162.3060  212.3690  147.5250 C   0  0  0  0  0  2  0  0  0  0  0  0
  161.2980  213.5030  147.3840 C   0  0  0  0  0  2  0  0  0  0  0  0
  159.9420  212.9800  147.0500 C   0  0  0  0  0  0  0  0  0  0  0  0
  159.7660  212.1630  145.9420 O   0  0  0  0  0  0  0  0  0  0  0  0
  158.9530  213.2920  147.7630 O   0  0  0  0  0  1  0  0  0  0  0  0
  1  2  1  0  0  0  0
  1 13  1  0  0  0  0
  2 18  2  0  0  0  0
  3  6  2  0  0  0  0
  4  7  1  0  0  0  0
  4  1  2  0  0  0  0
  5  8  2  0  0  0  0
  7 14  2  0  0  0  0
  8  7  1  0  0  0  0
  9 10  1  0  0  0  0
 11 17  2  0  0  0  0
 11  2  1  0  0  0  0
 12  5  1  0  0  0  0
 12 16  2  0  0  0  0
 13  3  1  0  0  0  0
 14 13  1  0  0  0  0
 15  9  1  0  0  0  0
 16  4  1  0  0  0  0
 17 15  1  0  0  0  0
 18  9  1  0  0  0  0
 18  6  1  0  0  0  0
 19 17  1  0  0  0  0
 20 19  2  0  0  0  0
 21 20  1  0  0  0  0
 22 21  1  0  0  0  0
 23 22  1  0  0  0  0
 23 25  1  0  0  0  0
 24 23  2  0  0  0  0
M  END
>  <MODEL>
5

>  <REMARK>
 VINA RESULT:      -8.7      3.657      5.957
  Name = 
  4 active torsions:
  status: ('A' for Active; 'I' for Inactive)
    1  A    between atoms: C_2  and  C_25
    2  A    between atoms: C_6  and  C_23
    3  A    between atoms: C_15  and  C_21
    4  A    between atoms: C_21  and  C_25
                            x       y       z     vdW  Elec       q    Type
                         _______ _______ _______ _____ _____    ______ ____

>  <TORSDO>
F 4

$$$$
=
 OpenBabel11052422123D

 25 28  0  0  0  0  0  0  0  0999 V2000
  161.4350  206.1050  149.6490 C   0  0  0  0  0  0  0  0  0  0  0  0
  161.5800  207.3960  150.1530 C   0  0  0  0  0  0  0  0  0  0  0  0
  161.7260  206.8670  147.4260 C   0  0  0  0  0  3  0  0  0  0  0  0
  161.2090  204.9150  150.2980 C   0  0  0  0  0  0  0  0  0  0  0  0
  160.7690  202.2670  150.9760 C   0  0  0  0  0  3  0  0  0  0  0  0
  161.8730  208.1430  147.8850 N   0  0  0  0  0  0  0  0  0  0  0  0
  161.1490  203.9500  149.3140 C   0  0  0  0  0  0  0  0  0  0  0  0
  160.9300  202.6090  149.6200 C   0  0  0  0  0  3  0  0  0  0  0  0
  161.9580  209.7600  149.7150 N   0  0  0  0  0  0  0  0  0  0  0  0
  162.1930  210.8760  148.8160 C   0  0  0  0  0  1  0  0  0  0  0  0
  161.5080  207.6900  151.5550 N   0  0  0  0  0  0  0  0  0  0  0  0
  160.8300  203.2580  151.9810 C   0  0  0  0  0  3  0  0  0  0  0  0
  161.5090  205.8740  148.3220 N   0  0  0  0  0  0  0  0  0  0  0  0
  161.3380  204.5560  148.0800 C   0  0  0  0  0  3  0  0  0  0  0  0
  161.8780  209.9900  151.0990 N   0  0  0  0  0  2  0  0  0  0  0  0
  161.0530  204.6050  151.6480 C   0  0  0  0  0  3  0  0  0  0  0  0
  161.6470  208.9040  152.0080 C   0  0  0  0  0  0  0  0  0  0  0  0
  161.8050  208.4240  149.2230 C   0  0  0  0  0  0  0  0  0  0  0  0
  161.5680  209.1820  153.4460 C   0  0  0  0  0  3  0  0  0  0  0  0
  161.6120  210.4170  153.9340 C   0  0  0  0  0  3  0  0  0  0  0  0
  161.5350  210.6660  155.4040 C   0  0  0  0  0  2  0  0  0  0  0  0
  160.1170  211.0170  155.8370 C   0  0  0  0  0  2  0  0  0  0  0  0
  159.8580  212.4800  155.7000 C   0  0  0  0  0  0  0  0  0  0  0  0
  159.3150  212.9810  154.5250 O   0  0  0  0  0  0  0  0  0  0  0  0
  160.1450  213.2620  156.6430 O   0  0  0  0  0  1  0  0  0  0  0  0
  1  2  1  0  0  0  0
  1  4  2  0  0  0  0
  2 11  1  0  0  0  0
  3  6  2  0  0  0  0
  3 13  1  0  0  0  0
  4 16  1  0  0  0  0
  5 12  1  0  0  0  0
  6 18  1  0  0  0  0
  7  8  1  0  0  0  0
  7  4  1  0  0  0  0
  8  5  2  0  0  0  0
  9 15  1  0  0  0  0
 10  9  1  0  0  0  0
 11 17  2  0  0  0  0
 13  1  1  0  0  0  0
 14 13  1  0  0  0  0
 14  7  2  0  0  0  0
 15 17  1  0  0  0  0
 16 12  2  0  0  0  0
 17 19  1  0  0  0  0
 18  9  1  0  0  0  0
 18  2  2  0  0  0  0
 19 20  2  0  0  0  0
 20 21  1  0  0  0  0
 21 22  1  0  0  0  0
 23 22  1  0  0  0  0
 23 25  1  0  0  0  0
 24 23  2  0  0  0  0
M  END
>  <MODEL>
6

>  <REMARK>
 VINA RESULT:      -8.1      1.997      2.383
  Name = 
  4 active torsions:
  status: ('A' for Active; 'I' for Inactive)
    1  A    between atoms: C_2  and  C_25
    2  A    between atoms: C_6  and  C_23
    3  A    between atoms: C_15  and  C_21
    4  A    between atoms: C_21  and  C_25
                            x       y       z     vdW  Elec       q    Type
                         _______ _______ _______ _____ _____    ______ ____

>  <TORSDO>
F 4

$$$$
=
 OpenBabel11052422123D

 25 28  0  0  0  0  0  0  0  0999 V2000
  161.5150  207.4330  151.1490 C   0  0  0  0  0  0  0  0  0  0  0  0
  161.3680  206.0940  150.7900 C   0  0  0  0  0  0  0  0  0  0  0  0
  161.2670  206.9140  153.4460 C   0  0  0  0  0  3  0  0  0  0  0  0
  161.7210  208.5470  150.3710 C   0  0  0  0  0  0  0  0  0  0  0  0
  162.1290  211.1080  149.4040 C   0  0  0  0  0  3  0  0  0  0  0  0
  161.1200  205.5950  153.1300 N   0  0  0  0  0  0  0  0  0  0  0  0
  161.7910  209.6130  151.2440 C   0  0  0  0  0  0  0  0  0  0  0  0
  161.9960  210.9140  150.7910 C   0  0  0  0  0  3  0  0  0  0  0  0
  161.0130  203.7900  151.4870 N   0  0  0  0  0  0  0  0  0  0  0  0
  160.8010  202.7770  152.5050 C   0  0  0  0  0  1  0  0  0  0  0  0
  161.4170  205.6520  149.4270 N   0  0  0  0  0  0  0  0  0  0  0  0
  162.0560  210.0150  148.5120 C   0  0  0  0  0  3  0  0  0  0  0  0
  161.4620  207.8060  152.4440 N   0  0  0  0  0  0  0  0  0  0  0  0
  161.6280  209.1430  152.5400 C   0  0  0  0  0  3  0  0  0  0  0  0
  161.0690  203.4120  150.1340 N   0  0  0  0  0  2  0  0  0  0  0  0
  161.8490  208.7100  148.9930 C   0  0  0  0  0  3  0  0  0  0  0  0
  161.2780  204.3950  149.1090 C   0  0  0  0  0  0  0  0  0  0  0  0
  161.1670  205.1720  151.8290 C   0  0  0  0  0  0  0  0  0  0  0  0
  161.3300  203.9640  147.7080 C   0  0  0  0  0  3  0  0  0  0  0  0
  162.3110  204.3300  146.8890 C   0  0  0  0  0  3  0  0  0  0  0  0
  162.3330  203.8790  145.4670 C   0  0  0  0  0  2  0  0  0  0  0  0
  160.9880  204.1080  144.7880 C   0  0  0  0  0  2  0  0  0  0  0  0
  160.8420  205.5250  144.3440 C   0  0  0  0  0  0  0  0  0  0  0  0
  161.4340  205.9450  143.1610 O   0  0  0  0  0  0  0  0  0  0  0  0
  160.1970  206.3430  145.0500 O   0  0  0  0  0  1  0  0  0  0  0  0
  1 13  1  0  0  0  0
  2  1  1  0  0  0  0
  2 18  2  0  0  0  0
  4  1  2  0  0  0  0
  4  7  1  0  0  0  0
  5  8  2  0  0  0  0
  6  3  2  0  0  0  0
  7 14  2  0  0  0  0
  8  7  1  0  0  0  0
  9 18  1  0  0  0  0
  9 10  1  0  0  0  0
 11  2  1  0  0  0  0
 12 16  2  0  0  0  0
 12  5  1  0  0  0  0
 13 14  1  0  0  0  0
 13  3  1  0  0  0  0
 15  9  1  0  0  0  0
 16  4  1  0  0  0  0
 17 11  2  0  0  0  0
 17 15  1  0  0  0  0
 18  6  1  0  0  0  0
 19 17  1  0  0  0  0
 20 19  2  0  0  0  0
 21 20  1  0  0  0  0
 22 21  1  0  0  0  0
 23 22  1  0  0  0  0
 23 25  1  0  0  0  0
 24 23  2  0  0  0  0
M  END
>  <MODEL>
7

>  <REMARK>
 VINA RESULT:      -7.9      4.067      8.033
  Name = 
  4 active torsions:
  status: ('A' for Active; 'I' for Inactive)
    1  A    between atoms: C_2  and  C_25
    2  A    between atoms: C_6  and  C_23
    3  A    between atoms: C_15  and  C_21
    4  A    between atoms: C_21  and  C_25
                            x       y       z     vdW  Elec       q    Type
                         _______ _______ _______ _____ _____    ______ ____

>  <TORSDO>
F 4

$$$$
=
 OpenBabel11052422123D

 25 28  0  0  0  0  0  0  0  0999 V2000
  161.1190  206.1340  151.1050 C   0  0  0  0  0  0  0  0  0  0  0  0
  161.0140  207.1670  152.0330 C   0  0  0  0  0  0  0  0  0  0  0  0
  161.2160  204.5080  152.8230 C   0  0  0  0  0  3  0  0  0  0  0  0
  161.1450  206.1700  149.7310 C   0  0  0  0  0  0  0  0  0  0  0  0
  161.2540  205.5680  147.0310 C   0  0  0  0  0  3  0  0  0  0  0  0
  161.1150  205.4940  153.7590 N   0  0  0  0  0  0  0  0  0  0  0  0
  161.2620  204.8580  149.3180 C   0  0  0  0  0  0  0  0  0  0  0  0
  161.3190  204.5210  147.9680 C   0  0  0  0  0  3  0  0  0  0  0  0
  160.9080  207.8520  154.3660 N   0  0  0  0  0  0  0  0  0  0  0  0
  160.9020  207.5610  155.7890 C   0  0  0  0  0  1  0  0  0  0  0  0
  160.9100  208.5440  151.6470 N   0  0  0  0  0  0  0  0  0  0  0  0
  161.1350  206.9110  147.4560 C   0  0  0  0  0  3  0  0  0  0  0  0
  161.2150  204.8520  151.5120 N   0  0  0  0  0  0  0  0  0  0  0  0
  161.3060  204.0380  150.4370 C   0  0  0  0  0  3  0  0  0  0  0  0
  160.8080  209.1850  153.9310 N   0  0  0  0  0  2  0  0  0  0  0  0
  161.0790  207.2270  148.8250 C   0  0  0  0  0  3  0  0  0  0  0  0
  160.8120  209.4980  152.5300 C   0  0  0  0  0  0  0  0  0  0  0  0
  161.0150  206.8090  153.3910 C   0  0  0  0  0  0  0  0  0  0  0  0
  160.7070  210.9000  152.1130 C   0  0  0  0  0  3  0  0  0  0  0  0
  159.7560  211.7080  152.5700 C   0  0  0  0  0  3  0  0  0  0  0  0
  159.6730  213.1290  152.1210 C   0  0  0  0  0  2  0  0  0  0  0  0
  159.4390  213.2270  150.6190 C   0  0  0  0  0  2  0  0  0  0  0  0
  157.9950  213.4360  150.3100 C   0  0  0  0  0  0  0  0  0  0  0  0
  157.5130  213.1740  149.0350 O   0  0  0  0  0  0  0  0  0  0  0  0
  157.2150  213.8650  151.2000 O   0  0  0  0  0  1  0  0  0  0  0  0
  1 13  1  0  0  0  0
  1  2  1  0  0  0  0
  2 18  2  0  0  0  0
  3  6  2  0  0  0  0
  4  1  2  0  0  0  0
  5 12  1  0  0  0  0
  5  8  2  0  0  0  0
  7  4  1  0  0  0  0
  7 14  2  0  0  0  0
  8  7  1  0  0  0  0
  9 10  1  0  0  0  0
 11  2  1  0  0  0  0
 11 17  2  0  0  0  0
 12 16  2  0  0  0  0
 13  3  1  0  0  0  0
 14 13  1  0  0  0  0
 15  9  1  0  0  0  0
 16  4  1  0  0  0  0
 17 15  1  0  0  0  0
 18  6  1  0  0  0  0
 18  9  1  0  0  0  0
 19 17  1  0  0  0  0
 19 20  2  0  0  0  0
 21 20  1  0  0  0  0
 22 21  1  0  0  0  0
 23 22  1  0  0  0  0
 23 25  1  0  0  0  0
 24 23  2  0  0  0  0
M  END
>  <MODEL>
8

>  <REMARK>
 VINA RESULT:      -7.7      3.220      5.190
  Name = 
  4 active torsions:
  status: ('A' for Active; 'I' for Inactive)
    1  A    between atoms: C_2  and  C_25
    2  A    between atoms: C_6  and  C_23
    3  A    between atoms: C_15  and  C_21
    4  A    between atoms: C_21  and  C_25
                            x       y       z     vdW  Elec       q    Type
                         _______ _______ _______ _____ _____    ______ ____

>  <TORSDO>
F 4

$$$$
=
 OpenBabel11052422123D

 25 28  0  0  0  0  0  0  0  0999 V2000
  161.1720  203.2190  148.0260 C   0  0  0  0  0  0  0  0  0  0  0  0
  161.3800  204.3980  147.3130 C   0  0  0  0  0  0  0  0  0  0  0  0
  160.8950  201.9790  146.0280 C   0  0  0  0  0  3  0  0  0  0  0  0
  161.1580  202.9870  149.3820 C   0  0  0  0  0  0  0  0  0  0  0  0
  161.0020  201.8840  151.9150 C   0  0  0  0  0  3  0  0  0  0  0  0
  161.0940  203.1140  145.2990 N   0  0  0  0  0  0  0  0  0  0  0  0
  160.9060  201.6400  149.5350 C   0  0  0  0  0  0  0  0  0  0  0  0
  160.8210  201.0530  150.7940 C   0  0  0  0  0  3  0  0  0  0  0  0
  161.5450  205.5120  145.1570 N   0  0  0  0  0  0  0  0  0  0  0  0
  161.5120  205.5060  143.7040 C   0  0  0  0  0  1  0  0  0  0  0  0
  161.6310  205.6550  147.9570 N   0  0  0  0  0  0  0  0  0  0  0  0
  161.2590  203.2640  151.7550 C   0  0  0  0  0  3  0  0  0  0  0  0
  160.9390  202.0580  147.3810 N   0  0  0  0  0  0  0  0  0  0  0  0
  160.7700  201.0630  148.2790 C   0  0  0  0  0  3  0  0  0  0  0  0
  161.7870  206.7160  145.8390 N   0  0  0  0  0  2  0  0  0  0  0  0
  161.3400  203.8340  150.4730 C   0  0  0  0  0  3  0  0  0  0  0  0
  161.8230  206.7480  147.2730 C   0  0  0  0  0  0  0  0  0  0  0  0
  161.3340  204.3140  145.9130 C   0  0  0  0  0  0  0  0  0  0  0  0
  162.0780  208.0230  147.9520 C   0  0  0  0  0  3  0  0  0  0  0  0
  161.7030  208.2460  149.2070 C   0  0  0  0  0  3  0  0  0  0  0  0
  161.9720  209.5570  149.8680 C   0  0  0  0  0  2  0  0  0  0  0  0
  162.2890  209.3810  151.3480 C   0  0  0  0  0  2  0  0  0  0  0  0
  161.0840  208.9400  152.1100 C   0  0  0  0  0  0  0  0  0  0  0  0
  161.0070  207.6410  152.5920 O   0  0  0  0  0  1  0  0  0  0  0  0
  160.1310  209.7390  152.3000 O   0  0  0  0  0  0  0  0  0  0  0  0
  1  4  2  0  0  0  0
  2 11  1  0  0  0  0
  2  1  1  0  0  0  0
  3 13  1  0  0  0  0
  4  7  1  0  0  0  0
  4 16  1  0  0  0  0
  6 18  1  0  0  0  0
  6  3  2  0  0  0  0
  7  8  1  0  0  0  0
  8  5  2  0  0  0  0
  9 15  1  0  0  0  0
  9 18  1  0  0  0  0
 10  9  1  0  0  0  0
 12  5  1  0  0  0  0
 13  1  1  0  0  0  0
 13 14  1  0  0  0  0
 14  7  2  0  0  0  0
 15 17  1  0  0  0  0
 16 12  2  0  0  0  0
 17 19  1  0  0  0  0
 17 11  2  0  0  0  0
 18  2  2  0  0  0  0
 19 20  2  0  0  0  0
 20 21  1  0  0  0  0
 21 22  1  0  0  0  0
 22 23  1  0  0  0  0
 23 25  2  0  0  0  0
 23 24  1  0  0  0  0
M  END
>  <MODEL>
9

>  <REMARK>
 VINA RESULT:      -7.6      3.000      4.956
  Name = 
  4 active torsions:
  status: ('A' for Active; 'I' for Inactive)
    1  A    between atoms: C_2  and  C_25
    2  A    between atoms: C_6  and  C_23
    3  A    between atoms: C_15  and  C_21
    4  A    between atoms: C_21  and  C_25
                            x       y       z     vdW  Elec       q    Type
                         _______ _______ _______ _____ _____    ______ ____

>  <TORSDO>
F 4

$$$$
