=
 OpenBabel11062408423D

 55 62  0  0  1  0  0  0  0  0999 V2000
  161.7820  211.7250  149.5820 C   0  0  0  0  0  3  0  0  0  0  0  0
  161.1020  212.7620  147.0730 C   0  0  0  0  0  0  0  0  0  0  0  0
  161.1500  211.3780  147.2680 C   0  0  0  0  0  3  0  0  0  0  0  0
  161.7340  213.1070  149.3870 C   0  0  0  0  0  3  0  0  0  0  0  0
  161.4900  210.8520  148.5290 C   0  0  0  0  0  0  0  0  0  0  0  0
  161.3940  213.6260  148.1350 C   0  0  0  0  0  3  0  0  0  0  0  0
  160.7220  213.3110  145.7410 C   0  0  0  0  0  2  0  0  0  0  0  0
  159.5920  212.4990  145.1400 C   0  0  0  0  0  2  0  0  0  0  0  0
  159.5900  212.6670  143.6350 C   0  0  0  0  0  2  0  0  0  0  0  0
  160.9540  212.3170  143.0670 C   0  0  0  0  0  2  0  0  0  0  0  0
  160.8140  211.3610  141.9810 N   0  0  0  0  0  2  0  0  0  0  0  0
  160.2210  209.3370  139.0860 C   0  0  2  0  0  3  0  0  0  0  0  0
  162.7700  212.4900  138.0790 C   0  0  0  0  0  1  0  0  0  0  0  0
  161.6260  211.5450  138.4180 C   0  0  2  0  0  0  0  0  0  0  0  0
  161.4330  211.9570  140.8040 C   0  0  1  0  0  3  0  0  0  0  0  0
  157.7960  212.3990  138.7460 C   0  0  0  0  0  2  0  0  0  0  0  0
  158.6080  211.4270  137.0180 C   0  0  0  0  0  2  0  0  0  0  0  0
  160.3420  212.3680  138.6420 C   0  0  1  0  0  3  0  0  0  0  0  0
  161.8850  210.9030  139.7890 C   0  0  1  0  0  3  0  0  0  0  0  0
  161.6240  208.0260  137.4920 C   0  0  0  0  0  1  0  0  0  0  0  0
  158.9690  210.2240  139.2360 C   0  0  0  0  0  2  0  0  0  0  0  0
  157.3730  212.2610  137.2950 C   0  0  0  0  0  2  0  0  0  0  0  0
  160.9210  214.1600  140.0970 F   0  0  0  0  0  0  0  0  0  0  0  0
  159.0330  211.5600  138.4720 C   0  0  0  0  0  0  0  0  0  0  0  0
  161.2400  209.6480  140.0250 O   0  0  0  0  0  0  0  0  0  0  0  0
  161.5560  210.5030  137.2900 C   0  0  0  0  0  2  0  0  0  0  0  0
  160.4430  212.8650  140.0870 C   0  0  2  0  0  3  0  0  0  0  0  0
  160.7540  209.2550  137.6560 C   0  0  2  0  0  3  0  0  0  0  0  0
  161.5530  209.4770  148.7580 O   0  0  0  0  0  0  0  0  0  0  0  0
  162.1490  208.9140  149.9240 C   0  0  0  0  0  2  0  0  0  0  0  0
  161.0800  208.5370  150.9480 C   0  0  2  0  0  3  0  0  0  0  0  0
  161.5170  210.2600  152.7090 C   0  0  0  0  0  2  0  0  0  0  0  0
  161.1990  209.7450  155.1330 N   0  0  1  0  0  0  0  0  0  0  0  0
  160.7000  208.0110  153.4090 C   0  0  0  0  0  2  0  0  0  0  0  0
  161.2040  208.3080  154.8240 C   0  0  0  0  0  2  0  0  0  0  0  0
  161.9940  210.4930  154.1450 C   0  0  0  0  0  2  0  0  0  0  0  0
  161.5450  208.7720  152.3880 C   0  0  1  0  0  3  0  0  0  0  0  0
  159.8260  210.2480  155.1710 C   0  0  0  0  0  3  0  0  0  0  0  0
  159.8320  211.7640  155.1030 C   0  0  0  0  0  2  0  0  0  0  0  0
  159.6200  211.0700  156.4300 C   0  0  0  0  0  2  0  0  0  0  0  0
  160.6300  207.1630  150.7420 N   0  0  0  0  0  2  0  0  0  0  0  0
  161.7080  206.4200  150.1040 C   0  0  0  0  0  2  0  0  0  0  0  0
  160.8070  202.8320  149.1630 C   0  0  0  0  0  3  0  0  0  0  0  0
  160.9790  202.1920  150.3930 C   0  0  0  0  0  3  0  0  0  0  0  0
  161.4490  204.9450  150.1710 C   0  0  0  0  0  0  0  0  0  0  0  0
  161.6190  204.2950  151.3980 C   0  0  0  0  0  3  0  0  0  0  0  0
  161.3840  202.9250  151.5110 C   0  0  0  0  0  3  0  0  0  0  0  0
  161.0330  204.2080  149.0410 C   0  0  0  0  0  0  0  0  0  0  0  0
  160.8260  204.8600  147.7100 C   0  0  0  0  0  2  0  0  0  0  0  0
  162.0930  204.8660  146.9100 C   0  0  0  0  0  0  0  0  0  0  0  0
  163.1000  205.4740  147.3570 O   0  0  0  0  0  0  0  0  0  0  0  0
  162.1780  204.2090  145.6420 N   0  0  0  0  0  2  0  0  0  0  0  0
  161.0990  203.4020  145.0910 C   0  0  0  0  0  2  0  0  0  0  0  0
  160.1610  201.4100  145.2360 C   0  0  0  0  0  1  0  0  0  0  0  0
  160.7230  202.4240  146.0130 O   0  0  0  0  0  0  0  0  0  0  0  0
  2  3  2  0  0  0  0
  2  6  1  0  0  0  0
  3  5  1  0  0  0  0
  4  1  1  0  0  0  0
  5 29  1  0  0  0  0
  5  1  2  0  0  0  0
  6  4  2  0  0  0  0
  7  2  1  0  0  0  0
  8  7  1  0  0  0  0
  9  8  1  0  0  0  0
 10  9  1  0  0  0  0
 11 10  1  0  0  0  0
 12 21  1  6  0  0  0
 12 25  1  0  0  0  0
 14 13  1  6  0  0  0
 14 18  1  0  0  0  0
 14 19  1  0  0  0  0
 15 11  1  1  0  0  0
 17 22  1  0  0  0  0
 17 24  1  0  0  0  0
 18 24  1  1  0  0  0
 18 27  1  0  0  0  0
 19 25  1  6  0  0  0
 19 15  1  0  0  0  0
 22 16  1  0  0  0  0
 24 16  1  0  0  0  0
 24 21  1  0  0  0  0
 26 28  1  0  0  0  0
 26 14  1  0  0  0  0
 27 23  1  6  0  0  0
 27 15  1  0  0  0  0
 28 20  1  1  0  0  0
 28 12  1  0  0  0  0
 29 30  1  0  0  0  0
 31 30  1  6  0  0  0
 32 36  1  0  0  0  0
 33 38  1  6  0  0  0
 34 35  1  0  0  0  0
 35 33  1  0  0  0  0
 36 33  1  0  0  0  0
 37 31  1  6  0  0  0
 37 32  1  0  0  0  0
 37 34  1  0  0  0  0
 38 40  1  0  0  0  0
 39 38  1  0  0  0  0
 39 40  1  0  0  0  0
 41 31  1  0  0  0  0
 42 45  1  0  0  0  0
 42 41  1  0  0  0  0
 43 44  1  0  0  0  0
 44 47  2  0  0  0  0
 45 46  2  0  0  0  0
 46 47  1  0  0  0  0
 48 43  2  0  0  0  0
 48 45  1  0  0  0  0
 49 48  1  0  0  0  0
 50 51  2  0  0  0  0
 50 49  1  0  0  0  0
 52 50  1  0  0  0  0
 53 52  1  0  0  0  0
 53 55  1  0  0  0  0
 54 55  1  0  0  0  0
M  END
>  <MODEL>
1

>  <REMARK>
 VINA RESULT:      -7.3      0.000      0.000
  Name = 
  18 active torsions:
  status: ('A' for Active; 'I' for Inactive)
    1  A    between atoms: O_2  and  C_28
    2  A    between atoms: O_2  and  C_44
    3  A    between atoms: C_4  and  O_37
    4  A    between atoms: C_4  and  N_40
    5  A    between atoms: C_5  and  C_45
    6  A    between atoms: C_7  and  N_22
    7  A    between atoms: C_8  and  N_22
    8  A    between atoms: C_8  and  C_43
    9  A    between atoms: C_10  and  N_32
   10  A    between atoms: C_16  and  C_36
   11  A    between atoms: C_26  and  C_45
   12  A    between atoms: C_27  and  C_54
   13  A    between atoms: C_28  and  C_49
   14  A    between atoms: N_33  and  C_36
   15  A    between atoms: N_33  and  C_49
   16  A    between atoms: C_43  and  C_51
   17  A    between atoms: C_49  and  C_52
   18  A    between atoms: C_51  and  C_54
                            x       y       z     vdW  Elec       q    Type
                         _______ _______ _______ _____ _____    ______ ____

>  <TORSDO>
F 18

$$$$
=
 OpenBabel11062408423D

 55 62  0  0  1  0  0  0  0  0999 V2000
  160.4310  206.4060  146.8990 C   0  0  0  0  0  3  0  0  0  0  0  0
  161.5700  205.8440  144.4050 C   0  0  0  0  0  0  0  0  0  0  0  0
  162.3890  206.1660  145.4910 C   0  0  0  0  0  3  0  0  0  0  0  0
  159.6130  206.0850  145.8150 C   0  0  0  0  0  3  0  0  0  0  0  0
  161.8210  206.4480  146.7470 C   0  0  0  0  0  0  0  0  0  0  0  0
  160.1790  205.8020  144.5690 C   0  0  0  0  0  3  0  0  0  0  0  0
  162.1780  205.5270  143.0830 C   0  0  0  0  0  2  0  0  0  0  0  0
  161.5590  206.3870  141.9990 C   0  0  0  0  0  2  0  0  0  0  0  0
  162.5180  206.5040  140.8330 C   0  0  0  0  0  2  0  0  0  0  0  0
  161.9150  207.3720  139.7430 C   0  0  0  0  0  2  0  0  0  0  0  0
  161.5100  208.6560  140.2920 N   0  0  0  0  0  2  0  0  0  0  0  0
  159.2000  211.3900  140.1570 C   0  0  2  0  0  3  0  0  0  0  0  0
  162.2420  212.0010  137.3600 C   0  0  0  0  0  1  0  0  0  0  0  0
  161.3320  211.8820  138.5750 C   0  0  2  0  0  0  0  0  0  0  0  0
  161.9850  209.6820  139.3740 C   0  0  1  0  0  3  0  0  0  0  0  0
  162.2030  212.6540  142.3360 C   0  0  0  0  0  2  0  0  0  0  0  0
  161.0640  214.0050  141.1250 C   0  0  0  0  0  2  0  0  0  0  0  0
  162.1700  212.0840  139.8530 C   0  0  1  0  0  3  0  0  0  0  0  0
  160.8350  210.4340  138.6970 C   0  0  1  0  0  3  0  0  0  0  0  0
  157.7380  212.4230  138.4180 C   0  0  0  0  0  1  0  0  0  0  0  0
  160.0930  211.6620  141.3830 C   0  0  0  0  0  2  0  0  0  0  0  0
  161.9180  214.1440  142.3690 C   0  0  0  0  0  2  0  0  0  0  0  0
  164.1020  210.7130  139.6310 F   0  0  0  0  0  0  0  0  0  0  0  0
  161.3450  212.5100  141.0910 C   0  0  0  0  0  0  0  0  0  0  0  0
  159.6080  210.2520  139.4110 O   0  0  0  0  0  0  0  0  0  0  0  0
  160.1810  212.8800  138.3720 C   0  0  0  0  0  2  0  0  0  0  0  0
  162.8120  210.7200  140.1210 C   0  0  2  0  0  3  0  0  0  0  0  0
  158.9750  212.6150  139.2710 C   0  0  2  0  0  3  0  0  0  0  0  0
  162.6080  206.7790  147.8520 O   0  0  0  0  0  0  0  0  0  0  0  0
  162.2950  207.8570  148.7290 C   0  0  0  0  0  2  0  0  0  0  0  0
  161.5610  207.3490  149.9690 C   0  0  2  0  0  3  0  0  0  0  0  0
  161.7710  209.6800  150.8550 C   0  0  0  0  0  2  0  0  0  0  0  0
  161.1770  210.2250  153.2190 N   0  0  1  0  0  0  0  0  0  0  0  0
  160.9020  207.8970  152.3650 C   0  0  0  0  0  2  0  0  0  0  0  0
  161.2340  208.7960  153.5590 C   0  0  0  0  0  2  0  0  0  0  0  0
  162.0740  210.5290  152.0920 C   0  0  0  0  0  2  0  0  0  0  0  0
  161.8510  208.2010  151.2080 C   0  0  1  0  0  3  0  0  0  0  0  0
  159.8040  210.6140  152.9000 C   0  0  0  0  0  3  0  0  0  0  0  0
  159.7260  212.1170  152.7120 C   0  0  0  0  0  2  0  0  0  0  0  0
  159.2530  211.4940  154.0060 C   0  0  0  0  0  2  0  0  0  0  0  0
  161.8560  205.9380  150.2010 N   0  0  0  0  0  2  0  0  0  0  0  0
  160.6110  205.1890  150.1010 C   0  0  0  0  0  2  0  0  0  0  0  0
  160.9290  201.4050  149.7120 C   0  0  0  0  0  3  0  0  0  0  0  0
  161.2760  201.0400  151.0140 C   0  0  0  0  0  3  0  0  0  0  0  0
  160.8390  203.7350  150.3860 C   0  0  0  0  0  0  0  0  0  0  0  0
  161.1880  203.3600  151.6880 C   0  0  0  0  0  3  0  0  0  0  0  0
  161.4050  202.0190  152.0030 C   0  0  0  0  0  3  0  0  0  0  0  0
  160.7020  202.7480  149.3870 C   0  0  0  0  0  0  0  0  0  0  0  0
  160.3200  203.0980  147.9830 C   0  0  0  0  0  2  0  0  0  0  0  0
  161.4700  202.8980  147.0450 C   0  0  0  0  0  0  0  0  0  0  0  0
  162.5330  203.5480  147.2260 O   0  0  0  0  0  0  0  0  0  0  0  0
  161.3820  201.9970  145.9380 N   0  0  0  0  0  2  0  0  0  0  0  0
  160.2340  201.1330  145.7050 C   0  0  0  0  0  2  0  0  0  0  0  0
  159.2580  202.5810  144.3550 C   0  0  0  0  0  1  0  0  0  0  0  0
  159.7850  201.2890  144.3920 O   0  0  0  0  0  0  0  0  0  0  0  0
  2  6  2  0  0  0  0
  2  3  1  0  0  0  0
  3  5  2  0  0  0  0
  4  1  2  0  0  0  0
  5  1  1  0  0  0  0
  5 29  1  0  0  0  0
  6  4  1  0  0  0  0
  7  2  1  0  0  0  0
  8  7  1  0  0  0  0
  9  8  1  0  0  0  0
 10 11  1  0  0  0  0
 10  9  1  0  0  0  0
 12 21  1  1  0  0  0
 14 13  1  6  0  0  0
 14 19  1  0  0  0  0
 14 18  1  0  0  0  0
 15 27  1  0  0  0  0
 15 11  1  1  0  0  0
 16 22  1  0  0  0  0
 17 22  1  0  0  0  0
 18 27  1  0  0  0  0
 18 24  1  1  0  0  0
 19 15  1  0  0  0  0
 19 25  1  1  0  0  0
 24 17  1  0  0  0  0
 24 21  1  0  0  0  0
 24 16  1  0  0  0  0
 25 12  1  0  0  0  0
 26 14  1  0  0  0  0
 26 28  1  0  0  0  0
 27 23  1  6  0  0  0
 28 20  1  6  0  0  0
 28 12  1  0  0  0  0
 29 30  1  0  0  0  0
 31 30  1  6  0  0  0
 31 41  1  0  0  0  0
 32 37  1  0  0  0  0
 32 36  1  0  0  0  0
 33 38  1  6  0  0  0
 33 35  1  0  0  0  0
 34 35  1  0  0  0  0
 36 33  1  0  0  0  0
 37 31  1  6  0  0  0
 37 34  1  0  0  0  0
 38 40  1  0  0  0  0
 39 38  1  0  0  0  0
 39 40  1  0  0  0  0
 42 41  1  0  0  0  0
 42 45  1  0  0  0  0
 43 44  1  0  0  0  0
 44 47  2  0  0  0  0
 45 46  2  0  0  0  0
 46 47  1  0  0  0  0
 48 43  2  0  0  0  0
 48 45  1  0  0  0  0
 49 48  1  0  0  0  0
 50 51  2  0  0  0  0
 50 49  1  0  0  0  0
 52 50  1  0  0  0  0
 53 52  1  0  0  0  0
 54 55  1  0  0  0  0
 55 53  1  0  0  0  0
M  END
>  <MODEL>
2

>  <REMARK>
 VINA RESULT:      -5.5      2.159      3.955
  Name = 
  18 active torsions:
  status: ('A' for Active; 'I' for Inactive)
    1  A    between atoms: O_2  and  C_28
    2  A    between atoms: O_2  and  C_44
    3  A    between atoms: C_4  and  O_37
    4  A    between atoms: C_4  and  N_40
    5  A    between atoms: C_5  and  C_45
    6  A    between atoms: C_7  and  N_22
    7  A    between atoms: C_8  and  N_22
    8  A    between atoms: C_8  and  C_43
    9  A    between atoms: C_10  and  N_32
   10  A    between atoms: C_16  and  C_36
   11  A    between atoms: C_26  and  C_45
   12  A    between atoms: C_27  and  C_54
   13  A    between atoms: C_28  and  C_49
   14  A    between atoms: N_33  and  C_36
   15  A    between atoms: N_33  and  C_49
   16  A    between atoms: C_43  and  C_51
   17  A    between atoms: C_49  and  C_52
   18  A    between atoms: C_51  and  C_54
                            x       y       z     vdW  Elec       q    Type
                         _______ _______ _______ _____ _____    ______ ____

>  <TORSDO>
F 18

$$$$
=
 OpenBabel11062408423D

 55 62  0  0  1  0  0  0  0  0999 V2000
  160.4270  206.4060  147.2860 C   0  0  0  0  0  3  0  0  0  0  0  0
  161.5740  205.7770  144.8110 C   0  0  0  0  0  0  0  0  0  0  0  0
  162.3530  206.3640  145.8140 C   0  0  0  0  0  3  0  0  0  0  0  0
  159.6500  205.8210  146.2840 C   0  0  0  0  0  3  0  0  0  0  0  0
  161.7810  206.6800  147.0600 C   0  0  0  0  0  0  0  0  0  0  0  0
  160.2210  205.5050  145.0480 C   0  0  0  0  0  3  0  0  0  0  0  0
  162.1910  205.4270  143.5010 C   0  0  0  0  0  2  0  0  0  0  0  0
  161.5080  206.1830  142.3790 C   0  0  0  0  0  2  0  0  0  0  0  0
  162.4630  206.3340  141.2140 C   0  0  0  0  0  2  0  0  0  0  0  0
  161.8240  207.1690  140.1180 C   0  0  0  0  0  2  0  0  0  0  0  0
  162.0500  208.5830  140.3680 N   0  0  0  0  0  2  0  0  0  0  0  0
  161.3490  211.9120  141.4840 C   0  0  2  0  0  3  0  0  0  0  0  0
  159.4960  211.2640  137.7970 C   0  0  0  0  0  1  0  0  0  0  0  0
  160.4160  211.5460  138.9770 C   0  0  2  0  0  0  0  0  0  0  0  0
  161.3170  209.3200  139.3480 C   0  0  1  0  0  3  0  0  0  0  0  0
  164.2870  212.2610  138.9130 C   0  0  0  0  0  2  0  0  0  0  0  0
  162.8390  213.8200  139.1640 C   0  0  0  0  0  2  0  0  0  0  0  0
  161.8770  211.5520  138.4870 C   0  0  1  0  0  3  0  0  0  0  0  0
  160.3690  210.3610  139.9520 C   0  0  1  0  0  3  0  0  0  0  0  0
  159.2990  213.2420  141.9960 C   0  0  0  0  0  1  0  0  0  0  0  0
  162.7760  211.9610  140.9070 C   0  0  0  0  0  2  0  0  0  0  0  0
  164.2720  213.7590  138.6710 C   0  0  0  0  0  2  0  0  0  0  0  0
  162.1610  209.6020  137.1520 F   0  0  0  0  0  0  0  0  0  0  0  0
  162.8530  212.3190  139.4110 C   0  0  0  0  0  0  0  0  0  0  0  0
  160.7180  210.6520  141.3090 O   0  0  0  0  0  0  0  0  0  0  0  0
  159.9280  212.8530  139.6220 C   0  0  0  0  0  2  0  0  0  0  0  0
  162.2820  210.0750  138.4440 C   0  0  2  0  0  3  0  0  0  0  0  0
  160.4600  213.0730  141.0380 C   0  0  2  0  0  3  0  0  0  0  0  0
  162.5260  207.2710  148.0810 O   0  0  0  0  0  0  0  0  0  0  0  0
  162.8470  208.6600  148.1000 C   0  0  0  0  0  2  0  0  0  0  0  0
  162.0030  209.3950  149.1390 C   0  0  2  0  0  3  0  0  0  0  0  0
  163.2030  211.2960  148.0400 C   0  0  0  0  0  2  0  0  0  0  0  0
  161.9920  213.3720  147.3590 N   0  0  1  0  0  0  0  0  0  0  0  0
  160.7430  211.4810  148.4050 C   0  0  0  0  0  2  0  0  0  0  0  0
  160.8670  212.9970  148.2300 C   0  0  0  0  0  2  0  0  0  0  0  0
  163.2550  212.8160  147.8710 C   0  0  0  0  0  2  0  0  0  0  0  0
  162.0500  210.9150  148.9580 C   0  0  1  0  0  3  0  0  0  0  0  0
  161.7470  212.9120  145.9920 C   0  0  0  0  0  3  0  0  0  0  0  0
  162.8000  213.4850  145.0620 C   0  0  0  0  0  2  0  0  0  0  0  0
  161.4190  214.1000  145.1070 C   0  0  0  0  0  2  0  0  0  0  0  0
  162.3870  208.9990  150.4910 N   0  0  0  0  0  2  0  0  0  0  0  0
  161.1740  208.7330  151.2510 C   0  0  0  0  0  2  0  0  0  0  0  0
  161.2630  205.6350  153.4800 C   0  0  0  0  0  3  0  0  0  0  0  0
  161.0890  204.6280  152.5280 C   0  0  0  0  0  3  0  0  0  0  0  0
  161.1450  207.3130  151.7290 C   0  0  0  0  0  0  0  0  0  0  0  0
  160.9700  206.2970  150.7830 C   0  0  0  0  0  3  0  0  0  0  0  0
  160.9430  204.9600  151.1790 C   0  0  0  0  0  3  0  0  0  0  0  0
  161.2990  206.9800  153.0920 C   0  0  0  0  0  0  0  0  0  0  0  0
  161.5000  208.0300  154.1400 C   0  0  0  0  0  2  0  0  0  0  0  0
  160.3790  208.0210  155.1340 C   0  0  0  0  0  0  0  0  0  0  0  0
  159.9330  206.9190  155.5480 O   0  0  0  0  0  0  0  0  0  0  0  0
  159.7950  209.2360  155.6110 N   0  0  0  0  0  2  0  0  0  0  0  0
  160.3070  210.5540  155.2640 C   0  0  0  0  0  2  0  0  0  0  0  0
  160.4280  211.6670  153.3630 C   0  0  0  0  0  1  0  0  0  0  0  0
  159.5140  211.1210  154.2650 O   0  0  0  0  0  0  0  0  0  0  0  0
  2  6  2  0  0  0  0
  2  3  1  0  0  0  0
  3  5  2  0  0  0  0
  4  1  2  0  0  0  0
  5  1  1  0  0  0  0
  5 29  1  0  0  0  0
  6  4  1  0  0  0  0
  7  2  1  0  0  0  0
  8  7  1  0  0  0  0
  9  8  1  0  0  0  0
 10 11  1  0  0  0  0
 10  9  1  0  0  0  0
 12 21  1  6  0  0  0
 14 13  1  6  0  0  0
 14 26  1  0  0  0  0
 14 19  1  0  0  0  0
 15 19  1  0  0  0  0
 15 11  1  1  0  0  0
 16 24  1  0  0  0  0
 17 24  1  0  0  0  0
 18 14  1  0  0  0  0
 18 24  1  1  0  0  0
 19 25  1  1  0  0  0
 22 16  1  0  0  0  0
 22 17  1  0  0  0  0
 24 21  1  0  0  0  0
 25 12  1  0  0  0  0
 26 28  1  0  0  0  0
 27 23  1  6  0  0  0
 27 18  1  0  0  0  0
 27 15  1  0  0  0  0
 28 12  1  0  0  0  0
 28 20  1  1  0  0  0
 29 30  1  0  0  0  0
 31 30  1  6  0  0  0
 31 41  1  0  0  0  0
 32 37  1  0  0  0  0
 33 38  1  6  0  0  0
 33 36  1  0  0  0  0
 33 35  1  0  0  0  0
 34 37  1  0  0  0  0
 35 34  1  0  0  0  0
 36 32  1  0  0  0  0
 37 31  1  6  0  0  0
 39 40  1  0  0  0  0
 39 38  1  0  0  0  0
 40 38  1  0  0  0  0
 41 42  1  0  0  0  0
 42 45  1  0  0  0  0
 44 43  2  0  0  0  0
 45 48  2  0  0  0  0
 46 47  2  0  0  0  0
 46 45  1  0  0  0  0
 47 44  1  0  0  0  0
 48 43  1  0  0  0  0
 48 49  1  0  0  0  0
 49 50  1  0  0  0  0
 50 51  2  0  0  0  0
 50 52  1  0  0  0  0
 53 52  1  0  0  0  0
 54 55  1  0  0  0  0
 55 53  1  0  0  0  0
M  END
>  <MODEL>
3

>  <REMARK>
 VINA RESULT:      -5.4      2.430      6.579
  Name = 
  18 active torsions:
  status: ('A' for Active; 'I' for Inactive)
    1  A    between atoms: O_2  and  C_28
    2  A    between atoms: O_2  and  C_44
    3  A    between atoms: C_4  and  O_37
    4  A    between atoms: C_4  and  N_40
    5  A    between atoms: C_5  and  C_45
    6  A    between atoms: C_7  and  N_22
    7  A    between atoms: C_8  and  N_22
    8  A    between atoms: C_8  and  C_43
    9  A    between atoms: C_10  and  N_32
   10  A    between atoms: C_16  and  C_36
   11  A    between atoms: C_26  and  C_45
   12  A    between atoms: C_27  and  C_54
   13  A    between atoms: C_28  and  C_49
   14  A    between atoms: N_33  and  C_36
   15  A    between atoms: N_33  and  C_49
   16  A    between atoms: C_43  and  C_51
   17  A    between atoms: C_49  and  C_52
   18  A    between atoms: C_51  and  C_54
                            x       y       z     vdW  Elec       q    Type
                         _______ _______ _______ _____ _____    ______ ____

>  <TORSDO>
F 18

$$$$
=
 OpenBabel11062408423D

 55 62  0  0  1  0  0  0  0  0999 V2000
  160.4340  206.1060  146.6260 C   0  0  0  0  0  3  0  0  0  0  0  0
  161.6060  205.7050  144.1150 C   0  0  0  0  0  0  0  0  0  0  0  0
  162.3910  206.1180  145.1960 C   0  0  0  0  0  3  0  0  0  0  0  0
  159.6500  205.6930  145.5470 C   0  0  0  0  0  3  0  0  0  0  0  0
  161.8070  206.3190  146.4600 C   0  0  0  0  0  0  0  0  0  0  0  0
  160.2330  205.4910  144.2930 C   0  0  0  0  0  3  0  0  0  0  0  0
  162.2350  205.4740  142.7850 C   0  0  0  0  0  2  0  0  0  0  0  0
  161.6150  206.3870  141.7450 C   0  0  0  0  0  2  0  0  0  0  0  0
  162.5920  206.6010  140.6090 C   0  0  0  0  0  2  0  0  0  0  0  0
  161.9670  207.4770  139.5380 C   0  0  0  0  0  2  0  0  0  0  0  0
  161.4950  208.7220  140.1210 N   0  0  0  0  0  2  0  0  0  0  0  0
  159.2030  211.4710  140.2320 C   0  0  2  0  0  3  0  0  0  0  0  0
  162.1570  212.2380  137.3800 C   0  0  0  0  0  1  0  0  0  0  0  0
  161.2870  212.0490  138.6140 C   0  0  2  0  0  0  0  0  0  0  0  0
  161.9480  209.8000  139.2540 C   0  0  1  0  0  3  0  0  0  0  0  0
  162.2840  212.5810  142.3850 C   0  0  0  0  0  2  0  0  0  0  0  0
  161.1160  214.0110  141.2980 C   0  0  0  0  0  2  0  0  0  0  0  0
  162.1660  212.1670  139.8740 C   0  0  1  0  0  3  0  0  0  0  0  0
  160.7820  210.6000  138.6620 C   0  0  1  0  0  3  0  0  0  0  0  0
  157.6930  212.6190  138.6080 C   0  0  0  0  0  1  0  0  0  0  0  0
  160.1370  211.6620  141.4420 C   0  0  0  0  0  2  0  0  0  0  0  0
  162.0110  214.0680  142.5200 C   0  0  0  0  0  2  0  0  0  0  0  0
  164.0800  210.8010  139.5050 F   0  0  0  0  0  0  0  0  0  0  0  0
  161.3850  212.5200  141.1620 C   0  0  0  0  0  0  0  0  0  0  0  0
  159.5770  210.3800  139.4030 O   0  0  0  0  0  0  0  0  0  0  0  0
  160.1370  213.0640  138.5110 C   0  0  0  0  0  2  0  0  0  0  0  0
  162.8060  210.7850  140.0360 C   0  0  2  0  0  3  0  0  0  0  0  0
  158.9580  212.7500  139.4310 C   0  0  2  0  0  3  0  0  0  0  0  0
  162.5590  206.7370  147.5590 O   0  0  0  0  0  0  0  0  0  0  0  0
  162.3040  207.9560  148.2520 C   0  0  0  0  0  2  0  0  0  0  0  0
  161.5240  207.6930  149.5390 C   0  0  2  0  0  3  0  0  0  0  0  0
  161.7590  210.1280  150.0610 C   0  0  0  0  0  2  0  0  0  0  0  0
  161.2050  211.0260  152.3260 N   0  0  1  0  0  0  0  0  0  0  0  0
  160.9060  208.5980  151.8350 C   0  0  0  0  0  2  0  0  0  0  0  0
  161.2610  209.6630  152.8760 C   0  0  0  0  0  2  0  0  0  0  0  0
  162.0860  211.1510  151.1530 C   0  0  0  0  0  2  0  0  0  0  0  0
  161.8380  208.7190  150.6310 C   0  0  1  0  0  3  0  0  0  0  0  0
  159.8290  211.3720  151.9720 C   0  0  0  0  0  3  0  0  0  0  0  0
  159.7440  212.8460  151.6230 C   0  0  0  0  0  2  0  0  0  0  0  0
  159.2800  212.3660  152.9790 C   0  0  0  0  0  2  0  0  0  0  0  0
  161.7400  206.3250  150.0030 N   0  0  0  0  0  2  0  0  0  0  0  0
  160.4770  205.6060  149.9060 C   0  0  0  0  0  2  0  0  0  0  0  0
  160.9050  202.1330  151.4310 C   0  0  0  0  0  3  0  0  0  0  0  0
  161.1080  201.3690  150.2800 C   0  0  0  0  0  3  0  0  0  0  0  0
  160.6900  204.1310  150.0700 C   0  0  0  0  0  0  0  0  0  0  0  0
  160.8940  203.3580  148.9220 C   0  0  0  0  0  3  0  0  0  0  0  0
  161.1030  201.9820  149.0250 C   0  0  0  0  0  3  0  0  0  0  0  0
  160.7010  203.5150  151.3400 C   0  0  0  0  0  0  0  0  0  0  0  0
  160.5000  204.3020  152.5970 C   0  0  0  0  0  2  0  0  0  0  0  0
  161.7150  205.1140  152.9250 C   0  0  0  0  0  0  0  0  0  0  0  0
  162.7870  204.8980  152.3010 O   0  0  0  0  0  0  0  0  0  0  0  0
  161.6880  206.1180  153.9430 N   0  0  0  0  0  2  0  0  0  0  0  0
  160.4750  206.5040  154.6490 C   0  0  0  0  0  2  0  0  0  0  0  0
  160.2620  207.0540  156.7740 C   0  0  0  0  0  1  0  0  0  0  0  0
  160.7610  207.5230  155.5580 O   0  0  0  0  0  0  0  0  0  0  0  0
  2  6  2  0  0  0  0
  2  3  1  0  0  0  0
  3  5  2  0  0  0  0
  4  1  2  0  0  0  0
  5  1  1  0  0  0  0
  5 29  1  0  0  0  0
  6  4  1  0  0  0  0
  7  2  1  0  0  0  0
  8  7  1  0  0  0  0
  9  8  1  0  0  0  0
 10 11  1  0  0  0  0
 10  9  1  0  0  0  0
 12 21  1  1  0  0  0
 14 13  1  6  0  0  0
 14 19  1  0  0  0  0
 14 18  1  0  0  0  0
 15 27  1  0  0  0  0
 15 11  1  1  0  0  0
 16 22  1  0  0  0  0
 17 22  1  0  0  0  0
 18 27  1  0  0  0  0
 18 24  1  1  0  0  0
 19 15  1  0  0  0  0
 19 25  1  1  0  0  0
 24 17  1  0  0  0  0
 24 21  1  0  0  0  0
 24 16  1  0  0  0  0
 25 12  1  0  0  0  0
 26 14  1  0  0  0  0
 26 28  1  0  0  0  0
 27 23  1  6  0  0  0
 28 20  1  6  0  0  0
 28 12  1  0  0  0  0
 29 30  1  0  0  0  0
 31 30  1  6  0  0  0
 31 41  1  0  0  0  0
 32 37  1  0  0  0  0
 32 36  1  0  0  0  0
 33 38  1  6  0  0  0
 33 35  1  0  0  0  0
 34 35  1  0  0  0  0
 36 33  1  0  0  0  0
 37 31  1  6  0  0  0
 37 34  1  0  0  0  0
 38 40  1  0  0  0  0
 39 38  1  0  0  0  0
 39 40  1  0  0  0  0
 42 41  1  0  0  0  0
 42 45  1  0  0  0  0
 44 43  2  0  0  0  0
 45 48  2  0  0  0  0
 46 47  2  0  0  0  0
 46 45  1  0  0  0  0
 47 44  1  0  0  0  0
 48 43  1  0  0  0  0
 48 49  1  0  0  0  0
 49 50  1  0  0  0  0
 50 52  1  0  0  0  0
 51 50  2  0  0  0  0
 52 53  1  0  0  0  0
 53 55  1  0  0  0  0
 55 54  1  0  0  0  0
M  END
>  <MODEL>
4

>  <REMARK>
 VINA RESULT:      -5.3      2.335      5.178
  Name = 
  18 active torsions:
  status: ('A' for Active; 'I' for Inactive)
    1  A    between atoms: O_2  and  C_28
    2  A    between atoms: O_2  and  C_44
    3  A    between atoms: C_4  and  O_37
    4  A    between atoms: C_4  and  N_40
    5  A    between atoms: C_5  and  C_45
    6  A    between atoms: C_7  and  N_22
    7  A    between atoms: C_8  and  N_22
    8  A    between atoms: C_8  and  C_43
    9  A    between atoms: C_10  and  N_32
   10  A    between atoms: C_16  and  C_36
   11  A    between atoms: C_26  and  C_45
   12  A    between atoms: C_27  and  C_54
   13  A    between atoms: C_28  and  C_49
   14  A    between atoms: N_33  and  C_36
   15  A    between atoms: N_33  and  C_49
   16  A    between atoms: C_43  and  C_51
   17  A    between atoms: C_49  and  C_52
   18  A    between atoms: C_51  and  C_54
                            x       y       z     vdW  Elec       q    Type
                         _______ _______ _______ _____ _____    ______ ____

>  <TORSDO>
F 18

$$$$
=
 OpenBabel11062408423D

 55 62  0  0  1  0  0  0  0  0999 V2000
  160.4060  206.3390  147.2370 C   0  0  0  0  0  3  0  0  0  0  0  0
  161.6010  205.7950  144.7640 C   0  0  0  0  0  0  0  0  0  0  0  0
  162.3740  206.2790  145.8230 C   0  0  0  0  0  3  0  0  0  0  0  0
  159.6330  205.8560  146.1790 C   0  0  0  0  0  3  0  0  0  0  0  0
  161.7790  206.5520  147.0680 C   0  0  0  0  0  0  0  0  0  0  0  0
  160.2280  205.5830  144.9430 C   0  0  0  0  0  3  0  0  0  0  0  0
  162.2410  205.4900  143.4540 C   0  0  0  0  0  2  0  0  0  0  0  0
  161.5230  206.2160  142.3340 C   0  0  0  0  0  2  0  0  0  0  0  0
  162.4640  206.4030  141.1640 C   0  0  0  0  0  2  0  0  0  0  0  0
  161.7890  207.2170  140.0730 C   0  0  0  0  0  2  0  0  0  0  0  0
  162.0730  208.6310  140.2550 N   0  0  0  0  0  2  0  0  0  0  0  0
  161.2420  211.9310  141.3720 C   0  0  2  0  0  3  0  0  0  0  0  0
  159.4910  211.2430  137.6420 C   0  0  0  0  0  1  0  0  0  0  0  0
  160.3750  211.5480  138.8430 C   0  0  2  0  0  0  0  0  0  0  0  0
  161.3390  209.3500  139.2230 C   0  0  1  0  0  3  0  0  0  0  0  0
  164.2220  212.3860  138.8670 C   0  0  0  0  0  2  0  0  0  0  0  0
  162.7200  213.8970  139.0930 C   0  0  0  0  0  2  0  0  0  0  0  0
  161.8460  211.6030  138.3850 C   0  0  1  0  0  3  0  0  0  0  0  0
  160.3450  210.3570  139.8110 C   0  0  1  0  0  3  0  0  0  0  0  0
  159.1400  213.1910  141.8450 C   0  0  0  0  0  1  0  0  0  0  0  0
  162.6790  212.0280  140.8260 C   0  0  0  0  0  2  0  0  0  0  0  0
  164.1640  213.8840  138.6320 C   0  0  0  0  0  2  0  0  0  0  0  0
  162.2200  209.6700  137.0480 F   0  0  0  0  0  0  0  0  0  0  0  0
  162.7760  212.3960  139.3330 C   0  0  0  0  0  0  0  0  0  0  0  0
  160.6550  210.6520  141.1770 O   0  0  0  0  0  0  0  0  0  0  0  0
  159.8320  212.8350  139.4840 C   0  0  0  0  0  2  0  0  0  0  0  0
  162.2980  210.1400  138.3440 C   0  0  2  0  0  3  0  0  0  0  0  0
  160.3260  213.0650  140.9110 C   0  0  2  0  0  3  0  0  0  0  0  0
  162.5190  207.0410  148.1460 O   0  0  0  0  0  0  0  0  0  0  0  0
  162.9510  208.3960  148.2350 C   0  0  0  0  0  2  0  0  0  0  0  0
  162.0320  209.1970  149.1560 C   0  0  2  0  0  3  0  0  0  0  0  0
  163.2160  211.0080  147.8980 C   0  0  0  0  0  2  0  0  0  0  0  0
  162.2350  213.2960  147.6940 N   0  0  1  0  0  0  0  0  0  0  0  0
  160.9930  211.5070  148.9130 C   0  0  0  0  0  2  0  0  0  0  0  0
  161.3200  212.9990  148.8060 C   0  0  0  0  0  2  0  0  0  0  0  0
  163.4760  212.5140  147.8170 C   0  0  0  0  0  2  0  0  0  0  0  0
  162.2840  210.7040  149.0640 C   0  0  1  0  0  3  0  0  0  0  0  0
  161.5810  213.0200  146.4150 C   0  0  0  0  0  3  0  0  0  0  0  0
  162.2310  213.8420  145.3180 C   0  0  0  0  0  2  0  0  0  0  0  0
  160.9090  214.2820  145.9050 C   0  0  0  0  0  2  0  0  0  0  0  0
  162.1310  208.7140  150.5300 N   0  0  0  0  0  2  0  0  0  0  0  0
  160.8540  208.9500  151.1900 C   0  0  0  0  0  2  0  0  0  0  0  0
  160.8900  206.6610  154.2450 C   0  0  0  0  0  3  0  0  0  0  0  0
  160.9290  207.6050  155.2730 C   0  0  0  0  0  3  0  0  0  0  0  0
  160.8830  208.4490  152.6020 C   0  0  0  0  0  0  0  0  0  0  0  0
  160.9230  209.3870  153.6390 C   0  0  0  0  0  3  0  0  0  0  0  0
  160.9450  208.9680  154.9700 C   0  0  0  0  0  3  0  0  0  0  0  0
  160.8600  207.0710  152.9060 C   0  0  0  0  0  0  0  0  0  0  0  0
  160.8060  206.0300  151.8320 C   0  0  0  0  0  2  0  0  0  0  0  0
  162.0900  205.2610  151.7610 C   0  0  0  0  0  0  0  0  0  0  0  0
  163.1750  205.8500  152.0060 O   0  0  0  0  0  0  0  0  0  0  0  0
  162.1110  203.8760  151.4040 N   0  0  0  0  0  2  0  0  0  0  0  0
  160.9040  203.0890  151.1990 C   0  0  0  0  0  2  0  0  0  0  0  0
  160.0580  201.8810  149.5580 C   0  0  0  0  0  1  0  0  0  0  0  0
  160.5130  203.1650  149.8610 O   0  0  0  0  0  0  0  0  0  0  0  0
  2  6  2  0  0  0  0
  2  3  1  0  0  0  0
  3  5  2  0  0  0  0
  4  1  2  0  0  0  0
  5  1  1  0  0  0  0
  5 29  1  0  0  0  0
  6  4  1  0  0  0  0
  7  2  1  0  0  0  0
  8  7  1  0  0  0  0
  9  8  1  0  0  0  0
 10 11  1  0  0  0  0
 10  9  1  0  0  0  0
 12 21  1  6  0  0  0
 14 13  1  6  0  0  0
 14 26  1  0  0  0  0
 14 19  1  0  0  0  0
 15 19  1  0  0  0  0
 15 11  1  1  0  0  0
 16 24  1  0  0  0  0
 17 24  1  0  0  0  0
 18 14  1  0  0  0  0
 18 24  1  1  0  0  0
 19 25  1  1  0  0  0
 22 16  1  0  0  0  0
 22 17  1  0  0  0  0
 24 21  1  0  0  0  0
 25 12  1  0  0  0  0
 26 28  1  0  0  0  0
 27 23  1  6  0  0  0
 27 18  1  0  0  0  0
 27 15  1  0  0  0  0
 28 12  1  0  0  0  0
 28 20  1  1  0  0  0
 29 30  1  0  0  0  0
 31 30  1  6  0  0  0
 31 41  1  0  0  0  0
 32 37  1  0  0  0  0
 33 38  1  6  0  0  0
 33 36  1  0  0  0  0
 33 35  1  0  0  0  0
 34 37  1  0  0  0  0
 35 34  1  0  0  0  0
 36 32  1  0  0  0  0
 37 31  1  6  0  0  0
 39 40  1  0  0  0  0
 39 38  1  0  0  0  0
 40 38  1  0  0  0  0
 41 42  1  0  0  0  0
 42 45  1  0  0  0  0
 43 44  1  0  0  0  0
 45 48  1  0  0  0  0
 45 46  2  0  0  0  0
 46 47  1  0  0  0  0
 47 44  2  0  0  0  0
 48 43  2  0  0  0  0
 49 48  1  0  0  0  0
 50 49  1  0  0  0  0
 50 51  2  0  0  0  0
 52 50  1  0  0  0  0
 53 52  1  0  0  0  0
 54 55  1  0  0  0  0
 55 53  1  0  0  0  0
M  END
>  <MODEL>
5

>  <REMARK>
 VINA RESULT:      -5.2      2.241      5.747
  Name = 
  18 active torsions:
  status: ('A' for Active; 'I' for Inactive)
    1  A    between atoms: O_2  and  C_28
    2  A    between atoms: O_2  and  C_44
    3  A    between atoms: C_4  and  O_37
    4  A    between atoms: C_4  and  N_40
    5  A    between atoms: C_5  and  C_45
    6  A    between atoms: C_7  and  N_22
    7  A    between atoms: C_8  and  N_22
    8  A    between atoms: C_8  and  C_43
    9  A    between atoms: C_10  and  N_32
   10  A    between atoms: C_16  and  C_36
   11  A    between atoms: C_26  and  C_45
   12  A    between atoms: C_27  and  C_54
   13  A    between atoms: C_28  and  C_49
   14  A    between atoms: N_33  and  C_36
   15  A    between atoms: N_33  and  C_49
   16  A    between atoms: C_43  and  C_51
   17  A    between atoms: C_49  and  C_52
   18  A    between atoms: C_51  and  C_54
                            x       y       z     vdW  Elec       q    Type
                         _______ _______ _______ _____ _____    ______ ____

>  <TORSDO>
F 18

$$$$
