=
 OpenBabel11052422223D

 25 28  0  0  1  0  0  0  0  0999 V2000
  161.5580  205.3810  149.6480 N   0  0  0  0  0  0  0  0  0  0  0  0
  161.6490  206.7170  150.1770 C   0  0  0  0  0  0  0  0  0  0  0  0
  162.0350  206.2070  147.3800 C   0  0  0  0  0  3  0  0  0  0  0  0
  160.7950  204.2630  150.1860 C   0  0  1  0  0  3  0  0  0  0  0  0
  160.7820  201.3750  150.2620 C   0  0  0  0  0  3  0  0  0  0  0  0
  162.1900  207.4360  147.8780 C   0  0  0  0  0  3  0  0  0  0  0  0
  160.6620  203.3870  148.9680 C   0  0  2  0  0  3  0  0  0  0  0  0
  160.4180  201.9500  149.1080 C   0  0  0  0  0  3  0  0  0  0  0  0
  161.4550  202.1640  151.3280 C   0  0  0  0  0  3  0  0  0  0  0  0
  161.6900  205.1570  148.2790 N   0  0  0  0  0  0  0  0  0  0  0  0
  161.1730  203.9180  147.9050 N   0  0  0  0  0  2  0  0  0  0  0  0
  161.5220  203.5050  151.2680 C   0  0  0  0  0  3  0  0  0  0  0  0
  161.9840  207.7170  149.3220 C   0  0  0  0  0  0  0  0  0  0  0  0
  161.3970  206.9650  151.6130 C   0  0  0  0  0  0  0  0  0  0  0  0
  161.5970  206.2930  153.9370 C   0  0  0  0  0  3  0  0  0  0  0  0
  160.7160  208.1200  152.0160 C   0  0  0  0  0  3  0  0  0  0  0  0
  160.4760  208.3600  153.3710 C   0  0  0  0  0  3  0  0  0  0  0  0
  161.8370  206.0530  152.5810 C   0  0  0  0  0  3  0  0  0  0  0  0
  160.9140  207.4490  154.3410 C   0  0  0  0  0  0  0  0  0  0  0  0
  160.6620  207.7040  155.7700 C   0  0  0  0  0  0  0  0  0  0  0  0
  159.6510  207.2090  156.3360 O   0  0  0  0  0  0  0  0  0  0  0  0
  161.5570  208.5130  156.5280 N   0  0  0  0  0  1  0  0  0  0  0  0
  162.1870  209.1290  149.7850 C   0  0  0  0  0  2  0  0  0  0  0  0
  162.0340  210.1140  148.6350 C   0  0  0  0  0  2  0  0  0  0  0  0
  162.0680  211.5420  149.1450 C   0  0  0  0  0  1  0  0  0  0  0  0
  1  2  1  0  0  0  0
  1  4  1  0  0  0  0
  2 14  1  0  0  0  0
  3  6  2  0  0  0  0
  3 10  1  0  0  0  0
  4 12  1  1  0  0  0
  5  9  1  0  0  0  0
  6 13  1  0  0  0  0
  7  8  1  1  0  0  0
  7  4  1  0  0  0  0
  8  5  2  0  0  0  0
 10  1  1  0  0  0  0
 11 10  1  0  0  0  0
 11  7  1  0  0  0  0
 12  9  2  0  0  0  0
 13 23  1  0  0  0  0
 13  2  2  0  0  0  0
 14 16  2  0  0  0  0
 14 18  1  0  0  0  0
 15 19  1  0  0  0  0
 16 17  1  0  0  0  0
 17 19  2  0  0  0  0
 18 15  2  0  0  0  0
 19 20  1  0  0  0  0
 20 21  2  0  0  0  0
 20 22  1  0  0  0  0
 24 25  1  0  0  0  0
 24 23  1  0  0  0  0
M  END
>  <MODEL>
1

>  <REMARK>
 VINA RESULT:      -9.0      0.000      0.000
  Name = 
  4 active torsions:
  status: ('A' for Active; 'I' for Inactive)
    1  A    between atoms: C_2  and  C_25
    2  A    between atoms: C_3  and  C_6
    3  A    between atoms: C_13  and  C_14
    4  A    between atoms: C_14  and  C_24
                            x       y       z     vdW  Elec       q    Type
                         _______ _______ _______ _____ _____    ______ ____

>  <TORSDO>
F 4

$$$$
=
 OpenBabel11052422223D

 25 28  0  0  1  0  0  0  0  0999 V2000
  161.2340  205.4200  149.0290 N   0  0  0  0  0  0  0  0  0  0  0  0
  161.4180  206.3680  150.0970 C   0  0  0  0  0  0  0  0  0  0  0  0
  161.1160  203.5680  150.6440 C   0  0  0  0  0  3  0  0  0  0  0  0
  161.6800  205.5400  147.6470 C   0  0  1  0  0  3  0  0  0  0  0  0
  161.0200  204.6410  144.9830 C   0  0  0  0  0  3  0  0  0  0  0  0
  161.2150  204.4520  151.6400 C   0  0  0  0  0  3  0  0  0  0  0  0
  161.6890  204.0960  147.2170 C   0  0  2  0  0  3  0  0  0  0  0  0
  161.5840  203.7420  145.8000 C   0  0  0  0  0  3  0  0  0  0  0  0
  160.4760  205.9200  145.5140 C   0  0  0  0  0  3  0  0  0  0  0  0
  161.1470  204.0570  149.3070 N   0  0  0  0  0  0  0  0  0  0  0  0
  161.3880  203.2810  148.1750 N   0  0  0  0  0  2  0  0  0  0  0  0
  160.7250  206.3140  146.7740 C   0  0  0  0  0  3  0  0  0  0  0  0
  161.3820  205.9040  151.3710 C   0  0  0  0  0  0  0  0  0  0  0  0
  161.6230  207.8000  149.7900 C   0  0  0  0  0  0  0  0  0  0  0  0
  161.8410  210.1040  150.5240 C   0  0  0  0  0  3  0  0  0  0  0  0
  161.8000  208.2160  148.4650 C   0  0  0  0  0  3  0  0  0  0  0  0
  161.9950  209.5680  148.1710 C   0  0  0  0  0  3  0  0  0  0  0  0
  161.6460  208.7520  150.8190 C   0  0  0  0  0  3  0  0  0  0  0  0
  162.0170  210.5210  149.1970 C   0  0  0  0  0  0  0  0  0  0  0  0
  162.2240  211.9460  148.8850 C   0  0  0  0  0  0  0  0  0  0  0  0
  163.2560  212.3190  148.2670 O   0  0  0  0  0  0  0  0  0  0  0  0
  161.2610  212.9190  149.2810 N   0  0  0  0  0  1  0  0  0  0  0  0
  161.4800  206.8170  152.5580 C   0  0  0  0  0  2  0  0  0  0  0  0
  161.1220  206.0890  153.8450 C   0  0  0  0  0  2  0  0  0  0  0  0
  160.5870  207.0620  154.8780 C   0  0  0  0  0  1  0  0  0  0  0  0
  1 10  1  0  0  0  0
  1  2  1  0  0  0  0
  2 13  2  0  0  0  0
  3  6  2  0  0  0  0
  4 12  1  6  0  0  0
  4  1  1  0  0  0  0
  5  9  1  0  0  0  0
  5  8  2  0  0  0  0
  7  8  1  6  0  0  0
  7  4  1  0  0  0  0
  7 11  1  0  0  0  0
  9 12  2  0  0  0  0
 10  3  1  0  0  0  0
 11 10  1  0  0  0  0
 13  6  1  0  0  0  0
 13 23  1  0  0  0  0
 14  2  1  0  0  0  0
 14 18  1  0  0  0  0
 15 18  2  0  0  0  0
 16 14  2  0  0  0  0
 17 16  1  0  0  0  0
 17 19  2  0  0  0  0
 19 15  1  0  0  0  0
 20 19  1  0  0  0  0
 20 22  1  0  0  0  0
 21 20  2  0  0  0  0
 23 24  1  0  0  0  0
 24 25  1  0  0  0  0
M  END
>  <MODEL>
2

>  <REMARK>
 VINA RESULT:      -8.5      2.870      5.210
  Name = 
  4 active torsions:
  status: ('A' for Active; 'I' for Inactive)
    1  A    between atoms: C_2  and  C_25
    2  A    between atoms: C_3  and  C_6
    3  A    between atoms: C_13  and  C_14
    4  A    between atoms: C_14  and  C_24
                            x       y       z     vdW  Elec       q    Type
                         _______ _______ _______ _____ _____    ______ ____

>  <TORSDO>
F 4

$$$$
=
 OpenBabel11052422223D

 25 28  0  0  1  0  0  0  0  0999 V2000
  161.2100  208.2280  152.3510 N   0  0  0  0  0  0  0  0  0  0  0  0
  161.4310  206.9220  151.7870 C   0  0  0  0  0  0  0  0  0  0  0  0
  161.3130  207.3020  154.6280 C   0  0  0  0  0  3  0  0  0  0  0  0
  160.5190  209.3540  151.7390 C   0  0  1  0  0  3  0  0  0  0  0  0
  160.4350  212.2420  151.7920 C   0  0  0  0  0  3  0  0  0  0  0  0
  161.5880  206.1020  154.1100 C   0  0  0  0  0  3  0  0  0  0  0  0
  160.1520  210.1660  152.9540 C   0  0  2  0  0  3  0  0  0  0  0  0
  159.8950  211.6030  152.8380 C   0  0  0  0  0  3  0  0  0  0  0  0
  161.3050  211.5200  150.8250 C   0  0  0  0  0  3  0  0  0  0  0  0
  161.0970  208.3870  153.7310 N   0  0  0  0  0  0  0  0  0  0  0  0
  160.4880  209.5950  154.0650 N   0  0  0  0  0  2  0  0  0  0  0  0
  161.4000  210.1800  150.8350 C   0  0  0  0  0  3  0  0  0  0  0  0
  161.6420  205.8880  152.6410 C   0  0  0  0  0  0  0  0  0  0  0  0
  161.4370  206.7390  150.3190 C   0  0  0  0  0  0  0  0  0  0  0  0
  160.3600  205.9650  148.2860 C   0  0  0  0  0  3  0  0  0  0  0  0
  162.5320  207.1730  149.5630 C   0  0  0  0  0  3  0  0  0  0  0  0
  162.5420  207.0030  148.1760 C   0  0  0  0  0  3  0  0  0  0  0  0
  160.3500  206.1340  149.6730 C   0  0  0  0  0  3  0  0  0  0  0  0
  161.4570  206.3980  147.5270 C   0  0  0  0  0  0  0  0  0  0  0  0
  161.4690  206.2210  146.0650 C   0  0  0  0  0  0  0  0  0  0  0  0
  162.5440  205.9590  145.4630 O   0  0  0  0  0  0  0  0  0  0  0  0
  160.2640  206.3450  145.3140 N   0  0  0  0  0  1  0  0  0  0  0  0
  161.9630  204.5050  152.1570 C   0  0  0  0  0  2  0  0  0  0  0  0
  160.7170  203.6320  152.1160 C   0  0  0  0  0  2  0  0  0  0  0  0
  160.7930  202.6470  150.9650 C   0  0  0  0  0  1  0  0  0  0  0  0
  1 10  1  0  0  0  0
  2  1  1  0  0  0  0
  2 13  2  0  0  0  0
  4 12  1  6  0  0  0
  4  1  1  0  0  0  0
  4  7  1  0  0  0  0
  5  8  2  0  0  0  0
  6  3  2  0  0  0  0
  7  8  1  6  0  0  0
  7 11  1  0  0  0  0
  9 12  2  0  0  0  0
  9  5  1  0  0  0  0
 10 11  1  0  0  0  0
 10  3  1  0  0  0  0
 13  6  1  0  0  0  0
 14  2  1  0  0  0  0
 15 18  2  0  0  0  0
 16 14  2  0  0  0  0
 17 16  1  0  0  0  0
 18 14  1  0  0  0  0
 19 17  2  0  0  0  0
 19 15  1  0  0  0  0
 20 19  1  0  0  0  0
 21 20  2  0  0  0  0
 22 20  1  0  0  0  0
 23 13  1  0  0  0  0
 24 23  1  0  0  0  0
 25 24  1  0  0  0  0
M  END
>  <MODEL>
3

>  <REMARK>
 VINA RESULT:      -8.3      2.961      7.353
  Name = 
  4 active torsions:
  status: ('A' for Active; 'I' for Inactive)
    1  A    between atoms: C_2  and  C_25
    2  A    between atoms: C_3  and  C_6
    3  A    between atoms: C_13  and  C_14
    4  A    between atoms: C_14  and  C_24
                            x       y       z     vdW  Elec       q    Type
                         _______ _______ _______ _____ _____    ______ ____

>  <TORSDO>
F 4

$$$$
=
 OpenBabel11052422223D

 25 28  0  0  1  0  0  0  0  0999 V2000
  161.5980  207.6010  150.6270 N   0  0  0  0  0  0  0  0  0  0  0  0
  161.6420  209.0360  150.7330 C   0  0  0  0  0  0  0  0  0  0  0  0
  162.1630  207.7240  148.2350 C   0  0  0  0  0  3  0  0  0  0  0  0
  160.8310  206.6730  151.4470 C   0  0  1  0  0  3  0  0  0  0  0  0
  160.8660  203.9410  152.3860 C   0  0  0  0  0  3  0  0  0  0  0  0
  162.2740  209.0500  148.3460 C   0  0  0  0  0  3  0  0  0  0  0  0
  160.7690  205.4680  150.5430 C   0  0  2  0  0  3  0  0  0  0  0  0
  160.5450  204.1330  151.1000 C   0  0  0  0  0  3  0  0  0  0  0  0
  161.4760  205.0330  153.1900 C   0  0  0  0  0  3  0  0  0  0  0  0
  161.7960  206.9810  149.3940 N   0  0  0  0  0  0  0  0  0  0  0  0
  161.3190  205.6720  149.3900 N   0  0  0  0  0  2  0  0  0  0  0  0
  161.5220  206.2960  152.7330 C   0  0  0  0  0  3  0  0  0  0  0  0
  161.9970  209.7440  149.6310 C   0  0  0  0  0  0  0  0  0  0  0  0
  161.3200  209.6950  152.0170 C   0  0  0  0  0  0  0  0  0  0  0  0
  159.7050  210.7020  153.5240 C   0  0  0  0  0  3  0  0  0  0  0  0
  162.3310  209.9370  152.9540 C   0  0  0  0  0  3  0  0  0  0  0  0
  162.0320  210.5580  154.1700 C   0  0  0  0  0  3  0  0  0  0  0  0
  160.0040  210.0810  152.3090 C   0  0  0  0  0  3  0  0  0  0  0  0
  160.7180  210.9460  154.4640 C   0  0  0  0  0  0  0  0  0  0  0  0
  160.4030  211.6000  155.7450 C   0  0  0  0  0  0  0  0  0  0  0  0
  160.0810  212.8170  155.7770 O   0  0  0  0  0  0  0  0  0  0  0  0
  160.4610  210.8640  156.9640 N   0  0  0  0  0  1  0  0  0  0  0  0
  162.1540  211.2360  149.6550 C   0  0  0  0  0  2  0  0  0  0  0  0
  161.9240  211.8370  148.2760 C   0  0  0  0  0  2  0  0  0  0  0  0
  163.0810  212.7370  147.8860 C   0  0  0  0  0  1  0  0  0  0  0  0
  1  2  1  0  0  0  0
  1  4  1  0  0  0  0
  2 14  1  0  0  0  0
  3  6  2  0  0  0  0
  3 10  1  0  0  0  0
  4 12  1  1  0  0  0
  5  9  1  0  0  0  0
  6 13  1  0  0  0  0
  7  8  1  1  0  0  0
  7  4  1  0  0  0  0
  8  5  2  0  0  0  0
 10  1  1  0  0  0  0
 11 10  1  0  0  0  0
 11  7  1  0  0  0  0
 12  9  2  0  0  0  0
 13 23  1  0  0  0  0
 13  2  2  0  0  0  0
 14 18  2  0  0  0  0
 14 16  1  0  0  0  0
 15 19  2  0  0  0  0
 16 17  2  0  0  0  0
 17 19  1  0  0  0  0
 18 15  1  0  0  0  0
 19 20  1  0  0  0  0
 20 21  2  0  0  0  0
 20 22  1  0  0  0  0
 24 23  1  0  0  0  0
 25 24  1  0  0  0  0
M  END
>  <MODEL>
4

>  <REMARK>
 VINA RESULT:      -8.2      2.126      3.036
  Name = 
  4 active torsions:
  status: ('A' for Active; 'I' for Inactive)
    1  A    between atoms: C_2  and  C_25
    2  A    between atoms: C_3  and  C_6
    3  A    between atoms: C_13  and  C_14
    4  A    between atoms: C_14  and  C_24
                            x       y       z     vdW  Elec       q    Type
                         _______ _______ _______ _____ _____    ______ ____

>  <TORSDO>
F 4

$$$$
=
 OpenBabel11052422223D

 25 28  0  0  1  0  0  0  0  0999 V2000
  161.3770  206.5890  151.2740 N   0  0  0  0  0  0  0  0  0  0  0  0
  161.2780  205.3280  150.5860 C   0  0  0  0  0  0  0  0  0  0  0  0
  161.2530  205.4520  153.4520 C   0  0  0  0  0  3  0  0  0  0  0  0
  160.9760  207.9010  150.7850 C   0  0  1  0  0  3  0  0  0  0  0  0
  161.5870  210.7060  151.1070 C   0  0  0  0  0  3  0  0  0  0  0  0
  161.2330  204.2760  152.8190 C   0  0  0  0  0  3  0  0  0  0  0  0
  160.8140  208.6570  152.0780 C   0  0  2  0  0  3  0  0  0  0  0  0
  160.9080  210.1180  152.1020 C   0  0  0  0  0  3  0  0  0  0  0  0
  162.2590  209.8940  150.0580 C   0  0  0  0  0  3  0  0  0  0  0  0
  161.3050  206.6380  152.6650 N   0  0  0  0  0  0  0  0  0  0  0  0
  161.0030  207.9180  153.1230 N   0  0  0  0  0  2  0  0  0  0  0  0
  162.0290  208.5750  149.9420 C   0  0  0  0  0  3  0  0  0  0  0  0
  161.2340  204.1970  151.3360 C   0  0  0  0  0  0  0  0  0  0  0  0
  161.2400  205.2900  149.1080 C   0  0  0  0  0  0  0  0  0  0  0  0
  162.0030  204.3520  147.0030 C   0  0  0  0  0  3  0  0  0  0  0  0
  160.3970  206.1580  148.4050 C   0  0  0  0  0  3  0  0  0  0  0  0
  160.3580  206.1250  147.0080 C   0  0  0  0  0  3  0  0  0  0  0  0
  162.0430  204.3850  148.3990 C   0  0  0  0  0  3  0  0  0  0  0  0
  161.1600  205.2220  146.2970 C   0  0  0  0  0  0  0  0  0  0  0  0
  161.1170  205.1880  144.8250 C   0  0  0  0  0  0  0  0  0  0  0  0
  161.8620  205.9440  144.1480 O   0  0  0  0  0  0  0  0  0  0  0  0
  160.2310  204.2990  144.1500 N   0  0  0  0  0  1  0  0  0  0  0  0
  161.2150  202.8300  150.7190 C   0  0  0  0  0  2  0  0  0  0  0  0
  159.8120  202.4470  150.2700 C   0  0  0  0  0  2  0  0  0  0  0  0
  159.8680  201.5120  149.0780 C   0  0  0  0  0  1  0  0  0  0  0  0
  1 10  1  0  0  0  0
  2  1  1  0  0  0  0
  2 13  2  0  0  0  0
  4 12  1  6  0  0  0
  4  1  1  0  0  0  0
  4  7  1  0  0  0  0
  5  8  2  0  0  0  0
  6  3  2  0  0  0  0
  7  8  1  6  0  0  0
  7 11  1  0  0  0  0
  9  5  1  0  0  0  0
 10 11  1  0  0  0  0
 10  3  1  0  0  0  0
 12  9  2  0  0  0  0
 13  6  1  0  0  0  0
 14  2  1  0  0  0  0
 15 18  1  0  0  0  0
 16 14  1  0  0  0  0
 17 16  2  0  0  0  0
 18 14  2  0  0  0  0
 19 15  2  0  0  0  0
 19 17  1  0  0  0  0
 20 19  1  0  0  0  0
 21 20  2  0  0  0  0
 22 20  1  0  0  0  0
 23 13  1  0  0  0  0
 24 23  1  0  0  0  0
 25 24  1  0  0  0  0
M  END
>  <MODEL>
5

>  <REMARK>
 VINA RESULT:      -8.1      3.137      7.343
  Name = 
  4 active torsions:
  status: ('A' for Active; 'I' for Inactive)
    1  A    between atoms: C_2  and  C_25
    2  A    between atoms: C_3  and  C_6
    3  A    between atoms: C_13  and  C_14
    4  A    between atoms: C_14  and  C_24
                            x       y       z     vdW  Elec       q    Type
                         _______ _______ _______ _____ _____    ______ ____

>  <TORSDO>
F 4

$$$$
=
 OpenBabel11052422223D

 25 28  0  0  1  0  0  0  0  0999 V2000
  161.1130  203.8740  148.1750 N   0  0  0  0  0  0  0  0  0  0  0  0
  161.2910  204.0310  149.5950 C   0  0  0  0  0  0  0  0  0  0  0  0
  161.0040  201.4290  148.4220 C   0  0  0  0  0  3  0  0  0  0  0  0
  161.5590  204.7730  147.1190 C   0  0  1  0  0  3  0  0  0  0  0  0
  160.9050  205.5770  144.4230 C   0  0  0  0  0  3  0  0  0  0  0  0
  161.0970  201.5740  149.7460 C   0  0  0  0  0  3  0  0  0  0  0  0
  161.5770  203.8440  145.9330 C   0  0  2  0  0  3  0  0  0  0  0  0
  161.4740  204.3730  144.5720 C   0  0  0  0  0  3  0  0  0  0  0  0
  160.3540  206.3110  145.5930 C   0  0  0  0  0  3  0  0  0  0  0  0
  161.0330  202.6010  147.6140 N   0  0  0  0  0  0  0  0  0  0  0  0
  161.2790  202.6240  146.2430 N   0  0  0  0  0  2  0  0  0  0  0  0
  160.6010  205.9050  146.8510 C   0  0  0  0  0  3  0  0  0  0  0  0
  161.2570  202.9150  150.3670 C   0  0  0  0  0  0  0  0  0  0  0  0
  161.4880  205.3780  150.1740 C   0  0  0  0  0  0  0  0  0  0  0  0
  162.9040  207.0130  151.2770 C   0  0  0  0  0  3  0  0  0  0  0  0
  160.4410  206.3060  150.1640 C   0  0  0  0  0  3  0  0  0  0  0  0
  160.6230  207.5800  150.7080 C   0  0  0  0  0  3  0  0  0  0  0  0
  162.7220  205.7380  150.7330 C   0  0  0  0  0  3  0  0  0  0  0  0
  161.8550  207.9430  151.2680 C   0  0  0  0  0  0  0  0  0  0  0  0
  162.0460  209.2870  151.8410 C   0  0  0  0  0  0  0  0  0  0  0  0
  162.6150  210.1890  151.1720 O   0  0  0  0  0  0  0  0  0  0  0  0
  161.5900  209.5810  153.1590 N   0  0  0  0  0  1  0  0  0  0  0  0
  161.3490  202.9750  151.8630 C   0  0  0  0  0  2  0  0  0  0  0  0
  160.2700  203.8760  152.4460 C   0  0  0  0  0  2  0  0  0  0  0  0
  160.8600  204.8190  153.4770 C   0  0  0  0  0  1  0  0  0  0  0  0
  1  2  1  0  0  0  0
  2 14  1  0  0  0  0
  2 13  2  0  0  0  0
  3  6  2  0  0  0  0
  4 12  1  6  0  0  0
  4  1  1  0  0  0  0
  5  8  2  0  0  0  0
  5  9  1  0  0  0  0
  6 13  1  0  0  0  0
  7  8  1  6  0  0  0
  7 11  1  0  0  0  0
  7  4  1  0  0  0  0
  9 12  2  0  0  0  0
 10  1  1  0  0  0  0
 10  3  1  0  0  0  0
 11 10  1  0  0  0  0
 13 23  1  0  0  0  0
 14 18  1  0  0  0  0
 16 14  2  0  0  0  0
 16 17  1  0  0  0  0
 17 19  2  0  0  0  0
 18 15  2  0  0  0  0
 19 15  1  0  0  0  0
 19 20  1  0  0  0  0
 20 22  1  0  0  0  0
 21 20  2  0  0  0  0
 23 24  1  0  0  0  0
 24 25  1  0  0  0  0
M  END
>  <MODEL>
6

>  <REMARK>
 VINA RESULT:      -7.9      2.412      4.796
  Name = 
  4 active torsions:
  status: ('A' for Active; 'I' for Inactive)
    1  A    between atoms: C_2  and  C_25
    2  A    between atoms: C_3  and  C_6
    3  A    between atoms: C_13  and  C_14
    4  A    between atoms: C_14  and  C_24
                            x       y       z     vdW  Elec       q    Type
                         _______ _______ _______ _____ _____    ______ ____

>  <TORSDO>
F 4

$$$$
=
 OpenBabel11052422223D

 25 28  0  0  1  0  0  0  0  0999 V2000
  161.4420  206.9420  150.6460 N   0  0  0  0  0  0  0  0  0  0  0  0
  161.6340  207.7000  149.4380 C   0  0  0  0  0  0  0  0  0  0  0  0
  161.9460  208.9230  152.0140 C   0  0  0  0  0  3  0  0  0  0  0  0
  161.6100  205.5060  150.8300 C   0  0  1  0  0  3  0  0  0  0  0  0
  160.6700  203.3210  152.4690 C   0  0  0  0  0  3  0  0  0  0  0  0
  162.0550  209.6470  150.8970 C   0  0  0  0  0  3  0  0  0  0  0  0
  161.8070  205.4240  152.3220 C   0  0  2  0  0  3  0  0  0  0  0  0
  161.5220  204.1820  153.0420 C   0  0  0  0  0  3  0  0  0  0  0  0
  160.0040  203.6510  151.1800 C   0  0  0  0  0  3  0  0  0  0  0  0
  161.6540  207.5350  151.8890 N   0  0  0  0  0  0  0  0  0  0  0  0
  161.8300  206.5850  152.8930 N   0  0  0  0  0  2  0  0  0  0  0  0
  160.3940  204.7050  150.4430 C   0  0  0  0  0  3  0  0  0  0  0  0
  161.9060  209.0250  149.5560 C   0  0  0  0  0  0  0  0  0  0  0  0
  161.5190  207.0390  148.1200 C   0  0  0  0  0  0  0  0  0  0  0  0
  162.5400  205.8980  146.2360 C   0  0  0  0  0  3  0  0  0  0  0  0
  160.2690  206.9200  147.5010 C   0  0  0  0  0  3  0  0  0  0  0  0
  160.1540  206.2950  146.2570 C   0  0  0  0  0  3  0  0  0  0  0  0
  162.6550  206.5230  147.4810 C   0  0  0  0  0  3  0  0  0  0  0  0
  161.2880  205.7800  145.6150 C   0  0  0  0  0  0  0  0  0  0  0  0
  161.1670  205.1200  144.3040 C   0  0  0  0  0  0  0  0  0  0  0  0
  160.5910  204.0040  144.2030 O   0  0  0  0  0  0  0  0  0  0  0  0
  161.6990  205.7360  143.1340 N   0  0  0  0  0  1  0  0  0  0  0  0
  162.0420  209.9230  148.3610 C   0  0  0  0  0  2  0  0  0  0  0  0
  162.0330  211.3880  148.7700 C   0  0  0  0  0  2  0  0  0  0  0  0
  162.9650  212.1950  147.8870 C   0  0  0  0  0  1  0  0  0  0  0  0
  1  4  1  0  0  0  0
  1 10  1  0  0  0  0
  2 13  2  0  0  0  0
  2  1  1  0  0  0  0
  4 12  1  1  0  0  0
  4  7  1  0  0  0  0
  5  8  2  0  0  0  0
  6  3  2  0  0  0  0
  7 11  1  0  0  0  0
  7  8  1  1  0  0  0
  9  5  1  0  0  0  0
 10  3  1  0  0  0  0
 10 11  1  0  0  0  0
 12  9  2  0  0  0  0
 13  6  1  0  0  0  0
 14  2  1  0  0  0  0
 15 18  1  0  0  0  0
 16 14  1  0  0  0  0
 17 16  2  0  0  0  0
 18 14  2  0  0  0  0
 19 15  2  0  0  0  0
 19 17  1  0  0  0  0
 20 19  1  0  0  0  0
 21 20  2  0  0  0  0
 22 20  1  0  0  0  0
 23 24  1  0  0  0  0
 23 13  1  0  0  0  0
 25 24  1  0  0  0  0
M  END
>  <MODEL>
7

>  <REMARK>
 VINA RESULT:      -7.3      3.289      6.016
  Name = 
  4 active torsions:
  status: ('A' for Active; 'I' for Inactive)
    1  A    between atoms: C_2  and  C_25
    2  A    between atoms: C_3  and  C_6
    3  A    between atoms: C_13  and  C_14
    4  A    between atoms: C_14  and  C_24
                            x       y       z     vdW  Elec       q    Type
                         _______ _______ _______ _____ _____    ______ ____

>  <TORSDO>
F 4

$$$$
=
 OpenBabel11052422223D

 25 28  0  0  1  0  0  0  0  0999 V2000
  161.1480  208.4740  152.8450 N   0  0  0  0  0  0  0  0  0  0  0  0
  161.2890  207.9650  151.5060 C   0  0  0  0  0  0  0  0  0  0  0  0
  161.5810  210.7650  152.0590 C   0  0  0  0  0  3  0  0  0  0  0  0
  161.3850  207.7630  154.0940 C   0  0  1  0  0  3  0  0  0  0  0  0
  160.5670  207.7500  156.8650 C   0  0  0  0  0  3  0  0  0  0  0  0
  161.6410  210.3070  150.8060 C   0  0  0  0  0  3  0  0  0  0  0  0
  161.6050  208.9110  155.0460 C   0  0  2  0  0  3  0  0  0  0  0  0
  161.3870  208.7380  156.4830 C   0  0  0  0  0  3  0  0  0  0  0  0
  159.8700  206.9060  155.8590 C   0  0  0  0  0  3  0  0  0  0  0  0
  161.3500  209.8280  153.1070 N   0  0  0  0  0  0  0  0  0  0  0  0
  161.5830  210.0640  154.4600 N   0  0  0  0  0  2  0  0  0  0  0  0
  160.2000  206.9530  154.5570 C   0  0  0  0  0  3  0  0  0  0  0  0
  161.5030  208.8580  150.5060 C   0  0  0  0  0  0  0  0  0  0  0  0
  161.1860  206.5120  151.2490 C   0  0  0  0  0  0  0  0  0  0  0  0
  161.9560  204.2420  151.6360 C   0  0  0  0  0  3  0  0  0  0  0  0
  160.2110  206.0220  150.3740 C   0  0  0  0  0  3  0  0  0  0  0  0
  160.1090  204.6500  150.1290 C   0  0  0  0  0  3  0  0  0  0  0  0
  162.0580  205.6140  151.8810 C   0  0  0  0  0  3  0  0  0  0  0  0
  160.9800  203.7500  150.7580 C   0  0  0  0  0  0  0  0  0  0  0  0
  160.8710  202.3040  150.5000 C   0  0  0  0  0  0  0  0  0  0  0  0
  161.4760  201.4790  151.2350 O   0  0  0  0  0  0  0  0  0  0  0  0
  160.0810  201.8220  149.4170 N   0  0  0  0  0  1  0  0  0  0  0  0
  161.5810  208.4420  149.0660 C   0  0  0  0  0  2  0  0  0  0  0  0
  162.8630  207.6720  148.7840 C   0  0  0  0  0  2  0  0  0  0  0  0
  162.6150  206.5780  147.7630 C   0  0  0  0  0  1  0  0  0  0  0  0
  1 10  1  0  0  0  0
  1  4  1  0  0  0  0
  2  1  1  0  0  0  0
  3 10  1  0  0  0  0
  4 12  1  1  0  0  0
  4  7  1  0  0  0  0
  6  3  2  0  0  0  0
  7  8  1  1  0  0  0
  8  5  2  0  0  0  0
  9  5  1  0  0  0  0
 10 11  1  0  0  0  0
 11  7  1  0  0  0  0
 12  9  2  0  0  0  0
 13  6  1  0  0  0  0
 13  2  2  0  0  0  0
 14  2  1  0  0  0  0
 14 18  1  0  0  0  0
 15 18  2  0  0  0  0
 16 14  2  0  0  0  0
 17 16  1  0  0  0  0
 17 19  2  0  0  0  0
 19 15  1  0  0  0  0
 20 19  1  0  0  0  0
 20 21  2  0  0  0  0
 22 20  1  0  0  0  0
 23 13  1  0  0  0  0
 24 23  1  0  0  0  0
 25 24  1  0  0  0  0
M  END
>  <MODEL>
8

>  <REMARK>
 VINA RESULT:      -7.2      2.324      5.950
  Name = 
  4 active torsions:
  status: ('A' for Active; 'I' for Inactive)
    1  A    between atoms: C_2  and  C_25
    2  A    between atoms: C_3  and  C_6
    3  A    between atoms: C_13  and  C_14
    4  A    between atoms: C_14  and  C_24
                            x       y       z     vdW  Elec       q    Type
                         _______ _______ _______ _____ _____    ______ ____

>  <TORSDO>
F 4

$$$$
=
 OpenBabel11052422223D

 25 28  0  0  1  0  0  0  0  0999 V2000
  160.9570  207.6450  152.8090 N   0  0  0  0  0  0  0  0  0  0  0  0
  161.0110  209.0650  153.0430 C   0  0  0  0  0  0  0  0  0  0  0  0
  160.7410  207.2190  155.2220 C   0  0  0  0  0  3  0  0  0  0  0  0
  161.5290  206.9070  151.6910 C   0  0  1  0  0  3  0  0  0  0  0  0
  161.1510  204.4820  150.1670 C   0  0  0  0  0  3  0  0  0  0  0  0
  160.7190  208.5370  155.4370 C   0  0  0  0  0  3  0  0  0  0  0  0
  161.6220  205.5200  152.2730 C   0  0  2  0  0  3  0  0  0  0  0  0
  161.6620  204.3470  151.3980 C   0  0  0  0  0  3  0  0  0  0  0  0
  160.5220  205.7590  149.7380 C   0  0  0  0  0  3  0  0  0  0  0  0
  160.8850  206.7590  153.8820 N   0  0  0  0  0  0  0  0  0  0  0  0
  161.2540  205.4670  153.5130 N   0  0  0  0  0  2  0  0  0  0  0  0
  160.6390  206.8770  150.4740 C   0  0  0  0  0  3  0  0  0  0  0  0
  160.8680  209.5040  154.3190 C   0  0  0  0  0  0  0  0  0  0  0  0
  161.2020  209.9960  151.9100 C   0  0  0  0  0  0  0  0  0  0  0  0
  160.5940  212.0250  150.7220 C   0  0  0  0  0  3  0  0  0  0  0  0
  162.1820  209.7370  150.9450 C   0  0  0  0  0  3  0  0  0  0  0  0
  162.3670  210.6140  149.8740 C   0  0  0  0  0  3  0  0  0  0  0  0
  160.4090  211.1470  151.7940 C   0  0  0  0  0  3  0  0  0  0  0  0
  161.5750  211.7640  149.7540 C   0  0  0  0  0  0  0  0  0  0  0  0
  161.7720  212.6900  148.6250 C   0  0  0  0  0  0  0  0  0  0  0  0
  160.8460  213.4680  148.2710 O   0  0  0  0  0  0  0  0  0  0  0  0
  163.0100  212.7160  147.9200 N   0  0  0  0  0  1  0  0  0  0  0  0
  160.8260  210.9640  154.6610 C   0  0  0  0  0  2  0  0  0  0  0  0
  159.6750  211.2750  155.6070 C   0  0  0  0  0  2  0  0  0  0  0  0
  158.3660  211.3630  154.8460 C   0  0  0  0  0  1  0  0  0  0  0  0
  1  2  1  0  0  0  0
  1 10  1  0  0  0  0
  2 13  2  0  0  0  0
  3  6  2  0  0  0  0
  4 12  1  6  0  0  0
  4  7  1  0  0  0  0
  4  1  1  0  0  0  0
  5  8  2  0  0  0  0
  7  8  1  6  0  0  0
  7 11  1  0  0  0  0
  9  5  1  0  0  0  0
  9 12  2  0  0  0  0
 10  3  1  0  0  0  0
 11 10  1  0  0  0  0
 13 23  1  0  0  0  0
 13  6  1  0  0  0  0
 14  2  1  0  0  0  0
 15 18  2  0  0  0  0
 16 14  2  0  0  0  0
 17 16  1  0  0  0  0
 18 14  1  0  0  0  0
 19 17  2  0  0  0  0
 19 15  1  0  0  0  0
 20 19  1  0  0  0  0
 21 20  2  0  0  0  0
 22 20  1  0  0  0  0
 23 24  1  0  0  0  0
 25 24  1  0  0  0  0
M  END
>  <MODEL>
9

>  <REMARK>
 VINA RESULT:      -6.9      3.323      5.954
  Name = 
  4 active torsions:
  status: ('A' for Active; 'I' for Inactive)
    1  A    between atoms: C_2  and  C_25
    2  A    between atoms: C_3  and  C_6
    3  A    between atoms: C_13  and  C_14
    4  A    between atoms: C_14  and  C_24
                            x       y       z     vdW  Elec       q    Type
                         _______ _______ _______ _____ _____    ______ ____

>  <TORSDO>
F 4

$$$$
